MYPHZBOANNRFAS-AGTLBBOYNA-N
     RDKit          3D

 61 66  0  0  0  0  0  0  0  0999 V2000
  145.1700   73.4000  219.1120 C   0  0  0  0  0  0  0  0  0  0  0  0
  143.7900   73.7130  219.6920 C   0  0  2  0  0  0  0  0  0  0  0  0
  142.7100   73.6740  218.5840 C   0  0  0  0  0  0  0  0  0  0  0  0
  141.4470   74.4040  219.0380 C   0  0  0  0  0  0  0  0  0  0  0  0
  141.7580   75.8960  219.3400 C   0  0  1  0  0  0  0  0  0  0  0  0
  140.8320   76.5350  220.3110 N   0  0  0  0  0  0  0  0  0  0  0  0
  140.6880   75.7990  221.5810 C   0  0  0  0  0  0  0  0  0  0  0  0
  140.9840   76.7680  222.7150 C   0  0  0  0  0  0  0  0  0  0  0  0
  140.7240   78.1410  222.1050 C   0  0  1  0  0  0  0  0  0  0  0  0
  139.2390   78.6120  222.2920 C   0  0  0  0  0  0  0  0  0  0  0  0
  139.3120   79.9390  222.9140 N   0  0  0  0  0  0  0  0  0  0  0  0
  138.2640   80.9160  222.8020 C   0  0  0  0  0  0  0  0  0  0  0  0
  137.8630   81.2750  221.6630 O   0  0  0  0  0  0  0  0  0  0  0  0
  137.6310   81.4850  224.0000 C   0  0  0  0  0  0  0  0  0  0  0  0
  137.5910   80.8640  225.2480 C   0  0  0  0  0  0  0  0  0  0  0  0
  136.8820   81.7290  226.0510 C   0  0  0  0  0  0  0  0  0  0  0  0
  136.5320   81.6330  227.3960 C   0  0  0  0  0  0  0  0  0  0  0  0
  135.7810   82.6830  227.9530 C   0  0  0  0  0  0  0  0  0  0  0  0
  135.3980   83.7880  227.1620 C   0  0  0  0  0  0  0  0  0  0  0  0
  134.6710   84.7920  227.7130 F   0  0  0  0  0  0  0  0  0  0  0  0
  135.7660   83.8550  225.8060 C   0  0  0  0  0  0  0  0  0  0  0  0
  136.5180   82.8030  225.2830 C   0  0  0  0  0  0  0  0  0  0  0  0
  136.9690   82.6680  224.0250 N   0  0  0  0  0  0  0  0  0  0  0  0
  140.6740   80.2400  223.1800 C   0  0  0  0  0  0  0  0  0  0  0  0
  141.1680   81.3850  223.8170 C   0  0  0  0  0  0  0  0  0  0  0  0
  142.5550   81.5050  223.9980 C   0  0  0  0  0  0  0  0  0  0  0  0
  143.4180   80.4880  223.5490 C   0  0  0  0  0  0  0  0  0  0  0  0
  142.8980   79.3450  222.9240 C   0  0  0  0  0  0  0  0  0  0  0  0
  141.5100   79.2410  222.7580 C   0  0  0  0  0  0  0  0  0  0  0  0
  141.0930   77.9490  220.6310 C   0  0  0  0  0  0  0  0  0  0  0  0
  143.2430   76.1370  219.7250 C   0  0  0  0  0  0  0  0  0  0  0  0
  143.8480   74.9940  220.4290 N   0  0  0  0  0  0  0  0  0  0  0  0
  145.8844   73.2380  219.9326 H   0  0  0  0  0  0  0  0  0  0  0  0
  145.1104   72.4926  218.4931 H   0  0  0  0  0  0  0  0  0  0  0  0
  145.5077   74.2444  218.4931 H   0  0  0  0  0  0  0  0  0  0  0  0
  143.4939   72.9403  220.4168 H   0  0  0  0  0  0  0  0  0  0  0  0
  143.1030   74.1602  217.6789 H   0  0  0  0  0  0  0  0  0  0  0  0
  142.4565   72.6247  218.3728 H   0  0  0  0  0  0  0  0  0  0  0  0
  140.6899   74.3462  218.2421 H   0  0  0  0  0  0  0  0  0  0  0  0
  141.0712   73.9268  219.9551 H   0  0  0  0  0  0  0  0  0  0  0  0
  141.5776   76.4046  218.3815 H   0  0  0  0  0  0  0  0  0  0  0  0
  139.6621   75.4136  221.6761 H   0  0  0  0  0  0  0  0  0  0  0  0
  141.3826   74.9466  221.6124 H   0  0  0  0  0  0  0  0  0  0  0  0
  140.3148   76.5865  223.5689 H   0  0  0  0  0  0  0  0  0  0  0  0
  142.0079   76.6646  223.1036 H   0  0  0  0  0  0  0  0  0  0  0  0
  138.7318   78.6737  221.3179 H   0  0  0  0  0  0  0  0  0  0  0  0
  138.6672   77.9065  222.9127 H   0  0  0  0  0  0  0  0  0  0  0  0
  138.0298   79.8953  225.5293 H   0  0  0  0  0  0  0  0  0  0  0  0
  136.8329   80.7654  228.0015 H   0  0  0  0  0  0  0  0  0  0  0  0
  135.4897   82.6433  229.0130 H   0  0  0  0  0  0  0  0  0  0  0  0
  135.4705   84.7089  225.1787 H   0  0  0  0  0  0  0  0  0  0  0  0
  136.8080   83.3240  223.2310 H   0  0  0  0  0  0  0  0  0  0  0  0
  140.4848   82.1726  224.1676 H   0  0  0  0  0  0  0  0  0  0  0  0
  142.9684   82.3965  224.4922 H   0  0  0  0  0  0  0  0  0  0  0  0
  144.5043   80.5898  223.6887 H   0  0  0  0  0  0  0  0  0  0  0  0
  143.5664   78.5458  222.5710 H   0  0  0  0  0  0  0  0  0  0  0  0
  140.4748   78.6017  219.9971 H   0  0  0  0  0  0  0  0  0  0  0  0
  142.1465   78.2082  220.4494 H   0  0  0  0  0  0  0  0  0  0  0  0
  143.8170   76.3263  218.8060 H   0  0  0  0  0  0  0  0  0  0  0  0
  143.2696   76.9969  220.4104 H   0  0  0  0  0  0  0  0  0  0  0  0
  143.4100   74.8890  221.3710 H   0  0  0  0  0  0  0  0  0  0  0  0
  1  2  1  0
  2  3  1  0
  3  4  1  0
  4  5  1  0
  5  6  1  0
  6  7  1  0
  7  8  1  0
  9  8  1  1
  9 10  1  0
 10 11  1  0
 11 12  1  0
 12 13  2  0
 12 14  1  0
 14 15  2  0
 15 16  1  0
 16 17  2  0
 17 18  1  0
 18 19  2  0
 19 20  1  0
 19 21  1  0
 21 22  2  0
 22 23  1  0
 11 24  1  0
 24 25  2  0
 25 26  1  0
 26 27  2  0
 27 28  1  0
 28 29  2  0
  9 30  1  0
  5 31  1  0
 31 32  1  0
 32  2  1  0
 30  6  1  0
 29  9  1  0
 23 14  1  0
 29 24  1  0
 22 16  1  0
  1 33  1  0
  1 34  1  0
  1 35  1  0
  2 36  1  1
  3 37  1  0
  3 38  1  0
  4 39  1  0
  4 40  1  0
  5 41  1  6
  7 42  1  0
  7 43  1  0
  8 44  1  0
  8 45  1  0
 10 46  1  0
 10 47  1  0
 15 48  1  0
 17 49  1  0
 18 50  1  0
 21 51  1  0
 23 52  1  0
 25 53  1  0
 26 54  1  0
 27 55  1  0
 28 56  1  0
 30 57  1  0
 30 58  1  0
 31 59  1  0
 31 60  1  0
 32 61  1  0
M  END
>  <UniqueID>  (1) 
92

>  <SMILES>  (1) 
C[C@@H]1CC[C@@H](N2CC[C@]3(CN(C(=O)c4cc5ccc(F)cc5[nH]4)c4ccccc43)C2)CN1

>  <Energy>  (1) 
132.7403277397057

>  <Genealogy>  (1) 
C[C@@H]1CC[C@@H](N2CC[C@]3(CN(C(=O)c4cc5ccc(F)cc5[nH]4)c4ccccc43)C2)CN1 (chirality)
C[C@@H]1CC[C@@H](N2CC[C@]3(CN(C(=O)c4cc5ccc(F)cc5[nH]4)c4ccccc43)C2)CN1 (3D coordinates assigned)
C[C@@H]1CC[C@@H](N2CC[C@]3(CN(C(=O)c4cc5ccc(F)cc5[nH]4)c4ccccc43)C2)CN1 (nonaromatic ring conformer: 132.7403277397057 kcal/mol)

>  <smiles>  (1) 
C[C@@H]1CCC(N2CC[C@]3(CN(C(=O)c4cc5ccc(F)cc5[nH]4)c4ccccc43)C2)CN1

>  <score_type>  (1) 
oracle

>  <origin>  (1) 
autodockgpu

>  <m_score__min__energy>  (1) 
-9.3300000000000001

>  <m_primary>  (1) 
energy

>  <meeko>  (1) 
{"free_energy": -8.4, "intermolecular_energy": -9.29, "internal_energy": -1.34, "cluster_size": 1, "cluster_id": 2, "rank_in_cluster": 1}

>  <energy>  (1) 
-9.33

>  <cluster_rmsd>  (1) 
0.0

>  <rmsd>  (1) 
270.78

>  <cluster>  (1) 
1

$$$$
MYPHZBOANNRFAS-AGTLBBOYNA-N
     RDKit          3D

 61 66  0  0  0  0  0  0  0  0999 V2000
  142.8470   80.5180  223.8480 C   0  0  0  0  0  0  0  0  0  0  0  0
  142.5740   79.4190  222.8190 C   0  0  2  0  0  0  0  0  0  0  0  0
  141.9150   80.0110  221.5500 C   0  0  0  0  0  0  0  0  0  0  0  0
  141.2440   78.9110  220.7300 C   0  0  0  0  0  0  0  0  0  0  0  0
  140.1280   78.2160  221.5590 C   0  0  1  0  0  0  0  0  0  0  0  0
  139.8290   76.8210  221.1430 N   0  0  0  0  0  0  0  0  0  0  0  0
  139.7190   76.6370  219.6850 C   0  0  0  0  0  0  0  0  0  0  0  0
  140.6660   75.5160  219.2850 C   0  0  0  0  0  0  0  0  0  0  0  0
  140.8550   74.7170  220.5700 C   0  0  1  0  0  0  0  0  0  0  0  0
  139.8000   73.5660  220.7240 C   0  0  0  0  0  0  0  0  0  0  0  0
  140.5710   72.3390  220.9550 N   0  0  0  0  0  0  0  0  0  0  0  0
  140.0330   71.1900  221.6280 C   0  0  0  0  0  0  0  0  0  0  0  0
  139.4300   70.3030  220.9670 O   0  0  0  0  0  0  0  0  0  0  0  0
  140.1990   71.0170  223.0790 C   0  0  0  0  0  0  0  0  0  0  0  0
  140.7050   71.9890  223.9410 C   0  0  0  0  0  0  0  0  0  0  0  0
  140.7120   71.3920  225.1810 C   0  0  0  0  0  0  0  0  0  0  0  0
  141.1110   71.8870  226.4210 C   0  0  0  0  0  0  0  0  0  0  0  0
  141.0150   71.0290  227.5300 C   0  0  0  0  0  0  0  0  0  0  0  0
  140.5330   69.7110  227.3760 C   0  0  0  0  0  0  0  0  0  0  0  0
  140.4470   68.8930  228.4550 F   0  0  0  0  0  0  0  0  0  0  0  0
  140.1380   69.2400  226.1100 C   0  0  0  0  0  0  0  0  0  0  0  0
  140.2370   70.1160  225.0300 C   0  0  0  0  0  0  0  0  0  0  0  0
  139.9200   69.8720  223.7480 N   0  0  0  0  0  0  0  0  0  0  0  0
  141.9540   72.6510  220.8660 C   0  0  0  0  0  0  0  0  0  0  0  0
  143.0230   71.7520  220.9710 C   0  0  0  0  0  0  0  0  0  0  0  0
  144.3300   72.2470  220.8490 C   0  0  0  0  0  0  0  0  0  0  0  0
  144.5490   73.6180  220.6220 C   0  0  0  0  0  0  0  0  0  0  0  0
  143.4610   74.4980  220.5100 C   0  0  0  0  0  0  0  0  0  0  0  0
  142.1640   73.9830  220.6280 C   0  0  0  0  0  0  0  0  0  0  0  0
  140.7250   75.7770  221.6690 C   0  0  0  0  0  0  0  0  0  0  0  0
  140.3650   78.3170  223.0910 C   0  0  0  0  0  0  0  0  0  0  0  0
  141.7910   78.3380  223.4540 N   0  0  0  0  0  0  0  0  0  0  0  0
  142.7443   80.1045  224.8621 H   0  0  0  0  0  0  0  0  0  0  0  0
  143.8681   80.9033  223.7108 H   0  0  0  0  0  0  0  0  0  0  0  0
  142.1248   81.3363  223.7108 H   0  0  0  0  0  0  0  0  0  0  0  0
  143.5180   78.9702  222.4763 H   0  0  0  0  0  0  0  0  0  0  0  0
  141.1588   80.7524  221.8476 H   0  0  0  0  0  0  0  0  0  0  0  0
  142.6932   80.4870  220.9353 H   0  0  0  0  0  0  0  0  0  0  0  0
  140.8006   79.3533  219.8257 H   0  0  0  0  0  0  0  0  0  0  0  0
  142.0007   78.1616  220.4545 H   0  0  0  0  0  0  0  0  0  0  0  0
  139.2216   78.7936  221.3249 H   0  0  0  0  0  0  0  0  0  0  0  0
  138.6863   76.3673  219.4187 H   0  0  0  0  0  0  0  0  0  0  0  0
  139.9810   77.5672  219.1595 H   0  0  0  0  0  0  0  0  0  0  0  0
  140.2208   74.8903  218.4974 H   0  0  0  0  0  0  0  0  0  0  0  0
  141.6159   75.8900  218.8753 H   0  0  0  0  0  0  0  0  0  0  0  0
  139.1368   73.7672  221.5782 H   0  0  0  0  0  0  0  0  0  0  0  0
  139.1641   73.4801  219.8306 H   0  0  0  0  0  0  0  0  0  0  0  0
  141.0278   73.0092  223.6860 H   0  0  0  0  0  0  0  0  0  0  0  0
  141.4884   72.9147  226.5282 H   0  0  0  0  0  0  0  0  0  0  0  0
  141.3176   71.3870  228.5251 H   0  0  0  0  0  0  0  0  0  0  0  0
  139.7634   68.2143  225.9770 H   0  0  0  0  0  0  0  0  0  0  0  0
  139.5660   68.9740  223.3540 H   0  0  0  0  0  0  0  0  0  0  0  0
  142.8416   70.6811  221.1453 H   0  0  0  0  0  0  0  0  0  0  0  0
  145.1861   71.5611  220.9311 H   0  0  0  0  0  0  0  0  0  0  0  0
  145.5760   74.0016  220.5320 H   0  0  0  0  0  0  0  0  0  0  0  0
  143.6240   75.5713  220.3330 H   0  0  0  0  0  0  0  0  0  0  0  0
  140.2952   75.3306  222.5779 H   0  0  0  0  0  0  0  0  0  0  0  0
  141.7072   76.1946  221.9355 H   0  0  0  0  0  0  0  0  0  0  0  0
  139.8967   79.2424  223.4575 H   0  0  0  0  0  0  0  0  0  0  0  0
  139.9223   77.4214  223.5513 H   0  0  0  0  0  0  0  0  0  0  0  0
  142.2210   77.4100  223.2440 H   0  0  0  0  0  0  0  0  0  0  0  0
  1  2  1  0
  2  3  1  0
  3  4  1  0
  4  5  1  0
  5  6  1  0
  6  7  1  0
  7  8  1  0
  9  8  1  6
  9 10  1  0
 10 11  1  0
 11 12  1  0
 12 13  2  0
 12 14  1  0
 14 15  2  0
 15 16  1  0
 16 17  2  0
 17 18  1  0
 18 19  2  0
 19 20  1  0
 19 21  1  0
 21 22  2  0
 22 23  1  0
 11 24  1  0
 24 25  2  0
 25 26  1  0
 26 27  2  0
 27 28  1  0
 28 29  2  0
  9 30  1  0
  5 31  1  0
 31 32  1  0
 32  2  1  0
 30  6  1  0
 29  9  1  0
 23 14  1  0
 29 24  1  0
 22 16  1  0
  1 33  1  0
  1 34  1  0
  1 35  1  0
  2 36  1  6
  3 37  1  0
  3 38  1  0
  4 39  1  0
  4 40  1  0
  5 41  1  1
  7 42  1  0
  7 43  1  0
  8 44  1  0
  8 45  1  0
 10 46  1  0
 10 47  1  0
 15 48  1  0
 17 49  1  0
 18 50  1  0
 21 51  1  0
 23 52  1  0
 25 53  1  0
 26 54  1  0
 27 55  1  0
 28 56  1  0
 30 57  1  0
 30 58  1  0
 31 59  1  0
 31 60  1  0
 32 61  1  0
M  END
>  <UniqueID>  (2) 
92

>  <SMILES>  (2) 
C[C@@H]1CC[C@@H](N2CC[C@]3(CN(C(=O)c4cc5ccc(F)cc5[nH]4)c4ccccc43)C2)CN1

>  <Energy>  (2) 
132.7403277397057

>  <Genealogy>  (2) 
C[C@@H]1CC[C@@H](N2CC[C@]3(CN(C(=O)c4cc5ccc(F)cc5[nH]4)c4ccccc43)C2)CN1 (chirality)
C[C@@H]1CC[C@@H](N2CC[C@]3(CN(C(=O)c4cc5ccc(F)cc5[nH]4)c4ccccc43)C2)CN1 (3D coordinates assigned)
C[C@@H]1CC[C@@H](N2CC[C@]3(CN(C(=O)c4cc5ccc(F)cc5[nH]4)c4ccccc43)C2)CN1 (nonaromatic ring conformer: 132.7403277397057 kcal/mol)

>  <smiles>  (2) 
C[C@@H]1CCC(N2CC[C@]3(CN(C(=O)c4cc5ccc(F)cc5[nH]4)c4ccccc43)C2)CN1

>  <score_type>  (2) 
oracle

>  <origin>  (2) 
autodockgpu

>  <m_score__min__energy>  (2) 
-9.3300000000000001

>  <m_primary>  (2) 
energy

>  <meeko>  (2) 
{"free_energy": -9.33, "intermolecular_energy": -10.22, "internal_energy": -1.55, "cluster_size": 19, "cluster_id": 1, "rank_in_cluster": 1}

>  <energy>  (2) 
-9.33

>  <cluster_rmsd>  (2) 
0.11

>  <rmsd>  (2) 
270.78

>  <cluster>  (2) 
1

$$$$
MYPHZBOANNRFAS-AGTLBBOYNA-N
     RDKit          3D

 61 66  0  0  0  0  0  0  0  0999 V2000
  142.8270   80.5320  223.7480 C   0  0  0  0  0  0  0  0  0  0  0  0
  142.5300   79.4090  222.7540 C   0  0  2  0  0  0  0  0  0  0  0  0
  141.8410   79.9690  221.4870 C   0  0  0  0  0  0  0  0  0  0  0  0
  141.1510   78.8490  220.7100 C   0  0  0  0  0  0  0  0  0  0  0  0
  140.0550   78.1760  221.5830 C   0  0  1  0  0  0  0  0  0  0  0  0
  139.7460   76.7710  221.2090 N   0  0  0  0  0  0  0  0  0  0  0  0
  139.5760   76.5560  219.7610 C   0  0  0  0  0  0  0  0  0  0  0  0
  140.5120   75.4310  219.3460 C   0  0  0  0  0  0  0  0  0  0  0  0
  140.7580   74.6600  220.6380 C   0  0  1  0  0  0  0  0  0  0  0  0
  139.7160   73.5080  220.8590 C   0  0  0  0  0  0  0  0  0  0  0  0
  140.5020   72.2900  221.0840 N   0  0  0  0  0  0  0  0  0  0  0  0
  139.9980   71.1530  221.8030 C   0  0  0  0  0  0  0  0  0  0  0  0
  139.4140   70.2260  221.1790 O   0  0  0  0  0  0  0  0  0  0  0  0
  140.1770   71.0380  223.2570 C   0  0  0  0  0  0  0  0  0  0  0  0
  140.6820   72.0470  224.0770 C   0  0  0  0  0  0  0  0  0  0  0  0
  140.7040   71.4990  225.3400 C   0  0  0  0  0  0  0  0  0  0  0  0
  141.1090   72.0450  226.5550 C   0  0  0  0  0  0  0  0  0  0  0  0
  141.0280   71.2310  227.6980 C   0  0  0  0  0  0  0  0  0  0  0  0
  140.5550   69.9040  227.6000 C   0  0  0  0  0  0  0  0  0  0  0  0
  140.4840   69.1280  228.7110 F   0  0  0  0  0  0  0  0  0  0  0  0
  140.1540   69.3810  226.3570 C   0  0  0  0  0  0  0  0  0  0  0  0
  140.2380   70.2150  225.2420 C   0  0  0  0  0  0  0  0  0  0  0  0
  139.9110   69.9180  223.9740 N   0  0  0  0  0  0  0  0  0  0  0  0
  141.8780   72.6050  220.9310 C   0  0  0  0  0  0  0  0  0  0  0  0
  142.9540   71.7130  221.0100 C   0  0  0  0  0  0  0  0  0  0  0  0
  144.2530   72.2110  220.8230 C   0  0  0  0  0  0  0  0  0  0  0  0
  144.4560   73.5780  220.5590 C   0  0  0  0  0  0  0  0  0  0  0  0
  143.3600   74.4510  220.4740 C   0  0  0  0  0  0  0  0  0  0  0  0
  142.0710   73.9330  220.6560 C   0  0  0  0  0  0  0  0  0  0  0  0
  140.6680   75.7420  221.7180 C   0  0  0  0  0  0  0  0  0  0  0  0
  140.3270   78.3150  223.1060 C   0  0  0  0  0  0  0  0  0  0  0  0
  141.7620   78.3440  223.4340 N   0  0  0  0  0  0  0  0  0  0  0  0
  142.7258   80.1495  224.7744 H   0  0  0  0  0  0  0  0  0  0  0  0
  143.8527   80.8976  223.5924 H   0  0  0  0  0  0  0  0  0  0  0  0
  142.1161   81.3569  223.5924 H   0  0  0  0  0  0  0  0  0  0  0  0
  143.4660   78.9519  222.4004 H   0  0  0  0  0  0  0  0  0  0  0  0
  141.0917   80.7176  221.7840 H   0  0  0  0  0  0  0  0  0  0  0  0
  142.6044   80.4293  220.8425 H   0  0  0  0  0  0  0  0  0  0  0  0
  140.6863   79.2688  219.8057 H   0  0  0  0  0  0  0  0  0  0  0  0
  141.9008   78.0927  220.4348 H   0  0  0  0  0  0  0  0  0  0  0  0
  139.1438   78.7490  221.3563 H   0  0  0  0  0  0  0  0  0  0  0  0
  138.5347   76.2760  219.5438 H   0  0  0  0  0  0  0  0  0  0  0  0
  139.8103   77.4760  219.2054 H   0  0  0  0  0  0  0  0  0  0  0  0
  140.0383   74.7869  218.5905 H   0  0  0  0  0  0  0  0  0  0  0  0
  141.4423   75.8008  218.8901 H   0  0  0  0  0  0  0  0  0  0  0  0
  139.0870   73.7244  221.7351 H   0  0  0  0  0  0  0  0  0  0  0  0
  139.0446   73.4004  219.9943 H   0  0  0  0  0  0  0  0  0  0  0  0
  140.9943   73.0590  223.7798 H   0  0  0  0  0  0  0  0  0  0  0  0
  141.4799   73.0786  226.6183 H   0  0  0  0  0  0  0  0  0  0  0  0
  141.3352   71.6304  228.6758 H   0  0  0  0  0  0  0  0  0  0  0  0
  139.7863   68.3482  226.2673 H   0  0  0  0  0  0  0  0  0  0  0  0
  139.5610   69.0030  223.6180 H   0  0  0  0  0  0  0  0  0  0  0  0
  142.7853   70.6454  221.2141 H   0  0  0  0  0  0  0  0  0  0  0  0
  145.1150   71.5303  220.8830 H   0  0  0  0  0  0  0  0  0  0  0  0
  145.4765   73.9638  220.4188 H   0  0  0  0  0  0  0  0  0  0  0  0
  143.5103   75.5211  220.2685 H   0  0  0  0  0  0  0  0  0  0  0  0
  140.2787   75.3130  222.6531 H   0  0  0  0  0  0  0  0  0  0  0  0
  141.6583   76.1694  221.9339 H   0  0  0  0  0  0  0  0  0  0  0  0
  139.8675   79.2496  223.4602 H   0  0  0  0  0  0  0  0  0  0  0  0
  139.8946   77.4320  223.5993 H   0  0  0  0  0  0  0  0  0  0  0  0
  142.1860   77.4100  223.2370 H   0  0  0  0  0  0  0  0  0  0  0  0
  1  2  1  0
  2  3  1  0
  3  4  1  0
  4  5  1  0
  5  6  1  0
  6  7  1  0
  7  8  1  0
  9  8  1  6
  9 10  1  0
 10 11  1  0
 11 12  1  0
 12 13  2  0
 12 14  1  0
 14 15  2  0
 15 16  1  0
 16 17  2  0
 17 18  1  0
 18 19  2  0
 19 20  1  0
 19 21  1  0
 21 22  2  0
 22 23  1  0
 11 24  1  0
 24 25  2  0
 25 26  1  0
 26 27  2  0
 27 28  1  0
 28 29  2  0
  9 30  1  0
  5 31  1  0
 31 32  1  0
 32  2  1  0
 30  6  1  0
 29  9  1  0
 23 14  1  0
 29 24  1  0
 22 16  1  0
  1 33  1  0
  1 34  1  0
  1 35  1  0
  2 36  1  6
  3 37  1  0
  3 38  1  0
  4 39  1  0
  4 40  1  0
  5 41  1  1
  7 42  1  0
  7 43  1  0
  8 44  1  0
  8 45  1  0
 10 46  1  0
 10 47  1  0
 15 48  1  0
 17 49  1  0
 18 50  1  0
 21 51  1  0
 23 52  1  0
 25 53  1  0
 26 54  1  0
 27 55  1  0
 28 56  1  0
 30 57  1  0
 30 58  1  0
 31 59  1  0
 31 60  1  0
 32 61  1  0
M  END
>  <UniqueID>  (3) 
92

>  <SMILES>  (3) 
C[C@@H]1CC[C@@H](N2CC[C@]3(CN(C(=O)c4cc5ccc(F)cc5[nH]4)c4ccccc43)C2)CN1

>  <Energy>  (3) 
132.7403277397057

>  <Genealogy>  (3) 
C[C@@H]1CC[C@@H](N2CC[C@]3(CN(C(=O)c4cc5ccc(F)cc5[nH]4)c4ccccc43)C2)CN1 (chirality)
C[C@@H]1CC[C@@H](N2CC[C@]3(CN(C(=O)c4cc5ccc(F)cc5[nH]4)c4ccccc43)C2)CN1 (3D coordinates assigned)
C[C@@H]1CC[C@@H](N2CC[C@]3(CN(C(=O)c4cc5ccc(F)cc5[nH]4)c4ccccc43)C2)CN1 (nonaromatic ring conformer: 132.7403277397057 kcal/mol)

>  <smiles>  (3) 
C[C@@H]1CCC(N2CC[C@]3(CN(C(=O)c4cc5ccc(F)cc5[nH]4)c4ccccc43)C2)CN1

>  <score_type>  (3) 
oracle

>  <origin>  (3) 
autodockgpu

>  <m_score__min__energy>  (3) 
-9.3300000000000001

>  <m_primary>  (3) 
energy

>  <meeko>  (3) 
{"free_energy": -9.32, "intermolecular_energy": -10.22, "internal_energy": -1.55, "cluster_size": 19, "cluster_id": 1, "rank_in_cluster": 10}

>  <energy>  (3) 
-9.33

>  <cluster_rmsd>  (3) 
0.21

>  <rmsd>  (3) 
270.75

>  <cluster>  (3) 
1

$$$$
MYPHZBOANNRFAS-AGTLBBOYNA-N
     RDKit          3D

 61 66  0  0  0  0  0  0  0  0999 V2000
  142.8670   80.5500  223.7560 C   0  0  0  0  0  0  0  0  0  0  0  0
  142.5560   79.4420  222.7480 C   0  0  2  0  0  0  0  0  0  0  0  0
  141.8440   80.0210  221.5020 C   0  0  0  0  0  0  0  0  0  0  0  0
  141.1440   78.9130  220.7190 C   0  0  0  0  0  0  0  0  0  0  0  0
  140.0650   78.2220  221.5980 C   0  0  1  0  0  0  0  0  0  0  0  0
  139.7540   76.8220  221.2060 N   0  0  0  0  0  0  0  0  0  0  0  0
  139.5970   76.6240  219.7540 C   0  0  0  0  0  0  0  0  0  0  0  0
  140.5320   75.4990  219.3360 C   0  0  0  0  0  0  0  0  0  0  0  0
  140.7620   74.7130  220.6220 C   0  0  1  0  0  0  0  0  0  0  0  0
  139.7140   73.5630  220.8200 C   0  0  0  0  0  0  0  0  0  0  0  0
  140.4920   72.3390  221.0390 N   0  0  0  0  0  0  0  0  0  0  0  0
  139.9770   71.1960  221.7400 C   0  0  0  0  0  0  0  0  0  0  0  0
  139.3860   70.2850  221.1020 O   0  0  0  0  0  0  0  0  0  0  0  0
  140.1520   71.0590  223.1930 C   0  0  0  0  0  0  0  0  0  0  0  0
  140.6920   72.0400  224.0240 C   0  0  0  0  0  0  0  0  0  0  0  0
  140.6960   71.4780  225.2800 C   0  0  0  0  0  0  0  0  0  0  0  0
  141.1200   71.9960  226.5020 C   0  0  0  0  0  0  0  0  0  0  0  0
  141.0120   71.1710  227.6360 C   0  0  0  0  0  0  0  0  0  0  0  0
  140.4930   69.8620  227.5220 C   0  0  0  0  0  0  0  0  0  0  0  0
  140.3970   69.0770  228.6240 F   0  0  0  0  0  0  0  0  0  0  0  0
  140.0740   69.3680  226.2740 C   0  0  0  0  0  0  0  0  0  0  0  0
  140.1860   70.2110  225.1690 C   0  0  0  0  0  0  0  0  0  0  0  0
  139.8490   69.9400  223.8970 N   0  0  0  0  0  0  0  0  0  0  0  0
  141.8720   72.6500  220.9030 C   0  0  0  0  0  0  0  0  0  0  0  0
  142.9430   71.7530  220.9820 C   0  0  0  0  0  0  0  0  0  0  0  0
  144.2460   72.2470  220.8140 C   0  0  0  0  0  0  0  0  0  0  0  0
  144.4570   73.6160  220.5670 C   0  0  0  0  0  0  0  0  0  0  0  0
  143.3650   74.4950  220.4800 C   0  0  0  0  0  0  0  0  0  0  0  0
  142.0730   73.9800  220.6450 C   0  0  0  0  0  0  0  0  0  0  0  0
  140.6670   75.7840  221.7130 C   0  0  0  0  0  0  0  0  0  0  0  0
  140.3630   78.3360  223.1190 C   0  0  0  0  0  0  0  0  0  0  0  0
  141.8030   78.3630  223.4230 N   0  0  0  0  0  0  0  0  0  0  0  0
  142.7569   80.1577  224.7777 H   0  0  0  0  0  0  0  0  0  0  0  0
  143.8986   80.9018  223.6075 H   0  0  0  0  0  0  0  0  0  0  0  0
  142.1692   81.3872  223.6075 H   0  0  0  0  0  0  0  0  0  0  0  0
  143.4871   78.9938  222.3710 H   0  0  0  0  0  0  0  0  0  0  0  0
  141.0981   80.7626  221.8240 H   0  0  0  0  0  0  0  0  0  0  0  0
  142.5952   80.4938  220.8523 H   0  0  0  0  0  0  0  0  0  0  0  0
  140.6629   79.3467  219.8299 H   0  0  0  0  0  0  0  0  0  0  0  0
  141.8912   78.1635  220.4190 H   0  0  0  0  0  0  0  0  0  0  0  0
  139.1484   78.7955  221.3958 H   0  0  0  0  0  0  0  0  0  0  0  0
  138.5565   76.3513  219.5236 H   0  0  0  0  0  0  0  0  0  0  0  0
  139.8407   77.5489  219.2108 H   0  0  0  0  0  0  0  0  0  0  0  0
  140.0627   74.8652  218.5691 H   0  0  0  0  0  0  0  0  0  0  0  0
  141.4683   75.8694  218.8932 H   0  0  0  0  0  0  0  0  0  0  0  0
  139.0774   73.7723  221.6924 H   0  0  0  0  0  0  0  0  0  0  0  0
  139.0511   73.4679  219.9473 H   0  0  0  0  0  0  0  0  0  0  0  0
  141.0390   73.0439  223.7379 H   0  0  0  0  0  0  0  0  0  0  0  0
  141.5255   73.0158  226.5773 H   0  0  0  0  0  0  0  0  0  0  0  0
  141.3338   71.5475  228.6182 H   0  0  0  0  0  0  0  0  0  0  0  0
  139.6709   68.3495  226.1727 H   0  0  0  0  0  0  0  0  0  0  0  0
  139.4680   69.0420  223.5310 H   0  0  0  0  0  0  0  0  0  0  0  0
  142.7676   70.6838  221.1717 H   0  0  0  0  0  0  0  0  0  0  0  0
  145.1045   71.5620  220.8756 H   0  0  0  0  0  0  0  0  0  0  0  0
  145.4805   73.9991  220.4416 H   0  0  0  0  0  0  0  0  0  0  0  0
  143.5213   75.5664  220.2861 H   0  0  0  0  0  0  0  0  0  0  0  0
  140.2673   75.3470  222.6400 H   0  0  0  0  0  0  0  0  0  0  0  0
  141.6571   76.2047  221.9428 H   0  0  0  0  0  0  0  0  0  0  0  0
  139.9076   79.2633  223.4968 H   0  0  0  0  0  0  0  0  0  0  0  0
  139.9411   77.4436  223.6045 H   0  0  0  0  0  0  0  0  0  0  0  0
  142.2270   77.4350  223.2030 H   0  0  0  0  0  0  0  0  0  0  0  0
  1  2  1  0
  2  3  1  0
  3  4  1  0
  4  5  1  0
  5  6  1  0
  6  7  1  0
  7  8  1  0
  9  8  1  6
  9 10  1  0
 10 11  1  0
 11 12  1  0
 12 13  2  0
 12 14  1  0
 14 15  2  0
 15 16  1  0
 16 17  2  0
 17 18  1  0
 18 19  2  0
 19 20  1  0
 19 21  1  0
 21 22  2  0
 22 23  1  0
 11 24  1  0
 24 25  2  0
 25 26  1  0
 26 27  2  0
 27 28  1  0
 28 29  2  0
  9 30  1  0
  5 31  1  0
 31 32  1  0
 32  2  1  0
 30  6  1  0
 29  9  1  0
 23 14  1  0
 29 24  1  0
 22 16  1  0
  1 33  1  0
  1 34  1  0
  1 35  1  0
  2 36  1  6
  3 37  1  0
  3 38  1  0
  4 39  1  0
  4 40  1  0
  5 41  1  1
  7 42  1  0
  7 43  1  0
  8 44  1  0
  8 45  1  0
 10 46  1  0
 10 47  1  0
 15 48  1  0
 17 49  1  0
 18 50  1  0
 21 51  1  0
 23 52  1  0
 25 53  1  0
 26 54  1  0
 27 55  1  0
 28 56  1  0
 30 57  1  0
 30 58  1  0
 31 59  1  0
 31 60  1  0
 32 61  1  0
M  END
>  <UniqueID>  (4) 
92

>  <SMILES>  (4) 
C[C@@H]1CC[C@@H](N2CC[C@]3(CN(C(=O)c4cc5ccc(F)cc5[nH]4)c4ccccc43)C2)CN1

>  <Energy>  (4) 
132.7403277397057

>  <Genealogy>  (4) 
C[C@@H]1CC[C@@H](N2CC[C@]3(CN(C(=O)c4cc5ccc(F)cc5[nH]4)c4ccccc43)C2)CN1 (chirality)
C[C@@H]1CC[C@@H](N2CC[C@]3(CN(C(=O)c4cc5ccc(F)cc5[nH]4)c4ccccc43)C2)CN1 (3D coordinates assigned)
C[C@@H]1CC[C@@H](N2CC[C@]3(CN(C(=O)c4cc5ccc(F)cc5[nH]4)c4ccccc43)C2)CN1 (nonaromatic ring conformer: 132.7403277397057 kcal/mol)

>  <smiles>  (4) 
C[C@@H]1CCC(N2CC[C@]3(CN(C(=O)c4cc5ccc(F)cc5[nH]4)c4ccccc43)C2)CN1

>  <score_type>  (4) 
oracle

>  <origin>  (4) 
autodockgpu

>  <m_score__min__energy>  (4) 
-9.3300000000000001

>  <m_primary>  (4) 
energy

>  <meeko>  (4) 
{"free_energy": -9.31, "intermolecular_energy": -10.21, "internal_energy": -1.55, "cluster_size": 19, "cluster_id": 1, "rank_in_cluster": 15}

>  <energy>  (4) 
-9.32

>  <cluster_rmsd>  (4) 
0.11

>  <rmsd>  (4) 
270.78

>  <cluster>  (4) 
1

$$$$
MYPHZBOANNRFAS-AGTLBBOYNA-N
     RDKit          3D

 61 66  0  0  0  0  0  0  0  0999 V2000
  142.9010   80.4920  223.7370 C   0  0  0  0  0  0  0  0  0  0  0  0
  142.5640   79.3910  222.7300 C   0  0  2  0  0  0  0  0  0  0  0  0
  141.8580   79.9850  221.4880 C   0  0  0  0  0  0  0  0  0  0  0  0
  141.1320   78.8910  220.7070 C   0  0  0  0  0  0  0  0  0  0  0  0
  140.0440   78.2200  221.5910 C   0  0  1  0  0  0  0  0  0  0  0  0
  139.7040   76.8270  221.2000 N   0  0  0  0  0  0  0  0  0  0  0  0
  139.5410   76.6320  219.7480 C   0  0  0  0  0  0  0  0  0  0  0  0
  140.4530   75.4880  219.3280 C   0  0  0  0  0  0  0  0  0  0  0  0
  140.6690   74.6980  220.6140 C   0  0  1  0  0  0  0  0  0  0  0  0
  139.5980   73.5700  220.8140 C   0  0  0  0  0  0  0  0  0  0  0  0
  140.3520   72.3300  221.0320 N   0  0  0  0  0  0  0  0  0  0  0  0
  139.8150   71.1980  221.7340 C   0  0  0  0  0  0  0  0  0  0  0  0
  139.2070   70.2970  221.0970 O   0  0  0  0  0  0  0  0  0  0  0  0
  139.9880   71.0590  223.1880 C   0  0  0  0  0  0  0  0  0  0  0  0
  140.7140   71.9390  223.9880 C   0  0  0  0  0  0  0  0  0  0  0  0
  140.6350   71.4110  225.2570 C   0  0  0  0  0  0  0  0  0  0  0  0
  141.1690   71.8650  226.4610 C   0  0  0  0  0  0  0  0  0  0  0  0
  140.9300   71.0970  227.6140 C   0  0  0  0  0  0  0  0  0  0  0  0
  140.1770   69.9050  227.5370 C   0  0  0  0  0  0  0  0  0  0  0  0
  139.9560   69.1730  228.6580 F   0  0  0  0  0  0  0  0  0  0  0  0
  139.6520   69.4720  226.3060 C   0  0  0  0  0  0  0  0  0  0  0  0
  139.8980   70.2580  225.1810 C   0  0  0  0  0  0  0  0  0  0  0  0
  139.4950   70.0300  223.9200 N   0  0  0  0  0  0  0  0  0  0  0  0
  141.7370   72.6130  220.8940 C   0  0  0  0  0  0  0  0  0  0  0  0
  142.7910   71.6950  220.9710 C   0  0  0  0  0  0  0  0  0  0  0  0
  144.1030   72.1630  220.8000 C   0  0  0  0  0  0  0  0  0  0  0  0
  144.3410   73.5270  220.5520 C   0  0  0  0  0  0  0  0  0  0  0  0
  143.2670   74.4270  220.4680 C   0  0  0  0  0  0  0  0  0  0  0  0
  141.9650   73.9390  220.6350 C   0  0  0  0  0  0  0  0  0  0  0  0
  140.5970   75.7700  221.7050 C   0  0  0  0  0  0  0  0  0  0  0  0
  140.3520   78.3270  223.1100 C   0  0  0  0  0  0  0  0  0  0  0  0
  141.7930   78.3270  223.4080 N   0  0  0  0  0  0  0  0  0  0  0  0
  142.7820   80.1031  224.7590 H   0  0  0  0  0  0  0  0  0  0  0  0
  143.9405   80.8195  223.5881 H   0  0  0  0  0  0  0  0  0  0  0  0
  142.2229   81.3452  223.5881 H   0  0  0  0  0  0  0  0  0  0  0  0
  143.4841   78.9244  222.3484 H   0  0  0  0  0  0  0  0  0  0  0  0
  141.1285   80.7410  221.8140 H   0  0  0  0  0  0  0  0  0  0  0  0
  142.6154   80.4433  220.8352 H   0  0  0  0  0  0  0  0  0  0  0  0
  140.6549   79.3350  219.8209 H   0  0  0  0  0  0  0  0  0  0  0  0
  141.8629   78.1274  220.4024 H   0  0  0  0  0  0  0  0  0  0  0  0
  139.1376   78.8111  221.3935 H   0  0  0  0  0  0  0  0  0  0  0  0
  138.4949   76.3802  219.5192 H   0  0  0  0  0  0  0  0  0  0  0  0
  139.8026   77.5519  219.2046 H   0  0  0  0  0  0  0  0  0  0  0  0
  139.9698   74.8637  218.5620 H   0  0  0  0  0  0  0  0  0  0  0  0
  141.3958   75.8393  218.8833 H   0  0  0  0  0  0  0  0  0  0  0  0
  138.9673   73.7923  221.6874 H   0  0  0  0  0  0  0  0  0  0  0  0
  138.9316   73.4883  219.9427 H   0  0  0  0  0  0  0  0  0  0  0  0
  141.2360   72.8550  223.6743 H   0  0  0  0  0  0  0  0  0  0  0  0
  141.7578   72.7930  226.5079 H   0  0  0  0  0  0  0  0  0  0  0  0
  141.3324   71.4270  228.5831 H   0  0  0  0  0  0  0  0  0  0  0  0
  139.0665   68.5436  226.2333 H   0  0  0  0  0  0  0  0  0  0  0  0
  138.9480   69.2110  223.5790 H   0  0  0  0  0  0  0  0  0  0  0  0
  142.5951   70.6295  221.1615 H   0  0  0  0  0  0  0  0  0  0  0  0
  144.9478   71.4610  220.8601 H   0  0  0  0  0  0  0  0  0  0  0  0
  145.3716   73.8894  220.4235 H   0  0  0  0  0  0  0  0  0  0  0  0
  143.4447   75.4952  220.2747 H   0  0  0  0  0  0  0  0  0  0  0  0
  140.1900   75.3406  222.6324 H   0  0  0  0  0  0  0  0  0  0  0  0
  141.5957   76.1707  221.9332 H   0  0  0  0  0  0  0  0  0  0  0  0
  139.9158   79.2623  223.4907 H   0  0  0  0  0  0  0  0  0  0  0  0
  139.9164   77.4417  223.5962 H   0  0  0  0  0  0  0  0  0  0  0  0
  142.1980   77.3910  223.1850 H   0  0  0  0  0  0  0  0  0  0  0  0
  1  2  1  0
  2  3  1  0
  3  4  1  0
  4  5  1  0
  5  6  1  0
  6  7  1  0
  7  8  1  0
  9  8  1  6
  9 10  1  0
 10 11  1  0
 11 12  1  0
 12 13  2  0
 12 14  1  0
 14 15  2  0
 15 16  1  0
 16 17  2  0
 17 18  1  0
 18 19  2  0
 19 20  1  0
 19 21  1  0
 21 22  2  0
 22 23  1  0
 11 24  1  0
 24 25  2  0
 25 26  1  0
 26 27  2  0
 27 28  1  0
 28 29  2  0
  9 30  1  0
  5 31  1  0
 31 32  1  0
 32  2  1  0
 30  6  1  0
 29  9  1  0
 23 14  1  0
 29 24  1  0
 22 16  1  0
  1 33  1  0
  1 34  1  0
  1 35  1  0
  2 36  1  6
  3 37  1  0
  3 38  1  0
  4 39  1  0
  4 40  1  0
  5 41  1  1
  7 42  1  0
  7 43  1  0
  8 44  1  0
  8 45  1  0
 10 46  1  0
 10 47  1  0
 15 48  1  0
 17 49  1  0
 18 50  1  0
 21 51  1  0
 23 52  1  0
 25 53  1  0
 26 54  1  0
 27 55  1  0
 28 56  1  0
 30 57  1  0
 30 58  1  0
 31 59  1  0
 31 60  1  0
 32 61  1  0
M  END
>  <UniqueID>  (5) 
92

>  <SMILES>  (5) 
C[C@@H]1CC[C@@H](N2CC[C@]3(CN(C(=O)c4cc5ccc(F)cc5[nH]4)c4ccccc43)C2)CN1

>  <Energy>  (5) 
132.7403277397057

>  <Genealogy>  (5) 
C[C@@H]1CC[C@@H](N2CC[C@]3(CN(C(=O)c4cc5ccc(F)cc5[nH]4)c4ccccc43)C2)CN1 (chirality)
C[C@@H]1CC[C@@H](N2CC[C@]3(CN(C(=O)c4cc5ccc(F)cc5[nH]4)c4ccccc43)C2)CN1 (3D coordinates assigned)
C[C@@H]1CC[C@@H](N2CC[C@]3(CN(C(=O)c4cc5ccc(F)cc5[nH]4)c4ccccc43)C2)CN1 (nonaromatic ring conformer: 132.7403277397057 kcal/mol)

>  <smiles>  (5) 
C[C@@H]1CCC(N2CC[C@]3(CN(C(=O)c4cc5ccc(F)cc5[nH]4)c4ccccc43)C2)CN1

>  <score_type>  (5) 
oracle

>  <origin>  (5) 
autodockgpu

>  <m_score__min__energy>  (5) 
-9.3300000000000001

>  <m_primary>  (5) 
energy

>  <meeko>  (5) 
{"free_energy": -9.3, "intermolecular_energy": -10.2, "internal_energy": -1.54, "cluster_size": 19, "cluster_id": 1, "rank_in_cluster": 18}

>  <energy>  (5) 
-9.32

>  <cluster_rmsd>  (5) 
0.13

>  <rmsd>  (5) 
270.78

>  <cluster>  (5) 
1

$$$$
MYPHZBOANNRFAS-AGTLBBOYNA-N
     RDKit          3D

 61 66  0  0  0  0  0  0  0  0999 V2000
  142.8990   80.5370  223.7440 C   0  0  0  0  0  0  0  0  0  0  0  0
  142.5740   79.4350  222.7350 C   0  0  2  0  0  0  0  0  0  0  0  0
  141.8830   80.0270  221.4840 C   0  0  0  0  0  0  0  0  0  0  0  0
  141.1660   78.9320  220.6960 C   0  0  0  0  0  0  0  0  0  0  0  0
  140.0670   78.2630  221.5690 C   0  0  1  0  0  0  0  0  0  0  0  0
  139.7320   76.8690  221.1750 N   0  0  0  0  0  0  0  0  0  0  0  0
  139.5870   76.6710  219.7220 C   0  0  0  0  0  0  0  0  0  0  0  0
  140.5030   75.5270  219.3150 C   0  0  0  0  0  0  0  0  0  0  0  0
  140.7030   74.7390  220.6050 C   0  0  1  0  0  0  0  0  0  0  0  0
  139.6280   73.6110  220.7950 C   0  0  0  0  0  0  0  0  0  0  0  0
  140.3790   72.3720  221.0240 N   0  0  0  0  0  0  0  0  0  0  0  0
  139.8330   71.2410  221.7210 C   0  0  0  0  0  0  0  0  0  0  0  0
  139.1980   70.3590  221.0830 O   0  0  0  0  0  0  0  0  0  0  0  0
  140.0260   71.0810  223.1700 C   0  0  0  0  0  0  0  0  0  0  0  0
  140.6740   72.0030  223.9900 C   0  0  0  0  0  0  0  0  0  0  0  0
  140.6520   71.4370  225.2450 C   0  0  0  0  0  0  0  0  0  0  0  0
  141.1490   71.9070  226.4580 C   0  0  0  0  0  0  0  0  0  0  0  0
  140.9890   71.0910  227.5920 C   0  0  0  0  0  0  0  0  0  0  0  0
  140.3470   69.8380  227.4870 C   0  0  0  0  0  0  0  0  0  0  0  0
  140.2010   69.0600  228.5890 F   0  0  0  0  0  0  0  0  0  0  0  0
  139.8560   69.3910  226.2470 C   0  0  0  0  0  0  0  0  0  0  0  0
  140.0220   70.2250  225.1420 C   0  0  0  0  0  0  0  0  0  0  0  0
  139.6340   69.9920  223.8770 N   0  0  0  0  0  0  0  0  0  0  0  0
  141.7660   72.6540  220.9020 C   0  0  0  0  0  0  0  0  0  0  0  0
  142.8180   71.7350  220.9940 C   0  0  0  0  0  0  0  0  0  0  0  0
  144.1320   72.2020  220.8390 C   0  0  0  0  0  0  0  0  0  0  0  0
  144.3740   73.5660  220.5920 C   0  0  0  0  0  0  0  0  0  0  0  0
  143.3020   74.4660  220.4920 C   0  0  0  0  0  0  0  0  0  0  0  0
  141.9970   73.9790  220.6440 C   0  0  0  0  0  0  0  0  0  0  0  0
  140.6170   75.8130  221.6940 C   0  0  0  0  0  0  0  0  0  0  0  0
  140.3570   78.3720  223.0910 C   0  0  0  0  0  0  0  0  0  0  0  0
  141.7950   78.3720  223.4060 N   0  0  0  0  0  0  0  0  0  0  0  0
  142.7834   80.1449  224.7652 H   0  0  0  0  0  0  0  0  0  0  0  0
  143.9352   80.8754  223.5963 H   0  0  0  0  0  0  0  0  0  0  0  0
  142.2123   81.3835  223.5963 H   0  0  0  0  0  0  0  0  0  0  0  0
  143.4984   78.9678  222.3646 H   0  0  0  0  0  0  0  0  0  0  0  0
  141.1499   80.7837  221.8002 H   0  0  0  0  0  0  0  0  0  0  0  0
  142.6483   80.4841  220.8395 H   0  0  0  0  0  0  0  0  0  0  0  0
  140.6996   79.3747  219.8035 H   0  0  0  0  0  0  0  0  0  0  0  0
  141.9000   78.1676  220.4009 H   0  0  0  0  0  0  0  0  0  0  0  0
  139.1630   78.8543  221.3614 H   0  0  0  0  0  0  0  0  0  0  0  0
  138.5438   76.4189  219.4809 H   0  0  0  0  0  0  0  0  0  0  0  0
  139.8558   77.5898  219.1803 H   0  0  0  0  0  0  0  0  0  0  0  0
  140.0290   74.9016  218.5441 H   0  0  0  0  0  0  0  0  0  0  0  0
  141.4512   75.8772  218.8811 H   0  0  0  0  0  0  0  0  0  0  0  0
  138.9874   73.8353  221.6606 H   0  0  0  0  0  0  0  0  0  0  0  0
  138.9713   73.5278  219.9165 H   0  0  0  0  0  0  0  0  0  0  0  0
  141.1079   72.9708  223.6985 H   0  0  0  0  0  0  0  0  0  0  0  0
  141.6500   72.8839  226.5268 H   0  0  0  0  0  0  0  0  0  0  0  0
  141.3666   71.4313  228.5675 H   0  0  0  0  0  0  0  0  0  0  0  0
  139.3573   68.4152  226.1521 H   0  0  0  0  0  0  0  0  0  0  0  0
  139.1620   69.1360  223.5170 H   0  0  0  0  0  0  0  0  0  0  0  0
  142.6188   70.6699  221.1837 H   0  0  0  0  0  0  0  0  0  0  0  0
  144.9756   71.4997  220.9108 H   0  0  0  0  0  0  0  0  0  0  0  0
  145.4064   73.9278  220.4770 H   0  0  0  0  0  0  0  0  0  0  0  0
  143.4828   75.5336  220.2980 H   0  0  0  0  0  0  0  0  0  0  0  0
  140.1971   75.3854  222.6164 H   0  0  0  0  0  0  0  0  0  0  0  0
  141.6127   76.2134  221.9356 H   0  0  0  0  0  0  0  0  0  0  0  0
  139.9166   79.3079  223.4652 H   0  0  0  0  0  0  0  0  0  0  0  0
  139.9154   77.4875  223.5734 H   0  0  0  0  0  0  0  0  0  0  0  0
  142.2020   77.4350  223.1890 H   0  0  0  0  0  0  0  0  0  0  0  0
  1  2  1  0
  2  3  1  0
  3  4  1  0
  4  5  1  0
  5  6  1  0
  6  7  1  0
  7  8  1  0
  9  8  1  6
  9 10  1  0
 10 11  1  0
 11 12  1  0
 12 13  2  0
 12 14  1  0
 14 15  2  0
 15 16  1  0
 16 17  2  0
 17 18  1  0
 18 19  2  0
 19 20  1  0
 19 21  1  0
 21 22  2  0
 22 23  1  0
 11 24  1  0
 24 25  2  0
 25 26  1  0
 26 27  2  0
 27 28  1  0
 28 29  2  0
  9 30  1  0
  5 31  1  0
 31 32  1  0
 32  2  1  0
 30  6  1  0
 29  9  1  0
 23 14  1  0
 29 24  1  0
 22 16  1  0
  1 33  1  0
  1 34  1  0
  1 35  1  0
  2 36  1  6
  3 37  1  0
  3 38  1  0
  4 39  1  0
  4 40  1  0
  5 41  1  1
  7 42  1  0
  7 43  1  0
  8 44  1  0
  8 45  1  0
 10 46  1  0
 10 47  1  0
 15 48  1  0
 17 49  1  0
 18 50  1  0
 21 51  1  0
 23 52  1  0
 25 53  1  0
 26 54  1  0
 27 55  1  0
 28 56  1  0
 30 57  1  0
 30 58  1  0
 31 59  1  0
 31 60  1  0
 32 61  1  0
M  END
>  <UniqueID>  (6) 
92

>  <SMILES>  (6) 
C[C@@H]1CC[C@@H](N2CC[C@]3(CN(C(=O)c4cc5ccc(F)cc5[nH]4)c4ccccc43)C2)CN1

>  <Energy>  (6) 
132.7403277397057

>  <Genealogy>  (6) 
C[C@@H]1CC[C@@H](N2CC[C@]3(CN(C(=O)c4cc5ccc(F)cc5[nH]4)c4ccccc43)C2)CN1 (chirality)
C[C@@H]1CC[C@@H](N2CC[C@]3(CN(C(=O)c4cc5ccc(F)cc5[nH]4)c4ccccc43)C2)CN1 (3D coordinates assigned)
C[C@@H]1CC[C@@H](N2CC[C@]3(CN(C(=O)c4cc5ccc(F)cc5[nH]4)c4ccccc43)C2)CN1 (nonaromatic ring conformer: 132.7403277397057 kcal/mol)

>  <smiles>  (6) 
C[C@@H]1CCC(N2CC[C@]3(CN(C(=O)c4cc5ccc(F)cc5[nH]4)c4ccccc43)C2)CN1

>  <score_type>  (6) 
oracle

>  <origin>  (6) 
autodockgpu

>  <m_score__min__energy>  (6) 
-9.3300000000000001

>  <m_primary>  (6) 
energy

>  <meeko>  (6) 
{"free_energy": -9.31, "intermolecular_energy": -10.21, "internal_energy": -1.55, "cluster_size": 19, "cluster_id": 1, "rank_in_cluster": 13}

>  <energy>  (6) 
-9.32

>  <cluster_rmsd>  (6) 
0.14

>  <rmsd>  (6) 
270.8

>  <cluster>  (6) 
1

$$$$
MYPHZBOANNRFAS-AGTLBBOYNA-N
     RDKit          3D

 61 66  0  0  0  0  0  0  0  0999 V2000
  142.8720   80.5050  223.7540 C   0  0  0  0  0  0  0  0  0  0  0  0
  142.5630   79.4010  222.7420 C   0  0  2  0  0  0  0  0  0  0  0  0
  141.8630   79.9860  221.4920 C   0  0  0  0  0  0  0  0  0  0  0  0
  141.1620   78.8820  220.7020 C   0  0  0  0  0  0  0  0  0  0  0  0
  140.0730   78.1960  221.5730 C   0  0  1  0  0  0  0  0  0  0  0  0
  139.7570   76.7990  221.1770 N   0  0  0  0  0  0  0  0  0  0  0  0
  139.6130   76.6020  219.7230 C   0  0  0  0  0  0  0  0  0  0  0  0
  140.5450   75.4720  219.3120 C   0  0  0  0  0  0  0  0  0  0  0  0
  140.7580   74.6840  220.6000 C   0  0  1  0  0  0  0  0  0  0  0  0
  139.7000   73.5400  220.7880 C   0  0  0  0  0  0  0  0  0  0  0  0
  140.4700   72.3110  221.0130 N   0  0  0  0  0  0  0  0  0  0  0  0
  139.9410   71.1710  221.7080 C   0  0  0  0  0  0  0  0  0  0  0  0
  139.3240   70.2780  221.0680 O   0  0  0  0  0  0  0  0  0  0  0  0
  140.1320   71.0140  223.1570 C   0  0  0  0  0  0  0  0  0  0  0  0
  140.6790   71.9840  223.9950 C   0  0  0  0  0  0  0  0  0  0  0  0
  140.6970   71.4050  225.2440 C   0  0  0  0  0  0  0  0  0  0  0  0
  141.1340   71.9070  226.4670 C   0  0  0  0  0  0  0  0  0  0  0  0
  141.0390   71.0660  227.5910 C   0  0  0  0  0  0  0  0  0  0  0  0
  140.5220   69.7580  227.4650 C   0  0  0  0  0  0  0  0  0  0  0  0
  140.4380   68.9580  228.5570 F   0  0  0  0  0  0  0  0  0  0  0  0
  140.0890   69.2800  226.2140 C   0  0  0  0  0  0  0  0  0  0  0  0
  140.1880   70.1390  225.1200 C   0  0  0  0  0  0  0  0  0  0  0  0
  139.8380   69.8850  223.8480 N   0  0  0  0  0  0  0  0  0  0  0  0
  141.8520   72.6140  220.8900 C   0  0  0  0  0  0  0  0  0  0  0  0
  142.9170   71.7100  220.9780 C   0  0  0  0  0  0  0  0  0  0  0  0
  144.2250   72.1970  220.8220 C   0  0  0  0  0  0  0  0  0  0  0  0
  144.4460   73.5640  220.5780 C   0  0  0  0  0  0  0  0  0  0  0  0
  143.3610   74.4500  220.4820 C   0  0  0  0  0  0  0  0  0  0  0  0
  142.0640   73.9430  220.6340 C   0  0  0  0  0  0  0  0  0  0  0  0
  140.6590   75.7540  221.6910 C   0  0  0  0  0  0  0  0  0  0  0  0
  140.3610   78.3060  223.0960 C   0  0  0  0  0  0  0  0  0  0  0  0
  141.7980   78.3250  223.4110 N   0  0  0  0  0  0  0  0  0  0  0  0
  142.7611   80.1088  224.7742 H   0  0  0  0  0  0  0  0  0  0  0  0
  143.9035   80.8581  223.6079 H   0  0  0  0  0  0  0  0  0  0  0  0
  142.1737   81.3423  223.6079 H   0  0  0  0  0  0  0  0  0  0  0  0
  143.4942   78.9483  222.3705 H   0  0  0  0  0  0  0  0  0  0  0  0
  141.1190   80.7312  221.8099 H   0  0  0  0  0  0  0  0  0  0  0  0
  142.6212   80.4558  220.8483 H   0  0  0  0  0  0  0  0  0  0  0  0
  140.6895   79.3194  219.8101 H   0  0  0  0  0  0  0  0  0  0  0  0
  141.9070   78.1288  220.4060 H   0  0  0  0  0  0  0  0  0  0  0  0
  139.1612   78.7753  221.3656 H   0  0  0  0  0  0  0  0  0  0  0  0
  138.5732   76.3355  219.4827 H   0  0  0  0  0  0  0  0  0  0  0  0
  139.8680   77.5258  219.1831 H   0  0  0  0  0  0  0  0  0  0  0  0
  140.0790   74.8417  218.5403 H   0  0  0  0  0  0  0  0  0  0  0  0
  141.4875   75.8368  218.8776 H   0  0  0  0  0  0  0  0  0  0  0  0
  139.0570   73.7525  221.6549 H   0  0  0  0  0  0  0  0  0  0  0  0
  139.0436   73.4495  219.9100 H   0  0  0  0  0  0  0  0  0  0  0  0
  141.0216   72.9921  223.7188 H   0  0  0  0  0  0  0  0  0  0  0  0
  141.5396   72.9260  226.5515 H   0  0  0  0  0  0  0  0  0  0  0  0
  141.3698   71.4300  228.5749 H   0  0  0  0  0  0  0  0  0  0  0  0
  139.6859   68.2626  226.1030 H   0  0  0  0  0  0  0  0  0  0  0  0
  139.4540   68.9910  223.4740 H   0  0  0  0  0  0  0  0  0  0  0  0
  142.7335   70.6417  221.1652 H   0  0  0  0  0  0  0  0  0  0  0  0
  145.0790   71.5071  220.8909 H   0  0  0  0  0  0  0  0  0  0  0  0
  145.4729   73.9408  220.4619 H   0  0  0  0  0  0  0  0  0  0  0  0
  143.5261   75.5207  220.2913 H   0  0  0  0  0  0  0  0  0  0  0  0
  140.2478   75.3182  222.6135 H   0  0  0  0  0  0  0  0  0  0  0  0
  141.6494   76.1684  221.9304 H   0  0  0  0  0  0  0  0  0  0  0  0
  139.9077   79.2351  223.4719 H   0  0  0  0  0  0  0  0  0  0  0  0
  139.9313   77.4147  223.5766 H   0  0  0  0  0  0  0  0  0  0  0  0
  142.2190   77.3950  223.1920 H   0  0  0  0  0  0  0  0  0  0  0  0
  1  2  1  0
  2  3  1  0
  3  4  1  0
  4  5  1  0
  5  6  1  0
  6  7  1  0
  7  8  1  0
  9  8  1  6
  9 10  1  0
 10 11  1  0
 11 12  1  0
 12 13  2  0
 12 14  1  0
 14 15  2  0
 15 16  1  0
 16 17  2  0
 17 18  1  0
 18 19  2  0
 19 20  1  0
 19 21  1  0
 21 22  2  0
 22 23  1  0
 11 24  1  0
 24 25  2  0
 25 26  1  0
 26 27  2  0
 27 28  1  0
 28 29  2  0
  9 30  1  0
  5 31  1  0
 31 32  1  0
 32  2  1  0
 30  6  1  0
 29  9  1  0
 23 14  1  0
 29 24  1  0
 22 16  1  0
  1 33  1  0
  1 34  1  0
  1 35  1  0
  2 36  1  6
  3 37  1  0
  3 38  1  0
  4 39  1  0
  4 40  1  0
  5 41  1  1
  7 42  1  0
  7 43  1  0
  8 44  1  0
  8 45  1  0
 10 46  1  0
 10 47  1  0
 15 48  1  0
 17 49  1  0
 18 50  1  0
 21 51  1  0
 23 52  1  0
 25 53  1  0
 26 54  1  0
 27 55  1  0
 28 56  1  0
 30 57  1  0
 30 58  1  0
 31 59  1  0
 31 60  1  0
 32 61  1  0
M  END
>  <UniqueID>  (7) 
92

>  <SMILES>  (7) 
C[C@@H]1CC[C@@H](N2CC[C@]3(CN(C(=O)c4cc5ccc(F)cc5[nH]4)c4ccccc43)C2)CN1

>  <Energy>  (7) 
132.7403277397057

>  <Genealogy>  (7) 
C[C@@H]1CC[C@@H](N2CC[C@]3(CN(C(=O)c4cc5ccc(F)cc5[nH]4)c4ccccc43)C2)CN1 (chirality)
C[C@@H]1CC[C@@H](N2CC[C@]3(CN(C(=O)c4cc5ccc(F)cc5[nH]4)c4ccccc43)C2)CN1 (3D coordinates assigned)
C[C@@H]1CC[C@@H](N2CC[C@]3(CN(C(=O)c4cc5ccc(F)cc5[nH]4)c4ccccc43)C2)CN1 (nonaromatic ring conformer: 132.7403277397057 kcal/mol)

>  <smiles>  (7) 
C[C@@H]1CCC(N2CC[C@]3(CN(C(=O)c4cc5ccc(F)cc5[nH]4)c4ccccc43)C2)CN1

>  <score_type>  (7) 
oracle

>  <origin>  (7) 
autodockgpu

>  <m_score__min__energy>  (7) 
-9.3300000000000001

>  <m_primary>  (7) 
energy

>  <meeko>  (7) 
{"free_energy": -9.32, "intermolecular_energy": -10.22, "internal_energy": -1.55, "cluster_size": 19, "cluster_id": 1, "rank_in_cluster": 7}

>  <energy>  (7) 
-9.32

>  <cluster_rmsd>  (7) 
0.1

>  <rmsd>  (7) 
270.77

>  <cluster>  (7) 
1

$$$$
MYPHZBOANNRFAS-AGTLBBOYNA-N
     RDKit          3D

 61 66  0  0  0  0  0  0  0  0999 V2000
  142.8600   80.5230  223.8610 C   0  0  0  0  0  0  0  0  0  0  0  0
  142.5620   79.4390  222.8230 C   0  0  2  0  0  0  0  0  0  0  0  0
  141.8870   80.0510  221.5730 C   0  0  0  0  0  0  0  0  0  0  0  0
  141.1950   78.9660  220.7490 C   0  0  0  0  0  0  0  0  0  0  0  0
  140.0870   78.2700  221.5880 C   0  0  1  0  0  0  0  0  0  0  0  0
  139.7710   76.8820  221.1600 N   0  0  0  0  0  0  0  0  0  0  0  0
  139.6690   76.7100  219.7000 C   0  0  0  0  0  0  0  0  0  0  0  0
  140.6030   75.5770  219.3000 C   0  0  0  0  0  0  0  0  0  0  0  0
  140.7700   74.7670  220.5800 C   0  0  1  0  0  0  0  0  0  0  0  0
  139.6970   73.6310  220.7180 C   0  0  0  0  0  0  0  0  0  0  0  0
  140.4480   72.3910  220.9460 N   0  0  0  0  0  0  0  0  0  0  0  0
  139.8880   71.2450  221.6070 C   0  0  0  0  0  0  0  0  0  0  0  0
  139.2810   70.3690  220.9340 O   0  0  0  0  0  0  0  0  0  0  0  0
  140.0340   71.0630  223.0580 C   0  0  0  0  0  0  0  0  0  0  0  0
  140.6830   71.9570  223.9090 C   0  0  0  0  0  0  0  0  0  0  0  0
  140.6090   71.3770  225.1550 C   0  0  0  0  0  0  0  0  0  0  0  0
  141.0830   71.8190  226.3880 C   0  0  0  0  0  0  0  0  0  0  0  0
  140.8680   70.9940  227.5060 C   0  0  0  0  0  0  0  0  0  0  0  0
  140.1950   69.7600  227.3670 C   0  0  0  0  0  0  0  0  0  0  0  0
  139.9960   68.9740  228.4540 F   0  0  0  0  0  0  0  0  0  0  0  0
  139.7280   69.3420  226.1070 C   0  0  0  0  0  0  0  0  0  0  0  0
  139.9500   70.1840  225.0180 C   0  0  0  0  0  0  0  0  0  0  0  0
  139.5920   69.9770  223.7400 N   0  0  0  0  0  0  0  0  0  0  0  0
  141.8360   72.6830  220.8710 C   0  0  0  0  0  0  0  0  0  0  0  0
  142.8900   71.7670  220.9770 C   0  0  0  0  0  0  0  0  0  0  0  0
  144.2060   72.2440  220.8690 C   0  0  0  0  0  0  0  0  0  0  0  0
  144.4470   73.6130  220.6530 C   0  0  0  0  0  0  0  0  0  0  0  0
  143.3730   74.5100  220.5390 C   0  0  0  0  0  0  0  0  0  0  0  0
  142.0670   74.0130  220.6430 C   0  0  0  0  0  0  0  0  0  0  0  0
  140.6470   75.8210  221.6850 C   0  0  0  0  0  0  0  0  0  0  0  0
  140.3490   78.3500  223.1170 C   0  0  0  0  0  0  0  0  0  0  0  0
  141.7810   78.3550  223.4580 N   0  0  0  0  0  0  0  0  0  0  0  0
  142.7449   80.1044  224.8717 H   0  0  0  0  0  0  0  0  0  0  0  0
  143.8907   80.8839  223.7287 H   0  0  0  0  0  0  0  0  0  0  0  0
  142.1586   81.3600  223.7287 H   0  0  0  0  0  0  0  0  0  0  0  0
  143.4969   78.9879  222.4591 H   0  0  0  0  0  0  0  0  0  0  0  0
  141.1407   80.7934  221.8923 H   0  0  0  0  0  0  0  0  0  0  0  0
  142.6587   80.5294  220.9520 H   0  0  0  0  0  0  0  0  0  0  0  0
  140.7409   79.4228  219.8573 H   0  0  0  0  0  0  0  0  0  0  0  0
  141.9412   78.2146  220.4513 H   0  0  0  0  0  0  0  0  0  0  0  0
  139.1818   78.8580  221.3760 H   0  0  0  0  0  0  0  0  0  0  0  0
  138.6345   76.4576  219.4241 H   0  0  0  0  0  0  0  0  0  0  0  0
  139.9483   77.6397  219.1826 H   0  0  0  0  0  0  0  0  0  0  0  0
  140.1549   74.9633  218.5047 H   0  0  0  0  0  0  0  0  0  0  0  0
  141.5616   75.9398  218.9007 H   0  0  0  0  0  0  0  0  0  0  0  0
  139.0305   73.8361  221.5687 H   0  0  0  0  0  0  0  0  0  0  0  0
  139.0666   73.5608  219.8193 H   0  0  0  0  0  0  0  0  0  0  0  0
  141.1516   72.9159  223.6427 H   0  0  0  0  0  0  0  0  0  0  0  0
  141.6078   72.7810  226.4838 H   0  0  0  0  0  0  0  0  0  0  0  0
  141.2265   71.3119  228.4962 H   0  0  0  0  0  0  0  0  0  0  0  0
  139.2048   68.3821  225.9852 H   0  0  0  0  0  0  0  0  0  0  0  0
  139.1080   69.1380  223.3560 H   0  0  0  0  0  0  0  0  0  0  0  0
  142.6912   70.6976  221.1412 H   0  0  0  0  0  0  0  0  0  0  0  0
  145.0512   71.5451  220.9535 H   0  0  0  0  0  0  0  0  0  0  0  0
  145.4802   73.9819  220.5732 H   0  0  0  0  0  0  0  0  0  0  0  0
  143.5532   75.5821  220.3713 H   0  0  0  0  0  0  0  0  0  0  0  0
  140.2035   75.3747  222.5873 H   0  0  0  0  0  0  0  0  0  0  0  0
  141.6332   76.2221  221.9617 H   0  0  0  0  0  0  0  0  0  0  0  0
  139.8942   79.2745  223.5022 H   0  0  0  0  0  0  0  0  0  0  0  0
  139.9064   77.4522  223.5731 H   0  0  0  0  0  0  0  0  0  0  0  0
  142.2000   77.4270  223.2290 H   0  0  0  0  0  0  0  0  0  0  0  0
  1  2  1  0
  2  3  1  0
  3  4  1  0
  4  5  1  0
  5  6  1  0
  6  7  1  0
  7  8  1  0
  9  8  1  6
  9 10  1  0
 10 11  1  0
 11 12  1  0
 12 13  2  0
 12 14  1  0
 14 15  2  0
 15 16  1  0
 16 17  2  0
 17 18  1  0
 18 19  2  0
 19 20  1  0
 19 21  1  0
 21 22  2  0
 22 23  1  0
 11 24  1  0
 24 25  2  0
 25 26  1  0
 26 27  2  0
 27 28  1  0
 28 29  2  0
  9 30  1  0
  5 31  1  0
 31 32  1  0
 32  2  1  0
 30  6  1  0
 29  9  1  0
 23 14  1  0
 29 24  1  0
 22 16  1  0
  1 33  1  0
  1 34  1  0
  1 35  1  0
  2 36  1  6
  3 37  1  0
  3 38  1  0
  4 39  1  0
  4 40  1  0
  5 41  1  1
  7 42  1  0
  7 43  1  0
  8 44  1  0
  8 45  1  0
 10 46  1  0
 10 47  1  0
 15 48  1  0
 17 49  1  0
 18 50  1  0
 21 51  1  0
 23 52  1  0
 25 53  1  0
 26 54  1  0
 27 55  1  0
 28 56  1  0
 30 57  1  0
 30 58  1  0
 31 59  1  0
 31 60  1  0
 32 61  1  0
M  END
>  <UniqueID>  (8) 
92

>  <SMILES>  (8) 
C[C@@H]1CC[C@@H](N2CC[C@]3(CN(C(=O)c4cc5ccc(F)cc5[nH]4)c4ccccc43)C2)CN1

>  <Energy>  (8) 
132.7403277397057

>  <Genealogy>  (8) 
C[C@@H]1CC[C@@H](N2CC[C@]3(CN(C(=O)c4cc5ccc(F)cc5[nH]4)c4ccccc43)C2)CN1 (chirality)
C[C@@H]1CC[C@@H](N2CC[C@]3(CN(C(=O)c4cc5ccc(F)cc5[nH]4)c4ccccc43)C2)CN1 (3D coordinates assigned)
C[C@@H]1CC[C@@H](N2CC[C@]3(CN(C(=O)c4cc5ccc(F)cc5[nH]4)c4ccccc43)C2)CN1 (nonaromatic ring conformer: 132.7403277397057 kcal/mol)

>  <smiles>  (8) 
C[C@@H]1CCC(N2CC[C@]3(CN(C(=O)c4cc5ccc(F)cc5[nH]4)c4ccccc43)C2)CN1

>  <score_type>  (8) 
oracle

>  <origin>  (8) 
autodockgpu

>  <m_score__min__energy>  (8) 
-9.3300000000000001

>  <m_primary>  (8) 
energy

>  <meeko>  (8) 
{"free_energy": -9.27, "intermolecular_energy": -10.17, "internal_energy": -1.55, "cluster_size": 19, "cluster_id": 1, "rank_in_cluster": 19}

>  <energy>  (8) 
-9.32

>  <cluster_rmsd>  (8) 
0.06

>  <rmsd>  (8) 
270.79

>  <cluster>  (8) 
1

$$$$
MYPHZBOANNRFAS-AGTLBBOYNA-N
     RDKit          3D

 61 66  0  0  0  0  0  0  0  0999 V2000
  142.8460   80.5050  223.7860 C   0  0  0  0  0  0  0  0  0  0  0  0
  142.5550   79.4020  222.7670 C   0  0  2  0  0  0  0  0  0  0  0  0
  141.8790   79.9900  221.5050 C   0  0  0  0  0  0  0  0  0  0  0  0
  141.1930   78.8880  220.6990 C   0  0  0  0  0  0  0  0  0  0  0  0
  140.0860   78.2010  221.5480 C   0  0  1  0  0  0  0  0  0  0  0  0
  139.7770   76.8050  221.1440 N   0  0  0  0  0  0  0  0  0  0  0  0
  139.6530   76.6130  219.6880 C   0  0  0  0  0  0  0  0  0  0  0  0
  140.5910   75.4850  219.2860 C   0  0  0  0  0  0  0  0  0  0  0  0
  140.7870   74.6930  220.5740 C   0  0  1  0  0  0  0  0  0  0  0  0
  139.7270   73.5480  220.7440 C   0  0  0  0  0  0  0  0  0  0  0  0
  140.4940   72.3190  220.9760 N   0  0  0  0  0  0  0  0  0  0  0  0
  139.9560   71.1760  221.6610 C   0  0  0  0  0  0  0  0  0  0  0  0
  139.3450   70.2870  221.0100 O   0  0  0  0  0  0  0  0  0  0  0  0
  140.1310   71.0130  223.1120 C   0  0  0  0  0  0  0  0  0  0  0  0
  140.6770   71.9770  223.9580 C   0  0  0  0  0  0  0  0  0  0  0  0
  140.6780   71.3930  225.2050 C   0  0  0  0  0  0  0  0  0  0  0  0
  141.1050   71.8870  226.4350 C   0  0  0  0  0  0  0  0  0  0  0  0
  140.9930   71.0440  227.5540 C   0  0  0  0  0  0  0  0  0  0  0  0
  140.4670   69.7400  227.4190 C   0  0  0  0  0  0  0  0  0  0  0  0
  140.3660   68.9370  228.5080 F   0  0  0  0  0  0  0  0  0  0  0  0
  140.0440   69.2700  226.1620 C   0  0  0  0  0  0  0  0  0  0  0  0
  140.1610   70.1310  225.0720 C   0  0  0  0  0  0  0  0  0  0  0  0
  139.8220   69.8840  223.7960 N   0  0  0  0  0  0  0  0  0  0  0  0
  141.8780   72.6220  220.8740 C   0  0  0  0  0  0  0  0  0  0  0  0
  142.9420   71.7190  220.9740 C   0  0  0  0  0  0  0  0  0  0  0  0
  144.2510   72.2070  220.8380 C   0  0  0  0  0  0  0  0  0  0  0  0
  144.4750   73.5750  220.6010 C   0  0  0  0  0  0  0  0  0  0  0  0
  143.3910   74.4600  220.4920 C   0  0  0  0  0  0  0  0  0  0  0  0
  142.0920   73.9520  220.6250 C   0  0  0  0  0  0  0  0  0  0  0  0
  140.6720   75.7600  221.6670 C   0  0  0  0  0  0  0  0  0  0  0  0
  140.3450   78.3090  223.0760 C   0  0  0  0  0  0  0  0  0  0  0  0
  141.7760   78.3260  223.4190 N   0  0  0  0  0  0  0  0  0  0  0  0
  142.7395   80.1014  224.8037 H   0  0  0  0  0  0  0  0  0  0  0  0
  143.8723   80.8743  223.6435 H   0  0  0  0  0  0  0  0  0  0  0  0
  142.1354   81.3325  223.6435 H   0  0  0  0  0  0  0  0  0  0  0  0
  143.4927   78.9484  222.4135 H   0  0  0  0  0  0  0  0  0  0  0  0
  141.1291   80.7346  221.8104 H   0  0  0  0  0  0  0  0  0  0  0  0
  142.6495   80.4611  220.8770 H   0  0  0  0  0  0  0  0  0  0  0  0
  140.7384   79.3274  219.7989 H   0  0  0  0  0  0  0  0  0  0  0  0
  141.9431   78.1348  220.4160 H   0  0  0  0  0  0  0  0  0  0  0  0
  139.1784   78.7806  221.3238 H   0  0  0  0  0  0  0  0  0  0  0  0
  138.6167   76.3468  219.4326 H   0  0  0  0  0  0  0  0  0  0  0  0
  139.9148   77.5388  219.1548 H   0  0  0  0  0  0  0  0  0  0  0  0
  140.1358   74.8570  218.5060 H   0  0  0  0  0  0  0  0  0  0  0  0
  141.5390   75.8517  218.8656 H   0  0  0  0  0  0  0  0  0  0  0  0
  139.0720   73.7577  221.6025 H   0  0  0  0  0  0  0  0  0  0  0  0
  139.0829   73.4598  219.8567 H   0  0  0  0  0  0  0  0  0  0  0  0
  141.0297   72.9835  223.6885 H   0  0  0  0  0  0  0  0  0  0  0  0
  141.5162   72.9030  226.5277 H   0  0  0  0  0  0  0  0  0  0  0  0
  141.3173   71.4023  228.5421 H   0  0  0  0  0  0  0  0  0  0  0  0
  139.6343   68.2561  226.0433 H   0  0  0  0  0  0  0  0  0  0  0  0
  139.4350   68.9950  223.4140 H   0  0  0  0  0  0  0  0  0  0  0  0
  142.7567   70.6500  221.1552 H   0  0  0  0  0  0  0  0  0  0  0  0
  145.1043   71.5173  220.9170 H   0  0  0  0  0  0  0  0  0  0  0  0
  145.5032   73.9527  220.5007 H   0  0  0  0  0  0  0  0  0  0  0  0
  143.5580   75.5312  220.3059 H   0  0  0  0  0  0  0  0  0  0  0  0
  140.2484   75.3211  222.5824 H   0  0  0  0  0  0  0  0  0  0  0  0
  141.6587   76.1744  221.9214 H   0  0  0  0  0  0  0  0  0  0  0  0
  139.8857   79.2382  223.4442 H   0  0  0  0  0  0  0  0  0  0  0  0
  139.9053   77.4175  223.5471 H   0  0  0  0  0  0  0  0  0  0  0  0
  142.2000   77.3960  223.2070 H   0  0  0  0  0  0  0  0  0  0  0  0
  1  2  1  0
  2  3  1  0
  3  4  1  0
  4  5  1  0
  5  6  1  0
  6  7  1  0
  7  8  1  0
  9  8  1  6
  9 10  1  0
 10 11  1  0
 11 12  1  0
 12 13  2  0
 12 14  1  0
 14 15  2  0
 15 16  1  0
 16 17  2  0
 17 18  1  0
 18 19  2  0
 19 20  1  0
 19 21  1  0
 21 22  2  0
 22 23  1  0
 11 24  1  0
 24 25  2  0
 25 26  1  0
 26 27  2  0
 27 28  1  0
 28 29  2  0
  9 30  1  0
  5 31  1  0
 31 32  1  0
 32  2  1  0
 30  6  1  0
 29  9  1  0
 23 14  1  0
 29 24  1  0
 22 16  1  0
  1 33  1  0
  1 34  1  0
  1 35  1  0
  2 36  1  6
  3 37  1  0
  3 38  1  0
  4 39  1  0
  4 40  1  0
  5 41  1  1
  7 42  1  0
  7 43  1  0
  8 44  1  0
  8 45  1  0
 10 46  1  0
 10 47  1  0
 15 48  1  0
 17 49  1  0
 18 50  1  0
 21 51  1  0
 23 52  1  0
 25 53  1  0
 26 54  1  0
 27 55  1  0
 28 56  1  0
 30 57  1  0
 30 58  1  0
 31 59  1  0
 31 60  1  0
 32 61  1  0
M  END
>  <UniqueID>  (9) 
92

>  <SMILES>  (9) 
C[C@@H]1CC[C@@H](N2CC[C@]3(CN(C(=O)c4cc5ccc(F)cc5[nH]4)c4ccccc43)C2)CN1

>  <Energy>  (9) 
132.7403277397057

>  <Genealogy>  (9) 
C[C@@H]1CC[C@@H](N2CC[C@]3(CN(C(=O)c4cc5ccc(F)cc5[nH]4)c4ccccc43)C2)CN1 (chirality)
C[C@@H]1CC[C@@H](N2CC[C@]3(CN(C(=O)c4cc5ccc(F)cc5[nH]4)c4ccccc43)C2)CN1 (3D coordinates assigned)
C[C@@H]1CC[C@@H](N2CC[C@]3(CN(C(=O)c4cc5ccc(F)cc5[nH]4)c4ccccc43)C2)CN1 (nonaromatic ring conformer: 132.7403277397057 kcal/mol)

>  <smiles>  (9) 
C[C@@H]1CCC(N2CC[C@]3(CN(C(=O)c4cc5ccc(F)cc5[nH]4)c4ccccc43)C2)CN1

>  <score_type>  (9) 
oracle

>  <origin>  (9) 
autodockgpu

>  <m_score__min__energy>  (9) 
-9.3300000000000001

>  <m_primary>  (9) 
energy

>  <meeko>  (9) 
{"free_energy": -9.32, "intermolecular_energy": -10.21, "internal_energy": -1.55, "cluster_size": 19, "cluster_id": 1, "rank_in_cluster": 11}

>  <energy>  (9) 
-9.32

>  <cluster_rmsd>  (9) 
0.23

>  <rmsd>  (9) 
270.75

>  <cluster>  (9) 
1

$$$$
MYPHZBOANNRFAS-AGTLBBOYNA-N
     RDKit          3D

 61 66  0  0  0  0  0  0  0  0999 V2000
  142.9160   80.5130  223.7510 C   0  0  0  0  0  0  0  0  0  0  0  0
  142.5880   79.4080  222.7450 C   0  0  2  0  0  0  0  0  0  0  0  0
  141.9070   79.9990  221.4880 C   0  0  0  0  0  0  0  0  0  0  0  0
  141.1870   78.9040  220.7020 C   0  0  0  0  0  0  0  0  0  0  0  0
  140.0790   78.2470  221.5720 C   0  0  1  0  0  0  0  0  0  0  0  0
  139.7360   76.8540  221.1840 N   0  0  0  0  0  0  0  0  0  0  0  0
  139.5770   76.6550  219.7330 C   0  0  0  0  0  0  0  0  0  0  0  0
  140.4850   75.5070  219.3190 C   0  0  0  0  0  0  0  0  0  0  0  0
  140.6950   74.7200  220.6080 C   0  0  1  0  0  0  0  0  0  0  0  0
  139.6190   73.5960  220.8090 C   0  0  0  0  0  0  0  0  0  0  0  0
  140.3690   72.3540  221.0330 N   0  0  0  0  0  0  0  0  0  0  0  0
  139.8250   71.2260  221.7370 C   0  0  0  0  0  0  0  0  0  0  0  0
  139.1820   70.3450  221.1060 O   0  0  0  0  0  0  0  0  0  0  0  0
  140.0310   71.0680  223.1840 C   0  0  0  0  0  0  0  0  0  0  0  0
  140.6780   71.9950  223.9990 C   0  0  0  0  0  0  0  0  0  0  0  0
  140.6710   71.4280  225.2540 C   0  0  0  0  0  0  0  0  0  0  0  0
  141.1740   71.9020  226.4630 C   0  0  0  0  0  0  0  0  0  0  0  0
  141.0290   71.0850  227.5980 C   0  0  0  0  0  0  0  0  0  0  0  0
  140.3970   69.8260  227.4980 C   0  0  0  0  0  0  0  0  0  0  0  0
  140.2660   69.0470  228.6010 F   0  0  0  0  0  0  0  0  0  0  0  0
  139.8990   69.3750  226.2610 C   0  0  0  0  0  0  0  0  0  0  0  0
  140.0500   70.2110  225.1550 C   0  0  0  0  0  0  0  0  0  0  0  0
  139.6540   69.9760  223.8940 N   0  0  0  0  0  0  0  0  0  0  0  0
  141.7550   72.6320  220.8980 C   0  0  0  0  0  0  0  0  0  0  0  0
  142.8050   71.7100  220.9820 C   0  0  0  0  0  0  0  0  0  0  0  0
  144.1190   72.1730  220.8140 C   0  0  0  0  0  0  0  0  0  0  0  0
  144.3620   73.5360  220.5620 C   0  0  0  0  0  0  0  0  0  0  0  0
  143.2920   74.4400  220.4720 C   0  0  0  0  0  0  0  0  0  0  0  0
  141.9880   73.9560  220.6360 C   0  0  0  0  0  0  0  0  0  0  0  0
  140.6230   75.7960  221.6960 C   0  0  0  0  0  0  0  0  0  0  0  0
  140.3620   78.3620  223.0960 C   0  0  0  0  0  0  0  0  0  0  0  0
  141.7980   78.3530  223.4170 N   0  0  0  0  0  0  0  0  0  0  0  0
  142.8006   80.1241  224.7735 H   0  0  0  0  0  0  0  0  0  0  0  0
  143.9527   80.8491  223.6014 H   0  0  0  0  0  0  0  0  0  0  0  0
  142.2306   81.3603  223.6014 H   0  0  0  0  0  0  0  0  0  0  0  0
  143.5110   78.9328  222.3815 H   0  0  0  0  0  0  0  0  0  0  0  0
  141.1771   80.7617  221.7970 H   0  0  0  0  0  0  0  0  0  0  0  0
  142.6779   80.4488  220.8451 H   0  0  0  0  0  0  0  0  0  0  0  0
  140.7285   79.3448  219.8045 H   0  0  0  0  0  0  0  0  0  0  0  0
  141.9177   78.1332  220.4155 H   0  0  0  0  0  0  0  0  0  0  0  0
  139.1803   78.8434  221.3559 H   0  0  0  0  0  0  0  0  0  0  0  0
  138.5306   76.4066  219.5018 H   0  0  0  0  0  0  0  0  0  0  0  0
  139.8443   77.5722  219.1878 H   0  0  0  0  0  0  0  0  0  0  0  0
  140.0013   74.8822  218.5537 H   0  0  0  0  0  0  0  0  0  0  0  0
  141.4302   75.8534  218.8755 H   0  0  0  0  0  0  0  0  0  0  0  0
  138.9869   73.8233  221.6801 H   0  0  0  0  0  0  0  0  0  0  0  0
  138.9542   73.5137  219.9365 H   0  0  0  0  0  0  0  0  0  0  0  0
  141.1014   72.9666  223.7044 H   0  0  0  0  0  0  0  0  0  0  0  0
  141.6681   72.8826  226.5278 H   0  0  0  0  0  0  0  0  0  0  0  0
  141.4105   71.4288  228.5708 H   0  0  0  0  0  0  0  0  0  0  0  0
  139.4069   68.3954  226.1697 H   0  0  0  0  0  0  0  0  0  0  0  0
  139.1860   69.1160  223.5370 H   0  0  0  0  0  0  0  0  0  0  0  0
  142.6044   70.6459  221.1755 H   0  0  0  0  0  0  0  0  0  0  0  0
  144.9614   71.4686  220.8795 H   0  0  0  0  0  0  0  0  0  0  0  0
  145.3942   73.8943  220.4351 H   0  0  0  0  0  0  0  0  0  0  0  0
  143.4740   75.5071  220.2766 H   0  0  0  0  0  0  0  0  0  0  0  0
  140.2109   75.3711  222.6232 H   0  0  0  0  0  0  0  0  0  0  0  0
  141.6222   76.1937  221.9270 H   0  0  0  0  0  0  0  0  0  0  0  0
  139.9267   79.3031  223.4632 H   0  0  0  0  0  0  0  0  0  0  0  0
  139.9111   77.4838  223.5813 H   0  0  0  0  0  0  0  0  0  0  0  0
  142.2000   77.4120  223.2070 H   0  0  0  0  0  0  0  0  0  0  0  0
  1  2  1  0
  2  3  1  0
  3  4  1  0
  4  5  1  0
  5  6  1  0
  6  7  1  0
  7  8  1  0
  9  8  1  6
  9 10  1  0
 10 11  1  0
 11 12  1  0
 12 13  2  0
 12 14  1  0
 14 15  2  0
 15 16  1  0
 16 17  2  0
 17 18  1  0
 18 19  2  0
 19 20  1  0
 19 21  1  0
 21 22  2  0
 22 23  1  0
 11 24  1  0
 24 25  2  0
 25 26  1  0
 26 27  2  0
 27 28  1  0
 28 29  2  0
  9 30  1  0
  5 31  1  0
 31 32  1  0
 32  2  1  0
 30  6  1  0
 29  9  1  0
 23 14  1  0
 29 24  1  0
 22 16  1  0
  1 33  1  0
  1 34  1  0
  1 35  1  0
  2 36  1  6
  3 37  1  0
  3 38  1  0
  4 39  1  0
  4 40  1  0
  5 41  1  1
  7 42  1  0
  7 43  1  0
  8 44  1  0
  8 45  1  0
 10 46  1  0
 10 47  1  0
 15 48  1  0
 17 49  1  0
 18 50  1  0
 21 51  1  0
 23 52  1  0
 25 53  1  0
 26 54  1  0
 27 55  1  0
 28 56  1  0
 30 57  1  0
 30 58  1  0
 31 59  1  0
 31 60  1  0
 32 61  1  0
M  END
>  <UniqueID>  (10) 
92

>  <SMILES>  (10) 
C[C@@H]1CC[C@@H](N2CC[C@]3(CN(C(=O)c4cc5ccc(F)cc5[nH]4)c4ccccc43)C2)CN1

>  <Energy>  (10) 
132.7403277397057

>  <Genealogy>  (10) 
C[C@@H]1CC[C@@H](N2CC[C@]3(CN(C(=O)c4cc5ccc(F)cc5[nH]4)c4ccccc43)C2)CN1 (chirality)
C[C@@H]1CC[C@@H](N2CC[C@]3(CN(C(=O)c4cc5ccc(F)cc5[nH]4)c4ccccc43)C2)CN1 (3D coordinates assigned)
C[C@@H]1CC[C@@H](N2CC[C@]3(CN(C(=O)c4cc5ccc(F)cc5[nH]4)c4ccccc43)C2)CN1 (nonaromatic ring conformer: 132.7403277397057 kcal/mol)

>  <smiles>  (10) 
C[C@@H]1CCC(N2CC[C@]3(CN(C(=O)c4cc5ccc(F)cc5[nH]4)c4ccccc43)C2)CN1

>  <score_type>  (10) 
oracle

>  <origin>  (10) 
autodockgpu

>  <m_score__min__energy>  (10) 
-9.3300000000000001

>  <m_primary>  (10) 
energy

>  <meeko>  (10) 
{"free_energy": -9.32, "intermolecular_energy": -10.21, "internal_energy": -1.55, "cluster_size": 19, "cluster_id": 1, "rank_in_cluster": 12}

>  <energy>  (10) 
-9.32

>  <cluster_rmsd>  (10) 
0.17

>  <rmsd>  (10) 
270.82

>  <cluster>  (10) 
1

$$$$
MYPHZBOANNRFAS-AGTLBBOYNA-N
     RDKit          3D

 61 66  0  0  0  0  0  0  0  0999 V2000
  142.8390   80.5130  223.7470 C   0  0  0  0  0  0  0  0  0  0  0  0
  142.5320   79.4030  222.7410 C   0  0  2  0  0  0  0  0  0  0  0  0
  141.8260   79.9790  221.4910 C   0  0  0  0  0  0  0  0  0  0  0  0
  141.1280   78.8690  220.7070 C   0  0  0  0  0  0  0  0  0  0  0  0
  140.0450   78.1810  221.5830 C   0  0  1  0  0  0  0  0  0  0  0  0
  139.7350   76.7810  221.1930 N   0  0  0  0  0  0  0  0  0  0  0  0
  139.5790   76.5800  219.7410 C   0  0  0  0  0  0  0  0  0  0  0  0
  140.5150   75.4540  219.3250 C   0  0  0  0  0  0  0  0  0  0  0  0
  140.7440   74.6710  220.6130 C   0  0  1  0  0  0  0  0  0  0  0  0
  139.6960   73.5210  220.8130 C   0  0  0  0  0  0  0  0  0  0  0  0
  140.4750   72.2980  221.0340 N   0  0  0  0  0  0  0  0  0  0  0  0
  139.9600   71.1560  221.7370 C   0  0  0  0  0  0  0  0  0  0  0  0
  139.3610   70.2470  221.1010 O   0  0  0  0  0  0  0  0  0  0  0  0
  140.1440   71.0160  223.1890 C   0  0  0  0  0  0  0  0  0  0  0  0
  140.6720   72.0020  224.0210 C   0  0  0  0  0  0  0  0  0  0  0  0
  140.6900   71.4350  225.2750 C   0  0  0  0  0  0  0  0  0  0  0  0
  141.1110   71.9550  226.4970 C   0  0  0  0  0  0  0  0  0  0  0  0
  141.0210   71.1240  227.6270 C   0  0  0  0  0  0  0  0  0  0  0  0
  140.5240   69.8070  227.5110 C   0  0  0  0  0  0  0  0  0  0  0  0
  140.4440   69.0160  228.6110 F   0  0  0  0  0  0  0  0  0  0  0  0
  140.1070   69.3110  226.2620 C   0  0  0  0  0  0  0  0  0  0  0  0
  140.2000   70.1600  225.1600 C   0  0  0  0  0  0  0  0  0  0  0  0
  139.8620   69.8890  223.8890 N   0  0  0  0  0  0  0  0  0  0  0  0
  141.8550   72.6090  220.8990 C   0  0  0  0  0  0  0  0  0  0  0  0
  142.9260   71.7120  220.9800 C   0  0  0  0  0  0  0  0  0  0  0  0
  144.2290   72.2070  220.8120 C   0  0  0  0  0  0  0  0  0  0  0  0
  144.4390   73.5760  220.5620 C   0  0  0  0  0  0  0  0  0  0  0  0
  143.3480   74.4530  220.4740 C   0  0  0  0  0  0  0  0  0  0  0  0
  142.0550   73.9390  220.6380 C   0  0  0  0  0  0  0  0  0  0  0  0
  140.6470   75.7430  221.7020 C   0  0  0  0  0  0  0  0  0  0  0  0
  140.3360   78.2980  223.1040 C   0  0  0  0  0  0  0  0  0  0  0  0
  141.7750   78.3260  223.4160 N   0  0  0  0  0  0  0  0  0  0  0  0
  142.7307   80.1216  224.7693 H   0  0  0  0  0  0  0  0  0  0  0  0
  143.8692   80.8685  223.5977 H   0  0  0  0  0  0  0  0  0  0  0  0
  142.1379   81.3474  223.5977 H   0  0  0  0  0  0  0  0  0  0  0  0
  143.4644   78.9531  222.3691 H   0  0  0  0  0  0  0  0  0  0  0  0
  141.0793   80.7219  221.8080 H   0  0  0  0  0  0  0  0  0  0  0  0
  142.5805   80.4494  220.8434 H   0  0  0  0  0  0  0  0  0  0  0  0
  140.6510   79.3011  219.8149 H   0  0  0  0  0  0  0  0  0  0  0  0
  141.8758   78.1183  220.4117 H   0  0  0  0  0  0  0  0  0  0  0  0
  139.1298   78.7550  221.3757 H   0  0  0  0  0  0  0  0  0  0  0  0
  138.5388   76.3065  219.5105 H   0  0  0  0  0  0  0  0  0  0  0  0
  139.8230   77.5040  219.1963 H   0  0  0  0  0  0  0  0  0  0  0  0
  140.0463   74.8186  218.5591 H   0  0  0  0  0  0  0  0  0  0  0  0
  141.4514   75.8235  218.8816 H   0  0  0  0  0  0  0  0  0  0  0  0
  139.0594   73.7315  221.6850 H   0  0  0  0  0  0  0  0  0  0  0  0
  139.0328   73.4241  219.9408 H   0  0  0  0  0  0  0  0  0  0  0  0
  141.0021   73.0122  223.7374 H   0  0  0  0  0  0  0  0  0  0  0  0
  141.5005   72.9808  226.5748 H   0  0  0  0  0  0  0  0  0  0  0  0
  141.3401   71.5023  228.6094 H   0  0  0  0  0  0  0  0  0  0  0  0
  139.7201   68.2865  226.1584 H   0  0  0  0  0  0  0  0  0  0  0  0
  139.4930   68.9870  223.5210 H   0  0  0  0  0  0  0  0  0  0  0  0
  142.7509   70.6430  221.1710 H   0  0  0  0  0  0  0  0  0  0  0  0
  145.0881   71.5230  220.8759 H   0  0  0  0  0  0  0  0  0  0  0  0
  145.4622   73.9594  220.4352 H   0  0  0  0  0  0  0  0  0  0  0  0
  143.5046   75.5244  220.2799 H   0  0  0  0  0  0  0  0  0  0  0  0
  140.2457   75.3069  222.6287 H   0  0  0  0  0  0  0  0  0  0  0  0
  141.6368   76.1640  221.9325 H   0  0  0  0  0  0  0  0  0  0  0  0
  139.8786   79.2260  223.4777 H   0  0  0  0  0  0  0  0  0  0  0  0
  139.9124   77.4060  223.5887 H   0  0  0  0  0  0  0  0  0  0  0  0
  142.1990   77.3970  223.1990 H   0  0  0  0  0  0  0  0  0  0  0  0
  1  2  1  0
  2  3  1  0
  3  4  1  0
  4  5  1  0
  5  6  1  0
  6  7  1  0
  7  8  1  0
  9  8  1  6
  9 10  1  0
 10 11  1  0
 11 12  1  0
 12 13  2  0
 12 14  1  0
 14 15  2  0
 15 16  1  0
 16 17  2  0
 17 18  1  0
 18 19  2  0
 19 20  1  0
 19 21  1  0
 21 22  2  0
 22 23  1  0
 11 24  1  0
 24 25  2  0
 25 26  1  0
 26 27  2  0
 27 28  1  0
 28 29  2  0
  9 30  1  0
  5 31  1  0
 31 32  1  0
 32  2  1  0
 30  6  1  0
 29  9  1  0
 23 14  1  0
 29 24  1  0
 22 16  1  0
  1 33  1  0
  1 34  1  0
  1 35  1  0
  2 36  1  6
  3 37  1  0
  3 38  1  0
  4 39  1  0
  4 40  1  0
  5 41  1  1
  7 42  1  0
  7 43  1  0
  8 44  1  0
  8 45  1  0
 10 46  1  0
 10 47  1  0
 15 48  1  0
 17 49  1  0
 18 50  1  0
 21 51  1  0
 23 52  1  0
 25 53  1  0
 26 54  1  0
 27 55  1  0
 28 56  1  0
 30 57  1  0
 30 58  1  0
 31 59  1  0
 31 60  1  0
 32 61  1  0
M  END
>  <UniqueID>  (11) 
92

>  <SMILES>  (11) 
C[C@@H]1CC[C@@H](N2CC[C@]3(CN(C(=O)c4cc5ccc(F)cc5[nH]4)c4ccccc43)C2)CN1

>  <Energy>  (11) 
132.7403277397057

>  <Genealogy>  (11) 
C[C@@H]1CC[C@@H](N2CC[C@]3(CN(C(=O)c4cc5ccc(F)cc5[nH]4)c4ccccc43)C2)CN1 (chirality)
C[C@@H]1CC[C@@H](N2CC[C@]3(CN(C(=O)c4cc5ccc(F)cc5[nH]4)c4ccccc43)C2)CN1 (3D coordinates assigned)
C[C@@H]1CC[C@@H](N2CC[C@]3(CN(C(=O)c4cc5ccc(F)cc5[nH]4)c4ccccc43)C2)CN1 (nonaromatic ring conformer: 132.7403277397057 kcal/mol)

>  <smiles>  (11) 
C[C@@H]1CCC(N2CC[C@]3(CN(C(=O)c4cc5ccc(F)cc5[nH]4)c4ccccc43)C2)CN1

>  <score_type>  (11) 
oracle

>  <origin>  (11) 
autodockgpu

>  <m_score__min__energy>  (11) 
-9.3300000000000001

>  <m_primary>  (11) 
energy

>  <meeko>  (11) 
{"free_energy": -9.32, "intermolecular_energy": -10.22, "internal_energy": -1.55, "cluster_size": 19, "cluster_id": 1, "rank_in_cluster": 5}

>  <energy>  (11) 
-9.32

>  <cluster_rmsd>  (11) 
0.08

>  <rmsd>  (11) 
270.75

>  <cluster>  (11) 
1

$$$$
MYPHZBOANNRFAS-AGTLBBOYNA-N
     RDKit          3D

 61 66  0  0  0  0  0  0  0  0999 V2000
  142.8590   80.5150  223.7500 C   0  0  0  0  0  0  0  0  0  0  0  0
  142.5550   79.4060  222.7410 C   0  0  2  0  0  0  0  0  0  0  0  0
  141.8590   79.9850  221.4860 C   0  0  0  0  0  0  0  0  0  0  0  0
  141.1620   78.8780  220.6980 C   0  0  0  0  0  0  0  0  0  0  0  0
  140.0710   78.1930  221.5670 C   0  0  1  0  0  0  0  0  0  0  0  0
  139.7580   76.7940  221.1760 N   0  0  0  0  0  0  0  0  0  0  0  0
  139.6080   76.5940  219.7230 C   0  0  0  0  0  0  0  0  0  0  0  0
  140.5420   75.4670  219.3100 C   0  0  0  0  0  0  0  0  0  0  0  0
  140.7640   74.6820  220.5980 C   0  0  1  0  0  0  0  0  0  0  0  0
  139.7110   73.5350  220.7930 C   0  0  0  0  0  0  0  0  0  0  0  0
  140.4860   72.3090  221.0170 N   0  0  0  0  0  0  0  0  0  0  0  0
  139.9640   71.1690  221.7170 C   0  0  0  0  0  0  0  0  0  0  0  0
  139.3580   70.2660  221.0800 O   0  0  0  0  0  0  0  0  0  0  0  0
  140.1510   71.0220  223.1680 C   0  0  0  0  0  0  0  0  0  0  0  0
  140.6780   72.0060  224.0040 C   0  0  0  0  0  0  0  0  0  0  0  0
  140.6990   71.4330  225.2550 C   0  0  0  0  0  0  0  0  0  0  0  0
  141.1210   71.9480  226.4790 C   0  0  0  0  0  0  0  0  0  0  0  0
  141.0340   71.1120  227.6060 C   0  0  0  0  0  0  0  0  0  0  0  0
  140.5390   69.7950  227.4850 C   0  0  0  0  0  0  0  0  0  0  0  0
  140.4630   68.9990  228.5810 F   0  0  0  0  0  0  0  0  0  0  0  0
  140.1210   69.3040  226.2340 C   0  0  0  0  0  0  0  0  0  0  0  0
  140.2110   70.1580  225.1360 C   0  0  0  0  0  0  0  0  0  0  0  0
  139.8720   69.8920  223.8640 N   0  0  0  0  0  0  0  0  0  0  0  0
  141.8670   72.6160  220.8870 C   0  0  0  0  0  0  0  0  0  0  0  0
  142.9360   71.7160  220.9720 C   0  0  0  0  0  0  0  0  0  0  0  0
  144.2400   72.2080  220.8090 C   0  0  0  0  0  0  0  0  0  0  0  0
  144.4560   73.5760  220.5610 C   0  0  0  0  0  0  0  0  0  0  0  0
  143.3670   74.4570  220.4690 C   0  0  0  0  0  0  0  0  0  0  0  0
  142.0720   73.9460  220.6280 C   0  0  0  0  0  0  0  0  0  0  0  0
  140.6660   75.7540  221.6880 C   0  0  0  0  0  0  0  0  0  0  0  0
  140.3530   78.3100  223.0910 C   0  0  0  0  0  0  0  0  0  0  0  0
  141.7890   78.3320  223.4110 N   0  0  0  0  0  0  0  0  0  0  0  0
  142.7510   80.1211  224.7714 H   0  0  0  0  0  0  0  0  0  0  0  0
  143.8885   80.8732  223.6021 H   0  0  0  0  0  0  0  0  0  0  0  0
  142.1561   81.3481  223.6021 H   0  0  0  0  0  0  0  0  0  0  0  0
  143.4882   78.9530  222.3751 H   0  0  0  0  0  0  0  0  0  0  0  0
  141.1132   80.7309  221.7981 H   0  0  0  0  0  0  0  0  0  0  0  0
  142.6194   80.4525  220.8432 H   0  0  0  0  0  0  0  0  0  0  0  0
  140.6919   79.3120  219.8032 H   0  0  0  0  0  0  0  0  0  0  0  0
  141.9091   78.1247  220.4074 H   0  0  0  0  0  0  0  0  0  0  0  0
  139.1590   78.7695  221.3527 H   0  0  0  0  0  0  0  0  0  0  0  0
  138.5681   76.3233  219.4879 H   0  0  0  0  0  0  0  0  0  0  0  0
  139.8570   77.5178  219.1803 H   0  0  0  0  0  0  0  0  0  0  0  0
  140.0748   74.8336  218.5416 H   0  0  0  0  0  0  0  0  0  0  0  0
  141.4811   75.8346  218.8708 H   0  0  0  0  0  0  0  0  0  0  0  0
  139.0712   73.7471  221.6623 H   0  0  0  0  0  0  0  0  0  0  0  0
  139.0510   73.4406  219.9180 H   0  0  0  0  0  0  0  0  0  0  0  0
  141.0052   73.0184  223.7246 H   0  0  0  0  0  0  0  0  0  0  0  0
  141.5091   72.9740  226.5608 H   0  0  0  0  0  0  0  0  0  0  0  0
  141.3539   71.4866  228.5895 H   0  0  0  0  0  0  0  0  0  0  0  0
  139.7357   68.2793  226.1262 H   0  0  0  0  0  0  0  0  0  0  0  0
  139.5040   68.9910  223.4920 H   0  0  0  0  0  0  0  0  0  0  0  0
  142.7578   70.6473  221.1623 H   0  0  0  0  0  0  0  0  0  0  0  0
  145.0968   71.5214  220.8754 H   0  0  0  0  0  0  0  0  0  0  0  0
  145.4810   73.9562  220.4389 H   0  0  0  0  0  0  0  0  0  0  0  0
  143.5272   75.5280  220.2758 H   0  0  0  0  0  0  0  0  0  0  0  0
  140.2606   75.3184  222.6132 H   0  0  0  0  0  0  0  0  0  0  0  0
  141.6559   76.1725  221.9224 H   0  0  0  0  0  0  0  0  0  0  0  0
  139.8973   79.2402  223.4612 H   0  0  0  0  0  0  0  0  0  0  0  0
  139.9223   77.4205  223.5741 H   0  0  0  0  0  0  0  0  0  0  0  0
  142.2120   77.4010  223.1970 H   0  0  0  0  0  0  0  0  0  0  0  0
  1  2  1  0
  2  3  1  0
  3  4  1  0
  4  5  1  0
  5  6  1  0
  6  7  1  0
  7  8  1  0
  9  8  1  6
  9 10  1  0
 10 11  1  0
 11 12  1  0
 12 13  2  0
 12 14  1  0
 14 15  2  0
 15 16  1  0
 16 17  2  0
 17 18  1  0
 18 19  2  0
 19 20  1  0
 19 21  1  0
 21 22  2  0
 22 23  1  0
 11 24  1  0
 24 25  2  0
 25 26  1  0
 26 27  2  0
 27 28  1  0
 28 29  2  0
  9 30  1  0
  5 31  1  0
 31 32  1  0
 32  2  1  0
 30  6  1  0
 29  9  1  0
 23 14  1  0
 29 24  1  0
 22 16  1  0
  1 33  1  0
  1 34  1  0
  1 35  1  0
  2 36  1  6
  3 37  1  0
  3 38  1  0
  4 39  1  0
  4 40  1  0
  5 41  1  1
  7 42  1  0
  7 43  1  0
  8 44  1  0
  8 45  1  0
 10 46  1  0
 10 47  1  0
 15 48  1  0
 17 49  1  0
 18 50  1  0
 21 51  1  0
 23 52  1  0
 25 53  1  0
 26 54  1  0
 27 55  1  0
 28 56  1  0
 30 57  1  0
 30 58  1  0
 31 59  1  0
 31 60  1  0
 32 61  1  0
M  END
>  <UniqueID>  (12) 
92

>  <SMILES>  (12) 
C[C@@H]1CC[C@@H](N2CC[C@]3(CN(C(=O)c4cc5ccc(F)cc5[nH]4)c4ccccc43)C2)CN1

>  <Energy>  (12) 
132.7403277397057

>  <Genealogy>  (12) 
C[C@@H]1CC[C@@H](N2CC[C@]3(CN(C(=O)c4cc5ccc(F)cc5[nH]4)c4ccccc43)C2)CN1 (chirality)
C[C@@H]1CC[C@@H](N2CC[C@]3(CN(C(=O)c4cc5ccc(F)cc5[nH]4)c4ccccc43)C2)CN1 (3D coordinates assigned)
C[C@@H]1CC[C@@H](N2CC[C@]3(CN(C(=O)c4cc5ccc(F)cc5[nH]4)c4ccccc43)C2)CN1 (nonaromatic ring conformer: 132.7403277397057 kcal/mol)

>  <smiles>  (12) 
C[C@@H]1CCC(N2CC[C@]3(CN(C(=O)c4cc5ccc(F)cc5[nH]4)c4ccccc43)C2)CN1

>  <score_type>  (12) 
oracle

>  <origin>  (12) 
autodockgpu

>  <m_score__min__energy>  (12) 
-9.3300000000000001

>  <m_primary>  (12) 
energy

>  <meeko>  (12) 
{"free_energy": -9.32, "intermolecular_energy": -10.22, "internal_energy": -1.55, "cluster_size": 19, "cluster_id": 1, "rank_in_cluster": 4}

>  <energy>  (12) 
-9.32

>  <cluster_rmsd>  (12) 
0.19

>  <rmsd>  (12) 
270.75

>  <cluster>  (12) 
1

$$$$
MYPHZBOANNRFAS-AGTLBBOYNA-N
     RDKit          3D

 61 66  0  0  0  0  0  0  0  0999 V2000
  142.8540   80.5460  223.8140 C   0  0  0  0  0  0  0  0  0  0  0  0
  142.5660   79.4440  222.7930 C   0  0  2  0  0  0  0  0  0  0  0  0
  141.8920   80.0330  221.5310 C   0  0  0  0  0  0  0  0  0  0  0  0
  141.2080   78.9320  220.7230 C   0  0  0  0  0  0  0  0  0  0  0  0
  140.1010   78.2420  221.5690 C   0  0  1  0  0  0  0  0  0  0  0  0
  139.7940   76.8460  221.1620 N   0  0  0  0  0  0  0  0  0  0  0  0
  139.6730   76.6560  219.7050 C   0  0  0  0  0  0  0  0  0  0  0  0
  140.6130   75.5290  219.3040 C   0  0  0  0  0  0  0  0  0  0  0  0
  140.8080   74.7360  220.5910 C   0  0  1  0  0  0  0  0  0  0  0  0
  139.7500   73.5890  220.7580 C   0  0  0  0  0  0  0  0  0  0  0  0
  140.5180   72.3610  220.9890 N   0  0  0  0  0  0  0  0  0  0  0  0
  139.9810   71.2170  221.6710 C   0  0  0  0  0  0  0  0  0  0  0  0
  139.3520   70.3390  221.0210 O   0  0  0  0  0  0  0  0  0  0  0  0
  140.1770   71.0380  223.1170 C   0  0  0  0  0  0  0  0  0  0  0  0
  140.6910   72.0100  223.9740 C   0  0  0  0  0  0  0  0  0  0  0  0
  140.7280   71.4070  225.2110 C   0  0  0  0  0  0  0  0  0  0  0  0
  141.1470   71.8990  226.4450 C   0  0  0  0  0  0  0  0  0  0  0  0
  141.0810   71.0340  227.5510 C   0  0  0  0  0  0  0  0  0  0  0  0
  140.6090   69.7120  227.4000 C   0  0  0  0  0  0  0  0  0  0  0  0
  140.5530   68.8880  228.4760 F   0  0  0  0  0  0  0  0  0  0  0  0
  140.1940   69.2440  226.1390 C   0  0  0  0  0  0  0  0  0  0  0  0
  140.2630   70.1270  225.0620 C   0  0  0  0  0  0  0  0  0  0  0  0
  139.9220   69.8860  223.7850 N   0  0  0  0  0  0  0  0  0  0  0  0
  141.9020   72.6670  220.8890 C   0  0  0  0  0  0  0  0  0  0  0  0
  142.9680   71.7640  220.9890 C   0  0  0  0  0  0  0  0  0  0  0  0
  144.2760   72.2540  220.8550 C   0  0  0  0  0  0  0  0  0  0  0  0
  144.4980   73.6240  220.6210 C   0  0  0  0  0  0  0  0  0  0  0  0
  143.4130   74.5070  220.5120 C   0  0  0  0  0  0  0  0  0  0  0  0
  142.1150   73.9970  220.6420 C   0  0  0  0  0  0  0  0  0  0  0  0
  140.6900   75.8010  221.6850 C   0  0  0  0  0  0  0  0  0  0  0  0
  140.3580   78.3480  223.0980 C   0  0  0  0  0  0  0  0  0  0  0  0
  141.7890   78.3670  223.4420 N   0  0  0  0  0  0  0  0  0  0  0  0
  142.7480   80.1404  224.8310 H   0  0  0  0  0  0  0  0  0  0  0  0
  143.8795   80.9179  223.6726 H   0  0  0  0  0  0  0  0  0  0  0  0
  142.1416   81.3721  223.6726 H   0  0  0  0  0  0  0  0  0  0  0  0
  143.5045   78.9918  222.4398 H   0  0  0  0  0  0  0  0  0  0  0  0
  141.1413   80.7770  221.8360 H   0  0  0  0  0  0  0  0  0  0  0  0
  142.6633   80.5051  220.9048 H   0  0  0  0  0  0  0  0  0  0  0  0
  140.7539   79.3726  219.8232 H   0  0  0  0  0  0  0  0  0  0  0  0
  141.9593   78.1801  220.4399 H   0  0  0  0  0  0  0  0  0  0  0  0
  139.1928   78.8205  221.3444 H   0  0  0  0  0  0  0  0  0  0  0  0
  138.6375   76.3894  219.4470 H   0  0  0  0  0  0  0  0  0  0  0  0
  139.9349   77.5827  219.1733 H   0  0  0  0  0  0  0  0  0  0  0  0
  140.1598   74.9011  218.5227 H   0  0  0  0  0  0  0  0  0  0  0  0
  141.5614   75.8973  218.8858 H   0  0  0  0  0  0  0  0  0  0  0  0
  139.0937   73.7964  221.6160 H   0  0  0  0  0  0  0  0  0  0  0  0
  139.1074   73.5012  219.8695 H   0  0  0  0  0  0  0  0  0  0  0  0
  140.9994   73.0344  223.7179 H   0  0  0  0  0  0  0  0  0  0  0  0
  141.5170   72.9295  226.5504 H   0  0  0  0  0  0  0  0  0  0  0  0
  141.3996   71.3899  228.5419 H   0  0  0  0  0  0  0  0  0  0  0  0
  139.8272   68.2153  226.0075 H   0  0  0  0  0  0  0  0  0  0  0  0
  139.5690   68.9870  223.3930 H   0  0  0  0  0  0  0  0  0  0  0  0
  142.7839   70.6945  221.1686 H   0  0  0  0  0  0  0  0  0  0  0  0
  145.1303   71.5655  220.9330 H   0  0  0  0  0  0  0  0  0  0  0  0
  145.5257   74.0038  220.5232 H   0  0  0  0  0  0  0  0  0  0  0  0
  143.5785   75.5788  220.3280 H   0  0  0  0  0  0  0  0  0  0  0  0
  140.2657   75.3603  222.5992 H   0  0  0  0  0  0  0  0  0  0  0  0
  141.6758   76.2164  221.9413 H   0  0  0  0  0  0  0  0  0  0  0  0
  139.8966   79.2758  223.4673 H   0  0  0  0  0  0  0  0  0  0  0  0
  139.9192   77.4553  223.5675 H   0  0  0  0  0  0  0  0  0  0  0  0
  142.2140   77.4370  223.2290 H   0  0  0  0  0  0  0  0  0  0  0  0
  1  2  1  0
  2  3  1  0
  3  4  1  0
  4  5  1  0
  5  6  1  0
  6  7  1  0
  7  8  1  0
  9  8  1  6
  9 10  1  0
 10 11  1  0
 11 12  1  0
 12 13  2  0
 12 14  1  0
 14 15  2  0
 15 16  1  0
 16 17  2  0
 17 18  1  0
 18 19  2  0
 19 20  1  0
 19 21  1  0
 21 22  2  0
 22 23  1  0
 11 24  1  0
 24 25  2  0
 25 26  1  0
 26 27  2  0
 27 28  1  0
 28 29  2  0
  9 30  1  0
  5 31  1  0
 31 32  1  0
 32  2  1  0
 30  6  1  0
 29  9  1  0
 23 14  1  0
 29 24  1  0
 22 16  1  0
  1 33  1  0
  1 34  1  0
  1 35  1  0
  2 36  1  6
  3 37  1  0
  3 38  1  0
  4 39  1  0
  4 40  1  0
  5 41  1  1
  7 42  1  0
  7 43  1  0
  8 44  1  0
  8 45  1  0
 10 46  1  0
 10 47  1  0
 15 48  1  0
 17 49  1  0
 18 50  1  0
 21 51  1  0
 23 52  1  0
 25 53  1  0
 26 54  1  0
 27 55  1  0
 28 56  1  0
 30 57  1  0
 30 58  1  0
 31 59  1  0
 31 60  1  0
 32 61  1  0
M  END
>  <UniqueID>  (13) 
92

>  <SMILES>  (13) 
C[C@@H]1CC[C@@H](N2CC[C@]3(CN(C(=O)c4cc5ccc(F)cc5[nH]4)c4ccccc43)C2)CN1

>  <Energy>  (13) 
132.7403277397057

>  <Genealogy>  (13) 
C[C@@H]1CC[C@@H](N2CC[C@]3(CN(C(=O)c4cc5ccc(F)cc5[nH]4)c4ccccc43)C2)CN1 (chirality)
C[C@@H]1CC[C@@H](N2CC[C@]3(CN(C(=O)c4cc5ccc(F)cc5[nH]4)c4ccccc43)C2)CN1 (3D coordinates assigned)
C[C@@H]1CC[C@@H](N2CC[C@]3(CN(C(=O)c4cc5ccc(F)cc5[nH]4)c4ccccc43)C2)CN1 (nonaromatic ring conformer: 132.7403277397057 kcal/mol)

>  <smiles>  (13) 
C[C@@H]1CCC(N2CC[C@]3(CN(C(=O)c4cc5ccc(F)cc5[nH]4)c4ccccc43)C2)CN1

>  <score_type>  (13) 
oracle

>  <origin>  (13) 
autodockgpu

>  <m_score__min__energy>  (13) 
-9.3300000000000001

>  <m_primary>  (13) 
energy

>  <meeko>  (13) 
{"free_energy": -9.32, "intermolecular_energy": -10.22, "internal_energy": -1.55, "cluster_size": 19, "cluster_id": 1, "rank_in_cluster": 8}

>  <energy>  (13) 
-9.31

>  <cluster_rmsd>  (13) 
0.2

>  <rmsd>  (13) 
270.75

>  <cluster>  (13) 
1

$$$$
MYPHZBOANNRFAS-AGTLBBOYNA-N
     RDKit          3D

 61 66  0  0  0  0  0  0  0  0999 V2000
  142.8720   80.4980  223.7350 C   0  0  0  0  0  0  0  0  0  0  0  0
  142.5430   79.3950  222.7270 C   0  0  2  0  0  0  0  0  0  0  0  0
  141.8430   79.9860  221.4800 C   0  0  0  0  0  0  0  0  0  0  0  0
  141.1240   78.8890  220.6970 C   0  0  0  0  0  0  0  0  0  0  0  0
  140.0320   78.2180  221.5760 C   0  0  1  0  0  0  0  0  0  0  0  0
  139.6970   76.8240  221.1840 N   0  0  0  0  0  0  0  0  0  0  0  0
  139.5380   76.6270  219.7320 C   0  0  0  0  0  0  0  0  0  0  0  0
  140.4530   75.4860  219.3150 C   0  0  0  0  0  0  0  0  0  0  0  0
  140.6700   74.6970  220.6010 C   0  0  1  0  0  0  0  0  0  0  0  0
  139.6020   73.5650  220.8000 C   0  0  0  0  0  0  0  0  0  0  0  0
  140.3590   72.3290  221.0200 N   0  0  0  0  0  0  0  0  0  0  0  0
  139.8240   71.1950  221.7220 C   0  0  0  0  0  0  0  0  0  0  0  0
  139.2090   70.2980  221.0850 O   0  0  0  0  0  0  0  0  0  0  0  0
  140.0070   71.0500  223.1730 C   0  0  0  0  0  0  0  0  0  0  0  0
  140.6890   71.9570  223.9820 C   0  0  0  0  0  0  0  0  0  0  0  0
  140.6400   71.4120  225.2450 C   0  0  0  0  0  0  0  0  0  0  0  0
  141.1530   71.8800  226.4520 C   0  0  0  0  0  0  0  0  0  0  0  0
  140.9560   71.0890  227.5980 C   0  0  0  0  0  0  0  0  0  0  0  0
  140.2630   69.8620  227.5100 C   0  0  0  0  0  0  0  0  0  0  0  0
  140.0810   69.1080  228.6240 F   0  0  0  0  0  0  0  0  0  0  0  0
  139.7570   69.4160  226.2750 C   0  0  0  0  0  0  0  0  0  0  0  0
  139.9620   70.2250  225.1580 C   0  0  0  0  0  0  0  0  0  0  0  0
  139.5680   69.9900  223.8960 N   0  0  0  0  0  0  0  0  0  0  0  0
  141.7440   72.6160  220.8840 C   0  0  0  0  0  0  0  0  0  0  0  0
  142.8000   71.7000  220.9640 C   0  0  0  0  0  0  0  0  0  0  0  0
  144.1110   72.1720  220.7960 C   0  0  0  0  0  0  0  0  0  0  0  0
  144.3450   73.5370  220.5480 C   0  0  0  0  0  0  0  0  0  0  0  0
  143.2690   74.4340  220.4610 C   0  0  0  0  0  0  0  0  0  0  0  0
  141.9680   73.9420  220.6250 C   0  0  0  0  0  0  0  0  0  0  0  0
  140.5920   75.7700  221.6920 C   0  0  0  0  0  0  0  0  0  0  0  0
  140.3310   78.3280  223.0960 C   0  0  0  0  0  0  0  0  0  0  0  0
  141.7700   78.3310  223.4030 N   0  0  0  0  0  0  0  0  0  0  0  0
  142.7555   80.1076  224.7568 H   0  0  0  0  0  0  0  0  0  0  0  0
  143.9092   80.8330  223.5865 H   0  0  0  0  0  0  0  0  0  0  0  0
  142.1878   81.3464  223.5865 H   0  0  0  0  0  0  0  0  0  0  0  0
  143.4659   78.9296  222.3505 H   0  0  0  0  0  0  0  0  0  0  0  0
  141.1101   80.7410  221.8006 H   0  0  0  0  0  0  0  0  0  0  0  0
  142.6030   80.4453  220.8308 H   0  0  0  0  0  0  0  0  0  0  0  0
  140.6515   79.3301  219.8070 H   0  0  0  0  0  0  0  0  0  0  0  0
  141.8581   78.1262  220.3984 H   0  0  0  0  0  0  0  0  0  0  0  0
  139.1254   78.8072  221.3738 H   0  0  0  0  0  0  0  0  0  0  0  0
  138.4931   76.3723  219.5011 H   0  0  0  0  0  0  0  0  0  0  0  0
  139.7988   77.5471  219.1885 H   0  0  0  0  0  0  0  0  0  0  0  0
  139.9726   74.8599  218.5487 H   0  0  0  0  0  0  0  0  0  0  0  0
  141.3955   75.8400  218.8719 H   0  0  0  0  0  0  0  0  0  0  0  0
  138.9690   73.7858  221.6721 H   0  0  0  0  0  0  0  0  0  0  0  0
  138.9374   73.4804  219.9276 H   0  0  0  0  0  0  0  0  0  0  0  0
  141.1629   72.9019  223.6777 H   0  0  0  0  0  0  0  0  0  0  0  0
  141.6941   72.8361  226.5072 H   0  0  0  0  0  0  0  0  0  0  0  0
  141.3444   71.4285  228.5695 H   0  0  0  0  0  0  0  0  0  0  0  0
  139.2176   68.4608  226.1935 H   0  0  0  0  0  0  0  0  0  0  0  0
  139.0610   69.1480  223.5470 H   0  0  0  0  0  0  0  0  0  0  0  0
  142.6064   70.6340  221.1543 H   0  0  0  0  0  0  0  0  0  0  0  0
  144.9579   71.4728  220.8584 H   0  0  0  0  0  0  0  0  0  0  0  0
  145.3748   73.9025  220.4219 H   0  0  0  0  0  0  0  0  0  0  0  0
  143.4441   75.5026  220.2678 H   0  0  0  0  0  0  0  0  0  0  0  0
  140.1840   75.3399  222.6186 H   0  0  0  0  0  0  0  0  0  0  0  0
  141.5889   76.1738  221.9226 H   0  0  0  0  0  0  0  0  0  0  0  0
  139.8909   79.2632  223.4725 H   0  0  0  0  0  0  0  0  0  0  0  0
  139.8943   77.4425  223.5809 H   0  0  0  0  0  0  0  0  0  0  0  0
  142.1780   77.3950  223.1830 H   0  0  0  0  0  0  0  0  0  0  0  0
  1  2  1  0
  2  3  1  0
  3  4  1  0
  4  5  1  0
  5  6  1  0
  6  7  1  0
  7  8  1  0
  9  8  1  6
  9 10  1  0
 10 11  1  0
 11 12  1  0
 12 13  2  0
 12 14  1  0
 14 15  2  0
 15 16  1  0
 16 17  2  0
 17 18  1  0
 18 19  2  0
 19 20  1  0
 19 21  1  0
 21 22  2  0
 22 23  1  0
 11 24  1  0
 24 25  2  0
 25 26  1  0
 26 27  2  0
 27 28  1  0
 28 29  2  0
  9 30  1  0
  5 31  1  0
 31 32  1  0
 32  2  1  0
 30  6  1  0
 29  9  1  0
 23 14  1  0
 29 24  1  0
 22 16  1  0
  1 33  1  0
  1 34  1  0
  1 35  1  0
  2 36  1  6
  3 37  1  0
  3 38  1  0
  4 39  1  0
  4 40  1  0
  5 41  1  1
  7 42  1  0
  7 43  1  0
  8 44  1  0
  8 45  1  0
 10 46  1  0
 10 47  1  0
 15 48  1  0
 17 49  1  0
 18 50  1  0
 21 51  1  0
 23 52  1  0
 25 53  1  0
 26 54  1  0
 27 55  1  0
 28 56  1  0
 30 57  1  0
 30 58  1  0
 31 59  1  0
 31 60  1  0
 32 61  1  0
M  END
>  <UniqueID>  (14) 
92

>  <SMILES>  (14) 
C[C@@H]1CC[C@@H](N2CC[C@]3(CN(C(=O)c4cc5ccc(F)cc5[nH]4)c4ccccc43)C2)CN1

>  <Energy>  (14) 
132.7403277397057

>  <Genealogy>  (14) 
C[C@@H]1CC[C@@H](N2CC[C@]3(CN(C(=O)c4cc5ccc(F)cc5[nH]4)c4ccccc43)C2)CN1 (chirality)
C[C@@H]1CC[C@@H](N2CC[C@]3(CN(C(=O)c4cc5ccc(F)cc5[nH]4)c4ccccc43)C2)CN1 (3D coordinates assigned)
C[C@@H]1CC[C@@H](N2CC[C@]3(CN(C(=O)c4cc5ccc(F)cc5[nH]4)c4ccccc43)C2)CN1 (nonaromatic ring conformer: 132.7403277397057 kcal/mol)

>  <smiles>  (14) 
C[C@@H]1CCC(N2CC[C@]3(CN(C(=O)c4cc5ccc(F)cc5[nH]4)c4ccccc43)C2)CN1

>  <score_type>  (14) 
oracle

>  <origin>  (14) 
autodockgpu

>  <m_score__min__energy>  (14) 
-9.3300000000000001

>  <m_primary>  (14) 
energy

>  <meeko>  (14) 
{"free_energy": -9.31, "intermolecular_energy": -10.21, "internal_energy": -1.55, "cluster_size": 19, "cluster_id": 1, "rank_in_cluster": 16}

>  <energy>  (14) 
-9.31

>  <cluster_rmsd>  (14) 
0.06

>  <rmsd>  (14) 
270.79

>  <cluster>  (14) 
1

$$$$
MYPHZBOANNRFAS-AGTLBBOYNA-N
     RDKit          3D

 61 66  0  0  0  0  0  0  0  0999 V2000
  142.8220   80.5150  223.7650 C   0  0  0  0  0  0  0  0  0  0  0  0
  142.5250   79.3990  222.7620 C   0  0  2  0  0  0  0  0  0  0  0  0
  141.8300   79.9690  221.5020 C   0  0  0  0  0  0  0  0  0  0  0  0
  141.1400   78.8540  220.7170 C   0  0  0  0  0  0  0  0  0  0  0  0
  140.0500   78.1700  221.5870 C   0  0  1  0  0  0  0  0  0  0  0  0
  139.7440   76.7670  221.2020 N   0  0  0  0  0  0  0  0  0  0  0  0
  139.5820   76.5630  219.7510 C   0  0  0  0  0  0  0  0  0  0  0  0
  140.5210   75.4410  219.3320 C   0  0  0  0  0  0  0  0  0  0  0  0
  140.7610   74.6620  220.6200 C   0  0  1  0  0  0  0  0  0  0  0  0
  139.7190   73.5070  220.8280 C   0  0  0  0  0  0  0  0  0  0  0  0
  140.5060   72.2880  221.0470 N   0  0  0  0  0  0  0  0  0  0  0  0
  139.9990   71.1450  221.7550 C   0  0  0  0  0  0  0  0  0  0  0  0
  139.4190   70.2230  221.1210 O   0  0  0  0  0  0  0  0  0  0  0  0
  140.1710   71.0190  223.2090 C   0  0  0  0  0  0  0  0  0  0  0  0
  140.6840   72.0170  224.0360 C   0  0  0  0  0  0  0  0  0  0  0  0
  140.6960   71.4610  225.2960 C   0  0  0  0  0  0  0  0  0  0  0  0
  141.1020   71.9950  226.5160 C   0  0  0  0  0  0  0  0  0  0  0  0
  141.0080   71.1740  227.6540 C   0  0  0  0  0  0  0  0  0  0  0  0
  140.5210   69.8530  227.5460 C   0  0  0  0  0  0  0  0  0  0  0  0
  140.4370   69.0720  228.6520 F   0  0  0  0  0  0  0  0  0  0  0  0
  140.1180   69.3430  226.2980 C   0  0  0  0  0  0  0  0  0  0  0  0
  140.2160   70.1830  225.1890 C   0  0  0  0  0  0  0  0  0  0  0  0
  139.8910   69.8970  223.9170 N   0  0  0  0  0  0  0  0  0  0  0  0
  141.8830   72.6050  220.9040 C   0  0  0  0  0  0  0  0  0  0  0  0
  142.9590   71.7140  220.9810 C   0  0  0  0  0  0  0  0  0  0  0  0
  144.2580   72.2150  220.8050 C   0  0  0  0  0  0  0  0  0  0  0  0
  144.4610   73.5840  220.5520 C   0  0  0  0  0  0  0  0  0  0  0  0
  143.3650   74.4560  220.4680 C   0  0  0  0  0  0  0  0  0  0  0  0
  142.0750   73.9350  220.6400 C   0  0  0  0  0  0  0  0  0  0  0  0
  140.6650   75.7350  221.7080 C   0  0  0  0  0  0  0  0  0  0  0  0
  140.3270   78.2950  223.1110 C   0  0  0  0  0  0  0  0  0  0  0  0
  141.7630   78.3250  223.4350 N   0  0  0  0  0  0  0  0  0  0  0  0
  142.7183   80.1253  224.7884 H   0  0  0  0  0  0  0  0  0  0  0  0
  143.8486   80.8801  223.6139 H   0  0  0  0  0  0  0  0  0  0  0  0
  142.1127   81.3421  223.6139 H   0  0  0  0  0  0  0  0  0  0  0  0
  143.4609   78.9473  222.4014 H   0  0  0  0  0  0  0  0  0  0  0  0
  141.0799   80.7129  221.8083 H   0  0  0  0  0  0  0  0  0  0  0  0
  142.5900   80.4371  220.8591 H   0  0  0  0  0  0  0  0  0  0  0  0
  140.6707   79.2810  219.8184 H   0  0  0  0  0  0  0  0  0  0  0  0
  141.8910   78.1024  220.4320 H   0  0  0  0  0  0  0  0  0  0  0  0
  139.1368   78.7429  221.3681 H   0  0  0  0  0  0  0  0  0  0  0  0
  138.5419   76.2844  219.5260 H   0  0  0  0  0  0  0  0  0  0  0  0
  139.8191   77.4874  219.2039 H   0  0  0  0  0  0  0  0  0  0  0  0
  140.0511   74.8018  218.5700 H   0  0  0  0  0  0  0  0  0  0  0  0
  141.4531   75.8141  218.8825 H   0  0  0  0  0  0  0  0  0  0  0  0
  139.0862   73.7160  221.7032 H   0  0  0  0  0  0  0  0  0  0  0  0
  139.0511   73.4053  219.9599 H   0  0  0  0  0  0  0  0  0  0  0  0
  141.0082   73.0273  223.7458 H   0  0  0  0  0  0  0  0  0  0  0  0
  141.4834   73.0243  226.5874 H   0  0  0  0  0  0  0  0  0  0  0  0
  141.3161   71.5638  228.6354 H   0  0  0  0  0  0  0  0  0  0  0  0
  139.7381   68.3153  226.2003 H   0  0  0  0  0  0  0  0  0  0  0  0
  139.5320   68.9890  223.5540 H   0  0  0  0  0  0  0  0  0  0  0  0
  142.7905   70.6445  221.1752 H   0  0  0  0  0  0  0  0  0  0  0  0
  145.1205   71.5350  220.8650 H   0  0  0  0  0  0  0  0  0  0  0  0
  145.4818   73.9718  220.4197 H   0  0  0  0  0  0  0  0  0  0  0  0
  143.5151   75.5278  220.2710 H   0  0  0  0  0  0  0  0  0  0  0  0
  140.2716   75.2984  222.6379 H   0  0  0  0  0  0  0  0  0  0  0  0
  141.6537   76.1616  221.9324 H   0  0  0  0  0  0  0  0  0  0  0  0
  139.8660   79.2247  223.4758 H   0  0  0  0  0  0  0  0  0  0  0  0
  139.8989   77.4058  223.5969 H   0  0  0  0  0  0  0  0  0  0  0  0
  142.1900   77.3950  223.2270 H   0  0  0  0  0  0  0  0  0  0  0  0
  1  2  1  0
  2  3  1  0
  3  4  1  0
  4  5  1  0
  5  6  1  0
  6  7  1  0
  7  8  1  0
  9  8  1  6
  9 10  1  0
 10 11  1  0
 11 12  1  0
 12 13  2  0
 12 14  1  0
 14 15  2  0
 15 16  1  0
 16 17  2  0
 17 18  1  0
 18 19  2  0
 19 20  1  0
 19 21  1  0
 21 22  2  0
 22 23  1  0
 11 24  1  0
 24 25  2  0
 25 26  1  0
 26 27  2  0
 27 28  1  0
 28 29  2  0
  9 30  1  0
  5 31  1  0
 31 32  1  0
 32  2  1  0
 30  6  1  0
 29  9  1  0
 23 14  1  0
 29 24  1  0
 22 16  1  0
  1 33  1  0
  1 34  1  0
  1 35  1  0
  2 36  1  6
  3 37  1  0
  3 38  1  0
  4 39  1  0
  4 40  1  0
  5 41  1  1
  7 42  1  0
  7 43  1  0
  8 44  1  0
  8 45  1  0
 10 46  1  0
 10 47  1  0
 15 48  1  0
 17 49  1  0
 18 50  1  0
 21 51  1  0
 23 52  1  0
 25 53  1  0
 26 54  1  0
 27 55  1  0
 28 56  1  0
 30 57  1  0
 30 58  1  0
 31 59  1  0
 31 60  1  0
 32 61  1  0
M  END
>  <UniqueID>  (15) 
92

>  <SMILES>  (15) 
C[C@@H]1CC[C@@H](N2CC[C@]3(CN(C(=O)c4cc5ccc(F)cc5[nH]4)c4ccccc43)C2)CN1

>  <Energy>  (15) 
132.7403277397057

>  <Genealogy>  (15) 
C[C@@H]1CC[C@@H](N2CC[C@]3(CN(C(=O)c4cc5ccc(F)cc5[nH]4)c4ccccc43)C2)CN1 (chirality)
C[C@@H]1CC[C@@H](N2CC[C@]3(CN(C(=O)c4cc5ccc(F)cc5[nH]4)c4ccccc43)C2)CN1 (3D coordinates assigned)
C[C@@H]1CC[C@@H](N2CC[C@]3(CN(C(=O)c4cc5ccc(F)cc5[nH]4)c4ccccc43)C2)CN1 (nonaromatic ring conformer: 132.7403277397057 kcal/mol)

>  <smiles>  (15) 
C[C@@H]1CCC(N2CC[C@]3(CN(C(=O)c4cc5ccc(F)cc5[nH]4)c4ccccc43)C2)CN1

>  <score_type>  (15) 
oracle

>  <origin>  (15) 
autodockgpu

>  <m_score__min__energy>  (15) 
-9.3300000000000001

>  <m_primary>  (15) 
energy

>  <meeko>  (15) 
{"free_energy": -9.32, "intermolecular_energy": -10.22, "internal_energy": -1.55, "cluster_size": 19, "cluster_id": 1, "rank_in_cluster": 6}

>  <energy>  (15) 
-9.31

>  <cluster_rmsd>  (15) 
0.13

>  <rmsd>  (15) 
270.8

>  <cluster>  (15) 
1

$$$$
MYPHZBOANNRFAS-AGTLBBOYNA-N
     RDKit          3D

 61 66  0  0  0  0  0  0  0  0999 V2000
  142.9120   80.5280  223.7420 C   0  0  0  0  0  0  0  0  0  0  0  0
  142.5860   79.4250  222.7320 C   0  0  2  0  0  0  0  0  0  0  0  0
  141.8930   80.0180  221.4820 C   0  0  0  0  0  0  0  0  0  0  0  0
  141.1760   78.9220  220.6950 C   0  0  0  0  0  0  0  0  0  0  0  0
  140.0790   78.2520  221.5680 C   0  0  1  0  0  0  0  0  0  0  0  0
  139.7430   76.8590  221.1750 N   0  0  0  0  0  0  0  0  0  0  0  0
  139.5950   76.6620  219.7220 C   0  0  0  0  0  0  0  0  0  0  0  0
  140.5110   75.5180  219.3120 C   0  0  0  0  0  0  0  0  0  0  0  0
  140.7150   74.7300  220.6010 C   0  0  1  0  0  0  0  0  0  0  0  0
  139.6420   73.6010  220.7920 C   0  0  0  0  0  0  0  0  0  0  0  0
  140.3950   72.3620  221.0190 N   0  0  0  0  0  0  0  0  0  0  0  0
  139.8510   71.2300  221.7170 C   0  0  0  0  0  0  0  0  0  0  0  0
  139.2140   70.3490  221.0800 O   0  0  0  0  0  0  0  0  0  0  0  0
  140.0500   71.0690  223.1640 C   0  0  0  0  0  0  0  0  0  0  0  0
  140.6710   72.0050  223.9890 C   0  0  0  0  0  0  0  0  0  0  0  0
  140.6660   71.4320  225.2410 C   0  0  0  0  0  0  0  0  0  0  0  0
  141.1510   71.9100  226.4560 C   0  0  0  0  0  0  0  0  0  0  0  0
  141.0150   71.0830  227.5860 C   0  0  0  0  0  0  0  0  0  0  0  0
  140.4090   69.8120  227.4750 C   0  0  0  0  0  0  0  0  0  0  0  0
  140.2860   69.0250  228.5730 F   0  0  0  0  0  0  0  0  0  0  0  0
  139.9300   69.3580  226.2320 C   0  0  0  0  0  0  0  0  0  0  0  0
  140.0720   70.2020  225.1310 C   0  0  0  0  0  0  0  0  0  0  0  0
  139.6900   69.9650  223.8660 N   0  0  0  0  0  0  0  0  0  0  0  0
  141.7810   72.6450  220.8940 C   0  0  0  0  0  0  0  0  0  0  0  0
  142.8340   71.7270  220.9820 C   0  0  0  0  0  0  0  0  0  0  0  0
  144.1470   72.1960  220.8240 C   0  0  0  0  0  0  0  0  0  0  0  0
  144.3870   73.5600  220.5770 C   0  0  0  0  0  0  0  0  0  0  0  0
  143.3140   74.4600  220.4810 C   0  0  0  0  0  0  0  0  0  0  0  0
  142.0100   73.9710  220.6360 C   0  0  0  0  0  0  0  0  0  0  0  0
  140.6310   75.8030  221.6900 C   0  0  0  0  0  0  0  0  0  0  0  0
  140.3700   78.3610  223.0900 C   0  0  0  0  0  0  0  0  0  0  0  0
  141.8080   78.3620  223.4040 N   0  0  0  0  0  0  0  0  0  0  0  0
  142.7961   80.1360  224.7632 H   0  0  0  0  0  0  0  0  0  0  0  0
  143.9484   80.8658  223.5943 H   0  0  0  0  0  0  0  0  0  0  0  0
  142.2258   81.3749  223.5943 H   0  0  0  0  0  0  0  0  0  0  0  0
  143.5097   78.9577  222.3600 H   0  0  0  0  0  0  0  0  0  0  0  0
  141.1597   80.7740  221.7994 H   0  0  0  0  0  0  0  0  0  0  0  0
  142.6567   80.4767  220.8367 H   0  0  0  0  0  0  0  0  0  0  0  0
  140.7084   79.3642  219.8029 H   0  0  0  0  0  0  0  0  0  0  0  0
  141.9106   78.1583  220.3999 H   0  0  0  0  0  0  0  0  0  0  0  0
  139.1749   78.8430  221.3600 H   0  0  0  0  0  0  0  0  0  0  0  0
  138.5513   76.4098  219.4830 H   0  0  0  0  0  0  0  0  0  0  0  0
  139.8624   77.5813  219.1804 H   0  0  0  0  0  0  0  0  0  0  0  0
  140.0352   74.8925  218.5423 H   0  0  0  0  0  0  0  0  0  0  0  0
  141.4578   75.8688  218.8755 H   0  0  0  0  0  0  0  0  0  0  0  0
  139.0026   73.8240  221.6589 H   0  0  0  0  0  0  0  0  0  0  0  0
  138.9840   73.5177  219.9145 H   0  0  0  0  0  0  0  0  0  0  0  0
  141.0764   72.9866  223.7026 H   0  0  0  0  0  0  0  0  0  0  0  0
  141.6242   72.9003  226.5295 H   0  0  0  0  0  0  0  0  0  0  0  0
  141.3833   71.4288  228.5631 H   0  0  0  0  0  0  0  0  0  0  0  0
  139.4587   68.3691  226.1321 H   0  0  0  0  0  0  0  0  0  0  0  0
  139.2420   69.0980  223.5020 H   0  0  0  0  0  0  0  0  0  0  0  0
  142.6366   70.6615  221.1708 H   0  0  0  0  0  0  0  0  0  0  0  0
  144.9916   71.4947  220.8935 H   0  0  0  0  0  0  0  0  0  0  0  0
  145.4188   73.9225  220.4587 H   0  0  0  0  0  0  0  0  0  0  0  0
  143.4933   75.5280  220.2879 H   0  0  0  0  0  0  0  0  0  0  0  0
  140.2146   75.3743  222.6135 H   0  0  0  0  0  0  0  0  0  0  0  0
  141.6271   76.2045  221.9280 H   0  0  0  0  0  0  0  0  0  0  0  0
  139.9291   79.2966  223.4646 H   0  0  0  0  0  0  0  0  0  0  0  0
  139.9294   77.4761  223.5725 H   0  0  0  0  0  0  0  0  0  0  0  0
  142.2160   77.4250  223.1860 H   0  0  0  0  0  0  0  0  0  0  0  0
  1  2  1  0
  2  3  1  0
  3  4  1  0
  4  5  1  0
  5  6  1  0
  6  7  1  0
  7  8  1  0
  9  8  1  6
  9 10  1  0
 10 11  1  0
 11 12  1  0
 12 13  2  0
 12 14  1  0
 14 15  2  0
 15 16  1  0
 16 17  2  0
 17 18  1  0
 18 19  2  0
 19 20  1  0
 19 21  1  0
 21 22  2  0
 22 23  1  0
 11 24  1  0
 24 25  2  0
 25 26  1  0
 26 27  2  0
 27 28  1  0
 28 29  2  0
  9 30  1  0
  5 31  1  0
 31 32  1  0
 32  2  1  0
 30  6  1  0
 29  9  1  0
 23 14  1  0
 29 24  1  0
 22 16  1  0
  1 33  1  0
  1 34  1  0
  1 35  1  0
  2 36  1  6
  3 37  1  0
  3 38  1  0
  4 39  1  0
  4 40  1  0
  5 41  1  1
  7 42  1  0
  7 43  1  0
  8 44  1  0
  8 45  1  0
 10 46  1  0
 10 47  1  0
 15 48  1  0
 17 49  1  0
 18 50  1  0
 21 51  1  0
 23 52  1  0
 25 53  1  0
 26 54  1  0
 27 55  1  0
 28 56  1  0
 30 57  1  0
 30 58  1  0
 31 59  1  0
 31 60  1  0
 32 61  1  0
M  END
>  <UniqueID>  (16) 
92

>  <SMILES>  (16) 
C[C@@H]1CC[C@@H](N2CC[C@]3(CN(C(=O)c4cc5ccc(F)cc5[nH]4)c4ccccc43)C2)CN1

>  <Energy>  (16) 
132.7403277397057

>  <Genealogy>  (16) 
C[C@@H]1CC[C@@H](N2CC[C@]3(CN(C(=O)c4cc5ccc(F)cc5[nH]4)c4ccccc43)C2)CN1 (chirality)
C[C@@H]1CC[C@@H](N2CC[C@]3(CN(C(=O)c4cc5ccc(F)cc5[nH]4)c4ccccc43)C2)CN1 (3D coordinates assigned)
C[C@@H]1CC[C@@H](N2CC[C@]3(CN(C(=O)c4cc5ccc(F)cc5[nH]4)c4ccccc43)C2)CN1 (nonaromatic ring conformer: 132.7403277397057 kcal/mol)

>  <smiles>  (16) 
C[C@@H]1CCC(N2CC[C@]3(CN(C(=O)c4cc5ccc(F)cc5[nH]4)c4ccccc43)C2)CN1

>  <score_type>  (16) 
oracle

>  <origin>  (16) 
autodockgpu

>  <m_score__min__energy>  (16) 
-9.3300000000000001

>  <m_primary>  (16) 
energy

>  <meeko>  (16) 
{"free_energy": -9.31, "intermolecular_energy": -10.2, "internal_energy": -1.55, "cluster_size": 19, "cluster_id": 1, "rank_in_cluster": 17}

>  <energy>  (16) 
-9.31

>  <cluster_rmsd>  (16) 
0.24

>  <rmsd>  (16) 
270.72

>  <cluster>  (16) 
1

$$$$
MYPHZBOANNRFAS-AGTLBBOYNA-N
     RDKit          3D

 61 66  0  0  0  0  0  0  0  0999 V2000
  142.8330   80.5560  223.7510 C   0  0  0  0  0  0  0  0  0  0  0  0
  142.5330   79.4500  222.7390 C   0  0  2  0  0  0  0  0  0  0  0  0
  141.8230   80.0290  221.4920 C   0  0  0  0  0  0  0  0  0  0  0  0
  141.1320   78.9190  220.7020 C   0  0  0  0  0  0  0  0  0  0  0  0
  140.0530   78.2190  221.5750 C   0  0  1  0  0  0  0  0  0  0  0  0
  139.7510   76.8190  221.1770 N   0  0  0  0  0  0  0  0  0  0  0  0
  139.6060   76.6230  219.7240 C   0  0  0  0  0  0  0  0  0  0  0  0
  140.5490   75.5040  219.3090 C   0  0  0  0  0  0  0  0  0  0  0  0
  140.7740   74.7170  220.5950 C   0  0  1  0  0  0  0  0  0  0  0  0
  139.7290   73.5610  220.7840 C   0  0  0  0  0  0  0  0  0  0  0  0
  140.5120   72.3400  221.0050 N   0  0  0  0  0  0  0  0  0  0  0  0
  139.9970   71.1930  221.7000 C   0  0  0  0  0  0  0  0  0  0  0  0
  139.4170   70.2790  221.0550 O   0  0  0  0  0  0  0  0  0  0  0  0
  140.1610   71.0540  223.1540 C   0  0  0  0  0  0  0  0  0  0  0  0
  140.6990   72.0320  223.9890 C   0  0  0  0  0  0  0  0  0  0  0  0
  140.6910   71.4690  225.2450 C   0  0  0  0  0  0  0  0  0  0  0  0
  141.1080   71.9850  226.4700 C   0  0  0  0  0  0  0  0  0  0  0  0
  140.9880   71.1600  227.6020 C   0  0  0  0  0  0  0  0  0  0  0  0
  140.4640   69.8540  227.4850 C   0  0  0  0  0  0  0  0  0  0  0  0
  140.3550   69.0690  228.5860 F   0  0  0  0  0  0  0  0  0  0  0  0
  140.0520   69.3620  226.2330 C   0  0  0  0  0  0  0  0  0  0  0  0
  140.1760   70.2050  225.1290 C   0  0  0  0  0  0  0  0  0  0  0  0
  139.8470   69.9370  223.8550 N   0  0  0  0  0  0  0  0  0  0  0  0
  141.8910   72.6580  220.8790 C   0  0  0  0  0  0  0  0  0  0  0  0
  142.9660   71.7650  220.9640 C   0  0  0  0  0  0  0  0  0  0  0  0
  144.2670   72.2670  220.8050 C   0  0  0  0  0  0  0  0  0  0  0  0
  144.4730   73.6370  220.5630 C   0  0  0  0  0  0  0  0  0  0  0  0
  143.3790   74.5110  220.4710 C   0  0  0  0  0  0  0  0  0  0  0  0
  142.0870   73.9900  220.6250 C   0  0  0  0  0  0  0  0  0  0  0  0
  140.6650   75.7840  221.6880 C   0  0  0  0  0  0  0  0  0  0  0  0
  140.3440   78.3300  223.0970 C   0  0  0  0  0  0  0  0  0  0  0  0
  141.7820   78.3650  223.4080 N   0  0  0  0  0  0  0  0  0  0  0  0
  142.7252   80.1587  224.7711 H   0  0  0  0  0  0  0  0  0  0  0  0
  143.8616   80.9174  223.6050 H   0  0  0  0  0  0  0  0  0  0  0  0
  142.1280   81.3876  223.6050 H   0  0  0  0  0  0  0  0  0  0  0  0
  143.4681   79.0078  222.3648 H   0  0  0  0  0  0  0  0  0  0  0  0
  141.0717   80.7654  221.8133 H   0  0  0  0  0  0  0  0  0  0  0  0
  142.5743   80.5080  220.8470 H   0  0  0  0  0  0  0  0  0  0  0  0
  140.6521   79.3529  219.8124 H   0  0  0  0  0  0  0  0  0  0  0  0
  141.8845   78.1747  220.4024 H   0  0  0  0  0  0  0  0  0  0  0  0
  139.1340   78.7881  221.3713 H   0  0  0  0  0  0  0  0  0  0  0  0
  138.5686   76.3457  219.4856 H   0  0  0  0  0  0  0  0  0  0  0  0
  139.8499   77.5504  219.1851 H   0  0  0  0  0  0  0  0  0  0  0  0
  140.0878   74.8696  218.5378 H   0  0  0  0  0  0  0  0  0  0  0  0
  141.4862   75.8796  218.8725 H   0  0  0  0  0  0  0  0  0  0  0  0
  139.0861   73.7653  221.6529 H   0  0  0  0  0  0  0  0  0  0  0  0
  139.0717   73.4649  219.9073 H   0  0  0  0  0  0  0  0  0  0  0  0
  141.0526   73.0344  223.7060 H   0  0  0  0  0  0  0  0  0  0  0  0
  141.5171   73.0030  226.5488 H   0  0  0  0  0  0  0  0  0  0  0  0
  141.3048   71.5348  228.5865 H   0  0  0  0  0  0  0  0  0  0  0  0
  139.6453   68.3453  226.1283 H   0  0  0  0  0  0  0  0  0  0  0  0
  139.4640   69.0410  223.4850 H   0  0  0  0  0  0  0  0  0  0  0  0
  142.7949   70.6946  221.1511 H   0  0  0  0  0  0  0  0  0  0  0  0
  145.1287   71.5864  220.8699 H   0  0  0  0  0  0  0  0  0  0  0  0
  145.4956   74.0249  220.4454 H   0  0  0  0  0  0  0  0  0  0  0  0
  143.5324   75.5837  220.2818 H   0  0  0  0  0  0  0  0  0  0  0  0
  140.2601   75.3422  222.6104 H   0  0  0  0  0  0  0  0  0  0  0  0
  141.6511   76.2089  221.9268 H   0  0  0  0  0  0  0  0  0  0  0  0
  139.8812   79.2533  223.4756 H   0  0  0  0  0  0  0  0  0  0  0  0
  139.9259   77.4332  223.5775 H   0  0  0  0  0  0  0  0  0  0  0  0
  142.2120   77.4390  223.1860 H   0  0  0  0  0  0  0  0  0  0  0  0
  1  2  1  0
  2  3  1  0
  3  4  1  0
  4  5  1  0
  5  6  1  0
  6  7  1  0
  7  8  1  0
  9  8  1  6
  9 10  1  0
 10 11  1  0
 11 12  1  0
 12 13  2  0
 12 14  1  0
 14 15  2  0
 15 16  1  0
 16 17  2  0
 17 18  1  0
 18 19  2  0
 19 20  1  0
 19 21  1  0
 21 22  2  0
 22 23  1  0
 11 24  1  0
 24 25  2  0
 25 26  1  0
 26 27  2  0
 27 28  1  0
 28 29  2  0
  9 30  1  0
  5 31  1  0
 31 32  1  0
 32  2  1  0
 30  6  1  0
 29  9  1  0
 23 14  1  0
 29 24  1  0
 22 16  1  0
  1 33  1  0
  1 34  1  0
  1 35  1  0
  2 36  1  6
  3 37  1  0
  3 38  1  0
  4 39  1  0
  4 40  1  0
  5 41  1  1
  7 42  1  0
  7 43  1  0
  8 44  1  0
  8 45  1  0
 10 46  1  0
 10 47  1  0
 15 48  1  0
 17 49  1  0
 18 50  1  0
 21 51  1  0
 23 52  1  0
 25 53  1  0
 26 54  1  0
 27 55  1  0
 28 56  1  0
 30 57  1  0
 30 58  1  0
 31 59  1  0
 31 60  1  0
 32 61  1  0
M  END
>  <UniqueID>  (17) 
92

>  <SMILES>  (17) 
C[C@@H]1CC[C@@H](N2CC[C@]3(CN(C(=O)c4cc5ccc(F)cc5[nH]4)c4ccccc43)C2)CN1

>  <Energy>  (17) 
132.7403277397057

>  <Genealogy>  (17) 
C[C@@H]1CC[C@@H](N2CC[C@]3(CN(C(=O)c4cc5ccc(F)cc5[nH]4)c4ccccc43)C2)CN1 (chirality)
C[C@@H]1CC[C@@H](N2CC[C@]3(CN(C(=O)c4cc5ccc(F)cc5[nH]4)c4ccccc43)C2)CN1 (3D coordinates assigned)
C[C@@H]1CC[C@@H](N2CC[C@]3(CN(C(=O)c4cc5ccc(F)cc5[nH]4)c4ccccc43)C2)CN1 (nonaromatic ring conformer: 132.7403277397057 kcal/mol)

>  <smiles>  (17) 
C[C@@H]1CCC(N2CC[C@]3(CN(C(=O)c4cc5ccc(F)cc5[nH]4)c4ccccc43)C2)CN1

>  <score_type>  (17) 
oracle

>  <origin>  (17) 
autodockgpu

>  <m_score__min__energy>  (17) 
-9.3300000000000001

>  <m_primary>  (17) 
energy

>  <meeko>  (17) 
{"free_energy": -9.33, "intermolecular_energy": -10.22, "internal_energy": -1.55, "cluster_size": 19, "cluster_id": 1, "rank_in_cluster": 2}

>  <energy>  (17) 
-9.31

>  <cluster_rmsd>  (17) 
0.17

>  <rmsd>  (17) 
270.75

>  <cluster>  (17) 
1

$$$$
MYPHZBOANNRFAS-AGTLBBOYNA-N
     RDKit          3D

 61 66  0  0  0  0  0  0  0  0999 V2000
  142.8890   80.5110  223.7440 C   0  0  0  0  0  0  0  0  0  0  0  0
  142.5640   79.4070  222.7370 C   0  0  2  0  0  0  0  0  0  0  0  0
  141.8670   79.9960  221.4870 C   0  0  0  0  0  0  0  0  0  0  0  0
  141.1510   78.8980  220.7020 C   0  0  0  0  0  0  0  0  0  0  0  0
  140.0570   78.2260  221.5790 C   0  0  1  0  0  0  0  0  0  0  0  0
  139.7240   76.8320  221.1870 N   0  0  0  0  0  0  0  0  0  0  0  0
  139.5760   76.6320  219.7350 C   0  0  0  0  0  0  0  0  0  0  0  0
  140.4940   75.4900  219.3270 C   0  0  0  0  0  0  0  0  0  0  0  0
  140.6990   74.7040  220.6170 C   0  0  1  0  0  0  0  0  0  0  0  0
  139.6280   73.5730  220.8100 C   0  0  0  0  0  0  0  0  0  0  0  0
  140.3830   72.3360  221.0380 N   0  0  0  0  0  0  0  0  0  0  0  0
  139.8410   71.2040  221.7380 C   0  0  0  0  0  0  0  0  0  0  0  0
  139.2120   70.3170  221.1010 O   0  0  0  0  0  0  0  0  0  0  0  0
  140.0320   71.0500  223.1870 C   0  0  0  0  0  0  0  0  0  0  0  0
  140.6970   71.9650  224.0020 C   0  0  0  0  0  0  0  0  0  0  0  0
  140.6650   71.4070  225.2600 C   0  0  0  0  0  0  0  0  0  0  0  0
  141.1710   71.8760  226.4700 C   0  0  0  0  0  0  0  0  0  0  0  0
  140.9960   71.0700  227.6090 C   0  0  0  0  0  0  0  0  0  0  0  0
  140.3300   69.8280  227.5120 C   0  0  0  0  0  0  0  0  0  0  0  0
  140.1700   69.0600  228.6190 F   0  0  0  0  0  0  0  0  0  0  0  0
  139.8300   69.3830  226.2750 C   0  0  0  0  0  0  0  0  0  0  0  0
  140.0120   70.2060  225.1640 C   0  0  0  0  0  0  0  0  0  0  0  0
  139.6190   69.9730  223.9010 N   0  0  0  0  0  0  0  0  0  0  0  0
  141.7680   72.6210  220.9130 C   0  0  0  0  0  0  0  0  0  0  0  0
  142.8230   71.7050  221.0030 C   0  0  0  0  0  0  0  0  0  0  0  0
  144.1350   72.1760  220.8450 C   0  0  0  0  0  0  0  0  0  0  0  0
  144.3730   73.5400  220.5960 C   0  0  0  0  0  0  0  0  0  0  0  0
  143.2990   74.4380  220.4980 C   0  0  0  0  0  0  0  0  0  0  0  0
  141.9960   73.9470  220.6530 C   0  0  0  0  0  0  0  0  0  0  0  0
  140.6130   75.7780  221.7050 C   0  0  0  0  0  0  0  0  0  0  0  0
  140.3510   78.3380  223.1000 C   0  0  0  0  0  0  0  0  0  0  0  0
  141.7890   78.3420  223.4100 N   0  0  0  0  0  0  0  0  0  0  0  0
  142.7741   80.1206  224.7659 H   0  0  0  0  0  0  0  0  0  0  0  0
  143.9250   80.8496  223.5952 H   0  0  0  0  0  0  0  0  0  0  0  0
  142.2018   81.3569  223.5952 H   0  0  0  0  0  0  0  0  0  0  0  0
  143.4893   78.9424  222.3655 H   0  0  0  0  0  0  0  0  0  0  0  0
  141.1325   80.7506  221.8048 H   0  0  0  0  0  0  0  0  0  0  0  0
  142.6289   80.4549  220.8398 H   0  0  0  0  0  0  0  0  0  0  0  0
  140.6803   79.3385  219.8107 H   0  0  0  0  0  0  0  0  0  0  0  0
  141.8865   78.1359  220.4051 H   0  0  0  0  0  0  0  0  0  0  0  0
  139.1504   78.8142  221.3737 H   0  0  0  0  0  0  0  0  0  0  0  0
  138.5328   76.3769  219.4968 H   0  0  0  0  0  0  0  0  0  0  0  0
  139.8411   77.5509  219.1916 H   0  0  0  0  0  0  0  0  0  0  0  0
  140.0198   74.8626  218.5579 H   0  0  0  0  0  0  0  0  0  0  0  0
  141.4403   75.8422  218.8905 H   0  0  0  0  0  0  0  0  0  0  0  0
  138.9887   73.7959  221.6769 H   0  0  0  0  0  0  0  0  0  0  0  0
  138.9698   73.4875  219.9329 H   0  0  0  0  0  0  0  0  0  0  0  0
  141.1484   72.9231  223.7048 H   0  0  0  0  0  0  0  0  0  0  0  0
  141.6899   72.8439  226.5325 H   0  0  0  0  0  0  0  0  0  0  0  0
  141.3804   71.4090  228.5823 H   0  0  0  0  0  0  0  0  0  0  0  0
  139.3119   68.4167  226.1867 H   0  0  0  0  0  0  0  0  0  0  0  0
  139.1310   69.1240  223.5470 H   0  0  0  0  0  0  0  0  0  0  0  0
  142.6275   70.6394  221.1934 H   0  0  0  0  0  0  0  0  0  0  0  0
  144.9807   71.4762  220.9161 H   0  0  0  0  0  0  0  0  0  0  0  0
  145.4043   73.9038  220.4777 H   0  0  0  0  0  0  0  0  0  0  0  0
  143.4766   75.5060  220.3034 H   0  0  0  0  0  0  0  0  0  0  0  0
  140.1962   75.3500  222.6286 H   0  0  0  0  0  0  0  0  0  0  0  0
  141.6083   76.1808  221.9441 H   0  0  0  0  0  0  0  0  0  0  0  0
  139.9094   79.2734  223.4742 H   0  0  0  0  0  0  0  0  0  0  0  0
  139.9129   77.4534  223.5852 H   0  0  0  0  0  0  0  0  0  0  0  0
  142.1980   77.4060  223.1930 H   0  0  0  0  0  0  0  0  0  0  0  0
  1  2  1  0
  2  3  1  0
  3  4  1  0
  4  5  1  0
  5  6  1  0
  6  7  1  0
  7  8  1  0
  9  8  1  6
  9 10  1  0
 10 11  1  0
 11 12  1  0
 12 13  2  0
 12 14  1  0
 14 15  2  0
 15 16  1  0
 16 17  2  0
 17 18  1  0
 18 19  2  0
 19 20  1  0
 19 21  1  0
 21 22  2  0
 22 23  1  0
 11 24  1  0
 24 25  2  0
 25 26  1  0
 26 27  2  0
 27 28  1  0
 28 29  2  0
  9 30  1  0
  5 31  1  0
 31 32  1  0
 32  2  1  0
 30  6  1  0
 29  9  1  0
 23 14  1  0
 29 24  1  0
 22 16  1  0
  1 33  1  0
  1 34  1  0
  1 35  1  0
  2 36  1  6
  3 37  1  0
  3 38  1  0
  4 39  1  0
  4 40  1  0
  5 41  1  1
  7 42  1  0
  7 43  1  0
  8 44  1  0
  8 45  1  0
 10 46  1  0
 10 47  1  0
 15 48  1  0
 17 49  1  0
 18 50  1  0
 21 51  1  0
 23 52  1  0
 25 53  1  0
 26 54  1  0
 27 55  1  0
 28 56  1  0
 30 57  1  0
 30 58  1  0
 31 59  1  0
 31 60  1  0
 32 61  1  0
M  END
>  <UniqueID>  (18) 
92

>  <SMILES>  (18) 
C[C@@H]1CC[C@@H](N2CC[C@]3(CN(C(=O)c4cc5ccc(F)cc5[nH]4)c4ccccc43)C2)CN1

>  <Energy>  (18) 
132.7403277397057

>  <Genealogy>  (18) 
C[C@@H]1CC[C@@H](N2CC[C@]3(CN(C(=O)c4cc5ccc(F)cc5[nH]4)c4ccccc43)C2)CN1 (chirality)
C[C@@H]1CC[C@@H](N2CC[C@]3(CN(C(=O)c4cc5ccc(F)cc5[nH]4)c4ccccc43)C2)CN1 (3D coordinates assigned)
C[C@@H]1CC[C@@H](N2CC[C@]3(CN(C(=O)c4cc5ccc(F)cc5[nH]4)c4ccccc43)C2)CN1 (nonaromatic ring conformer: 132.7403277397057 kcal/mol)

>  <smiles>  (18) 
C[C@@H]1CCC(N2CC[C@]3(CN(C(=O)c4cc5ccc(F)cc5[nH]4)c4ccccc43)C2)CN1

>  <score_type>  (18) 
oracle

>  <origin>  (18) 
autodockgpu

>  <m_score__min__energy>  (18) 
-9.3300000000000001

>  <m_primary>  (18) 
energy

>  <meeko>  (18) 
{"free_energy": -9.33, "intermolecular_energy": -10.22, "internal_energy": -1.55, "cluster_size": 19, "cluster_id": 1, "rank_in_cluster": 3}

>  <energy>  (18) 
-9.3

>  <cluster_rmsd>  (18) 
0.28

>  <rmsd>  (18) 
270.73

>  <cluster>  (18) 
1

$$$$
MYPHZBOANNRFAS-AGTLBBOYNA-N
     RDKit          3D

 61 66  0  0  0  0  0  0  0  0999 V2000
  142.9160   80.5250  223.7340 C   0  0  0  0  0  0  0  0  0  0  0  0
  142.5840   79.4220  222.7280 C   0  0  2  0  0  0  0  0  0  0  0  0
  141.8910   80.0140  221.4780 C   0  0  0  0  0  0  0  0  0  0  0  0
  141.1680   78.9200  220.6950 C   0  0  0  0  0  0  0  0  0  0  0  0
  140.0700   78.2560  221.5720 C   0  0  1  0  0  0  0  0  0  0  0  0
  139.7280   76.8630  221.1820 N   0  0  0  0  0  0  0  0  0  0  0  0
  139.5710   76.6650  219.7300 C   0  0  0  0  0  0  0  0  0  0  0  0
  140.4810   75.5170  219.3170 C   0  0  0  0  0  0  0  0  0  0  0  0
  140.6900   74.7300  220.6060 C   0  0  1  0  0  0  0  0  0  0  0  0
  139.6140   73.6050  220.8050 C   0  0  0  0  0  0  0  0  0  0  0  0
  140.3640   72.3640  221.0290 N   0  0  0  0  0  0  0  0  0  0  0  0
  139.8210   71.2350  221.7310 C   0  0  0  0  0  0  0  0  0  0  0  0
  139.1880   70.3490  221.0970 O   0  0  0  0  0  0  0  0  0  0  0  0
  140.0140   71.0820  223.1800 C   0  0  0  0  0  0  0  0  0  0  0  0
  140.6980   71.9880  223.9900 C   0  0  0  0  0  0  0  0  0  0  0  0
  140.6610   71.4350  225.2500 C   0  0  0  0  0  0  0  0  0  0  0  0
  141.1800   71.8990  226.4560 C   0  0  0  0  0  0  0  0  0  0  0  0
  140.9950   71.1000  227.5990 C   0  0  0  0  0  0  0  0  0  0  0  0
  140.3080   69.8690  227.5080 C   0  0  0  0  0  0  0  0  0  0  0  0
  140.1390   69.1080  228.6180 F   0  0  0  0  0  0  0  0  0  0  0  0
  139.7960   69.4290  226.2740 C   0  0  0  0  0  0  0  0  0  0  0  0
  139.9880   70.2450  225.1600 C   0  0  0  0  0  0  0  0  0  0  0  0
  139.5860   70.0150  223.9000 N   0  0  0  0  0  0  0  0  0  0  0  0
  141.7510   72.6430  220.8960 C   0  0  0  0  0  0  0  0  0  0  0  0
  142.8010   71.7210  220.9810 C   0  0  0  0  0  0  0  0  0  0  0  0
  144.1150   72.1860  220.8150 C   0  0  0  0  0  0  0  0  0  0  0  0
  144.3580   73.5490  220.5650 C   0  0  0  0  0  0  0  0  0  0  0  0
  143.2880   74.4520  220.4730 C   0  0  0  0  0  0  0  0  0  0  0  0
  141.9830   73.9670  220.6350 C   0  0  0  0  0  0  0  0  0  0  0  0
  140.6150   75.8050  221.6950 C   0  0  0  0  0  0  0  0  0  0  0  0
  140.3640   78.3670  223.0930 C   0  0  0  0  0  0  0  0  0  0  0  0
  141.8030   78.3630  223.4030 N   0  0  0  0  0  0  0  0  0  0  0  0
  142.7990   80.1362  224.7563 H   0  0  0  0  0  0  0  0  0  0  0  0
  143.9539   80.8572  223.5846 H   0  0  0  0  0  0  0  0  0  0  0  0
  142.2339   81.3749  223.5846 H   0  0  0  0  0  0  0  0  0  0  0  0
  143.5058   78.9510  222.3561 H   0  0  0  0  0  0  0  0  0  0  0  0
  141.1615   80.7739  221.7950 H   0  0  0  0  0  0  0  0  0  0  0  0
  142.6557   80.4673  220.8300 H   0  0  0  0  0  0  0  0  0  0  0  0
  140.7001   79.3625  219.8032 H   0  0  0  0  0  0  0  0  0  0  0  0
  141.8987   78.1527  220.3996 H   0  0  0  0  0  0  0  0  0  0  0  0
  139.1678   78.8503  221.3651 H   0  0  0  0  0  0  0  0  0  0  0  0
  138.5252   76.4162  219.4970 H   0  0  0  0  0  0  0  0  0  0  0  0
  139.8382   77.5827  219.1855 H   0  0  0  0  0  0  0  0  0  0  0  0
  139.9988   74.8919  218.5510 H   0  0  0  0  0  0  0  0  0  0  0  0
  141.4265   75.8642  218.8749 H   0  0  0  0  0  0  0  0  0  0  0  0
  138.9807   73.8314  221.6754 H   0  0  0  0  0  0  0  0  0  0  0  0
  138.9503   73.5229  219.9316 H   0  0  0  0  0  0  0  0  0  0  0  0
  141.1650   72.9371  223.6880 H   0  0  0  0  0  0  0  0  0  0  0  0
  141.7164   72.8577  226.5130 H   0  0  0  0  0  0  0  0  0  0  0  0
  141.3879   71.4360  228.5700 H   0  0  0  0  0  0  0  0  0  0  0  0
  139.2611   68.4715  226.1906 H   0  0  0  0  0  0  0  0  0  0  0  0
  139.0820   69.1730  223.5500 H   0  0  0  0  0  0  0  0  0  0  0  0
  142.6009   70.6566  221.1735 H   0  0  0  0  0  0  0  0  0  0  0  0
  144.9578   71.4821  220.8806 H   0  0  0  0  0  0  0  0  0  0  0  0
  145.3904   73.9080  220.4412 H   0  0  0  0  0  0  0  0  0  0  0  0
  143.4697   75.5192  220.2777 H   0  0  0  0  0  0  0  0  0  0  0  0
  140.2014   75.3789  222.6210 H   0  0  0  0  0  0  0  0  0  0  0  0
  141.6134   76.2033  221.9285 H   0  0  0  0  0  0  0  0  0  0  0  0
  139.9276   79.3050  223.4667 H   0  0  0  0  0  0  0  0  0  0  0  0
  139.9206   77.4853  223.5788 H   0  0  0  0  0  0  0  0  0  0  0  0
  142.2060   77.4240  223.1870 H   0  0  0  0  0  0  0  0  0  0  0  0
  1  2  1  0
  2  3  1  0
  3  4  1  0
  4  5  1  0
  5  6  1  0
  6  7  1  0
  7  8  1  0
  9  8  1  6
  9 10  1  0
 10 11  1  0
 11 12  1  0
 12 13  2  0
 12 14  1  0
 14 15  2  0
 15 16  1  0
 16 17  2  0
 17 18  1  0
 18 19  2  0
 19 20  1  0
 19 21  1  0
 21 22  2  0
 22 23  1  0
 11 24  1  0
 24 25  2  0
 25 26  1  0
 26 27  2  0
 27 28  1  0
 28 29  2  0
  9 30  1  0
  5 31  1  0
 31 32  1  0
 32  2  1  0
 30  6  1  0
 29  9  1  0
 23 14  1  0
 29 24  1  0
 22 16  1  0
  1 33  1  0
  1 34  1  0
  1 35  1  0
  2 36  1  6
  3 37  1  0
  3 38  1  0
  4 39  1  0
  4 40  1  0
  5 41  1  1
  7 42  1  0
  7 43  1  0
  8 44  1  0
  8 45  1  0
 10 46  1  0
 10 47  1  0
 15 48  1  0
 17 49  1  0
 18 50  1  0
 21 51  1  0
 23 52  1  0
 25 53  1  0
 26 54  1  0
 27 55  1  0
 28 56  1  0
 30 57  1  0
 30 58  1  0
 31 59  1  0
 31 60  1  0
 32 61  1  0
M  END
>  <UniqueID>  (19) 
92

>  <SMILES>  (19) 
C[C@@H]1CC[C@@H](N2CC[C@]3(CN(C(=O)c4cc5ccc(F)cc5[nH]4)c4ccccc43)C2)CN1

>  <Energy>  (19) 
132.7403277397057

>  <Genealogy>  (19) 
C[C@@H]1CC[C@@H](N2CC[C@]3(CN(C(=O)c4cc5ccc(F)cc5[nH]4)c4ccccc43)C2)CN1 (chirality)
C[C@@H]1CC[C@@H](N2CC[C@]3(CN(C(=O)c4cc5ccc(F)cc5[nH]4)c4ccccc43)C2)CN1 (3D coordinates assigned)
C[C@@H]1CC[C@@H](N2CC[C@]3(CN(C(=O)c4cc5ccc(F)cc5[nH]4)c4ccccc43)C2)CN1 (nonaromatic ring conformer: 132.7403277397057 kcal/mol)

>  <smiles>  (19) 
C[C@@H]1CCC(N2CC[C@]3(CN(C(=O)c4cc5ccc(F)cc5[nH]4)c4ccccc43)C2)CN1

>  <score_type>  (19) 
oracle

>  <origin>  (19) 
autodockgpu

>  <m_score__min__energy>  (19) 
-9.3300000000000001

>  <m_primary>  (19) 
energy

>  <meeko>  (19) 
{"free_energy": -9.32, "intermolecular_energy": -10.22, "internal_energy": -1.55, "cluster_size": 19, "cluster_id": 1, "rank_in_cluster": 9}

>  <energy>  (19) 
-9.27

>  <cluster_rmsd>  (19) 
0.19

>  <rmsd>  (19) 
270.72

>  <cluster>  (19) 
1

$$$$
MYPHZBOANNRFAS-AGTLBBOYNA-N
     RDKit          3D

 61 66  0  0  0  0  0  0  0  0999 V2000
  142.8830   80.5460  223.8550 C   0  0  0  0  0  0  0  0  0  0  0  0
  142.5960   79.4480  222.8290 C   0  0  2  0  0  0  0  0  0  0  0  0
  141.9420   80.0440  221.5600 C   0  0  0  0  0  0  0  0  0  0  0  0
  141.2570   78.9490  220.7430 C   0  0  0  0  0  0  0  0  0  0  0  0
  140.1350   78.2690  221.5760 C   0  0  1  0  0  0  0  0  0  0  0  0
  139.8200   76.8760  221.1640 N   0  0  0  0  0  0  0  0  0  0  0  0
  139.7020   76.6910  219.7060 C   0  0  0  0  0  0  0  0  0  0  0  0
  140.6360   75.5590  219.3050 C   0  0  0  0  0  0  0  0  0  0  0  0
  140.8210   74.7610  220.5910 C   0  0  1  0  0  0  0  0  0  0  0  0
  139.7550   73.6210  220.7510 C   0  0  0  0  0  0  0  0  0  0  0  0
  140.5140   72.3870  220.9820 N   0  0  0  0  0  0  0  0  0  0  0  0
  139.9660   71.2440  221.6590 C   0  0  0  0  0  0  0  0  0  0  0  0
  139.3250   70.3770  221.0060 O   0  0  0  0  0  0  0  0  0  0  0  0
  140.1650   71.0550  223.1030 C   0  0  0  0  0  0  0  0  0  0  0  0
  140.6780   72.0210  223.9670 C   0  0  0  0  0  0  0  0  0  0  0  0
  140.7190   71.4080  225.1990 C   0  0  0  0  0  0  0  0  0  0  0  0
  141.1380   71.8920  226.4360 C   0  0  0  0  0  0  0  0  0  0  0  0
  141.0760   71.0180  227.5360 C   0  0  0  0  0  0  0  0  0  0  0  0
  140.6070   69.6960  227.3750 C   0  0  0  0  0  0  0  0  0  0  0  0
  140.5540   68.8630  228.4440 F   0  0  0  0  0  0  0  0  0  0  0  0
  140.1910   69.2370  226.1110 C   0  0  0  0  0  0  0  0  0  0  0  0
  140.2560   70.1290  225.0410 C   0  0  0  0  0  0  0  0  0  0  0  0
  139.9140   69.8970  223.7630 N   0  0  0  0  0  0  0  0  0  0  0  0
  141.9000   72.6830  220.8870 C   0  0  0  0  0  0  0  0  0  0  0  0
  142.9590   71.7730  220.9890 C   0  0  0  0  0  0  0  0  0  0  0  0
  144.2710   72.2550  220.8620 C   0  0  0  0  0  0  0  0  0  0  0  0
  144.5040   73.6230  220.6320 C   0  0  0  0  0  0  0  0  0  0  0  0
  143.4250   74.5140  220.5220 C   0  0  0  0  0  0  0  0  0  0  0  0
  142.1230   74.0130  220.6450 C   0  0  0  0  0  0  0  0  0  0  0  0
  140.7060   75.8230  221.6880 C   0  0  0  0  0  0  0  0  0  0  0  0
  140.3750   78.3710  223.1070 C   0  0  0  0  0  0  0  0  0  0  0  0
  141.8020   78.3760  223.4680 N   0  0  0  0  0  0  0  0  0  0  0  0
  142.7759   80.1363  224.8702 H   0  0  0  0  0  0  0  0  0  0  0  0
  143.9087   80.9185  223.7162 H   0  0  0  0  0  0  0  0  0  0  0  0
  142.1708   81.3727  223.7162 H   0  0  0  0  0  0  0  0  0  0  0  0
  143.5345   78.9882  222.4857 H   0  0  0  0  0  0  0  0  0  0  0  0
  141.1947   80.7945  221.8569 H   0  0  0  0  0  0  0  0  0  0  0  0
  142.7246   80.5097  220.9431 H   0  0  0  0  0  0  0  0  0  0  0  0
  140.8169   79.3941  219.8384 H   0  0  0  0  0  0  0  0  0  0  0  0
  142.0046   78.1906  220.4676 H   0  0  0  0  0  0  0  0  0  0  0  0
  139.2350   78.8566  221.3422 H   0  0  0  0  0  0  0  0  0  0  0  0
  138.6655   76.4318  219.4441 H   0  0  0  0  0  0  0  0  0  0  0  0
  139.9713   77.6174  219.1776 H   0  0  0  0  0  0  0  0  0  0  0  0
  140.1815   74.9363  218.5203 H   0  0  0  0  0  0  0  0  0  0  0  0
  141.5883   75.9221  218.8911 H   0  0  0  0  0  0  0  0  0  0  0  0
  139.0967   73.8307  221.6070 H   0  0  0  0  0  0  0  0  0  0  0  0
  139.1153   73.5397  219.8598 H   0  0  0  0  0  0  0  0  0  0  0  0
  140.9832   73.0482  223.7188 H   0  0  0  0  0  0  0  0  0  0  0  0
  141.5049   72.9229  226.5487 H   0  0  0  0  0  0  0  0  0  0  0  0
  141.3953   71.3669  228.5292 H   0  0  0  0  0  0  0  0  0  0  0  0
  139.8266   68.2085  225.9718 H   0  0  0  0  0  0  0  0  0  0  0  0
  139.5620   69.0010  223.3640 H   0  0  0  0  0  0  0  0  0  0  0  0
  142.7671   70.7042  221.1647 H   0  0  0  0  0  0  0  0  0  0  0  0
  145.1202   71.5604  220.9426 H   0  0  0  0  0  0  0  0  0  0  0  0
  145.5347   73.9956  220.5381 H   0  0  0  0  0  0  0  0  0  0  0  0
  143.5988   75.5853  220.3426 H   0  0  0  0  0  0  0  0  0  0  0  0
  140.2743   75.3824  222.5988 H   0  0  0  0  0  0  0  0  0  0  0  0
  141.6935   76.2302  221.9505 H   0  0  0  0  0  0  0  0  0  0  0  0
  139.9182   79.3028  223.4718 H   0  0  0  0  0  0  0  0  0  0  0  0
  139.9223   77.4819  223.5702 H   0  0  0  0  0  0  0  0  0  0  0  0
  142.2210   77.4430  223.2590 H   0  0  0  0  0  0  0  0  0  0  0  0
  1  2  1  0
  2  3  1  0
  3  4  1  0
  4  5  1  0
  5  6  1  0
  6  7  1  0
  7  8  1  0
  9  8  1  6
  9 10  1  0
 10 11  1  0
 11 12  1  0
 12 13  2  0
 12 14  1  0
 14 15  2  0
 15 16  1  0
 16 17  2  0
 17 18  1  0
 18 19  2  0
 19 20  1  0
 19 21  1  0
 21 22  2  0
 22 23  1  0
 11 24  1  0
 24 25  2  0
 25 26  1  0
 26 27  2  0
 27 28  1  0
 28 29  2  0
  9 30  1  0
  5 31  1  0
 31 32  1  0
 32  2  1  0
 30  6  1  0
 29  9  1  0
 23 14  1  0
 29 24  1  0
 22 16  1  0
  1 33  1  0
  1 34  1  0
  1 35  1  0
  2 36  1  6
  3 37  1  0
  3 38  1  0
  4 39  1  0
  4 40  1  0
  5 41  1  1
  7 42  1  0
  7 43  1  0
  8 44  1  0
  8 45  1  0
 10 46  1  0
 10 47  1  0
 15 48  1  0
 17 49  1  0
 18 50  1  0
 21 51  1  0
 23 52  1  0
 25 53  1  0
 26 54  1  0
 27 55  1  0
 28 56  1  0
 30 57  1  0
 30 58  1  0
 31 59  1  0
 31 60  1  0
 32 61  1  0
M  END
>  <UniqueID>  (20) 
92

>  <SMILES>  (20) 
C[C@@H]1CC[C@@H](N2CC[C@]3(CN(C(=O)c4cc5ccc(F)cc5[nH]4)c4ccccc43)C2)CN1

>  <Energy>  (20) 
132.7403277397057

>  <Genealogy>  (20) 
C[C@@H]1CC[C@@H](N2CC[C@]3(CN(C(=O)c4cc5ccc(F)cc5[nH]4)c4ccccc43)C2)CN1 (chirality)
C[C@@H]1CC[C@@H](N2CC[C@]3(CN(C(=O)c4cc5ccc(F)cc5[nH]4)c4ccccc43)C2)CN1 (3D coordinates assigned)
C[C@@H]1CC[C@@H](N2CC[C@]3(CN(C(=O)c4cc5ccc(F)cc5[nH]4)c4ccccc43)C2)CN1 (nonaromatic ring conformer: 132.7403277397057 kcal/mol)

>  <smiles>  (20) 
C[C@@H]1CCC(N2CC[C@]3(CN(C(=O)c4cc5ccc(F)cc5[nH]4)c4ccccc43)C2)CN1

>  <score_type>  (20) 
oracle

>  <origin>  (20) 
autodockgpu

>  <m_score__min__energy>  (20) 
-9.3300000000000001

>  <m_primary>  (20) 
energy

>  <meeko>  (20) 
{"free_energy": -9.31, "intermolecular_energy": -10.21, "internal_energy": -1.55, "cluster_size": 19, "cluster_id": 1, "rank_in_cluster": 14}

>  <energy>  (20) 
-8.4

>  <cluster_rmsd>  (20) 
0.0

>  <rmsd>  (20) 
271.83

>  <cluster>  (20) 
2

$$$$
MYPHZBOANNRFAS-KTSDNHQRNA-O
     RDKit          3D

 62 67  0  0  0  0  0  0  0  0999 V2000
  142.8150   80.7470  223.3740 C   0  0  0  0  0  0  0  0  0  0  0  0
  141.7660   79.9190  222.6180 C   0  0  2  0  0  0  0  0  0  0  0  0
  140.5500   79.6120  223.5220 C   0  0  0  0  0  0  0  0  0  0  0  0
  139.8030   78.3390  223.0890 C   0  0  0  0  0  0  0  0  0  0  0  0
  139.9250   78.0990  221.5660 C   0  0  2  0  0  0  0  0  0  0  0  0
  139.1660   76.8900  221.1430 N   0  0  0  0  0  0  0  0  0  0  0  0
  139.3260   76.5770  219.7140 C   0  0  0  0  0  0  0  0  0  0  0  0
  139.1990   75.0740  219.5640 C   0  0  0  0  0  0  0  0  0  0  0  0
  139.7320   74.5190  220.8810 C   0  0  1  0  0  0  0  0  0  0  0  0
  139.0190   73.1890  221.3120 C   0  0  0  0  0  0  0  0  0  0  0  0
  140.0580   72.1600  221.3320 N   0  0  0  0  0  0  0  0  0  0  0  0
  139.9110   70.9150  222.0160 C   0  0  0  0  0  0  0  0  0  0  0  0
  139.5820   69.8870  221.3670 O   0  0  0  0  0  0  0  0  0  0  0  0
  140.1320   70.8330  223.4690 C   0  0  0  0  0  0  0  0  0  0  0  0
  140.5940   71.8770  224.2720 C   0  0  0  0  0  0  0  0  0  0  0  0
  140.6570   71.3460  225.5420 C   0  0  0  0  0  0  0  0  0  0  0  0
  141.0390   71.9260  226.7500 C   0  0  0  0  0  0  0  0  0  0  0  0
  141.0070   71.1190  227.9050 C   0  0  0  0  0  0  0  0  0  0  0  0
  140.5910   69.7680  227.8230 C   0  0  0  0  0  0  0  0  0  0  0  0
  140.5660   69.0010  228.9410 F   0  0  0  0  0  0  0  0  0  0  0  0
  140.1960   69.2170  226.5900 C   0  0  0  0  0  0  0  0  0  0  0  0
  140.2410   70.0400  225.4650 C   0  0  0  0  0  0  0  0  0  0  0  0
  139.9080   69.7160  224.2040 N   0  0  0  0  0  0  0  0  0  0  0  0
  141.3060   72.7600  221.0420 C   0  0  0  0  0  0  0  0  0  0  0  0
  142.5540   72.1290  221.0440 C   0  0  0  0  0  0  0  0  0  0  0  0
  143.6910   72.8940  220.7490 C   0  0  0  0  0  0  0  0  0  0  0  0
  143.5660   74.2660  220.4640 C   0  0  0  0  0  0  0  0  0  0  0  0
  142.3030   74.8790  220.4770 C   0  0  0  0  0  0  0  0  0  0  0  0
  141.1770   74.0960  220.7640 C   0  0  0  0  0  0  0  0  0  0  0  0
  139.5580   75.6740  221.8870 C   0  0  0  0  0  0  0  0  0  0  0  0
  141.4350   77.9610  221.1880 C   0  0  0  0  0  0  0  0  0  0  0  0
  142.3530   78.6670  222.1070 N   0  0  0  0  0  0  0  0  0  0  0  0
  142.6647   80.6284  224.4572 H   0  0  0  0  0  0  0  0  0  0  0  0
  143.8224   80.3979  223.1032 H   0  0  0  0  0  0  0  0  0  0  0  0
  142.7095   81.8079  223.1032 H   0  0  0  0  0  0  0  0  0  0  0  0
  141.4201   80.5157  221.7610 H   0  0  0  0  0  0  0  0  0  0  0  0
  140.9027   79.4802  224.5555 H   0  0  0  0  0  0  0  0  0  0  0  0
  139.8495   80.4560  223.4393 H   0  0  0  0  0  0  0  0  0  0  0  0
  140.2291   77.4761  223.6218 H   0  0  0  0  0  0  0  0  0  0  0  0
  138.7379   78.4643  223.3339 H   0  0  0  0  0  0  0  0  0  0  0  0
  139.4892   78.9591  221.0365 H   0  0  0  0  0  0  0  0  0  0  0  0
  138.5431   77.0811  219.1284 H   0  0  0  0  0  0  0  0  0  0  0  0
  140.3033   76.9235  219.3468 H   0  0  0  0  0  0  0  0  0  0  0  0
  138.1483   74.7843  219.4156 H   0  0  0  0  0  0  0  0  0  0  0  0
  139.7490   74.6901  218.6922 H   0  0  0  0  0  0  0  0  0  0  0  0
  138.5735   73.3012  222.3115 H   0  0  0  0  0  0  0  0  0  0  0  0
  138.2062   72.9260  220.6191 H   0  0  0  0  0  0  0  0  0  0  0  0
  140.8514   72.8998  223.9595 H   0  0  0  0  0  0  0  0  0  0  0  0
  141.3549   72.9784  226.8005 H   0  0  0  0  0  0  0  0  0  0  0  0
  141.3069   71.5410  228.8756 H   0  0  0  0  0  0  0  0  0  0  0  0
  139.8626   68.1714  226.5159 H   0  0  0  0  0  0  0  0  0  0  0  0
  139.5610   68.7900  223.8660 H   0  0  0  0  0  0  0  0  0  0  0  0
  142.6415   71.0564  221.2720 H   0  0  0  0  0  0  0  0  0  0  0  0
  144.6837   72.4202  220.7403 H   0  0  0  0  0  0  0  0  0  0  0  0
  144.4613   74.8608  220.2301 H   0  0  0  0  0  0  0  0  0  0  0  0
  142.1994   75.9536  220.2659 H   0  0  0  0  0  0  0  0  0  0  0  0
  138.7752   75.4165  222.6156 H   0  0  0  0  0  0  0  0  0  0  0  0
  140.5009   75.8496  222.4255 H   0  0  0  0  0  0  0  0  0  0  0  0
  141.6961   76.8924  221.1920 H   0  0  0  0  0  0  0  0  0  0  0  0
  141.5583   78.4241  220.1979 H   0  0  0  0  0  0  0  0  0  0  0  0
  143.2370   78.8810  221.5850 H   0  0  0  0  0  0  0  0  0  0  0  0
  142.6000   78.0390  222.9080 H   0  0  0  0  0  0  0  0  0  0  0  0
  1  2  1  0
  2  3  1  0
  3  4  1  0
  4  5  1  0
  5  6  1  0
  6  7  1  0
  7  8  1  0
  9  8  1  6
  9 10  1  0
 10 11  1  0
 11 12  1  0
 12 13  2  0
 12 14  1  0
 14 15  2  0
 15 16  1  0
 16 17  2  0
 17 18  1  0
 18 19  2  0
 19 20  1  0
 19 21  1  0
 21 22  2  0
 22 23  1  0
 11 24  1  0
 24 25  2  0
 25 26  1  0
 26 27  2  0
 27 28  1  0
 28 29  2  0
  9 30  1  0
  5 31  1  0
 31 32  1  0
 32  2  1  0
 30  6  1  0
 29  9  1  0
 23 14  1  0
 29 24  1  0
 22 16  1  0
  1 33  1  0
  1 34  1  0
  1 35  1  0
  2 36  1  6
  3 37  1  0
  3 38  1  0
  4 39  1  0
  4 40  1  0
  5 41  1  6
  7 42  1  0
  7 43  1  0
  8 44  1  0
  8 45  1  0
 10 46  1  0
 10 47  1  0
 15 48  1  0
 17 49  1  0
 18 50  1  0
 21 51  1  0
 23 52  1  0
 25 53  1  0
 26 54  1  0
 27 55  1  0
 28 56  1  0
 30 57  1  0
 30 58  1  0
 31 59  1  0
 31 60  1  0
 32 61  1  0
 32 62  1  0
M  CHG  1  32   1
M  END
>  <UniqueID>  (21) 
93

>  <SMILES>  (21) 
C[C@@H]1CC[C@H](N2CC[C@]3(CN(C(=O)c4cc5ccc(F)cc5[nH]4)c4ccccc43)C2)C[NH2+]1

>  <Energy>  (21) 
133.88327646162938

>  <Genealogy>  (21) 
C[C@@H]1CCC(N2CC[C@]3(CN(C(=O)c4cc5ccc(F)cc5[nH]4)c4ccccc43)C2)C[NH2+]1 (protonated)
C[C@@H]1CC[C@H](N2CC[C@]3(CN(C(=O)c4cc5ccc(F)cc5[nH]4)c4ccccc43)C2)C[NH2+]1 (chirality)
C[C@@H]1CC[C@H](N2CC[C@]3(CN(C(=O)c4cc5ccc(F)cc5[nH]4)c4ccccc43)C2)C[NH2+]1 (3D coordinates assigned)
C[C@@H]1CC[C@H](N2CC[C@]3(CN(C(=O)c4cc5ccc(F)cc5[nH]4)c4ccccc43)C2)C[NH2+]1 (nonaromatic ring conformer: 133.88327646162938 kcal/mol)

>  <smiles>  (21) 
C[C@@H]1CCC(N2CC[C@]3(CN(C(=O)c4cc5ccc(F)cc5[nH]4)c4ccccc43)C2)CN1

>  <score_type>  (21) 
oracle

>  <origin>  (21) 
autodockgpu

>  <m_score__min__energy>  (21) 
-9.6199999999999992

>  <m_primary>  (21) 
energy

>  <meeko>  (21) 
{"free_energy": -9.61, "intermolecular_energy": -10.51, "internal_energy": -1.27, "cluster_size": 19, "cluster_id": 1, "rank_in_cluster": 2}

>  <energy>  (21) 
-9.62

>  <cluster_rmsd>  (21) 
0.0

>  <rmsd>  (21) 
271.11

>  <cluster>  (21) 
1

$$$$
MYPHZBOANNRFAS-KTSDNHQRNA-O
     RDKit          3D

 62 67  0  0  0  0  0  0  0  0999 V2000
  142.7770   80.7240  223.3740 C   0  0  0  0  0  0  0  0  0  0  0  0
  141.7320   79.8880  222.6200 C   0  0  2  0  0  0  0  0  0  0  0  0
  140.5270   79.5600  223.5310 C   0  0  0  0  0  0  0  0  0  0  0  0
  139.7920   78.2810  223.0940 C   0  0  0  0  0  0  0  0  0  0  0  0
  139.9050   78.0540  221.5680 C   0  0  2  0  0  0  0  0  0  0  0  0
  139.1580   76.8400  221.1420 N   0  0  0  0  0  0  0  0  0  0  0  0
  139.3380   76.5190  219.7170 C   0  0  0  0  0  0  0  0  0  0  0  0
  139.2200   75.0150  219.5740 C   0  0  0  0  0  0  0  0  0  0  0  0
  139.7370   74.4690  220.9010 C   0  0  1  0  0  0  0  0  0  0  0  0
  139.0250   73.1390  221.3300 C   0  0  0  0  0  0  0  0  0  0  0  0
  140.0680   72.1150  221.3700 N   0  0  0  0  0  0  0  0  0  0  0  0
  139.9170   70.8730  222.0590 C   0  0  0  0  0  0  0  0  0  0  0  0
  139.5770   69.8450  221.4150 O   0  0  0  0  0  0  0  0  0  0  0  0
  140.1490   70.7940  223.5100 C   0  0  0  0  0  0  0  0  0  0  0  0
  140.6040   71.8430  224.3100 C   0  0  0  0  0  0  0  0  0  0  0  0
  140.6800   71.3130  225.5800 C   0  0  0  0  0  0  0  0  0  0  0  0
  141.0640   71.8980  226.7860 C   0  0  0  0  0  0  0  0  0  0  0  0
  141.0480   71.0910  227.9400 C   0  0  0  0  0  0  0  0  0  0  0  0
  140.6470   69.7350  227.8620 C   0  0  0  0  0  0  0  0  0  0  0  0
  140.6390   68.9690  228.9800 F   0  0  0  0  0  0  0  0  0  0  0  0
  140.2510   69.1800  226.6310 C   0  0  0  0  0  0  0  0  0  0  0  0
  140.2800   70.0030  225.5050 C   0  0  0  0  0  0  0  0  0  0  0  0
  139.9420   69.6750  224.2470 N   0  0  0  0  0  0  0  0  0  0  0  0
  141.3170   72.7190  221.0930 C   0  0  0  0  0  0  0  0  0  0  0  0
  142.5690   72.0940  221.1150 C   0  0  0  0  0  0  0  0  0  0  0  0
  143.7050   72.8630  220.8310 C   0  0  0  0  0  0  0  0  0  0  0  0
  143.5780   74.2330  220.5380 C   0  0  0  0  0  0  0  0  0  0  0  0
  142.3120   74.8390  220.5290 C   0  0  0  0  0  0  0  0  0  0  0  0
  141.1850   74.0530  220.8060 C   0  0  0  0  0  0  0  0  0  0  0  0
  139.5450   75.6300  221.8980 C   0  0  0  0  0  0  0  0  0  0  0  0
  141.4130   77.9380  221.1770 C   0  0  0  0  0  0  0  0  0  0  0  0
  142.3300   78.6480  222.0940 N   0  0  0  0  0  0  0  0  0  0  0  0
  142.6289   80.6055  224.4575 H   0  0  0  0  0  0  0  0  0  0  0  0
  143.7863   80.3812  223.1022 H   0  0  0  0  0  0  0  0  0  0  0  0
  142.6641   81.7839  223.1022 H   0  0  0  0  0  0  0  0  0  0  0  0
  141.3718   80.4864  221.7702 H   0  0  0  0  0  0  0  0  0  0  0  0
  140.8892   79.4248  224.5608 H   0  0  0  0  0  0  0  0  0  0  0  0
  139.8158   80.3962  223.4602 H   0  0  0  0  0  0  0  0  0  0  0  0
  140.2327   77.4194  223.6169 H   0  0  0  0  0  0  0  0  0  0  0  0
  138.7275   78.3914  223.3481 H   0  0  0  0  0  0  0  0  0  0  0  0
  139.4545   78.9126  221.0485 H   0  0  0  0  0  0  0  0  0  0  0  0
  138.5604   77.0159  219.1183 H   0  0  0  0  0  0  0  0  0  0  0  0
  140.3185   76.8677  219.3607 H   0  0  0  0  0  0  0  0  0  0  0  0
  138.1727   74.7198  219.4126 H   0  0  0  0  0  0  0  0  0  0  0  0
  139.7842   74.6291  218.7122 H   0  0  0  0  0  0  0  0  0  0  0  0
  138.5657   73.2550  222.3228 H   0  0  0  0  0  0  0  0  0  0  0  0
  138.2228   72.8682  220.6277 H   0  0  0  0  0  0  0  0  0  0  0  0
  140.8485   72.8684  223.9958 H   0  0  0  0  0  0  0  0  0  0  0  0
  141.3690   72.9538  226.8344 H   0  0  0  0  0  0  0  0  0  0  0  0
  141.3490   71.5168  228.9086 H   0  0  0  0  0  0  0  0  0  0  0  0
  139.9289   68.1307  226.5589 H   0  0  0  0  0  0  0  0  0  0  0  0
  139.6040   68.7450  223.9110 H   0  0  0  0  0  0  0  0  0  0  0  0
  142.6590   71.0232  221.3500 H   0  0  0  0  0  0  0  0  0  0  0  0
  144.6999   72.3938  220.8371 H   0  0  0  0  0  0  0  0  0  0  0  0
  144.4738   74.8313  220.3152 H   0  0  0  0  0  0  0  0  0  0  0  0
  142.2062   75.9115  220.3085 H   0  0  0  0  0  0  0  0  0  0  0  0
  138.7537   75.3736  222.6178 H   0  0  0  0  0  0  0  0  0  0  0  0
  140.4802   75.8127  222.4476 H   0  0  0  0  0  0  0  0  0  0  0  0
  141.6873   76.8728  221.1703 H   0  0  0  0  0  0  0  0  0  0  0  0
  141.5223   78.4107  220.1898 H   0  0  0  0  0  0  0  0  0  0  0  0
  143.2070   78.8760  221.5680 H   0  0  0  0  0  0  0  0  0  0  0  0
  142.5910   78.0160  222.8890 H   0  0  0  0  0  0  0  0  0  0  0  0
  1  2  1  0
  2  3  1  0
  3  4  1  0
  4  5  1  0
  5  6  1  0
  6  7  1  0
  7  8  1  0
  9  8  1  6
  9 10  1  0
 10 11  1  0
 11 12  1  0
 12 13  2  0
 12 14  1  0
 14 15  2  0
 15 16  1  0
 16 17  2  0
 17 18  1  0
 18 19  2  0
 19 20  1  0
 19 21  1  0
 21 22  2  0
 22 23  1  0
 11 24  1  0
 24 25  2  0
 25 26  1  0
 26 27  2  0
 27 28  1  0
 28 29  2  0
  9 30  1  0
  5 31  1  0
 31 32  1  0
 32  2  1  0
 30  6  1  0
 29  9  1  0
 23 14  1  0
 29 24  1  0
 22 16  1  0
  1 33  1  0
  1 34  1  0
  1 35  1  0
  2 36  1  6
  3 37  1  0
  3 38  1  0
  4 39  1  0
  4 40  1  0
  5 41  1  6
  7 42  1  0
  7 43  1  0
  8 44  1  0
  8 45  1  0
 10 46  1  0
 10 47  1  0
 15 48  1  0
 17 49  1  0
 18 50  1  0
 21 51  1  0
 23 52  1  0
 25 53  1  0
 26 54  1  0
 27 55  1  0
 28 56  1  0
 30 57  1  0
 30 58  1  0
 31 59  1  0
 31 60  1  0
 32 61  1  0
 32 62  1  0
M  CHG  1  32   1
M  END
>  <UniqueID>  (22) 
93

>  <SMILES>  (22) 
C[C@@H]1CC[C@H](N2CC[C@]3(CN(C(=O)c4cc5ccc(F)cc5[nH]4)c4ccccc43)C2)C[NH2+]1

>  <Energy>  (22) 
133.88327646162938

>  <Genealogy>  (22) 
C[C@@H]1CCC(N2CC[C@]3(CN(C(=O)c4cc5ccc(F)cc5[nH]4)c4ccccc43)C2)C[NH2+]1 (protonated)
C[C@@H]1CC[C@H](N2CC[C@]3(CN(C(=O)c4cc5ccc(F)cc5[nH]4)c4ccccc43)C2)C[NH2+]1 (chirality)
C[C@@H]1CC[C@H](N2CC[C@]3(CN(C(=O)c4cc5ccc(F)cc5[nH]4)c4ccccc43)C2)C[NH2+]1 (3D coordinates assigned)
C[C@@H]1CC[C@H](N2CC[C@]3(CN(C(=O)c4cc5ccc(F)cc5[nH]4)c4ccccc43)C2)C[NH2+]1 (nonaromatic ring conformer: 133.88327646162938 kcal/mol)

>  <smiles>  (22) 
C[C@@H]1CCC(N2CC[C@]3(CN(C(=O)c4cc5ccc(F)cc5[nH]4)c4ccccc43)C2)CN1

>  <score_type>  (22) 
oracle

>  <origin>  (22) 
autodockgpu

>  <m_score__min__energy>  (22) 
-9.6199999999999992

>  <m_primary>  (22) 
energy

>  <meeko>  (22) 
{"free_energy": -9.61, "intermolecular_energy": -10.5, "internal_energy": -1.27, "cluster_size": 19, "cluster_id": 1, "rank_in_cluster": 5}

>  <energy>  (22) 
-9.61

>  <cluster_rmsd>  (22) 
0.23

>  <rmsd>  (22) 
271.1

>  <cluster>  (22) 
1

$$$$
MYPHZBOANNRFAS-KTSDNHQRNA-O
     RDKit          3D

 62 67  0  0  0  0  0  0  0  0999 V2000
  142.9510   80.5770  222.8430 C   0  0  0  0  0  0  0  0  0  0  0  0
  141.7570   79.7690  222.3150 C   0  0  2  0  0  0  0  0  0  0  0  0
  140.9210   79.1950  223.4810 C   0  0  0  0  0  0  0  0  0  0  0  0
  140.1400   77.9320  223.0770 C   0  0  0  0  0  0  0  0  0  0  0  0
  139.7700   77.9490  221.5750 C   0  0  2  0  0  0  0  0  0  0  0  0
  138.9780   76.7470  221.1960 N   0  0  0  0  0  0  0  0  0  0  0  0
  139.1080   76.3930  219.7740 C   0  0  0  0  0  0  0  0  0  0  0  0
  138.9460   74.8900  219.6660 C   0  0  0  0  0  0  0  0  0  0  0  0
  139.4870   74.3570  220.9890 C   0  0  1  0  0  0  0  0  0  0  0  0
  138.7520   73.0550  221.4660 C   0  0  0  0  0  0  0  0  0  0  0  0
  139.7690   72.0050  221.4970 N   0  0  0  0  0  0  0  0  0  0  0  0
  139.6050   70.7810  222.2160 C   0  0  0  0  0  0  0  0  0  0  0  0
  139.1720   69.7630  221.6150 O   0  0  0  0  0  0  0  0  0  0  0  0
  139.9320   70.7110  223.6500 C   0  0  0  0  0  0  0  0  0  0  0  0
  140.3520   71.7880  224.4330 C   0  0  0  0  0  0  0  0  0  0  0  0
  140.5490   71.2570  225.6890 C   0  0  0  0  0  0  0  0  0  0  0  0
  140.9590   71.8620  226.8750 C   0  0  0  0  0  0  0  0  0  0  0  0
  141.0790   71.0480  228.0190 C   0  0  0  0  0  0  0  0  0  0  0  0
  140.7820   69.6660  227.9500 C   0  0  0  0  0  0  0  0  0  0  0  0
  140.9040   68.8930  229.0570 F   0  0  0  0  0  0  0  0  0  0  0  0
  140.3550   69.0890  226.7390 C   0  0  0  0  0  0  0  0  0  0  0  0
  140.2490   69.9200  225.6240 C   0  0  0  0  0  0  0  0  0  0  0  0
  139.8600   69.5740  224.3850 N   0  0  0  0  0  0  0  0  0  0  0  0
  141.0250   72.5690  221.1720 C   0  0  0  0  0  0  0  0  0  0  0  0
  142.2590   71.9110  221.1720 C   0  0  0  0  0  0  0  0  0  0  0  0
  143.4070   72.6420  220.8390 C   0  0  0  0  0  0  0  0  0  0  0  0
  143.3080   74.0090  220.5200 C   0  0  0  0  0  0  0  0  0  0  0  0
  142.0590   74.6490  220.5360 C   0  0  0  0  0  0  0  0  0  0  0  0
  140.9200   73.8990  220.8610 C   0  0  0  0  0  0  0  0  0  0  0  0
  139.3550   75.5420  221.9670 C   0  0  0  0  0  0  0  0  0  0  0  0
  141.0780   78.0370  220.7250 C   0  0  0  0  0  0  0  0  0  0  0  0
  142.2090   78.6840  221.4240 N   0  0  0  0  0  0  0  0  0  0  0  0
  142.9408   80.5701  223.9429 H   0  0  0  0  0  0  0  0  0  0  0  0
  143.8872   80.1261  222.4822 H   0  0  0  0  0  0  0  0  0  0  0  0
  142.8805   81.6137  222.4822 H   0  0  0  0  0  0  0  0  0  0  0  0
  141.1189   80.4513  221.7342 H   0  0  0  0  0  0  0  0  0  0  0  0
  141.5983   78.9415  224.3099 H   0  0  0  0  0  0  0  0  0  0  0  0
  140.1895   79.9609  223.7780 H   0  0  0  0  0  0  0  0  0  0  0  0
  140.7607   77.0473  223.2820 H   0  0  0  0  0  0  0  0  0  0  0  0
  139.2084   77.9013  223.6611 H   0  0  0  0  0  0  0  0  0  0  0  0
  139.1413   78.8294  221.3760 H   0  0  0  0  0  0  0  0  0  0  0  0
  138.3269   76.8987  219.1874 H   0  0  0  0  0  0  0  0  0  0  0  0
  140.0866   76.7079  219.3826 H   0  0  0  0  0  0  0  0  0  0  0  0
  137.8870   74.6201  219.5409 H   0  0  0  0  0  0  0  0  0  0  0  0
  139.4743   74.4716  218.7966 H   0  0  0  0  0  0  0  0  0  0  0  0
  138.3251   73.2030  222.4689 H   0  0  0  0  0  0  0  0  0  0  0  0
  137.9224   72.7919  220.7934 H   0  0  0  0  0  0  0  0  0  0  0  0
  140.4944   72.8318  224.1165 H   0  0  0  0  0  0  0  0  0  0  0  0
  141.1815   72.9384  226.9170 H   0  0  0  0  0  0  0  0  0  0  0  0
  141.4057   71.4897  228.9720 H   0  0  0  0  0  0  0  0  0  0  0  0
  140.1129   68.0179  226.6743 H   0  0  0  0  0  0  0  0  0  0  0  0
  139.5760   68.6230  224.0590 H   0  0  0  0  0  0  0  0  0  0  0  0
  142.3269   70.8433  221.4277 H   0  0  0  0  0  0  0  0  0  0  0  0
  144.3887   72.1458  220.8269 H   0  0  0  0  0  0  0  0  0  0  0  0
  144.2122   74.5777  220.2573 H   0  0  0  0  0  0  0  0  0  0  0  0
  141.9753   75.7196  220.2978 H   0  0  0  0  0  0  0  0  0  0  0  0
  138.5785   75.3216  222.7143 H   0  0  0  0  0  0  0  0  0  0  0  0
  140.3099   75.7103  222.4864 H   0  0  0  0  0  0  0  0  0  0  0  0
  141.3805   77.0159  220.4496 H   0  0  0  0  0  0  0  0  0  0  0  0
  140.8465   78.6617  219.8497 H   0  0  0  0  0  0  0  0  0  0  0  0
  142.8610   79.0720  220.7020 H   0  0  0  0  0  0  0  0  0  0  0  0
  142.7360   77.9690  221.9790 H   0  0  0  0  0  0  0  0  0  0  0  0
  1  2  1  0
  2  3  1  0
  3  4  1  0
  4  5  1  0
  5  6  1  0
  6  7  1  0
  7  8  1  0
  9  8  1  6
  9 10  1  0
 10 11  1  0
 11 12  1  0
 12 13  2  0
 12 14  1  0
 14 15  2  0
 15 16  1  0
 16 17  2  0
 17 18  1  0
 18 19  2  0
 19 20  1  0
 19 21  1  0
 21 22  2  0
 22 23  1  0
 11 24  1  0
 24 25  2  0
 25 26  1  0
 26 27  2  0
 27 28  1  0
 28 29  2  0
  9 30  1  0
  5 31  1  0
 31 32  1  0
 32  2  1  0
 30  6  1  0
 29  9  1  0
 23 14  1  0
 29 24  1  0
 22 16  1  0
  1 33  1  0
  1 34  1  0
  1 35  1  0
  2 36  1  6
  3 37  1  0
  3 38  1  0
  4 39  1  0
  4 40  1  0
  5 41  1  1
  7 42  1  0
  7 43  1  0
  8 44  1  0
  8 45  1  0
 10 46  1  0
 10 47  1  0
 15 48  1  0
 17 49  1  0
 18 50  1  0
 21 51  1  0
 23 52  1  0
 25 53  1  0
 26 54  1  0
 27 55  1  0
 28 56  1  0
 30 57  1  0
 30 58  1  0
 31 59  1  0
 31 60  1  0
 32 61  1  0
 32 62  1  0
M  CHG  1  32   1
M  END
>  <UniqueID>  (23) 
93

>  <SMILES>  (23) 
C[C@@H]1CC[C@H](N2CC[C@]3(CN(C(=O)c4cc5ccc(F)cc5[nH]4)c4ccccc43)C2)C[NH2+]1

>  <Energy>  (23) 
133.88327646162938

>  <Genealogy>  (23) 
C[C@@H]1CCC(N2CC[C@]3(CN(C(=O)c4cc5ccc(F)cc5[nH]4)c4ccccc43)C2)C[NH2+]1 (protonated)
C[C@@H]1CC[C@H](N2CC[C@]3(CN(C(=O)c4cc5ccc(F)cc5[nH]4)c4ccccc43)C2)C[NH2+]1 (chirality)
C[C@@H]1CC[C@H](N2CC[C@]3(CN(C(=O)c4cc5ccc(F)cc5[nH]4)c4ccccc43)C2)C[NH2+]1 (3D coordinates assigned)
C[C@@H]1CC[C@H](N2CC[C@]3(CN(C(=O)c4cc5ccc(F)cc5[nH]4)c4ccccc43)C2)C[NH2+]1 (nonaromatic ring conformer: 133.88327646162938 kcal/mol)

>  <smiles>  (23) 
C[C@@H]1CCC(N2CC[C@]3(CN(C(=O)c4cc5ccc(F)cc5[nH]4)c4ccccc43)C2)CN1

>  <score_type>  (23) 
oracle

>  <origin>  (23) 
autodockgpu

>  <m_score__min__energy>  (23) 
-9.6199999999999992

>  <m_primary>  (23) 
energy

>  <meeko>  (23) 
{"free_energy": -9.51, "intermolecular_energy": -10.41, "internal_energy": -1.34, "cluster_size": 19, "cluster_id": 1, "rank_in_cluster": 13}

>  <energy>  (23) 
-9.61

>  <cluster_rmsd>  (23) 
0.04

>  <rmsd>  (23) 
271.08

>  <cluster>  (23) 
1

$$$$
MYPHZBOANNRFAS-KTSDNHQRNA-O
     RDKit          3D

 62 67  0  0  0  0  0  0  0  0999 V2000
  142.7960   80.7380  223.4070 C   0  0  0  0  0  0  0  0  0  0  0  0
  141.7420   79.9150  222.6510 C   0  0  2  0  0  0  0  0  0  0  0  0
  140.5410   79.5860  223.5660 C   0  0  0  0  0  0  0  0  0  0  0  0
  139.7960   78.3140  223.1210 C   0  0  0  0  0  0  0  0  0  0  0  0
  139.9000   78.1000  221.5930 C   0  0  2  0  0  0  0  0  0  0  0  0
  139.1440   76.8930  221.1600 N   0  0  0  0  0  0  0  0  0  0  0  0
  139.3220   76.5790  219.7330 C   0  0  0  0  0  0  0  0  0  0  0  0
  139.1930   75.0770  219.5820 C   0  0  0  0  0  0  0  0  0  0  0  0
  139.7060   74.5200  220.9070 C   0  0  1  0  0  0  0  0  0  0  0  0
  138.9830   73.1930  221.3290 C   0  0  0  0  0  0  0  0  0  0  0  0
  140.0190   72.1610  221.3640 N   0  0  0  0  0  0  0  0  0  0  0  0
  139.8590   70.9160  222.0460 C   0  0  0  0  0  0  0  0  0  0  0  0
  139.4930   69.8990  221.4010 O   0  0  0  0  0  0  0  0  0  0  0  0
  140.1110   70.8230  223.4940 C   0  0  0  0  0  0  0  0  0  0  0  0
  140.5710   71.8670  224.2980 C   0  0  0  0  0  0  0  0  0  0  0  0
  140.6680   71.3240  225.5610 C   0  0  0  0  0  0  0  0  0  0  0  0
  141.0650   71.8980  226.7680 C   0  0  0  0  0  0  0  0  0  0  0  0
  141.0690   71.0780  227.9140 C   0  0  0  0  0  0  0  0  0  0  0  0
  140.6750   69.7210  227.8260 C   0  0  0  0  0  0  0  0  0  0  0  0
  140.6860   68.9430  228.9360 F   0  0  0  0  0  0  0  0  0  0  0  0
  140.2650   69.1770  226.5950 C   0  0  0  0  0  0  0  0  0  0  0  0
  140.2730   70.0120  225.4780 C   0  0  0  0  0  0  0  0  0  0  0  0
  139.9200   69.6950  224.2210 N   0  0  0  0  0  0  0  0  0  0  0  0
  141.2730   72.7580  221.0910 C   0  0  0  0  0  0  0  0  0  0  0  0
  142.5190   72.1230  221.1100 C   0  0  0  0  0  0  0  0  0  0  0  0
  143.6620   72.8850  220.8310 C   0  0  0  0  0  0  0  0  0  0  0  0
  143.5450   74.2570  220.5440 C   0  0  0  0  0  0  0  0  0  0  0  0
  142.2830   74.8730  220.5380 C   0  0  0  0  0  0  0  0  0  0  0  0
  141.1510   74.0930  220.8110 C   0  0  0  0  0  0  0  0  0  0  0  0
  139.5220   75.6770  221.9100 C   0  0  0  0  0  0  0  0  0  0  0  0
  141.4050   77.9790  221.1930 C   0  0  0  0  0  0  0  0  0  0  0  0
  142.3310   78.6760  222.1110 N   0  0  0  0  0  0  0  0  0  0  0  0
  142.6453   80.6203  224.4903 H   0  0  0  0  0  0  0  0  0  0  0  0
  143.8015   80.3836  223.1360 H   0  0  0  0  0  0  0  0  0  0  0  0
  142.6960   81.7994  223.1360 H   0  0  0  0  0  0  0  0  0  0  0  0
  141.3800   80.5224  221.8084 H   0  0  0  0  0  0  0  0  0  0  0  0
  140.9084   79.4395  224.5924 H   0  0  0  0  0  0  0  0  0  0  0  0
  139.8342   80.4268  223.5074 H   0  0  0  0  0  0  0  0  0  0  0  0
  140.2345   77.4453  223.6340 H   0  0  0  0  0  0  0  0  0  0  0  0
  138.7334   78.4281  223.3814 H   0  0  0  0  0  0  0  0  0  0  0  0
  139.4516   78.9658  221.0837 H   0  0  0  0  0  0  0  0  0  0  0  0
  138.5482   77.0850  219.1370 H   0  0  0  0  0  0  0  0  0  0  0  0
  140.3050   76.9228  219.3786 H   0  0  0  0  0  0  0  0  0  0  0  0
  138.1436   74.7904  219.4189 H   0  0  0  0  0  0  0  0  0  0  0  0
  139.7544   74.6914  218.7182 H   0  0  0  0  0  0  0  0  0  0  0  0
  138.5241   73.3073  222.3221 H   0  0  0  0  0  0  0  0  0  0  0  0
  138.1788   72.9319  220.6254 H   0  0  0  0  0  0  0  0  0  0  0  0
  140.8048   72.8971  223.9910 H   0  0  0  0  0  0  0  0  0  0  0  0
  141.3649   72.9549  226.8238 H   0  0  0  0  0  0  0  0  0  0  0  0
  141.3802   71.4949  228.8832 H   0  0  0  0  0  0  0  0  0  0  0  0
  139.9482   68.1266  226.5161 H   0  0  0  0  0  0  0  0  0  0  0  0
  139.5830   68.7670  223.8800 H   0  0  0  0  0  0  0  0  0  0  0  0
  142.6002   71.0501  221.3387 H   0  0  0  0  0  0  0  0  0  0  0  0
  144.6534   72.4086  220.8365 H   0  0  0  0  0  0  0  0  0  0  0  0
  144.4452   74.8495  220.3235 H   0  0  0  0  0  0  0  0  0  0  0  0
  142.1848   75.9473  220.3231 H   0  0  0  0  0  0  0  0  0  0  0  0
  138.7287   75.4226  222.6283 H   0  0  0  0  0  0  0  0  0  0  0  0
  140.4581   75.8502  222.4611 H   0  0  0  0  0  0  0  0  0  0  0  0
  141.6733   76.9124  221.1757 H   0  0  0  0  0  0  0  0  0  0  0  0
  141.5116   78.4596  220.2093 H   0  0  0  0  0  0  0  0  0  0  0  0
  143.2060   78.9040  221.5820 H   0  0  0  0  0  0  0  0  0  0  0  0
  142.5920   78.0360  222.9000 H   0  0  0  0  0  0  0  0  0  0  0  0
  1  2  1  0
  2  3  1  0
  3  4  1  0
  4  5  1  0
  5  6  1  0
  6  7  1  0
  7  8  1  0
  9  8  1  6
  9 10  1  0
 10 11  1  0
 11 12  1  0
 12 13  2  0
 12 14  1  0
 14 15  2  0
 15 16  1  0
 16 17  2  0
 17 18  1  0
 18 19  2  0
 19 20  1  0
 19 21  1  0
 21 22  2  0
 22 23  1  0
 11 24  1  0
 24 25  2  0
 25 26  1  0
 26 27  2  0
 27 28  1  0
 28 29  2  0
  9 30  1  0
  5 31  1  0
 31 32  1  0
 32  2  1  0
 30  6  1  0
 29  9  1  0
 23 14  1  0
 29 24  1  0
 22 16  1  0
  1 33  1  0
  1 34  1  0
  1 35  1  0
  2 36  1  6
  3 37  1  0
  3 38  1  0
  4 39  1  0
  4 40  1  0
  5 41  1  6
  7 42  1  0
  7 43  1  0
  8 44  1  0
  8 45  1  0
 10 46  1  0
 10 47  1  0
 15 48  1  0
 17 49  1  0
 18 50  1  0
 21 51  1  0
 23 52  1  0
 25 53  1  0
 26 54  1  0
 27 55  1  0
 28 56  1  0
 30 57  1  0
 30 58  1  0
 31 59  1  0
 31 60  1  0
 32 61  1  0
 32 62  1  0
M  CHG  1  32   1
M  END
>  <UniqueID>  (24) 
93

>  <SMILES>  (24) 
C[C@@H]1CC[C@H](N2CC[C@]3(CN(C(=O)c4cc5ccc(F)cc5[nH]4)c4ccccc43)C2)C[NH2+]1

>  <Energy>  (24) 
133.88327646162938

>  <Genealogy>  (24) 
C[C@@H]1CCC(N2CC[C@]3(CN(C(=O)c4cc5ccc(F)cc5[nH]4)c4ccccc43)C2)C[NH2+]1 (protonated)
C[C@@H]1CC[C@H](N2CC[C@]3(CN(C(=O)c4cc5ccc(F)cc5[nH]4)c4ccccc43)C2)C[NH2+]1 (chirality)
C[C@@H]1CC[C@H](N2CC[C@]3(CN(C(=O)c4cc5ccc(F)cc5[nH]4)c4ccccc43)C2)C[NH2+]1 (3D coordinates assigned)
C[C@@H]1CC[C@H](N2CC[C@]3(CN(C(=O)c4cc5ccc(F)cc5[nH]4)c4ccccc43)C2)C[NH2+]1 (nonaromatic ring conformer: 133.88327646162938 kcal/mol)

>  <smiles>  (24) 
C[C@@H]1CCC(N2CC[C@]3(CN(C(=O)c4cc5ccc(F)cc5[nH]4)c4ccccc43)C2)CN1

>  <score_type>  (24) 
oracle

>  <origin>  (24) 
autodockgpu

>  <m_score__min__energy>  (24) 
-9.6199999999999992

>  <m_primary>  (24) 
energy

>  <meeko>  (24) 
{"free_energy": -9.59, "intermolecular_energy": -10.49, "internal_energy": -1.28, "cluster_size": 19, "cluster_id": 1, "rank_in_cluster": 10}

>  <energy>  (24) 
-9.61

>  <cluster_rmsd>  (24) 
0.26

>  <rmsd>  (24) 
271.11

>  <cluster>  (24) 
1

$$$$
MYPHZBOANNRFAS-KTSDNHQRNA-O
     RDKit          3D

 62 67  0  0  0  0  0  0  0  0999 V2000
  142.8520   80.7310  223.3500 C   0  0  0  0  0  0  0  0  0  0  0  0
  141.7900   79.9100  222.6040 C   0  0  2  0  0  0  0  0  0  0  0  0
  140.5880   79.5980  223.5240 C   0  0  0  0  0  0  0  0  0  0  0  0
  139.8310   78.3290  223.0900 C   0  0  0  0  0  0  0  0  0  0  0  0
  139.9300   78.1030  221.5630 C   0  0  2  0  0  0  0  0  0  0  0  0
  139.1630   76.8990  221.1410 N   0  0  0  0  0  0  0  0  0  0  0  0
  139.3320   76.5760  219.7160 C   0  0  0  0  0  0  0  0  0  0  0  0
  139.1910   75.0740  219.5740 C   0  0  0  0  0  0  0  0  0  0  0  0
  139.7070   74.5210  220.8990 C   0  0  1  0  0  0  0  0  0  0  0  0
  138.9760   73.2010  221.3320 C   0  0  0  0  0  0  0  0  0  0  0  0
  140.0050   72.1620  221.3670 N   0  0  0  0  0  0  0  0  0  0  0  0
  139.8390   70.9220  222.0580 C   0  0  0  0  0  0  0  0  0  0  0  0
  139.4600   69.9050  221.4200 O   0  0  0  0  0  0  0  0  0  0  0  0
  140.1010   70.8350  223.5040 C   0  0  0  0  0  0  0  0  0  0  0  0
  140.5410   71.8890  224.3070 C   0  0  0  0  0  0  0  0  0  0  0  0
  140.6570   71.3480  225.5680 C   0  0  0  0  0  0  0  0  0  0  0  0
  141.0460   71.9310  226.7730 C   0  0  0  0  0  0  0  0  0  0  0  0
  141.0750   71.1120  227.9190 C   0  0  0  0  0  0  0  0  0  0  0  0
  140.7120   69.7460  227.8330 C   0  0  0  0  0  0  0  0  0  0  0  0
  140.7470   68.9680  228.9430 F   0  0  0  0  0  0  0  0  0  0  0  0
  140.3080   69.1920  226.6040 C   0  0  0  0  0  0  0  0  0  0  0  0
  140.2920   70.0280  225.4870 C   0  0  0  0  0  0  0  0  0  0  0  0
  139.9400   69.7030  224.2320 N   0  0  0  0  0  0  0  0  0  0  0  0
  141.2620   72.7480  221.0850 C   0  0  0  0  0  0  0  0  0  0  0  0
  142.5030   72.1040  221.1010 C   0  0  0  0  0  0  0  0  0  0  0  0
  143.6500   72.8560  220.8110 C   0  0  0  0  0  0  0  0  0  0  0  0
  143.5410   74.2270  220.5170 C   0  0  0  0  0  0  0  0  0  0  0  0
  142.2840   74.8520  220.5150 C   0  0  0  0  0  0  0  0  0  0  0  0
  141.1480   74.0830  220.7970 C   0  0  0  0  0  0  0  0  0  0  0  0
  139.5360   75.6840  221.8970 C   0  0  0  0  0  0  0  0  0  0  0  0
  141.4330   77.9670  221.1610 C   0  0  0  0  0  0  0  0  0  0  0  0
  142.3670   78.6630  222.0720 N   0  0  0  0  0  0  0  0  0  0  0  0
  142.7070   80.6189  224.4346 H   0  0  0  0  0  0  0  0  0  0  0  0
  143.8542   80.3705  223.0749 H   0  0  0  0  0  0  0  0  0  0  0  0
  142.7555   81.7917  223.0749 H   0  0  0  0  0  0  0  0  0  0  0  0
  141.4309   80.5138  221.7576 H   0  0  0  0  0  0  0  0  0  0  0  0
  140.9564   79.4559  224.5507 H   0  0  0  0  0  0  0  0  0  0  0  0
  139.8883   80.4444  223.4606 H   0  0  0  0  0  0  0  0  0  0  0  0
  140.2631   77.4604  223.6085 H   0  0  0  0  0  0  0  0  0  0  0  0
  138.7700   78.4541  223.3519 H   0  0  0  0  0  0  0  0  0  0  0  0
  139.4877   78.9685  221.0478 H   0  0  0  0  0  0  0  0  0  0  0  0
  138.5593   77.0845  219.1207 H   0  0  0  0  0  0  0  0  0  0  0  0
  140.3159   76.9104  219.3552 H   0  0  0  0  0  0  0  0  0  0  0  0
  138.1386   74.7942  219.4182 H   0  0  0  0  0  0  0  0  0  0  0  0
  139.7447   74.6794  218.7093 H   0  0  0  0  0  0  0  0  0  0  0  0
  138.5231   73.3238  222.3269 H   0  0  0  0  0  0  0  0  0  0  0  0
  138.1661   72.9420  220.6342 H   0  0  0  0  0  0  0  0  0  0  0  0
  140.7493   72.9245  223.9998 H   0  0  0  0  0  0  0  0  0  0  0  0
  141.3211   72.9947  226.8273 H   0  0  0  0  0  0  0  0  0  0  0  0
  141.3815   71.5363  228.8865 H   0  0  0  0  0  0  0  0  0  0  0  0
  140.0145   68.1347  226.5265 H   0  0  0  0  0  0  0  0  0  0  0  0
  139.6220   68.7670  223.8920 H   0  0  0  0  0  0  0  0  0  0  0  0
  142.5776   71.0319  221.3357 H   0  0  0  0  0  0  0  0  0  0  0  0
  144.6380   72.3724  220.8134 H   0  0  0  0  0  0  0  0  0  0  0  0
  144.4441   74.8117  220.2878 H   0  0  0  0  0  0  0  0  0  0  0  0
  142.1930   75.9261  220.2959 H   0  0  0  0  0  0  0  0  0  0  0  0
  138.7442   75.4391  222.6202 H   0  0  0  0  0  0  0  0  0  0  0  0
  140.4755   75.8533  222.4435 H   0  0  0  0  0  0  0  0  0  0  0  0
  141.6925   76.8981  221.1508 H   0  0  0  0  0  0  0  0  0  0  0  0
  141.5413   78.4399  220.1738 H   0  0  0  0  0  0  0  0  0  0  0  0
  143.2430   78.8800  221.5390 H   0  0  0  0  0  0  0  0  0  0  0  0
  142.6250   78.0270  222.8640 H   0  0  0  0  0  0  0  0  0  0  0  0
  1  2  1  0
  2  3  1  0
  3  4  1  0
  4  5  1  0
  5  6  1  0
  6  7  1  0
  7  8  1  0
  9  8  1  6
  9 10  1  0
 10 11  1  0
 11 12  1  0
 12 13  2  0
 12 14  1  0
 14 15  2  0
 15 16  1  0
 16 17  2  0
 17 18  1  0
 18 19  2  0
 19 20  1  0
 19 21  1  0
 21 22  2  0
 22 23  1  0
 11 24  1  0
 24 25  2  0
 25 26  1  0
 26 27  2  0
 27 28  1  0
 28 29  2  0
  9 30  1  0
  5 31  1  0
 31 32  1  0
 32  2  1  0
 30  6  1  0
 29  9  1  0
 23 14  1  0
 29 24  1  0
 22 16  1  0
  1 33  1  0
  1 34  1  0
  1 35  1  0
  2 36  1  6
  3 37  1  0
  3 38  1  0
  4 39  1  0
  4 40  1  0
  5 41  1  6
  7 42  1  0
  7 43  1  0
  8 44  1  0
  8 45  1  0
 10 46  1  0
 10 47  1  0
 15 48  1  0
 17 49  1  0
 18 50  1  0
 21 51  1  0
 23 52  1  0
 25 53  1  0
 26 54  1  0
 27 55  1  0
 28 56  1  0
 30 57  1  0
 30 58  1  0
 31 59  1  0
 31 60  1  0
 32 61  1  0
 32 62  1  0
M  CHG  1  32   1
M  END
>  <UniqueID>  (25) 
93

>  <SMILES>  (25) 
C[C@@H]1CC[C@H](N2CC[C@]3(CN(C(=O)c4cc5ccc(F)cc5[nH]4)c4ccccc43)C2)C[NH2+]1

>  <Energy>  (25) 
133.88327646162938

>  <Genealogy>  (25) 
C[C@@H]1CCC(N2CC[C@]3(CN(C(=O)c4cc5ccc(F)cc5[nH]4)c4ccccc43)C2)C[NH2+]1 (protonated)
C[C@@H]1CC[C@H](N2CC[C@]3(CN(C(=O)c4cc5ccc(F)cc5[nH]4)c4ccccc43)C2)C[NH2+]1 (chirality)
C[C@@H]1CC[C@H](N2CC[C@]3(CN(C(=O)c4cc5ccc(F)cc5[nH]4)c4ccccc43)C2)C[NH2+]1 (3D coordinates assigned)
C[C@@H]1CC[C@H](N2CC[C@]3(CN(C(=O)c4cc5ccc(F)cc5[nH]4)c4ccccc43)C2)C[NH2+]1 (nonaromatic ring conformer: 133.88327646162938 kcal/mol)

>  <smiles>  (25) 
C[C@@H]1CCC(N2CC[C@]3(CN(C(=O)c4cc5ccc(F)cc5[nH]4)c4ccccc43)C2)CN1

>  <score_type>  (25) 
oracle

>  <origin>  (25) 
autodockgpu

>  <m_score__min__energy>  (25) 
-9.6199999999999992

>  <m_primary>  (25) 
energy

>  <meeko>  (25) 
{"free_energy": -9.6, "intermolecular_energy": -10.49, "internal_energy": -1.28, "cluster_size": 19, "cluster_id": 1, "rank_in_cluster": 8}

>  <energy>  (25) 
-9.61

>  <cluster_rmsd>  (25) 
0.27

>  <rmsd>  (25) 
271.12

>  <cluster>  (25) 
1

$$$$
MYPHZBOANNRFAS-KTSDNHQRNA-O
     RDKit          3D

 62 67  0  0  0  0  0  0  0  0999 V2000
  142.8270   80.6570  223.0410 C   0  0  0  0  0  0  0  0  0  0  0  0
  141.6800   79.8470  222.4200 C   0  0  2  0  0  0  0  0  0  0  0  0
  140.6890   79.3720  223.5070 C   0  0  0  0  0  0  0  0  0  0  0  0
  139.9220   78.1050  223.0880 C   0  0  0  0  0  0  0  0  0  0  0  0
  139.7380   78.0330  221.5540 C   0  0  2  0  0  0  0  0  0  0  0  0
  138.9600   76.8290  221.1550 N   0  0  0  0  0  0  0  0  0  0  0  0
  139.1140   76.4840  219.7320 C   0  0  0  0  0  0  0  0  0  0  0  0
  138.9620   74.9820  219.6130 C   0  0  0  0  0  0  0  0  0  0  0  0
  139.4850   74.4430  220.9400 C   0  0  1  0  0  0  0  0  0  0  0  0
  138.7500   73.1350  221.3980 C   0  0  0  0  0  0  0  0  0  0  0  0
  139.7720   72.0890  221.4390 N   0  0  0  0  0  0  0  0  0  0  0  0
  139.6040   70.8600  222.1470 C   0  0  0  0  0  0  0  0  0  0  0  0
  139.1660   69.8490  221.5380 O   0  0  0  0  0  0  0  0  0  0  0  0
  139.9320   70.7760  223.5800 C   0  0  0  0  0  0  0  0  0  0  0  0
  140.3640   71.8430  224.3700 C   0  0  0  0  0  0  0  0  0  0  0  0
  140.5560   71.3010  225.6220 C   0  0  0  0  0  0  0  0  0  0  0  0
  140.9750   71.8940  226.8120 C   0  0  0  0  0  0  0  0  0  0  0  0
  141.0870   71.0710  227.9500 C   0  0  0  0  0  0  0  0  0  0  0  0
  140.7750   69.6920  227.8720 C   0  0  0  0  0  0  0  0  0  0  0  0
  140.8890   68.9100  228.9730 F   0  0  0  0  0  0  0  0  0  0  0  0
  140.3400   69.1280  226.6570 C   0  0  0  0  0  0  0  0  0  0  0  0
  140.2420   69.9680  225.5480 C   0  0  0  0  0  0  0  0  0  0  0  0
  139.8480   69.6350  224.3070 N   0  0  0  0  0  0  0  0  0  0  0  0
  141.0300   72.6630  221.1370 C   0  0  0  0  0  0  0  0  0  0  0  0
  142.2680   72.0110  221.1510 C   0  0  0  0  0  0  0  0  0  0  0  0
  143.4170   72.7510  220.8410 C   0  0  0  0  0  0  0  0  0  0  0  0
  143.3150   74.1190  220.5300 C   0  0  0  0  0  0  0  0  0  0  0  0
  142.0620   74.7520  220.5300 C   0  0  0  0  0  0  0  0  0  0  0  0
  140.9230   73.9940  220.8320 C   0  0  0  0  0  0  0  0  0  0  0  0
  139.3310   75.6210  221.9240 C   0  0  0  0  0  0  0  0  0  0  0  0
  141.1430   78.0310  220.8690 C   0  0  0  0  0  0  0  0  0  0  0  0
  142.2010   78.6950  221.6610 N   0  0  0  0  0  0  0  0  0  0  0  0
  142.7583   80.6085  224.1378 H   0  0  0  0  0  0  0  0  0  0  0  0
  143.7903   80.2378  222.7151 H   0  0  0  0  0  0  0  0  0  0  0  0
  142.7541   81.7051  222.7151 H   0  0  0  0  0  0  0  0  0  0  0  0
  141.1406   80.5058  221.7235 H   0  0  0  0  0  0  0  0  0  0  0  0
  141.2511   79.1565  224.4277 H   0  0  0  0  0  0  0  0  0  0  0  0
  139.9524   80.1739  223.6630 H   0  0  0  0  0  0  0  0  0  0  0  0
  140.4840   77.2204  223.4222 H   0  0  0  0  0  0  0  0  0  0  0  0
  138.9257   78.1358  223.5533 H   0  0  0  0  0  0  0  0  0  0  0  0
  139.1672   78.9138  221.2249 H   0  0  0  0  0  0  0  0  0  0  0  0
  138.3392   76.9890  219.1364 H   0  0  0  0  0  0  0  0  0  0  0  0
  140.0967   76.8065  219.3575 H   0  0  0  0  0  0  0  0  0  0  0  0
  137.9065   74.7075  219.4700 H   0  0  0  0  0  0  0  0  0  0  0  0
  139.5064   74.5720  218.7495 H   0  0  0  0  0  0  0  0  0  0  0  0
  138.3069   73.2752  222.3950 H   0  0  0  0  0  0  0  0  0  0  0  0
  137.9325   72.8716  220.7108 H   0  0  0  0  0  0  0  0  0  0  0  0
  140.5174   72.8874  224.0606 H   0  0  0  0  0  0  0  0  0  0  0  0
  141.2101   72.9675  226.8608 H   0  0  0  0  0  0  0  0  0  0  0  0
  141.4191   71.5027  228.9057 H   0  0  0  0  0  0  0  0  0  0  0  0
  140.0859   68.0602  226.5851 H   0  0  0  0  0  0  0  0  0  0  0  0
  139.5540   68.6890  223.9750 H   0  0  0  0  0  0  0  0  0  0  0  0
  142.3378   70.9418  221.3997 H   0  0  0  0  0  0  0  0  0  0  0  0
  144.4016   72.2606  220.8409 H   0  0  0  0  0  0  0  0  0  0  0  0
  144.2200   74.6947  220.2860 H   0  0  0  0  0  0  0  0  0  0  0  0
  141.9760   75.8236  220.2971 H   0  0  0  0  0  0  0  0  0  0  0  0
  138.5438   75.3916  222.6573 H   0  0  0  0  0  0  0  0  0  0  0  0
  140.2765   75.7908  222.4599 H   0  0  0  0  0  0  0  0  0  0  0  0
  141.4429   76.9865  220.6986 H   0  0  0  0  0  0  0  0  0  0  0  0
  141.0412   78.6012  219.9339 H   0  0  0  0  0  0  0  0  0  0  0  0
  142.9490   79.0170  221.0020 H   0  0  0  0  0  0  0  0  0  0  0  0
  142.6320   78.0040  222.3200 H   0  0  0  0  0  0  0  0  0  0  0  0
  1  2  1  0
  2  3  1  0
  3  4  1  0
  4  5  1  0
  5  6  1  0
  6  7  1  0
  7  8  1  0
  9  8  1  6
  9 10  1  0
 10 11  1  0
 11 12  1  0
 12 13  2  0
 12 14  1  0
 14 15  2  0
 15 16  1  0
 16 17  2  0
 17 18  1  0
 18 19  2  0
 19 20  1  0
 19 21  1  0
 21 22  2  0
 22 23  1  0
 11 24  1  0
 24 25  2  0
 25 26  1  0
 26 27  2  0
 27 28  1  0
 28 29  2  0
  9 30  1  0
  5 31  1  0
 31 32  1  0
 32  2  1  0
 30  6  1  0
 29  9  1  0
 23 14  1  0
 29 24  1  0
 22 16  1  0
  1 33  1  0
  1 34  1  0
  1 35  1  0
  2 36  1  6
  3 37  1  0
  3 38  1  0
  4 39  1  0
  4 40  1  0
  5 41  1  6
  7 42  1  0
  7 43  1  0
  8 44  1  0
  8 45  1  0
 10 46  1  0
 10 47  1  0
 15 48  1  0
 17 49  1  0
 18 50  1  0
 21 51  1  0
 23 52  1  0
 25 53  1  0
 26 54  1  0
 27 55  1  0
 28 56  1  0
 30 57  1  0
 30 58  1  0
 31 59  1  0
 31 60  1  0
 32 61  1  0
 32 62  1  0
M  CHG  1  32   1
M  END
>  <UniqueID>  (26) 
93

>  <SMILES>  (26) 
C[C@@H]1CC[C@H](N2CC[C@]3(CN(C(=O)c4cc5ccc(F)cc5[nH]4)c4ccccc43)C2)C[NH2+]1

>  <Energy>  (26) 
133.88327646162938

>  <Genealogy>  (26) 
C[C@@H]1CCC(N2CC[C@]3(CN(C(=O)c4cc5ccc(F)cc5[nH]4)c4ccccc43)C2)C[NH2+]1 (protonated)
C[C@@H]1CC[C@H](N2CC[C@]3(CN(C(=O)c4cc5ccc(F)cc5[nH]4)c4ccccc43)C2)C[NH2+]1 (chirality)
C[C@@H]1CC[C@H](N2CC[C@]3(CN(C(=O)c4cc5ccc(F)cc5[nH]4)c4ccccc43)C2)C[NH2+]1 (3D coordinates assigned)
C[C@@H]1CC[C@H](N2CC[C@]3(CN(C(=O)c4cc5ccc(F)cc5[nH]4)c4ccccc43)C2)C[NH2+]1 (nonaromatic ring conformer: 133.88327646162938 kcal/mol)

>  <smiles>  (26) 
C[C@@H]1CCC(N2CC[C@]3(CN(C(=O)c4cc5ccc(F)cc5[nH]4)c4ccccc43)C2)CN1

>  <score_type>  (26) 
oracle

>  <origin>  (26) 
autodockgpu

>  <m_score__min__energy>  (26) 
-9.6199999999999992

>  <m_primary>  (26) 
energy

>  <meeko>  (26) 
{"free_energy": -9.53, "intermolecular_energy": -10.43, "internal_energy": -1.32, "cluster_size": 19, "cluster_id": 1, "rank_in_cluster": 11}

>  <energy>  (26) 
-9.6

>  <cluster_rmsd>  (26) 
0.27

>  <rmsd>  (26) 
271.12

>  <cluster>  (26) 
1

$$$$
MYPHZBOANNRFAS-KTSDNHQRNA-O
     RDKit          3D

 62 67  0  0  0  0  0  0  0  0999 V2000
  142.8500   80.8400  223.3890 C   0  0  0  0  0  0  0  0  0  0  0  0
  141.7970   80.0150  222.6340 C   0  0  2  0  0  0  0  0  0  0  0  0
  140.5820   79.7100  223.5410 C   0  0  0  0  0  0  0  0  0  0  0  0
  139.8310   78.4390  223.1060 C   0  0  0  0  0  0  0  0  0  0  0  0
  139.9490   78.2020  221.5820 C   0  0  2  0  0  0  0  0  0  0  0  0
  139.1860   76.9960  221.1580 N   0  0  0  0  0  0  0  0  0  0  0  0
  139.3430   76.6860  219.7280 C   0  0  0  0  0  0  0  0  0  0  0  0
  139.2120   75.1840  219.5750 C   0  0  0  0  0  0  0  0  0  0  0  0
  139.7450   74.6240  220.8900 C   0  0  1  0  0  0  0  0  0  0  0  0
  139.0290   73.2950  221.3200 C   0  0  0  0  0  0  0  0  0  0  0  0
  140.0660   72.2640  221.3360 N   0  0  0  0  0  0  0  0  0  0  0  0
  139.9170   71.0180  222.0180 C   0  0  0  0  0  0  0  0  0  0  0  0
  139.6470   69.9790  221.3580 O   0  0  0  0  0  0  0  0  0  0  0  0
  140.0680   70.9460  223.4800 C   0  0  0  0  0  0  0  0  0  0  0  0
  140.6960   71.9100  224.2720 C   0  0  0  0  0  0  0  0  0  0  0  0
  140.6100   71.4220  225.5570 C   0  0  0  0  0  0  0  0  0  0  0  0
  141.0560   71.9600  226.7630 C   0  0  0  0  0  0  0  0  0  0  0  0
  140.8280   71.2160  227.9380 C   0  0  0  0  0  0  0  0  0  0  0  0
  140.1610   69.9690  227.8780 C   0  0  0  0  0  0  0  0  0  0  0  0
  139.9500   69.2610  229.0150 F   0  0  0  0  0  0  0  0  0  0  0  0
  139.7100   69.4610  226.6450 C   0  0  0  0  0  0  0  0  0  0  0  0
  139.9530   70.2190  225.5000 C   0  0  0  0  0  0  0  0  0  0  0  0
  139.6060   69.9210  224.2370 N   0  0  0  0  0  0  0  0  0  0  0  0
  141.3150   72.8620  221.0450 C   0  0  0  0  0  0  0  0  0  0  0  0
  142.5620   72.2270  221.0430 C   0  0  0  0  0  0  0  0  0  0  0  0
  143.7000   72.9900  220.7480 C   0  0  0  0  0  0  0  0  0  0  0  0
  143.5780   74.3630  220.4660 C   0  0  0  0  0  0  0  0  0  0  0  0
  142.3160   74.9780  220.4820 C   0  0  0  0  0  0  0  0  0  0  0  0
  141.1890   74.1980  220.7700 C   0  0  0  0  0  0  0  0  0  0  0  0
  139.5760   75.7780  221.8990 C   0  0  0  0  0  0  0  0  0  0  0  0
  141.4570   78.0620  221.2000 C   0  0  0  0  0  0  0  0  0  0  0  0
  142.3800   78.7640  222.1180 N   0  0  0  0  0  0  0  0  0  0  0  0
  142.7001   80.7225  224.4724 H   0  0  0  0  0  0  0  0  0  0  0  0
  143.8559   80.4871  223.1176 H   0  0  0  0  0  0  0  0  0  0  0  0
  142.7481   81.9011  223.1176 H   0  0  0  0  0  0  0  0  0  0  0  0
  141.4497   80.6133  221.7788 H   0  0  0  0  0  0  0  0  0  0  0  0
  140.9367   79.5751  224.5735 H   0  0  0  0  0  0  0  0  0  0  0  0
  139.8836   80.5562  223.4627 H   0  0  0  0  0  0  0  0  0  0  0  0
  140.2563   77.5740  223.6359 H   0  0  0  0  0  0  0  0  0  0  0  0
  138.7667   78.5664  223.3532 H   0  0  0  0  0  0  0  0  0  0  0  0
  139.5139   79.0642  221.0555 H   0  0  0  0  0  0  0  0  0  0  0  0
  138.5604   77.1934  219.1448 H   0  0  0  0  0  0  0  0  0  0  0  0
  140.3205   77.0310  219.3600 H   0  0  0  0  0  0  0  0  0  0  0  0
  138.1603   74.8975  219.4271 H   0  0  0  0  0  0  0  0  0  0  0  0
  139.7603   74.8008  218.7018 H   0  0  0  0  0  0  0  0  0  0  0  0
  138.5857   73.4064  222.3205 H   0  0  0  0  0  0  0  0  0  0  0  0
  138.2139   73.0352  220.6286 H   0  0  0  0  0  0  0  0  0  0  0  0
  141.1579   72.8522  223.9419 H   0  0  0  0  0  0  0  0  0  0  0  0
  141.5687   72.9326  226.7965 H   0  0  0  0  0  0  0  0  0  0  0  0
  141.1705   71.6067  228.9076 H   0  0  0  0  0  0  0  0  0  0  0  0
  139.1830   68.4973  226.5866 H   0  0  0  0  0  0  0  0  0  0  0  0
  139.0980   69.0680  223.9110 H   0  0  0  0  0  0  0  0  0  0  0  0
  142.6471   71.1536  221.2678 H   0  0  0  0  0  0  0  0  0  0  0  0
  144.6916   72.5139  220.7369 H   0  0  0  0  0  0  0  0  0  0  0  0
  144.4742   74.9565  220.2323 H   0  0  0  0  0  0  0  0  0  0  0  0
  142.2142   76.0530  220.2721 H   0  0  0  0  0  0  0  0  0  0  0  0
  138.7939   75.5213  222.6287 H   0  0  0  0  0  0  0  0  0  0  0  0
  140.5203   75.9500  222.4362 H   0  0  0  0  0  0  0  0  0  0  0  0
  141.7158   76.9929  221.2008 H   0  0  0  0  0  0  0  0  0  0  0  0
  141.5783   78.5276  220.2108 H   0  0  0  0  0  0  0  0  0  0  0  0
  143.2620   78.9770  221.5950 H   0  0  0  0  0  0  0  0  0  0  0  0
  142.6270   78.1330  222.9180 H   0  0  0  0  0  0  0  0  0  0  0  0
  1  2  1  0
  2  3  1  0
  3  4  1  0
  4  5  1  0
  5  6  1  0
  6  7  1  0
  7  8  1  0
  9  8  1  6
  9 10  1  0
 10 11  1  0
 11 12  1  0
 12 13  2  0
 12 14  1  0
 14 15  2  0
 15 16  1  0
 16 17  2  0
 17 18  1  0
 18 19  2  0
 19 20  1  0
 19 21  1  0
 21 22  2  0
 22 23  1  0
 11 24  1  0
 24 25  2  0
 25 26  1  0
 26 27  2  0
 27 28  1  0
 28 29  2  0
  9 30  1  0
  5 31  1  0
 31 32  1  0
 32  2  1  0
 30  6  1  0
 29  9  1  0
 23 14  1  0
 29 24  1  0
 22 16  1  0
  1 33  1  0
  1 34  1  0
  1 35  1  0
  2 36  1  6
  3 37  1  0
  3 38  1  0
  4 39  1  0
  4 40  1  0
  5 41  1  6
  7 42  1  0
  7 43  1  0
  8 44  1  0
  8 45  1  0
 10 46  1  0
 10 47  1  0
 15 48  1  0
 17 49  1  0
 18 50  1  0
 21 51  1  0
 23 52  1  0
 25 53  1  0
 26 54  1  0
 27 55  1  0
 28 56  1  0
 30 57  1  0
 30 58  1  0
 31 59  1  0
 31 60  1  0
 32 61  1  0
 32 62  1  0
M  CHG  1  32   1
M  END
>  <UniqueID>  (27) 
93

>  <SMILES>  (27) 
C[C@@H]1CC[C@H](N2CC[C@]3(CN(C(=O)c4cc5ccc(F)cc5[nH]4)c4ccccc43)C2)C[NH2+]1

>  <Energy>  (27) 
133.88327646162938

>  <Genealogy>  (27) 
C[C@@H]1CCC(N2CC[C@]3(CN(C(=O)c4cc5ccc(F)cc5[nH]4)c4ccccc43)C2)C[NH2+]1 (protonated)
C[C@@H]1CC[C@H](N2CC[C@]3(CN(C(=O)c4cc5ccc(F)cc5[nH]4)c4ccccc43)C2)C[NH2+]1 (chirality)
C[C@@H]1CC[C@H](N2CC[C@]3(CN(C(=O)c4cc5ccc(F)cc5[nH]4)c4ccccc43)C2)C[NH2+]1 (3D coordinates assigned)
C[C@@H]1CC[C@H](N2CC[C@]3(CN(C(=O)c4cc5ccc(F)cc5[nH]4)c4ccccc43)C2)C[NH2+]1 (nonaromatic ring conformer: 133.88327646162938 kcal/mol)

>  <smiles>  (27) 
C[C@@H]1CCC(N2CC[C@]3(CN(C(=O)c4cc5ccc(F)cc5[nH]4)c4ccccc43)C2)CN1

>  <score_type>  (27) 
oracle

>  <origin>  (27) 
autodockgpu

>  <m_score__min__energy>  (27) 
-9.6199999999999992

>  <m_primary>  (27) 
energy

>  <meeko>  (27) 
{"free_energy": -9.62, "intermolecular_energy": -10.51, "internal_energy": -1.24, "cluster_size": 19, "cluster_id": 1, "rank_in_cluster": 1}

>  <energy>  (27) 
-9.6

>  <cluster_rmsd>  (27) 
0.27

>  <rmsd>  (27) 
271.12

>  <cluster>  (27) 
1

$$$$
MYPHZBOANNRFAS-KTSDNHQRNA-O
     RDKit          3D

 62 67  0  0  0  0  0  0  0  0999 V2000
  142.9360   80.5900  222.8600 C   0  0  0  0  0  0  0  0  0  0  0  0
  141.7460   79.7780  222.3270 C   0  0  2  0  0  0  0  0  0  0  0  0
  140.9040   79.2070  223.4910 C   0  0  0  0  0  0  0  0  0  0  0  0
  140.1270   77.9410  223.0870 C   0  0  0  0  0  0  0  0  0  0  0  0
  139.7660   77.9520  221.5830 C   0  0  2  0  0  0  0  0  0  0  0  0
  138.9790   76.7470  221.2040 N   0  0  0  0  0  0  0  0  0  0  0  0
  139.1100   76.3940  219.7810 C   0  0  0  0  0  0  0  0  0  0  0  0
  138.9530   74.8910  219.6730 C   0  0  0  0  0  0  0  0  0  0  0  0
  139.4960   74.3590  220.9960 C   0  0  1  0  0  0  0  0  0  0  0  0
  138.7660   73.0550  221.4730 C   0  0  0  0  0  0  0  0  0  0  0  0
  139.7860   72.0080  221.5040 N   0  0  0  0  0  0  0  0  0  0  0  0
  139.6270   70.7840  222.2230 C   0  0  0  0  0  0  0  0  0  0  0  0
  139.2020   69.7630  221.6200 O   0  0  0  0  0  0  0  0  0  0  0  0
  139.9480   70.7160  223.6580 C   0  0  0  0  0  0  0  0  0  0  0  0
  140.3680   71.7930  224.4400 C   0  0  0  0  0  0  0  0  0  0  0  0
  140.5580   71.2650  225.6980 C   0  0  0  0  0  0  0  0  0  0  0  0
  140.9660   71.8720  226.8850 C   0  0  0  0  0  0  0  0  0  0  0  0
  141.0780   71.0610  228.0310 C   0  0  0  0  0  0  0  0  0  0  0  0
  140.7760   69.6790  227.9640 C   0  0  0  0  0  0  0  0  0  0  0  0
  140.8910   68.9090  229.0740 F   0  0  0  0  0  0  0  0  0  0  0  0
  140.3520   69.1010  226.7530 C   0  0  0  0  0  0  0  0  0  0  0  0
  140.2530   69.9290  225.6350 C   0  0  0  0  0  0  0  0  0  0  0  0
  139.8690   69.5810  224.3960 N   0  0  0  0  0  0  0  0  0  0  0  0
  141.0400   72.5770  221.1790 C   0  0  0  0  0  0  0  0  0  0  0  0
  142.2770   71.9220  221.1780 C   0  0  0  0  0  0  0  0  0  0  0  0
  143.4220   72.6580  220.8460 C   0  0  0  0  0  0  0  0  0  0  0  0
  143.3180   74.0240  220.5270 C   0  0  0  0  0  0  0  0  0  0  0  0
  142.0660   74.6600  220.5430 C   0  0  0  0  0  0  0  0  0  0  0  0
  140.9310   73.9070  220.8680 C   0  0  0  0  0  0  0  0  0  0  0  0
  139.3600   75.5440  221.9740 C   0  0  0  0  0  0  0  0  0  0  0  0
  141.0790   78.0390  220.7410 C   0  0  0  0  0  0  0  0  0  0  0  0
  142.2050   78.6910  221.4440 N   0  0  0  0  0  0  0  0  0  0  0  0
  142.9228   80.5810  223.9599 H   0  0  0  0  0  0  0  0  0  0  0  0
  143.8749   80.1433  222.5009 H   0  0  0  0  0  0  0  0  0  0  0  0
  142.8625   81.6271  222.5009 H   0  0  0  0  0  0  0  0  0  0  0  0
  141.1105   80.4567  221.7393 H   0  0  0  0  0  0  0  0  0  0  0  0
  141.5769   78.9576  224.3246 H   0  0  0  0  0  0  0  0  0  0  0  0
  140.1698   79.9730  223.7812 H   0  0  0  0  0  0  0  0  0  0  0  0
  140.7478   77.0580  223.2990 H   0  0  0  0  0  0  0  0  0  0  0  0
  139.1920   77.9111  223.6657 H   0  0  0  0  0  0  0  0  0  0  0  0
  139.1369   78.8304  221.3767 H   0  0  0  0  0  0  0  0  0  0  0  0
  138.3270   76.8973  219.1948 H   0  0  0  0  0  0  0  0  0  0  0  0
  140.0873   76.7125  219.3893 H   0  0  0  0  0  0  0  0  0  0  0  0
  137.8948   74.6178  219.5481 H   0  0  0  0  0  0  0  0  0  0  0  0
  139.4827   74.4746  218.8035 H   0  0  0  0  0  0  0  0  0  0  0  0
  138.3388   73.2017  222.4760 H   0  0  0  0  0  0  0  0  0  0  0  0
  137.9373   72.7892  220.8002 H   0  0  0  0  0  0  0  0  0  0  0  0
  140.5151   72.8355  224.1214 H   0  0  0  0  0  0  0  0  0  0  0  0
  141.1927   72.9476  226.9251 H   0  0  0  0  0  0  0  0  0  0  0  0
  141.4022   71.5039  228.9843 H   0  0  0  0  0  0  0  0  0  0  0  0
  140.1065   68.0306  226.6902 H   0  0  0  0  0  0  0  0  0  0  0  0
  139.5830   68.6300  224.0710 H   0  0  0  0  0  0  0  0  0  0  0  0
  142.3485   70.8541  221.4320 H   0  0  0  0  0  0  0  0  0  0  0  0
  144.4057   72.1659  220.8348 H   0  0  0  0  0  0  0  0  0  0  0  0
  144.2201   74.5959  220.2642 H   0  0  0  0  0  0  0  0  0  0  0  0
  141.9785   75.7303  220.3046 H   0  0  0  0  0  0  0  0  0  0  0  0
  138.5844   75.3210  222.7215 H   0  0  0  0  0  0  0  0  0  0  0  0
  140.3146   75.7156  222.4929 H   0  0  0  0  0  0  0  0  0  0  0  0
  141.3850   77.0173  220.4717 H   0  0  0  0  0  0  0  0  0  0  0  0
  140.8516   78.6600  219.8620 H   0  0  0  0  0  0  0  0  0  0  0  0
  142.8600   79.0770  220.7230 H   0  0  0  0  0  0  0  0  0  0  0  0
  142.7300   77.9780  222.0040 H   0  0  0  0  0  0  0  0  0  0  0  0
  1  2  1  0
  2  3  1  0
  3  4  1  0
  4  5  1  0
  5  6  1  0
  6  7  1  0
  7  8  1  0
  9  8  1  6
  9 10  1  0
 10 11  1  0
 11 12  1  0
 12 13  2  0
 12 14  1  0
 14 15  2  0
 15 16  1  0
 16 17  2  0
 17 18  1  0
 18 19  2  0
 19 20  1  0
 19 21  1  0
 21 22  2  0
 22 23  1  0
 11 24  1  0
 24 25  2  0
 25 26  1  0
 26 27  2  0
 27 28  1  0
 28 29  2  0
  9 30  1  0
  5 31  1  0
 31 32  1  0
 32  2  1  0
 30  6  1  0
 29  9  1  0
 23 14  1  0
 29 24  1  0
 22 16  1  0
  1 33  1  0
  1 34  1  0
  1 35  1  0
  2 36  1  6
  3 37  1  0
  3 38  1  0
  4 39  1  0
  4 40  1  0
  5 41  1  1
  7 42  1  0
  7 43  1  0
  8 44  1  0
  8 45  1  0
 10 46  1  0
 10 47  1  0
 15 48  1  0
 17 49  1  0
 18 50  1  0
 21 51  1  0
 23 52  1  0
 25 53  1  0
 26 54  1  0
 27 55  1  0
 28 56  1  0
 30 57  1  0
 30 58  1  0
 31 59  1  0
 31 60  1  0
 32 61  1  0
 32 62  1  0
M  CHG  1  32   1
M  END
>  <UniqueID>  (28) 
93

>  <SMILES>  (28) 
C[C@@H]1CC[C@H](N2CC[C@]3(CN(C(=O)c4cc5ccc(F)cc5[nH]4)c4ccccc43)C2)C[NH2+]1

>  <Energy>  (28) 
133.88327646162938

>  <Genealogy>  (28) 
C[C@@H]1CCC(N2CC[C@]3(CN(C(=O)c4cc5ccc(F)cc5[nH]4)c4ccccc43)C2)C[NH2+]1 (protonated)
C[C@@H]1CC[C@H](N2CC[C@]3(CN(C(=O)c4cc5ccc(F)cc5[nH]4)c4ccccc43)C2)C[NH2+]1 (chirality)
C[C@@H]1CC[C@H](N2CC[C@]3(CN(C(=O)c4cc5ccc(F)cc5[nH]4)c4ccccc43)C2)C[NH2+]1 (3D coordinates assigned)
C[C@@H]1CC[C@H](N2CC[C@]3(CN(C(=O)c4cc5ccc(F)cc5[nH]4)c4ccccc43)C2)C[NH2+]1 (nonaromatic ring conformer: 133.88327646162938 kcal/mol)

>  <smiles>  (28) 
C[C@@H]1CCC(N2CC[C@]3(CN(C(=O)c4cc5ccc(F)cc5[nH]4)c4ccccc43)C2)CN1

>  <score_type>  (28) 
oracle

>  <origin>  (28) 
autodockgpu

>  <m_score__min__energy>  (28) 
-9.6199999999999992

>  <m_primary>  (28) 
energy

>  <meeko>  (28) 
{"free_energy": -9.51, "intermolecular_energy": -10.41, "internal_energy": -1.34, "cluster_size": 19, "cluster_id": 1, "rank_in_cluster": 15}

>  <energy>  (28) 
-9.6

>  <cluster_rmsd>  (28) 
0.28

>  <rmsd>  (28) 
271.11

>  <cluster>  (28) 
1

$$$$
MYPHZBOANNRFAS-KTSDNHQRNA-O
     RDKit          3D

 62 67  0  0  0  0  0  0  0  0999 V2000
  142.9600   80.5650  222.8390 C   0  0  0  0  0  0  0  0  0  0  0  0
  141.7670   79.7550  222.3100 C   0  0  2  0  0  0  0  0  0  0  0  0
  140.9310   79.1800  223.4760 C   0  0  0  0  0  0  0  0  0  0  0  0
  140.1520   77.9160  223.0710 C   0  0  0  0  0  0  0  0  0  0  0  0
  139.7820   77.9330  221.5700 C   0  0  2  0  0  0  0  0  0  0  0  0
  138.9920   76.7300  221.1900 N   0  0  0  0  0  0  0  0  0  0  0  0
  139.1250   76.3750  219.7680 C   0  0  0  0  0  0  0  0  0  0  0  0
  138.9640   74.8730  219.6610 C   0  0  0  0  0  0  0  0  0  0  0  0
  139.5020   74.3410  220.9850 C   0  0  1  0  0  0  0  0  0  0  0  0
  138.7670   73.0390  221.4620 C   0  0  0  0  0  0  0  0  0  0  0  0
  139.7840   71.9890  221.4960 N   0  0  0  0  0  0  0  0  0  0  0  0
  139.6190   70.7660  222.2160 C   0  0  0  0  0  0  0  0  0  0  0  0
  139.1890   69.7470  221.6140 O   0  0  0  0  0  0  0  0  0  0  0  0
  139.9410   70.6980  223.6510 C   0  0  0  0  0  0  0  0  0  0  0  0
  140.3620   71.7740  224.4330 C   0  0  0  0  0  0  0  0  0  0  0  0
  140.5530   71.2460  225.6900 C   0  0  0  0  0  0  0  0  0  0  0  0
  140.9620   71.8510  226.8770 C   0  0  0  0  0  0  0  0  0  0  0  0
  141.0740   71.0400  228.0230 C   0  0  0  0  0  0  0  0  0  0  0  0
  140.7720   69.6580  227.9560 C   0  0  0  0  0  0  0  0  0  0  0  0
  140.8860   68.8880  229.0650 F   0  0  0  0  0  0  0  0  0  0  0  0
  140.3460   69.0810  226.7450 C   0  0  0  0  0  0  0  0  0  0  0  0
  140.2470   69.9090  225.6270 C   0  0  0  0  0  0  0  0  0  0  0  0
  139.8620   69.5630  224.3880 N   0  0  0  0  0  0  0  0  0  0  0  0
  141.0400   72.5540  221.1730 C   0  0  0  0  0  0  0  0  0  0  0  0
  142.2750   71.8960  221.1760 C   0  0  0  0  0  0  0  0  0  0  0  0
  143.4230   72.6280  220.8450 C   0  0  0  0  0  0  0  0  0  0  0  0
  143.3240   73.9940  220.5250 C   0  0  0  0  0  0  0  0  0  0  0  0
  142.0740   74.6340  220.5380 C   0  0  0  0  0  0  0  0  0  0  0  0
  140.9360   73.8840  220.8610 C   0  0  0  0  0  0  0  0  0  0  0  0
  139.3670   75.5270  221.9620 C   0  0  0  0  0  0  0  0  0  0  0  0
  141.0900   78.0230  220.7200 C   0  0  0  0  0  0  0  0  0  0  0  0
  142.2200   78.6720  221.4190 N   0  0  0  0  0  0  0  0  0  0  0  0
  142.9493   80.5577  223.9389 H   0  0  0  0  0  0  0  0  0  0  0  0
  143.8971   80.1156  222.4785 H   0  0  0  0  0  0  0  0  0  0  0  0
  142.8880   81.6017  222.4785 H   0  0  0  0  0  0  0  0  0  0  0  0
  141.1283   80.4364  221.7289 H   0  0  0  0  0  0  0  0  0  0  0  0
  141.6081   78.9273  224.3053 H   0  0  0  0  0  0  0  0  0  0  0  0
  140.1985   79.9450  223.7730 H   0  0  0  0  0  0  0  0  0  0  0  0
  140.7742   77.0322  223.2755 H   0  0  0  0  0  0  0  0  0  0  0  0
  139.2204   77.8837  223.6550 H   0  0  0  0  0  0  0  0  0  0  0  0
  139.1518   78.8125  221.3718 H   0  0  0  0  0  0  0  0  0  0  0  0
  138.3448   76.8799  219.1796 H   0  0  0  0  0  0  0  0  0  0  0  0
  140.1042   76.6901  219.3782 H   0  0  0  0  0  0  0  0  0  0  0  0
  137.9054   74.6027  219.5338 H   0  0  0  0  0  0  0  0  0  0  0  0
  139.4946   74.4543  218.7932 H   0  0  0  0  0  0  0  0  0  0  0  0
  138.3383   73.1879  222.4640 H   0  0  0  0  0  0  0  0  0  0  0  0
  137.9389   72.7749  220.7878 H   0  0  0  0  0  0  0  0  0  0  0  0
  140.5092   72.8166  224.1147 H   0  0  0  0  0  0  0  0  0  0  0  0
  141.1898   72.9264  226.9175 H   0  0  0  0  0  0  0  0  0  0  0  0
  141.3982   71.4829  228.9763 H   0  0  0  0  0  0  0  0  0  0  0  0
  140.0990   68.0109  226.6823 H   0  0  0  0  0  0  0  0  0  0  0  0
  139.5750   68.6120  224.0640 H   0  0  0  0  0  0  0  0  0  0  0  0
  142.3430   70.8285  221.4323 H   0  0  0  0  0  0  0  0  0  0  0  0
  144.4051   72.1326  220.8354 H   0  0  0  0  0  0  0  0  0  0  0  0
  144.2285   74.5629  220.2637 H   0  0  0  0  0  0  0  0  0  0  0  0
  141.9902   75.7044  220.2989 H   0  0  0  0  0  0  0  0  0  0  0  0
  138.5886   75.3069  222.7075 H   0  0  0  0  0  0  0  0  0  0  0  0
  140.3206   75.6960  222.4837 H   0  0  0  0  0  0  0  0  0  0  0  0
  141.3942   77.0024  220.4448 H   0  0  0  0  0  0  0  0  0  0  0  0
  140.8575   78.6472  219.8446 H   0  0  0  0  0  0  0  0  0  0  0  0
  142.8720   79.0600  220.6970 H   0  0  0  0  0  0  0  0  0  0  0  0
  142.7480   77.9560  221.9740 H   0  0  0  0  0  0  0  0  0  0  0  0
  1  2  1  0
  2  3  1  0
  3  4  1  0
  4  5  1  0
  5  6  1  0
  6  7  1  0
  7  8  1  0
  9  8  1  6
  9 10  1  0
 10 11  1  0
 11 12  1  0
 12 13  2  0
 12 14  1  0
 14 15  2  0
 15 16  1  0
 16 17  2  0
 17 18  1  0
 18 19  2  0
 19 20  1  0
 19 21  1  0
 21 22  2  0
 22 23  1  0
 11 24  1  0
 24 25  2  0
 25 26  1  0
 26 27  2  0
 27 28  1  0
 28 29  2  0
  9 30  1  0
  5 31  1  0
 31 32  1  0
 32  2  1  0
 30  6  1  0
 29  9  1  0
 23 14  1  0
 29 24  1  0
 22 16  1  0
  1 33  1  0
  1 34  1  0
  1 35  1  0
  2 36  1  6
  3 37  1  0
  3 38  1  0
  4 39  1  0
  4 40  1  0
  5 41  1  1
  7 42  1  0
  7 43  1  0
  8 44  1  0
  8 45  1  0
 10 46  1  0
 10 47  1  0
 15 48  1  0
 17 49  1  0
 18 50  1  0
 21 51  1  0
 23 52  1  0
 25 53  1  0
 26 54  1  0
 27 55  1  0
 28 56  1  0
 30 57  1  0
 30 58  1  0
 31 59  1  0
 31 60  1  0
 32 61  1  0
 32 62  1  0
M  CHG  1  32   1
M  END
>  <UniqueID>  (29) 
93

>  <SMILES>  (29) 
C[C@@H]1CC[C@H](N2CC[C@]3(CN(C(=O)c4cc5ccc(F)cc5[nH]4)c4ccccc43)C2)C[NH2+]1

>  <Energy>  (29) 
133.88327646162938

>  <Genealogy>  (29) 
C[C@@H]1CCC(N2CC[C@]3(CN(C(=O)c4cc5ccc(F)cc5[nH]4)c4ccccc43)C2)C[NH2+]1 (protonated)
C[C@@H]1CC[C@H](N2CC[C@]3(CN(C(=O)c4cc5ccc(F)cc5[nH]4)c4ccccc43)C2)C[NH2+]1 (chirality)
C[C@@H]1CC[C@H](N2CC[C@]3(CN(C(=O)c4cc5ccc(F)cc5[nH]4)c4ccccc43)C2)C[NH2+]1 (3D coordinates assigned)
C[C@@H]1CC[C@H](N2CC[C@]3(CN(C(=O)c4cc5ccc(F)cc5[nH]4)c4ccccc43)C2)C[NH2+]1 (nonaromatic ring conformer: 133.88327646162938 kcal/mol)

>  <smiles>  (29) 
C[C@@H]1CCC(N2CC[C@]3(CN(C(=O)c4cc5ccc(F)cc5[nH]4)c4ccccc43)C2)CN1

>  <score_type>  (29) 
oracle

>  <origin>  (29) 
autodockgpu

>  <m_score__min__energy>  (29) 
-9.6199999999999992

>  <m_primary>  (29) 
energy

>  <meeko>  (29) 
{"free_energy": -9.51, "intermolecular_energy": -10.41, "internal_energy": -1.34, "cluster_size": 19, "cluster_id": 1, "rank_in_cluster": 16}

>  <energy>  (29) 
-9.6

>  <cluster_rmsd>  (29) 
0.27

>  <rmsd>  (29) 
271.1

>  <cluster>  (29) 
1

$$$$
MYPHZBOANNRFAS-KTSDNHQRNA-O
     RDKit          3D

 62 67  0  0  0  0  0  0  0  0999 V2000
  142.7940   80.7240  223.3930 C   0  0  0  0  0  0  0  0  0  0  0  0
  141.7460   79.8930  222.6380 C   0  0  2  0  0  0  0  0  0  0  0  0
  140.5400   79.5690  223.5490 C   0  0  0  0  0  0  0  0  0  0  0  0
  139.7990   78.2930  223.1100 C   0  0  0  0  0  0  0  0  0  0  0  0
  139.9110   78.0680  221.5840 C   0  0  2  0  0  0  0  0  0  0  0  0
  139.1590   76.8570  221.1570 N   0  0  0  0  0  0  0  0  0  0  0  0
  139.3380   76.5370  219.7320 C   0  0  0  0  0  0  0  0  0  0  0  0
  139.2140   75.0340  219.5870 C   0  0  0  0  0  0  0  0  0  0  0  0
  139.7280   74.4850  220.9140 C   0  0  1  0  0  0  0  0  0  0  0  0
  139.0100   73.1570  221.3420 C   0  0  0  0  0  0  0  0  0  0  0  0
  140.0490   72.1290  221.3810 N   0  0  0  0  0  0  0  0  0  0  0  0
  139.8930   70.8860  222.0690 C   0  0  0  0  0  0  0  0  0  0  0  0
  139.5420   69.8620  221.4250 O   0  0  0  0  0  0  0  0  0  0  0  0
  140.1320   70.8030  223.5190 C   0  0  0  0  0  0  0  0  0  0  0  0
  140.5910   71.8500  224.3190 C   0  0  0  0  0  0  0  0  0  0  0  0
  140.6730   71.3170  225.5870 C   0  0  0  0  0  0  0  0  0  0  0  0
  141.0630   71.8980  226.7920 C   0  0  0  0  0  0  0  0  0  0  0  0
  141.0520   71.0880  227.9450 C   0  0  0  0  0  0  0  0  0  0  0  0
  140.6500   69.7330  227.8650 C   0  0  0  0  0  0  0  0  0  0  0  0
  140.6470   68.9630  228.9810 F   0  0  0  0  0  0  0  0  0  0  0  0
  140.2480   69.1810  226.6340 C   0  0  0  0  0  0  0  0  0  0  0  0
  140.2720   70.0070  225.5110 C   0  0  0  0  0  0  0  0  0  0  0  0
  139.9280   69.6820  224.2540 N   0  0  0  0  0  0  0  0  0  0  0  0
  141.3010   72.7280  221.1050 C   0  0  0  0  0  0  0  0  0  0  0  0
  142.5490   72.0970  221.1270 C   0  0  0  0  0  0  0  0  0  0  0  0
  143.6890   72.8610  220.8440 C   0  0  0  0  0  0  0  0  0  0  0  0
  143.5680   74.2320  220.5510 C   0  0  0  0  0  0  0  0  0  0  0  0
  142.3040   74.8440  220.5430 C   0  0  0  0  0  0  0  0  0  0  0  0
  141.1750   74.0620  220.8190 C   0  0  0  0  0  0  0  0  0  0  0  0
  139.5410   75.6450  221.9120 C   0  0  0  0  0  0  0  0  0  0  0  0
  141.4190   77.9460  221.1930 C   0  0  0  0  0  0  0  0  0  0  0  0
  142.3390   78.6510  222.1110 N   0  0  0  0  0  0  0  0  0  0  0  0
  142.6447   80.6056  224.4764 H   0  0  0  0  0  0  0  0  0  0  0  0
  143.8020   80.3770  223.1217 H   0  0  0  0  0  0  0  0  0  0  0  0
  142.6859   81.7845  223.1217 H   0  0  0  0  0  0  0  0  0  0  0  0
  141.3884   80.4934  221.7885 H   0  0  0  0  0  0  0  0  0  0  0  0
  140.9020   79.4308  224.5785 H   0  0  0  0  0  0  0  0  0  0  0  0
  139.8324   80.4084  223.4798 H   0  0  0  0  0  0  0  0  0  0  0  0
  140.2360   77.4287  223.6316 H   0  0  0  0  0  0  0  0  0  0  0  0
  138.7350   78.4075  223.3644 H   0  0  0  0  0  0  0  0  0  0  0  0
  139.4642   78.9291  221.0654 H   0  0  0  0  0  0  0  0  0  0  0  0
  138.5626   77.0378  219.1337 H   0  0  0  0  0  0  0  0  0  0  0  0
  140.3201   76.8822  219.3764 H   0  0  0  0  0  0  0  0  0  0  0  0
  138.1657   74.7431  219.4246 H   0  0  0  0  0  0  0  0  0  0  0  0
  139.7769   74.6466  218.7250 H   0  0  0  0  0  0  0  0  0  0  0  0
  138.5511   73.2739  222.3349 H   0  0  0  0  0  0  0  0  0  0  0  0
  138.2066   72.8901  220.6397 H   0  0  0  0  0  0  0  0  0  0  0  0
  140.8341   72.8761  224.0060 H   0  0  0  0  0  0  0  0  0  0  0  0
  141.3691   72.9534  226.8415 H   0  0  0  0  0  0  0  0  0  0  0  0
  141.3577   71.5112  228.9132 H   0  0  0  0  0  0  0  0  0  0  0  0
  139.9254   68.1319  226.5605 H   0  0  0  0  0  0  0  0  0  0  0  0
  139.5870   68.7540  223.9170 H   0  0  0  0  0  0  0  0  0  0  0  0
  142.6337   71.0255  221.3611 H   0  0  0  0  0  0  0  0  0  0  0  0
  144.6818   72.3875  220.8509 H   0  0  0  0  0  0  0  0  0  0  0  0
  144.4663   74.8262  220.3275 H   0  0  0  0  0  0  0  0  0  0  0  0
  142.2024   75.9172  220.3241 H   0  0  0  0  0  0  0  0  0  0  0  0
  138.7487   75.3911  222.6316 H   0  0  0  0  0  0  0  0  0  0  0  0
  140.4768   75.8232  222.4620 H   0  0  0  0  0  0  0  0  0  0  0  0
  141.6888   76.8796  221.1851 H   0  0  0  0  0  0  0  0  0  0  0  0
  141.5305   78.4195  220.2064 H   0  0  0  0  0  0  0  0  0  0  0  0
  143.2160   78.8760  221.5840 H   0  0  0  0  0  0  0  0  0  0  0  0
  142.5970   78.0180  222.9050 H   0  0  0  0  0  0  0  0  0  0  0  0
  1  2  1  0
  2  3  1  0
  3  4  1  0
  4  5  1  0
  5  6  1  0
  6  7  1  0
  7  8  1  0
  9  8  1  6
  9 10  1  0
 10 11  1  0
 11 12  1  0
 12 13  2  0
 12 14  1  0
 14 15  2  0
 15 16  1  0
 16 17  2  0
 17 18  1  0
 18 19  2  0
 19 20  1  0
 19 21  1  0
 21 22  2  0
 22 23  1  0
 11 24  1  0
 24 25  2  0
 25 26  1  0
 26 27  2  0
 27 28  1  0
 28 29  2  0
  9 30  1  0
  5 31  1  0
 31 32  1  0
 32  2  1  0
 30  6  1  0
 29  9  1  0
 23 14  1  0
 29 24  1  0
 22 16  1  0
  1 33  1  0
  1 34  1  0
  1 35  1  0
  2 36  1  6
  3 37  1  0
  3 38  1  0
  4 39  1  0
  4 40  1  0
  5 41  1  6
  7 42  1  0
  7 43  1  0
  8 44  1  0
  8 45  1  0
 10 46  1  0
 10 47  1  0
 15 48  1  0
 17 49  1  0
 18 50  1  0
 21 51  1  0
 23 52  1  0
 25 53  1  0
 26 54  1  0
 27 55  1  0
 28 56  1  0
 30 57  1  0
 30 58  1  0
 31 59  1  0
 31 60  1  0
 32 61  1  0
 32 62  1  0
M  CHG  1  32   1
M  END
>  <UniqueID>  (30) 
93

>  <SMILES>  (30) 
C[C@@H]1CC[C@H](N2CC[C@]3(CN(C(=O)c4cc5ccc(F)cc5[nH]4)c4ccccc43)C2)C[NH2+]1

>  <Energy>  (30) 
133.88327646162938

>  <Genealogy>  (30) 
C[C@@H]1CCC(N2CC[C@]3(CN(C(=O)c4cc5ccc(F)cc5[nH]4)c4ccccc43)C2)C[NH2+]1 (protonated)
C[C@@H]1CC[C@H](N2CC[C@]3(CN(C(=O)c4cc5ccc(F)cc5[nH]4)c4ccccc43)C2)C[NH2+]1 (chirality)
C[C@@H]1CC[C@H](N2CC[C@]3(CN(C(=O)c4cc5ccc(F)cc5[nH]4)c4ccccc43)C2)C[NH2+]1 (3D coordinates assigned)
C[C@@H]1CC[C@H](N2CC[C@]3(CN(C(=O)c4cc5ccc(F)cc5[nH]4)c4ccccc43)C2)C[NH2+]1 (nonaromatic ring conformer: 133.88327646162938 kcal/mol)

>  <smiles>  (30) 
C[C@@H]1CCC(N2CC[C@]3(CN(C(=O)c4cc5ccc(F)cc5[nH]4)c4ccccc43)C2)CN1

>  <score_type>  (30) 
oracle

>  <origin>  (30) 
autodockgpu

>  <m_score__min__energy>  (30) 
-9.6199999999999992

>  <m_primary>  (30) 
energy

>  <meeko>  (30) 
{"free_energy": -9.6, "intermolecular_energy": -10.49, "internal_energy": -1.27, "cluster_size": 19, "cluster_id": 1, "rank_in_cluster": 7}

>  <energy>  (30) 
-9.59

>  <cluster_rmsd>  (30) 
0.27

>  <rmsd>  (30) 
271.11

>  <cluster>  (30) 
1

$$$$
MYPHZBOANNRFAS-KTSDNHQRNA-O
     RDKit          3D

 62 67  0  0  0  0  0  0  0  0999 V2000
  142.7450   80.7400  223.3730 C   0  0  0  0  0  0  0  0  0  0  0  0
  141.7020   79.8990  222.6230 C   0  0  2  0  0  0  0  0  0  0  0  0
  140.5010   79.5670  223.5370 C   0  0  0  0  0  0  0  0  0  0  0  0
  139.7700   78.2840  223.1030 C   0  0  0  0  0  0  0  0  0  0  0  0
  139.8790   78.0570  221.5770 C   0  0  2  0  0  0  0  0  0  0  0  0
  139.1360   76.8380  221.1540 N   0  0  0  0  0  0  0  0  0  0  0  0
  139.3100   76.5210  219.7270 C   0  0  0  0  0  0  0  0  0  0  0  0
  139.2000   75.0160  219.5830 C   0  0  0  0  0  0  0  0  0  0  0  0
  139.7270   74.4720  220.9060 C   0  0  1  0  0  0  0  0  0  0  0  0
  139.0240   73.1370  221.3380 C   0  0  0  0  0  0  0  0  0  0  0  0
  140.0730   72.1190  221.3710 N   0  0  0  0  0  0  0  0  0  0  0  0
  139.9330   70.8750  222.0600 C   0  0  0  0  0  0  0  0  0  0  0  0
  139.6040   69.8440  221.4150 O   0  0  0  0  0  0  0  0  0  0  0  0
  140.1610   70.7980  223.5120 C   0  0  0  0  0  0  0  0  0  0  0  0
  140.6230   71.8460  224.3100 C   0  0  0  0  0  0  0  0  0  0  0  0
  140.6930   71.3190  225.5800 C   0  0  0  0  0  0  0  0  0  0  0  0
  141.0800   71.9040  226.7850 C   0  0  0  0  0  0  0  0  0  0  0  0
  141.0550   71.1000  227.9420 C   0  0  0  0  0  0  0  0  0  0  0  0
  140.6440   69.7470  227.8670 C   0  0  0  0  0  0  0  0  0  0  0  0
  140.6280   68.9830  228.9870 F   0  0  0  0  0  0  0  0  0  0  0  0
  140.2460   69.1920  226.6360 C   0  0  0  0  0  0  0  0  0  0  0  0
  140.2830   70.0120  225.5090 C   0  0  0  0  0  0  0  0  0  0  0  0
  139.9440   69.6830  224.2510 N   0  0  0  0  0  0  0  0  0  0  0  0
  141.3170   72.7300  221.0880 C   0  0  0  0  0  0  0  0  0  0  0  0
  142.5720   72.1110  221.1030 C   0  0  0  0  0  0  0  0  0  0  0  0
  143.7030   72.8860  220.8130 C   0  0  0  0  0  0  0  0  0  0  0  0
  143.5670   74.2560  220.5220 C   0  0  0  0  0  0  0  0  0  0  0  0
  142.2970   74.8550  220.5210 C   0  0  0  0  0  0  0  0  0  0  0  0
  141.1770   74.0630  220.8030 C   0  0  0  0  0  0  0  0  0  0  0  0
  139.5340   75.6300  221.9060 C   0  0  0  0  0  0  0  0  0  0  0  0
  141.3870   77.9470  221.1820 C   0  0  0  0  0  0  0  0  0  0  0  0
  142.3040   78.6610  222.0960 N   0  0  0  0  0  0  0  0  0  0  0  0
  142.5997   80.6229  224.4571 H   0  0  0  0  0  0  0  0  0  0  0  0
  143.7550   80.4006  223.0996 H   0  0  0  0  0  0  0  0  0  0  0  0
  142.6275   81.7990  223.0996 H   0  0  0  0  0  0  0  0  0  0  0  0
  141.3369   80.4951  221.7737 H   0  0  0  0  0  0  0  0  0  0  0  0
  140.8664   79.4344  224.5661 H   0  0  0  0  0  0  0  0  0  0  0  0
  139.7861   80.4001  223.4671 H   0  0  0  0  0  0  0  0  0  0  0  0
  140.2163   77.4246  223.6248 H   0  0  0  0  0  0  0  0  0  0  0  0
  138.7058   78.3896  223.3607 H   0  0  0  0  0  0  0  0  0  0  0  0
  139.4229   78.9131  221.0582 H   0  0  0  0  0  0  0  0  0  0  0  0
  138.5261   77.0143  219.1335 H   0  0  0  0  0  0  0  0  0  0  0  0
  140.2861   76.8766  219.3652 H   0  0  0  0  0  0  0  0  0  0  0  0
  138.1536   74.7149  219.4269 H   0  0  0  0  0  0  0  0  0  0  0  0
  139.7618   74.6342  218.7177 H   0  0  0  0  0  0  0  0  0  0  0  0
  138.5697   73.2495  222.3334 H   0  0  0  0  0  0  0  0  0  0  0  0
  138.2192   72.8624  220.6402 H   0  0  0  0  0  0  0  0  0  0  0  0
  140.8757   72.8687  223.9935 H   0  0  0  0  0  0  0  0  0  0  0  0
  141.3941   72.9572  226.8309 H   0  0  0  0  0  0  0  0  0  0  0  0
  141.3568   71.5263  228.9101 H   0  0  0  0  0  0  0  0  0  0  0  0
  139.9164   68.1449  226.5655 H   0  0  0  0  0  0  0  0  0  0  0  0
  139.6000   68.7540  223.9170 H   0  0  0  0  0  0  0  0  0  0  0  0
  142.6685   71.0405  221.3371 H   0  0  0  0  0  0  0  0  0  0  0  0
  144.7003   72.4219  220.8129 H   0  0  0  0  0  0  0  0  0  0  0  0
  144.4582   74.8595  220.2947 H   0  0  0  0  0  0  0  0  0  0  0  0
  142.1839   75.9272  220.3026 H   0  0  0  0  0  0  0  0  0  0  0  0
  138.7483   75.3680  222.6299 H   0  0  0  0  0  0  0  0  0  0  0  0
  140.4710   75.8172  222.4510 H   0  0  0  0  0  0  0  0  0  0  0  0
  141.6655   76.8829  221.1750 H   0  0  0  0  0  0  0  0  0  0  0  0
  141.4916   78.4200  220.1944 H   0  0  0  0  0  0  0  0  0  0  0  0
  143.1780   78.8930  221.5670 H   0  0  0  0  0  0  0  0  0  0  0  0
  142.5690   78.0310  222.8910 H   0  0  0  0  0  0  0  0  0  0  0  0
  1  2  1  0
  2  3  1  0
  3  4  1  0
  4  5  1  0
  5  6  1  0
  6  7  1  0
  7  8  1  0
  9  8  1  6
  9 10  1  0
 10 11  1  0
 11 12  1  0
 12 13  2  0
 12 14  1  0
 14 15  2  0
 15 16  1  0
 16 17  2  0
 17 18  1  0
 18 19  2  0
 19 20  1  0
 19 21  1  0
 21 22  2  0
 22 23  1  0
 11 24  1  0
 24 25  2  0
 25 26  1  0
 26 27  2  0
 27 28  1  0
 28 29  2  0
  9 30  1  0
  5 31  1  0
 31 32  1  0
 32  2  1  0
 30  6  1  0
 29  9  1  0
 23 14  1  0
 29 24  1  0
 22 16  1  0
  1 33  1  0
  1 34  1  0
  1 35  1  0
  2 36  1  6
  3 37  1  0
  3 38  1  0
  4 39  1  0
  4 40  1  0
  5 41  1  6
  7 42  1  0
  7 43  1  0
  8 44  1  0
  8 45  1  0
 10 46  1  0
 10 47  1  0
 15 48  1  0
 17 49  1  0
 18 50  1  0
 21 51  1  0
 23 52  1  0
 25 53  1  0
 26 54  1  0
 27 55  1  0
 28 56  1  0
 30 57  1  0
 30 58  1  0
 31 59  1  0
 31 60  1  0
 32 61  1  0
 32 62  1  0
M  CHG  1  32   1
M  END
>  <UniqueID>  (31) 
93

>  <SMILES>  (31) 
C[C@@H]1CC[C@H](N2CC[C@]3(CN(C(=O)c4cc5ccc(F)cc5[nH]4)c4ccccc43)C2)C[NH2+]1

>  <Energy>  (31) 
133.88327646162938

>  <Genealogy>  (31) 
C[C@@H]1CCC(N2CC[C@]3(CN(C(=O)c4cc5ccc(F)cc5[nH]4)c4ccccc43)C2)C[NH2+]1 (protonated)
C[C@@H]1CC[C@H](N2CC[C@]3(CN(C(=O)c4cc5ccc(F)cc5[nH]4)c4ccccc43)C2)C[NH2+]1 (chirality)
C[C@@H]1CC[C@H](N2CC[C@]3(CN(C(=O)c4cc5ccc(F)cc5[nH]4)c4ccccc43)C2)C[NH2+]1 (3D coordinates assigned)
C[C@@H]1CC[C@H](N2CC[C@]3(CN(C(=O)c4cc5ccc(F)cc5[nH]4)c4ccccc43)C2)C[NH2+]1 (nonaromatic ring conformer: 133.88327646162938 kcal/mol)

>  <smiles>  (31) 
C[C@@H]1CCC(N2CC[C@]3(CN(C(=O)c4cc5ccc(F)cc5[nH]4)c4ccccc43)C2)CN1

>  <score_type>  (31) 
oracle

>  <origin>  (31) 
autodockgpu

>  <m_score__min__energy>  (31) 
-9.6199999999999992

>  <m_primary>  (31) 
energy

>  <meeko>  (31) 
{"free_energy": -9.6, "intermolecular_energy": -10.5, "internal_energy": -1.27, "cluster_size": 19, "cluster_id": 1, "rank_in_cluster": 6}

>  <energy>  (31) 
-9.53

>  <cluster_rmsd>  (31) 
0.44

>  <rmsd>  (31) 
271.0

>  <cluster>  (31) 
1

$$$$
MYPHZBOANNRFAS-KTSDNHQRNA-O
     RDKit          3D

 62 67  0  0  0  0  0  0  0  0999 V2000
  142.7800   80.7370  223.3950 C   0  0  0  0  0  0  0  0  0  0  0  0
  141.7370   79.9060  222.6350 C   0  0  2  0  0  0  0  0  0  0  0  0
  140.5280   79.5780  223.5400 C   0  0  0  0  0  0  0  0  0  0  0  0
  139.7910   78.3010  223.0960 C   0  0  0  0  0  0  0  0  0  0  0  0
  139.9100   78.0790  221.5700 C   0  0  2  0  0  0  0  0  0  0  0  0
  139.1620   76.8670  221.1370 N   0  0  0  0  0  0  0  0  0  0  0  0
  139.3440   76.5530  219.7110 C   0  0  0  0  0  0  0  0  0  0  0  0
  139.2250   75.0500  219.5610 C   0  0  0  0  0  0  0  0  0  0  0  0
  139.7390   74.4980  220.8860 C   0  0  1  0  0  0  0  0  0  0  0  0
  139.0240   73.1660  221.3090 C   0  0  0  0  0  0  0  0  0  0  0  0
  140.0660   72.1410  221.3450 N   0  0  0  0  0  0  0  0  0  0  0  0
  139.9120   70.8960  222.0290 C   0  0  0  0  0  0  0  0  0  0  0  0
  139.5710   69.8720  221.3800 O   0  0  0  0  0  0  0  0  0  0  0  0
  140.1430   70.8090  223.4800 C   0  0  0  0  0  0  0  0  0  0  0  0
  140.6060   71.8520  224.2840 C   0  0  0  0  0  0  0  0  0  0  0  0
  140.6770   71.3170  225.5510 C   0  0  0  0  0  0  0  0  0  0  0  0
  141.0660   71.8940  226.7590 C   0  0  0  0  0  0  0  0  0  0  0  0
  141.0420   71.0830  227.9110 C   0  0  0  0  0  0  0  0  0  0  0  0
  140.6290   69.7320  227.8280 C   0  0  0  0  0  0  0  0  0  0  0  0
  140.6140   68.9610  228.9430 F   0  0  0  0  0  0  0  0  0  0  0  0
  140.2290   69.1840  226.5950 C   0  0  0  0  0  0  0  0  0  0  0  0
  140.2660   70.0110  225.4720 C   0  0  0  0  0  0  0  0  0  0  0  0
  139.9260   69.6900  224.2130 N   0  0  0  0  0  0  0  0  0  0  0  0
  141.3160   72.7450  221.0730 C   0  0  0  0  0  0  0  0  0  0  0  0
  142.5670   72.1180  221.0950 C   0  0  0  0  0  0  0  0  0  0  0  0
  143.7050   72.8860  220.8160 C   0  0  0  0  0  0  0  0  0  0  0  0
  143.5800   74.2570  220.5280 C   0  0  0  0  0  0  0  0  0  0  0  0
  142.3140   74.8660  220.5210 C   0  0  0  0  0  0  0  0  0  0  0  0
  141.1860   74.0790  220.7920 C   0  0  0  0  0  0  0  0  0  0  0  0
  139.5460   75.6530  221.8890 C   0  0  0  0  0  0  0  0  0  0  0  0
  141.4190   77.9610  221.1840 C   0  0  0  0  0  0  0  0  0  0  0  0
  142.3340   78.6660  222.1070 N   0  0  0  0  0  0  0  0  0  0  0  0
  142.6275   80.6155  224.4776 H   0  0  0  0  0  0  0  0  0  0  0  0
  143.7896   80.3931  223.1260 H   0  0  0  0  0  0  0  0  0  0  0  0
  142.6703   81.7980  223.1260 H   0  0  0  0  0  0  0  0  0  0  0  0
  141.3818   80.5080  221.7856 H   0  0  0  0  0  0  0  0  0  0  0  0
  140.8859   79.4389  224.5708 H   0  0  0  0  0  0  0  0  0  0  0  0
  139.8190   80.4160  223.4688 H   0  0  0  0  0  0  0  0  0  0  0  0
  140.2275   77.4367  223.6180 H   0  0  0  0  0  0  0  0  0  0  0  0
  138.7257   78.4128  223.3463 H   0  0  0  0  0  0  0  0  0  0  0  0
  139.4636   78.9406  221.0520 H   0  0  0  0  0  0  0  0  0  0  0  0
  138.5678   77.0534  219.1135 H   0  0  0  0  0  0  0  0  0  0  0  0
  140.3252   76.9028  219.3577 H   0  0  0  0  0  0  0  0  0  0  0  0
  138.1778   74.7564  219.3964 H   0  0  0  0  0  0  0  0  0  0  0  0
  139.7903   74.6674  218.6984 H   0  0  0  0  0  0  0  0  0  0  0  0
  138.5642   73.2781  222.3020 H   0  0  0  0  0  0  0  0  0  0  0  0
  138.2217   72.8993  220.6053 H   0  0  0  0  0  0  0  0  0  0  0  0
  140.8587   72.8766  223.9736 H   0  0  0  0  0  0  0  0  0  0  0  0
  141.3810   72.9467  226.8111 H   0  0  0  0  0  0  0  0  0  0  0  0
  141.3463   71.5027  228.8812 H   0  0  0  0  0  0  0  0  0  0  0  0
  139.8980   68.1377  226.5192 H   0  0  0  0  0  0  0  0  0  0  0  0
  139.5800   68.7640  223.8730 H   0  0  0  0  0  0  0  0  0  0  0  0
  142.6548   71.0462  221.3262 H   0  0  0  0  0  0  0  0  0  0  0  0
  144.6992   72.4154  220.8222 H   0  0  0  0  0  0  0  0  0  0  0  0
  144.4768   74.8546  220.3074 H   0  0  0  0  0  0  0  0  0  0  0  0
  142.2098   75.9399  220.3069 H   0  0  0  0  0  0  0  0  0  0  0  0
  138.7527   75.3937  222.6056 H   0  0  0  0  0  0  0  0  0  0  0  0
  140.4795   75.8317  222.4428 H   0  0  0  0  0  0  0  0  0  0  0  0
  141.6911   76.8952  221.1746 H   0  0  0  0  0  0  0  0  0  0  0  0
  141.5330   78.4366  220.1987 H   0  0  0  0  0  0  0  0  0  0  0  0
  143.2130   78.8940  221.5850 H   0  0  0  0  0  0  0  0  0  0  0  0
  142.5910   78.0320  222.9010 H   0  0  0  0  0  0  0  0  0  0  0  0
  1  2  1  0
  2  3  1  0
  3  4  1  0
  4  5  1  0
  5  6  1  0
  6  7  1  0
  7  8  1  0
  9  8  1  6
  9 10  1  0
 10 11  1  0
 11 12  1  0
 12 13  2  0
 12 14  1  0
 14 15  2  0
 15 16  1  0
 16 17  2  0
 17 18  1  0
 18 19  2  0
 19 20  1  0
 19 21  1  0
 21 22  2  0
 22 23  1  0
 11 24  1  0
 24 25  2  0
 25 26  1  0
 26 27  2  0
 27 28  1  0
 28 29  2  0
  9 30  1  0
  5 31  1  0
 31 32  1  0
 32  2  1  0
 30  6  1  0
 29  9  1  0
 23 14  1  0
 29 24  1  0
 22 16  1  0
  1 33  1  0
  1 34  1  0
  1 35  1  0
  2 36  1  6
  3 37  1  0
  3 38  1  0
  4 39  1  0
  4 40  1  0
  5 41  1  6
  7 42  1  0
  7 43  1  0
  8 44  1  0
  8 45  1  0
 10 46  1  0
 10 47  1  0
 15 48  1  0
 17 49  1  0
 18 50  1  0
 21 51  1  0
 23 52  1  0
 25 53  1  0
 26 54  1  0
 27 55  1  0
 28 56  1  0
 30 57  1  0
 30 58  1  0
 31 59  1  0
 31 60  1  0
 32 61  1  0
 32 62  1  0
M  CHG  1  32   1
M  END
>  <UniqueID>  (32) 
93

>  <SMILES>  (32) 
C[C@@H]1CC[C@H](N2CC[C@]3(CN(C(=O)c4cc5ccc(F)cc5[nH]4)c4ccccc43)C2)C[NH2+]1

>  <Energy>  (32) 
133.88327646162938

>  <Genealogy>  (32) 
C[C@@H]1CCC(N2CC[C@]3(CN(C(=O)c4cc5ccc(F)cc5[nH]4)c4ccccc43)C2)C[NH2+]1 (protonated)
C[C@@H]1CC[C@H](N2CC[C@]3(CN(C(=O)c4cc5ccc(F)cc5[nH]4)c4ccccc43)C2)C[NH2+]1 (chirality)
C[C@@H]1CC[C@H](N2CC[C@]3(CN(C(=O)c4cc5ccc(F)cc5[nH]4)c4ccccc43)C2)C[NH2+]1 (3D coordinates assigned)
C[C@@H]1CC[C@H](N2CC[C@]3(CN(C(=O)c4cc5ccc(F)cc5[nH]4)c4ccccc43)C2)C[NH2+]1 (nonaromatic ring conformer: 133.88327646162938 kcal/mol)

>  <smiles>  (32) 
C[C@@H]1CCC(N2CC[C@]3(CN(C(=O)c4cc5ccc(F)cc5[nH]4)c4ccccc43)C2)CN1

>  <score_type>  (32) 
oracle

>  <origin>  (32) 
autodockgpu

>  <m_score__min__energy>  (32) 
-9.6199999999999992

>  <m_primary>  (32) 
energy

>  <meeko>  (32) 
{"free_energy": -9.61, "intermolecular_energy": -10.5, "internal_energy": -1.27, "cluster_size": 19, "cluster_id": 1, "rank_in_cluster": 4}

>  <energy>  (32) 
-9.52

>  <cluster_rmsd>  (32) 
0.54

>  <rmsd>  (32) 
271.0

>  <cluster>  (32) 
1

$$$$
MYPHZBOANNRFAS-KTSDNHQRNA-O
     RDKit          3D

 62 67  0  0  0  0  0  0  0  0999 V2000
  142.8400   80.8150  223.3620 C   0  0  0  0  0  0  0  0  0  0  0  0
  141.7830   79.9880  222.6150 C   0  0  2  0  0  0  0  0  0  0  0  0
  140.5740   79.6840  223.5290 C   0  0  0  0  0  0  0  0  0  0  0  0
  139.8210   78.4120  223.1010 C   0  0  0  0  0  0  0  0  0  0  0  0
  139.9300   78.1720  221.5780 C   0  0  2  0  0  0  0  0  0  0  0  0
  139.1660   76.9650  221.1610 N   0  0  0  0  0  0  0  0  0  0  0  0
  139.3080   76.6550  219.7290 C   0  0  0  0  0  0  0  0  0  0  0  0
  139.1780   75.1530  219.5770 C   0  0  0  0  0  0  0  0  0  0  0  0
  139.7270   74.5940  220.8850 C   0  0  1  0  0  0  0  0  0  0  0  0
  139.0190   73.2630  221.3220 C   0  0  0  0  0  0  0  0  0  0  0  0
  140.0590   72.2340  221.3260 N   0  0  0  0  0  0  0  0  0  0  0  0
  139.9190   70.9870  222.0080 C   0  0  0  0  0  0  0  0  0  0  0  0
  139.6650   69.9450  221.3480 O   0  0  0  0  0  0  0  0  0  0  0  0
  140.0640   70.9190  223.4720 C   0  0  0  0  0  0  0  0  0  0  0  0
  140.6910   71.8820  224.2630 C   0  0  0  0  0  0  0  0  0  0  0  0
  140.5980   71.3980  225.5500 C   0  0  0  0  0  0  0  0  0  0  0  0
  141.0400   71.9380  226.7560 C   0  0  0  0  0  0  0  0  0  0  0  0
  140.8040   71.1970  227.9320 C   0  0  0  0  0  0  0  0  0  0  0  0
  140.1330   69.9520  227.8720 C   0  0  0  0  0  0  0  0  0  0  0  0
  139.9140   69.2490  229.0100 F   0  0  0  0  0  0  0  0  0  0  0  0
  139.6860   69.4430  226.6380 C   0  0  0  0  0  0  0  0  0  0  0  0
  139.9360   70.1970  225.4930 C   0  0  0  0  0  0  0  0  0  0  0  0
  139.5950   69.8970  224.2290 N   0  0  0  0  0  0  0  0  0  0  0  0
  141.3030   72.8350  221.0220 C   0  0  0  0  0  0  0  0  0  0  0  0
  142.5510   72.2030  221.0060 C   0  0  0  0  0  0  0  0  0  0  0  0
  143.6840   72.9690  220.6990 C   0  0  0  0  0  0  0  0  0  0  0  0
  143.5560   74.3420  220.4200 C   0  0  0  0  0  0  0  0  0  0  0  0
  142.2930   74.9540  220.4500 C   0  0  0  0  0  0  0  0  0  0  0  0
  141.1700   74.1710  220.7490 C   0  0  0  0  0  0  0  0  0  0  0  0
  139.5670   75.7460  221.8970 C   0  0  0  0  0  0  0  0  0  0  0  0
  141.4370   78.0320  221.1870 C   0  0  0  0  0  0  0  0  0  0  0  0
  142.3640   78.7360  222.0980 N   0  0  0  0  0  0  0  0  0  0  0  0
  142.6951   80.7016  224.4465 H   0  0  0  0  0  0  0  0  0  0  0  0
  143.8444   80.4605  223.0872 H   0  0  0  0  0  0  0  0  0  0  0  0
  142.7375   81.8752  223.0872 H   0  0  0  0  0  0  0  0  0  0  0  0
  141.4302   80.5846  221.7609 H   0  0  0  0  0  0  0  0  0  0  0  0
  140.9348   79.5512  224.5596 H   0  0  0  0  0  0  0  0  0  0  0  0
  139.8747   80.5297  223.4529 H   0  0  0  0  0  0  0  0  0  0  0  0
  140.2497   77.5482  223.6302 H   0  0  0  0  0  0  0  0  0  0  0  0
  138.7582   78.5396  223.3541 H   0  0  0  0  0  0  0  0  0  0  0  0
  139.4910   79.0329  221.0525 H   0  0  0  0  0  0  0  0  0  0  0  0
  138.5183   77.1611  219.1544 H   0  0  0  0  0  0  0  0  0  0  0  0
  140.2810   77.0015  219.3506 H   0  0  0  0  0  0  0  0  0  0  0  0
  138.1252   74.8646  219.4412 H   0  0  0  0  0  0  0  0  0  0  0  0
  139.7167   74.7710  218.6973 H   0  0  0  0  0  0  0  0  0  0  0  0
  138.5864   73.3728  222.3274 H   0  0  0  0  0  0  0  0  0  0  0  0
  138.1970   73.0016  220.6394 H   0  0  0  0  0  0  0  0  0  0  0  0
  141.1574   72.8217  223.9320 H   0  0  0  0  0  0  0  0  0  0  0  0
  141.5554   72.9092  226.7894 H   0  0  0  0  0  0  0  0  0  0  0  0
  141.1434   71.5888  228.9022 H   0  0  0  0  0  0  0  0  0  0  0  0
  139.1563   68.4807  226.5794 H   0  0  0  0  0  0  0  0  0  0  0  0
  139.0850   69.0450  223.9030 H   0  0  0  0  0  0  0  0  0  0  0  0
  142.6410   71.1297  221.2292 H   0  0  0  0  0  0  0  0  0  0  0  0
  144.6764   72.4951  220.6762 H   0  0  0  0  0  0  0  0  0  0  0  0
  144.4484   74.9378  220.1776 H   0  0  0  0  0  0  0  0  0  0  0  0
  142.1868   76.0290  220.2425 H   0  0  0  0  0  0  0  0  0  0  0  0
  138.7936   75.4869  222.6350 H   0  0  0  0  0  0  0  0  0  0  0  0
  140.5168   75.9193  222.4241 H   0  0  0  0  0  0  0  0  0  0  0  0
  141.6965   76.9630  221.1883 H   0  0  0  0  0  0  0  0  0  0  0  0
  141.5524   78.4956  220.1962 H   0  0  0  0  0  0  0  0  0  0  0  0
  143.2430   78.9480  221.5690 H   0  0  0  0  0  0  0  0  0  0  0  0
  142.6160   78.1070  222.8980 H   0  0  0  0  0  0  0  0  0  0  0  0
  1  2  1  0
  2  3  1  0
  3  4  1  0
  4  5  1  0
  5  6  1  0
  6  7  1  0
  7  8  1  0
  9  8  1  6
  9 10  1  0
 10 11  1  0
 11 12  1  0
 12 13  2  0
 12 14  1  0
 14 15  2  0
 15 16  1  0
 16 17  2  0
 17 18  1  0
 18 19  2  0
 19 20  1  0
 19 21  1  0
 21 22  2  0
 22 23  1  0
 11 24  1  0
 24 25  2  0
 25 26  1  0
 26 27  2  0
 27 28  1  0
 28 29  2  0
  9 30  1  0
  5 31  1  0
 31 32  1  0
 32  2  1  0
 30  6  1  0
 29  9  1  0
 23 14  1  0
 29 24  1  0
 22 16  1  0
  1 33  1  0
  1 34  1  0
  1 35  1  0
  2 36  1  6
  3 37  1  0
  3 38  1  0
  4 39  1  0
  4 40  1  0
  5 41  1  6
  7 42  1  0
  7 43  1  0
  8 44  1  0
  8 45  1  0
 10 46  1  0
 10 47  1  0
 15 48  1  0
 17 49  1  0
 18 50  1  0
 21 51  1  0
 23 52  1  0
 25 53  1  0
 26 54  1  0
 27 55  1  0
 28 56  1  0
 30 57  1  0
 30 58  1  0
 31 59  1  0
 31 60  1  0
 32 61  1  0
 32 62  1  0
M  CHG  1  32   1
M  END
>  <UniqueID>  (33) 
93

>  <SMILES>  (33) 
C[C@@H]1CC[C@H](N2CC[C@]3(CN(C(=O)c4cc5ccc(F)cc5[nH]4)c4ccccc43)C2)C[NH2+]1

>  <Energy>  (33) 
133.88327646162938

>  <Genealogy>  (33) 
C[C@@H]1CCC(N2CC[C@]3(CN(C(=O)c4cc5ccc(F)cc5[nH]4)c4ccccc43)C2)C[NH2+]1 (protonated)
C[C@@H]1CC[C@H](N2CC[C@]3(CN(C(=O)c4cc5ccc(F)cc5[nH]4)c4ccccc43)C2)C[NH2+]1 (chirality)
C[C@@H]1CC[C@H](N2CC[C@]3(CN(C(=O)c4cc5ccc(F)cc5[nH]4)c4ccccc43)C2)C[NH2+]1 (3D coordinates assigned)
C[C@@H]1CC[C@H](N2CC[C@]3(CN(C(=O)c4cc5ccc(F)cc5[nH]4)c4ccccc43)C2)C[NH2+]1 (nonaromatic ring conformer: 133.88327646162938 kcal/mol)

>  <smiles>  (33) 
C[C@@H]1CCC(N2CC[C@]3(CN(C(=O)c4cc5ccc(F)cc5[nH]4)c4ccccc43)C2)CN1

>  <score_type>  (33) 
oracle

>  <origin>  (33) 
autodockgpu

>  <m_score__min__energy>  (33) 
-9.6199999999999992

>  <m_primary>  (33) 
energy

>  <meeko>  (33) 
{"free_energy": -9.61, "intermolecular_energy": -10.5, "internal_energy": -1.24, "cluster_size": 19, "cluster_id": 1, "rank_in_cluster": 3}

>  <energy>  (33) 
-9.51

>  <cluster_rmsd>  (33) 
0.54

>  <rmsd>  (33) 
271.0

>  <cluster>  (33) 
1

$$$$
MYPHZBOANNRFAS-KTSDNHQRNA-O
     RDKit          3D

 62 67  0  0  0  0  0  0  0  0999 V2000
  142.9440   80.5750  222.8730 C   0  0  0  0  0  0  0  0  0  0  0  0
  141.7530   79.7650  222.3400 C   0  0  2  0  0  0  0  0  0  0  0  0
  140.9130   79.1880  223.5030 C   0  0  0  0  0  0  0  0  0  0  0  0
  140.1360   77.9240  223.0940 C   0  0  0  0  0  0  0  0  0  0  0  0
  139.7720   77.9410  221.5910 C   0  0  2  0  0  0  0  0  0  0  0  0
  138.9840   76.7380  221.2090 N   0  0  0  0  0  0  0  0  0  0  0  0
  139.1180   76.3870  219.7850 C   0  0  0  0  0  0  0  0  0  0  0  0
  138.9600   74.8840  219.6740 C   0  0  0  0  0  0  0  0  0  0  0  0
  139.5000   74.3500  220.9970 C   0  0  1  0  0  0  0  0  0  0  0  0
  138.7670   73.0450  221.4710 C   0  0  0  0  0  0  0  0  0  0  0  0
  139.7860   71.9970  221.5020 N   0  0  0  0  0  0  0  0  0  0  0  0
  139.6240   70.7720  222.2180 C   0  0  0  0  0  0  0  0  0  0  0  0
  139.2030   69.7510  221.6120 O   0  0  0  0  0  0  0  0  0  0  0  0
  139.9380   70.7020  223.6550 C   0  0  0  0  0  0  0  0  0  0  0  0
  140.3510   71.7790  224.4400 C   0  0  0  0  0  0  0  0  0  0  0  0
  140.5360   71.2490  225.6980 C   0  0  0  0  0  0  0  0  0  0  0  0
  140.9360   71.8550  226.8890 C   0  0  0  0  0  0  0  0  0  0  0  0
  141.0450   71.0420  228.0340 C   0  0  0  0  0  0  0  0  0  0  0  0
  140.7470   69.6600  227.9630 C   0  0  0  0  0  0  0  0  0  0  0  0
  140.8580   68.8880  229.0720 F   0  0  0  0  0  0  0  0  0  0  0  0
  140.3310   69.0820  226.7480 C   0  0  0  0  0  0  0  0  0  0  0  0
  140.2360   69.9120  225.6320 C   0  0  0  0  0  0  0  0  0  0  0  0
  139.8580   69.5660  224.3900 N   0  0  0  0  0  0  0  0  0  0  0  0
  141.0410   72.5650  221.1800 C   0  0  0  0  0  0  0  0  0  0  0  0
  142.2770   71.9100  221.1810 C   0  0  0  0  0  0  0  0  0  0  0  0
  143.4240   72.6450  220.8520 C   0  0  0  0  0  0  0  0  0  0  0  0
  143.3220   74.0120  220.5350 C   0  0  0  0  0  0  0  0  0  0  0  0
  142.0710   74.6490  220.5500 C   0  0  0  0  0  0  0  0  0  0  0  0
  140.9340   73.8960  220.8710 C   0  0  0  0  0  0  0  0  0  0  0  0
  139.3630   75.5330  221.9770 C   0  0  0  0  0  0  0  0  0  0  0  0
  141.0840   78.0320  220.7470 C   0  0  0  0  0  0  0  0  0  0  0  0
  142.2100   78.6810  221.4500 N   0  0  0  0  0  0  0  0  0  0  0  0
  142.9307   80.5660  223.9729 H   0  0  0  0  0  0  0  0  0  0  0  0
  143.8822   80.1269  222.5139 H   0  0  0  0  0  0  0  0  0  0  0  0
  142.8721   81.6123  222.5139 H   0  0  0  0  0  0  0  0  0  0  0  0
  141.1162   80.4470  221.7575 H   0  0  0  0  0  0  0  0  0  0  0  0
  141.5874   78.9347  224.3343 H   0  0  0  0  0  0  0  0  0  0  0  0
  140.1791   79.9523  223.7983 H   0  0  0  0  0  0  0  0  0  0  0  0
  140.7576   77.0403  223.3008 H   0  0  0  0  0  0  0  0  0  0  0  0
  139.2018   77.8916  223.6739 H   0  0  0  0  0  0  0  0  0  0  0  0
  139.1423   78.8200  221.3889 H   0  0  0  0  0  0  0  0  0  0  0  0
  138.3368   76.8919  219.1978 H   0  0  0  0  0  0  0  0  0  0  0  0
  140.0965   76.7053  219.3961 H   0  0  0  0  0  0  0  0  0  0  0  0
  137.9019   74.6117  219.5466 H   0  0  0  0  0  0  0  0  0  0  0  0
  139.4909   74.4685  218.8048 H   0  0  0  0  0  0  0  0  0  0  0  0
  138.3382   73.1905  222.4735 H   0  0  0  0  0  0  0  0  0  0  0  0
  137.9391   72.7811  220.7965 H   0  0  0  0  0  0  0  0  0  0  0  0
  140.4969   72.8224  224.1237 H   0  0  0  0  0  0  0  0  0  0  0  0
  141.1588   72.9313  226.9325 H   0  0  0  0  0  0  0  0  0  0  0  0
  141.3638   71.4839  228.9896 H   0  0  0  0  0  0  0  0  0  0  0  0
  140.0890   68.0110  226.6818 H   0  0  0  0  0  0  0  0  0  0  0  0
  139.5770   68.6150  224.0620 H   0  0  0  0  0  0  0  0  0  0  0  0
  142.3471   70.8419  221.4344 H   0  0  0  0  0  0  0  0  0  0  0  0
  144.4071   72.1516  220.8416 H   0  0  0  0  0  0  0  0  0  0  0  0
  144.2252   74.5834  220.2746 H   0  0  0  0  0  0  0  0  0  0  0  0
  141.9851   75.7199  220.3140 H   0  0  0  0  0  0  0  0  0  0  0  0
  138.5860   75.3088  222.7227 H   0  0  0  0  0  0  0  0  0  0  0  0
  140.3169   75.7030  222.4977 H   0  0  0  0  0  0  0  0  0  0  0  0
  141.3899   77.0115  220.4730 H   0  0  0  0  0  0  0  0  0  0  0  0
  140.8548   78.6565  219.8710 H   0  0  0  0  0  0  0  0  0  0  0  0
  142.8650   79.0700  220.7310 H   0  0  0  0  0  0  0  0  0  0  0  0
  142.7370   77.9660  222.0070 H   0  0  0  0  0  0  0  0  0  0  0  0
  1  2  1  0
  2  3  1  0
  3  4  1  0
  4  5  1  0
  5  6  1  0
  6  7  1  0
  7  8  1  0
  9  8  1  6
  9 10  1  0
 10 11  1  0
 11 12  1  0
 12 13  2  0
 12 14  1  0
 14 15  2  0
 15 16  1  0
 16 17  2  0
 17 18  1  0
 18 19  2  0
 19 20  1  0
 19 21  1  0
 21 22  2  0
 22 23  1  0
 11 24  1  0
 24 25  2  0
 25 26  1  0
 26 27  2  0
 27 28  1  0
 28 29  2  0
  9 30  1  0
  5 31  1  0
 31 32  1  0
 32  2  1  0
 30  6  1  0
 29  9  1  0
 23 14  1  0
 29 24  1  0
 22 16  1  0
  1 33  1  0
  1 34  1  0
  1 35  1  0
  2 36  1  6
  3 37  1  0
  3 38  1  0
  4 39  1  0
  4 40  1  0
  5 41  1  1
  7 42  1  0
  7 43  1  0
  8 44  1  0
  8 45  1  0
 10 46  1  0
 10 47  1  0
 15 48  1  0
 17 49  1  0
 18 50  1  0
 21 51  1  0
 23 52  1  0
 25 53  1  0
 26 54  1  0
 27 55  1  0
 28 56  1  0
 30 57  1  0
 30 58  1  0
 31 59  1  0
 31 60  1  0
 32 61  1  0
 32 62  1  0
M  CHG  1  32   1
M  END
>  <UniqueID>  (34) 
93

>  <SMILES>  (34) 
C[C@@H]1CC[C@H](N2CC[C@]3(CN(C(=O)c4cc5ccc(F)cc5[nH]4)c4ccccc43)C2)C[NH2+]1

>  <Energy>  (34) 
133.88327646162938

>  <Genealogy>  (34) 
C[C@@H]1CCC(N2CC[C@]3(CN(C(=O)c4cc5ccc(F)cc5[nH]4)c4ccccc43)C2)C[NH2+]1 (protonated)
C[C@@H]1CC[C@H](N2CC[C@]3(CN(C(=O)c4cc5ccc(F)cc5[nH]4)c4ccccc43)C2)C[NH2+]1 (chirality)
C[C@@H]1CC[C@H](N2CC[C@]3(CN(C(=O)c4cc5ccc(F)cc5[nH]4)c4ccccc43)C2)C[NH2+]1 (3D coordinates assigned)
C[C@@H]1CC[C@H](N2CC[C@]3(CN(C(=O)c4cc5ccc(F)cc5[nH]4)c4ccccc43)C2)C[NH2+]1 (nonaromatic ring conformer: 133.88327646162938 kcal/mol)

>  <smiles>  (34) 
C[C@@H]1CCC(N2CC[C@]3(CN(C(=O)c4cc5ccc(F)cc5[nH]4)c4ccccc43)C2)CN1

>  <score_type>  (34) 
oracle

>  <origin>  (34) 
autodockgpu

>  <m_score__min__energy>  (34) 
-9.6199999999999992

>  <m_primary>  (34) 
energy

>  <meeko>  (34) 
{"free_energy": -9.51, "intermolecular_energy": -10.4, "internal_energy": -1.34, "cluster_size": 19, "cluster_id": 1, "rank_in_cluster": 19}

>  <energy>  (34) 
-9.51

>  <cluster_rmsd>  (34) 
0.52

>  <rmsd>  (34) 
271.01

>  <cluster>  (34) 
1

$$$$
MYPHZBOANNRFAS-KTSDNHQRNA-O
     RDKit          3D

 62 67  0  0  0  0  0  0  0  0999 V2000
  142.9570   80.6270  222.8800 C   0  0  0  0  0  0  0  0  0  0  0  0
  141.7650   79.8190  222.3450 C   0  0  2  0  0  0  0  0  0  0  0  0
  140.9270   79.2390  223.5070 C   0  0  0  0  0  0  0  0  0  0  0  0
  140.1490   77.9760  223.0960 C   0  0  0  0  0  0  0  0  0  0  0  0
  139.7830   77.9980  221.5930 C   0  0  2  0  0  0  0  0  0  0  0  0
  138.9950   76.7960  221.2080 N   0  0  0  0  0  0  0  0  0  0  0  0
  139.1280   76.4480  219.7840 C   0  0  0  0  0  0  0  0  0  0  0  0
  138.9690   74.9460  219.6690 C   0  0  0  0  0  0  0  0  0  0  0  0
  139.5090   74.4080  220.9910 C   0  0  1  0  0  0  0  0  0  0  0  0
  138.7750   73.1030  221.4620 C   0  0  0  0  0  0  0  0  0  0  0  0
  139.7940   72.0540  221.4900 N   0  0  0  0  0  0  0  0  0  0  0  0
  139.6310   70.8270  222.2040 C   0  0  0  0  0  0  0  0  0  0  0  0
  139.2060   69.8100  221.5960 O   0  0  0  0  0  0  0  0  0  0  0  0
  139.9490   70.7530  223.6400 C   0  0  0  0  0  0  0  0  0  0  0  0
  140.3700   71.8270  224.4260 C   0  0  0  0  0  0  0  0  0  0  0  0
  140.5560   71.2930  225.6830 C   0  0  0  0  0  0  0  0  0  0  0  0
  140.9620   71.8950  226.8730 C   0  0  0  0  0  0  0  0  0  0  0  0
  141.0700   71.0790  228.0160 C   0  0  0  0  0  0  0  0  0  0  0  0
  140.7660   69.6980  227.9430 C   0  0  0  0  0  0  0  0  0  0  0  0
  140.8760   68.9230  229.0500 F   0  0  0  0  0  0  0  0  0  0  0  0
  140.3430   69.1250  226.7290 C   0  0  0  0  0  0  0  0  0  0  0  0
  140.2490   69.9580  225.6140 C   0  0  0  0  0  0  0  0  0  0  0  0
  139.8660   69.6160  224.3730 N   0  0  0  0  0  0  0  0  0  0  0  0
  141.0500   72.6220  221.1700 C   0  0  0  0  0  0  0  0  0  0  0  0
  142.2850   71.9660  221.1690 C   0  0  0  0  0  0  0  0  0  0  0  0
  143.4320   72.7010  220.8420 C   0  0  0  0  0  0  0  0  0  0  0  0
  143.3310   74.0690  220.5290 C   0  0  0  0  0  0  0  0  0  0  0  0
  142.0800   74.7070  220.5450 C   0  0  0  0  0  0  0  0  0  0  0  0
  140.9430   73.9540  220.8650 C   0  0  0  0  0  0  0  0  0  0  0  0
  139.3720   75.5890  221.9740 C   0  0  0  0  0  0  0  0  0  0  0  0
  141.0940   78.0910  220.7470 C   0  0  0  0  0  0  0  0  0  0  0  0
  142.2210   78.7380  221.4520 N   0  0  0  0  0  0  0  0  0  0  0  0
  142.9425   80.6172  223.9799 H   0  0  0  0  0  0  0  0  0  0  0  0
  143.8949   80.1777  222.5216 H   0  0  0  0  0  0  0  0  0  0  0  0
  142.8871   81.6646  222.5216 H   0  0  0  0  0  0  0  0  0  0  0  0
  141.1277   80.5025  221.7648 H   0  0  0  0  0  0  0  0  0  0  0  0
  141.6027   78.9834  224.3366 H   0  0  0  0  0  0  0  0  0  0  0  0
  140.1935   80.0025  223.8053 H   0  0  0  0  0  0  0  0  0  0  0  0
  140.7706   77.0916  223.2993 H   0  0  0  0  0  0  0  0  0  0  0  0
  139.2159   77.9416  223.6774 H   0  0  0  0  0  0  0  0  0  0  0  0
  139.1533   78.8779  221.3951 H   0  0  0  0  0  0  0  0  0  0  0  0
  138.3469   76.9549  219.1984 H   0  0  0  0  0  0  0  0  0  0  0  0
  140.1068   76.7662  219.3958 H   0  0  0  0  0  0  0  0  0  0  0  0
  137.9107   74.6748  219.5410 H   0  0  0  0  0  0  0  0  0  0  0  0
  139.4994   74.5324  218.7986 H   0  0  0  0  0  0  0  0  0  0  0  0
  138.3467   73.2464  222.4650 H   0  0  0  0  0  0  0  0  0  0  0  0
  137.9464   72.8414  220.7874 H   0  0  0  0  0  0  0  0  0  0  0  0
  140.5203   72.8703  224.1114 H   0  0  0  0  0  0  0  0  0  0  0  0
  141.1902   72.9701  226.9178 H   0  0  0  0  0  0  0  0  0  0  0  0
  141.3927   71.5176  228.9718 H   0  0  0  0  0  0  0  0  0  0  0  0
  140.0947   68.0555  226.6617 H   0  0  0  0  0  0  0  0  0  0  0  0
  139.5790   68.6670  224.0440 H   0  0  0  0  0  0  0  0  0  0  0  0
  142.3543   70.8971  221.4193 H   0  0  0  0  0  0  0  0  0  0  0  0
  144.4147   72.2070  220.8299 H   0  0  0  0  0  0  0  0  0  0  0  0
  144.2347   74.6406  220.2710 H   0  0  0  0  0  0  0  0  0  0  0  0
  141.9946   75.7783  220.3105 H   0  0  0  0  0  0  0  0  0  0  0  0
  138.5939   75.3639  222.7182 H   0  0  0  0  0  0  0  0  0  0  0  0
  140.3253   75.7569  222.4965 H   0  0  0  0  0  0  0  0  0  0  0  0
  141.3994   77.0714  220.4695 H   0  0  0  0  0  0  0  0  0  0  0  0
  140.8643   78.7176  219.8726 H   0  0  0  0  0  0  0  0  0  0  0  0
  142.8750   79.1290  220.7320 H   0  0  0  0  0  0  0  0  0  0  0  0
  142.7480   78.0210  222.0060 H   0  0  0  0  0  0  0  0  0  0  0  0
  1  2  1  0
  2  3  1  0
  3  4  1  0
  4  5  1  0
  5  6  1  0
  6  7  1  0
  7  8  1  0
  9  8  1  6
  9 10  1  0
 10 11  1  0
 11 12  1  0
 12 13  2  0
 12 14  1  0
 14 15  2  0
 15 16  1  0
 16 17  2  0
 17 18  1  0
 18 19  2  0
 19 20  1  0
 19 21  1  0
 21 22  2  0
 22 23  1  0
 11 24  1  0
 24 25  2  0
 25 26  1  0
 26 27  2  0
 27 28  1  0
 28 29  2  0
  9 30  1  0
  5 31  1  0
 31 32  1  0
 32  2  1  0
 30  6  1  0
 29  9  1  0
 23 14  1  0
 29 24  1  0
 22 16  1  0
  1 33  1  0
  1 34  1  0
  1 35  1  0
  2 36  1  6
  3 37  1  0
  3 38  1  0
  4 39  1  0
  4 40  1  0
  5 41  1  1
  7 42  1  0
  7 43  1  0
  8 44  1  0
  8 45  1  0
 10 46  1  0
 10 47  1  0
 15 48  1  0
 17 49  1  0
 18 50  1  0
 21 51  1  0
 23 52  1  0
 25 53  1  0
 26 54  1  0
 27 55  1  0
 28 56  1  0
 30 57  1  0
 30 58  1  0
 31 59  1  0
 31 60  1  0
 32 61  1  0
 32 62  1  0
M  CHG  1  32   1
M  END
>  <UniqueID>  (35) 
93

>  <SMILES>  (35) 
C[C@@H]1CC[C@H](N2CC[C@]3(CN(C(=O)c4cc5ccc(F)cc5[nH]4)c4ccccc43)C2)C[NH2+]1

>  <Energy>  (35) 
133.88327646162938

>  <Genealogy>  (35) 
C[C@@H]1CCC(N2CC[C@]3(CN(C(=O)c4cc5ccc(F)cc5[nH]4)c4ccccc43)C2)C[NH2+]1 (protonated)
C[C@@H]1CC[C@H](N2CC[C@]3(CN(C(=O)c4cc5ccc(F)cc5[nH]4)c4ccccc43)C2)C[NH2+]1 (chirality)
C[C@@H]1CC[C@H](N2CC[C@]3(CN(C(=O)c4cc5ccc(F)cc5[nH]4)c4ccccc43)C2)C[NH2+]1 (3D coordinates assigned)
C[C@@H]1CC[C@H](N2CC[C@]3(CN(C(=O)c4cc5ccc(F)cc5[nH]4)c4ccccc43)C2)C[NH2+]1 (nonaromatic ring conformer: 133.88327646162938 kcal/mol)

>  <smiles>  (35) 
C[C@@H]1CCC(N2CC[C@]3(CN(C(=O)c4cc5ccc(F)cc5[nH]4)c4ccccc43)C2)CN1

>  <score_type>  (35) 
oracle

>  <origin>  (35) 
autodockgpu

>  <m_score__min__energy>  (35) 
-9.6199999999999992

>  <m_primary>  (35) 
energy

>  <meeko>  (35) 
{"free_energy": -9.51, "intermolecular_energy": -10.4, "internal_energy": -1.34, "cluster_size": 19, "cluster_id": 1, "rank_in_cluster": 18}

>  <energy>  (35) 
-9.51

>  <cluster_rmsd>  (35) 
0.53

>  <rmsd>  (35) 
271.01

>  <cluster>  (35) 
1

$$$$
MYPHZBOANNRFAS-KTSDNHQRNA-O
     RDKit          3D

 62 67  0  0  0  0  0  0  0  0999 V2000
  142.9430   80.5810  222.8450 C   0  0  0  0  0  0  0  0  0  0  0  0
  141.7490   79.7690  222.3220 C   0  0  2  0  0  0  0  0  0  0  0  0
  140.9210   79.1900  223.4920 C   0  0  0  0  0  0  0  0  0  0  0  0
  140.1430   77.9240  223.0900 C   0  0  0  0  0  0  0  0  0  0  0  0
  139.7640   77.9430  221.5910 C   0  0  2  0  0  0  0  0  0  0  0  0
  138.9750   76.7380  221.2140 N   0  0  0  0  0  0  0  0  0  0  0  0
  139.1000   76.3860  219.7900 C   0  0  0  0  0  0  0  0  0  0  0  0
  138.9430   74.8830  219.6810 C   0  0  0  0  0  0  0  0  0  0  0  0
  139.4910   74.3510  221.0010 C   0  0  1  0  0  0  0  0  0  0  0  0
  138.7630   73.0460  221.4810 C   0  0  0  0  0  0  0  0  0  0  0  0
  139.7830   71.9990  221.5060 N   0  0  0  0  0  0  0  0  0  0  0  0
  139.6270   70.7740  222.2250 C   0  0  0  0  0  0  0  0  0  0  0  0
  139.2070   69.7520  221.6220 O   0  0  0  0  0  0  0  0  0  0  0  0
  139.9450   70.7070  223.6610 C   0  0  0  0  0  0  0  0  0  0  0  0
  140.3670   71.7850  224.4420 C   0  0  0  0  0  0  0  0  0  0  0  0
  140.5530   71.2580  225.7010 C   0  0  0  0  0  0  0  0  0  0  0  0
  140.9610   71.8650  226.8870 C   0  0  0  0  0  0  0  0  0  0  0  0
  141.0690   71.0550  228.0350 C   0  0  0  0  0  0  0  0  0  0  0  0
  140.7640   69.6740  227.9700 C   0  0  0  0  0  0  0  0  0  0  0  0
  140.8740   68.9050  229.0800 F   0  0  0  0  0  0  0  0  0  0  0  0
  140.3400   69.0950  226.7580 C   0  0  0  0  0  0  0  0  0  0  0  0
  140.2460   69.9220  225.6390 C   0  0  0  0  0  0  0  0  0  0  0  0
  139.8620   69.5740  224.4000 N   0  0  0  0  0  0  0  0  0  0  0  0
  141.0360   72.5680  221.1760 C   0  0  0  0  0  0  0  0  0  0  0  0
  142.2720   71.9130  221.1700 C   0  0  0  0  0  0  0  0  0  0  0  0
  143.4160   72.6490  220.8330 C   0  0  0  0  0  0  0  0  0  0  0  0
  143.3110   74.0150  220.5160 C   0  0  0  0  0  0  0  0  0  0  0  0
  142.0600   74.6520  220.5380 C   0  0  0  0  0  0  0  0  0  0  0  0
  140.9250   73.8980  220.8670 C   0  0  0  0  0  0  0  0  0  0  0  0
  139.3590   75.5340  221.9810 C   0  0  0  0  0  0  0  0  0  0  0  0
  141.0680   78.0370  220.7340 C   0  0  0  0  0  0  0  0  0  0  0  0
  142.1990   78.6880  221.4270 N   0  0  0  0  0  0  0  0  0  0  0  0
  142.9360   80.5763  223.9450 H   0  0  0  0  0  0  0  0  0  0  0  0
  143.8792   80.1315  222.4823 H   0  0  0  0  0  0  0  0  0  0  0  0
  142.8690   81.6169  222.4823 H   0  0  0  0  0  0  0  0  0  0  0  0
  141.1056   80.4501  221.7457 H   0  0  0  0  0  0  0  0  0  0  0  0
  141.6035   78.9382  224.3171 H   0  0  0  0  0  0  0  0  0  0  0  0
  140.1879   79.9526  223.7938 H   0  0  0  0  0  0  0  0  0  0  0  0
  140.7689   77.0416  223.2891 H   0  0  0  0  0  0  0  0  0  0  0  0
  139.2152   77.8876  223.6798 H   0  0  0  0  0  0  0  0  0  0  0  0
  139.1305   78.8212  221.3973 H   0  0  0  0  0  0  0  0  0  0  0  0
  138.3144   76.8896  219.2076 H   0  0  0  0  0  0  0  0  0  0  0  0
  140.0757   76.7049  219.3946 H   0  0  0  0  0  0  0  0  0  0  0  0
  137.8845   74.6094  219.5598 H   0  0  0  0  0  0  0  0  0  0  0  0
  139.4692   74.4673  218.8091 H   0  0  0  0  0  0  0  0  0  0  0  0
  138.3410   73.1920  222.4863 H   0  0  0  0  0  0  0  0  0  0  0  0
  137.9309   72.7807  220.8123 H   0  0  0  0  0  0  0  0  0  0  0  0
  140.5178   72.8266  224.1220 H   0  0  0  0  0  0  0  0  0  0  0  0
  141.1910   72.9400  226.9258 H   0  0  0  0  0  0  0  0  0  0  0  0
  141.3925   71.4987  228.9881 H   0  0  0  0  0  0  0  0  0  0  0  0
  140.0911   68.0253  226.6961 H   0  0  0  0  0  0  0  0  0  0  0  0
  139.5740   68.6230  224.0760 H   0  0  0  0  0  0  0  0  0  0  0  0
  142.3443   70.8451  221.4239 H   0  0  0  0  0  0  0  0  0  0  0  0
  144.3994   72.1565  220.8164 H   0  0  0  0  0  0  0  0  0  0  0  0
  144.2124   74.5866  220.2498 H   0  0  0  0  0  0  0  0  0  0  0  0
  141.9722   75.7227  220.3015 H   0  0  0  0  0  0  0  0  0  0  0  0
  138.5863   75.3099  222.7312 H   0  0  0  0  0  0  0  0  0  0  0  0
  140.3156   75.7048  222.4966 H   0  0  0  0  0  0  0  0  0  0  0  0
  141.3734   77.0173  220.4566 H   0  0  0  0  0  0  0  0  0  0  0  0
  140.8293   78.6612  219.8602 H   0  0  0  0  0  0  0  0  0  0  0  0
  142.8460   79.0790  220.7020 H   0  0  0  0  0  0  0  0  0  0  0  0
  142.7330   77.9730  221.9780 H   0  0  0  0  0  0  0  0  0  0  0  0
  1  2  1  0
  2  3  1  0
  3  4  1  0
  4  5  1  0
  5  6  1  0
  6  7  1  0
  7  8  1  0
  9  8  1  6
  9 10  1  0
 10 11  1  0
 11 12  1  0
 12 13  2  0
 12 14  1  0
 14 15  2  0
 15 16  1  0
 16 17  2  0
 17 18  1  0
 18 19  2  0
 19 20  1  0
 19 21  1  0
 21 22  2  0
 22 23  1  0
 11 24  1  0
 24 25  2  0
 25 26  1  0
 26 27  2  0
 27 28  1  0
 28 29  2  0
  9 30  1  0
  5 31  1  0
 31 32  1  0
 32  2  1  0
 30  6  1  0
 29  9  1  0
 23 14  1  0
 29 24  1  0
 22 16  1  0
  1 33  1  0
  1 34  1  0
  1 35  1  0
  2 36  1  6
  3 37  1  0
  3 38  1  0
  4 39  1  0
  4 40  1  0
  5 41  1  1
  7 42  1  0
  7 43  1  0
  8 44  1  0
  8 45  1  0
 10 46  1  0
 10 47  1  0
 15 48  1  0
 17 49  1  0
 18 50  1  0
 21 51  1  0
 23 52  1  0
 25 53  1  0
 26 54  1  0
 27 55  1  0
 28 56  1  0
 30 57  1  0
 30 58  1  0
 31 59  1  0
 31 60  1  0
 32 61  1  0
 32 62  1  0
M  CHG  1  32   1
M  END
>  <UniqueID>  (36) 
93

>  <SMILES>  (36) 
C[C@@H]1CC[C@H](N2CC[C@]3(CN(C(=O)c4cc5ccc(F)cc5[nH]4)c4ccccc43)C2)C[NH2+]1

>  <Energy>  (36) 
133.88327646162938

>  <Genealogy>  (36) 
C[C@@H]1CCC(N2CC[C@]3(CN(C(=O)c4cc5ccc(F)cc5[nH]4)c4ccccc43)C2)C[NH2+]1 (protonated)
C[C@@H]1CC[C@H](N2CC[C@]3(CN(C(=O)c4cc5ccc(F)cc5[nH]4)c4ccccc43)C2)C[NH2+]1 (chirality)
C[C@@H]1CC[C@H](N2CC[C@]3(CN(C(=O)c4cc5ccc(F)cc5[nH]4)c4ccccc43)C2)C[NH2+]1 (3D coordinates assigned)
C[C@@H]1CC[C@H](N2CC[C@]3(CN(C(=O)c4cc5ccc(F)cc5[nH]4)c4ccccc43)C2)C[NH2+]1 (nonaromatic ring conformer: 133.88327646162938 kcal/mol)

>  <smiles>  (36) 
C[C@@H]1CCC(N2CC[C@]3(CN(C(=O)c4cc5ccc(F)cc5[nH]4)c4ccccc43)C2)CN1

>  <score_type>  (36) 
oracle

>  <origin>  (36) 
autodockgpu

>  <m_score__min__energy>  (36) 
-9.6199999999999992

>  <m_primary>  (36) 
energy

>  <meeko>  (36) 
{"free_energy": -9.52, "intermolecular_energy": -10.41, "internal_energy": -1.34, "cluster_size": 19, "cluster_id": 1, "rank_in_cluster": 12}

>  <energy>  (36) 
-9.51

>  <cluster_rmsd>  (36) 
0.54

>  <rmsd>  (36) 
271.0

>  <cluster>  (36) 
1

$$$$
MYPHZBOANNRFAS-KTSDNHQRNA-O
     RDKit          3D

 62 67  0  0  0  0  0  0  0  0999 V2000
  142.7970   80.7500  223.3610 C   0  0  0  0  0  0  0  0  0  0  0  0
  141.7370   79.9270  222.6140 C   0  0  2  0  0  0  0  0  0  0  0  0
  140.5420   79.6000  223.5380 C   0  0  0  0  0  0  0  0  0  0  0  0
  139.7920   78.3290  223.1000 C   0  0  0  0  0  0  0  0  0  0  0  0
  139.8840   78.1130  221.5710 C   0  0  2  0  0  0  0  0  0  0  0  0
  139.1230   76.9070  221.1460 N   0  0  0  0  0  0  0  0  0  0  0  0
  139.2950   76.5890  219.7190 C   0  0  0  0  0  0  0  0  0  0  0  0
  139.1620   75.0860  219.5720 C   0  0  0  0  0  0  0  0  0  0  0  0
  139.6800   74.5320  220.8960 C   0  0  1  0  0  0  0  0  0  0  0  0
  138.9560   73.2070  221.3250 C   0  0  0  0  0  0  0  0  0  0  0  0
  139.9910   72.1730  221.3570 N   0  0  0  0  0  0  0  0  0  0  0  0
  139.8310   70.9310  222.0430 C   0  0  0  0  0  0  0  0  0  0  0  0
  139.4560   69.9130  221.4030 O   0  0  0  0  0  0  0  0  0  0  0  0
  140.0940   70.8400  223.4890 C   0  0  0  0  0  0  0  0  0  0  0  0
  140.5430   71.8890  224.2920 C   0  0  0  0  0  0  0  0  0  0  0  0
  140.6570   71.3460  225.5530 C   0  0  0  0  0  0  0  0  0  0  0  0
  141.0520   71.9250  226.7580 C   0  0  0  0  0  0  0  0  0  0  0  0
  141.0770   71.1040  227.9030 C   0  0  0  0  0  0  0  0  0  0  0  0
  140.7040   69.7420  227.8160 C   0  0  0  0  0  0  0  0  0  0  0  0
  140.7350   68.9620  228.9250 F   0  0  0  0  0  0  0  0  0  0  0  0
  140.2950   69.1920  226.5870 C   0  0  0  0  0  0  0  0  0  0  0  0
  140.2830   70.0290  225.4710 C   0  0  0  0  0  0  0  0  0  0  0  0
  139.9260   69.7080  224.2160 N   0  0  0  0  0  0  0  0  0  0  0  0
  141.2440   72.7670  221.0760 C   0  0  0  0  0  0  0  0  0  0  0  0
  142.4890   72.1290  221.0910 C   0  0  0  0  0  0  0  0  0  0  0  0
  143.6320   72.8880  220.8030 C   0  0  0  0  0  0  0  0  0  0  0  0
  143.5160   74.2600  220.5140 C   0  0  0  0  0  0  0  0  0  0  0  0
  142.2560   74.8780  220.5130 C   0  0  0  0  0  0  0  0  0  0  0  0
  141.1230   74.1020  220.7930 C   0  0  0  0  0  0  0  0  0  0  0  0
  139.5030   75.6910  221.8970 C   0  0  0  0  0  0  0  0  0  0  0  0
  141.3870   77.9900  221.1600 C   0  0  0  0  0  0  0  0  0  0  0  0
  142.3200   78.6870  222.0710 N   0  0  0  0  0  0  0  0  0  0  0  0
  142.6516   80.6371  224.4455 H   0  0  0  0  0  0  0  0  0  0  0  0
  143.8001   80.3917  223.0862 H   0  0  0  0  0  0  0  0  0  0  0  0
  142.6985   81.8106  223.0862 H   0  0  0  0  0  0  0  0  0  0  0  0
  141.3700   80.5342  221.7734 H   0  0  0  0  0  0  0  0  0  0  0  0
  140.9168   79.4539  224.5618 H   0  0  0  0  0  0  0  0  0  0  0  0
  139.8358   80.4416  223.4835 H   0  0  0  0  0  0  0  0  0  0  0  0
  140.2331   77.4602  223.6106 H   0  0  0  0  0  0  0  0  0  0  0  0
  138.7316   78.4451  223.3683 H   0  0  0  0  0  0  0  0  0  0  0  0
  139.4330   78.9783  221.0632 H   0  0  0  0  0  0  0  0  0  0  0  0
  138.5201   77.0952  219.1246 H   0  0  0  0  0  0  0  0  0  0  0  0
  140.2774   76.9296  219.3601 H   0  0  0  0  0  0  0  0  0  0  0  0
  138.1113   74.8011  219.4145 H   0  0  0  0  0  0  0  0  0  0  0  0
  139.7183   74.6969  218.7065 H   0  0  0  0  0  0  0  0  0  0  0  0
  138.5024   73.3245  222.3202 H   0  0  0  0  0  0  0  0  0  0  0  0
  138.1474   72.9457  220.6264 H   0  0  0  0  0  0  0  0  0  0  0  0
  140.7587   72.9231  223.9854 H   0  0  0  0  0  0  0  0  0  0  0  0
  141.3346   72.9867  226.8132 H   0  0  0  0  0  0  0  0  0  0  0  0
  141.3885   71.5247  228.8705 H   0  0  0  0  0  0  0  0  0  0  0  0
  139.9946   68.1367  226.5088 H   0  0  0  0  0  0  0  0  0  0  0  0
  139.6020   68.7750  223.8760 H   0  0  0  0  0  0  0  0  0  0  0  0
  142.5692   71.0568  221.3234 H   0  0  0  0  0  0  0  0  0  0  0  0
  144.6224   72.4094  220.8030 H   0  0  0  0  0  0  0  0  0  0  0  0
  144.4162   74.8505  220.2880 H   0  0  0  0  0  0  0  0  0  0  0  0
  142.1594   75.9521  220.2963 H   0  0  0  0  0  0  0  0  0  0  0  0
  138.7129   75.4394  222.6198 H   0  0  0  0  0  0  0  0  0  0  0  0
  140.4423   75.8638  222.4429 H   0  0  0  0  0  0  0  0  0  0  0  0
  141.6541   76.9231  221.1418 H   0  0  0  0  0  0  0  0  0  0  0  0
  141.4872   78.4694  220.1751 H   0  0  0  0  0  0  0  0  0  0  0  0
  143.1920   78.9130  221.5350 H   0  0  0  0  0  0  0  0  0  0  0  0
  142.5870   78.0480  222.8580 H   0  0  0  0  0  0  0  0  0  0  0  0
  1  2  1  0
  2  3  1  0
  3  4  1  0
  4  5  1  0
  5  6  1  0
  6  7  1  0
  7  8  1  0
  9  8  1  6
  9 10  1  0
 10 11  1  0
 11 12  1  0
 12 13  2  0
 12 14  1  0
 14 15  2  0
 15 16  1  0
 16 17  2  0
 17 18  1  0
 18 19  2  0
 19 20  1  0
 19 21  1  0
 21 22  2  0
 22 23  1  0
 11 24  1  0
 24 25  2  0
 25 26  1  0
 26 27  2  0
 27 28  1  0
 28 29  2  0
  9 30  1  0
  5 31  1  0
 31 32  1  0
 32  2  1  0
 30  6  1  0
 29  9  1  0
 23 14  1  0
 29 24  1  0
 22 16  1  0
  1 33  1  0
  1 34  1  0
  1 35  1  0
  2 36  1  6
  3 37  1  0
  3 38  1  0
  4 39  1  0
  4 40  1  0
  5 41  1  6
  7 42  1  0
  7 43  1  0
  8 44  1  0
  8 45  1  0
 10 46  1  0
 10 47  1  0
 15 48  1  0
 17 49  1  0
 18 50  1  0
 21 51  1  0
 23 52  1  0
 25 53  1  0
 26 54  1  0
 27 55  1  0
 28 56  1  0
 30 57  1  0
 30 58  1  0
 31 59  1  0
 31 60  1  0
 32 61  1  0
 32 62  1  0
M  CHG  1  32   1
M  END
>  <UniqueID>  (37) 
93

>  <SMILES>  (37) 
C[C@@H]1CC[C@H](N2CC[C@]3(CN(C(=O)c4cc5ccc(F)cc5[nH]4)c4ccccc43)C2)C[NH2+]1

>  <Energy>  (37) 
133.88327646162938

>  <Genealogy>  (37) 
C[C@@H]1CCC(N2CC[C@]3(CN(C(=O)c4cc5ccc(F)cc5[nH]4)c4ccccc43)C2)C[NH2+]1 (protonated)
C[C@@H]1CC[C@H](N2CC[C@]3(CN(C(=O)c4cc5ccc(F)cc5[nH]4)c4ccccc43)C2)C[NH2+]1 (chirality)
C[C@@H]1CC[C@H](N2CC[C@]3(CN(C(=O)c4cc5ccc(F)cc5[nH]4)c4ccccc43)C2)C[NH2+]1 (3D coordinates assigned)
C[C@@H]1CC[C@H](N2CC[C@]3(CN(C(=O)c4cc5ccc(F)cc5[nH]4)c4ccccc43)C2)C[NH2+]1 (nonaromatic ring conformer: 133.88327646162938 kcal/mol)

>  <smiles>  (37) 
C[C@@H]1CCC(N2CC[C@]3(CN(C(=O)c4cc5ccc(F)cc5[nH]4)c4ccccc43)C2)CN1

>  <score_type>  (37) 
oracle

>  <origin>  (37) 
autodockgpu

>  <m_score__min__energy>  (37) 
-9.6199999999999992

>  <m_primary>  (37) 
energy

>  <meeko>  (37) 
{"free_energy": -9.6, "intermolecular_energy": -10.49, "internal_energy": -1.28, "cluster_size": 19, "cluster_id": 1, "rank_in_cluster": 9}

>  <energy>  (37) 
-9.51

>  <cluster_rmsd>  (37) 
0.53

>  <rmsd>  (37) 
271.01

>  <cluster>  (37) 
1

$$$$
MYPHZBOANNRFAS-KTSDNHQRNA-O
     RDKit          3D

 62 67  0  0  0  0  0  0  0  0999 V2000
  142.9480   80.6190  222.8620 C   0  0  0  0  0  0  0  0  0  0  0  0
  141.7540   79.8100  222.3340 C   0  0  2  0  0  0  0  0  0  0  0  0
  140.9270   79.2240  223.5010 C   0  0  0  0  0  0  0  0  0  0  0  0
  140.1480   77.9610  223.0910 C   0  0  0  0  0  0  0  0  0  0  0  0
  139.7700   77.9870  221.5920 C   0  0  2  0  0  0  0  0  0  0  0  0
  138.9810   76.7850  221.2090 N   0  0  0  0  0  0  0  0  0  0  0  0
  139.1110   76.4370  219.7850 C   0  0  0  0  0  0  0  0  0  0  0  0
  138.9520   74.9350  219.6700 C   0  0  0  0  0  0  0  0  0  0  0  0
  139.4950   74.3980  220.9910 C   0  0  1  0  0  0  0  0  0  0  0  0
  138.7630   73.0920  221.4630 C   0  0  0  0  0  0  0  0  0  0  0  0
  139.7830   72.0440  221.4900 N   0  0  0  0  0  0  0  0  0  0  0  0
  139.6220   70.8170  222.2040 C   0  0  0  0  0  0  0  0  0  0  0  0
  139.1950   69.7990  221.5970 O   0  0  0  0  0  0  0  0  0  0  0  0
  139.9450   70.7430  223.6380 C   0  0  0  0  0  0  0  0  0  0  0  0
  140.3620   71.8170  224.4250 C   0  0  0  0  0  0  0  0  0  0  0  0
  140.5550   71.2830  225.6800 C   0  0  0  0  0  0  0  0  0  0  0  0
  140.9620   71.8850  226.8700 C   0  0  0  0  0  0  0  0  0  0  0  0
  141.0780   71.0680  228.0120 C   0  0  0  0  0  0  0  0  0  0  0  0
  140.7810   69.6860  227.9380 C   0  0  0  0  0  0  0  0  0  0  0  0
  140.8990   68.9110  229.0430 F   0  0  0  0  0  0  0  0  0  0  0  0
  140.3570   69.1130  226.7240 C   0  0  0  0  0  0  0  0  0  0  0  0
  140.2550   69.9460  225.6110 C   0  0  0  0  0  0  0  0  0  0  0  0
  139.8700   69.6040  224.3700 N   0  0  0  0  0  0  0  0  0  0  0  0
  141.0370   72.6120  221.1660 C   0  0  0  0  0  0  0  0  0  0  0  0
  142.2730   71.9570  221.1620 C   0  0  0  0  0  0  0  0  0  0  0  0
  143.4190   72.6920  220.8320 C   0  0  0  0  0  0  0  0  0  0  0  0
  143.3160   74.0600  220.5190 C   0  0  0  0  0  0  0  0  0  0  0  0
  142.0660   74.6970  220.5380 C   0  0  0  0  0  0  0  0  0  0  0  0
  140.9290   73.9440  220.8610 C   0  0  0  0  0  0  0  0  0  0  0  0
  139.3610   75.5780  221.9740 C   0  0  0  0  0  0  0  0  0  0  0  0
  141.0730   78.0870  220.7360 C   0  0  0  0  0  0  0  0  0  0  0  0
  142.2050   78.7340  221.4330 N   0  0  0  0  0  0  0  0  0  0  0  0
  142.9379   80.6122  223.9619 H   0  0  0  0  0  0  0  0  0  0  0  0
  143.8844   80.1686  222.5011 H   0  0  0  0  0  0  0  0  0  0  0  0
  142.8768   81.6557  222.5011 H   0  0  0  0  0  0  0  0  0  0  0  0
  141.1101   80.4938  221.7615 H   0  0  0  0  0  0  0  0  0  0  0  0
  141.6101   78.9664  224.3238 H   0  0  0  0  0  0  0  0  0  0  0  0
  140.1948   79.9849  223.8089 H   0  0  0  0  0  0  0  0  0  0  0  0
  140.7729   77.0770  223.2863 H   0  0  0  0  0  0  0  0  0  0  0  0
  139.2194   77.9234  223.6794 H   0  0  0  0  0  0  0  0  0  0  0  0
  139.1364   78.8660  221.4023 H   0  0  0  0  0  0  0  0  0  0  0  0
  138.3286   76.9438  219.2011 H   0  0  0  0  0  0  0  0  0  0  0  0
  140.0890   76.7553  219.3949 H   0  0  0  0  0  0  0  0  0  0  0  0
  137.8935   74.6634  219.5442 H   0  0  0  0  0  0  0  0  0  0  0  0
  139.4803   74.5212  218.7984 H   0  0  0  0  0  0  0  0  0  0  0  0
  138.3356   73.2350  222.4664 H   0  0  0  0  0  0  0  0  0  0  0  0
  137.9341   72.8295  220.7893 H   0  0  0  0  0  0  0  0  0  0  0  0
  140.5053   72.8617  224.1118 H   0  0  0  0  0  0  0  0  0  0  0  0
  141.1850   72.9612  226.9157 H   0  0  0  0  0  0  0  0  0  0  0  0
  141.4015   71.5070  228.9673 H   0  0  0  0  0  0  0  0  0  0  0  0
  140.1140   68.0423  226.6559 H   0  0  0  0  0  0  0  0  0  0  0  0
  139.5870   68.6540  224.0410 H   0  0  0  0  0  0  0  0  0  0  0  0
  142.3435   70.8882  221.4125 H   0  0  0  0  0  0  0  0  0  0  0  0
  144.4020   72.1984  220.8175 H   0  0  0  0  0  0  0  0  0  0  0  0
  144.2187   74.6321  220.2585 H   0  0  0  0  0  0  0  0  0  0  0  0
  141.9800   75.7683  220.3036 H   0  0  0  0  0  0  0  0  0  0  0  0
  138.5854   75.3526  222.7208 H   0  0  0  0  0  0  0  0  0  0  0  0
  140.3159   75.7461  222.4935 H   0  0  0  0  0  0  0  0  0  0  0  0
  141.3786   77.0692  220.4518 H   0  0  0  0  0  0  0  0  0  0  0  0
  140.8338   78.7172  219.8667 H   0  0  0  0  0  0  0  0  0  0  0  0
  142.8510   79.1290  220.7100 H   0  0  0  0  0  0  0  0  0  0  0  0
  142.7380   78.0160  221.9800 H   0  0  0  0  0  0  0  0  0  0  0  0
  1  2  1  0
  2  3  1  0
  3  4  1  0
  4  5  1  0
  5  6  1  0
  6  7  1  0
  7  8  1  0
  9  8  1  6
  9 10  1  0
 10 11  1  0
 11 12  1  0
 12 13  2  0
 12 14  1  0
 14 15  2  0
 15 16  1  0
 16 17  2  0
 17 18  1  0
 18 19  2  0
 19 20  1  0
 19 21  1  0
 21 22  2  0
 22 23  1  0
 11 24  1  0
 24 25  2  0
 25 26  1  0
 26 27  2  0
 27 28  1  0
 28 29  2  0
  9 30  1  0
  5 31  1  0
 31 32  1  0
 32  2  1  0
 30  6  1  0
 29  9  1  0
 23 14  1  0
 29 24  1  0
 22 16  1  0
  1 33  1  0
  1 34  1  0
  1 35  1  0
  2 36  1  6
  3 37  1  0
  3 38  1  0
  4 39  1  0
  4 40  1  0
  5 41  1  1
  7 42  1  0
  7 43  1  0
  8 44  1  0
  8 45  1  0
 10 46  1  0
 10 47  1  0
 15 48  1  0
 17 49  1  0
 18 50  1  0
 21 51  1  0
 23 52  1  0
 25 53  1  0
 26 54  1  0
 27 55  1  0
 28 56  1  0
 30 57  1  0
 30 58  1  0
 31 59  1  0
 31 60  1  0
 32 61  1  0
 32 62  1  0
M  CHG  1  32   1
M  END
>  <UniqueID>  (38) 
93

>  <SMILES>  (38) 
C[C@@H]1CC[C@H](N2CC[C@]3(CN(C(=O)c4cc5ccc(F)cc5[nH]4)c4ccccc43)C2)C[NH2+]1

>  <Energy>  (38) 
133.88327646162938

>  <Genealogy>  (38) 
C[C@@H]1CCC(N2CC[C@]3(CN(C(=O)c4cc5ccc(F)cc5[nH]4)c4ccccc43)C2)C[NH2+]1 (protonated)
C[C@@H]1CC[C@H](N2CC[C@]3(CN(C(=O)c4cc5ccc(F)cc5[nH]4)c4ccccc43)C2)C[NH2+]1 (chirality)
C[C@@H]1CC[C@H](N2CC[C@]3(CN(C(=O)c4cc5ccc(F)cc5[nH]4)c4ccccc43)C2)C[NH2+]1 (3D coordinates assigned)
C[C@@H]1CC[C@H](N2CC[C@]3(CN(C(=O)c4cc5ccc(F)cc5[nH]4)c4ccccc43)C2)C[NH2+]1 (nonaromatic ring conformer: 133.88327646162938 kcal/mol)

>  <smiles>  (38) 
C[C@@H]1CCC(N2CC[C@]3(CN(C(=O)c4cc5ccc(F)cc5[nH]4)c4ccccc43)C2)CN1

>  <score_type>  (38) 
oracle

>  <origin>  (38) 
autodockgpu

>  <m_score__min__energy>  (38) 
-9.6199999999999992

>  <m_primary>  (38) 
energy

>  <meeko>  (38) 
{"free_energy": -9.51, "intermolecular_energy": -10.41, "internal_energy": -1.34, "cluster_size": 19, "cluster_id": 1, "rank_in_cluster": 14}

>  <energy>  (38) 
-9.51

>  <cluster_rmsd>  (38) 
0.5

>  <rmsd>  (38) 
271.02

>  <cluster>  (38) 
1

$$$$
MYPHZBOANNRFAS-KTSDNHQRNA-O
     RDKit          3D

 62 67  0  0  0  0  0  0  0  0999 V2000
  142.1650   81.8290  216.4880 C   0  0  0  0  0  0  0  0  0  0  0  0
  141.8540   80.6840  217.4620 C   0  0  2  0  0  0  0  0  0  0  0  0
  141.6090   81.2260  218.8890 C   0  0  0  0  0  0  0  0  0  0  0  0
  141.9070   80.1760  219.9750 C   0  0  0  0  0  0  0  0  0  0  0  0
  141.6560   78.7390  219.4600 C   0  0  2  0  0  0  0  0  0  0  0  0
  141.9050   77.7290  220.5240 N   0  0  0  0  0  0  0  0  0  0  0  0
  141.4520   78.1670  221.8540 C   0  0  0  0  0  0  0  0  0  0  0  0
  141.0510   76.9250  222.6260 C   0  0  0  0  0  0  0  0  0  0  0  0
  140.5550   75.9600  221.5540 C   0  0  1  0  0  0  0  0  0  0  0  0
  140.8410   74.4580  221.9090 C   0  0  0  0  0  0  0  0  0  0  0  0
  139.5330   73.8130  222.0210 N   0  0  0  0  0  0  0  0  0  0  0  0
  139.3540   72.3970  221.9660 C   0  0  0  0  0  0  0  0  0  0  0  0
  139.0100   71.8580  220.8810 O   0  0  0  0  0  0  0  0  0  0  0  0
  139.5610   71.5730  223.1680 C   0  0  0  0  0  0  0  0  0  0  0  0
  140.4270   71.8860  224.2180 C   0  0  0  0  0  0  0  0  0  0  0  0
  140.3020   70.8380  225.1040 C   0  0  0  0  0  0  0  0  0  0  0  0
  140.9180   70.6120  226.3340 C   0  0  0  0  0  0  0  0  0  0  0  0
  140.5920   69.4260  227.0220 C   0  0  0  0  0  0  0  0  0  0  0  0
  139.6640   68.5100  226.4720 C   0  0  0  0  0  0  0  0  0  0  0  0
  139.3610   67.3720  227.1420 F   0  0  0  0  0  0  0  0  0  0  0  0
  139.0480   68.7770  225.2340 C   0  0  0  0  0  0  0  0  0  0  0  0
  139.3930   69.9570  224.5760 C   0  0  0  0  0  0  0  0  0  0  0  0
  138.9240   70.3990  223.3970 N   0  0  0  0  0  0  0  0  0  0  0  0
  138.5270   74.7510  221.6900 C   0  0  0  0  0  0  0  0  0  0  0  0
  137.1530   74.5020  221.6010 C   0  0  0  0  0  0  0  0  0  0  0  0
  136.3050   75.5570  221.2380 C   0  0  0  0  0  0  0  0  0  0  0  0
  136.8350   76.8310  220.9680 C   0  0  0  0  0  0  0  0  0  0  0  0
  138.2190   77.0540  221.0570 C   0  0  0  0  0  0  0  0  0  0  0  0
  139.0510   75.9900  221.4300 C   0  0  0  0  0  0  0  0  0  0  0  0
  141.2410   76.4350  220.2570 C   0  0  0  0  0  0  0  0  0  0  0  0
  142.5710   78.4710  218.2220 C   0  0  0  0  0  0  0  0  0  0  0  0
  142.9420   79.6900  217.4710 N   0  0  0  0  0  0  0  0  0  0  0  0
  142.4118   82.7375  217.0570 H   0  0  0  0  0  0  0  0  0  0  0  0
  143.0198   81.5496  215.8546 H   0  0  0  0  0  0  0  0  0  0  0  0
  141.2863   82.0204  215.8546 H   0  0  0  0  0  0  0  0  0  0  0  0
  140.9350   80.1883  217.1159 H   0  0  0  0  0  0  0  0  0  0  0  0
  142.2598   82.0976  219.0524 H   0  0  0  0  0  0  0  0  0  0  0  0
  140.5456   81.4966  218.9670 H   0  0  0  0  0  0  0  0  0  0  0  0
  142.9597   80.2671  220.2807 H   0  0  0  0  0  0  0  0  0  0  0  0
  141.2343   80.3596  220.8257 H   0  0  0  0  0  0  0  0  0  0  0  0
  140.6002   78.6483  219.1650 H   0  0  0  0  0  0  0  0  0  0  0  0
  142.2677   78.6880  222.3767 H   0  0  0  0  0  0  0  0  0  0  0  0
  140.6038   78.8619  221.7669 H   0  0  0  0  0  0  0  0  0  0  0  0
  141.9144   76.5029  223.1612 H   0  0  0  0  0  0  0  0  0  0  0  0
  140.2879   77.1329  223.3905 H   0  0  0  0  0  0  0  0  0  0  0  0
  141.4340   73.9836  221.1132 H   0  0  0  0  0  0  0  0  0  0  0  0
  141.4156   74.3675  222.8426 H   0  0  0  0  0  0  0  0  0  0  0  0
  141.0683   72.7743  224.3162 H   0  0  0  0  0  0  0  0  0  0  0  0
  141.6338   71.3345  226.7531 H   0  0  0  0  0  0  0  0  0  0  0  0
  141.0620   69.2109  227.9930 H   0  0  0  0  0  0  0  0  0  0  0  0
  138.3184   68.0774  224.8002 H   0  0  0  0  0  0  0  0  0  0  0  0
  138.2240   69.9240  222.7830 H   0  0  0  0  0  0  0  0  0  0  0  0
  136.7478   73.5012  221.8111 H   0  0  0  0  0  0  0  0  0  0  0  0
  135.2206   75.3877  221.1640 H   0  0  0  0  0  0  0  0  0  0  0  0
  136.1638   77.6556  220.6862 H   0  0  0  0  0  0  0  0  0  0  0  0
  138.6418   78.0456  220.8380 H   0  0  0  0  0  0  0  0  0  0  0  0
  141.9884   75.6930  219.9394 H   0  0  0  0  0  0  0  0  0  0  0  0
  140.4949   76.5522  219.4573 H   0  0  0  0  0  0  0  0  0  0  0  0
  143.4943   77.9869  218.5730 H   0  0  0  0  0  0  0  0  0  0  0  0
  141.9947   77.8365  217.5327 H   0  0  0  0  0  0  0  0  0  0  0  0
  143.1700   79.4100  216.4870 H   0  0  0  0  0  0  0  0  0  0  0  0
  143.8040   80.1130  217.8900 H   0  0  0  0  0  0  0  0  0  0  0  0
  1  2  1  0
  2  3  1  0
  3  4  1  0
  4  5  1  0
  5  6  1  0
  6  7  1  0
  7  8  1  0
  9  8  1  1
  9 10  1  0
 10 11  1  0
 11 12  1  0
 12 13  2  0
 12 14  1  0
 14 15  2  0
 15 16  1  0
 16 17  2  0
 17 18  1  0
 18 19  2  0
 19 20  1  0
 19 21  1  0
 21 22  2  0
 22 23  1  0
 11 24  1  0
 24 25  2  0
 25 26  1  0
 26 27  2  0
 27 28  1  0
 28 29  2  0
  9 30  1  0
  5 31  1  0
 31 32  1  0
 32  2  1  0
 30  6  1  0
 29  9  1  0
 23 14  1  0
 29 24  1  0
 22 16  1  0
  1 33  1  0
  1 34  1  0
  1 35  1  0
  2 36  1  6
  3 37  1  0
  3 38  1  0
  4 39  1  0
  4 40  1  0
  5 41  1  6
  7 42  1  0
  7 43  1  0
  8 44  1  0
  8 45  1  0
 10 46  1  0
 10 47  1  0
 15 48  1  0
 17 49  1  0
 18 50  1  0
 21 51  1  0
 23 52  1  0
 25 53  1  0
 26 54  1  0
 27 55  1  0
 28 56  1  0
 30 57  1  0
 30 58  1  0
 31 59  1  0
 31 60  1  0
 32 61  1  0
 32 62  1  0
M  CHG  1  32   1
M  END
>  <UniqueID>  (39) 
93

>  <SMILES>  (39) 
C[C@@H]1CC[C@H](N2CC[C@]3(CN(C(=O)c4cc5ccc(F)cc5[nH]4)c4ccccc43)C2)C[NH2+]1

>  <Energy>  (39) 
133.88327646162938

>  <Genealogy>  (39) 
C[C@@H]1CCC(N2CC[C@]3(CN(C(=O)c4cc5ccc(F)cc5[nH]4)c4ccccc43)C2)C[NH2+]1 (protonated)
C[C@@H]1CC[C@H](N2CC[C@]3(CN(C(=O)c4cc5ccc(F)cc5[nH]4)c4ccccc43)C2)C[NH2+]1 (chirality)
C[C@@H]1CC[C@H](N2CC[C@]3(CN(C(=O)c4cc5ccc(F)cc5[nH]4)c4ccccc43)C2)C[NH2+]1 (3D coordinates assigned)
C[C@@H]1CC[C@H](N2CC[C@]3(CN(C(=O)c4cc5ccc(F)cc5[nH]4)c4ccccc43)C2)C[NH2+]1 (nonaromatic ring conformer: 133.88327646162938 kcal/mol)

>  <smiles>  (39) 
C[C@@H]1CCC(N2CC[C@]3(CN(C(=O)c4cc5ccc(F)cc5[nH]4)c4ccccc43)C2)CN1

>  <score_type>  (39) 
oracle

>  <origin>  (39) 
autodockgpu

>  <m_score__min__energy>  (39) 
-9.6199999999999992

>  <m_primary>  (39) 
energy

>  <meeko>  (39) 
{"free_energy": -8.79, "intermolecular_energy": -9.68, "internal_energy": -0.99, "cluster_size": 1, "cluster_id": 2, "rank_in_cluster": 1}

>  <energy>  (39) 
-9.51

>  <cluster_rmsd>  (39) 
0.53

>  <rmsd>  (39) 
271.0

>  <cluster>  (39) 
1

$$$$
MYPHZBOANNRFAS-KTSDNHQRNA-O
     RDKit          3D

 62 67  0  0  0  0  0  0  0  0999 V2000
  142.9440   80.5970  222.8600 C   0  0  0  0  0  0  0  0  0  0  0  0
  141.7520   79.7860  222.3310 C   0  0  2  0  0  0  0  0  0  0  0  0
  140.9180   79.2070  223.4970 C   0  0  0  0  0  0  0  0  0  0  0  0
  140.1410   77.9420  223.0910 C   0  0  0  0  0  0  0  0  0  0  0  0
  139.7700   77.9600  221.5900 C   0  0  2  0  0  0  0  0  0  0  0  0
  138.9820   76.7560  221.2090 N   0  0  0  0  0  0  0  0  0  0  0  0
  139.1140   76.4040  219.7860 C   0  0  0  0  0  0  0  0  0  0  0  0
  138.9560   74.9010  219.6770 C   0  0  0  0  0  0  0  0  0  0  0  0
  139.4980   74.3680  221.0000 C   0  0  1  0  0  0  0  0  0  0  0  0
  138.7660   73.0640  221.4760 C   0  0  0  0  0  0  0  0  0  0  0  0
  139.7860   72.0170  221.5070 N   0  0  0  0  0  0  0  0  0  0  0  0
  139.6250   70.7920  222.2250 C   0  0  0  0  0  0  0  0  0  0  0  0
  139.2000   69.7720  221.6220 O   0  0  0  0  0  0  0  0  0  0  0  0
  139.9460   70.7230  223.6600 C   0  0  0  0  0  0  0  0  0  0  0  0
  140.3650   71.8000  224.4430 C   0  0  0  0  0  0  0  0  0  0  0  0
  140.5550   71.2700  225.7010 C   0  0  0  0  0  0  0  0  0  0  0  0
  140.9620   71.8760  226.8880 C   0  0  0  0  0  0  0  0  0  0  0  0
  141.0740   71.0640  228.0340 C   0  0  0  0  0  0  0  0  0  0  0  0
  140.7740   69.6820  227.9650 C   0  0  0  0  0  0  0  0  0  0  0  0
  140.8890   68.9110  229.0740 F   0  0  0  0  0  0  0  0  0  0  0  0
  140.3510   69.1040  226.7530 C   0  0  0  0  0  0  0  0  0  0  0  0
  140.2520   69.9340  225.6360 C   0  0  0  0  0  0  0  0  0  0  0  0
  139.8680   69.5870  224.3960 N   0  0  0  0  0  0  0  0  0  0  0  0
  141.0410   72.5840  221.1830 C   0  0  0  0  0  0  0  0  0  0  0  0
  142.2770   71.9290  221.1820 C   0  0  0  0  0  0  0  0  0  0  0  0
  143.4230   72.6640  220.8510 C   0  0  0  0  0  0  0  0  0  0  0  0
  143.3200   74.0310  220.5330 C   0  0  0  0  0  0  0  0  0  0  0  0
  142.0690   74.6680  220.5490 C   0  0  0  0  0  0  0  0  0  0  0  0
  140.9320   73.9150  220.8730 C   0  0  0  0  0  0  0  0  0  0  0  0
  139.3620   75.5520  221.9790 C   0  0  0  0  0  0  0  0  0  0  0  0
  141.0780   78.0530  220.7390 C   0  0  0  0  0  0  0  0  0  0  0  0
  142.2070   78.7040  221.4390 N   0  0  0  0  0  0  0  0  0  0  0  0
  142.9332   80.5897  223.9599 H   0  0  0  0  0  0  0  0  0  0  0  0
  143.8815   80.1485  222.4995 H   0  0  0  0  0  0  0  0  0  0  0  0
  142.8711   81.6337  222.4995 H   0  0  0  0  0  0  0  0  0  0  0  0
  141.1117   80.4673  221.7515 H   0  0  0  0  0  0  0  0  0  0  0  0
  141.5964   78.9543  224.3252 H   0  0  0  0  0  0  0  0  0  0  0  0
  140.1841   79.9700  223.7957 H   0  0  0  0  0  0  0  0  0  0  0  0
  140.7649   77.0591  223.2941 H   0  0  0  0  0  0  0  0  0  0  0  0
  139.2098   77.9074  223.6755 H   0  0  0  0  0  0  0  0  0  0  0  0
  139.1381   78.8386  221.3933 H   0  0  0  0  0  0  0  0  0  0  0  0
  138.3319   76.9082  219.1994 H   0  0  0  0  0  0  0  0  0  0  0  0
  140.0918   76.7221  219.3953 H   0  0  0  0  0  0  0  0  0  0  0  0
  137.8977   74.6285  219.5514 H   0  0  0  0  0  0  0  0  0  0  0  0
  139.4858   74.4847  218.8075 H   0  0  0  0  0  0  0  0  0  0  0  0
  138.3381   73.2104  222.4787 H   0  0  0  0  0  0  0  0  0  0  0  0
  137.9373   72.7990  220.8030 H   0  0  0  0  0  0  0  0  0  0  0  0
  140.5114   72.8430  224.1256 H   0  0  0  0  0  0  0  0  0  0  0  0
  141.1882   72.9517  226.9289 H   0  0  0  0  0  0  0  0  0  0  0  0
  141.3965   71.5064  228.9881 H   0  0  0  0  0  0  0  0  0  0  0  0
  140.1066   68.0334  226.6888 H   0  0  0  0  0  0  0  0  0  0  0  0
  139.5830   68.6360  224.0710 H   0  0  0  0  0  0  0  0  0  0  0  0
  142.3476   70.8609  221.4354 H   0  0  0  0  0  0  0  0  0  0  0  0
  144.4063   72.1710  220.8397 H   0  0  0  0  0  0  0  0  0  0  0  0
  144.2227   74.6024  220.2710 H   0  0  0  0  0  0  0  0  0  0  0  0
  141.9827   75.7386  220.3116 H   0  0  0  0  0  0  0  0  0  0  0  0
  138.5858   75.3288  222.7258 H   0  0  0  0  0  0  0  0  0  0  0  0
  140.3162   75.7227  222.4990 H   0  0  0  0  0  0  0  0  0  0  0  0
  141.3842   77.0332  220.4629 H   0  0  0  0  0  0  0  0  0  0  0  0
  140.8442   78.6770  219.8638 H   0  0  0  0  0  0  0  0  0  0  0  0
  142.8580   79.0940  220.7160 H   0  0  0  0  0  0  0  0  0  0  0  0
  142.7370   77.9890  221.9920 H   0  0  0  0  0  0  0  0  0  0  0  0
  1  2  1  0
  2  3  1  0
  3  4  1  0
  4  5  1  0
  5  6  1  0
  6  7  1  0
  7  8  1  0
  9  8  1  6
  9 10  1  0
 10 11  1  0
 11 12  1  0
 12 13  2  0
 12 14  1  0
 14 15  2  0
 15 16  1  0
 16 17  2  0
 17 18  1  0
 18 19  2  0
 19 20  1  0
 19 21  1  0
 21 22  2  0
 22 23  1  0
 11 24  1  0
 24 25  2  0
 25 26  1  0
 26 27  2  0
 27 28  1  0
 28 29  2  0
  9 30  1  0
  5 31  1  0
 31 32  1  0
 32  2  1  0
 30  6  1  0
 29  9  1  0
 23 14  1  0
 29 24  1  0
 22 16  1  0
  1 33  1  0
  1 34  1  0
  1 35  1  0
  2 36  1  6
  3 37  1  0
  3 38  1  0
  4 39  1  0
  4 40  1  0
  5 41  1  1
  7 42  1  0
  7 43  1  0
  8 44  1  0
  8 45  1  0
 10 46  1  0
 10 47  1  0
 15 48  1  0
 17 49  1  0
 18 50  1  0
 21 51  1  0
 23 52  1  0
 25 53  1  0
 26 54  1  0
 27 55  1  0
 28 56  1  0
 30 57  1  0
 30 58  1  0
 31 59  1  0
 31 60  1  0
 32 61  1  0
 32 62  1  0
M  CHG  1  32   1
M  END
>  <UniqueID>  (40) 
93

>  <SMILES>  (40) 
C[C@@H]1CC[C@H](N2CC[C@]3(CN(C(=O)c4cc5ccc(F)cc5[nH]4)c4ccccc43)C2)C[NH2+]1

>  <Energy>  (40) 
133.88327646162938

>  <Genealogy>  (40) 
C[C@@H]1CCC(N2CC[C@]3(CN(C(=O)c4cc5ccc(F)cc5[nH]4)c4ccccc43)C2)C[NH2+]1 (protonated)
C[C@@H]1CC[C@H](N2CC[C@]3(CN(C(=O)c4cc5ccc(F)cc5[nH]4)c4ccccc43)C2)C[NH2+]1 (chirality)
C[C@@H]1CC[C@H](N2CC[C@]3(CN(C(=O)c4cc5ccc(F)cc5[nH]4)c4ccccc43)C2)C[NH2+]1 (3D coordinates assigned)
C[C@@H]1CC[C@H](N2CC[C@]3(CN(C(=O)c4cc5ccc(F)cc5[nH]4)c4ccccc43)C2)C[NH2+]1 (nonaromatic ring conformer: 133.88327646162938 kcal/mol)

>  <smiles>  (40) 
C[C@@H]1CCC(N2CC[C@]3(CN(C(=O)c4cc5ccc(F)cc5[nH]4)c4ccccc43)C2)CN1

>  <score_type>  (40) 
oracle

>  <origin>  (40) 
autodockgpu

>  <m_score__min__energy>  (40) 
-9.6199999999999992

>  <m_primary>  (40) 
energy

>  <meeko>  (40) 
{"free_energy": -9.51, "intermolecular_energy": -10.41, "internal_energy": -1.34, "cluster_size": 19, "cluster_id": 1, "rank_in_cluster": 17}

>  <energy>  (40) 
-8.79

>  <cluster_rmsd>  (40) 
0.0

>  <rmsd>  (40) 
270.13

>  <cluster>  (40) 
2

$$$$
MYPHZBOANNRFAS-OWWOZPERNA-N
     RDKit          3D

 61 66  0  0  0  0  0  0  0  0999 V2000
  140.4070   82.6840  221.5870 C   0  0  0  0  0  0  0  0  0  0  0  0
  140.4260   81.1670  221.3680 C   0  0  2  0  0  0  0  0  0  0  0  0
  141.3430   80.4790  222.3980 C   0  0  0  0  0  0  0  0  0  0  0  0
  141.2300   78.9500  222.2840 C   0  0  0  0  0  0  0  0  0  0  0  0
  140.9830   78.4830  220.8200 C   0  0  2  0  0  0  0  0  0  0  0  0
  141.5330   77.1370  220.5130 N   0  0  0  0  0  0  0  0  0  0  0  0
  140.9560   76.5330  219.2990 C   0  0  0  0  0  0  0  0  0  0  0  0
  140.2930   75.2270  219.6980 C   0  0  0  0  0  0  0  0  0  0  0  0
  140.9970   74.8170  220.9880 C   0  0  1  0  0  0  0  0  0  0  0  0
  140.0910   73.9520  221.9270 C   0  0  0  0  0  0  0  0  0  0  0  0
  140.6520   72.6050  221.8840 N   0  0  0  0  0  0  0  0  0  0  0  0
  140.0070   71.4440  222.4210 C   0  0  0  0  0  0  0  0  0  0  0  0
  139.2840   70.7350  221.6720 O   0  0  0  0  0  0  0  0  0  0  0  0
  140.2160   71.0490  223.8260 C   0  0  0  0  0  0  0  0  0  0  0  0
  140.6790   71.8930  224.8360 C   0  0  0  0  0  0  0  0  0  0  0  0
  140.6760   71.1160  225.9740 C   0  0  0  0  0  0  0  0  0  0  0  0
  141.0290   71.4260  227.2850 C   0  0  0  0  0  0  0  0  0  0  0  0
  140.9000   70.4170  228.2570 C   0  0  0  0  0  0  0  0  0  0  0  0
  140.4190   69.1360  227.8980 C   0  0  0  0  0  0  0  0  0  0  0  0
  140.2910   68.1740  228.8470 F   0  0  0  0  0  0  0  0  0  0  0  0
  140.0710   68.8550  226.5660 C   0  0  0  0  0  0  0  0  0  0  0  0
  140.2150   69.8720  225.6250 C   0  0  0  0  0  0  0  0  0  0  0  0
  139.9280   69.8200  224.3160 N   0  0  0  0  0  0  0  0  0  0  0  0
  141.8960   72.6440  221.2070 C   0  0  0  0  0  0  0  0  0  0  0  0
  142.8210   71.6000  221.0830 C   0  0  0  0  0  0  0  0  0  0  0  0
  144.0190   71.8450  220.3960 C   0  0  0  0  0  0  0  0  0  0  0  0
  144.2830   73.1200  219.8640 C   0  0  0  0  0  0  0  0  0  0  0  0
  143.3490   74.1560  220.0190 C   0  0  0  0  0  0  0  0  0  0  0  0
  142.1540   73.8910  220.7020 C   0  0  0  0  0  0  0  0  0  0  0  0
  141.4460   76.1480  221.6060 C   0  0  0  0  0  0  0  0  0  0  0  0
  141.4820   79.5340  219.8060 C   0  0  0  0  0  0  0  0  0  0  0  0
  140.8050   80.8380  219.9710 N   0  0  0  0  0  0  0  0  0  0  0  0
  140.4043   82.8987  222.6658 H   0  0  0  0  0  0  0  0  0  0  0  0
  141.2996   83.1322  221.1262 H   0  0  0  0  0  0  0  0  0  0  0  0
  139.5035   83.1097  221.1262 H   0  0  0  0  0  0  0  0  0  0  0  0
  139.4096   80.7769  221.5256 H   0  0  0  0  0  0  0  0  0  0  0  0
  142.3848   80.7797  222.2128 H   0  0  0  0  0  0  0  0  0  0  0  0
  141.0339   80.7839  223.4087 H   0  0  0  0  0  0  0  0  0  0  0  0
  142.1652   78.4983  222.6463 H   0  0  0  0  0  0  0  0  0  0  0  0
  140.3686   78.6304  222.8888 H   0  0  0  0  0  0  0  0  0  0  0  0
  139.8917   78.3865  220.7214 H   0  0  0  0  0  0  0  0  0  0  0  0
  140.2098   77.2127  218.8617 H   0  0  0  0  0  0  0  0  0  0  0  0
  141.7416   76.3512  218.5508 H   0  0  0  0  0  0  0  0  0  0  0  0
  139.2171   75.3751  219.8728 H   0  0  0  0  0  0  0  0  0  0  0  0
  140.3774   74.4596  218.9144 H   0  0  0  0  0  0  0  0  0  0  0  0
  140.1163   74.3456  222.9538 H   0  0  0  0  0  0  0  0  0  0  0  0
  139.0400   73.9652  221.6027 H   0  0  0  0  0  0  0  0  0  0  0  0
  140.9802   72.9470  224.7440 H   0  0  0  0  0  0  0  0  0  0  0  0
  141.3969   72.4277  227.5520 H   0  0  0  0  0  0  0  0  0  0  0  0
  141.1746   70.6253  229.3016 H   0  0  0  0  0  0  0  0  0  0  0  0
  139.6964   67.8625  226.2752 H   0  0  0  0  0  0  0  0  0  0  0  0
  139.5310   69.0030  223.7970 H   0  0  0  0  0  0  0  0  0  0  0  0
  142.6127   70.6099  221.5147 H   0  0  0  0  0  0  0  0  0  0  0  0
  144.7550   71.0368  220.2728 H   0  0  0  0  0  0  0  0  0  0  0  0
  145.2238   73.3056  219.3251 H   0  0  0  0  0  0  0  0  0  0  0  0
  143.5511   75.1577  219.6119 H   0  0  0  0  0  0  0  0  0  0  0  0
  140.7130   76.4803  222.3559 H   0  0  0  0  0  0  0  0  0  0  0  0
  142.4198   76.0349  222.1050 H   0  0  0  0  0  0  0  0  0  0  0  0
  142.5635   79.6765  219.9474 H   0  0  0  0  0  0  0  0  0  0  0  0
  141.2546   79.1620  218.7961 H   0  0  0  0  0  0  0  0  0  0  0  0
  141.4460   81.5730  219.5850 H   0  0  0  0  0  0  0  0  0  0  0  0
  1  2  1  0
  2  3  1  0
  3  4  1  0
  4  5  1  0
  5  6  1  0
  6  7  1  0
  7  8  1  0
  9  8  1  6
  9 10  1  0
 10 11  1  0
 11 12  1  0
 12 13  2  0
 12 14  1  0
 14 15  2  0
 15 16  1  0
 16 17  2  0
 17 18  1  0
 18 19  2  0
 19 20  1  0
 19 21  1  0
 21 22  2  0
 22 23  1  0
 11 24  1  0
 24 25  2  0
 25 26  1  0
 26 27  2  0
 27 28  1  0
 28 29  2  0
  9 30  1  0
  5 31  1  0
 31 32  1  0
 32  2  1  0
 30  6  1  0
 29  9  1  0
 23 14  1  0
 29 24  1  0
 22 16  1  0
  1 33  1  0
  1 34  1  0
  1 35  1  0
  2 36  1  1
  3 37  1  0
  3 38  1  0
  4 39  1  0
  4 40  1  0
  5 41  1  1
  7 42  1  0
  7 43  1  0
  8 44  1  0
  8 45  1  0
 10 46  1  0
 10 47  1  0
 15 48  1  0
 17 49  1  0
 18 50  1  0
 21 51  1  0
 23 52  1  0
 25 53  1  0
 26 54  1  0
 27 55  1  0
 28 56  1  0
 30 57  1  0
 30 58  1  0
 31 59  1  0
 31 60  1  0
 32 61  1  0
M  END
>  <UniqueID>  (41) 
94

>  <SMILES>  (41) 
C[C@@H]1CC[C@H](N2CC[C@]3(CN(C(=O)c4cc5ccc(F)cc5[nH]4)c4ccccc43)C2)CN1

>  <Energy>  (41) 
134.34806768659695

>  <Genealogy>  (41) 
C[C@@H]1CC[C@H](N2CC[C@]3(CN(C(=O)c4cc5ccc(F)cc5[nH]4)c4ccccc43)C2)CN1 (chirality)
C[C@@H]1CC[C@H](N2CC[C@]3(CN(C(=O)c4cc5ccc(F)cc5[nH]4)c4ccccc43)C2)CN1 (3D coordinates assigned)
C[C@@H]1CC[C@H](N2CC[C@]3(CN(C(=O)c4cc5ccc(F)cc5[nH]4)c4ccccc43)C2)CN1 (nonaromatic ring conformer: 134.34806768659695 kcal/mol)

>  <smiles>  (41) 
C[C@@H]1CCC(N2CC[C@]3(CN(C(=O)c4cc5ccc(F)cc5[nH]4)c4ccccc43)C2)CN1

>  <score_type>  (41) 
oracle

>  <origin>  (41) 
autodockgpu

>  <m_score__min__energy>  (41) 
-8.9199999999999999

>  <m_primary>  (41) 
energy

>  <meeko>  (41) 
{"free_energy": -8.44, "intermolecular_energy": -9.34, "internal_energy": -1.2, "cluster_size": 5, "cluster_id": 3, "rank_in_cluster": 2}

>  <energy>  (41) 
-8.92

>  <cluster_rmsd>  (41) 
0.0

>  <rmsd>  (41) 
271.06

>  <cluster>  (41) 
1

$$$$
MYPHZBOANNRFAS-OWWOZPERNA-N
     RDKit          3D

 61 66  0  0  0  0  0  0  0  0999 V2000
  145.5080   66.2000  219.0490 C   0  0  0  0  0  0  0  0  0  0  0  0
  145.0680   67.6400  219.3370 C   0  0  2  0  0  0  0  0  0  0  0  0
  144.0190   68.1060  218.3080 C   0  0  0  0  0  0  0  0  0  0  0  0
  143.4580   69.4830  218.6950 C   0  0  0  0  0  0  0  0  0  0  0  0
  144.5240   70.3810  219.3890 C   0  0  2  0  0  0  0  0  0  0  0  0
  144.3260   71.8370  219.1660 N   0  0  0  0  0  0  0  0  0  0  0  0
  145.2720   72.6770  219.9230 C   0  0  0  0  0  0  0  0  0  0  0  0
  144.4650   73.5810  220.8370 C   0  0  0  0  0  0  0  0  0  0  0  0
  143.0910   73.6660  220.1780 C   0  0  1  0  0  0  0  0  0  0  0  0
  141.9380   73.9270  221.2050 C   0  0  0  0  0  0  0  0  0  0  0  0
  141.4920   75.2950  220.9590 N   0  0  0  0  0  0  0  0  0  0  0  0
  140.6060   76.0220  221.8170 C   0  0  0  0  0  0  0  0  0  0  0  0
  139.6280   75.4290  222.3440 O   0  0  0  0  0  0  0  0  0  0  0  0
  140.8520   77.4430  222.1220 C   0  0  0  0  0  0  0  0  0  0  0  0
  141.4710   77.9200  223.2790 C   0  0  0  0  0  0  0  0  0  0  0  0
  141.5220   79.2870  223.1140 C   0  0  0  0  0  0  0  0  0  0  0  0
  142.0380   80.2810  223.9410 C   0  0  0  0  0  0  0  0  0  0  0  0
  141.9650   81.6130  223.4920 C   0  0  0  0  0  0  0  0  0  0  0  0
  141.3900   81.9130  222.2350 C   0  0  0  0  0  0  0  0  0  0  0  0
  141.3350   83.2010  221.8100 F   0  0  0  0  0  0  0  0  0  0  0  0
  140.8780   80.8860  221.4240 C   0  0  0  0  0  0  0  0  0  0  0  0
  140.9580   79.5790  221.8980 C   0  0  0  0  0  0  0  0  0  0  0  0
  140.5490   78.4610  221.2820 N   0  0  0  0  0  0  0  0  0  0  0  0
  142.1020   75.7730  219.7720 C   0  0  0  0  0  0  0  0  0  0  0  0
  141.8270   76.9740  219.1090 C   0  0  0  0  0  0  0  0  0  0  0  0
  142.5180   77.2570  217.9210 C   0  0  0  0  0  0  0  0  0  0  0  0
  143.4510   76.3390  217.4090 C   0  0  0  0  0  0  0  0  0  0  0  0
  143.6960   75.1310  218.0820 C   0  0  0  0  0  0  0  0  0  0  0  0
  143.0010   74.8680  219.2700 C   0  0  0  0  0  0  0  0  0  0  0  0
  142.9600   72.3410  219.4160 C   0  0  0  0  0  0  0  0  0  0  0  0
  145.9560   69.9480  219.0080 C   0  0  0  0  0  0  0  0  0  0  0  0
  146.2400   68.5490  219.3950 N   0  0  0  0  0  0  0  0  0  0  0  0
  145.6702   65.6692  219.9987 H   0  0  0  0  0  0  0  0  0  0  0  0
  144.7258   65.6863  218.4708 H   0  0  0  0  0  0  0  0  0  0  0  0
  146.4437   66.2112  218.4708 H   0  0  0  0  0  0  0  0  0  0  0  0
  144.5879   67.6699  220.3263 H   0  0  0  0  0  0  0  0  0  0  0  0
  144.4901   68.1731  217.3163 H   0  0  0  0  0  0  0  0  0  0  0  0
  143.1936   67.3791  218.2882 H   0  0  0  0  0  0  0  0  0  0  0  0
  143.1064   69.9904  217.7846 H   0  0  0  0  0  0  0  0  0  0  0  0
  142.6361   69.3234  219.4085 H   0  0  0  0  0  0  0  0  0  0  0  0
  144.3834   70.2241  220.4686 H   0  0  0  0  0  0  0  0  0  0  0  0
  145.9403   72.0407  220.5218 H   0  0  0  0  0  0  0  0  0  0  0  0
  145.8864   73.2771  219.2356 H   0  0  0  0  0  0  0  0  0  0  0  0
  144.3866   73.1451  221.8439 H   0  0  0  0  0  0  0  0  0  0  0  0
  144.9298   74.5701  220.9623 H   0  0  0  0  0  0  0  0  0  0  0  0
  141.1119   73.2192  221.0422 H   0  0  0  0  0  0  0  0  0  0  0  0
  142.2795   73.7916  222.2418 H   0  0  0  0  0  0  0  0  0  0  0  0
  141.8374   77.3334  224.1343 H   0  0  0  0  0  0  0  0  0  0  0  0
  142.4881   80.0335  224.9137 H   0  0  0  0  0  0  0  0  0  0  0  0
  142.3572   82.4250  224.1220 H   0  0  0  0  0  0  0  0  0  0  0  0
  140.4280   81.1076  220.4450 H   0  0  0  0  0  0  0  0  0  0  0  0
  140.1150   78.3950  220.3320 H   0  0  0  0  0  0  0  0  0  0  0  0
  141.0856   77.6807  219.5101 H   0  0  0  0  0  0  0  0  0  0  0  0
  142.3288   78.2007  217.3885 H   0  0  0  0  0  0  0  0  0  0  0  0
  143.9910   76.5674  216.4783 H   0  0  0  0  0  0  0  0  0  0  0  0
  144.4200   74.4048  217.6840 H   0  0  0  0  0  0  0  0  0  0  0  0
  142.3960   71.6146  220.0195 H   0  0  0  0  0  0  0  0  0  0  0  0
  142.4220   72.4901  218.4682 H   0  0  0  0  0  0  0  0  0  0  0  0
  146.0773   70.0456  217.9191 H   0  0  0  0  0  0  0  0  0  0  0  0
  146.6597   70.5970  219.5499 H   0  0  0  0  0  0  0  0  0  0  0  0
  147.0030   68.2010  218.7660 H   0  0  0  0  0  0  0  0  0  0  0  0
  1  2  1  0
  2  3  1  0
  3  4  1  0
  4  5  1  0
  5  6  1  0
  6  7  1  0
  7  8  1  0
  9  8  1  1
  9 10  1  0
 10 11  1  0
 11 12  1  0
 12 13  2  0
 12 14  1  0
 14 15  2  0
 15 16  1  0
 16 17  2  0
 17 18  1  0
 18 19  2  0
 19 20  1  0
 19 21  1  0
 21 22  2  0
 22 23  1  0
 11 24  1  0
 24 25  2  0
 25 26  1  0
 26 27  2  0
 27 28  1  0
 28 29  2  0
  9 30  1  0
  5 31  1  0
 31 32  1  0
 32  2  1  0
 30  6  1  0
 29  9  1  0
 23 14  1  0
 29 24  1  0
 22 16  1  0
  1 33  1  0
  1 34  1  0
  1 35  1  0
  2 36  1  1
  3 37  1  0
  3 38  1  0
  4 39  1  0
  4 40  1  0
  5 41  1  1
  7 42  1  0
  7 43  1  0
  8 44  1  0
  8 45  1  0
 10 46  1  0
 10 47  1  0
 15 48  1  0
 17 49  1  0
 18 50  1  0
 21 51  1  0
 23 52  1  0
 25 53  1  0
 26 54  1  0
 27 55  1  0
 28 56  1  0
 30 57  1  0
 30 58  1  0
 31 59  1  0
 31 60  1  0
 32 61  1  0
M  END
>  <UniqueID>  (42) 
94

>  <SMILES>  (42) 
C[C@@H]1CC[C@H](N2CC[C@]3(CN(C(=O)c4cc5ccc(F)cc5[nH]4)c4ccccc43)C2)CN1

>  <Energy>  (42) 
134.34806768659695

>  <Genealogy>  (42) 
C[C@@H]1CC[C@H](N2CC[C@]3(CN(C(=O)c4cc5ccc(F)cc5[nH]4)c4ccccc43)C2)CN1 (chirality)
C[C@@H]1CC[C@H](N2CC[C@]3(CN(C(=O)c4cc5ccc(F)cc5[nH]4)c4ccccc43)C2)CN1 (3D coordinates assigned)
C[C@@H]1CC[C@H](N2CC[C@]3(CN(C(=O)c4cc5ccc(F)cc5[nH]4)c4ccccc43)C2)CN1 (nonaromatic ring conformer: 134.34806768659695 kcal/mol)

>  <smiles>  (42) 
C[C@@H]1CCC(N2CC[C@]3(CN(C(=O)c4cc5ccc(F)cc5[nH]4)c4ccccc43)C2)CN1

>  <score_type>  (42) 
oracle

>  <origin>  (42) 
autodockgpu

>  <m_score__min__energy>  (42) 
-8.9199999999999999

>  <m_primary>  (42) 
energy

>  <meeko>  (42) 
{"free_energy": -8.83, "intermolecular_energy": -9.72, "internal_energy": -1.11, "cluster_size": 11, "cluster_id": 1, "rank_in_cluster": 11}

>  <energy>  (42) 
-8.88

>  <cluster_rmsd>  (42) 
1.23

>  <rmsd>  (42) 
270.71

>  <cluster>  (42) 
1

$$$$
MYPHZBOANNRFAS-OWWOZPERNA-N
     RDKit          3D

 61 66  0  0  0  0  0  0  0  0999 V2000
  141.4410   67.7900  229.0360 C   0  0  0  0  0  0  0  0  0  0  0  0
  141.1140   68.3800  227.6590 C   0  0  2  0  0  0  0  0  0  0  0  0
  140.6140   69.8320  227.7930 C   0  0  0  0  0  0  0  0  0  0  0  0
  140.4460   70.4750  226.4080 C   0  0  0  0  0  0  0  0  0  0  0  0
  139.9970   69.4460  225.3290 C   0  0  2  0  0  0  0  0  0  0  0  0
  139.1800   70.0330  224.2350 N   0  0  0  0  0  0  0  0  0  0  0  0
  139.4800   69.4600  222.9110 C   0  0  0  0  0  0  0  0  0  0  0  0
  139.9440   70.5890  222.0080 C   0  0  0  0  0  0  0  0  0  0  0  0
  139.3490   71.8490  222.6320 C   0  0  1  0  0  0  0  0  0  0  0  0
  140.1980   73.1310  222.3410 C   0  0  0  0  0  0  0  0  0  0  0  0
  139.4050   73.9260  221.4080 N   0  0  0  0  0  0  0  0  0  0  0  0
  139.8950   75.0730  220.7050 C   0  0  0  0  0  0  0  0  0  0  0  0
  140.1030   74.9970  219.4650 O   0  0  0  0  0  0  0  0  0  0  0  0
  140.1170   76.3500  221.4080 C   0  0  0  0  0  0  0  0  0  0  0  0
  139.1240   77.1010  222.0380 C   0  0  0  0  0  0  0  0  0  0  0  0
  139.7890   78.1750  222.5880 C   0  0  0  0  0  0  0  0  0  0  0  0
  139.3150   79.2480  223.3390 C   0  0  0  0  0  0  0  0  0  0  0  0
  140.2500   80.1980  223.7890 C   0  0  0  0  0  0  0  0  0  0  0  0
  141.6240   80.0500  223.4860 C   0  0  0  0  0  0  0  0  0  0  0  0
  142.5160   80.9700  223.9340 F   0  0  0  0  0  0  0  0  0  0  0  0
  142.0700   78.9560  222.7250 C   0  0  0  0  0  0  0  0  0  0  0  0
  141.1200   78.0350  222.2880 C   0  0  0  0  0  0  0  0  0  0  0  0
  141.3330   76.9220  221.5710 N   0  0  0  0  0  0  0  0  0  0  0  0
  138.1110   73.3570  221.3010 C   0  0  0  0  0  0  0  0  0  0  0  0
  137.0070   73.8970  220.6310 C   0  0  0  0  0  0  0  0  0  0  0  0
  135.7930   73.1940  220.6660 C   0  0  0  0  0  0  0  0  0  0  0  0
  135.6960   71.9830  221.3760 C   0  0  0  0  0  0  0  0  0  0  0  0
  136.8120   71.4730  222.0570 C   0  0  0  0  0  0  0  0  0  0  0  0
  138.0180   72.1850  222.0050 C   0  0  0  0  0  0  0  0  0  0  0  0
  139.2280   71.5050  224.1220 C   0  0  0  0  0  0  0  0  0  0  0  0
  139.2820   68.2380  225.9720 C   0  0  0  0  0  0  0  0  0  0  0  0
  140.1490   67.5190  226.9310 N   0  0  0  0  0  0  0  0  0  0  0  0
  141.0677   68.4635  229.8215 H   0  0  0  0  0  0  0  0  0  0  0  0
  140.9594   66.8062  229.1372 H   0  0  0  0  0  0  0  0  0  0  0  0
  142.5305   67.6770  229.1372 H   0  0  0  0  0  0  0  0  0  0  0  0
  142.0362   68.4079  227.0601 H   0  0  0  0  0  0  0  0  0  0  0  0
  139.6445   69.8342  228.3128 H   0  0  0  0  0  0  0  0  0  0  0  0
  141.3536   70.4107  228.3657 H   0  0  0  0  0  0  0  0  0  0  0  0
  139.6881   71.2693  226.4764 H   0  0  0  0  0  0  0  0  0  0  0  0
  141.4233   70.8773  226.1031 H   0  0  0  0  0  0  0  0  0  0  0  0
  140.9240   69.0961  224.8513 H   0  0  0  0  0  0  0  0  0  0  0  0
  140.2738   68.7040  223.0021 H   0  0  0  0  0  0  0  0  0  0  0  0
  138.5855   68.9766  222.4912 H   0  0  0  0  0  0  0  0  0  0  0  0
  141.0424   70.6458  221.9901 H   0  0  0  0  0  0  0  0  0  0  0  0
  139.6237   70.4482  220.9651 H   0  0  0  0  0  0  0  0  0  0  0  0
  140.3748   73.6930  223.2699 H   0  0  0  0  0  0  0  0  0  0  0  0
  141.1841   72.8791  221.9238 H   0  0  0  0  0  0  0  0  0  0  0  0
  138.0468   76.8834  222.0852 H   0  0  0  0  0  0  0  0  0  0  0  0
  138.2449   79.3493  223.5726 H   0  0  0  0  0  0  0  0  0  0  0  0
  139.9106   81.0613  224.3802 H   0  0  0  0  0  0  0  0  0  0  0  0
  143.1355   78.8307  222.4820 H   0  0  0  0  0  0  0  0  0  0  0  0
  142.2570   76.5610  221.2390 H   0  0  0  0  0  0  0  0  0  0  0  0
  137.0892   74.8508  220.0893 H   0  0  0  0  0  0  0  0  0  0  0  0
  134.9143   73.5909  220.1366 H   0  0  0  0  0  0  0  0  0  0  0  0
  134.7427   71.4346  221.3973 H   0  0  0  0  0  0  0  0  0  0  0  0
  136.7415   70.5315  222.6214 H   0  0  0  0  0  0  0  0  0  0  0  0
  140.0984   71.8956  224.6696 H   0  0  0  0  0  0  0  0  0  0  0  0
  138.3216   71.9565  224.5516 H   0  0  0  0  0  0  0  0  0  0  0  0
  138.3884   68.5974  226.5034 H   0  0  0  0  0  0  0  0  0  0  0  0
  139.0155   67.5368  225.1675 H   0  0  0  0  0  0  0  0  0  0  0  0
  139.5200   67.0230  227.6070 H   0  0  0  0  0  0  0  0  0  0  0  0
  1  2  1  0
  2  3  1  0
  3  4  1  0
  4  5  1  0
  5  6  1  0
  6  7  1  0
  7  8  1  0
  9  8  1  6
  9 10  1  0
 10 11  1  0
 11 12  1  0
 12 13  2  0
 12 14  1  0
 14 15  2  0
 15 16  1  0
 16 17  2  0
 17 18  1  0
 18 19  2  0
 19 20  1  0
 19 21  1  0
 21 22  2  0
 22 23  1  0
 11 24  1  0
 24 25  2  0
 25 26  1  0
 26 27  2  0
 27 28  1  0
 28 29  2  0
  9 30  1  0
  5 31  1  0
 31 32  1  0
 32  2  1  0
 30  6  1  0
 29  9  1  0
 23 14  1  0
 29 24  1  0
 22 16  1  0
  1 33  1  0
  1 34  1  0
  1 35  1  0
  2 36  1  6
  3 37  1  0
  3 38  1  0
  4 39  1  0
  4 40  1  0
  5 41  1  6
  7 42  1  0
  7 43  1  0
  8 44  1  0
  8 45  1  0
 10 46  1  0
 10 47  1  0
 15 48  1  0
 17 49  1  0
 18 50  1  0
 21 51  1  0
 23 52  1  0
 25 53  1  0
 26 54  1  0
 27 55  1  0
 28 56  1  0
 30 57  1  0
 30 58  1  0
 31 59  1  0
 31 60  1  0
 32 61  1  0
M  END
>  <UniqueID>  (43) 
94

>  <SMILES>  (43) 
C[C@@H]1CC[C@H](N2CC[C@]3(CN(C(=O)c4cc5ccc(F)cc5[nH]4)c4ccccc43)C2)CN1

>  <Energy>  (43) 
134.34806768659695

>  <Genealogy>  (43) 
C[C@@H]1CC[C@H](N2CC[C@]3(CN(C(=O)c4cc5ccc(F)cc5[nH]4)c4ccccc43)C2)CN1 (chirality)
C[C@@H]1CC[C@H](N2CC[C@]3(CN(C(=O)c4cc5ccc(F)cc5[nH]4)c4ccccc43)C2)CN1 (3D coordinates assigned)
C[C@@H]1CC[C@H](N2CC[C@]3(CN(C(=O)c4cc5ccc(F)cc5[nH]4)c4ccccc43)C2)CN1 (nonaromatic ring conformer: 134.34806768659695 kcal/mol)

>  <smiles>  (43) 
C[C@@H]1CCC(N2CC[C@]3(CN(C(=O)c4cc5ccc(F)cc5[nH]4)c4ccccc43)C2)CN1

>  <score_type>  (43) 
oracle

>  <origin>  (43) 
autodockgpu

>  <m_score__min__energy>  (43) 
-8.9199999999999999

>  <m_primary>  (43) 
energy

>  <meeko>  (43) 
{"free_energy": -8.65, "intermolecular_energy": -9.54, "internal_energy": -1.09, "cluster_size": 4, "cluster_id": 2, "rank_in_cluster": 1}

>  <energy>  (43) 
-8.87

>  <cluster_rmsd>  (43) 
1.23

>  <rmsd>  (43) 
270.69

>  <cluster>  (43) 
1

$$$$
MYPHZBOANNRFAS-OWWOZPERNA-N
     RDKit          3D

 61 66  0  0  0  0  0  0  0  0999 V2000
  141.3930   67.7670  229.1090 C   0  0  0  0  0  0  0  0  0  0  0  0
  141.0750   68.3650  227.7340 C   0  0  2  0  0  0  0  0  0  0  0  0
  140.5830   69.8190  227.8720 C   0  0  0  0  0  0  0  0  0  0  0  0
  140.4240   70.4690  226.4890 C   0  0  0  0  0  0  0  0  0  0  0  0
  139.9730   69.4480  225.4050 C   0  0  2  0  0  0  0  0  0  0  0  0
  139.1640   70.0460  224.3100 N   0  0  0  0  0  0  0  0  0  0  0  0
  139.4350   69.4470  222.9910 C   0  0  0  0  0  0  0  0  0  0  0  0
  139.9230   70.5510  222.0700 C   0  0  0  0  0  0  0  0  0  0  0  0
  139.3710   71.8350  222.6830 C   0  0  1  0  0  0  0  0  0  0  0  0
  140.2550   73.0890  222.3680 C   0  0  0  0  0  0  0  0  0  0  0  0
  139.4760   73.8950  221.4320 N   0  0  0  0  0  0  0  0  0  0  0  0
  139.9930   75.0180  220.7100 C   0  0  0  0  0  0  0  0  0  0  0  0
  140.2390   74.9040  219.4800 O   0  0  0  0  0  0  0  0  0  0  0  0
  140.1990   76.3140  221.3800 C   0  0  0  0  0  0  0  0  0  0  0  0
  139.1890   77.0940  221.9450 C   0  0  0  0  0  0  0  0  0  0  0  0
  139.8420   78.1800  222.4870 C   0  0  0  0  0  0  0  0  0  0  0  0
  139.3500   79.2800  223.1840 C   0  0  0  0  0  0  0  0  0  0  0  0
  140.2750   80.2360  223.6420 C   0  0  0  0  0  0  0  0  0  0  0  0
  141.6580   80.0660  223.4010 C   0  0  0  0  0  0  0  0  0  0  0  0
  142.5400   80.9910  223.8560 F   0  0  0  0  0  0  0  0  0  0  0  0
  142.1230   78.9440  222.6940 C   0  0  0  0  0  0  0  0  0  0  0  0
  141.1830   78.0180  222.2480 C   0  0  0  0  0  0  0  0  0  0  0  0
  141.4140   76.8800  221.5760 N   0  0  0  0  0  0  0  0  0  0  0  0
  138.1660   73.3620  221.3430 C   0  0  0  0  0  0  0  0  0  0  0  0
  137.0710   73.9260  220.6760 C   0  0  0  0  0  0  0  0  0  0  0  0
  135.8380   73.2590  220.7310 C   0  0  0  0  0  0  0  0  0  0  0  0
  135.7130   72.0610  221.4570 C   0  0  0  0  0  0  0  0  0  0  0  0
  136.8190   71.5260  222.1340 C   0  0  0  0  0  0  0  0  0  0  0  0
  138.0440   72.2030  222.0630 C   0  0  0  0  0  0  0  0  0  0  0  0
  139.2540   71.5140  224.1780 C   0  0  0  0  0  0  0  0  0  0  0  0
  139.2490   68.2410  226.0390 C   0  0  0  0  0  0  0  0  0  0  0  0
  140.1080   67.5130  226.9970 N   0  0  0  0  0  0  0  0  0  0  0  0
  141.0323   68.4454  229.8962 H   0  0  0  0  0  0  0  0  0  0  0  0
  140.8945   66.7915  229.2088 H   0  0  0  0  0  0  0  0  0  0  0  0
  142.4805   67.6349  229.2088 H   0  0  0  0  0  0  0  0  0  0  0  0
  142.0003   68.3900  227.1396 H   0  0  0  0  0  0  0  0  0  0  0  0
  139.6116   69.8246  228.3880 H   0  0  0  0  0  0  0  0  0  0  0  0
  141.3238   70.3910  228.4499 H   0  0  0  0  0  0  0  0  0  0  0  0
  139.6707   71.2676  226.5580 H   0  0  0  0  0  0  0  0  0  0  0  0
  141.4048   70.8667  226.1893 H   0  0  0  0  0  0  0  0  0  0  0  0
  140.8996   69.0938  224.9297 H   0  0  0  0  0  0  0  0  0  0  0  0
  140.2075   68.6695  223.0849 H   0  0  0  0  0  0  0  0  0  0  0  0
  138.5235   68.9838  222.5853 H   0  0  0  0  0  0  0  0  0  0  0  0
  141.0224   70.5755  222.0416 H   0  0  0  0  0  0  0  0  0  0  0  0
  139.5888   70.4068  221.0320 H   0  0  0  0  0  0  0  0  0  0  0  0
  140.4568   73.6572  223.2880 H   0  0  0  0  0  0  0  0  0  0  0  0
  141.2296   72.8035  221.9453 H   0  0  0  0  0  0  0  0  0  0  0  0
  138.1086   76.8873  221.9555 H   0  0  0  0  0  0  0  0  0  0  0  0
  138.2724   79.3980  223.3707 H   0  0  0  0  0  0  0  0  0  0  0  0
  139.9203   81.1209  224.1908 H   0  0  0  0  0  0  0  0  0  0  0  0
  143.1961   78.8015  222.4989 H   0  0  0  0  0  0  0  0  0  0  0  0
  142.3470   76.5000  221.2940 H   0  0  0  0  0  0  0  0  0  0  0  0
  137.1755   74.8704  220.1217 H   0  0  0  0  0  0  0  0  0  0  0  0
  134.9661   73.6744  220.2045 H   0  0  0  0  0  0  0  0  0  0  0  0
  134.7441   71.5415  221.4941 H   0  0  0  0  0  0  0  0  0  0  0  0
  136.7265   70.5931  222.7095 H   0  0  0  0  0  0  0  0  0  0  0  0
  140.1406   71.8857  224.7126 H   0  0  0  0  0  0  0  0  0  0  0  0
  138.3655   71.9975  224.6101 H   0  0  0  0  0  0  0  0  0  0  0  0
  138.3554   68.6026  226.5688 H   0  0  0  0  0  0  0  0  0  0  0  0
  138.9815   67.5453  225.2300 H   0  0  0  0  0  0  0  0  0  0  0  0
  139.4740   67.0170  227.6690 H   0  0  0  0  0  0  0  0  0  0  0  0
  1  2  1  0
  2  3  1  0
  3  4  1  0
  4  5  1  0
  5  6  1  0
  6  7  1  0
  7  8  1  0
  9  8  1  6
  9 10  1  0
 10 11  1  0
 11 12  1  0
 12 13  2  0
 12 14  1  0
 14 15  2  0
 15 16  1  0
 16 17  2  0
 17 18  1  0
 18 19  2  0
 19 20  1  0
 19 21  1  0
 21 22  2  0
 22 23  1  0
 11 24  1  0
 24 25  2  0
 25 26  1  0
 26 27  2  0
 27 28  1  0
 28 29  2  0
  9 30  1  0
  5 31  1  0
 31 32  1  0
 32  2  1  0
 30  6  1  0
 29  9  1  0
 23 14  1  0
 29 24  1  0
 22 16  1  0
  1 33  1  0
  1 34  1  0
  1 35  1  0
  2 36  1  6
  3 37  1  0
  3 38  1  0
  4 39  1  0
  4 40  1  0
  5 41  1  6
  7 42  1  0
  7 43  1  0
  8 44  1  0
  8 45  1  0
 10 46  1  0
 10 47  1  0
 15 48  1  0
 17 49  1  0
 18 50  1  0
 21 51  1  0
 23 52  1  0
 25 53  1  0
 26 54  1  0
 27 55  1  0
 28 56  1  0
 30 57  1  0
 30 58  1  0
 31 59  1  0
 31 60  1  0
 32 61  1  0
M  END
>  <UniqueID>  (44) 
94

>  <SMILES>  (44) 
C[C@@H]1CC[C@H](N2CC[C@]3(CN(C(=O)c4cc5ccc(F)cc5[nH]4)c4ccccc43)C2)CN1

>  <Energy>  (44) 
134.34806768659695

>  <Genealogy>  (44) 
C[C@@H]1CC[C@H](N2CC[C@]3(CN(C(=O)c4cc5ccc(F)cc5[nH]4)c4ccccc43)C2)CN1 (chirality)
C[C@@H]1CC[C@H](N2CC[C@]3(CN(C(=O)c4cc5ccc(F)cc5[nH]4)c4ccccc43)C2)CN1 (3D coordinates assigned)
C[C@@H]1CC[C@H](N2CC[C@]3(CN(C(=O)c4cc5ccc(F)cc5[nH]4)c4ccccc43)C2)CN1 (nonaromatic ring conformer: 134.34806768659695 kcal/mol)

>  <smiles>  (44) 
C[C@@H]1CCC(N2CC[C@]3(CN(C(=O)c4cc5ccc(F)cc5[nH]4)c4ccccc43)C2)CN1

>  <score_type>  (44) 
oracle

>  <origin>  (44) 
autodockgpu

>  <m_score__min__energy>  (44) 
-8.9199999999999999

>  <m_primary>  (44) 
energy

>  <meeko>  (44) 
{"free_energy": -8.64, "intermolecular_energy": -9.53, "internal_energy": -1.09, "cluster_size": 4, "cluster_id": 2, "rank_in_cluster": 3}

>  <energy>  (44) 
-8.87

>  <cluster_rmsd>  (44) 
1.22

>  <rmsd>  (44) 
270.71

>  <cluster>  (44) 
1

$$$$
MYPHZBOANNRFAS-OWWOZPERNA-N
     RDKit          3D

 61 66  0  0  0  0  0  0  0  0999 V2000
  145.8070   66.2630  218.9230 C   0  0  0  0  0  0  0  0  0  0  0  0
  145.6790   67.7630  219.2190 C   0  0  2  0  0  0  0  0  0  0  0  0
  144.2030   68.1510  219.4350 C   0  0  0  0  0  0  0  0  0  0  0  0
  144.0920   69.6130  219.8950 C   0  0  0  0  0  0  0  0  0  0  0  0
  145.1940   70.5150  219.2670 C   0  0  2  0  0  0  0  0  0  0  0  0
  144.7840   71.9310  219.0800 N   0  0  0  0  0  0  0  0  0  0  0  0
  145.5370   72.8740  219.9260 C   0  0  0  0  0  0  0  0  0  0  0  0
  144.5430   73.6010  220.8130 C   0  0  0  0  0  0  0  0  0  0  0  0
  143.2160   73.5010  220.0650 C   0  0  1  0  0  0  0  0  0  0  0  0
  141.9750   73.5350  221.0190 C   0  0  0  0  0  0  0  0  0  0  0  0
  141.3360   74.8270  220.7890 N   0  0  0  0  0  0  0  0  0  0  0  0
  140.2950   75.3700  221.6080 C   0  0  0  0  0  0  0  0  0  0  0  0
  139.3340   74.6350  221.9570 O   0  0  0  0  0  0  0  0  0  0  0  0
  140.3590   76.7660  222.0790 C   0  0  0  0  0  0  0  0  0  0  0  0
  139.3190   77.4450  222.7160 C   0  0  0  0  0  0  0  0  0  0  0  0
  139.8370   78.6880  223.0090 C   0  0  0  0  0  0  0  0  0  0  0  0
  139.2610   79.7830  223.6490 C   0  0  0  0  0  0  0  0  0  0  0  0
  140.0550   80.9310  223.8280 C   0  0  0  0  0  0  0  0  0  0  0  0
  141.3940   80.9540  223.3740 C   0  0  0  0  0  0  0  0  0  0  0  0
  142.1500   82.0640  223.5610 F   0  0  0  0  0  0  0  0  0  0  0  0
  141.9450   79.8320  222.7310 C   0  0  0  0  0  0  0  0  0  0  0  0
  141.1340   78.7120  222.5630 C   0  0  0  0  0  0  0  0  0  0  0  0
  141.4650   77.5420  221.9960 N   0  0  0  0  0  0  0  0  0  0  0  0
  141.9350   75.4450  219.6620 C   0  0  0  0  0  0  0  0  0  0  0  0
  141.5160   76.6170  219.0220 C   0  0  0  0  0  0  0  0  0  0  0  0
  142.2260   77.0540  217.8940 C   0  0  0  0  0  0  0  0  0  0  0  0
  143.3230   76.3140  217.4170 C   0  0  0  0  0  0  0  0  0  0  0  0
  143.7120   75.1320  218.0640 C   0  0  0  0  0  0  0  0  0  0  0  0
  142.9950   74.7130  219.1930 C   0  0  0  0  0  0  0  0  0  0  0  0
  143.3430   72.2060  219.2520 C   0  0  0  0  0  0  0  0  0  0  0  0
  145.7300   69.9110  217.9520 C   0  0  0  0  0  0  0  0  0  0  0  0
  146.3200   68.5690  218.1510 N   0  0  0  0  0  0  0  0  0  0  0  0
  145.8546   65.7052  219.8699 H   0  0  0  0  0  0  0  0  0  0  0  0
  144.9342   65.9278  218.3435 H   0  0  0  0  0  0  0  0  0  0  0  0
  146.7240   66.0806  218.3435 H   0  0  0  0  0  0  0  0  0  0  0  0
  146.2142   67.9841  220.1543 H   0  0  0  0  0  0  0  0  0  0  0  0
  143.6540   68.0263  218.4900 H   0  0  0  0  0  0  0  0  0  0  0  0
  143.7744   67.5005  220.2116 H   0  0  0  0  0  0  0  0  0  0  0  0
  143.1061   70.0024  219.6011 H   0  0  0  0  0  0  0  0  0  0  0  0
  144.2226   69.6331  220.9870 H   0  0  0  0  0  0  0  0  0  0  0  0
  146.0105   70.5381  220.0038 H   0  0  0  0  0  0  0  0  0  0  0  0
  146.2595   72.3241  220.5469 H   0  0  0  0  0  0  0  0  0  0  0  0
  146.0897   73.5915  219.3017 H   0  0  0  0  0  0  0  0  0  0  0  0
  144.4720   73.1144  221.7970 H   0  0  0  0  0  0  0  0  0  0  0  0
  144.8376   74.6436  221.0031 H   0  0  0  0  0  0  0  0  0  0  0  0
  141.2822   72.7158  220.7765 H   0  0  0  0  0  0  0  0  0  0  0  0
  142.2682   73.4085  222.0716 H   0  0  0  0  0  0  0  0  0  0  0  0
  138.3084   77.0704  222.9358 H   0  0  0  0  0  0  0  0  0  0  0  0
  138.2199   79.7514  224.0028 H   0  0  0  0  0  0  0  0  0  0  0  0
  139.6312   81.8164  224.3244 H   0  0  0  0  0  0  0  0  0  0  0  0
  142.9846   79.8382  222.3716 H   0  0  0  0  0  0  0  0  0  0  0  0
  142.3990   77.2810  221.6030 H   0  0  0  0  0  0  0  0  0  0  0  0
  140.6495   77.1826  219.3951 H   0  0  0  0  0  0  0  0  0  0  0  0
  141.9238   77.9787  217.3806 H   0  0  0  0  0  0  0  0  0  0  0  0
  143.8776   76.6635  216.5337 H   0  0  0  0  0  0  0  0  0  0  0  0
  144.5644   74.5445  217.6921 H   0  0  0  0  0  0  0  0  0  0  0  0
  142.8636   71.3754  219.7908 H   0  0  0  0  0  0  0  0  0  0  0  0
  142.8487   72.3112  218.2750 H   0  0  0  0  0  0  0  0  0  0  0  0
  144.8994   69.8297  217.2355 H   0  0  0  0  0  0  0  0  0  0  0  0
  146.5220   70.5746  217.5746 H   0  0  0  0  0  0  0  0  0  0  0  0
  146.2670   68.0660  217.2320 H   0  0  0  0  0  0  0  0  0  0  0  0
  1  2  1  0
  2  3  1  0
  3  4  1  0
  4  5  1  0
  5  6  1  0
  6  7  1  0
  7  8  1  0
  9  8  1  1
  9 10  1  0
 10 11  1  0
 11 12  1  0
 12 13  2  0
 12 14  1  0
 14 15  2  0
 15 16  1  0
 16 17  2  0
 17 18  1  0
 18 19  2  0
 19 20  1  0
 19 21  1  0
 21 22  2  0
 22 23  1  0
 11 24  1  0
 24 25  2  0
 25 26  1  0
 26 27  2  0
 27 28  1  0
 28 29  2  0
  9 30  1  0
  5 31  1  0
 31 32  1  0
 32  2  1  0
 30  6  1  0
 29  9  1  0
 23 14  1  0
 29 24  1  0
 22 16  1  0
  1 33  1  0
  1 34  1  0
  1 35  1  0
  2 36  1  1
  3 37  1  0
  3 38  1  0
  4 39  1  0
  4 40  1  0
  5 41  1  1
  7 42  1  0
  7 43  1  0
  8 44  1  0
  8 45  1  0
 10 46  1  0
 10 47  1  0
 15 48  1  0
 17 49  1  0
 18 50  1  0
 21 51  1  0
 23 52  1  0
 25 53  1  0
 26 54  1  0
 27 55  1  0
 28 56  1  0
 30 57  1  0
 30 58  1  0
 31 59  1  0
 31 60  1  0
 32 61  1  0
M  END
>  <UniqueID>  (45) 
94

>  <SMILES>  (45) 
C[C@@H]1CC[C@H](N2CC[C@]3(CN(C(=O)c4cc5ccc(F)cc5[nH]4)c4ccccc43)C2)CN1

>  <Energy>  (45) 
134.34806768659695

>  <Genealogy>  (45) 
C[C@@H]1CC[C@H](N2CC[C@]3(CN(C(=O)c4cc5ccc(F)cc5[nH]4)c4ccccc43)C2)CN1 (chirality)
C[C@@H]1CC[C@H](N2CC[C@]3(CN(C(=O)c4cc5ccc(F)cc5[nH]4)c4ccccc43)C2)CN1 (3D coordinates assigned)
C[C@@H]1CC[C@H](N2CC[C@]3(CN(C(=O)c4cc5ccc(F)cc5[nH]4)c4ccccc43)C2)CN1 (nonaromatic ring conformer: 134.34806768659695 kcal/mol)

>  <smiles>  (45) 
C[C@@H]1CCC(N2CC[C@]3(CN(C(=O)c4cc5ccc(F)cc5[nH]4)c4ccccc43)C2)CN1

>  <score_type>  (45) 
oracle

>  <origin>  (45) 
autodockgpu

>  <m_score__min__energy>  (45) 
-8.9199999999999999

>  <m_primary>  (45) 
energy

>  <meeko>  (45) 
{"free_energy": -8.83, "intermolecular_energy": -9.73, "internal_energy": -1.2, "cluster_size": 11, "cluster_id": 1, "rank_in_cluster": 10}

>  <energy>  (45) 
-8.87

>  <cluster_rmsd>  (45) 
1.25

>  <rmsd>  (45) 
270.7

>  <cluster>  (45) 
1

$$$$
MYPHZBOANNRFAS-OWWOZPERNA-N
     RDKit          3D

 61 66  0  0  0  0  0  0  0  0999 V2000
  137.6530   81.6530  224.1310 C   0  0  0  0  0  0  0  0  0  0  0  0
  138.3970   80.7820  223.1120 C   0  0  2  0  0  0  0  0  0  0  0  0
  137.7160   79.4060  222.9710 C   0  0  0  0  0  0  0  0  0  0  0  0
  138.3600   78.5990  221.8320 C   0  0  0  0  0  0  0  0  0  0  0  0
  139.8830   78.8870  221.6930 C   0  0  2  0  0  0  0  0  0  0  0  0
  140.6700   77.7410  221.1660 N   0  0  0  0  0  0  0  0  0  0  0  0
  140.1980   77.2630  219.8540 C   0  0  0  0  0  0  0  0  0  0  0  0
  139.7950   75.8070  220.0060 C   0  0  0  0  0  0  0  0  0  0  0  0
  140.5810   75.3160  221.2180 C   0  0  1  0  0  0  0  0  0  0  0  0
  139.8650   74.1460  221.9740 C   0  0  0  0  0  0  0  0  0  0  0  0
  140.6660   72.9550  221.7070 N   0  0  0  0  0  0  0  0  0  0  0  0
  140.2550   71.6200  222.0200 C   0  0  0  0  0  0  0  0  0  0  0  0
  139.8730   70.8560  221.0950 O   0  0  0  0  0  0  0  0  0  0  0  0
  140.3160   71.1180  223.4050 C   0  0  0  0  0  0  0  0  0  0  0  0
  140.6920   71.8750  224.5160 C   0  0  0  0  0  0  0  0  0  0  0  0
  140.5610   71.0180  225.5880 C   0  0  0  0  0  0  0  0  0  0  0  0
  140.7870   71.2240  226.9460 C   0  0  0  0  0  0  0  0  0  0  0  0
  140.5450   70.1500  227.8220 C   0  0  0  0  0  0  0  0  0  0  0  0
  140.0800   68.9110  227.3240 C   0  0  0  0  0  0  0  0  0  0  0  0
  139.8420   67.8860  228.1810 F   0  0  0  0  0  0  0  0  0  0  0  0
  139.8610   68.7360  225.9470 C   0  0  0  0  0  0  0  0  0  0  0  0
  140.1160   69.8150  225.1030 C   0  0  0  0  0  0  0  0  0  0  0  0
  139.9590   69.8650  223.7720 N   0  0  0  0  0  0  0  0  0  0  0  0
  141.8710   73.3420  221.0710 C   0  0  0  0  0  0  0  0  0  0  0  0
  142.9720   72.5260  220.7840 C   0  0  0  0  0  0  0  0  0  0  0  0
  144.0950   73.1060  220.1750 C   0  0  0  0  0  0  0  0  0  0  0  0
  144.1090   74.4810  219.8790 C   0  0  0  0  0  0  0  0  0  0  0  0
  143.0010   75.2830  220.1940 C   0  0  0  0  0  0  0  0  0  0  0  0
  141.8860   74.6850  220.7970 C   0  0  0  0  0  0  0  0  0  0  0  0
  140.7830   76.5770  222.0680 C   0  0  0  0  0  0  0  0  0  0  0  0
  140.4780   79.4100  223.0180 C   0  0  0  0  0  0  0  0  0  0  0  0
  139.8330   80.6630  223.4660 N   0  0  0  0  0  0  0  0  0  0  0  0
  137.9228   81.3372  225.1496 H   0  0  0  0  0  0  0  0  0  0  0  0
  137.9341   82.7067  223.9873 H   0  0  0  0  0  0  0  0  0  0  0  0
  136.5683   81.5400  223.9873 H   0  0  0  0  0  0  0  0  0  0  0  0
  138.3475   81.2722  222.1285 H   0  0  0  0  0  0  0  0  0  0  0  0
  137.8244   78.8504  223.9142 H   0  0  0  0  0  0  0  0  0  0  0  0
  136.6514   79.5587  222.7402 H   0  0  0  0  0  0  0  0  0  0  0  0
  138.2196   77.5270  222.0345 H   0  0  0  0  0  0  0  0  0  0  0  0
  137.8736   78.8968  220.8914 H   0  0  0  0  0  0  0  0  0  0  0  0
  139.9649   79.6778  220.9328 H   0  0  0  0  0  0  0  0  0  0  0  0
  139.3323   77.8585  219.5284 H   0  0  0  0  0  0  0  0  0  0  0  0
  140.9928   77.3642  219.1003 H   0  0  0  0  0  0  0  0  0  0  0  0
  138.7129   75.7198  220.1833 H   0  0  0  0  0  0  0  0  0  0  0  0
  140.0096   75.2177  219.1023 H   0  0  0  0  0  0  0  0  0  0  0  0
  139.8310   74.3512  223.0542 H   0  0  0  0  0  0  0  0  0  0  0  0
  138.8256   74.0204  221.6367 H   0  0  0  0  0  0  0  0  0  0  0  0
  141.0206   72.9246  224.5325 H   0  0  0  0  0  0  0  0  0  0  0  0
  141.1431   72.1945  227.3218 H   0  0  0  0  0  0  0  0  0  0  0  0
  140.7186   70.2749  228.9010 H   0  0  0  0  0  0  0  0  0  0  0  0
  139.4994   67.7769  225.5478 H   0  0  0  0  0  0  0  0  0  0  0  0
  139.6020   69.0980  223.1570 H   0  0  0  0  0  0  0  0  0  0  0  0
  142.9568   71.4541  221.0305 H   0  0  0  0  0  0  0  0  0  0  0  0
  144.9675   72.4833  219.9282 H   0  0  0  0  0  0  0  0  0  0  0  0
  144.9914   74.9293  219.3990 H   0  0  0  0  0  0  0  0  0  0  0  0
  143.0076   76.3603  219.9719 H   0  0  0  0  0  0  0  0  0  0  0  0
  140.0111   76.6310  222.8498 H   0  0  0  0  0  0  0  0  0  0  0  0
  141.7672   76.5606  222.5591 H   0  0  0  0  0  0  0  0  0  0  0  0
  140.3400   78.6435  223.7948 H   0  0  0  0  0  0  0  0  0  0  0  0
  141.5440   79.6219  222.8482 H   0  0  0  0  0  0  0  0  0  0  0  0
  139.9590   80.7240  224.5050 H   0  0  0  0  0  0  0  0  0  0  0  0
  1  2  1  0
  2  3  1  0
  3  4  1  0
  4  5  1  0
  5  6  1  0
  6  7  1  0
  7  8  1  0
  9  8  1  6
  9 10  1  0
 10 11  1  0
 11 12  1  0
 12 13  2  0
 12 14  1  0
 14 15  2  0
 15 16  1  0
 16 17  2  0
 17 18  1  0
 18 19  2  0
 19 20  1  0
 19 21  1  0
 21 22  2  0
 22 23  1  0
 11 24  1  0
 24 25  2  0
 25 26  1  0
 26 27  2  0
 27 28  1  0
 28 29  2  0
  9 30  1  0
  5 31  1  0
 31 32  1  0
 32  2  1  0
 30  6  1  0
 29  9  1  0
 23 14  1  0
 29 24  1  0
 22 16  1  0
  1 33  1  0
  1 34  1  0
  1 35  1  0
  2 36  1  6
  3 37  1  0
  3 38  1  0
  4 39  1  0
  4 40  1  0
  5 41  1  6
  7 42  1  0
  7 43  1  0
  8 44  1  0
  8 45  1  0
 10 46  1  0
 10 47  1  0
 15 48  1  0
 17 49  1  0
 18 50  1  0
 21 51  1  0
 23 52  1  0
 25 53  1  0
 26 54  1  0
 27 55  1  0
 28 56  1  0
 30 57  1  0
 30 58  1  0
 31 59  1  0
 31 60  1  0
 32 61  1  0
M  END
>  <UniqueID>  (46) 
94

>  <SMILES>  (46) 
C[C@@H]1CC[C@H](N2CC[C@]3(CN(C(=O)c4cc5ccc(F)cc5[nH]4)c4ccccc43)C2)CN1

>  <Energy>  (46) 
134.34806768659695

>  <Genealogy>  (46) 
C[C@@H]1CC[C@H](N2CC[C@]3(CN(C(=O)c4cc5ccc(F)cc5[nH]4)c4ccccc43)C2)CN1 (chirality)
C[C@@H]1CC[C@H](N2CC[C@]3(CN(C(=O)c4cc5ccc(F)cc5[nH]4)c4ccccc43)C2)CN1 (3D coordinates assigned)
C[C@@H]1CC[C@H](N2CC[C@]3(CN(C(=O)c4cc5ccc(F)cc5[nH]4)c4ccccc43)C2)CN1 (nonaromatic ring conformer: 134.34806768659695 kcal/mol)

>  <smiles>  (46) 
C[C@@H]1CCC(N2CC[C@]3(CN(C(=O)c4cc5ccc(F)cc5[nH]4)c4ccccc43)C2)CN1

>  <score_type>  (46) 
oracle

>  <origin>  (46) 
autodockgpu

>  <m_score__min__energy>  (46) 
-8.9199999999999999

>  <m_primary>  (46) 
energy

>  <meeko>  (46) 
{"free_energy": -8.31, "intermolecular_energy": -9.21, "internal_energy": -1.26, "cluster_size": 5, "cluster_id": 3, "rank_in_cluster": 5}

>  <energy>  (46) 
-8.86

>  <cluster_rmsd>  (46) 
1.24

>  <rmsd>  (46) 
270.7

>  <cluster>  (46) 
1

$$$$
MYPHZBOANNRFAS-OWWOZPERNA-N
     RDKit          3D

 61 66  0  0  0  0  0  0  0  0999 V2000
  141.3820   67.7680  229.0400 C   0  0  0  0  0  0  0  0  0  0  0  0
  141.0630   68.3430  227.6540 C   0  0  2  0  0  0  0  0  0  0  0  0
  140.6790   69.8320  227.7580 C   0  0  0  0  0  0  0  0  0  0  0  0
  140.5230   70.4480  226.3590 C   0  0  0  0  0  0  0  0  0  0  0  0
  139.9660   69.4270  225.3240 C   0  0  2  0  0  0  0  0  0  0  0  0
  139.1660   70.0460  224.2340 N   0  0  0  0  0  0  0  0  0  0  0  0
  139.4490   69.4730  222.9050 C   0  0  0  0  0  0  0  0  0  0  0  0
  139.9450   70.5950  222.0110 C   0  0  0  0  0  0  0  0  0  0  0  0
  139.3870   71.8670  222.6440 C   0  0  1  0  0  0  0  0  0  0  0  0
  140.2730   73.1260  222.3610 C   0  0  0  0  0  0  0  0  0  0  0  0
  139.5020   73.9500  221.4350 N   0  0  0  0  0  0  0  0  0  0  0  0
  140.0250   75.0870  220.7390 C   0  0  0  0  0  0  0  0  0  0  0  0
  140.2810   74.9980  219.5090 O   0  0  0  0  0  0  0  0  0  0  0  0
  140.2260   76.3700  221.4370 C   0  0  0  0  0  0  0  0  0  0  0  0
  139.2230   77.0990  222.0780 C   0  0  0  0  0  0  0  0  0  0  0  0
  139.8700   78.1900  222.6180 C   0  0  0  0  0  0  0  0  0  0  0  0
  139.3820   79.2530  223.3730 C   0  0  0  0  0  0  0  0  0  0  0  0
  140.2990   80.2250  223.8100 C   0  0  0  0  0  0  0  0  0  0  0  0
  141.6720   80.1090  223.4900 C   0  0  0  0  0  0  0  0  0  0  0  0
  142.5480   81.0500  223.9250 F   0  0  0  0  0  0  0  0  0  0  0  0
  142.1340   79.0240  222.7250 C   0  0  0  0  0  0  0  0  0  0  0  0
  141.2010   78.0800  222.3020 C   0  0  0  0  0  0  0  0  0  0  0  0
  141.4300   76.9710  221.5840 N   0  0  0  0  0  0  0  0  0  0  0  0
  138.1930   73.4200  221.3240 C   0  0  0  0  0  0  0  0  0  0  0  0
  137.1040   73.9950  220.6580 C   0  0  0  0  0  0  0  0  0  0  0  0
  135.8710   73.3270  220.6890 C   0  0  0  0  0  0  0  0  0  0  0  0
  135.7390   72.1150  221.3900 C   0  0  0  0  0  0  0  0  0  0  0  0
  136.8400   71.5680  222.0670 C   0  0  0  0  0  0  0  0  0  0  0  0
  138.0660   72.2460  222.0200 C   0  0  0  0  0  0  0  0  0  0  0  0
  139.2570   71.5160  224.1310 C   0  0  0  0  0  0  0  0  0  0  0  0
  139.1790   68.2960  226.0200 C   0  0  0  0  0  0  0  0  0  0  0  0
  140.0150   67.5390  226.9770 N   0  0  0  0  0  0  0  0  0  0  0  0
  141.0037   68.4499  229.8158 H   0  0  0  0  0  0  0  0  0  0  0  0
  140.9001   66.7852  229.1490 H   0  0  0  0  0  0  0  0  0  0  0  0
  142.4709   67.6566  229.1490 H   0  0  0  0  0  0  0  0  0  0  0  0
  141.9675   68.2830  227.0309 H   0  0  0  0  0  0  0  0  0  0  0  0
  139.7270   69.9229  228.3015 H   0  0  0  0  0  0  0  0  0  0  0  0
  141.4757   70.3676  228.2950 H   0  0  0  0  0  0  0  0  0  0  0  0
  139.8309   71.3006  226.4228 H   0  0  0  0  0  0  0  0  0  0  0  0
  141.5194   70.7649  226.0172 H   0  0  0  0  0  0  0  0  0  0  0  0
  140.8497   68.9924  224.8340 H   0  0  0  0  0  0  0  0  0  0  0  0
  140.2207   68.6938  222.9903 H   0  0  0  0  0  0  0  0  0  0  0  0
  138.5413   69.0179  222.4820 H   0  0  0  0  0  0  0  0  0  0  0  0
  141.0446   70.6202  221.9933 H   0  0  0  0  0  0  0  0  0  0  0  0
  139.6203   70.4713  220.9673 H   0  0  0  0  0  0  0  0  0  0  0  0
  140.4673   73.6760  223.2936 H   0  0  0  0  0  0  0  0  0  0  0  0
  141.2510   72.8487  221.9408 H   0  0  0  0  0  0  0  0  0  0  0  0
  138.1518   76.8563  222.1389 H   0  0  0  0  0  0  0  0  0  0  0  0
  138.3128   79.3300  223.6198 H   0  0  0  0  0  0  0  0  0  0  0  0
  139.9466   81.0809  224.4044 H   0  0  0  0  0  0  0  0  0  0  0  0
  143.1989   78.9235  222.4684 H   0  0  0  0  0  0  0  0  0  0  0  0
  142.3580   76.6310  221.2410 H   0  0  0  0  0  0  0  0  0  0  0  0
  137.2129   74.9495  220.1223 H   0  0  0  0  0  0  0  0  0  0  0  0
  135.0039   73.7528  220.1629 H   0  0  0  0  0  0  0  0  0  0  0  0
  134.7702   71.5943  221.4077 H   0  0  0  0  0  0  0  0  0  0  0  0
  136.7427   70.6246  222.6242 H   0  0  0  0  0  0  0  0  0  0  0  0
  140.1388   71.8771  224.6805 H   0  0  0  0  0  0  0  0  0  0  0  0
  138.3643   71.9906  224.5644 H   0  0  0  0  0  0  0  0  0  0  0  0
  138.3305   68.7375  226.5633 H   0  0  0  0  0  0  0  0  0  0  0  0
  138.8373   67.5958  225.2435 H   0  0  0  0  0  0  0  0  0  0  0  0
  139.3690   67.1110  227.6840 H   0  0  0  0  0  0  0  0  0  0  0  0
  1  2  1  0
  2  3  1  0
  3  4  1  0
  4  5  1  0
  5  6  1  0
  6  7  1  0
  7  8  1  0
  9  8  1  6
  9 10  1  0
 10 11  1  0
 11 12  1  0
 12 13  2  0
 12 14  1  0
 14 15  2  0
 15 16  1  0
 16 17  2  0
 17 18  1  0
 18 19  2  0
 19 20  1  0
 19 21  1  0
 21 22  2  0
 22 23  1  0
 11 24  1  0
 24 25  2  0
 25 26  1  0
 26 27  2  0
 27 28  1  0
 28 29  2  0
  9 30  1  0
  5 31  1  0
 31 32  1  0
 32  2  1  0
 30  6  1  0
 29  9  1  0
 23 14  1  0
 29 24  1  0
 22 16  1  0
  1 33  1  0
  1 34  1  0
  1 35  1  0
  2 36  1  6
  3 37  1  0
  3 38  1  0
  4 39  1  0
  4 40  1  0
  5 41  1  6
  7 42  1  0
  7 43  1  0
  8 44  1  0
  8 45  1  0
 10 46  1  0
 10 47  1  0
 15 48  1  0
 17 49  1  0
 18 50  1  0
 21 51  1  0
 23 52  1  0
 25 53  1  0
 26 54  1  0
 27 55  1  0
 28 56  1  0
 30 57  1  0
 30 58  1  0
 31 59  1  0
 31 60  1  0
 32 61  1  0
M  END
>  <UniqueID>  (47) 
94

>  <SMILES>  (47) 
C[C@@H]1CC[C@H](N2CC[C@]3(CN(C(=O)c4cc5ccc(F)cc5[nH]4)c4ccccc43)C2)CN1

>  <Energy>  (47) 
134.34806768659695

>  <Genealogy>  (47) 
C[C@@H]1CC[C@H](N2CC[C@]3(CN(C(=O)c4cc5ccc(F)cc5[nH]4)c4ccccc43)C2)CN1 (chirality)
C[C@@H]1CC[C@H](N2CC[C@]3(CN(C(=O)c4cc5ccc(F)cc5[nH]4)c4ccccc43)C2)CN1 (3D coordinates assigned)
C[C@@H]1CC[C@H](N2CC[C@]3(CN(C(=O)c4cc5ccc(F)cc5[nH]4)c4ccccc43)C2)CN1 (nonaromatic ring conformer: 134.34806768659695 kcal/mol)

>  <smiles>  (47) 
C[C@@H]1CCC(N2CC[C@]3(CN(C(=O)c4cc5ccc(F)cc5[nH]4)c4ccccc43)C2)CN1

>  <score_type>  (47) 
oracle

>  <origin>  (47) 
autodockgpu

>  <m_score__min__energy>  (47) 
-8.9199999999999999

>  <m_primary>  (47) 
energy

>  <meeko>  (47) 
{"free_energy": -8.64, "intermolecular_energy": -9.54, "internal_energy": -1.1, "cluster_size": 4, "cluster_id": 2, "rank_in_cluster": 2}

>  <energy>  (47) 
-8.86

>  <cluster_rmsd>  (47) 
1.24

>  <rmsd>  (47) 
270.7

>  <cluster>  (47) 
1

$$$$
MYPHZBOANNRFAS-OWWOZPERNA-N
     RDKit          3D

 61 66  0  0  0  0  0  0  0  0999 V2000
  140.3830   82.7860  221.5910 C   0  0  0  0  0  0  0  0  0  0  0  0
  140.4190   81.2680  221.3740 C   0  0  2  0  0  0  0  0  0  0  0  0
  141.3210   80.5890  222.4230 C   0  0  0  0  0  0  0  0  0  0  0  0
  141.2240   79.0600  222.3090 C   0  0  0  0  0  0  0  0  0  0  0  0
  141.0110   78.5890  220.8400 C   0  0  2  0  0  0  0  0  0  0  0  0
  141.5790   77.2470  220.5460 N   0  0  0  0  0  0  0  0  0  0  0  0
  141.0610   76.6550  219.3000 C   0  0  0  0  0  0  0  0  0  0  0  0
  140.3840   75.3430  219.6540 C   0  0  0  0  0  0  0  0  0  0  0  0
  141.0290   74.9220  220.9720 C   0  0  1  0  0  0  0  0  0  0  0  0
  140.0820   74.0440  221.8590 C   0  0  0  0  0  0  0  0  0  0  0  0
  140.6490   72.6990  221.8290 N   0  0  0  0  0  0  0  0  0  0  0  0
  139.9830   71.5310  222.3230 C   0  0  0  0  0  0  0  0  0  0  0  0
  139.2570   70.8570  221.5460 O   0  0  0  0  0  0  0  0  0  0  0  0
  140.1740   71.0890  223.7160 C   0  0  0  0  0  0  0  0  0  0  0  0
  140.6930   71.8770  224.7440 C   0  0  0  0  0  0  0  0  0  0  0  0
  140.6470   71.0740  225.8620 C   0  0  0  0  0  0  0  0  0  0  0  0
  141.0250   71.3290  227.1780 C   0  0  0  0  0  0  0  0  0  0  0  0
  140.8390   70.3060  228.1250 C   0  0  0  0  0  0  0  0  0  0  0  0
  140.2780   69.0660  227.7390 C   0  0  0  0  0  0  0  0  0  0  0  0
  140.0960   68.0910  228.6640 F   0  0  0  0  0  0  0  0  0  0  0  0
  139.9070   68.8400  226.4020 C   0  0  0  0  0  0  0  0  0  0  0  0
  140.1090   69.8700  225.4860 C   0  0  0  0  0  0  0  0  0  0  0  0
  139.8130   69.8680  224.1780 N   0  0  0  0  0  0  0  0  0  0  0  0
  141.9230   72.7480  221.2110 C   0  0  0  0  0  0  0  0  0  0  0  0
  142.8560   71.7080  221.1190 C   0  0  0  0  0  0  0  0  0  0  0  0
  144.0850   71.9640  220.4920 C   0  0  0  0  0  0  0  0  0  0  0  0
  144.3680   73.2450  219.9860 C   0  0  0  0  0  0  0  0  0  0  0  0
  143.4250   74.2770  220.1080 C   0  0  0  0  0  0  0  0  0  0  0  0
  142.2010   74.0020  220.7310 C   0  0  0  0  0  0  0  0  0  0  0  0
  141.4440   76.2470  221.6240 C   0  0  0  0  0  0  0  0  0  0  0  0
  141.5210   79.6440  219.8350 C   0  0  0  0  0  0  0  0  0  0  0  0
  140.8290   80.9420  219.9860 N   0  0  0  0  0  0  0  0  0  0  0  0
  140.3779   83.0022  222.6695 H   0  0  0  0  0  0  0  0  0  0  0  0
  141.2705   83.2435  221.1295 H   0  0  0  0  0  0  0  0  0  0  0  0
  139.4748   83.2009  221.1295 H   0  0  0  0  0  0  0  0  0  0  0  0
  139.4032   80.8689  221.5115 H   0  0  0  0  0  0  0  0  0  0  0  0
  142.3636   80.8986  222.2584 H   0  0  0  0  0  0  0  0  0  0  0  0
  140.9887   80.8922  223.4268 H   0  0  0  0  0  0  0  0  0  0  0  0
  142.1556   78.6170  222.6909 H   0  0  0  0  0  0  0  0  0  0  0  0
  140.3533   78.7334  222.8966 H   0  0  0  0  0  0  0  0  0  0  0  0
  139.9229   78.4825  220.7189 H   0  0  0  0  0  0  0  0  0  0  0  0
  140.3340   77.3376  218.8358 H   0  0  0  0  0  0  0  0  0  0  0  0
  141.8810   76.4834  218.5871 H   0  0  0  0  0  0  0  0  0  0  0  0
  139.3007   75.4863  219.7799 H   0  0  0  0  0  0  0  0  0  0  0  0
  140.5070   74.5839  218.8675 H   0  0  0  0  0  0  0  0  0  0  0  0
  140.0575   74.4272  222.8898 H   0  0  0  0  0  0  0  0  0  0  0  0
  139.0474   74.0573  221.4855 H   0  0  0  0  0  0  0  0  0  0  0  0
  141.0586   72.9123  224.6763 H   0  0  0  0  0  0  0  0  0  0  0  0
  141.4551   72.2992  227.4673 H   0  0  0  0  0  0  0  0  0  0  0  0
  141.1316   70.4711  229.1724 H   0  0  0  0  0  0  0  0  0  0  0  0
  139.4709   67.8799  226.0889 H   0  0  0  0  0  0  0  0  0  0  0  0
  139.3640   69.0900  223.6410 H   0  0  0  0  0  0  0  0  0  0  0  0
  142.6306   70.7125  221.5291 H   0  0  0  0  0  0  0  0  0  0  0  0
  144.8295   71.1599  220.3960 H   0  0  0  0  0  0  0  0  0  0  0  0
  145.3319   73.4388  219.4928 H   0  0  0  0  0  0  0  0  0  0  0  0
  143.6430   75.2835  219.7215 H   0  0  0  0  0  0  0  0  0  0  0  0
  140.6755   76.5696  222.3419 H   0  0  0  0  0  0  0  0  0  0  0  0
  142.3934   76.1316  222.1675 H   0  0  0  0  0  0  0  0  0  0  0  0
  142.5982   79.7962  219.9977 H   0  0  0  0  0  0  0  0  0  0  0  0
  141.3174   79.2695  218.8210 H   0  0  0  0  0  0  0  0  0  0  0  0
  141.4710   81.6820  219.6110 H   0  0  0  0  0  0  0  0  0  0  0  0
  1  2  1  0
  2  3  1  0
  3  4  1  0
  4  5  1  0
  5  6  1  0
  6  7  1  0
  7  8  1  0
  9  8  1  6
  9 10  1  0
 10 11  1  0
 11 12  1  0
 12 13  2  0
 12 14  1  0
 14 15  2  0
 15 16  1  0
 16 17  2  0
 17 18  1  0
 18 19  2  0
 19 20  1  0
 19 21  1  0
 21 22  2  0
 22 23  1  0
 11 24  1  0
 24 25  2  0
 25 26  1  0
 26 27  2  0
 27 28  1  0
 28 29  2  0
  9 30  1  0
  5 31  1  0
 31 32  1  0
 32  2  1  0
 30  6  1  0
 29  9  1  0
 23 14  1  0
 29 24  1  0
 22 16  1  0
  1 33  1  0
  1 34  1  0
  1 35  1  0
  2 36  1  1
  3 37  1  0
  3 38  1  0
  4 39  1  0
  4 40  1  0
  5 41  1  6
  7 42  1  0
  7 43  1  0
  8 44  1  0
  8 45  1  0
 10 46  1  0
 10 47  1  0
 15 48  1  0
 17 49  1  0
 18 50  1  0
 21 51  1  0
 23 52  1  0
 25 53  1  0
 26 54  1  0
 27 55  1  0
 28 56  1  0
 30 57  1  0
 30 58  1  0
 31 59  1  0
 31 60  1  0
 32 61  1  0
M  END
>  <UniqueID>  (48) 
94

>  <SMILES>  (48) 
C[C@@H]1CC[C@H](N2CC[C@]3(CN(C(=O)c4cc5ccc(F)cc5[nH]4)c4ccccc43)C2)CN1

>  <Energy>  (48) 
134.34806768659695

>  <Genealogy>  (48) 
C[C@@H]1CC[C@H](N2CC[C@]3(CN(C(=O)c4cc5ccc(F)cc5[nH]4)c4ccccc43)C2)CN1 (chirality)
C[C@@H]1CC[C@H](N2CC[C@]3(CN(C(=O)c4cc5ccc(F)cc5[nH]4)c4ccccc43)C2)CN1 (3D coordinates assigned)
C[C@@H]1CC[C@H](N2CC[C@]3(CN(C(=O)c4cc5ccc(F)cc5[nH]4)c4ccccc43)C2)CN1 (nonaromatic ring conformer: 134.34806768659695 kcal/mol)

>  <smiles>  (48) 
C[C@@H]1CCC(N2CC[C@]3(CN(C(=O)c4cc5ccc(F)cc5[nH]4)c4ccccc43)C2)CN1

>  <score_type>  (48) 
oracle

>  <origin>  (48) 
autodockgpu

>  <m_score__min__energy>  (48) 
-8.9199999999999999

>  <m_primary>  (48) 
energy

>  <meeko>  (48) 
{"free_energy": -8.42, "intermolecular_energy": -9.32, "internal_energy": -1.21, "cluster_size": 5, "cluster_id": 3, "rank_in_cluster": 3}

>  <energy>  (48) 
-8.86

>  <cluster_rmsd>  (48) 
1.17

>  <rmsd>  (48) 
270.72

>  <cluster>  (48) 
1

$$$$
MYPHZBOANNRFAS-OWWOZPERNA-N
     RDKit          3D

 61 66  0  0  0  0  0  0  0  0999 V2000
  145.8390   66.3310  218.5890 C   0  0  0  0  0  0  0  0  0  0  0  0
  145.7290   67.8210  218.9340 C   0  0  2  0  0  0  0  0  0  0  0  0
  144.2660   68.2050  219.2290 C   0  0  0  0  0  0  0  0  0  0  0  0
  144.1790   69.6530  219.7360 C   0  0  0  0  0  0  0  0  0  0  0  0
  145.2560   70.5710  219.0860 C   0  0  2  0  0  0  0  0  0  0  0  0
  144.8410   71.9940  218.9600 N   0  0  0  0  0  0  0  0  0  0  0  0
  145.6120   72.9050  219.8250 C   0  0  0  0  0  0  0  0  0  0  0  0
  144.6350   73.5980  220.7580 C   0  0  0  0  0  0  0  0  0  0  0  0
  143.2940   73.5250  220.0330 C   0  0  1  0  0  0  0  0  0  0  0  0
  142.0720   73.5230  221.0130 C   0  0  0  0  0  0  0  0  0  0  0  0
  141.4280   74.8220  220.8430 N   0  0  0  0  0  0  0  0  0  0  0  0
  140.4040   75.3340  221.7020 C   0  0  0  0  0  0  0  0  0  0  0  0
  139.5270   74.5510  222.1560 O   0  0  0  0  0  0  0  0  0  0  0  0
  140.3900   76.7550  222.0930 C   0  0  0  0  0  0  0  0  0  0  0  0
  139.3110   77.4130  222.6850 C   0  0  0  0  0  0  0  0  0  0  0  0
  139.7590   78.6970  222.9090 C   0  0  0  0  0  0  0  0  0  0  0  0
  139.1220   79.7940  223.4820 C   0  0  0  0  0  0  0  0  0  0  0  0
  139.8510   80.9910  223.5980 C   0  0  0  0  0  0  0  0  0  0  0  0
  141.1910   81.0590  223.1500 C   0  0  0  0  0  0  0  0  0  0  0  0
  141.8860   82.2180  223.2760 F   0  0  0  0  0  0  0  0  0  0  0  0
  141.8060   79.9340  222.5760 C   0  0  0  0  0  0  0  0  0  0  0  0
  141.0570   78.7640  222.4670 C   0  0  0  0  0  0  0  0  0  0  0  0
  141.4540   77.5840  221.9710 N   0  0  0  0  0  0  0  0  0  0  0  0
  142.0050   75.4810  219.7290 C   0  0  0  0  0  0  0  0  0  0  0  0
  141.5730   76.6760  219.1400 C   0  0  0  0  0  0  0  0  0  0  0  0
  142.2600   77.1550  218.0160 C   0  0  0  0  0  0  0  0  0  0  0  0
  143.3470   76.4340  217.4900 C   0  0  0  0  0  0  0  0  0  0  0  0
  143.7490   75.2290  218.0850 C   0  0  0  0  0  0  0  0  0  0  0  0
  143.0550   74.7680  219.2110 C   0  0  0  0  0  0  0  0  0  0  0  0
  143.4050   72.2610  219.1710 C   0  0  0  0  0  0  0  0  0  0  0  0
  145.7300   70.0060  217.7300 C   0  0  0  0  0  0  0  0  0  0  0  0
  146.3240   68.6580  217.8630 N   0  0  0  0  0  0  0  0  0  0  0  0
  145.8825   65.7420  219.5170 H   0  0  0  0  0  0  0  0  0  0  0  0
  144.9610   66.0249  218.0013 H   0  0  0  0  0  0  0  0  0  0  0  0
  146.7524   66.1572  218.0013 H   0  0  0  0  0  0  0  0  0  0  0  0
  146.3070   68.0131  219.8500 H   0  0  0  0  0  0  0  0  0  0  0  0
  143.6739   68.1085  218.3070 H   0  0  0  0  0  0  0  0  0  0  0  0
  143.8725   67.5329  220.0058 H   0  0  0  0  0  0  0  0  0  0  0  0
  143.1824   70.0525  219.4970 H   0  0  0  0  0  0  0  0  0  0  0  0
  144.3566   69.6414  220.8215 H   0  0  0  0  0  0  0  0  0  0  0  0
  146.1055   70.5697  219.7848 H   0  0  0  0  0  0  0  0  0  0  0  0
  146.3465   72.3326  220.4105 H   0  0  0  0  0  0  0  0  0  0  0  0
  146.1533   73.6451  219.2173 H   0  0  0  0  0  0  0  0  0  0  0  0
  144.5831   73.0750  221.7243 H   0  0  0  0  0  0  0  0  0  0  0  0
  144.9333   74.6330  220.9810 H   0  0  0  0  0  0  0  0  0  0  0  0
  141.3747   72.7124  220.7550 H   0  0  0  0  0  0  0  0  0  0  0  0
  142.3865   73.3586  222.0542 H   0  0  0  0  0  0  0  0  0  0  0  0
  138.3201   76.9978  222.9211 H   0  0  0  0  0  0  0  0  0  0  0  0
  138.0816   79.7268  223.8329 H   0  0  0  0  0  0  0  0  0  0  0  0
  139.3764   81.8796  224.0397 H   0  0  0  0  0  0  0  0  0  0  0  0
  142.8471   79.9754  222.2233 H   0  0  0  0  0  0  0  0  0  0  0  0
  142.4030   77.3510  221.5980 H   0  0  0  0  0  0  0  0  0  0  0  0
  140.7136   77.2265  219.5504 H   0  0  0  0  0  0  0  0  0  0  0  0
  141.9479   78.0981  217.5437 H   0  0  0  0  0  0  0  0  0  0  0  0
  143.8837   76.8163  216.6092 H   0  0  0  0  0  0  0  0  0  0  0  0
  144.5939   74.6565  217.6748 H   0  0  0  0  0  0  0  0  0  0  0  0
  142.9368   71.4108  219.6887 H   0  0  0  0  0  0  0  0  0  0  0  0
  142.8911   72.4014  218.2086 H   0  0  0  0  0  0  0  0  0  0  0  0
  144.8676   69.9475  217.0497 H   0  0  0  0  0  0  0  0  0  0  0  0
  146.5056   70.6793  217.3363 H   0  0  0  0  0  0  0  0  0  0  0  0
  146.2280   68.1830  216.9330 H   0  0  0  0  0  0  0  0  0  0  0  0
  1  2  1  0
  2  3  1  0
  3  4  1  0
  4  5  1  0
  5  6  1  0
  6  7  1  0
  7  8  1  0
  9  8  1  1
  9 10  1  0
 10 11  1  0
 11 12  1  0
 12 13  2  0
 12 14  1  0
 14 15  2  0
 15 16  1  0
 16 17  2  0
 17 18  1  0
 18 19  2  0
 19 20  1  0
 19 21  1  0
 21 22  2  0
 22 23  1  0
 11 24  1  0
 24 25  2  0
 25 26  1  0
 26 27  2  0
 27 28  1  0
 28 29  2  0
  9 30  1  0
  5 31  1  0
 31 32  1  0
 32  2  1  0
 30  6  1  0
 29  9  1  0
 23 14  1  0
 29 24  1  0
 22 16  1  0
  1 33  1  0
  1 34  1  0
  1 35  1  0
  2 36  1  1
  3 37  1  0
  3 38  1  0
  4 39  1  0
  4 40  1  0
  5 41  1  1
  7 42  1  0
  7 43  1  0
  8 44  1  0
  8 45  1  0
 10 46  1  0
 10 47  1  0
 15 48  1  0
 17 49  1  0
 18 50  1  0
 21 51  1  0
 23 52  1  0
 25 53  1  0
 26 54  1  0
 27 55  1  0
 28 56  1  0
 30 57  1  0
 30 58  1  0
 31 59  1  0
 31 60  1  0
 32 61  1  0
M  END
>  <UniqueID>  (49) 
94

>  <SMILES>  (49) 
C[C@@H]1CC[C@H](N2CC[C@]3(CN(C(=O)c4cc5ccc(F)cc5[nH]4)c4ccccc43)C2)CN1

>  <Energy>  (49) 
134.34806768659695

>  <Genealogy>  (49) 
C[C@@H]1CC[C@H](N2CC[C@]3(CN(C(=O)c4cc5ccc(F)cc5[nH]4)c4ccccc43)C2)CN1 (chirality)
C[C@@H]1CC[C@H](N2CC[C@]3(CN(C(=O)c4cc5ccc(F)cc5[nH]4)c4ccccc43)C2)CN1 (3D coordinates assigned)
C[C@@H]1CC[C@H](N2CC[C@]3(CN(C(=O)c4cc5ccc(F)cc5[nH]4)c4ccccc43)C2)CN1 (nonaromatic ring conformer: 134.34806768659695 kcal/mol)

>  <smiles>  (49) 
C[C@@H]1CCC(N2CC[C@]3(CN(C(=O)c4cc5ccc(F)cc5[nH]4)c4ccccc43)C2)CN1

>  <score_type>  (49) 
oracle

>  <origin>  (49) 
autodockgpu

>  <m_score__min__energy>  (49) 
-8.9199999999999999

>  <m_primary>  (49) 
energy

>  <meeko>  (49) 
{"free_energy": -8.86, "intermolecular_energy": -9.75, "internal_energy": -1.15, "cluster_size": 11, "cluster_id": 1, "rank_in_cluster": 8}

>  <energy>  (49) 
-8.84

>  <cluster_rmsd>  (49) 
1.13

>  <rmsd>  (49) 
270.74

>  <cluster>  (49) 
1

$$$$
MYPHZBOANNRFAS-OWWOZPERNA-N
     RDKit          3D

 61 66  0  0  0  0  0  0  0  0999 V2000
  140.4690   82.7280  221.6080 C   0  0  0  0  0  0  0  0  0  0  0  0
  140.4730   81.2120  221.3820 C   0  0  2  0  0  0  0  0  0  0  0  0
  141.3620   80.5080  222.4260 C   0  0  0  0  0  0  0  0  0  0  0  0
  141.2330   78.9810  222.3030 C   0  0  0  0  0  0  0  0  0  0  0  0
  141.0070   78.5240  220.8320 C   0  0  2  0  0  0  0  0  0  0  0  0
  141.5470   77.1720  220.5290 N   0  0  0  0  0  0  0  0  0  0  0  0
  140.9730   76.5750  219.3100 C   0  0  0  0  0  0  0  0  0  0  0  0
  140.2940   75.2760  219.7020 C   0  0  0  0  0  0  0  0  0  0  0  0
  140.9840   74.8580  220.9980 C   0  0  1  0  0  0  0  0  0  0  0  0
  140.0620   74.0010  221.9290 C   0  0  0  0  0  0  0  0  0  0  0  0
  140.6100   72.6490  221.8900 N   0  0  0  0  0  0  0  0  0  0  0  0
  139.9500   71.4940  222.4210 C   0  0  0  0  0  0  0  0  0  0  0  0
  139.1850   70.8220  221.6790 O   0  0  0  0  0  0  0  0  0  0  0  0
  140.1880   71.0620  223.8100 C   0  0  0  0  0  0  0  0  0  0  0  0
  140.6630   71.8830  224.8340 C   0  0  0  0  0  0  0  0  0  0  0  0
  140.6880   71.0750  225.9510 C   0  0  0  0  0  0  0  0  0  0  0  0
  141.0630   71.3520  227.2630 C   0  0  0  0  0  0  0  0  0  0  0  0
  140.9620   70.3150  228.2080 C   0  0  0  0  0  0  0  0  0  0  0  0
  140.4860   69.0400  227.8230 C   0  0  0  0  0  0  0  0  0  0  0  0
  140.3850   68.0520  228.7470 F   0  0  0  0  0  0  0  0  0  0  0  0
  140.1150   68.7930  226.4910 C   0  0  0  0  0  0  0  0  0  0  0  0
  140.2320   69.8370  225.5760 C   0  0  0  0  0  0  0  0  0  0  0  0
  139.9210   69.8180  224.2710 N   0  0  0  0  0  0  0  0  0  0  0  0
  141.8600   72.6760  221.2230 C   0  0  0  0  0  0  0  0  0  0  0  0
  142.7750   71.6230  221.1050 C   0  0  0  0  0  0  0  0  0  0  0  0
  143.9820   71.8570  220.4290 C   0  0  0  0  0  0  0  0  0  0  0  0
  144.2620   73.1290  219.9000 C   0  0  0  0  0  0  0  0  0  0  0  0
  143.3370   74.1750  220.0480 C   0  0  0  0  0  0  0  0  0  0  0  0
  142.1350   73.9210  220.7210 C   0  0  0  0  0  0  0  0  0  0  0  0
  141.4410   76.1840  221.6210 C   0  0  0  0  0  0  0  0  0  0  0  0
  141.5380   79.5740  219.8320 C   0  0  0  0  0  0  0  0  0  0  0  0
  140.8730   80.8850  219.9910 N   0  0  0  0  0  0  0  0  0  0  0  0
  140.4684   82.9377  222.6878 H   0  0  0  0  0  0  0  0  0  0  0  0
  141.3660   83.1695  221.1492 H   0  0  0  0  0  0  0  0  0  0  0  0
  139.5697   83.1647  221.1492 H   0  0  0  0  0  0  0  0  0  0  0  0
  139.4493   80.8335  221.5187 H   0  0  0  0  0  0  0  0  0  0  0  0
  142.4106   80.7968  222.2619 H   0  0  0  0  0  0  0  0  0  0  0  0
  141.0372   80.8120  223.4320 H   0  0  0  0  0  0  0  0  0  0  0  0
  142.1561   78.5165  222.6799 H   0  0  0  0  0  0  0  0  0  0  0  0
  140.3573   78.6687  222.8908 H   0  0  0  0  0  0  0  0  0  0  0  0
  139.9166   78.4417  220.7124 H   0  0  0  0  0  0  0  0  0  0  0  0
  140.2371   77.2627  218.8679 H   0  0  0  0  0  0  0  0  0  0  0  0
  141.7625   76.3859  218.5677 H   0  0  0  0  0  0  0  0  0  0  0  0
  139.2183   75.4347  219.8682 H   0  0  0  0  0  0  0  0  0  0  0  0
  140.3769   74.5084  218.9184 H   0  0  0  0  0  0  0  0  0  0  0  0
  140.0826   74.3939  222.9563 H   0  0  0  0  0  0  0  0  0  0  0  0
  139.0139   74.0244  221.5959 H   0  0  0  0  0  0  0  0  0  0  0  0
  140.9535   72.9417  224.7650 H   0  0  0  0  0  0  0  0  0  0  0  0
  141.4265   72.3494  227.5512 H   0  0  0  0  0  0  0  0  0  0  0  0
  141.2550   70.4967  229.2526 H   0  0  0  0  0  0  0  0  0  0  0  0
  139.7435   67.8055  226.1798 H   0  0  0  0  0  0  0  0  0  0  0  0
  139.5220   69.0120  223.7370 H   0  0  0  0  0  0  0  0  0  0  0  0
  142.5526   70.6343  221.5327 H   0  0  0  0  0  0  0  0  0  0  0  0
  144.7118   71.0422  220.3125 H   0  0  0  0  0  0  0  0  0  0  0  0
  145.2087   73.3054  219.3684 H   0  0  0  0  0  0  0  0  0  0  0  0
  143.5522   75.1749  219.6432 H   0  0  0  0  0  0  0  0  0  0  0  0
  140.7050   76.5233  222.3648 H   0  0  0  0  0  0  0  0  0  0  0  0
  142.4091   76.0611  222.1287 H   0  0  0  0  0  0  0  0  0  0  0  0
  142.6183   79.7030  219.9944 H   0  0  0  0  0  0  0  0  0  0  0  0
  141.3259   79.2094  218.8161 H   0  0  0  0  0  0  0  0  0  0  0  0
  141.5300   81.6140  219.6200 H   0  0  0  0  0  0  0  0  0  0  0  0
  1  2  1  0
  2  3  1  0
  3  4  1  0
  4  5  1  0
  5  6  1  0
  6  7  1  0
  7  8  1  0
  9  8  1  6
  9 10  1  0
 10 11  1  0
 11 12  1  0
 12 13  2  0
 12 14  1  0
 14 15  2  0
 15 16  1  0
 16 17  2  0
 17 18  1  0
 18 19  2  0
 19 20  1  0
 19 21  1  0
 21 22  2  0
 22 23  1  0
 11 24  1  0
 24 25  2  0
 25 26  1  0
 26 27  2  0
 27 28  1  0
 28 29  2  0
  9 30  1  0
  5 31  1  0
 31 32  1  0
 32  2  1  0
 30  6  1  0
 29  9  1  0
 23 14  1  0
 29 24  1  0
 22 16  1  0
  1 33  1  0
  1 34  1  0
  1 35  1  0
  2 36  1  1
  3 37  1  0
  3 38  1  0
  4 39  1  0
  4 40  1  0
  5 41  1  6
  7 42  1  0
  7 43  1  0
  8 44  1  0
  8 45  1  0
 10 46  1  0
 10 47  1  0
 15 48  1  0
 17 49  1  0
 18 50  1  0
 21 51  1  0
 23 52  1  0
 25 53  1  0
 26 54  1  0
 27 55  1  0
 28 56  1  0
 30 57  1  0
 30 58  1  0
 31 59  1  0
 31 60  1  0
 32 61  1  0
M  END
>  <UniqueID>  (50) 
94

>  <SMILES>  (50) 
C[C@@H]1CC[C@H](N2CC[C@]3(CN(C(=O)c4cc5ccc(F)cc5[nH]4)c4ccccc43)C2)CN1

>  <Energy>  (50) 
134.34806768659695

>  <Genealogy>  (50) 
C[C@@H]1CC[C@H](N2CC[C@]3(CN(C(=O)c4cc5ccc(F)cc5[nH]4)c4ccccc43)C2)CN1 (chirality)
C[C@@H]1CC[C@H](N2CC[C@]3(CN(C(=O)c4cc5ccc(F)cc5[nH]4)c4ccccc43)C2)CN1 (3D coordinates assigned)
C[C@@H]1CC[C@H](N2CC[C@]3(CN(C(=O)c4cc5ccc(F)cc5[nH]4)c4ccccc43)C2)CN1 (nonaromatic ring conformer: 134.34806768659695 kcal/mol)

>  <smiles>  (50) 
C[C@@H]1CCC(N2CC[C@]3(CN(C(=O)c4cc5ccc(F)cc5[nH]4)c4ccccc43)C2)CN1

>  <score_type>  (50) 
oracle

>  <origin>  (50) 
autodockgpu

>  <m_score__min__energy>  (50) 
-8.9199999999999999

>  <m_primary>  (50) 
energy

>  <meeko>  (50) 
{"free_energy": -8.45, "intermolecular_energy": -9.34, "internal_energy": -1.2, "cluster_size": 5, "cluster_id": 3, "rank_in_cluster": 1}

>  <energy>  (50) 
-8.83

>  <cluster_rmsd>  (50) 
1.11

>  <rmsd>  (50) 
270.77

>  <cluster>  (50) 
1

$$$$
MYPHZBOANNRFAS-OWWOZPERNA-N
     RDKit          3D

 61 66  0  0  0  0  0  0  0  0999 V2000
  145.9520   66.4430  218.4850 C   0  0  0  0  0  0  0  0  0  0  0  0
  145.8570   67.9410  218.8020 C   0  0  2  0  0  0  0  0  0  0  0  0
  144.4330   68.3100  219.2610 C   0  0  0  0  0  0  0  0  0  0  0  0
  144.3810   69.7710  219.7370 C   0  0  0  0  0  0  0  0  0  0  0  0
  145.3540   70.6870  218.9390 C   0  0  2  0  0  0  0  0  0  0  0  0
  144.9020   72.0980  218.8260 N   0  0  0  0  0  0  0  0  0  0  0  0
  145.6510   73.0230  219.6960 C   0  0  0  0  0  0  0  0  0  0  0  0
  144.6600   73.6810  220.6380 C   0  0  0  0  0  0  0  0  0  0  0  0
  143.3180   73.5780  219.9190 C   0  0  1  0  0  0  0  0  0  0  0  0
  142.1020   73.5350  220.9040 C   0  0  0  0  0  0  0  0  0  0  0  0
  141.4230   74.8180  220.7480 N   0  0  0  0  0  0  0  0  0  0  0  0
  140.3890   75.2950  221.6160 C   0  0  0  0  0  0  0  0  0  0  0  0
  139.4950   74.5000  222.0110 O   0  0  0  0  0  0  0  0  0  0  0  0
  140.3840   76.6930  222.0850 C   0  0  0  0  0  0  0  0  0  0  0  0
  139.3140   77.3210  222.7220 C   0  0  0  0  0  0  0  0  0  0  0  0
  139.7700   78.5890  223.0120 C   0  0  0  0  0  0  0  0  0  0  0  0
  139.1430   79.6550  223.6510 C   0  0  0  0  0  0  0  0  0  0  0  0
  139.8780   80.8420  223.8250 C   0  0  0  0  0  0  0  0  0  0  0  0
  141.2140   80.9300  223.3670 C   0  0  0  0  0  0  0  0  0  0  0  0
  141.9150   82.0770  223.5500 F   0  0  0  0  0  0  0  0  0  0  0  0
  141.8180   79.8350  222.7260 C   0  0  0  0  0  0  0  0  0  0  0  0
  141.0630   78.6760  222.5620 C   0  0  0  0  0  0  0  0  0  0  0  0
  141.4510   77.5230  221.9970 N   0  0  0  0  0  0  0  0  0  0  0  0
  141.9760   75.5020  219.6370 C   0  0  0  0  0  0  0  0  0  0  0  0
  141.5100   76.6890  219.0610 C   0  0  0  0  0  0  0  0  0  0  0  0
  142.1790   77.1960  217.9370 C   0  0  0  0  0  0  0  0  0  0  0  0
  143.2820   76.5090  217.4000 C   0  0  0  0  0  0  0  0  0  0  0  0
  143.7190   75.3100  217.9830 C   0  0  0  0  0  0  0  0  0  0  0  0
  143.0430   74.8220  219.1090 C   0  0  0  0  0  0  0  0  0  0  0  0
  143.4590   72.3250  219.0460 C   0  0  0  0  0  0  0  0  0  0  0  0
  145.6730   70.0900  217.5510 C   0  0  0  0  0  0  0  0  0  0  0  0
  146.3040   68.7560  217.6460 N   0  0  0  0  0  0  0  0  0  0  0  0
  145.9883   65.8711  219.4239 H   0  0  0  0  0  0  0  0  0  0  0  0
  145.0716   66.1351  217.9019 H   0  0  0  0  0  0  0  0  0  0  0  0
  146.8643   66.2487  217.9019 H   0  0  0  0  0  0  0  0  0  0  0  0
  146.5369   68.1684  219.6362 H   0  0  0  0  0  0  0  0  0  0  0  0
  143.7363   68.1785  218.4199 H   0  0  0  0  0  0  0  0  0  0  0  0
  144.1479   67.6538  220.0965 H   0  0  0  0  0  0  0  0  0  0  0  0
  143.3556   70.1483  219.6098 H   0  0  0  0  0  0  0  0  0  0  0  0
  144.6886   69.7922  220.7929 H   0  0  0  0  0  0  0  0  0  0  0  0
  146.2803   70.7197  219.5313 H   0  0  0  0  0  0  0  0  0  0  0  0
  146.4033   72.4662  220.2740 H   0  0  0  0  0  0  0  0  0  0  0  0
  146.1690   73.7828  219.0923 H   0  0  0  0  0  0  0  0  0  0  0  0
  144.6268   73.1489  221.6002 H   0  0  0  0  0  0  0  0  0  0  0  0
  144.9311   74.7220  220.8677 H   0  0  0  0  0  0  0  0  0  0  0  0
  141.4252   72.7083  220.6422 H   0  0  0  0  0  0  0  0  0  0  0  0
  142.4257   73.3701  221.9423 H   0  0  0  0  0  0  0  0  0  0  0  0
  138.3235   76.8973  222.9442 H   0  0  0  0  0  0  0  0  0  0  0  0
  138.1060   79.5720  224.0085 H   0  0  0  0  0  0  0  0  0  0  0  0
  139.4115   81.7066  224.3199 H   0  0  0  0  0  0  0  0  0  0  0  0
  142.8554   79.8914  222.3647 H   0  0  0  0  0  0  0  0  0  0  0  0
  142.3950   77.3080  221.6020 H   0  0  0  0  0  0  0  0  0  0  0  0
  140.6384   77.2130  219.4803 H   0  0  0  0  0  0  0  0  0  0  0  0
  141.8395   78.1343  217.4741 H   0  0  0  0  0  0  0  0  0  0  0  0
  143.8040   76.9129  216.5200 H   0  0  0  0  0  0  0  0  0  0  0  0
  144.5765   74.7632  217.5638 H   0  0  0  0  0  0  0  0  0  0  0  0
  143.0162   71.4583  219.5585 H   0  0  0  0  0  0  0  0  0  0  0  0
  142.9371   72.4598  218.0871 H   0  0  0  0  0  0  0  0  0  0  0  0
  144.7364   69.9987  216.9814 H   0  0  0  0  0  0  0  0  0  0  0  0
  146.3836   70.7637  217.0499 H   0  0  0  0  0  0  0  0  0  0  0  0
  146.1060   68.2530  216.7470 H   0  0  0  0  0  0  0  0  0  0  0  0
  1  2  1  0
  2  3  1  0
  3  4  1  0
  4  5  1  0
  5  6  1  0
  6  7  1  0
  7  8  1  0
  9  8  1  1
  9 10  1  0
 10 11  1  0
 11 12  1  0
 12 13  2  0
 12 14  1  0
 14 15  2  0
 15 16  1  0
 16 17  2  0
 17 18  1  0
 18 19  2  0
 19 20  1  0
 19 21  1  0
 21 22  2  0
 22 23  1  0
 11 24  1  0
 24 25  2  0
 25 26  1  0
 26 27  2  0
 27 28  1  0
 28 29  2  0
  9 30  1  0
  5 31  1  0
 31 32  1  0
 32  2  1  0
 30  6  1  0
 29  9  1  0
 23 14  1  0
 29 24  1  0
 22 16  1  0
  1 33  1  0
  1 34  1  0
  1 35  1  0
  2 36  1  1
  3 37  1  0
  3 38  1  0
  4 39  1  0
  4 40  1  0
  5 41  1  1
  7 42  1  0
  7 43  1  0
  8 44  1  0
  8 45  1  0
 10 46  1  0
 10 47  1  0
 15 48  1  0
 17 49  1  0
 18 50  1  0
 21 51  1  0
 23 52  1  0
 25 53  1  0
 26 54  1  0
 27 55  1  0
 28 56  1  0
 30 57  1  0
 30 58  1  0
 31 59  1  0
 31 60  1  0
 32 61  1  0
M  END
>  <UniqueID>  (51) 
94

>  <SMILES>  (51) 
C[C@@H]1CC[C@H](N2CC[C@]3(CN(C(=O)c4cc5ccc(F)cc5[nH]4)c4ccccc43)C2)CN1

>  <Energy>  (51) 
134.34806768659695

>  <Genealogy>  (51) 
C[C@@H]1CC[C@H](N2CC[C@]3(CN(C(=O)c4cc5ccc(F)cc5[nH]4)c4ccccc43)C2)CN1 (chirality)
C[C@@H]1CC[C@H](N2CC[C@]3(CN(C(=O)c4cc5ccc(F)cc5[nH]4)c4ccccc43)C2)CN1 (3D coordinates assigned)
C[C@@H]1CC[C@H](N2CC[C@]3(CN(C(=O)c4cc5ccc(F)cc5[nH]4)c4ccccc43)C2)CN1 (nonaromatic ring conformer: 134.34806768659695 kcal/mol)

>  <smiles>  (51) 
C[C@@H]1CCC(N2CC[C@]3(CN(C(=O)c4cc5ccc(F)cc5[nH]4)c4ccccc43)C2)CN1

>  <score_type>  (51) 
oracle

>  <origin>  (51) 
autodockgpu

>  <m_score__min__energy>  (51) 
-8.9199999999999999

>  <m_primary>  (51) 
energy

>  <meeko>  (51) 
{"free_energy": -8.86, "intermolecular_energy": -9.75, "internal_energy": -1.19, "cluster_size": 11, "cluster_id": 1, "rank_in_cluster": 6}

>  <energy>  (51) 
-8.83

>  <cluster_rmsd>  (51) 
1.04

>  <rmsd>  (51) 
270.84

>  <cluster>  (51) 
1

$$$$
MYPHZBOANNRFAS-OWWOZPERNA-N
     RDKit          3D

 61 66  0  0  0  0  0  0  0  0999 V2000
  145.7690   66.2420  218.8420 C   0  0  0  0  0  0  0  0  0  0  0  0
  145.6530   67.7400  219.1510 C   0  0  2  0  0  0  0  0  0  0  0  0
  144.1830   68.1340  219.3920 C   0  0  0  0  0  0  0  0  0  0  0  0
  144.0860   69.5930  219.8630 C   0  0  0  0  0  0  0  0  0  0  0  0
  145.1840   70.4940  219.2260 C   0  0  2  0  0  0  0  0  0  0  0  0
  144.7780   71.9140  219.0550 N   0  0  0  0  0  0  0  0  0  0  0  0
  145.5320   72.8440  219.9140 C   0  0  0  0  0  0  0  0  0  0  0  0
  144.5380   73.5630  220.8070 C   0  0  0  0  0  0  0  0  0  0  0  0
  143.2130   73.4760  220.0550 C   0  0  1  0  0  0  0  0  0  0  0  0
  141.9700   73.5020  221.0070 C   0  0  0  0  0  0  0  0  0  0  0  0
  141.3350   74.7990  220.7900 N   0  0  0  0  0  0  0  0  0  0  0  0
  140.2930   75.3360  221.6140 C   0  0  0  0  0  0  0  0  0  0  0  0
  139.3400   74.5940  221.9690 O   0  0  0  0  0  0  0  0  0  0  0  0
  140.3490   76.7320  222.0830 C   0  0  0  0  0  0  0  0  0  0  0  0
  139.3070   77.4040  222.7240 C   0  0  0  0  0  0  0  0  0  0  0  0
  139.8170   78.6520  223.0130 C   0  0  0  0  0  0  0  0  0  0  0  0
  139.2360   79.7430  223.6540 C   0  0  0  0  0  0  0  0  0  0  0  0
  140.0210   80.8970  223.8270 C   0  0  0  0  0  0  0  0  0  0  0  0
  141.3570   80.9300  223.3650 C   0  0  0  0  0  0  0  0  0  0  0  0
  142.1060   82.0470  223.5460 F   0  0  0  0  0  0  0  0  0  0  0  0
  141.9140   79.8120  222.7210 C   0  0  0  0  0  0  0  0  0  0  0  0
  141.1110   78.6850  222.5590 C   0  0  0  0  0  0  0  0  0  0  0  0
  141.4480   77.5170  221.9920 N   0  0  0  0  0  0  0  0  0  0  0  0
  141.9390   75.4280  219.6730 C   0  0  0  0  0  0  0  0  0  0  0  0
  141.5240   76.6090  219.0460 C   0  0  0  0  0  0  0  0  0  0  0  0
  142.2390   77.0580  217.9250 C   0  0  0  0  0  0  0  0  0  0  0  0
  143.3340   76.3210  217.4420 C   0  0  0  0  0  0  0  0  0  0  0  0
  143.7180   75.1290  218.0750 C   0  0  0  0  0  0  0  0  0  0  0  0
  142.9970   74.6990  219.1970 C   0  0  0  0  0  0  0  0  0  0  0  0
  143.3380   72.1910  219.2270 C   0  0  0  0  0  0  0  0  0  0  0  0
  145.6970   69.8960  217.8980 C   0  0  0  0  0  0  0  0  0  0  0  0
  146.2830   68.5510  218.0790 N   0  0  0  0  0  0  0  0  0  0  0  0
  145.8129   65.6756  219.7840 H   0  0  0  0  0  0  0  0  0  0  0  0
  144.8932   65.9187  218.2602 H   0  0  0  0  0  0  0  0  0  0  0  0
  146.6841   66.0574  218.2602 H   0  0  0  0  0  0  0  0  0  0  0  0
  146.2028   67.9514  220.0800 H   0  0  0  0  0  0  0  0  0  0  0  0
  143.6191   68.0182  218.4547 H   0  0  0  0  0  0  0  0  0  0  0  0
  143.7632   67.4806  220.1710 H   0  0  0  0  0  0  0  0  0  0  0  0
  143.0982   69.9894  219.5853 H   0  0  0  0  0  0  0  0  0  0  0  0
  144.2318   69.6049  220.9532 H   0  0  0  0  0  0  0  0  0  0  0  0
  146.0115   70.5081  219.9506 H   0  0  0  0  0  0  0  0  0  0  0  0
  146.2512   72.2843  220.5300 H   0  0  0  0  0  0  0  0  0  0  0  0
  146.0888   73.5672  219.3000 H   0  0  0  0  0  0  0  0  0  0  0  0
  144.4631   73.0648  221.7849 H   0  0  0  0  0  0  0  0  0  0  0  0
  144.8352   74.6024  221.0102 H   0  0  0  0  0  0  0  0  0  0  0  0
  141.2755   72.6875  220.7537 H   0  0  0  0  0  0  0  0  0  0  0  0
  142.2604   73.3623  222.0588 H   0  0  0  0  0  0  0  0  0  0  0  0
  138.3003   77.0220  222.9491 H   0  0  0  0  0  0  0  0  0  0  0  0
  138.1971   79.7036  224.0133 H   0  0  0  0  0  0  0  0  0  0  0  0
  139.5930   81.7796  224.3249 H   0  0  0  0  0  0  0  0  0  0  0  0
  142.9516   79.8262  222.3562 H   0  0  0  0  0  0  0  0  0  0  0  0
  142.3820   77.2630  221.5940 H   0  0  0  0  0  0  0  0  0  0  0  0
  140.6576   77.1719  219.4233 H   0  0  0  0  0  0  0  0  0  0  0  0
  141.9414   77.9901  217.4225 H   0  0  0  0  0  0  0  0  0  0  0  0
  143.8920   76.6799  216.5646 H   0  0  0  0  0  0  0  0  0  0  0  0
  144.5690   74.5431  217.6975 H   0  0  0  0  0  0  0  0  0  0  0  0
  142.8549   71.3554  219.7547 H   0  0  0  0  0  0  0  0  0  0  0  0
  142.8462   72.3094  218.2502 H   0  0  0  0  0  0  0  0  0  0  0  0
  144.8550   69.8234  217.1939 H   0  0  0  0  0  0  0  0  0  0  0  0
  146.4862   70.5584  217.5127 H   0  0  0  0  0  0  0  0  0  0  0  0
  146.2140   68.0540  217.1580 H   0  0  0  0  0  0  0  0  0  0  0  0
  1  2  1  0
  2  3  1  0
  3  4  1  0
  4  5  1  0
  5  6  1  0
  6  7  1  0
  7  8  1  0
  9  8  1  1
  9 10  1  0
 10 11  1  0
 11 12  1  0
 12 13  2  0
 12 14  1  0
 14 15  2  0
 15 16  1  0
 16 17  2  0
 17 18  1  0
 18 19  2  0
 19 20  1  0
 19 21  1  0
 21 22  2  0
 22 23  1  0
 11 24  1  0
 24 25  2  0
 25 26  1  0
 26 27  2  0
 27 28  1  0
 28 29  2  0
  9 30  1  0
  5 31  1  0
 31 32  1  0
 32  2  1  0
 30  6  1  0
 29  9  1  0
 23 14  1  0
 29 24  1  0
 22 16  1  0
  1 33  1  0
  1 34  1  0
  1 35  1  0
  2 36  1  1
  3 37  1  0
  3 38  1  0
  4 39  1  0
  4 40  1  0
  5 41  1  1
  7 42  1  0
  7 43  1  0
  8 44  1  0
  8 45  1  0
 10 46  1  0
 10 47  1  0
 15 48  1  0
 17 49  1  0
 18 50  1  0
 21 51  1  0
 23 52  1  0
 25 53  1  0
 26 54  1  0
 27 55  1  0
 28 56  1  0
 30 57  1  0
 30 58  1  0
 31 59  1  0
 31 60  1  0
 32 61  1  0
M  END
>  <UniqueID>  (52) 
94

>  <SMILES>  (52) 
C[C@@H]1CC[C@H](N2CC[C@]3(CN(C(=O)c4cc5ccc(F)cc5[nH]4)c4ccccc43)C2)CN1

>  <Energy>  (52) 
134.34806768659695

>  <Genealogy>  (52) 
C[C@@H]1CC[C@H](N2CC[C@]3(CN(C(=O)c4cc5ccc(F)cc5[nH]4)c4ccccc43)C2)CN1 (chirality)
C[C@@H]1CC[C@H](N2CC[C@]3(CN(C(=O)c4cc5ccc(F)cc5[nH]4)c4ccccc43)C2)CN1 (3D coordinates assigned)
C[C@@H]1CC[C@H](N2CC[C@]3(CN(C(=O)c4cc5ccc(F)cc5[nH]4)c4ccccc43)C2)CN1 (nonaromatic ring conformer: 134.34806768659695 kcal/mol)

>  <smiles>  (52) 
C[C@@H]1CCC(N2CC[C@]3(CN(C(=O)c4cc5ccc(F)cc5[nH]4)c4ccccc43)C2)CN1

>  <score_type>  (52) 
oracle

>  <origin>  (52) 
autodockgpu

>  <m_score__min__energy>  (52) 
-8.9199999999999999

>  <m_primary>  (52) 
energy

>  <meeko>  (52) 
{"free_energy": -8.84, "intermolecular_energy": -9.74, "internal_energy": -1.19, "cluster_size": 11, "cluster_id": 1, "rank_in_cluster": 9}

>  <energy>  (52) 
-8.65

>  <cluster_rmsd>  (52) 
0.0

>  <rmsd>  (52) 
271.19

>  <cluster>  (52) 
2

$$$$
MYPHZBOANNRFAS-OWWOZPERNA-N
     RDKit          3D

 61 66  0  0  0  0  0  0  0  0999 V2000
  145.9420   66.4190  218.4870 C   0  0  0  0  0  0  0  0  0  0  0  0
  145.8390   67.9130  218.8170 C   0  0  2  0  0  0  0  0  0  0  0  0
  144.4010   68.2810  219.2320 C   0  0  0  0  0  0  0  0  0  0  0  0
  144.3370   69.7370  219.7210 C   0  0  0  0  0  0  0  0  0  0  0  0
  145.3380   70.6580  218.9650 C   0  0  2  0  0  0  0  0  0  0  0  0
  144.8920   72.0720  218.8520 N   0  0  0  0  0  0  0  0  0  0  0  0
  145.6500   72.9940  219.7180 C   0  0  0  0  0  0  0  0  0  0  0  0
  144.6660   73.6590  220.6630 C   0  0  0  0  0  0  0  0  0  0  0  0
  143.3210   73.5620  219.9490 C   0  0  1  0  0  0  0  0  0  0  0  0
  142.1070   73.5260  220.9380 C   0  0  0  0  0  0  0  0  0  0  0  0
  141.4340   74.8120  220.7830 N   0  0  0  0  0  0  0  0  0  0  0  0
  140.4060   75.2960  221.6540 C   0  0  0  0  0  0  0  0  0  0  0  0
  139.5320   74.4980  222.0850 O   0  0  0  0  0  0  0  0  0  0  0  0
  140.3850   76.7050  222.0850 C   0  0  0  0  0  0  0  0  0  0  0  0
  139.3070   77.3390  222.7030 C   0  0  0  0  0  0  0  0  0  0  0  0
  139.7480   78.6190  222.9590 C   0  0  0  0  0  0  0  0  0  0  0  0
  139.1080   79.6950  223.5680 C   0  0  0  0  0  0  0  0  0  0  0  0
  139.8300   80.8940  223.7120 C   0  0  0  0  0  0  0  0  0  0  0  0
  141.1650   80.9850  223.2540 C   0  0  0  0  0  0  0  0  0  0  0  0
  141.8530   82.1440  223.4070 F   0  0  0  0  0  0  0  0  0  0  0  0
  141.7830   79.8800  222.6440 C   0  0  0  0  0  0  0  0  0  0  0  0
  141.0410   78.7080  222.5100 C   0  0  0  0  0  0  0  0  0  0  0  0
  141.4430   77.5450  221.9770 N   0  0  0  0  0  0  0  0  0  0  0  0
  141.9880   75.4920  219.6690 C   0  0  0  0  0  0  0  0  0  0  0  0
  141.5250   76.6810  219.0930 C   0  0  0  0  0  0  0  0  0  0  0  0
  142.1930   77.1830  217.9660 C   0  0  0  0  0  0  0  0  0  0  0  0
  143.2910   76.4900  217.4260 C   0  0  0  0  0  0  0  0  0  0  0  0
  143.7230   75.2890  218.0090 C   0  0  0  0  0  0  0  0  0  0  0  0
  143.0490   74.8060  219.1380 C   0  0  0  0  0  0  0  0  0  0  0  0
  143.4520   72.3070  219.0770 C   0  0  0  0  0  0  0  0  0  0  0  0
  145.7010   70.0760  217.5820 C   0  0  0  0  0  0  0  0  0  0  0  0
  146.3250   68.7390  217.6840 N   0  0  0  0  0  0  0  0  0  0  0  0
  145.9820   65.8391  219.4209 H   0  0  0  0  0  0  0  0  0  0  0  0
  145.0629   66.1113  217.9017 H   0  0  0  0  0  0  0  0  0  0  0  0
  146.8550   66.2349  217.9017 H   0  0  0  0  0  0  0  0  0  0  0  0
  146.4909   68.1296  219.6761 H   0  0  0  0  0  0  0  0  0  0  0  0
  143.7325   68.1601  218.3668 H   0  0  0  0  0  0  0  0  0  0  0  0
  144.0863   67.6169  220.0505 H   0  0  0  0  0  0  0  0  0  0  0  0
  143.3173   70.1185  219.5639 H   0  0  0  0  0  0  0  0  0  0  0  0
  144.6096   69.7466  220.7866 H   0  0  0  0  0  0  0  0  0  0  0  0
  146.2447   70.6809  219.5874 H   0  0  0  0  0  0  0  0  0  0  0  0
  146.4013   72.4337  220.2939 H   0  0  0  0  0  0  0  0  0  0  0  0
  146.1703   73.7499  219.1114 H   0  0  0  0  0  0  0  0  0  0  0  0
  144.6335   73.1286  221.6261 H   0  0  0  0  0  0  0  0  0  0  0  0
  144.9436   74.6989  220.8902 H   0  0  0  0  0  0  0  0  0  0  0  0
  141.4253   72.7025  220.6789 H   0  0  0  0  0  0  0  0  0  0  0  0
  142.4329   73.3604  221.9755 H   0  0  0  0  0  0  0  0  0  0  0  0
  138.3207   76.9108  222.9351 H   0  0  0  0  0  0  0  0  0  0  0  0
  138.0710   79.6105  223.9251 H   0  0  0  0  0  0  0  0  0  0  0  0
  139.3533   81.7659  224.1837 H   0  0  0  0  0  0  0  0  0  0  0  0
  142.8206   79.9384  222.2834 H   0  0  0  0  0  0  0  0  0  0  0  0
  142.3910   77.3300  221.5900 H   0  0  0  0  0  0  0  0  0  0  0  0
  140.6572   77.2096  219.5144 H   0  0  0  0  0  0  0  0  0  0  0  0
  141.8565   78.1224  217.5030 H   0  0  0  0  0  0  0  0  0  0  0  0
  143.8126   76.8905  216.5442 H   0  0  0  0  0  0  0  0  0  0  0  0
  144.5756   74.7367  217.5871 H   0  0  0  0  0  0  0  0  0  0  0  0
  143.0064   71.4433  219.5923 H   0  0  0  0  0  0  0  0  0  0  0  0
  142.9273   72.4435  218.1199 H   0  0  0  0  0  0  0  0  0  0  0  0
  144.7837   69.9937  216.9806 H   0  0  0  0  0  0  0  0  0  0  0  0
  146.4292   70.7531  217.1116 H   0  0  0  0  0  0  0  0  0  0  0  0
  146.1550   68.2460  216.7740 H   0  0  0  0  0  0  0  0  0  0  0  0
  1  2  1  0
  2  3  1  0
  3  4  1  0
  4  5  1  0
  5  6  1  0
  6  7  1  0
  7  8  1  0
  9  8  1  1
  9 10  1  0
 10 11  1  0
 11 12  1  0
 12 13  2  0
 12 14  1  0
 14 15  2  0
 15 16  1  0
 16 17  2  0
 17 18  1  0
 18 19  2  0
 19 20  1  0
 19 21  1  0
 21 22  2  0
 22 23  1  0
 11 24  1  0
 24 25  2  0
 25 26  1  0
 26 27  2  0
 27 28  1  0
 28 29  2  0
  9 30  1  0
  5 31  1  0
 31 32  1  0
 32  2  1  0
 30  6  1  0
 29  9  1  0
 23 14  1  0
 29 24  1  0
 22 16  1  0
  1 33  1  0
  1 34  1  0
  1 35  1  0
  2 36  1  1
  3 37  1  0
  3 38  1  0
  4 39  1  0
  4 40  1  0
  5 41  1  1
  7 42  1  0
  7 43  1  0
  8 44  1  0
  8 45  1  0
 10 46  1  0
 10 47  1  0
 15 48  1  0
 17 49  1  0
 18 50  1  0
 21 51  1  0
 23 52  1  0
 25 53  1  0
 26 54  1  0
 27 55  1  0
 28 56  1  0
 30 57  1  0
 30 58  1  0
 31 59  1  0
 31 60  1  0
 32 61  1  0
M  END
>  <UniqueID>  (53) 
94

>  <SMILES>  (53) 
C[C@@H]1CC[C@H](N2CC[C@]3(CN(C(=O)c4cc5ccc(F)cc5[nH]4)c4ccccc43)C2)CN1

>  <Energy>  (53) 
134.34806768659695

>  <Genealogy>  (53) 
C[C@@H]1CC[C@H](N2CC[C@]3(CN(C(=O)c4cc5ccc(F)cc5[nH]4)c4ccccc43)C2)CN1 (chirality)
C[C@@H]1CC[C@H](N2CC[C@]3(CN(C(=O)c4cc5ccc(F)cc5[nH]4)c4ccccc43)C2)CN1 (3D coordinates assigned)
C[C@@H]1CC[C@H](N2CC[C@]3(CN(C(=O)c4cc5ccc(F)cc5[nH]4)c4ccccc43)C2)CN1 (nonaromatic ring conformer: 134.34806768659695 kcal/mol)

>  <smiles>  (53) 
C[C@@H]1CCC(N2CC[C@]3(CN(C(=O)c4cc5ccc(F)cc5[nH]4)c4ccccc43)C2)CN1

>  <score_type>  (53) 
oracle

>  <origin>  (53) 
autodockgpu

>  <m_score__min__energy>  (53) 
-8.9199999999999999

>  <m_primary>  (53) 
energy

>  <meeko>  (53) 
{"free_energy": -8.87, "intermolecular_energy": -9.77, "internal_energy": -1.17, "cluster_size": 11, "cluster_id": 1, "rank_in_cluster": 3}

>  <energy>  (53) 
-8.64

>  <cluster_rmsd>  (53) 
0.1

>  <rmsd>  (53) 
271.23

>  <cluster>  (53) 
2

$$$$
MYPHZBOANNRFAS-OWWOZPERNA-N
     RDKit          3D

 61 66  0  0  0  0  0  0  0  0999 V2000
  145.9530   66.4510  218.4770 C   0  0  0  0  0  0  0  0  0  0  0  0
  145.8540   67.9450  218.8060 C   0  0  2  0  0  0  0  0  0  0  0  0
  144.4200   68.3140  219.2360 C   0  0  0  0  0  0  0  0  0  0  0  0
  144.3610   69.7700  219.7240 C   0  0  0  0  0  0  0  0  0  0  0  0
  145.3550   70.6910  218.9570 C   0  0  2  0  0  0  0  0  0  0  0  0
  144.9080   72.1050  218.8470 N   0  0  0  0  0  0  0  0  0  0  0  0
  145.6580   73.0240  219.7220 C   0  0  0  0  0  0  0  0  0  0  0  0
  144.6670   73.6830  220.6640 C   0  0  0  0  0  0  0  0  0  0  0  0
  143.3270   73.5880  219.9400 C   0  0  1  0  0  0  0  0  0  0  0  0
  142.1070   73.5460  220.9210 C   0  0  0  0  0  0  0  0  0  0  0  0
  141.4330   74.8320  220.7670 N   0  0  0  0  0  0  0  0  0  0  0  0
  140.3990   75.3100  221.6340 C   0  0  0  0  0  0  0  0  0  0  0  0
  139.5130   74.5130  222.0400 O   0  0  0  0  0  0  0  0  0  0  0  0
  140.3850   76.7130  222.0860 C   0  0  0  0  0  0  0  0  0  0  0  0
  139.3060   77.3450  222.7070 C   0  0  0  0  0  0  0  0  0  0  0  0
  139.7540   78.6170  222.9860 C   0  0  0  0  0  0  0  0  0  0  0  0
  139.1170   79.6880  223.6070 C   0  0  0  0  0  0  0  0  0  0  0  0
  139.8460   80.8790  223.7760 C   0  0  0  0  0  0  0  0  0  0  0  0
  141.1850   80.9680  223.3300 C   0  0  0  0  0  0  0  0  0  0  0  0
  141.8800   82.1190  223.5060 F   0  0  0  0  0  0  0  0  0  0  0  0
  141.8000   79.8680  222.7060 C   0  0  0  0  0  0  0  0  0  0  0  0
  141.0510   78.7040  222.5480 C   0  0  0  0  0  0  0  0  0  0  0  0
  141.4480   77.5470  222.0000 N   0  0  0  0  0  0  0  0  0  0  0  0
  141.9930   75.5170  219.6600 C   0  0  0  0  0  0  0  0  0  0  0  0
  141.5330   76.7080  219.0860 C   0  0  0  0  0  0  0  0  0  0  0  0
  142.2080   77.2160  217.9660 C   0  0  0  0  0  0  0  0  0  0  0  0
  143.3100   76.5270  217.4300 C   0  0  0  0  0  0  0  0  0  0  0  0
  143.7410   75.3240  218.0110 C   0  0  0  0  0  0  0  0  0  0  0  0
  143.0590   74.8350  219.1330 C   0  0  0  0  0  0  0  0  0  0  0  0
  143.4660   72.3370  219.0630 C   0  0  0  0  0  0  0  0  0  0  0  0
  145.7040   70.1070  217.5710 C   0  0  0  0  0  0  0  0  0  0  0  0
  146.3290   68.7710  217.6680 N   0  0  0  0  0  0  0  0  0  0  0  0
  145.9914   65.8716  219.4112 H   0  0  0  0  0  0  0  0  0  0  0  0
  145.0731   66.1453  217.8919 H   0  0  0  0  0  0  0  0  0  0  0  0
  146.8655   66.2641  217.8919 H   0  0  0  0  0  0  0  0  0  0  0  0
  146.5154   68.1617  219.6578 H   0  0  0  0  0  0  0  0  0  0  0  0
  143.7424   68.1923  218.3780 H   0  0  0  0  0  0  0  0  0  0  0  0
  144.1141   67.6509  220.0586 H   0  0  0  0  0  0  0  0  0  0  0  0
  143.3398   70.1514  219.5767 H   0  0  0  0  0  0  0  0  0  0  0  0
  144.6442   69.7804  220.7869 H   0  0  0  0  0  0  0  0  0  0  0  0
  146.2678   70.7151  219.5704 H   0  0  0  0  0  0  0  0  0  0  0  0
  146.4066   72.4623  220.3001 H   0  0  0  0  0  0  0  0  0  0  0  0
  146.1804   73.7838  219.1222 H   0  0  0  0  0  0  0  0  0  0  0  0
  144.6286   73.1475  221.6241 H   0  0  0  0  0  0  0  0  0  0  0  0
  144.9418   74.7219  220.8988 H   0  0  0  0  0  0  0  0  0  0  0  0
  141.4282   72.7226  220.6541 H   0  0  0  0  0  0  0  0  0  0  0  0
  142.4265   73.3764  221.9598 H   0  0  0  0  0  0  0  0  0  0  0  0
  138.3152   76.9201  222.9255 H   0  0  0  0  0  0  0  0  0  0  0  0
  138.0766   79.6054  223.9545 H   0  0  0  0  0  0  0  0  0  0  0  0
  139.3716   81.7465  224.2581 H   0  0  0  0  0  0  0  0  0  0  0  0
  142.8404   79.9249  222.3535 H   0  0  0  0  0  0  0  0  0  0  0  0
  142.3980   77.3310  221.6160 H   0  0  0  0  0  0  0  0  0  0  0  0
  140.6618   77.2338  219.5038 H   0  0  0  0  0  0  0  0  0  0  0  0
  141.8736   78.1573  217.5053 H   0  0  0  0  0  0  0  0  0  0  0  0
  143.8360   76.9317  216.5528 H   0  0  0  0  0  0  0  0  0  0  0  0
  144.5981   74.7755  217.5932 H   0  0  0  0  0  0  0  0  0  0  0  0
  143.0181   71.4703  219.5712 H   0  0  0  0  0  0  0  0  0  0  0  0
  142.9479   72.4772  218.1029 H   0  0  0  0  0  0  0  0  0  0  0  0
  144.7805   70.0237  216.9792 H   0  0  0  0  0  0  0  0  0  0  0  0
  146.4273   70.7836  217.0924 H   0  0  0  0  0  0  0  0  0  0  0  0
  146.1500   68.2770  216.7600 H   0  0  0  0  0  0  0  0  0  0  0  0
  1  2  1  0
  2  3  1  0
  3  4  1  0
  4  5  1  0
  5  6  1  0
  6  7  1  0
  7  8  1  0
  9  8  1  1
  9 10  1  0
 10 11  1  0
 11 12  1  0
 12 13  2  0
 12 14  1  0
 14 15  2  0
 15 16  1  0
 16 17  2  0
 17 18  1  0
 18 19  2  0
 19 20  1  0
 19 21  1  0
 21 22  2  0
 22 23  1  0
 11 24  1  0
 24 25  2  0
 25 26  1  0
 26 27  2  0
 27 28  1  0
 28 29  2  0
  9 30  1  0
  5 31  1  0
 31 32  1  0
 32  2  1  0
 30  6  1  0
 29  9  1  0
 23 14  1  0
 29 24  1  0
 22 16  1  0
  1 33  1  0
  1 34  1  0
  1 35  1  0
  2 36  1  1
  3 37  1  0
  3 38  1  0
  4 39  1  0
  4 40  1  0
  5 41  1  1
  7 42  1  0
  7 43  1  0
  8 44  1  0
  8 45  1  0
 10 46  1  0
 10 47  1  0
 15 48  1  0
 17 49  1  0
 18 50  1  0
 21 51  1  0
 23 52  1  0
 25 53  1  0
 26 54  1  0
 27 55  1  0
 28 56  1  0
 30 57  1  0
 30 58  1  0
 31 59  1  0
 31 60  1  0
 32 61  1  0
M  END
>  <UniqueID>  (54) 
94

>  <SMILES>  (54) 
C[C@@H]1CC[C@H](N2CC[C@]3(CN(C(=O)c4cc5ccc(F)cc5[nH]4)c4ccccc43)C2)CN1

>  <Energy>  (54) 
134.34806768659695

>  <Genealogy>  (54) 
C[C@@H]1CC[C@H](N2CC[C@]3(CN(C(=O)c4cc5ccc(F)cc5[nH]4)c4ccccc43)C2)CN1 (chirality)
C[C@@H]1CC[C@H](N2CC[C@]3(CN(C(=O)c4cc5ccc(F)cc5[nH]4)c4ccccc43)C2)CN1 (3D coordinates assigned)
C[C@@H]1CC[C@H](N2CC[C@]3(CN(C(=O)c4cc5ccc(F)cc5[nH]4)c4ccccc43)C2)CN1 (nonaromatic ring conformer: 134.34806768659695 kcal/mol)

>  <smiles>  (54) 
C[C@@H]1CCC(N2CC[C@]3(CN(C(=O)c4cc5ccc(F)cc5[nH]4)c4ccccc43)C2)CN1

>  <score_type>  (54) 
oracle

>  <origin>  (54) 
autodockgpu

>  <m_score__min__energy>  (54) 
-8.9199999999999999

>  <m_primary>  (54) 
energy

>  <meeko>  (54) 
{"free_energy": -8.88, "intermolecular_energy": -9.77, "internal_energy": -1.18, "cluster_size": 11, "cluster_id": 1, "rank_in_cluster": 2}

>  <energy>  (54) 
-8.64

>  <cluster_rmsd>  (54) 
0.1

>  <rmsd>  (54) 
271.21

>  <cluster>  (54) 
2

$$$$
MYPHZBOANNRFAS-OWWOZPERNA-N
     RDKit          3D

 61 66  0  0  0  0  0  0  0  0999 V2000
  145.9320   66.4510  218.4380 C   0  0  0  0  0  0  0  0  0  0  0  0
  145.8440   67.9460  218.7670 C   0  0  2  0  0  0  0  0  0  0  0  0
  144.4190   68.3210  219.2180 C   0  0  0  0  0  0  0  0  0  0  0  0
  144.3730   69.7780  219.7050 C   0  0  0  0  0  0  0  0  0  0  0  0
  145.3580   70.6940  218.9220 C   0  0  2  0  0  0  0  0  0  0  0  0
  144.9150   72.1090  218.8170 N   0  0  0  0  0  0  0  0  0  0  0  0
  145.6710   73.0240  219.6920 C   0  0  0  0  0  0  0  0  0  0  0  0
  144.6860   73.6840  220.6390 C   0  0  0  0  0  0  0  0  0  0  0  0
  143.3430   73.5940  219.9190 C   0  0  1  0  0  0  0  0  0  0  0  0
  142.1260   73.5540  220.9040 C   0  0  0  0  0  0  0  0  0  0  0  0
  141.4560   74.8420  220.7560 N   0  0  0  0  0  0  0  0  0  0  0  0
  140.4260   75.3220  221.6270 C   0  0  0  0  0  0  0  0  0  0  0  0
  139.5490   74.5220  222.0490 O   0  0  0  0  0  0  0  0  0  0  0  0
  140.4070   76.7280  222.0680 C   0  0  0  0  0  0  0  0  0  0  0  0
  139.3260   77.3610  222.6850 C   0  0  0  0  0  0  0  0  0  0  0  0
  139.7700   78.6380  222.9530 C   0  0  0  0  0  0  0  0  0  0  0  0
  139.1290   79.7110  223.5660 C   0  0  0  0  0  0  0  0  0  0  0  0
  139.8540   80.9070  223.7230 C   0  0  0  0  0  0  0  0  0  0  0  0
  141.1920   80.9970  223.2730 C   0  0  0  0  0  0  0  0  0  0  0  0
  141.8820   82.1530  223.4380 F   0  0  0  0  0  0  0  0  0  0  0  0
  141.8100   79.8950  222.6580 C   0  0  0  0  0  0  0  0  0  0  0  0
  141.0660   78.7260  222.5110 C   0  0  0  0  0  0  0  0  0  0  0  0
  141.4670   77.5660  221.9720 N   0  0  0  0  0  0  0  0  0  0  0  0
  142.0140   75.5290  219.6490 C   0  0  0  0  0  0  0  0  0  0  0  0
  141.5560   76.7230  219.0790 C   0  0  0  0  0  0  0  0  0  0  0  0
  142.2280   77.2320  217.9580 C   0  0  0  0  0  0  0  0  0  0  0  0
  143.3270   76.5400  217.4170 C   0  0  0  0  0  0  0  0  0  0  0  0
  143.7550   75.3340  217.9930 C   0  0  0  0  0  0  0  0  0  0  0  0
  143.0760   74.8440  219.1160 C   0  0  0  0  0  0  0  0  0  0  0  0
  143.4740   72.3450  219.0390 C   0  0  0  0  0  0  0  0  0  0  0  0
  145.6830   70.1070  217.5320 C   0  0  0  0  0  0  0  0  0  0  0  0
  146.3040   68.7680  217.6200 N   0  0  0  0  0  0  0  0  0  0  0  0
  145.9661   65.8714  219.3723 H   0  0  0  0  0  0  0  0  0  0  0  0
  145.0499   66.1518  217.8529 H   0  0  0  0  0  0  0  0  0  0  0  0
  146.8431   66.2573  217.8529 H   0  0  0  0  0  0  0  0  0  0  0  0
  146.5191   68.1614  219.6084 H   0  0  0  0  0  0  0  0  0  0  0  0
  143.7280   68.2008  218.3706 H   0  0  0  0  0  0  0  0  0  0  0  0
  144.1231   67.6602  220.0461 H   0  0  0  0  0  0  0  0  0  0  0  0
  143.3511   70.1630  219.5729 H   0  0  0  0  0  0  0  0  0  0  0  0
  144.6727   69.7887  220.7633 H   0  0  0  0  0  0  0  0  0  0  0  0
  146.2802   70.7156  219.5213 H   0  0  0  0  0  0  0  0  0  0  0  0
  146.4198   72.4586  220.2661 H   0  0  0  0  0  0  0  0  0  0  0  0
  146.1934   73.7837  219.0920 H   0  0  0  0  0  0  0  0  0  0  0  0
  144.6495   73.1467  221.5982 H   0  0  0  0  0  0  0  0  0  0  0  0
  144.9647   74.7215  220.8754 H   0  0  0  0  0  0  0  0  0  0  0  0
  141.4434   72.7337  220.6373 H   0  0  0  0  0  0  0  0  0  0  0  0
  142.4486   73.3809  221.9413 H   0  0  0  0  0  0  0  0  0  0  0  0
  138.3371   76.9341  222.9082 H   0  0  0  0  0  0  0  0  0  0  0  0
  138.0897   79.6268  223.9162 H   0  0  0  0  0  0  0  0  0  0  0  0
  139.3774   81.7769  224.1985 H   0  0  0  0  0  0  0  0  0  0  0  0
  142.8496   79.9534  222.3034 H   0  0  0  0  0  0  0  0  0  0  0  0
  142.4160   77.3510  221.5880 H   0  0  0  0  0  0  0  0  0  0  0  0
  140.6879   77.2505  219.5012 H   0  0  0  0  0  0  0  0  0  0  0  0
  141.8947   78.1752  217.5004 H   0  0  0  0  0  0  0  0  0  0  0  0
  143.8524   76.9455  216.5398 H   0  0  0  0  0  0  0  0  0  0  0  0
  144.6083   74.7834  217.5703 H   0  0  0  0  0  0  0  0  0  0  0  0
  143.0252   71.4787  219.5470 H   0  0  0  0  0  0  0  0  0  0  0  0
  142.9524   72.4888  218.0813 H   0  0  0  0  0  0  0  0  0  0  0  0
  144.7501   70.0271  216.9547 H   0  0  0  0  0  0  0  0  0  0  0  0
  146.4020   70.7800  217.0420 H   0  0  0  0  0  0  0  0  0  0  0  0
  146.1100   68.2740  216.7160 H   0  0  0  0  0  0  0  0  0  0  0  0
  1  2  1  0
  2  3  1  0
  3  4  1  0
  4  5  1  0
  5  6  1  0
  6  7  1  0
  7  8  1  0
  9  8  1  1
  9 10  1  0
 10 11  1  0
 11 12  1  0
 12 13  2  0
 12 14  1  0
 14 15  2  0
 15 16  1  0
 16 17  2  0
 17 18  1  0
 18 19  2  0
 19 20  1  0
 19 21  1  0
 21 22  2  0
 22 23  1  0
 11 24  1  0
 24 25  2  0
 25 26  1  0
 26 27  2  0
 27 28  1  0
 28 29  2  0
  9 30  1  0
  5 31  1  0
 31 32  1  0
 32  2  1  0
 30  6  1  0
 29  9  1  0
 23 14  1  0
 29 24  1  0
 22 16  1  0
  1 33  1  0
  1 34  1  0
  1 35  1  0
  2 36  1  1
  3 37  1  0
  3 38  1  0
  4 39  1  0
  4 40  1  0
  5 41  1  1
  7 42  1  0
  7 43  1  0
  8 44  1  0
  8 45  1  0
 10 46  1  0
 10 47  1  0
 15 48  1  0
 17 49  1  0
 18 50  1  0
 21 51  1  0
 23 52  1  0
 25 53  1  0
 26 54  1  0
 27 55  1  0
 28 56  1  0
 30 57  1  0
 30 58  1  0
 31 59  1  0
 31 60  1  0
 32 61  1  0
M  END
>  <UniqueID>  (55) 
94

>  <SMILES>  (55) 
C[C@@H]1CC[C@H](N2CC[C@]3(CN(C(=O)c4cc5ccc(F)cc5[nH]4)c4ccccc43)C2)CN1

>  <Energy>  (55) 
134.34806768659695

>  <Genealogy>  (55) 
C[C@@H]1CC[C@H](N2CC[C@]3(CN(C(=O)c4cc5ccc(F)cc5[nH]4)c4ccccc43)C2)CN1 (chirality)
C[C@@H]1CC[C@H](N2CC[C@]3(CN(C(=O)c4cc5ccc(F)cc5[nH]4)c4ccccc43)C2)CN1 (3D coordinates assigned)
C[C@@H]1CC[C@H](N2CC[C@]3(CN(C(=O)c4cc5ccc(F)cc5[nH]4)c4ccccc43)C2)CN1 (nonaromatic ring conformer: 134.34806768659695 kcal/mol)

>  <smiles>  (55) 
C[C@@H]1CCC(N2CC[C@]3(CN(C(=O)c4cc5ccc(F)cc5[nH]4)c4ccccc43)C2)CN1

>  <score_type>  (55) 
oracle

>  <origin>  (55) 
autodockgpu

>  <m_score__min__energy>  (55) 
-8.9199999999999999

>  <m_primary>  (55) 
energy

>  <meeko>  (55) 
{"free_energy": -8.86, "intermolecular_energy": -9.75, "internal_energy": -1.17, "cluster_size": 11, "cluster_id": 1, "rank_in_cluster": 7}

>  <energy>  (55) 
-8.63

>  <cluster_rmsd>  (55) 
0.07

>  <rmsd>  (55) 
271.22

>  <cluster>  (55) 
2

$$$$
MYPHZBOANNRFAS-OWWOZPERNA-N
     RDKit          3D

 61 66  0  0  0  0  0  0  0  0999 V2000
  145.9030   66.4280  218.4850 C   0  0  0  0  0  0  0  0  0  0  0  0
  145.8080   67.9220  218.8170 C   0  0  2  0  0  0  0  0  0  0  0  0
  144.3710   68.2980  219.2300 C   0  0  0  0  0  0  0  0  0  0  0  0
  144.3140   69.7530  219.7210 C   0  0  0  0  0  0  0  0  0  0  0  0
  145.3210   70.6700  218.9680 C   0  0  2  0  0  0  0  0  0  0  0  0
  144.8840   72.0860  218.8570 N   0  0  0  0  0  0  0  0  0  0  0  0
  145.6410   73.0020  219.7290 C   0  0  0  0  0  0  0  0  0  0  0  0
  144.6560   73.6690  220.6720 C   0  0  0  0  0  0  0  0  0  0  0  0
  143.3140   73.5810  219.9500 C   0  0  1  0  0  0  0  0  0  0  0  0
  142.0960   73.5490  220.9340 C   0  0  0  0  0  0  0  0  0  0  0  0
  141.4300   74.8390  220.7780 N   0  0  0  0  0  0  0  0  0  0  0  0
  140.4000   75.3260  221.6460 C   0  0  0  0  0  0  0  0  0  0  0  0
  139.5150   74.5330  222.0630 O   0  0  0  0  0  0  0  0  0  0  0  0
  140.3900   76.7320  222.0880 C   0  0  0  0  0  0  0  0  0  0  0  0
  139.3160   77.3690  222.7110 C   0  0  0  0  0  0  0  0  0  0  0  0
  139.7680   78.6430  222.9780 C   0  0  0  0  0  0  0  0  0  0  0  0
  139.1350   79.7200  223.5950 C   0  0  0  0  0  0  0  0  0  0  0  0
  139.8670   80.9110  223.7490 C   0  0  0  0  0  0  0  0  0  0  0  0
  141.2030   80.9950  223.2940 C   0  0  0  0  0  0  0  0  0  0  0  0
  141.9010   82.1470  223.4580 F   0  0  0  0  0  0  0  0  0  0  0  0
  141.8130   79.8900  222.6760 C   0  0  0  0  0  0  0  0  0  0  0  0
  141.0620   78.7260  222.5300 C   0  0  0  0  0  0  0  0  0  0  0  0
  141.4540   77.5640  221.9890 N   0  0  0  0  0  0  0  0  0  0  0  0
  141.9920   75.5190  219.6690 C   0  0  0  0  0  0  0  0  0  0  0  0
  141.5390   76.7120  219.0940 C   0  0  0  0  0  0  0  0  0  0  0  0
  142.2150   77.2140  217.9720 C   0  0  0  0  0  0  0  0  0  0  0  0
  143.3120   76.5160  217.4350 C   0  0  0  0  0  0  0  0  0  0  0  0
  143.7360   75.3110  218.0170 C   0  0  0  0  0  0  0  0  0  0  0  0
  143.0530   74.8280  219.1410 C   0  0  0  0  0  0  0  0  0  0  0  0
  143.4430   72.3280  219.0750 C   0  0  0  0  0  0  0  0  0  0  0  0
  145.6830   70.0880  217.5850 C   0  0  0  0  0  0  0  0  0  0  0  0
  146.3000   68.7480  217.6860 N   0  0  0  0  0  0  0  0  0  0  0  0
  145.9400   65.8467  219.4181 H   0  0  0  0  0  0  0  0  0  0  0  0
  145.0223   66.1258  217.8994 H   0  0  0  0  0  0  0  0  0  0  0  0
  146.8149   66.2398  217.8994 H   0  0  0  0  0  0  0  0  0  0  0  0
  146.4602   68.1327  219.6774 H   0  0  0  0  0  0  0  0  0  0  0  0
  143.7035   68.1822  218.3633 H   0  0  0  0  0  0  0  0  0  0  0  0
  144.0512   67.6346  220.0471 H   0  0  0  0  0  0  0  0  0  0  0  0
  143.2966   70.1401  219.5630 H   0  0  0  0  0  0  0  0  0  0  0  0
  144.5850   69.7594  220.7871 H   0  0  0  0  0  0  0  0  0  0  0  0
  146.2267   70.6872  219.5920 H   0  0  0  0  0  0  0  0  0  0  0  0
  146.3873   72.4368  220.3066 H   0  0  0  0  0  0  0  0  0  0  0  0
  146.1666   73.7576  219.1267 H   0  0  0  0  0  0  0  0  0  0  0  0
  144.6159   73.1354  221.6331 H   0  0  0  0  0  0  0  0  0  0  0  0
  144.9378   74.7065  220.9049 H   0  0  0  0  0  0  0  0  0  0  0  0
  141.4113   72.7293  220.6708 H   0  0  0  0  0  0  0  0  0  0  0  0
  142.4166   73.3799  221.9726 H   0  0  0  0  0  0  0  0  0  0  0  0
  138.3261   76.9469  222.9389 H   0  0  0  0  0  0  0  0  0  0  0  0
  138.0968   79.6414  223.9500 H   0  0  0  0  0  0  0  0  0  0  0  0
  139.3968   81.7832  224.2267 H   0  0  0  0  0  0  0  0  0  0  0  0
  142.8519   79.9427  222.3184 H   0  0  0  0  0  0  0  0  0  0  0  0
  142.4010   77.3440  221.6010 H   0  0  0  0  0  0  0  0  0  0  0  0
  140.6721   77.2442  219.5126 H   0  0  0  0  0  0  0  0  0  0  0  0
  141.8861   78.1568  217.5105 H   0  0  0  0  0  0  0  0  0  0  0  0
  143.8392   76.9157  216.5562 H   0  0  0  0  0  0  0  0  0  0  0  0
  144.5886   74.7562  217.5984 H   0  0  0  0  0  0  0  0  0  0  0  0
  142.9901   71.4652  219.5853 H   0  0  0  0  0  0  0  0  0  0  0  0
  142.9241   72.4700  218.1155 H   0  0  0  0  0  0  0  0  0  0  0  0
  144.7661   70.0111  216.9822 H   0  0  0  0  0  0  0  0  0  0  0  0
  146.4153   70.7621  217.1166 H   0  0  0  0  0  0  0  0  0  0  0  0
  146.1300   68.2570  216.7750 H   0  0  0  0  0  0  0  0  0  0  0  0
  1  2  1  0
  2  3  1  0
  3  4  1  0
  4  5  1  0
  5  6  1  0
  6  7  1  0
  7  8  1  0
  9  8  1  1
  9 10  1  0
 10 11  1  0
 11 12  1  0
 12 13  2  0
 12 14  1  0
 14 15  2  0
 15 16  1  0
 16 17  2  0
 17 18  1  0
 18 19  2  0
 19 20  1  0
 19 21  1  0
 21 22  2  0
 22 23  1  0
 11 24  1  0
 24 25  2  0
 25 26  1  0
 26 27  2  0
 27 28  1  0
 28 29  2  0
  9 30  1  0
  5 31  1  0
 31 32  1  0
 32  2  1  0
 30  6  1  0
 29  9  1  0
 23 14  1  0
 29 24  1  0
 22 16  1  0
  1 33  1  0
  1 34  1  0
  1 35  1  0
  2 36  1  1
  3 37  1  0
  3 38  1  0
  4 39  1  0
  4 40  1  0
  5 41  1  1
  7 42  1  0
  7 43  1  0
  8 44  1  0
  8 45  1  0
 10 46  1  0
 10 47  1  0
 15 48  1  0
 17 49  1  0
 18 50  1  0
 21 51  1  0
 23 52  1  0
 25 53  1  0
 26 54  1  0
 27 55  1  0
 28 56  1  0
 30 57  1  0
 30 58  1  0
 31 59  1  0
 31 60  1  0
 32 61  1  0
M  END
>  <UniqueID>  (56) 
94

>  <SMILES>  (56) 
C[C@@H]1CC[C@H](N2CC[C@]3(CN(C(=O)c4cc5ccc(F)cc5[nH]4)c4ccccc43)C2)CN1

>  <Energy>  (56) 
134.34806768659695

>  <Genealogy>  (56) 
C[C@@H]1CC[C@H](N2CC[C@]3(CN(C(=O)c4cc5ccc(F)cc5[nH]4)c4ccccc43)C2)CN1 (chirality)
C[C@@H]1CC[C@H](N2CC[C@]3(CN(C(=O)c4cc5ccc(F)cc5[nH]4)c4ccccc43)C2)CN1 (3D coordinates assigned)
C[C@@H]1CC[C@H](N2CC[C@]3(CN(C(=O)c4cc5ccc(F)cc5[nH]4)c4ccccc43)C2)CN1 (nonaromatic ring conformer: 134.34806768659695 kcal/mol)

>  <smiles>  (56) 
C[C@@H]1CCC(N2CC[C@]3(CN(C(=O)c4cc5ccc(F)cc5[nH]4)c4ccccc43)C2)CN1

>  <score_type>  (56) 
oracle

>  <origin>  (56) 
autodockgpu

>  <m_score__min__energy>  (56) 
-8.9199999999999999

>  <m_primary>  (56) 
energy

>  <meeko>  (56) 
{"free_energy": -8.87, "intermolecular_energy": -9.76, "internal_energy": -1.18, "cluster_size": 11, "cluster_id": 1, "rank_in_cluster": 4}

>  <energy>  (56) 
-8.45

>  <cluster_rmsd>  (56) 
0.0

>  <rmsd>  (56) 
271.44

>  <cluster>  (56) 
3

$$$$
MYPHZBOANNRFAS-OWWOZPERNA-N
     RDKit          3D

 61 66  0  0  0  0  0  0  0  0999 V2000
  145.3970   66.0950  219.1130 C   0  0  0  0  0  0  0  0  0  0  0  0
  144.8990   67.5270  219.3410 C   0  0  2  0  0  0  0  0  0  0  0  0
  144.1210   68.0360  218.1120 C   0  0  0  0  0  0  0  0  0  0  0  0
  143.4820   69.4020  218.4060 C   0  0  0  0  0  0  0  0  0  0  0  0
  144.3520   70.2680  219.3630 C   0  0  2  0  0  0  0  0  0  0  0  0
  144.2090   71.7320  219.1520 N   0  0  0  0  0  0  0  0  0  0  0  0
  145.1830   72.5300  219.9200 C   0  0  0  0  0  0  0  0  0  0  0  0
  144.4050   73.4540  220.8400 C   0  0  0  0  0  0  0  0  0  0  0  0
  143.0380   73.5970  220.1750 C   0  0  1  0  0  0  0  0  0  0  0  0
  141.8920   73.8910  221.2000 C   0  0  0  0  0  0  0  0  0  0  0  0
  141.4980   75.2760  220.9650 N   0  0  0  0  0  0  0  0  0  0  0  0
  140.6360   76.0280  221.8250 C   0  0  0  0  0  0  0  0  0  0  0  0
  139.6440   75.4630  222.3570 O   0  0  0  0  0  0  0  0  0  0  0  0
  140.9210   77.4430  222.1280 C   0  0  0  0  0  0  0  0  0  0  0  0
  140.3910   78.5330  221.4360 C   0  0  0  0  0  0  0  0  0  0  0  0
  140.8920   79.6410  222.0840 C   0  0  0  0  0  0  0  0  0  0  0  0
  140.6990   80.9980  221.8430 C   0  0  0  0  0  0  0  0  0  0  0  0
  141.3360   81.9150  222.6990 C   0  0  0  0  0  0  0  0  0  0  0  0
  142.1380   81.4560  223.7700 C   0  0  0  0  0  0  0  0  0  0  0  0
  142.7400   82.3510  224.5930 F   0  0  0  0  0  0  0  0  0  0  0  0
  142.3140   80.0790  223.9860 C   0  0  0  0  0  0  0  0  0  0  0  0
  141.6760   79.1950  223.1190 C   0  0  0  0  0  0  0  0  0  0  0  0
  141.6980   77.8550  223.1570 N   0  0  0  0  0  0  0  0  0  0  0  0
  142.1300   75.7420  219.7850 C   0  0  0  0  0  0  0  0  0  0  0  0
  141.9030   76.9590  219.1310 C   0  0  0  0  0  0  0  0  0  0  0  0
  142.6090   77.2270  217.9490 C   0  0  0  0  0  0  0  0  0  0  0  0
  143.5100   76.2780  217.4330 C   0  0  0  0  0  0  0  0  0  0  0  0
  143.7070   75.0570  218.0950 C   0  0  0  0  0  0  0  0  0  0  0  0
  142.9980   74.8100  219.2780 C   0  0  0  0  0  0  0  0  0  0  0  0
  142.8620   72.2840  219.4010 C   0  0  0  0  0  0  0  0  0  0  0  0
  145.8340   69.8390  219.3130 C   0  0  0  0  0  0  0  0  0  0  0  0
  146.0220   68.4260  219.7060 N   0  0  0  0  0  0  0  0  0  0  0  0
  145.5668   65.6069  220.0840 H   0  0  0  0  0  0  0  0  0  0  0  0
  144.6425   65.5303  218.5457 H   0  0  0  0  0  0  0  0  0  0  0  0
  146.3391   66.1204  218.5457 H   0  0  0  0  0  0  0  0  0  0  0  0
  144.1998   67.5245  220.1902 H   0  0  0  0  0  0  0  0  0  0  0  0
  144.8121   68.1353  217.2620 H   0  0  0  0  0  0  0  0  0  0  0  0
  143.3250   67.3157  217.8721 H   0  0  0  0  0  0  0  0  0  0  0  0
  143.3534   69.9438  217.4574 H   0  0  0  0  0  0  0  0  0  0  0  0
  142.5159   69.2220  218.9002 H   0  0  0  0  0  0  0  0  0  0  0  0
  143.9618   70.0749  220.3732 H   0  0  0  0  0  0  0  0  0  0  0  0
  145.8257   71.8643  220.5148 H   0  0  0  0  0  0  0  0  0  0  0  0
  145.8217   73.1135  219.2407 H   0  0  0  0  0  0  0  0  0  0  0  0
  144.3052   73.0108  221.8418 H   0  0  0  0  0  0  0  0  0  0  0  0
  144.9055   74.4238  220.9781 H   0  0  0  0  0  0  0  0  0  0  0  0
  141.0409   73.2157  221.0279 H   0  0  0  0  0  0  0  0  0  0  0  0
  142.2243   73.7337  222.2367 H   0  0  0  0  0  0  0  0  0  0  0  0
  139.7203   78.5121  220.5644 H   0  0  0  0  0  0  0  0  0  0  0  0
  140.0687   81.3426  221.0100 H   0  0  0  0  0  0  0  0  0  0  0  0
  141.2096   82.9953  222.5345 H   0  0  0  0  0  0  0  0  0  0  0  0
  142.9366   79.7102  224.8145 H   0  0  0  0  0  0  0  0  0  0  0  0
  142.1900   77.2590  223.8620 H   0  0  0  0  0  0  0  0  0  0  0  0
  141.1865   77.6891  219.5354 H   0  0  0  0  0  0  0  0  0  0  0  0
  142.4577   78.1818  217.4242 H   0  0  0  0  0  0  0  0  0  0  0  0
  144.0623   76.4942  216.5066 H   0  0  0  0  0  0  0  0  0  0  0  0
  144.4048   74.3077  217.6930 H   0  0  0  0  0  0  0  0  0  0  0  0
  142.2691   71.5738  219.9960 H   0  0  0  0  0  0  0  0  0  0  0  0
  142.3342   72.4611  218.4523 H   0  0  0  0  0  0  0  0  0  0  0  0
  146.2069   69.9736  218.2869 H   0  0  0  0  0  0  0  0  0  0  0  0
  146.3899   70.4641  220.0273 H   0  0  0  0  0  0  0  0  0  0  0  0
  146.9130   68.0950  219.2620 H   0  0  0  0  0  0  0  0  0  0  0  0
  1  2  1  0
  2  3  1  0
  3  4  1  0
  4  5  1  0
  5  6  1  0
  6  7  1  0
  7  8  1  0
  9  8  1  1
  9 10  1  0
 10 11  1  0
 11 12  1  0
 12 13  2  0
 12 14  1  0
 14 15  2  0
 15 16  1  0
 16 17  2  0
 17 18  1  0
 18 19  2  0
 19 20  1  0
 19 21  1  0
 21 22  2  0
 22 23  1  0
 11 24  1  0
 24 25  2  0
 25 26  1  0
 26 27  2  0
 27 28  1  0
 28 29  2  0
  9 30  1  0
  5 31  1  0
 31 32  1  0
 32  2  1  0
 30  6  1  0
 29  9  1  0
 23 14  1  0
 29 24  1  0
 22 16  1  0
  1 33  1  0
  1 34  1  0
  1 35  1  0
  2 36  1  1
  3 37  1  0
  3 38  1  0
  4 39  1  0
  4 40  1  0
  5 41  1  1
  7 42  1  0
  7 43  1  0
  8 44  1  0
  8 45  1  0
 10 46  1  0
 10 47  1  0
 15 48  1  0
 17 49  1  0
 18 50  1  0
 21 51  1  0
 23 52  1  0
 25 53  1  0
 26 54  1  0
 27 55  1  0
 28 56  1  0
 30 57  1  0
 30 58  1  0
 31 59  1  0
 31 60  1  0
 32 61  1  0
M  END
>  <UniqueID>  (57) 
94

>  <SMILES>  (57) 
C[C@@H]1CC[C@H](N2CC[C@]3(CN(C(=O)c4cc5ccc(F)cc5[nH]4)c4ccccc43)C2)CN1

>  <Energy>  (57) 
134.34806768659695

>  <Genealogy>  (57) 
C[C@@H]1CC[C@H](N2CC[C@]3(CN(C(=O)c4cc5ccc(F)cc5[nH]4)c4ccccc43)C2)CN1 (chirality)
C[C@@H]1CC[C@H](N2CC[C@]3(CN(C(=O)c4cc5ccc(F)cc5[nH]4)c4ccccc43)C2)CN1 (3D coordinates assigned)
C[C@@H]1CC[C@H](N2CC[C@]3(CN(C(=O)c4cc5ccc(F)cc5[nH]4)c4ccccc43)C2)CN1 (nonaromatic ring conformer: 134.34806768659695 kcal/mol)

>  <smiles>  (57) 
C[C@@H]1CCC(N2CC[C@]3(CN(C(=O)c4cc5ccc(F)cc5[nH]4)c4ccccc43)C2)CN1

>  <score_type>  (57) 
oracle

>  <origin>  (57) 
autodockgpu

>  <m_score__min__energy>  (57) 
-8.9199999999999999

>  <m_primary>  (57) 
energy

>  <meeko>  (57) 
{"free_energy": -8.92, "intermolecular_energy": -9.82, "internal_energy": -1.08, "cluster_size": 11, "cluster_id": 1, "rank_in_cluster": 1}

>  <energy>  (57) 
-8.44

>  <cluster_rmsd>  (57) 
0.08

>  <rmsd>  (57) 
271.44

>  <cluster>  (57) 
3

$$$$
MYPHZBOANNRFAS-OWWOZPERNA-N
     RDKit          3D

 61 66  0  0  0  0  0  0  0  0999 V2000
  145.9930   66.4570  218.4440 C   0  0  0  0  0  0  0  0  0  0  0  0
  145.8980   67.9530  218.7690 C   0  0  2  0  0  0  0  0  0  0  0  0
  144.4770   68.3200  219.2380 C   0  0  0  0  0  0  0  0  0  0  0  0
  144.4280   69.7780  219.7200 C   0  0  0  0  0  0  0  0  0  0  0  0
  145.3950   70.6980  218.9200 C   0  0  2  0  0  0  0  0  0  0  0  0
  144.9410   72.1100  218.8160 N   0  0  0  0  0  0  0  0  0  0  0  0
  145.6930   73.0300  219.6880 C   0  0  0  0  0  0  0  0  0  0  0  0
  144.7060   73.6830  220.6380 C   0  0  0  0  0  0  0  0  0  0  0  0
  143.3610   73.5830  219.9230 C   0  0  1  0  0  0  0  0  0  0  0  0
  142.1480   73.5340  220.9130 C   0  0  0  0  0  0  0  0  0  0  0  0
  141.4680   74.8170  220.7660 N   0  0  0  0  0  0  0  0  0  0  0  0
  140.4370   75.2890  221.6400 C   0  0  0  0  0  0  0  0  0  0  0  0
  139.5650   74.4840  222.0620 O   0  0  0  0  0  0  0  0  0  0  0  0
  140.4120   76.6940  222.0850 C   0  0  0  0  0  0  0  0  0  0  0  0
  139.3310   77.3180  222.7110 C   0  0  0  0  0  0  0  0  0  0  0  0
  139.7690   78.5970  222.9790 C   0  0  0  0  0  0  0  0  0  0  0  0
  139.1250   79.6650  223.5990 C   0  0  0  0  0  0  0  0  0  0  0  0
  139.8430   80.8650  223.7530 C   0  0  0  0  0  0  0  0  0  0  0  0
  141.1770   80.9650  223.2950 C   0  0  0  0  0  0  0  0  0  0  0  0
  141.8610   82.1250  223.4590 F   0  0  0  0  0  0  0  0  0  0  0  0
  141.7980   79.8680  222.6730 C   0  0  0  0  0  0  0  0  0  0  0  0
  141.0610   78.6950  222.5280 C   0  0  0  0  0  0  0  0  0  0  0  0
  141.4650   77.5390  221.9840 N   0  0  0  0  0  0  0  0  0  0  0  0
  142.0170   75.5070  219.6560 C   0  0  0  0  0  0  0  0  0  0  0  0
  141.5470   76.6970  219.0880 C   0  0  0  0  0  0  0  0  0  0  0  0
  142.2110   77.2100  217.9640 C   0  0  0  0  0  0  0  0  0  0  0  0
  143.3130   76.5270  217.4190 C   0  0  0  0  0  0  0  0  0  0  0  0
  143.7530   75.3250  217.9950 C   0  0  0  0  0  0  0  0  0  0  0  0
  143.0810   74.8300  219.1200 C   0  0  0  0  0  0  0  0  0  0  0  0
  143.4990   72.3340  219.0430 C   0  0  0  0  0  0  0  0  0  0  0  0
  145.7050   70.1080  217.5280 C   0  0  0  0  0  0  0  0  0  0  0  0
  146.3370   68.7740  217.6130 N   0  0  0  0  0  0  0  0  0  0  0  0
  146.0296   65.8801  219.3799 H   0  0  0  0  0  0  0  0  0  0  0  0
  145.1124   66.1521  217.8595 H   0  0  0  0  0  0  0  0  0  0  0  0
  146.9051   66.2659  217.8595 H   0  0  0  0  0  0  0  0  0  0  0  0
  146.5823   68.1760  219.6009 H   0  0  0  0  0  0  0  0  0  0  0  0
  143.7753   68.1920  218.4006 H   0  0  0  0  0  0  0  0  0  0  0  0
  144.1968   67.6603  220.0725 H   0  0  0  0  0  0  0  0  0  0  0  0
  143.4016   70.1554  219.6012 H   0  0  0  0  0  0  0  0  0  0  0  0
  144.7430   69.7945  220.7738 H   0  0  0  0  0  0  0  0  0  0  0  0
  146.3251   70.7285  219.5065 H   0  0  0  0  0  0  0  0  0  0  0  0
  146.4476   72.4700  220.2598 H   0  0  0  0  0  0  0  0  0  0  0  0
  146.2082   73.7932  219.0863 H   0  0  0  0  0  0  0  0  0  0  0  0
  144.6768   73.1458  221.5975 H   0  0  0  0  0  0  0  0  0  0  0  0
  144.9778   74.7227  220.8727 H   0  0  0  0  0  0  0  0  0  0  0  0
  141.4707   72.7083  220.6495 H   0  0  0  0  0  0  0  0  0  0  0  0
  142.4755   73.3638  221.9492 H   0  0  0  0  0  0  0  0  0  0  0  0
  138.3464   76.8842  222.9399 H   0  0  0  0  0  0  0  0  0  0  0  0
  138.0888   79.5732  223.9566 H   0  0  0  0  0  0  0  0  0  0  0  0
  139.3636   81.7310  224.2328 H   0  0  0  0  0  0  0  0  0  0  0  0
  142.8349   79.9339  222.3116 H   0  0  0  0  0  0  0  0  0  0  0  0
  142.4140   77.3310  221.5930 H   0  0  0  0  0  0  0  0  0  0  0  0
  140.6766   77.2180  219.5135 H   0  0  0  0  0  0  0  0  0  0  0  0
  141.8685   78.1501  217.5070 H   0  0  0  0  0  0  0  0  0  0  0  0
  143.8314   76.9358  216.5392 H   0  0  0  0  0  0  0  0  0  0  0  0
  144.6101   74.7815  217.5706 H   0  0  0  0  0  0  0  0  0  0  0  0
  143.0593   71.4643  219.5532 H   0  0  0  0  0  0  0  0  0  0  0  0
  142.9726   72.4726  218.0871 H   0  0  0  0  0  0  0  0  0  0  0  0
  144.7648   70.0189  216.9640 H   0  0  0  0  0  0  0  0  0  0  0  0
  146.4120   70.7843  217.0252 H   0  0  0  0  0  0  0  0  0  0  0  0
  146.1340   68.2750  216.7130 H   0  0  0  0  0  0  0  0  0  0  0  0
  1  2  1  0
  2  3  1  0
  3  4  1  0
  4  5  1  0
  5  6  1  0
  6  7  1  0
  7  8  1  0
  9  8  1  1
  9 10  1  0
 10 11  1  0
 11 12  1  0
 12 13  2  0
 12 14  1  0
 14 15  2  0
 15 16  1  0
 16 17  2  0
 17 18  1  0
 18 19  2  0
 19 20  1  0
 19 21  1  0
 21 22  2  0
 22 23  1  0
 11 24  1  0
 24 25  2  0
 25 26  1  0
 26 27  2  0
 27 28  1  0
 28 29  2  0
  9 30  1  0
  5 31  1  0
 31 32  1  0
 32  2  1  0
 30  6  1  0
 29  9  1  0
 23 14  1  0
 29 24  1  0
 22 16  1  0
  1 33  1  0
  1 34  1  0
  1 35  1  0
  2 36  1  1
  3 37  1  0
  3 38  1  0
  4 39  1  0
  4 40  1  0
  5 41  1  1
  7 42  1  0
  7 43  1  0
  8 44  1  0
  8 45  1  0
 10 46  1  0
 10 47  1  0
 15 48  1  0
 17 49  1  0
 18 50  1  0
 21 51  1  0
 23 52  1  0
 25 53  1  0
 26 54  1  0
 27 55  1  0
 28 56  1  0
 30 57  1  0
 30 58  1  0
 31 59  1  0
 31 60  1  0
 32 61  1  0
M  END
>  <UniqueID>  (58) 
94

>  <SMILES>  (58) 
C[C@@H]1CC[C@H](N2CC[C@]3(CN(C(=O)c4cc5ccc(F)cc5[nH]4)c4ccccc43)C2)CN1

>  <Energy>  (58) 
134.34806768659695

>  <Genealogy>  (58) 
C[C@@H]1CC[C@H](N2CC[C@]3(CN(C(=O)c4cc5ccc(F)cc5[nH]4)c4ccccc43)C2)CN1 (chirality)
C[C@@H]1CC[C@H](N2CC[C@]3(CN(C(=O)c4cc5ccc(F)cc5[nH]4)c4ccccc43)C2)CN1 (3D coordinates assigned)
C[C@@H]1CC[C@H](N2CC[C@]3(CN(C(=O)c4cc5ccc(F)cc5[nH]4)c4ccccc43)C2)CN1 (nonaromatic ring conformer: 134.34806768659695 kcal/mol)

>  <smiles>  (58) 
C[C@@H]1CCC(N2CC[C@]3(CN(C(=O)c4cc5ccc(F)cc5[nH]4)c4ccccc43)C2)CN1

>  <score_type>  (58) 
oracle

>  <origin>  (58) 
autodockgpu

>  <m_score__min__energy>  (58) 
-8.9199999999999999

>  <m_primary>  (58) 
energy

>  <meeko>  (58) 
{"free_energy": -8.87, "intermolecular_energy": -9.76, "internal_energy": -1.18, "cluster_size": 11, "cluster_id": 1, "rank_in_cluster": 5}

>  <energy>  (58) 
-8.42

>  <cluster_rmsd>  (58) 
0.13

>  <rmsd>  (58) 
271.41

>  <cluster>  (58) 
3

$$$$
MYPHZBOANNRFAS-OWWOZPERNA-N
     RDKit          3D

 61 66  0  0  0  0  0  0  0  0999 V2000
  137.6750   81.6150  224.2200 C   0  0  0  0  0  0  0  0  0  0  0  0
  138.3980   80.7520  223.1790 C   0  0  2  0  0  0  0  0  0  0  0  0
  137.7220   79.3730  223.0500 C   0  0  0  0  0  0  0  0  0  0  0  0
  138.3410   78.5740  221.8930 C   0  0  0  0  0  0  0  0  0  0  0  0
  139.8590   78.8710  221.7160 C   0  0  2  0  0  0  0  0  0  0  0  0
  140.6390   77.7320  221.1650 N   0  0  0  0  0  0  0  0  0  0  0  0
  140.1380   77.2570  219.8630 C   0  0  0  0  0  0  0  0  0  0  0  0
  139.7470   75.7980  220.0180 C   0  0  0  0  0  0  0  0  0  0  0  0
  140.5650   75.3060  221.2080 C   0  0  1  0  0  0  0  0  0  0  0  0
  139.8740   74.1290  221.9770 C   0  0  0  0  0  0  0  0  0  0  0  0
  140.6750   72.9440  221.6850 N   0  0  0  0  0  0  0  0  0  0  0  0
  140.2800   71.6050  222.0020 C   0  0  0  0  0  0  0  0  0  0  0  0
  139.9340   70.8250  221.0760 O   0  0  0  0  0  0  0  0  0  0  0  0
  140.3150   71.1190  223.3930 C   0  0  0  0  0  0  0  0  0  0  0  0
  140.6790   71.8860  224.5010 C   0  0  0  0  0  0  0  0  0  0  0  0
  140.5250   71.0420  225.5800 C   0  0  0  0  0  0  0  0  0  0  0  0
  140.7320   71.2610  226.9400 C   0  0  0  0  0  0  0  0  0  0  0  0
  140.4680   70.1990  227.8240 C   0  0  0  0  0  0  0  0  0  0  0  0
  140.0010   68.9580  227.3320 C   0  0  0  0  0  0  0  0  0  0  0  0
  139.7420   67.9450  228.1970 F   0  0  0  0  0  0  0  0  0  0  0  0
  139.8030   68.7690  225.9540 C   0  0  0  0  0  0  0  0  0  0  0  0
  140.0790   69.8360  225.1020 C   0  0  0  0  0  0  0  0  0  0  0  0
  139.9440   69.8720  223.7690 N   0  0  0  0  0  0  0  0  0  0  0  0
  141.8630   73.3410  221.0210 C   0  0  0  0  0  0  0  0  0  0  0  0
  142.9610   72.5320  220.7030 C   0  0  0  0  0  0  0  0  0  0  0  0
  144.0650   73.1210  220.0690 C   0  0  0  0  0  0  0  0  0  0  0  0
  144.0640   74.4970  219.7790 C   0  0  0  0  0  0  0  0  0  0  0  0
  142.9590   75.2910  220.1250 C   0  0  0  0  0  0  0  0  0  0  0  0
  141.8630   74.6850  220.7520 C   0  0  0  0  0  0  0  0  0  0  0  0
  140.7810   76.5650  222.0580 C   0  0  0  0  0  0  0  0  0  0  0  0
  140.4840   79.3930  223.0270 C   0  0  0  0  0  0  0  0  0  0  0  0
  139.8430   80.6410  223.4950 N   0  0  0  0  0  0  0  0  0  0  0  0
  137.9543   81.2816  225.2304 H   0  0  0  0  0  0  0  0  0  0  0  0
  137.9645   82.6680  224.0882 H   0  0  0  0  0  0  0  0  0  0  0  0
  136.5876   81.5144  224.0882 H   0  0  0  0  0  0  0  0  0  0  0  0
  138.3203   81.2453  222.1989 H   0  0  0  0  0  0  0  0  0  0  0  0
  137.8574   78.8148  223.9881 H   0  0  0  0  0  0  0  0  0  0  0  0
  136.6511   79.5204  222.8464 H   0  0  0  0  0  0  0  0  0  0  0  0
  138.2118   77.5005  222.0954 H   0  0  0  0  0  0  0  0  0  0  0  0
  137.8293   78.8723  220.9661 H   0  0  0  0  0  0  0  0  0  0  0  0
  139.9171   79.6645  220.9564 H   0  0  0  0  0  0  0  0  0  0  0  0
  139.2613   77.8489  219.5613 H   0  0  0  0  0  0  0  0  0  0  0  0
  140.9138   77.3660  219.0908 H   0  0  0  0  0  0  0  0  0  0  0  0
  138.6700   75.7038  220.2213 H   0  0  0  0  0  0  0  0  0  0  0  0
  139.9428   75.2141  219.1066 H   0  0  0  0  0  0  0  0  0  0  0  0
  139.8657   74.3297  223.0585 H   0  0  0  0  0  0  0  0  0  0  0  0
  138.8271   73.9990  221.6655 H   0  0  0  0  0  0  0  0  0  0  0  0
  141.0148   72.9334  224.5110 H   0  0  0  0  0  0  0  0  0  0  0  0
  141.0902   72.2327  227.3107 H   0  0  0  0  0  0  0  0  0  0  0  0
  140.6257   70.3346  228.9042 H   0  0  0  0  0  0  0  0  0  0  0  0
  139.4411   67.8079  225.5599 H   0  0  0  0  0  0  0  0  0  0  0  0
  139.5910   69.1000  223.1560 H   0  0  0  0  0  0  0  0  0  0  0  0
  142.9578   71.4589  220.9449 H   0  0  0  0  0  0  0  0  0  0  0  0
  144.9346   72.5044  219.7977 H   0  0  0  0  0  0  0  0  0  0  0  0
  144.9317   74.9527  219.2795 H   0  0  0  0  0  0  0  0  0  0  0  0
  142.9541   76.3693  219.9076 H   0  0  0  0  0  0  0  0  0  0  0  0
  140.0286   76.6111  222.8591 H   0  0  0  0  0  0  0  0  0  0  0  0
  141.7774   76.5521  222.5239 H   0  0  0  0  0  0  0  0  0  0  0  0
  140.3699   78.6233  223.8045 H   0  0  0  0  0  0  0  0  0  0  0  0
  141.5442   79.6114  222.8314 H   0  0  0  0  0  0  0  0  0  0  0  0
  139.9950   80.6990  224.5320 H   0  0  0  0  0  0  0  0  0  0  0  0
  1  2  1  0
  2  3  1  0
  3  4  1  0
  4  5  1  0
  5  6  1  0
  6  7  1  0
  7  8  1  0
  9  8  1  6
  9 10  1  0
 10 11  1  0
 11 12  1  0
 12 13  2  0
 12 14  1  0
 14 15  2  0
 15 16  1  0
 16 17  2  0
 17 18  1  0
 18 19  2  0
 19 20  1  0
 19 21  1  0
 21 22  2  0
 22 23  1  0
 11 24  1  0
 24 25  2  0
 25 26  1  0
 26 27  2  0
 27 28  1  0
 28 29  2  0
  9 30  1  0
  5 31  1  0
 31 32  1  0
 32  2  1  0
 30  6  1  0
 29  9  1  0
 23 14  1  0
 29 24  1  0
 22 16  1  0
  1 33  1  0
  1 34  1  0
  1 35  1  0
  2 36  1  6
  3 37  1  0
  3 38  1  0
  4 39  1  0
  4 40  1  0
  5 41  1  6
  7 42  1  0
  7 43  1  0
  8 44  1  0
  8 45  1  0
 10 46  1  0
 10 47  1  0
 15 48  1  0
 17 49  1  0
 18 50  1  0
 21 51  1  0
 23 52  1  0
 25 53  1  0
 26 54  1  0
 27 55  1  0
 28 56  1  0
 30 57  1  0
 30 58  1  0
 31 59  1  0
 31 60  1  0
 32 61  1  0
M  END
>  <UniqueID>  (59) 
94

>  <SMILES>  (59) 
C[C@@H]1CC[C@H](N2CC[C@]3(CN(C(=O)c4cc5ccc(F)cc5[nH]4)c4ccccc43)C2)CN1

>  <Energy>  (59) 
134.34806768659695

>  <Genealogy>  (59) 
C[C@@H]1CC[C@H](N2CC[C@]3(CN(C(=O)c4cc5ccc(F)cc5[nH]4)c4ccccc43)C2)CN1 (chirality)
C[C@@H]1CC[C@H](N2CC[C@]3(CN(C(=O)c4cc5ccc(F)cc5[nH]4)c4ccccc43)C2)CN1 (3D coordinates assigned)
C[C@@H]1CC[C@H](N2CC[C@]3(CN(C(=O)c4cc5ccc(F)cc5[nH]4)c4ccccc43)C2)CN1 (nonaromatic ring conformer: 134.34806768659695 kcal/mol)

>  <smiles>  (59) 
C[C@@H]1CCC(N2CC[C@]3(CN(C(=O)c4cc5ccc(F)cc5[nH]4)c4ccccc43)C2)CN1

>  <score_type>  (59) 
oracle

>  <origin>  (59) 
autodockgpu

>  <m_score__min__energy>  (59) 
-8.9199999999999999

>  <m_primary>  (59) 
energy

>  <meeko>  (59) 
{"free_energy": -8.32, "intermolecular_energy": -9.22, "internal_energy": -1.26, "cluster_size": 5, "cluster_id": 3, "rank_in_cluster": 4}

>  <energy>  (59) 
-8.32

>  <cluster_rmsd>  (59) 
1.74

>  <rmsd>  (59) 
271.44

>  <cluster>  (59) 
3

$$$$
MYPHZBOANNRFAS-OWWOZPERNA-N
     RDKit          3D

 61 66  0  0  0  0  0  0  0  0999 V2000
  141.4170   67.7890  229.0680 C   0  0  0  0  0  0  0  0  0  0  0  0
  141.0920   68.3560  227.6800 C   0  0  2  0  0  0  0  0  0  0  0  0
  140.6870   69.8400  227.7800 C   0  0  0  0  0  0  0  0  0  0  0  0
  140.5250   70.4500  226.3790 C   0  0  0  0  0  0  0  0  0  0  0  0
  139.9840   69.4190  225.3450 C   0  0  2  0  0  0  0  0  0  0  0  0
  139.1780   70.0230  224.2520 N   0  0  0  0  0  0  0  0  0  0  0  0
  139.4680   69.4490  222.9260 C   0  0  0  0  0  0  0  0  0  0  0  0
  139.9520   70.5720  222.0270 C   0  0  0  0  0  0  0  0  0  0  0  0
  139.3780   71.8400  222.6540 C   0  0  1  0  0  0  0  0  0  0  0  0
  140.2500   73.1090  222.3670 C   0  0  0  0  0  0  0  0  0  0  0  0
  139.4700   73.9200  221.4360 N   0  0  0  0  0  0  0  0  0  0  0  0
  139.9800   75.0600  220.7360 C   0  0  0  0  0  0  0  0  0  0  0  0
  140.2220   74.9730  219.5030 O   0  0  0  0  0  0  0  0  0  0  0  0
  140.1840   76.3430  221.4330 C   0  0  0  0  0  0  0  0  0  0  0  0
  139.1800   77.0830  222.0600 C   0  0  0  0  0  0  0  0  0  0  0  0
  139.8300   78.1690  222.6050 C   0  0  0  0  0  0  0  0  0  0  0  0
  139.3410   79.2380  223.3510 C   0  0  0  0  0  0  0  0  0  0  0  0
  140.2630   80.2030  223.7980 C   0  0  0  0  0  0  0  0  0  0  0  0
  141.6380   80.0730  223.4960 C   0  0  0  0  0  0  0  0  0  0  0  0
  142.5170   81.0060  223.9400 F   0  0  0  0  0  0  0  0  0  0  0  0
  142.1000   78.9820  222.7400 C   0  0  0  0  0  0  0  0  0  0  0  0
  141.1630   78.0460  222.3070 C   0  0  0  0  0  0  0  0  0  0  0  0
  141.3920   76.9320  221.5950 N   0  0  0  0  0  0  0  0  0  0  0  0
  138.1670   73.3730  221.3270 C   0  0  0  0  0  0  0  0  0  0  0  0
  137.0720   73.9340  220.6580 C   0  0  0  0  0  0  0  0  0  0  0  0
  135.8470   73.2510  220.6910 C   0  0  0  0  0  0  0  0  0  0  0  0
  135.7290   72.0410  221.3980 C   0  0  0  0  0  0  0  0  0  0  0  0
  136.8360   71.5090  222.0770 C   0  0  0  0  0  0  0  0  0  0  0  0
  138.0530   72.2010  222.0280 C   0  0  0  0  0  0  0  0  0  0  0  0
  139.2510   71.4940  224.1430 C   0  0  0  0  0  0  0  0  0  0  0  0
  139.2120   68.2790  226.0420 C   0  0  0  0  0  0  0  0  0  0  0  0
  140.0570   67.5360  227.0030 N   0  0  0  0  0  0  0  0  0  0  0  0
  141.0281   68.4675  229.8415 H   0  0  0  0  0  0  0  0  0  0  0  0
  140.9488   66.7998  229.1788 H   0  0  0  0  0  0  0  0  0  0  0  0
  142.5072   67.6931  229.1788 H   0  0  0  0  0  0  0  0  0  0  0  0
  141.9982   68.3070  227.0584 H   0  0  0  0  0  0  0  0  0  0  0  0
  139.7328   69.9190  228.3216 H   0  0  0  0  0  0  0  0  0  0  0  0
  141.4750   70.3880  228.3173 H   0  0  0  0  0  0  0  0  0  0  0  0
  139.8211   71.2931  226.4394 H   0  0  0  0  0  0  0  0  0  0  0  0
  141.5177   70.7793  226.0383 H   0  0  0  0  0  0  0  0  0  0  0  0
  140.8749   68.9964  224.8576 H   0  0  0  0  0  0  0  0  0  0  0  0
  140.2482   68.6787  223.0148 H   0  0  0  0  0  0  0  0  0  0  0  0
  138.5651   68.9830  222.5045 H   0  0  0  0  0  0  0  0  0  0  0  0
  141.0512   70.6100  222.0103 H   0  0  0  0  0  0  0  0  0  0  0  0
  139.6304   70.4396  220.9834 H   0  0  0  0  0  0  0  0  0  0  0  0
  140.4363   73.6652  223.2976 H   0  0  0  0  0  0  0  0  0  0  0  0
  141.2320   72.8418  221.9495 H   0  0  0  0  0  0  0  0  0  0  0  0
  138.1060   76.8503  222.1084 H   0  0  0  0  0  0  0  0  0  0  0  0
  138.2694   79.3255  223.5834 H   0  0  0  0  0  0  0  0  0  0  0  0
  139.9115   81.0637  224.3860 H   0  0  0  0  0  0  0  0  0  0  0  0
  143.1672   78.8706  222.4979 H   0  0  0  0  0  0  0  0  0  0  0  0
  142.3210   76.5830  221.2650 H   0  0  0  0  0  0  0  0  0  0  0  0
  137.1701   74.8880  220.1192 H   0  0  0  0  0  0  0  0  0  0  0  0
  134.9754   73.6635  220.1618 H   0  0  0  0  0  0  0  0  0  0  0  0
  134.7659   71.5099  221.4188 H   0  0  0  0  0  0  0  0  0  0  0  0
  136.7497   70.5663  222.6372 H   0  0  0  0  0  0  0  0  0  0  0  0
  140.1279   71.8682  224.6917 H   0  0  0  0  0  0  0  0  0  0  0  0
  138.3523   71.9596  224.5738 H   0  0  0  0  0  0  0  0  0  0  0  0
  138.3562   68.7098  226.5824 H   0  0  0  0  0  0  0  0  0  0  0  0
  138.8819   67.5721  225.2666 H   0  0  0  0  0  0  0  0  0  0  0  0
  139.4160   67.1010  227.7100 H   0  0  0  0  0  0  0  0  0  0  0  0
  1  2  1  0
  2  3  1  0
  3  4  1  0
  4  5  1  0
  5  6  1  0
  6  7  1  0
  7  8  1  0
  9  8  1  6
  9 10  1  0
 10 11  1  0
 11 12  1  0
 12 13  2  0
 12 14  1  0
 14 15  2  0
 15 16  1  0
 16 17  2  0
 17 18  1  0
 18 19  2  0
 19 20  1  0
 19 21  1  0
 21 22  2  0
 22 23  1  0
 11 24  1  0
 24 25  2  0
 25 26  1  0
 26 27  2  0
 27 28  1  0
 28 29  2  0
  9 30  1  0
  5 31  1  0
 31 32  1  0
 32  2  1  0
 30  6  1  0
 29  9  1  0
 23 14  1  0
 29 24  1  0
 22 16  1  0
  1 33  1  0
  1 34  1  0
  1 35  1  0
  2 36  1  6
  3 37  1  0
  3 38  1  0
  4 39  1  0
  4 40  1  0
  5 41  1  6
  7 42  1  0
  7 43  1  0
  8 44  1  0
  8 45  1  0
 10 46  1  0
 10 47  1  0
 15 48  1  0
 17 49  1  0
 18 50  1  0
 21 51  1  0
 23 52  1  0
 25 53  1  0
 26 54  1  0
 27 55  1  0
 28 56  1  0
 30 57  1  0
 30 58  1  0
 31 59  1  0
 31 60  1  0
 32 61  1  0
M  END
>  <UniqueID>  (60) 
94

>  <SMILES>  (60) 
C[C@@H]1CC[C@H](N2CC[C@]3(CN(C(=O)c4cc5ccc(F)cc5[nH]4)c4ccccc43)C2)CN1

>  <Energy>  (60) 
134.34806768659695

>  <Genealogy>  (60) 
C[C@@H]1CC[C@H](N2CC[C@]3(CN(C(=O)c4cc5ccc(F)cc5[nH]4)c4ccccc43)C2)CN1 (chirality)
C[C@@H]1CC[C@H](N2CC[C@]3(CN(C(=O)c4cc5ccc(F)cc5[nH]4)c4ccccc43)C2)CN1 (3D coordinates assigned)
C[C@@H]1CC[C@H](N2CC[C@]3(CN(C(=O)c4cc5ccc(F)cc5[nH]4)c4ccccc43)C2)CN1 (nonaromatic ring conformer: 134.34806768659695 kcal/mol)

>  <smiles>  (60) 
C[C@@H]1CCC(N2CC[C@]3(CN(C(=O)c4cc5ccc(F)cc5[nH]4)c4ccccc43)C2)CN1

>  <score_type>  (60) 
oracle

>  <origin>  (60) 
autodockgpu

>  <m_score__min__energy>  (60) 
-8.9199999999999999

>  <m_primary>  (60) 
energy

>  <meeko>  (60) 
{"free_energy": -8.63, "intermolecular_energy": -9.52, "internal_energy": -1.1, "cluster_size": 4, "cluster_id": 2, "rank_in_cluster": 4}

>  <energy>  (60) 
-8.31

>  <cluster_rmsd>  (60) 
1.72

>  <rmsd>  (60) 
271.45

>  <cluster>  (60) 
3

$$$$
MYPHZBOANNRFAS-AGTLBBOYNA-N
     RDKit          3D

 61 66  0  0  0  0  0  0  0  0999 V2000
  145.1700   73.4000  219.1120 C   0  0  0  0  0  0  0  0  0  0  0  0
  143.7900   73.7130  219.6920 C   0  0  2  0  0  0  0  0  0  0  0  0
  142.7100   73.6740  218.5840 C   0  0  0  0  0  0  0  0  0  0  0  0
  141.4470   74.4040  219.0380 C   0  0  0  0  0  0  0  0  0  0  0  0
  141.7580   75.8960  219.3400 C   0  0  1  0  0  0  0  0  0  0  0  0
  140.8320   76.5350  220.3110 N   0  0  0  0  0  0  0  0  0  0  0  0
  140.6880   75.7990  221.5810 C   0  0  0  0  0  0  0  0  0  0  0  0
  140.9840   76.7680  222.7150 C   0  0  0  0  0  0  0  0  0  0  0  0
  140.7240   78.1410  222.1050 C   0  0  1  0  0  0  0  0  0  0  0  0
  139.2390   78.6120  222.2920 C   0  0  0  0  0  0  0  0  0  0  0  0
  139.3120   79.9390  222.9140 N   0  0  0  0  0  0  0  0  0  0  0  0
  138.2640   80.9160  222.8020 C   0  0  0  0  0  0  0  0  0  0  0  0
  137.8630   81.2750  221.6630 O   0  0  0  0  0  0  0  0  0  0  0  0
  137.6310   81.4850  224.0000 C   0  0  0  0  0  0  0  0  0  0  0  0
  137.5910   80.8640  225.2480 C   0  0  0  0  0  0  0  0  0  0  0  0
  136.8820   81.7290  226.0510 C   0  0  0  0  0  0  0  0  0  0  0  0
  136.5320   81.6330  227.3960 C   0  0  0  0  0  0  0  0  0  0  0  0
  135.7810   82.6830  227.9530 C   0  0  0  0  0  0  0  0  0  0  0  0
  135.3980   83.7880  227.1620 C   0  0  0  0  0  0  0  0  0  0  0  0
  134.6710   84.7920  227.7130 F   0  0  0  0  0  0  0  0  0  0  0  0
  135.7660   83.8550  225.8060 C   0  0  0  0  0  0  0  0  0  0  0  0
  136.5180   82.8030  225.2830 C   0  0  0  0  0  0  0  0  0  0  0  0
  136.9690   82.6680  224.0250 N   0  0  0  0  0  0  0  0  0  0  0  0
  140.6740   80.2400  223.1800 C   0  0  0  0  0  0  0  0  0  0  0  0
  141.1680   81.3850  223.8170 C   0  0  0  0  0  0  0  0  0  0  0  0
  142.5550   81.5050  223.9980 C   0  0  0  0  0  0  0  0  0  0  0  0
  143.4180   80.4880  223.5490 C   0  0  0  0  0  0  0  0  0  0  0  0
  142.8980   79.3450  222.9240 C   0  0  0  0  0  0  0  0  0  0  0  0
  141.5100   79.2410  222.7580 C   0  0  0  0  0  0  0  0  0  0  0  0
  141.0930   77.9490  220.6310 C   0  0  0  0  0  0  0  0  0  0  0  0
  143.2430   76.1370  219.7250 C   0  0  0  0  0  0  0  0  0  0  0  0
  143.8480   74.9940  220.4290 N   0  0  0  0  0  0  0  0  0  0  0  0
  145.8844   73.2380  219.9326 H   0  0  0  0  0  0  0  0  0  0  0  0
  145.1104   72.4926  218.4931 H   0  0  0  0  0  0  0  0  0  0  0  0
  145.5077   74.2444  218.4931 H   0  0  0  0  0  0  0  0  0  0  0  0
  143.4939   72.9403  220.4168 H   0  0  0  0  0  0  0  0  0  0  0  0
  143.1030   74.1602  217.6789 H   0  0  0  0  0  0  0  0  0  0  0  0
  142.4565   72.6247  218.3728 H   0  0  0  0  0  0  0  0  0  0  0  0
  140.6899   74.3462  218.2421 H   0  0  0  0  0  0  0  0  0  0  0  0
  141.0712   73.9268  219.9551 H   0  0  0  0  0  0  0  0  0  0  0  0
  141.5776   76.4046  218.3815 H   0  0  0  0  0  0  0  0  0  0  0  0
  139.6621   75.4136  221.6761 H   0  0  0  0  0  0  0  0  0  0  0  0
  141.3826   74.9466  221.6124 H   0  0  0  0  0  0  0  0  0  0  0  0
  140.3148   76.5865  223.5689 H   0  0  0  0  0  0  0  0  0  0  0  0
  142.0079   76.6646  223.1036 H   0  0  0  0  0  0  0  0  0  0  0  0
  138.7318   78.6737  221.3179 H   0  0  0  0  0  0  0  0  0  0  0  0
  138.6672   77.9065  222.9127 H   0  0  0  0  0  0  0  0  0  0  0  0
  138.0298   79.8953  225.5293 H   0  0  0  0  0  0  0  0  0  0  0  0
  136.8329   80.7654  228.0015 H   0  0  0  0  0  0  0  0  0  0  0  0
  135.4897   82.6433  229.0130 H   0  0  0  0  0  0  0  0  0  0  0  0
  135.4705   84.7089  225.1787 H   0  0  0  0  0  0  0  0  0  0  0  0
  136.8080   83.3240  223.2310 H   0  0  0  0  0  0  0  0  0  0  0  0
  140.4848   82.1726  224.1676 H   0  0  0  0  0  0  0  0  0  0  0  0
  142.9684   82.3965  224.4922 H   0  0  0  0  0  0  0  0  0  0  0  0
  144.5043   80.5898  223.6887 H   0  0  0  0  0  0  0  0  0  0  0  0
  143.5664   78.5458  222.5710 H   0  0  0  0  0  0  0  0  0  0  0  0
  140.4748   78.6017  219.9971 H   0  0  0  0  0  0  0  0  0  0  0  0
  142.1465   78.2082  220.4494 H   0  0  0  0  0  0  0  0  0  0  0  0
  143.8170   76.3263  218.8060 H   0  0  0  0  0  0  0  0  0  0  0  0
  143.2696   76.9969  220.4104 H   0  0  0  0  0  0  0  0  0  0  0  0
  143.4100   74.8890  221.3710 H   0  0  0  0  0  0  0  0  0  0  0  0
  1  2  1  0
  2  3  1  0
  3  4  1  0
  4  5  1  0
  5  6  1  0
  6  7  1  0
  7  8  1  0
  9  8  1  1
  9 10  1  0
 10 11  1  0
 11 12  1  0
 12 13  2  0
 12 14  1  0
 14 15  2  0
 15 16  1  0
 16 17  2  0
 17 18  1  0
 18 19  2  0
 19 20  1  0
 19 21  1  0
 21 22  2  0
 22 23  1  0
 11 24  1  0
 24 25  2  0
 25 26  1  0
 26 27  2  0
 27 28  1  0
 28 29  2  0
  9 30  1  0
  5 31  1  0
 31 32  1  0
 32  2  1  0
 30  6  1  0
 29  9  1  0
 23 14  1  0
 29 24  1  0
 22 16  1  0
  1 33  1  0
  1 34  1  0
  1 35  1  0
  2 36  1  1
  3 37  1  0
  3 38  1  0
  4 39  1  0
  4 40  1  0
  5 41  1  6
  7 42  1  0
  7 43  1  0
  8 44  1  0
  8 45  1  0
 10 46  1  0
 10 47  1  0
 15 48  1  0
 17 49  1  0
 18 50  1  0
 21 51  1  0
 23 52  1  0
 25 53  1  0
 26 54  1  0
 27 55  1  0
 28 56  1  0
 30 57  1  0
 30 58  1  0
 31 59  1  0
 31 60  1  0
 32 61  1  0
M  END
>  <UniqueID>  (61) 
95

>  <SMILES>  (61) 
C[C@@H]1CC[C@@H](N2CC[C@]3(CN(C(=O)c4cc5ccc(F)cc5[nH]4)c4ccccc43)C2)CN1

>  <Energy>  (61) 
135.06761424271122

>  <Genealogy>  (61) 
C[C@@H]1CC[C@@H](N2CC[C@]3(CN(C(=O)c4cc5ccc(F)cc5[nH]4)c4ccccc43)C2)CN1 (chirality)
C[C@@H]1CC[C@@H](N2CC[C@]3(CN(C(=O)c4cc5ccc(F)cc5[nH]4)c4ccccc43)C2)CN1 (3D coordinates assigned)
C[C@@H]1CC[C@@H](N2CC[C@]3(CN(C(=O)c4cc5ccc(F)cc5[nH]4)c4ccccc43)C2)CN1 (nonaromatic ring conformer: 135.06761424271122 kcal/mol)

>  <smiles>  (61) 
C[C@@H]1CCC(N2CC[C@]3(CN(C(=O)c4cc5ccc(F)cc5[nH]4)c4ccccc43)C2)CN1

>  <score_type>  (61) 
oracle

>  <origin>  (61) 
autodockgpu

>  <m_score__min__energy>  (61) 
-9.3300000000000001

>  <m_primary>  (61) 
energy

>  <meeko>  (61) 
{"free_energy": -8.4, "intermolecular_energy": -9.29, "internal_energy": -1.34, "cluster_size": 1, "cluster_id": 2, "rank_in_cluster": 1}

>  <energy>  (61) 
-9.33

>  <cluster_rmsd>  (61) 
0.0

>  <rmsd>  (61) 
270.78

>  <cluster>  (61) 
1

$$$$
MYPHZBOANNRFAS-AGTLBBOYNA-N
     RDKit          3D

 61 66  0  0  0  0  0  0  0  0999 V2000
  142.8470   80.5180  223.8480 C   0  0  0  0  0  0  0  0  0  0  0  0
  142.5740   79.4190  222.8190 C   0  0  2  0  0  0  0  0  0  0  0  0
  141.9150   80.0110  221.5500 C   0  0  0  0  0  0  0  0  0  0  0  0
  141.2440   78.9110  220.7300 C   0  0  0  0  0  0  0  0  0  0  0  0
  140.1280   78.2160  221.5590 C   0  0  1  0  0  0  0  0  0  0  0  0
  139.8290   76.8210  221.1430 N   0  0  0  0  0  0  0  0  0  0  0  0
  139.7190   76.6370  219.6850 C   0  0  0  0  0  0  0  0  0  0  0  0
  140.6660   75.5160  219.2850 C   0  0  0  0  0  0  0  0  0  0  0  0
  140.8550   74.7170  220.5700 C   0  0  1  0  0  0  0  0  0  0  0  0
  139.8000   73.5660  220.7240 C   0  0  0  0  0  0  0  0  0  0  0  0
  140.5710   72.3390  220.9550 N   0  0  0  0  0  0  0  0  0  0  0  0
  140.0330   71.1900  221.6280 C   0  0  0  0  0  0  0  0  0  0  0  0
  139.4300   70.3030  220.9670 O   0  0  0  0  0  0  0  0  0  0  0  0
  140.1990   71.0170  223.0790 C   0  0  0  0  0  0  0  0  0  0  0  0
  140.7050   71.9890  223.9410 C   0  0  0  0  0  0  0  0  0  0  0  0
  140.7120   71.3920  225.1810 C   0  0  0  0  0  0  0  0  0  0  0  0
  141.1110   71.8870  226.4210 C   0  0  0  0  0  0  0  0  0  0  0  0
  141.0150   71.0290  227.5300 C   0  0  0  0  0  0  0  0  0  0  0  0
  140.5330   69.7110  227.3760 C   0  0  0  0  0  0  0  0  0  0  0  0
  140.4470   68.8930  228.4550 F   0  0  0  0  0  0  0  0  0  0  0  0
  140.1380   69.2400  226.1100 C   0  0  0  0  0  0  0  0  0  0  0  0
  140.2370   70.1160  225.0300 C   0  0  0  0  0  0  0  0  0  0  0  0
  139.9200   69.8720  223.7480 N   0  0  0  0  0  0  0  0  0  0  0  0
  141.9540   72.6510  220.8660 C   0  0  0  0  0  0  0  0  0  0  0  0
  143.0230   71.7520  220.9710 C   0  0  0  0  0  0  0  0  0  0  0  0
  144.3300   72.2470  220.8490 C   0  0  0  0  0  0  0  0  0  0  0  0
  144.5490   73.6180  220.6220 C   0  0  0  0  0  0  0  0  0  0  0  0
  143.4610   74.4980  220.5100 C   0  0  0  0  0  0  0  0  0  0  0  0
  142.1640   73.9830  220.6280 C   0  0  0  0  0  0  0  0  0  0  0  0
  140.7250   75.7770  221.6690 C   0  0  0  0  0  0  0  0  0  0  0  0
  140.3650   78.3170  223.0910 C   0  0  0  0  0  0  0  0  0  0  0  0
  141.7910   78.3380  223.4540 N   0  0  0  0  0  0  0  0  0  0  0  0
  142.7443   80.1045  224.8621 H   0  0  0  0  0  0  0  0  0  0  0  0
  143.8681   80.9033  223.7108 H   0  0  0  0  0  0  0  0  0  0  0  0
  142.1248   81.3363  223.7108 H   0  0  0  0  0  0  0  0  0  0  0  0
  143.5180   78.9702  222.4763 H   0  0  0  0  0  0  0  0  0  0  0  0
  141.1588   80.7524  221.8476 H   0  0  0  0  0  0  0  0  0  0  0  0
  142.6932   80.4870  220.9353 H   0  0  0  0  0  0  0  0  0  0  0  0
  140.8006   79.3533  219.8257 H   0  0  0  0  0  0  0  0  0  0  0  0
  142.0007   78.1616  220.4545 H   0  0  0  0  0  0  0  0  0  0  0  0
  139.2216   78.7936  221.3249 H   0  0  0  0  0  0  0  0  0  0  0  0
  138.6863   76.3673  219.4187 H   0  0  0  0  0  0  0  0  0  0  0  0
  139.9810   77.5672  219.1595 H   0  0  0  0  0  0  0  0  0  0  0  0
  140.2208   74.8903  218.4974 H   0  0  0  0  0  0  0  0  0  0  0  0
  141.6159   75.8900  218.8753 H   0  0  0  0  0  0  0  0  0  0  0  0
  139.1368   73.7672  221.5782 H   0  0  0  0  0  0  0  0  0  0  0  0
  139.1641   73.4801  219.8306 H   0  0  0  0  0  0  0  0  0  0  0  0
  141.0278   73.0092  223.6860 H   0  0  0  0  0  0  0  0  0  0  0  0
  141.4884   72.9147  226.5282 H   0  0  0  0  0  0  0  0  0  0  0  0
  141.3176   71.3870  228.5251 H   0  0  0  0  0  0  0  0  0  0  0  0
  139.7634   68.2143  225.9770 H   0  0  0  0  0  0  0  0  0  0  0  0
  139.5660   68.9740  223.3540 H   0  0  0  0  0  0  0  0  0  0  0  0
  142.8416   70.6811  221.1453 H   0  0  0  0  0  0  0  0  0  0  0  0
  145.1861   71.5611  220.9311 H   0  0  0  0  0  0  0  0  0  0  0  0
  145.5760   74.0016  220.5320 H   0  0  0  0  0  0  0  0  0  0  0  0
  143.6240   75.5713  220.3330 H   0  0  0  0  0  0  0  0  0  0  0  0
  140.2952   75.3306  222.5779 H   0  0  0  0  0  0  0  0  0  0  0  0
  141.7072   76.1946  221.9355 H   0  0  0  0  0  0  0  0  0  0  0  0
  139.8967   79.2424  223.4575 H   0  0  0  0  0  0  0  0  0  0  0  0
  139.9223   77.4214  223.5513 H   0  0  0  0  0  0  0  0  0  0  0  0
  142.2210   77.4100  223.2440 H   0  0  0  0  0  0  0  0  0  0  0  0
  1  2  1  0
  2  3  1  0
  3  4  1  0
  4  5  1  0
  5  6  1  0
  6  7  1  0
  7  8  1  0
  9  8  1  6
  9 10  1  0
 10 11  1  0
 11 12  1  0
 12 13  2  0
 12 14  1  0
 14 15  2  0
 15 16  1  0
 16 17  2  0
 17 18  1  0
 18 19  2  0
 19 20  1  0
 19 21  1  0
 21 22  2  0
 22 23  1  0
 11 24  1  0
 24 25  2  0
 25 26  1  0
 26 27  2  0
 27 28  1  0
 28 29  2  0
  9 30  1  0
  5 31  1  0
 31 32  1  0
 32  2  1  0
 30  6  1  0
 29  9  1  0
 23 14  1  0
 29 24  1  0
 22 16  1  0
  1 33  1  0
  1 34  1  0
  1 35  1  0
  2 36  1  6
  3 37  1  0
  3 38  1  0
  4 39  1  0
  4 40  1  0
  5 41  1  1
  7 42  1  0
  7 43  1  0
  8 44  1  0
  8 45  1  0
 10 46  1  0
 10 47  1  0
 15 48  1  0
 17 49  1  0
 18 50  1  0
 21 51  1  0
 23 52  1  0
 25 53  1  0
 26 54  1  0
 27 55  1  0
 28 56  1  0
 30 57  1  0
 30 58  1  0
 31 59  1  0
 31 60  1  0
 32 61  1  0
M  END
>  <UniqueID>  (62) 
95

>  <SMILES>  (62) 
C[C@@H]1CC[C@@H](N2CC[C@]3(CN(C(=O)c4cc5ccc(F)cc5[nH]4)c4ccccc43)C2)CN1

>  <Energy>  (62) 
135.06761424271122

>  <Genealogy>  (62) 
C[C@@H]1CC[C@@H](N2CC[C@]3(CN(C(=O)c4cc5ccc(F)cc5[nH]4)c4ccccc43)C2)CN1 (chirality)
C[C@@H]1CC[C@@H](N2CC[C@]3(CN(C(=O)c4cc5ccc(F)cc5[nH]4)c4ccccc43)C2)CN1 (3D coordinates assigned)
C[C@@H]1CC[C@@H](N2CC[C@]3(CN(C(=O)c4cc5ccc(F)cc5[nH]4)c4ccccc43)C2)CN1 (nonaromatic ring conformer: 135.06761424271122 kcal/mol)

>  <smiles>  (62) 
C[C@@H]1CCC(N2CC[C@]3(CN(C(=O)c4cc5ccc(F)cc5[nH]4)c4ccccc43)C2)CN1

>  <score_type>  (62) 
oracle

>  <origin>  (62) 
autodockgpu

>  <m_score__min__energy>  (62) 
-9.3300000000000001

>  <m_primary>  (62) 
energy

>  <meeko>  (62) 
{"free_energy": -9.33, "intermolecular_energy": -10.22, "internal_energy": -1.55, "cluster_size": 19, "cluster_id": 1, "rank_in_cluster": 1}

>  <energy>  (62) 
-9.33

>  <cluster_rmsd>  (62) 
0.11

>  <rmsd>  (62) 
270.78

>  <cluster>  (62) 
1

$$$$
MYPHZBOANNRFAS-AGTLBBOYNA-N
     RDKit          3D

 61 66  0  0  0  0  0  0  0  0999 V2000
  142.8270   80.5320  223.7480 C   0  0  0  0  0  0  0  0  0  0  0  0
  142.5300   79.4090  222.7540 C   0  0  2  0  0  0  0  0  0  0  0  0
  141.8410   79.9690  221.4870 C   0  0  0  0  0  0  0  0  0  0  0  0
  141.1510   78.8490  220.7100 C   0  0  0  0  0  0  0  0  0  0  0  0
  140.0550   78.1760  221.5830 C   0  0  1  0  0  0  0  0  0  0  0  0
  139.7460   76.7710  221.2090 N   0  0  0  0  0  0  0  0  0  0  0  0
  139.5760   76.5560  219.7610 C   0  0  0  0  0  0  0  0  0  0  0  0
  140.5120   75.4310  219.3460 C   0  0  0  0  0  0  0  0  0  0  0  0
  140.7580   74.6600  220.6380 C   0  0  1  0  0  0  0  0  0  0  0  0
  139.7160   73.5080  220.8590 C   0  0  0  0  0  0  0  0  0  0  0  0
  140.5020   72.2900  221.0840 N   0  0  0  0  0  0  0  0  0  0  0  0
  139.9980   71.1530  221.8030 C   0  0  0  0  0  0  0  0  0  0  0  0
  139.4140   70.2260  221.1790 O   0  0  0  0  0  0  0  0  0  0  0  0
  140.1770   71.0380  223.2570 C   0  0  0  0  0  0  0  0  0  0  0  0
  140.6820   72.0470  224.0770 C   0  0  0  0  0  0  0  0  0  0  0  0
  140.7040   71.4990  225.3400 C   0  0  0  0  0  0  0  0  0  0  0  0
  141.1090   72.0450  226.5550 C   0  0  0  0  0  0  0  0  0  0  0  0
  141.0280   71.2310  227.6980 C   0  0  0  0  0  0  0  0  0  0  0  0
  140.5550   69.9040  227.6000 C   0  0  0  0  0  0  0  0  0  0  0  0
  140.4840   69.1280  228.7110 F   0  0  0  0  0  0  0  0  0  0  0  0
  140.1540   69.3810  226.3570 C   0  0  0  0  0  0  0  0  0  0  0  0
  140.2380   70.2150  225.2420 C   0  0  0  0  0  0  0  0  0  0  0  0
  139.9110   69.9180  223.9740 N   0  0  0  0  0  0  0  0  0  0  0  0
  141.8780   72.6050  220.9310 C   0  0  0  0  0  0  0  0  0  0  0  0
  142.9540   71.7130  221.0100 C   0  0  0  0  0  0  0  0  0  0  0  0
  144.2530   72.2110  220.8230 C   0  0  0  0  0  0  0  0  0  0  0  0
  144.4560   73.5780  220.5590 C   0  0  0  0  0  0  0  0  0  0  0  0
  143.3600   74.4510  220.4740 C   0  0  0  0  0  0  0  0  0  0  0  0
  142.0710   73.9330  220.6560 C   0  0  0  0  0  0  0  0  0  0  0  0
  140.6680   75.7420  221.7180 C   0  0  0  0  0  0  0  0  0  0  0  0
  140.3270   78.3150  223.1060 C   0  0  0  0  0  0  0  0  0  0  0  0
  141.7620   78.3440  223.4340 N   0  0  0  0  0  0  0  0  0  0  0  0
  142.7258   80.1495  224.7744 H   0  0  0  0  0  0  0  0  0  0  0  0
  143.8527   80.8976  223.5924 H   0  0  0  0  0  0  0  0  0  0  0  0
  142.1161   81.3569  223.5924 H   0  0  0  0  0  0  0  0  0  0  0  0
  143.4660   78.9519  222.4004 H   0  0  0  0  0  0  0  0  0  0  0  0
  141.0917   80.7176  221.7840 H   0  0  0  0  0  0  0  0  0  0  0  0
  142.6044   80.4293  220.8425 H   0  0  0  0  0  0  0  0  0  0  0  0
  140.6863   79.2688  219.8057 H   0  0  0  0  0  0  0  0  0  0  0  0
  141.9008   78.0927  220.4348 H   0  0  0  0  0  0  0  0  0  0  0  0
  139.1438   78.7490  221.3563 H   0  0  0  0  0  0  0  0  0  0  0  0
  138.5347   76.2760  219.5438 H   0  0  0  0  0  0  0  0  0  0  0  0
  139.8103   77.4760  219.2054 H   0  0  0  0  0  0  0  0  0  0  0  0
  140.0383   74.7869  218.5905 H   0  0  0  0  0  0  0  0  0  0  0  0
  141.4423   75.8008  218.8901 H   0  0  0  0  0  0  0  0  0  0  0  0
  139.0870   73.7244  221.7351 H   0  0  0  0  0  0  0  0  0  0  0  0
  139.0446   73.4004  219.9943 H   0  0  0  0  0  0  0  0  0  0  0  0
  140.9943   73.0590  223.7798 H   0  0  0  0  0  0  0  0  0  0  0  0
  141.4799   73.0786  226.6183 H   0  0  0  0  0  0  0  0  0  0  0  0
  141.3352   71.6304  228.6758 H   0  0  0  0  0  0  0  0  0  0  0  0
  139.7863   68.3482  226.2673 H   0  0  0  0  0  0  0  0  0  0  0  0
  139.5610   69.0030  223.6180 H   0  0  0  0  0  0  0  0  0  0  0  0
  142.7853   70.6454  221.2141 H   0  0  0  0  0  0  0  0  0  0  0  0
  145.1150   71.5303  220.8830 H   0  0  0  0  0  0  0  0  0  0  0  0
  145.4765   73.9638  220.4188 H   0  0  0  0  0  0  0  0  0  0  0  0
  143.5103   75.5211  220.2685 H   0  0  0  0  0  0  0  0  0  0  0  0
  140.2787   75.3130  222.6531 H   0  0  0  0  0  0  0  0  0  0  0  0
  141.6583   76.1694  221.9339 H   0  0  0  0  0  0  0  0  0  0  0  0
  139.8675   79.2496  223.4602 H   0  0  0  0  0  0  0  0  0  0  0  0
  139.8946   77.4320  223.5993 H   0  0  0  0  0  0  0  0  0  0  0  0
  142.1860   77.4100  223.2370 H   0  0  0  0  0  0  0  0  0  0  0  0
  1  2  1  0
  2  3  1  0
  3  4  1  0
  4  5  1  0
  5  6  1  0
  6  7  1  0
  7  8  1  0
  9  8  1  6
  9 10  1  0
 10 11  1  0
 11 12  1  0
 12 13  2  0
 12 14  1  0
 14 15  2  0
 15 16  1  0
 16 17  2  0
 17 18  1  0
 18 19  2  0
 19 20  1  0
 19 21  1  0
 21 22  2  0
 22 23  1  0
 11 24  1  0
 24 25  2  0
 25 26  1  0
 26 27  2  0
 27 28  1  0
 28 29  2  0
  9 30  1  0
  5 31  1  0
 31 32  1  0
 32  2  1  0
 30  6  1  0
 29  9  1  0
 23 14  1  0
 29 24  1  0
 22 16  1  0
  1 33  1  0
  1 34  1  0
  1 35  1  0
  2 36  1  6
  3 37  1  0
  3 38  1  0
  4 39  1  0
  4 40  1  0
  5 41  1  1
  7 42  1  0
  7 43  1  0
  8 44  1  0
  8 45  1  0
 10 46  1  0
 10 47  1  0
 15 48  1  0
 17 49  1  0
 18 50  1  0
 21 51  1  0
 23 52  1  0
 25 53  1  0
 26 54  1  0
 27 55  1  0
 28 56  1  0
 30 57  1  0
 30 58  1  0
 31 59  1  0
 31 60  1  0
 32 61  1  0
M  END
>  <UniqueID>  (63) 
95

>  <SMILES>  (63) 
C[C@@H]1CC[C@@H](N2CC[C@]3(CN(C(=O)c4cc5ccc(F)cc5[nH]4)c4ccccc43)C2)CN1

>  <Energy>  (63) 
135.06761424271122

>  <Genealogy>  (63) 
C[C@@H]1CC[C@@H](N2CC[C@]3(CN(C(=O)c4cc5ccc(F)cc5[nH]4)c4ccccc43)C2)CN1 (chirality)
C[C@@H]1CC[C@@H](N2CC[C@]3(CN(C(=O)c4cc5ccc(F)cc5[nH]4)c4ccccc43)C2)CN1 (3D coordinates assigned)
C[C@@H]1CC[C@@H](N2CC[C@]3(CN(C(=O)c4cc5ccc(F)cc5[nH]4)c4ccccc43)C2)CN1 (nonaromatic ring conformer: 135.06761424271122 kcal/mol)

>  <smiles>  (63) 
C[C@@H]1CCC(N2CC[C@]3(CN(C(=O)c4cc5ccc(F)cc5[nH]4)c4ccccc43)C2)CN1

>  <score_type>  (63) 
oracle

>  <origin>  (63) 
autodockgpu

>  <m_score__min__energy>  (63) 
-9.3300000000000001

>  <m_primary>  (63) 
energy

>  <meeko>  (63) 
{"free_energy": -9.32, "intermolecular_energy": -10.22, "internal_energy": -1.55, "cluster_size": 19, "cluster_id": 1, "rank_in_cluster": 10}

>  <energy>  (63) 
-9.33

>  <cluster_rmsd>  (63) 
0.21

>  <rmsd>  (63) 
270.75

>  <cluster>  (63) 
1

$$$$
MYPHZBOANNRFAS-AGTLBBOYNA-N
     RDKit          3D

 61 66  0  0  0  0  0  0  0  0999 V2000
  142.8670   80.5500  223.7560 C   0  0  0  0  0  0  0  0  0  0  0  0
  142.5560   79.4420  222.7480 C   0  0  2  0  0  0  0  0  0  0  0  0
  141.8440   80.0210  221.5020 C   0  0  0  0  0  0  0  0  0  0  0  0
  141.1440   78.9130  220.7190 C   0  0  0  0  0  0  0  0  0  0  0  0
  140.0650   78.2220  221.5980 C   0  0  1  0  0  0  0  0  0  0  0  0
  139.7540   76.8220  221.2060 N   0  0  0  0  0  0  0  0  0  0  0  0
  139.5970   76.6240  219.7540 C   0  0  0  0  0  0  0  0  0  0  0  0
  140.5320   75.4990  219.3360 C   0  0  0  0  0  0  0  0  0  0  0  0
  140.7620   74.7130  220.6220 C   0  0  1  0  0  0  0  0  0  0  0  0
  139.7140   73.5630  220.8200 C   0  0  0  0  0  0  0  0  0  0  0  0
  140.4920   72.3390  221.0390 N   0  0  0  0  0  0  0  0  0  0  0  0
  139.9770   71.1960  221.7400 C   0  0  0  0  0  0  0  0  0  0  0  0
  139.3860   70.2850  221.1020 O   0  0  0  0  0  0  0  0  0  0  0  0
  140.1520   71.0590  223.1930 C   0  0  0  0  0  0  0  0  0  0  0  0
  140.6920   72.0400  224.0240 C   0  0  0  0  0  0  0  0  0  0  0  0
  140.6960   71.4780  225.2800 C   0  0  0  0  0  0  0  0  0  0  0  0
  141.1200   71.9960  226.5020 C   0  0  0  0  0  0  0  0  0  0  0  0
  141.0120   71.1710  227.6360 C   0  0  0  0  0  0  0  0  0  0  0  0
  140.4930   69.8620  227.5220 C   0  0  0  0  0  0  0  0  0  0  0  0
  140.3970   69.0770  228.6240 F   0  0  0  0  0  0  0  0  0  0  0  0
  140.0740   69.3680  226.2740 C   0  0  0  0  0  0  0  0  0  0  0  0
  140.1860   70.2110  225.1690 C   0  0  0  0  0  0  0  0  0  0  0  0
  139.8490   69.9400  223.8970 N   0  0  0  0  0  0  0  0  0  0  0  0
  141.8720   72.6500  220.9030 C   0  0  0  0  0  0  0  0  0  0  0  0
  142.9430   71.7530  220.9820 C   0  0  0  0  0  0  0  0  0  0  0  0
  144.2460   72.2470  220.8140 C   0  0  0  0  0  0  0  0  0  0  0  0
  144.4570   73.6160  220.5670 C   0  0  0  0  0  0  0  0  0  0  0  0
  143.3650   74.4950  220.4800 C   0  0  0  0  0  0  0  0  0  0  0  0
  142.0730   73.9800  220.6450 C   0  0  0  0  0  0  0  0  0  0  0  0
  140.6670   75.7840  221.7130 C   0  0  0  0  0  0  0  0  0  0  0  0
  140.3630   78.3360  223.1190 C   0  0  0  0  0  0  0  0  0  0  0  0
  141.8030   78.3630  223.4230 N   0  0  0  0  0  0  0  0  0  0  0  0
  142.7569   80.1577  224.7777 H   0  0  0  0  0  0  0  0  0  0  0  0
  143.8986   80.9018  223.6075 H   0  0  0  0  0  0  0  0  0  0  0  0
  142.1692   81.3872  223.6075 H   0  0  0  0  0  0  0  0  0  0  0  0
  143.4871   78.9938  222.3710 H   0  0  0  0  0  0  0  0  0  0  0  0
  141.0981   80.7626  221.8240 H   0  0  0  0  0  0  0  0  0  0  0  0
  142.5952   80.4938  220.8523 H   0  0  0  0  0  0  0  0  0  0  0  0
  140.6629   79.3467  219.8299 H   0  0  0  0  0  0  0  0  0  0  0  0
  141.8912   78.1635  220.4190 H   0  0  0  0  0  0  0  0  0  0  0  0
  139.1484   78.7955  221.3958 H   0  0  0  0  0  0  0  0  0  0  0  0
  138.5565   76.3513  219.5236 H   0  0  0  0  0  0  0  0  0  0  0  0
  139.8407   77.5489  219.2108 H   0  0  0  0  0  0  0  0  0  0  0  0
  140.0627   74.8652  218.5691 H   0  0  0  0  0  0  0  0  0  0  0  0
  141.4683   75.8694  218.8932 H   0  0  0  0  0  0  0  0  0  0  0  0
  139.0774   73.7723  221.6924 H   0  0  0  0  0  0  0  0  0  0  0  0
  139.0511   73.4679  219.9473 H   0  0  0  0  0  0  0  0  0  0  0  0
  141.0390   73.0439  223.7379 H   0  0  0  0  0  0  0  0  0  0  0  0
  141.5255   73.0158  226.5773 H   0  0  0  0  0  0  0  0  0  0  0  0
  141.3338   71.5475  228.6182 H   0  0  0  0  0  0  0  0  0  0  0  0
  139.6709   68.3495  226.1727 H   0  0  0  0  0  0  0  0  0  0  0  0
  139.4680   69.0420  223.5310 H   0  0  0  0  0  0  0  0  0  0  0  0
  142.7676   70.6838  221.1717 H   0  0  0  0  0  0  0  0  0  0  0  0
  145.1045   71.5620  220.8756 H   0  0  0  0  0  0  0  0  0  0  0  0
  145.4805   73.9991  220.4416 H   0  0  0  0  0  0  0  0  0  0  0  0
  143.5213   75.5664  220.2861 H   0  0  0  0  0  0  0  0  0  0  0  0
  140.2673   75.3470  222.6400 H   0  0  0  0  0  0  0  0  0  0  0  0
  141.6571   76.2047  221.9428 H   0  0  0  0  0  0  0  0  0  0  0  0
  139.9076   79.2633  223.4968 H   0  0  0  0  0  0  0  0  0  0  0  0
  139.9411   77.4436  223.6045 H   0  0  0  0  0  0  0  0  0  0  0  0
  142.2270   77.4350  223.2030 H   0  0  0  0  0  0  0  0  0  0  0  0
  1  2  1  0
  2  3  1  0
  3  4  1  0
  4  5  1  0
  5  6  1  0
  6  7  1  0
  7  8  1  0
  9  8  1  6
  9 10  1  0
 10 11  1  0
 11 12  1  0
 12 13  2  0
 12 14  1  0
 14 15  2  0
 15 16  1  0
 16 17  2  0
 17 18  1  0
 18 19  2  0
 19 20  1  0
 19 21  1  0
 21 22  2  0
 22 23  1  0
 11 24  1  0
 24 25  2  0
 25 26  1  0
 26 27  2  0
 27 28  1  0
 28 29  2  0
  9 30  1  0
  5 31  1  0
 31 32  1  0
 32  2  1  0
 30  6  1  0
 29  9  1  0
 23 14  1  0
 29 24  1  0
 22 16  1  0
  1 33  1  0
  1 34  1  0
  1 35  1  0
  2 36  1  6
  3 37  1  0
  3 38  1  0
  4 39  1  0
  4 40  1  0
  5 41  1  1
  7 42  1  0
  7 43  1  0
  8 44  1  0
  8 45  1  0
 10 46  1  0
 10 47  1  0
 15 48  1  0
 17 49  1  0
 18 50  1  0
 21 51  1  0
 23 52  1  0
 25 53  1  0
 26 54  1  0
 27 55  1  0
 28 56  1  0
 30 57  1  0
 30 58  1  0
 31 59  1  0
 31 60  1  0
 32 61  1  0
M  END
>  <UniqueID>  (64) 
95

>  <SMILES>  (64) 
C[C@@H]1CC[C@@H](N2CC[C@]3(CN(C(=O)c4cc5ccc(F)cc5[nH]4)c4ccccc43)C2)CN1

>  <Energy>  (64) 
135.06761424271122

>  <Genealogy>  (64) 
C[C@@H]1CC[C@@H](N2CC[C@]3(CN(C(=O)c4cc5ccc(F)cc5[nH]4)c4ccccc43)C2)CN1 (chirality)
C[C@@H]1CC[C@@H](N2CC[C@]3(CN(C(=O)c4cc5ccc(F)cc5[nH]4)c4ccccc43)C2)CN1 (3D coordinates assigned)
C[C@@H]1CC[C@@H](N2CC[C@]3(CN(C(=O)c4cc5ccc(F)cc5[nH]4)c4ccccc43)C2)CN1 (nonaromatic ring conformer: 135.06761424271122 kcal/mol)

>  <smiles>  (64) 
C[C@@H]1CCC(N2CC[C@]3(CN(C(=O)c4cc5ccc(F)cc5[nH]4)c4ccccc43)C2)CN1

>  <score_type>  (64) 
oracle

>  <origin>  (64) 
autodockgpu

>  <m_score__min__energy>  (64) 
-9.3300000000000001

>  <m_primary>  (64) 
energy

>  <meeko>  (64) 
{"free_energy": -9.31, "intermolecular_energy": -10.21, "internal_energy": -1.55, "cluster_size": 19, "cluster_id": 1, "rank_in_cluster": 15}

>  <energy>  (64) 
-9.32

>  <cluster_rmsd>  (64) 
0.11

>  <rmsd>  (64) 
270.78

>  <cluster>  (64) 
1

$$$$
MYPHZBOANNRFAS-AGTLBBOYNA-N
     RDKit          3D

 61 66  0  0  0  0  0  0  0  0999 V2000
  142.9010   80.4920  223.7370 C   0  0  0  0  0  0  0  0  0  0  0  0
  142.5640   79.3910  222.7300 C   0  0  2  0  0  0  0  0  0  0  0  0
  141.8580   79.9850  221.4880 C   0  0  0  0  0  0  0  0  0  0  0  0
  141.1320   78.8910  220.7070 C   0  0  0  0  0  0  0  0  0  0  0  0
  140.0440   78.2200  221.5910 C   0  0  1  0  0  0  0  0  0  0  0  0
  139.7040   76.8270  221.2000 N   0  0  0  0  0  0  0  0  0  0  0  0
  139.5410   76.6320  219.7480 C   0  0  0  0  0  0  0  0  0  0  0  0
  140.4530   75.4880  219.3280 C   0  0  0  0  0  0  0  0  0  0  0  0
  140.6690   74.6980  220.6140 C   0  0  1  0  0  0  0  0  0  0  0  0
  139.5980   73.5700  220.8140 C   0  0  0  0  0  0  0  0  0  0  0  0
  140.3520   72.3300  221.0320 N   0  0  0  0  0  0  0  0  0  0  0  0
  139.8150   71.1980  221.7340 C   0  0  0  0  0  0  0  0  0  0  0  0
  139.2070   70.2970  221.0970 O   0  0  0  0  0  0  0  0  0  0  0  0
  139.9880   71.0590  223.1880 C   0  0  0  0  0  0  0  0  0  0  0  0
  140.7140   71.9390  223.9880 C   0  0  0  0  0  0  0  0  0  0  0  0
  140.6350   71.4110  225.2570 C   0  0  0  0  0  0  0  0  0  0  0  0
  141.1690   71.8650  226.4610 C   0  0  0  0  0  0  0  0  0  0  0  0
  140.9300   71.0970  227.6140 C   0  0  0  0  0  0  0  0  0  0  0  0
  140.1770   69.9050  227.5370 C   0  0  0  0  0  0  0  0  0  0  0  0
  139.9560   69.1730  228.6580 F   0  0  0  0  0  0  0  0  0  0  0  0
  139.6520   69.4720  226.3060 C   0  0  0  0  0  0  0  0  0  0  0  0
  139.8980   70.2580  225.1810 C   0  0  0  0  0  0  0  0  0  0  0  0
  139.4950   70.0300  223.9200 N   0  0  0  0  0  0  0  0  0  0  0  0
  141.7370   72.6130  220.8940 C   0  0  0  0  0  0  0  0  0  0  0  0
  142.7910   71.6950  220.9710 C   0  0  0  0  0  0  0  0  0  0  0  0
  144.1030   72.1630  220.8000 C   0  0  0  0  0  0  0  0  0  0  0  0
  144.3410   73.5270  220.5520 C   0  0  0  0  0  0  0  0  0  0  0  0
  143.2670   74.4270  220.4680 C   0  0  0  0  0  0  0  0  0  0  0  0
  141.9650   73.9390  220.6350 C   0  0  0  0  0  0  0  0  0  0  0  0
  140.5970   75.7700  221.7050 C   0  0  0  0  0  0  0  0  0  0  0  0
  140.3520   78.3270  223.1100 C   0  0  0  0  0  0  0  0  0  0  0  0
  141.7930   78.3270  223.4080 N   0  0  0  0  0  0  0  0  0  0  0  0
  142.7820   80.1031  224.7590 H   0  0  0  0  0  0  0  0  0  0  0  0
  143.9405   80.8195  223.5881 H   0  0  0  0  0  0  0  0  0  0  0  0
  142.2229   81.3452  223.5881 H   0  0  0  0  0  0  0  0  0  0  0  0
  143.4841   78.9244  222.3484 H   0  0  0  0  0  0  0  0  0  0  0  0
  141.1285   80.7410  221.8140 H   0  0  0  0  0  0  0  0  0  0  0  0
  142.6154   80.4433  220.8352 H   0  0  0  0  0  0  0  0  0  0  0  0
  140.6549   79.3350  219.8209 H   0  0  0  0  0  0  0  0  0  0  0  0
  141.8629   78.1274  220.4024 H   0  0  0  0  0  0  0  0  0  0  0  0
  139.1376   78.8111  221.3935 H   0  0  0  0  0  0  0  0  0  0  0  0
  138.4949   76.3802  219.5192 H   0  0  0  0  0  0  0  0  0  0  0  0
  139.8026   77.5519  219.2046 H   0  0  0  0  0  0  0  0  0  0  0  0
  139.9698   74.8637  218.5620 H   0  0  0  0  0  0  0  0  0  0  0  0
  141.3958   75.8393  218.8833 H   0  0  0  0  0  0  0  0  0  0  0  0
  138.9673   73.7923  221.6874 H   0  0  0  0  0  0  0  0  0  0  0  0
  138.9316   73.4883  219.9427 H   0  0  0  0  0  0  0  0  0  0  0  0
  141.2360   72.8550  223.6743 H   0  0  0  0  0  0  0  0  0  0  0  0
  141.7578   72.7930  226.5079 H   0  0  0  0  0  0  0  0  0  0  0  0
  141.3324   71.4270  228.5831 H   0  0  0  0  0  0  0  0  0  0  0  0
  139.0665   68.5436  226.2333 H   0  0  0  0  0  0  0  0  0  0  0  0
  138.9480   69.2110  223.5790 H   0  0  0  0  0  0  0  0  0  0  0  0
  142.5951   70.6295  221.1615 H   0  0  0  0  0  0  0  0  0  0  0  0
  144.9478   71.4610  220.8601 H   0  0  0  0  0  0  0  0  0  0  0  0
  145.3716   73.8894  220.4235 H   0  0  0  0  0  0  0  0  0  0  0  0
  143.4447   75.4952  220.2747 H   0  0  0  0  0  0  0  0  0  0  0  0
  140.1900   75.3406  222.6324 H   0  0  0  0  0  0  0  0  0  0  0  0
  141.5957   76.1707  221.9332 H   0  0  0  0  0  0  0  0  0  0  0  0
  139.9158   79.2623  223.4907 H   0  0  0  0  0  0  0  0  0  0  0  0
  139.9164   77.4417  223.5962 H   0  0  0  0  0  0  0  0  0  0  0  0
  142.1980   77.3910  223.1850 H   0  0  0  0  0  0  0  0  0  0  0  0
  1  2  1  0
  2  3  1  0
  3  4  1  0
  4  5  1  0
  5  6  1  0
  6  7  1  0
  7  8  1  0
  9  8  1  6
  9 10  1  0
 10 11  1  0
 11 12  1  0
 12 13  2  0
 12 14  1  0
 14 15  2  0
 15 16  1  0
 16 17  2  0
 17 18  1  0
 18 19  2  0
 19 20  1  0
 19 21  1  0
 21 22  2  0
 22 23  1  0
 11 24  1  0
 24 25  2  0
 25 26  1  0
 26 27  2  0
 27 28  1  0
 28 29  2  0
  9 30  1  0
  5 31  1  0
 31 32  1  0
 32  2  1  0
 30  6  1  0
 29  9  1  0
 23 14  1  0
 29 24  1  0
 22 16  1  0
  1 33  1  0
  1 34  1  0
  1 35  1  0
  2 36  1  6
  3 37  1  0
  3 38  1  0
  4 39  1  0
  4 40  1  0
  5 41  1  1
  7 42  1  0
  7 43  1  0
  8 44  1  0
  8 45  1  0
 10 46  1  0
 10 47  1  0
 15 48  1  0
 17 49  1  0
 18 50  1  0
 21 51  1  0
 23 52  1  0
 25 53  1  0
 26 54  1  0
 27 55  1  0
 28 56  1  0
 30 57  1  0
 30 58  1  0
 31 59  1  0
 31 60  1  0
 32 61  1  0
M  END
>  <UniqueID>  (65) 
95

>  <SMILES>  (65) 
C[C@@H]1CC[C@@H](N2CC[C@]3(CN(C(=O)c4cc5ccc(F)cc5[nH]4)c4ccccc43)C2)CN1

>  <Energy>  (65) 
135.06761424271122

>  <Genealogy>  (65) 
C[C@@H]1CC[C@@H](N2CC[C@]3(CN(C(=O)c4cc5ccc(F)cc5[nH]4)c4ccccc43)C2)CN1 (chirality)
C[C@@H]1CC[C@@H](N2CC[C@]3(CN(C(=O)c4cc5ccc(F)cc5[nH]4)c4ccccc43)C2)CN1 (3D coordinates assigned)
C[C@@H]1CC[C@@H](N2CC[C@]3(CN(C(=O)c4cc5ccc(F)cc5[nH]4)c4ccccc43)C2)CN1 (nonaromatic ring conformer: 135.06761424271122 kcal/mol)

>  <smiles>  (65) 
C[C@@H]1CCC(N2CC[C@]3(CN(C(=O)c4cc5ccc(F)cc5[nH]4)c4ccccc43)C2)CN1

>  <score_type>  (65) 
oracle

>  <origin>  (65) 
autodockgpu

>  <m_score__min__energy>  (65) 
-9.3300000000000001

>  <m_primary>  (65) 
energy

>  <meeko>  (65) 
{"free_energy": -9.3, "intermolecular_energy": -10.2, "internal_energy": -1.54, "cluster_size": 19, "cluster_id": 1, "rank_in_cluster": 18}

>  <energy>  (65) 
-9.32

>  <cluster_rmsd>  (65) 
0.13

>  <rmsd>  (65) 
270.78

>  <cluster>  (65) 
1

$$$$
MYPHZBOANNRFAS-AGTLBBOYNA-N
     RDKit          3D

 61 66  0  0  0  0  0  0  0  0999 V2000
  142.8990   80.5370  223.7440 C   0  0  0  0  0  0  0  0  0  0  0  0
  142.5740   79.4350  222.7350 C   0  0  2  0  0  0  0  0  0  0  0  0
  141.8830   80.0270  221.4840 C   0  0  0  0  0  0  0  0  0  0  0  0
  141.1660   78.9320  220.6960 C   0  0  0  0  0  0  0  0  0  0  0  0
  140.0670   78.2630  221.5690 C   0  0  1  0  0  0  0  0  0  0  0  0
  139.7320   76.8690  221.1750 N   0  0  0  0  0  0  0  0  0  0  0  0
  139.5870   76.6710  219.7220 C   0  0  0  0  0  0  0  0  0  0  0  0
  140.5030   75.5270  219.3150 C   0  0  0  0  0  0  0  0  0  0  0  0
  140.7030   74.7390  220.6050 C   0  0  1  0  0  0  0  0  0  0  0  0
  139.6280   73.6110  220.7950 C   0  0  0  0  0  0  0  0  0  0  0  0
  140.3790   72.3720  221.0240 N   0  0  0  0  0  0  0  0  0  0  0  0
  139.8330   71.2410  221.7210 C   0  0  0  0  0  0  0  0  0  0  0  0
  139.1980   70.3590  221.0830 O   0  0  0  0  0  0  0  0  0  0  0  0
  140.0260   71.0810  223.1700 C   0  0  0  0  0  0  0  0  0  0  0  0
  140.6740   72.0030  223.9900 C   0  0  0  0  0  0  0  0  0  0  0  0
  140.6520   71.4370  225.2450 C   0  0  0  0  0  0  0  0  0  0  0  0
  141.1490   71.9070  226.4580 C   0  0  0  0  0  0  0  0  0  0  0  0
  140.9890   71.0910  227.5920 C   0  0  0  0  0  0  0  0  0  0  0  0
  140.3470   69.8380  227.4870 C   0  0  0  0  0  0  0  0  0  0  0  0
  140.2010   69.0600  228.5890 F   0  0  0  0  0  0  0  0  0  0  0  0
  139.8560   69.3910  226.2470 C   0  0  0  0  0  0  0  0  0  0  0  0
  140.0220   70.2250  225.1420 C   0  0  0  0  0  0  0  0  0  0  0  0
  139.6340   69.9920  223.8770 N   0  0  0  0  0  0  0  0  0  0  0  0
  141.7660   72.6540  220.9020 C   0  0  0  0  0  0  0  0  0  0  0  0
  142.8180   71.7350  220.9940 C   0  0  0  0  0  0  0  0  0  0  0  0
  144.1320   72.2020  220.8390 C   0  0  0  0  0  0  0  0  0  0  0  0
  144.3740   73.5660  220.5920 C   0  0  0  0  0  0  0  0  0  0  0  0
  143.3020   74.4660  220.4920 C   0  0  0  0  0  0  0  0  0  0  0  0
  141.9970   73.9790  220.6440 C   0  0  0  0  0  0  0  0  0  0  0  0
  140.6170   75.8130  221.6940 C   0  0  0  0  0  0  0  0  0  0  0  0
  140.3570   78.3720  223.0910 C   0  0  0  0  0  0  0  0  0  0  0  0
  141.7950   78.3720  223.4060 N   0  0  0  0  0  0  0  0  0  0  0  0
  142.7834   80.1449  224.7652 H   0  0  0  0  0  0  0  0  0  0  0  0
  143.9352   80.8754  223.5963 H   0  0  0  0  0  0  0  0  0  0  0  0
  142.2123   81.3835  223.5963 H   0  0  0  0  0  0  0  0  0  0  0  0
  143.4984   78.9678  222.3646 H   0  0  0  0  0  0  0  0  0  0  0  0
  141.1499   80.7837  221.8002 H   0  0  0  0  0  0  0  0  0  0  0  0
  142.6483   80.4841  220.8395 H   0  0  0  0  0  0  0  0  0  0  0  0
  140.6996   79.3747  219.8035 H   0  0  0  0  0  0  0  0  0  0  0  0
  141.9000   78.1676  220.4009 H   0  0  0  0  0  0  0  0  0  0  0  0
  139.1630   78.8543  221.3614 H   0  0  0  0  0  0  0  0  0  0  0  0
  138.5438   76.4189  219.4809 H   0  0  0  0  0  0  0  0  0  0  0  0
  139.8558   77.5898  219.1803 H   0  0  0  0  0  0  0  0  0  0  0  0
  140.0290   74.9016  218.5441 H   0  0  0  0  0  0  0  0  0  0  0  0
  141.4512   75.8772  218.8811 H   0  0  0  0  0  0  0  0  0  0  0  0
  138.9874   73.8353  221.6606 H   0  0  0  0  0  0  0  0  0  0  0  0
  138.9713   73.5278  219.9165 H   0  0  0  0  0  0  0  0  0  0  0  0
  141.1079   72.9708  223.6985 H   0  0  0  0  0  0  0  0  0  0  0  0
  141.6500   72.8839  226.5268 H   0  0  0  0  0  0  0  0  0  0  0  0
  141.3666   71.4313  228.5675 H   0  0  0  0  0  0  0  0  0  0  0  0
  139.3573   68.4152  226.1521 H   0  0  0  0  0  0  0  0  0  0  0  0
  139.1620   69.1360  223.5170 H   0  0  0  0  0  0  0  0  0  0  0  0
  142.6188   70.6699  221.1837 H   0  0  0  0  0  0  0  0  0  0  0  0
  144.9756   71.4997  220.9108 H   0  0  0  0  0  0  0  0  0  0  0  0
  145.4064   73.9278  220.4770 H   0  0  0  0  0  0  0  0  0  0  0  0
  143.4828   75.5336  220.2980 H   0  0  0  0  0  0  0  0  0  0  0  0
  140.1971   75.3854  222.6164 H   0  0  0  0  0  0  0  0  0  0  0  0
  141.6127   76.2134  221.9356 H   0  0  0  0  0  0  0  0  0  0  0  0
  139.9166   79.3079  223.4652 H   0  0  0  0  0  0  0  0  0  0  0  0
  139.9154   77.4875  223.5734 H   0  0  0  0  0  0  0  0  0  0  0  0
  142.2020   77.4350  223.1890 H   0  0  0  0  0  0  0  0  0  0  0  0
  1  2  1  0
  2  3  1  0
  3  4  1  0
  4  5  1  0
  5  6  1  0
  6  7  1  0
  7  8  1  0
  9  8  1  6
  9 10  1  0
 10 11  1  0
 11 12  1  0
 12 13  2  0
 12 14  1  0
 14 15  2  0
 15 16  1  0
 16 17  2  0
 17 18  1  0
 18 19  2  0
 19 20  1  0
 19 21  1  0
 21 22  2  0
 22 23  1  0
 11 24  1  0
 24 25  2  0
 25 26  1  0
 26 27  2  0
 27 28  1  0
 28 29  2  0
  9 30  1  0
  5 31  1  0
 31 32  1  0
 32  2  1  0
 30  6  1  0
 29  9  1  0
 23 14  1  0
 29 24  1  0
 22 16  1  0
  1 33  1  0
  1 34  1  0
  1 35  1  0
  2 36  1  6
  3 37  1  0
  3 38  1  0
  4 39  1  0
  4 40  1  0
  5 41  1  1
  7 42  1  0
  7 43  1  0
  8 44  1  0
  8 45  1  0
 10 46  1  0
 10 47  1  0
 15 48  1  0
 17 49  1  0
 18 50  1  0
 21 51  1  0
 23 52  1  0
 25 53  1  0
 26 54  1  0
 27 55  1  0
 28 56  1  0
 30 57  1  0
 30 58  1  0
 31 59  1  0
 31 60  1  0
 32 61  1  0
M  END
>  <UniqueID>  (66) 
95

>  <SMILES>  (66) 
C[C@@H]1CC[C@@H](N2CC[C@]3(CN(C(=O)c4cc5ccc(F)cc5[nH]4)c4ccccc43)C2)CN1

>  <Energy>  (66) 
135.06761424271122

>  <Genealogy>  (66) 
C[C@@H]1CC[C@@H](N2CC[C@]3(CN(C(=O)c4cc5ccc(F)cc5[nH]4)c4ccccc43)C2)CN1 (chirality)
C[C@@H]1CC[C@@H](N2CC[C@]3(CN(C(=O)c4cc5ccc(F)cc5[nH]4)c4ccccc43)C2)CN1 (3D coordinates assigned)
C[C@@H]1CC[C@@H](N2CC[C@]3(CN(C(=O)c4cc5ccc(F)cc5[nH]4)c4ccccc43)C2)CN1 (nonaromatic ring conformer: 135.06761424271122 kcal/mol)

>  <smiles>  (66) 
C[C@@H]1CCC(N2CC[C@]3(CN(C(=O)c4cc5ccc(F)cc5[nH]4)c4ccccc43)C2)CN1

>  <score_type>  (66) 
oracle

>  <origin>  (66) 
autodockgpu

>  <m_score__min__energy>  (66) 
-9.3300000000000001

>  <m_primary>  (66) 
energy

>  <meeko>  (66) 
{"free_energy": -9.31, "intermolecular_energy": -10.21, "internal_energy": -1.55, "cluster_size": 19, "cluster_id": 1, "rank_in_cluster": 13}

>  <energy>  (66) 
-9.32

>  <cluster_rmsd>  (66) 
0.14

>  <rmsd>  (66) 
270.8

>  <cluster>  (66) 
1

$$$$
MYPHZBOANNRFAS-AGTLBBOYNA-N
     RDKit          3D

 61 66  0  0  0  0  0  0  0  0999 V2000
  142.8720   80.5050  223.7540 C   0  0  0  0  0  0  0  0  0  0  0  0
  142.5630   79.4010  222.7420 C   0  0  2  0  0  0  0  0  0  0  0  0
  141.8630   79.9860  221.4920 C   0  0  0  0  0  0  0  0  0  0  0  0
  141.1620   78.8820  220.7020 C   0  0  0  0  0  0  0  0  0  0  0  0
  140.0730   78.1960  221.5730 C   0  0  1  0  0  0  0  0  0  0  0  0
  139.7570   76.7990  221.1770 N   0  0  0  0  0  0  0  0  0  0  0  0
  139.6130   76.6020  219.7230 C   0  0  0  0  0  0  0  0  0  0  0  0
  140.5450   75.4720  219.3120 C   0  0  0  0  0  0  0  0  0  0  0  0
  140.7580   74.6840  220.6000 C   0  0  1  0  0  0  0  0  0  0  0  0
  139.7000   73.5400  220.7880 C   0  0  0  0  0  0  0  0  0  0  0  0
  140.4700   72.3110  221.0130 N   0  0  0  0  0  0  0  0  0  0  0  0
  139.9410   71.1710  221.7080 C   0  0  0  0  0  0  0  0  0  0  0  0
  139.3240   70.2780  221.0680 O   0  0  0  0  0  0  0  0  0  0  0  0
  140.1320   71.0140  223.1570 C   0  0  0  0  0  0  0  0  0  0  0  0
  140.6790   71.9840  223.9950 C   0  0  0  0  0  0  0  0  0  0  0  0
  140.6970   71.4050  225.2440 C   0  0  0  0  0  0  0  0  0  0  0  0
  141.1340   71.9070  226.4670 C   0  0  0  0  0  0  0  0  0  0  0  0
  141.0390   71.0660  227.5910 C   0  0  0  0  0  0  0  0  0  0  0  0
  140.5220   69.7580  227.4650 C   0  0  0  0  0  0  0  0  0  0  0  0
  140.4380   68.9580  228.5570 F   0  0  0  0  0  0  0  0  0  0  0  0
  140.0890   69.2800  226.2140 C   0  0  0  0  0  0  0  0  0  0  0  0
  140.1880   70.1390  225.1200 C   0  0  0  0  0  0  0  0  0  0  0  0
  139.8380   69.8850  223.8480 N   0  0  0  0  0  0  0  0  0  0  0  0
  141.8520   72.6140  220.8900 C   0  0  0  0  0  0  0  0  0  0  0  0
  142.9170   71.7100  220.9780 C   0  0  0  0  0  0  0  0  0  0  0  0
  144.2250   72.1970  220.8220 C   0  0  0  0  0  0  0  0  0  0  0  0
  144.4460   73.5640  220.5780 C   0  0  0  0  0  0  0  0  0  0  0  0
  143.3610   74.4500  220.4820 C   0  0  0  0  0  0  0  0  0  0  0  0
  142.0640   73.9430  220.6340 C   0  0  0  0  0  0  0  0  0  0  0  0
  140.6590   75.7540  221.6910 C   0  0  0  0  0  0  0  0  0  0  0  0
  140.3610   78.3060  223.0960 C   0  0  0  0  0  0  0  0  0  0  0  0
  141.7980   78.3250  223.4110 N   0  0  0  0  0  0  0  0  0  0  0  0
  142.7611   80.1088  224.7742 H   0  0  0  0  0  0  0  0  0  0  0  0
  143.9035   80.8581  223.6079 H   0  0  0  0  0  0  0  0  0  0  0  0
  142.1737   81.3423  223.6079 H   0  0  0  0  0  0  0  0  0  0  0  0
  143.4942   78.9483  222.3705 H   0  0  0  0  0  0  0  0  0  0  0  0
  141.1190   80.7312  221.8099 H   0  0  0  0  0  0  0  0  0  0  0  0
  142.6212   80.4558  220.8483 H   0  0  0  0  0  0  0  0  0  0  0  0
  140.6895   79.3194  219.8101 H   0  0  0  0  0  0  0  0  0  0  0  0
  141.9070   78.1288  220.4060 H   0  0  0  0  0  0  0  0  0  0  0  0
  139.1612   78.7753  221.3656 H   0  0  0  0  0  0  0  0  0  0  0  0
  138.5732   76.3355  219.4827 H   0  0  0  0  0  0  0  0  0  0  0  0
  139.8680   77.5258  219.1831 H   0  0  0  0  0  0  0  0  0  0  0  0
  140.0790   74.8417  218.5403 H   0  0  0  0  0  0  0  0  0  0  0  0
  141.4875   75.8368  218.8776 H   0  0  0  0  0  0  0  0  0  0  0  0
  139.0570   73.7525  221.6549 H   0  0  0  0  0  0  0  0  0  0  0  0
  139.0436   73.4495  219.9100 H   0  0  0  0  0  0  0  0  0  0  0  0
  141.0216   72.9921  223.7188 H   0  0  0  0  0  0  0  0  0  0  0  0
  141.5396   72.9260  226.5515 H   0  0  0  0  0  0  0  0  0  0  0  0
  141.3698   71.4300  228.5749 H   0  0  0  0  0  0  0  0  0  0  0  0
  139.6859   68.2626  226.1030 H   0  0  0  0  0  0  0  0  0  0  0  0
  139.4540   68.9910  223.4740 H   0  0  0  0  0  0  0  0  0  0  0  0
  142.7335   70.6417  221.1652 H   0  0  0  0  0  0  0  0  0  0  0  0
  145.0790   71.5071  220.8909 H   0  0  0  0  0  0  0  0  0  0  0  0
  145.4729   73.9408  220.4619 H   0  0  0  0  0  0  0  0  0  0  0  0
  143.5261   75.5207  220.2913 H   0  0  0  0  0  0  0  0  0  0  0  0
  140.2478   75.3182  222.6135 H   0  0  0  0  0  0  0  0  0  0  0  0
  141.6494   76.1684  221.9304 H   0  0  0  0  0  0  0  0  0  0  0  0
  139.9077   79.2351  223.4719 H   0  0  0  0  0  0  0  0  0  0  0  0
  139.9313   77.4147  223.5766 H   0  0  0  0  0  0  0  0  0  0  0  0
  142.2190   77.3950  223.1920 H   0  0  0  0  0  0  0  0  0  0  0  0
  1  2  1  0
  2  3  1  0
  3  4  1  0
  4  5  1  0
  5  6  1  0
  6  7  1  0
  7  8  1  0
  9  8  1  6
  9 10  1  0
 10 11  1  0
 11 12  1  0
 12 13  2  0
 12 14  1  0
 14 15  2  0
 15 16  1  0
 16 17  2  0
 17 18  1  0
 18 19  2  0
 19 20  1  0
 19 21  1  0
 21 22  2  0
 22 23  1  0
 11 24  1  0
 24 25  2  0
 25 26  1  0
 26 27  2  0
 27 28  1  0
 28 29  2  0
  9 30  1  0
  5 31  1  0
 31 32  1  0
 32  2  1  0
 30  6  1  0
 29  9  1  0
 23 14  1  0
 29 24  1  0
 22 16  1  0
  1 33  1  0
  1 34  1  0
  1 35  1  0
  2 36  1  6
  3 37  1  0
  3 38  1  0
  4 39  1  0
  4 40  1  0
  5 41  1  1
  7 42  1  0
  7 43  1  0
  8 44  1  0
  8 45  1  0
 10 46  1  0
 10 47  1  0
 15 48  1  0
 17 49  1  0
 18 50  1  0
 21 51  1  0
 23 52  1  0
 25 53  1  0
 26 54  1  0
 27 55  1  0
 28 56  1  0
 30 57  1  0
 30 58  1  0
 31 59  1  0
 31 60  1  0
 32 61  1  0
M  END
>  <UniqueID>  (67) 
95

>  <SMILES>  (67) 
C[C@@H]1CC[C@@H](N2CC[C@]3(CN(C(=O)c4cc5ccc(F)cc5[nH]4)c4ccccc43)C2)CN1

>  <Energy>  (67) 
135.06761424271122

>  <Genealogy>  (67) 
C[C@@H]1CC[C@@H](N2CC[C@]3(CN(C(=O)c4cc5ccc(F)cc5[nH]4)c4ccccc43)C2)CN1 (chirality)
C[C@@H]1CC[C@@H](N2CC[C@]3(CN(C(=O)c4cc5ccc(F)cc5[nH]4)c4ccccc43)C2)CN1 (3D coordinates assigned)
C[C@@H]1CC[C@@H](N2CC[C@]3(CN(C(=O)c4cc5ccc(F)cc5[nH]4)c4ccccc43)C2)CN1 (nonaromatic ring conformer: 135.06761424271122 kcal/mol)

>  <smiles>  (67) 
C[C@@H]1CCC(N2CC[C@]3(CN(C(=O)c4cc5ccc(F)cc5[nH]4)c4ccccc43)C2)CN1

>  <score_type>  (67) 
oracle

>  <origin>  (67) 
autodockgpu

>  <m_score__min__energy>  (67) 
-9.3300000000000001

>  <m_primary>  (67) 
energy

>  <meeko>  (67) 
{"free_energy": -9.32, "intermolecular_energy": -10.22, "internal_energy": -1.55, "cluster_size": 19, "cluster_id": 1, "rank_in_cluster": 7}

>  <energy>  (67) 
-9.32

>  <cluster_rmsd>  (67) 
0.1

>  <rmsd>  (67) 
270.77

>  <cluster>  (67) 
1

$$$$
MYPHZBOANNRFAS-AGTLBBOYNA-N
     RDKit          3D

 61 66  0  0  0  0  0  0  0  0999 V2000
  142.8600   80.5230  223.8610 C   0  0  0  0  0  0  0  0  0  0  0  0
  142.5620   79.4390  222.8230 C   0  0  2  0  0  0  0  0  0  0  0  0
  141.8870   80.0510  221.5730 C   0  0  0  0  0  0  0  0  0  0  0  0
  141.1950   78.9660  220.7490 C   0  0  0  0  0  0  0  0  0  0  0  0
  140.0870   78.2700  221.5880 C   0  0  1  0  0  0  0  0  0  0  0  0
  139.7710   76.8820  221.1600 N   0  0  0  0  0  0  0  0  0  0  0  0
  139.6690   76.7100  219.7000 C   0  0  0  0  0  0  0  0  0  0  0  0
  140.6030   75.5770  219.3000 C   0  0  0  0  0  0  0  0  0  0  0  0
  140.7700   74.7670  220.5800 C   0  0  1  0  0  0  0  0  0  0  0  0
  139.6970   73.6310  220.7180 C   0  0  0  0  0  0  0  0  0  0  0  0
  140.4480   72.3910  220.9460 N   0  0  0  0  0  0  0  0  0  0  0  0
  139.8880   71.2450  221.6070 C   0  0  0  0  0  0  0  0  0  0  0  0
  139.2810   70.3690  220.9340 O   0  0  0  0  0  0  0  0  0  0  0  0
  140.0340   71.0630  223.0580 C   0  0  0  0  0  0  0  0  0  0  0  0
  140.6830   71.9570  223.9090 C   0  0  0  0  0  0  0  0  0  0  0  0
  140.6090   71.3770  225.1550 C   0  0  0  0  0  0  0  0  0  0  0  0
  141.0830   71.8190  226.3880 C   0  0  0  0  0  0  0  0  0  0  0  0
  140.8680   70.9940  227.5060 C   0  0  0  0  0  0  0  0  0  0  0  0
  140.1950   69.7600  227.3670 C   0  0  0  0  0  0  0  0  0  0  0  0
  139.9960   68.9740  228.4540 F   0  0  0  0  0  0  0  0  0  0  0  0
  139.7280   69.3420  226.1070 C   0  0  0  0  0  0  0  0  0  0  0  0
  139.9500   70.1840  225.0180 C   0  0  0  0  0  0  0  0  0  0  0  0
  139.5920   69.9770  223.7400 N   0  0  0  0  0  0  0  0  0  0  0  0
  141.8360   72.6830  220.8710 C   0  0  0  0  0  0  0  0  0  0  0  0
  142.8900   71.7670  220.9770 C   0  0  0  0  0  0  0  0  0  0  0  0
  144.2060   72.2440  220.8690 C   0  0  0  0  0  0  0  0  0  0  0  0
  144.4470   73.6130  220.6530 C   0  0  0  0  0  0  0  0  0  0  0  0
  143.3730   74.5100  220.5390 C   0  0  0  0  0  0  0  0  0  0  0  0
  142.0670   74.0130  220.6430 C   0  0  0  0  0  0  0  0  0  0  0  0
  140.6470   75.8210  221.6850 C   0  0  0  0  0  0  0  0  0  0  0  0
  140.3490   78.3500  223.1170 C   0  0  0  0  0  0  0  0  0  0  0  0
  141.7810   78.3550  223.4580 N   0  0  0  0  0  0  0  0  0  0  0  0
  142.7449   80.1044  224.8717 H   0  0  0  0  0  0  0  0  0  0  0  0
  143.8907   80.8839  223.7287 H   0  0  0  0  0  0  0  0  0  0  0  0
  142.1586   81.3600  223.7287 H   0  0  0  0  0  0  0  0  0  0  0  0
  143.4969   78.9879  222.4591 H   0  0  0  0  0  0  0  0  0  0  0  0
  141.1407   80.7934  221.8923 H   0  0  0  0  0  0  0  0  0  0  0  0
  142.6587   80.5294  220.9520 H   0  0  0  0  0  0  0  0  0  0  0  0
  140.7409   79.4228  219.8573 H   0  0  0  0  0  0  0  0  0  0  0  0
  141.9412   78.2146  220.4513 H   0  0  0  0  0  0  0  0  0  0  0  0
  139.1818   78.8580  221.3760 H   0  0  0  0  0  0  0  0  0  0  0  0
  138.6345   76.4576  219.4241 H   0  0  0  0  0  0  0  0  0  0  0  0
  139.9483   77.6397  219.1826 H   0  0  0  0  0  0  0  0  0  0  0  0
  140.1549   74.9633  218.5047 H   0  0  0  0  0  0  0  0  0  0  0  0
  141.5616   75.9398  218.9007 H   0  0  0  0  0  0  0  0  0  0  0  0
  139.0305   73.8361  221.5687 H   0  0  0  0  0  0  0  0  0  0  0  0
  139.0666   73.5608  219.8193 H   0  0  0  0  0  0  0  0  0  0  0  0
  141.1516   72.9159  223.6427 H   0  0  0  0  0  0  0  0  0  0  0  0
  141.6078   72.7810  226.4838 H   0  0  0  0  0  0  0  0  0  0  0  0
  141.2265   71.3119  228.4962 H   0  0  0  0  0  0  0  0  0  0  0  0
  139.2048   68.3821  225.9852 H   0  0  0  0  0  0  0  0  0  0  0  0
  139.1080   69.1380  223.3560 H   0  0  0  0  0  0  0  0  0  0  0  0
  142.6912   70.6976  221.1412 H   0  0  0  0  0  0  0  0  0  0  0  0
  145.0512   71.5451  220.9535 H   0  0  0  0  0  0  0  0  0  0  0  0
  145.4802   73.9819  220.5732 H   0  0  0  0  0  0  0  0  0  0  0  0
  143.5532   75.5821  220.3713 H   0  0  0  0  0  0  0  0  0  0  0  0
  140.2035   75.3747  222.5873 H   0  0  0  0  0  0  0  0  0  0  0  0
  141.6332   76.2221  221.9617 H   0  0  0  0  0  0  0  0  0  0  0  0
  139.8942   79.2745  223.5022 H   0  0  0  0  0  0  0  0  0  0  0  0
  139.9064   77.4522  223.5731 H   0  0  0  0  0  0  0  0  0  0  0  0
  142.2000   77.4270  223.2290 H   0  0  0  0  0  0  0  0  0  0  0  0
  1  2  1  0
  2  3  1  0
  3  4  1  0
  4  5  1  0
  5  6  1  0
  6  7  1  0
  7  8  1  0
  9  8  1  6
  9 10  1  0
 10 11  1  0
 11 12  1  0
 12 13  2  0
 12 14  1  0
 14 15  2  0
 15 16  1  0
 16 17  2  0
 17 18  1  0
 18 19  2  0
 19 20  1  0
 19 21  1  0
 21 22  2  0
 22 23  1  0
 11 24  1  0
 24 25  2  0
 25 26  1  0
 26 27  2  0
 27 28  1  0
 28 29  2  0
  9 30  1  0
  5 31  1  0
 31 32  1  0
 32  2  1  0
 30  6  1  0
 29  9  1  0
 23 14  1  0
 29 24  1  0
 22 16  1  0
  1 33  1  0
  1 34  1  0
  1 35  1  0
  2 36  1  6
  3 37  1  0
  3 38  1  0
  4 39  1  0
  4 40  1  0
  5 41  1  1
  7 42  1  0
  7 43  1  0
  8 44  1  0
  8 45  1  0
 10 46  1  0
 10 47  1  0
 15 48  1  0
 17 49  1  0
 18 50  1  0
 21 51  1  0
 23 52  1  0
 25 53  1  0
 26 54  1  0
 27 55  1  0
 28 56  1  0
 30 57  1  0
 30 58  1  0
 31 59  1  0
 31 60  1  0
 32 61  1  0
M  END
>  <UniqueID>  (68) 
95

>  <SMILES>  (68) 
C[C@@H]1CC[C@@H](N2CC[C@]3(CN(C(=O)c4cc5ccc(F)cc5[nH]4)c4ccccc43)C2)CN1

>  <Energy>  (68) 
135.06761424271122

>  <Genealogy>  (68) 
C[C@@H]1CC[C@@H](N2CC[C@]3(CN(C(=O)c4cc5ccc(F)cc5[nH]4)c4ccccc43)C2)CN1 (chirality)
C[C@@H]1CC[C@@H](N2CC[C@]3(CN(C(=O)c4cc5ccc(F)cc5[nH]4)c4ccccc43)C2)CN1 (3D coordinates assigned)
C[C@@H]1CC[C@@H](N2CC[C@]3(CN(C(=O)c4cc5ccc(F)cc5[nH]4)c4ccccc43)C2)CN1 (nonaromatic ring conformer: 135.06761424271122 kcal/mol)

>  <smiles>  (68) 
C[C@@H]1CCC(N2CC[C@]3(CN(C(=O)c4cc5ccc(F)cc5[nH]4)c4ccccc43)C2)CN1

>  <score_type>  (68) 
oracle

>  <origin>  (68) 
autodockgpu

>  <m_score__min__energy>  (68) 
-9.3300000000000001

>  <m_primary>  (68) 
energy

>  <meeko>  (68) 
{"free_energy": -9.27, "intermolecular_energy": -10.17, "internal_energy": -1.55, "cluster_size": 19, "cluster_id": 1, "rank_in_cluster": 19}

>  <energy>  (68) 
-9.32

>  <cluster_rmsd>  (68) 
0.06

>  <rmsd>  (68) 
270.79

>  <cluster>  (68) 
1

$$$$
MYPHZBOANNRFAS-AGTLBBOYNA-N
     RDKit          3D

 61 66  0  0  0  0  0  0  0  0999 V2000
  142.8460   80.5050  223.7860 C   0  0  0  0  0  0  0  0  0  0  0  0
  142.5550   79.4020  222.7670 C   0  0  2  0  0  0  0  0  0  0  0  0
  141.8790   79.9900  221.5050 C   0  0  0  0  0  0  0  0  0  0  0  0
  141.1930   78.8880  220.6990 C   0  0  0  0  0  0  0  0  0  0  0  0
  140.0860   78.2010  221.5480 C   0  0  1  0  0  0  0  0  0  0  0  0
  139.7770   76.8050  221.1440 N   0  0  0  0  0  0  0  0  0  0  0  0
  139.6530   76.6130  219.6880 C   0  0  0  0  0  0  0  0  0  0  0  0
  140.5910   75.4850  219.2860 C   0  0  0  0  0  0  0  0  0  0  0  0
  140.7870   74.6930  220.5740 C   0  0  1  0  0  0  0  0  0  0  0  0
  139.7270   73.5480  220.7440 C   0  0  0  0  0  0  0  0  0  0  0  0
  140.4940   72.3190  220.9760 N   0  0  0  0  0  0  0  0  0  0  0  0
  139.9560   71.1760  221.6610 C   0  0  0  0  0  0  0  0  0  0  0  0
  139.3450   70.2870  221.0100 O   0  0  0  0  0  0  0  0  0  0  0  0
  140.1310   71.0130  223.1120 C   0  0  0  0  0  0  0  0  0  0  0  0
  140.6770   71.9770  223.9580 C   0  0  0  0  0  0  0  0  0  0  0  0
  140.6780   71.3930  225.2050 C   0  0  0  0  0  0  0  0  0  0  0  0
  141.1050   71.8870  226.4350 C   0  0  0  0  0  0  0  0  0  0  0  0
  140.9930   71.0440  227.5540 C   0  0  0  0  0  0  0  0  0  0  0  0
  140.4670   69.7400  227.4190 C   0  0  0  0  0  0  0  0  0  0  0  0
  140.3660   68.9370  228.5080 F   0  0  0  0  0  0  0  0  0  0  0  0
  140.0440   69.2700  226.1620 C   0  0  0  0  0  0  0  0  0  0  0  0
  140.1610   70.1310  225.0720 C   0  0  0  0  0  0  0  0  0  0  0  0
  139.8220   69.8840  223.7960 N   0  0  0  0  0  0  0  0  0  0  0  0
  141.8780   72.6220  220.8740 C   0  0  0  0  0  0  0  0  0  0  0  0
  142.9420   71.7190  220.9740 C   0  0  0  0  0  0  0  0  0  0  0  0
  144.2510   72.2070  220.8380 C   0  0  0  0  0  0  0  0  0  0  0  0
  144.4750   73.5750  220.6010 C   0  0  0  0  0  0  0  0  0  0  0  0
  143.3910   74.4600  220.4920 C   0  0  0  0  0  0  0  0  0  0  0  0
  142.0920   73.9520  220.6250 C   0  0  0  0  0  0  0  0  0  0  0  0
  140.6720   75.7600  221.6670 C   0  0  0  0  0  0  0  0  0  0  0  0
  140.3450   78.3090  223.0760 C   0  0  0  0  0  0  0  0  0  0  0  0
  141.7760   78.3260  223.4190 N   0  0  0  0  0  0  0  0  0  0  0  0
  142.7395   80.1014  224.8037 H   0  0  0  0  0  0  0  0  0  0  0  0
  143.8723   80.8743  223.6435 H   0  0  0  0  0  0  0  0  0  0  0  0
  142.1354   81.3325  223.6435 H   0  0  0  0  0  0  0  0  0  0  0  0
  143.4927   78.9484  222.4135 H   0  0  0  0  0  0  0  0  0  0  0  0
  141.1291   80.7346  221.8104 H   0  0  0  0  0  0  0  0  0  0  0  0
  142.6495   80.4611  220.8770 H   0  0  0  0  0  0  0  0  0  0  0  0
  140.7384   79.3274  219.7989 H   0  0  0  0  0  0  0  0  0  0  0  0
  141.9431   78.1348  220.4160 H   0  0  0  0  0  0  0  0  0  0  0  0
  139.1784   78.7806  221.3238 H   0  0  0  0  0  0  0  0  0  0  0  0
  138.6167   76.3468  219.4326 H   0  0  0  0  0  0  0  0  0  0  0  0
  139.9148   77.5388  219.1548 H   0  0  0  0  0  0  0  0  0  0  0  0
  140.1358   74.8570  218.5060 H   0  0  0  0  0  0  0  0  0  0  0  0
  141.5390   75.8517  218.8656 H   0  0  0  0  0  0  0  0  0  0  0  0
  139.0720   73.7577  221.6025 H   0  0  0  0  0  0  0  0  0  0  0  0
  139.0829   73.4598  219.8567 H   0  0  0  0  0  0  0  0  0  0  0  0
  141.0297   72.9835  223.6885 H   0  0  0  0  0  0  0  0  0  0  0  0
  141.5162   72.9030  226.5277 H   0  0  0  0  0  0  0  0  0  0  0  0
  141.3173   71.4023  228.5421 H   0  0  0  0  0  0  0  0  0  0  0  0
  139.6343   68.2561  226.0433 H   0  0  0  0  0  0  0  0  0  0  0  0
  139.4350   68.9950  223.4140 H   0  0  0  0  0  0  0  0  0  0  0  0
  142.7567   70.6500  221.1552 H   0  0  0  0  0  0  0  0  0  0  0  0
  145.1043   71.5173  220.9170 H   0  0  0  0  0  0  0  0  0  0  0  0
  145.5032   73.9527  220.5007 H   0  0  0  0  0  0  0  0  0  0  0  0
  143.5580   75.5312  220.3059 H   0  0  0  0  0  0  0  0  0  0  0  0
  140.2484   75.3211  222.5824 H   0  0  0  0  0  0  0  0  0  0  0  0
  141.6587   76.1744  221.9214 H   0  0  0  0  0  0  0  0  0  0  0  0
  139.8857   79.2382  223.4442 H   0  0  0  0  0  0  0  0  0  0  0  0
  139.9053   77.4175  223.5471 H   0  0  0  0  0  0  0  0  0  0  0  0
  142.2000   77.3960  223.2070 H   0  0  0  0  0  0  0  0  0  0  0  0
  1  2  1  0
  2  3  1  0
  3  4  1  0
  4  5  1  0
  5  6  1  0
  6  7  1  0
  7  8  1  0
  9  8  1  6
  9 10  1  0
 10 11  1  0
 11 12  1  0
 12 13  2  0
 12 14  1  0
 14 15  2  0
 15 16  1  0
 16 17  2  0
 17 18  1  0
 18 19  2  0
 19 20  1  0
 19 21  1  0
 21 22  2  0
 22 23  1  0
 11 24  1  0
 24 25  2  0
 25 26  1  0
 26 27  2  0
 27 28  1  0
 28 29  2  0
  9 30  1  0
  5 31  1  0
 31 32  1  0
 32  2  1  0
 30  6  1  0
 29  9  1  0
 23 14  1  0
 29 24  1  0
 22 16  1  0
  1 33  1  0
  1 34  1  0
  1 35  1  0
  2 36  1  6
  3 37  1  0
  3 38  1  0
  4 39  1  0
  4 40  1  0
  5 41  1  1
  7 42  1  0
  7 43  1  0
  8 44  1  0
  8 45  1  0
 10 46  1  0
 10 47  1  0
 15 48  1  0
 17 49  1  0
 18 50  1  0
 21 51  1  0
 23 52  1  0
 25 53  1  0
 26 54  1  0
 27 55  1  0
 28 56  1  0
 30 57  1  0
 30 58  1  0
 31 59  1  0
 31 60  1  0
 32 61  1  0
M  END
>  <UniqueID>  (69) 
95

>  <SMILES>  (69) 
C[C@@H]1CC[C@@H](N2CC[C@]3(CN(C(=O)c4cc5ccc(F)cc5[nH]4)c4ccccc43)C2)CN1

>  <Energy>  (69) 
135.06761424271122

>  <Genealogy>  (69) 
C[C@@H]1CC[C@@H](N2CC[C@]3(CN(C(=O)c4cc5ccc(F)cc5[nH]4)c4ccccc43)C2)CN1 (chirality)
C[C@@H]1CC[C@@H](N2CC[C@]3(CN(C(=O)c4cc5ccc(F)cc5[nH]4)c4ccccc43)C2)CN1 (3D coordinates assigned)
C[C@@H]1CC[C@@H](N2CC[C@]3(CN(C(=O)c4cc5ccc(F)cc5[nH]4)c4ccccc43)C2)CN1 (nonaromatic ring conformer: 135.06761424271122 kcal/mol)

>  <smiles>  (69) 
C[C@@H]1CCC(N2CC[C@]3(CN(C(=O)c4cc5ccc(F)cc5[nH]4)c4ccccc43)C2)CN1

>  <score_type>  (69) 
oracle

>  <origin>  (69) 
autodockgpu

>  <m_score__min__energy>  (69) 
-9.3300000000000001

>  <m_primary>  (69) 
energy

>  <meeko>  (69) 
{"free_energy": -9.32, "intermolecular_energy": -10.21, "internal_energy": -1.55, "cluster_size": 19, "cluster_id": 1, "rank_in_cluster": 11}

>  <energy>  (69) 
-9.32

>  <cluster_rmsd>  (69) 
0.23

>  <rmsd>  (69) 
270.75

>  <cluster>  (69) 
1

$$$$
MYPHZBOANNRFAS-AGTLBBOYNA-N
     RDKit          3D

 61 66  0  0  0  0  0  0  0  0999 V2000
  142.9160   80.5130  223.7510 C   0  0  0  0  0  0  0  0  0  0  0  0
  142.5880   79.4080  222.7450 C   0  0  2  0  0  0  0  0  0  0  0  0
  141.9070   79.9990  221.4880 C   0  0  0  0  0  0  0  0  0  0  0  0
  141.1870   78.9040  220.7020 C   0  0  0  0  0  0  0  0  0  0  0  0
  140.0790   78.2470  221.5720 C   0  0  1  0  0  0  0  0  0  0  0  0
  139.7360   76.8540  221.1840 N   0  0  0  0  0  0  0  0  0  0  0  0
  139.5770   76.6550  219.7330 C   0  0  0  0  0  0  0  0  0  0  0  0
  140.4850   75.5070  219.3190 C   0  0  0  0  0  0  0  0  0  0  0  0
  140.6950   74.7200  220.6080 C   0  0  1  0  0  0  0  0  0  0  0  0
  139.6190   73.5960  220.8090 C   0  0  0  0  0  0  0  0  0  0  0  0
  140.3690   72.3540  221.0330 N   0  0  0  0  0  0  0  0  0  0  0  0
  139.8250   71.2260  221.7370 C   0  0  0  0  0  0  0  0  0  0  0  0
  139.1820   70.3450  221.1060 O   0  0  0  0  0  0  0  0  0  0  0  0
  140.0310   71.0680  223.1840 C   0  0  0  0  0  0  0  0  0  0  0  0
  140.6780   71.9950  223.9990 C   0  0  0  0  0  0  0  0  0  0  0  0
  140.6710   71.4280  225.2540 C   0  0  0  0  0  0  0  0  0  0  0  0
  141.1740   71.9020  226.4630 C   0  0  0  0  0  0  0  0  0  0  0  0
  141.0290   71.0850  227.5980 C   0  0  0  0  0  0  0  0  0  0  0  0
  140.3970   69.8260  227.4980 C   0  0  0  0  0  0  0  0  0  0  0  0
  140.2660   69.0470  228.6010 F   0  0  0  0  0  0  0  0  0  0  0  0
  139.8990   69.3750  226.2610 C   0  0  0  0  0  0  0  0  0  0  0  0
  140.0500   70.2110  225.1550 C   0  0  0  0  0  0  0  0  0  0  0  0
  139.6540   69.9760  223.8940 N   0  0  0  0  0  0  0  0  0  0  0  0
  141.7550   72.6320  220.8980 C   0  0  0  0  0  0  0  0  0  0  0  0
  142.8050   71.7100  220.9820 C   0  0  0  0  0  0  0  0  0  0  0  0
  144.1190   72.1730  220.8140 C   0  0  0  0  0  0  0  0  0  0  0  0
  144.3620   73.5360  220.5620 C   0  0  0  0  0  0  0  0  0  0  0  0
  143.2920   74.4400  220.4720 C   0  0  0  0  0  0  0  0  0  0  0  0
  141.9880   73.9560  220.6360 C   0  0  0  0  0  0  0  0  0  0  0  0
  140.6230   75.7960  221.6960 C   0  0  0  0  0  0  0  0  0  0  0  0
  140.3620   78.3620  223.0960 C   0  0  0  0  0  0  0  0  0  0  0  0
  141.7980   78.3530  223.4170 N   0  0  0  0  0  0  0  0  0  0  0  0
  142.8006   80.1241  224.7735 H   0  0  0  0  0  0  0  0  0  0  0  0
  143.9527   80.8491  223.6014 H   0  0  0  0  0  0  0  0  0  0  0  0
  142.2306   81.3603  223.6014 H   0  0  0  0  0  0  0  0  0  0  0  0
  143.5110   78.9328  222.3815 H   0  0  0  0  0  0  0  0  0  0  0  0
  141.1771   80.7617  221.7970 H   0  0  0  0  0  0  0  0  0  0  0  0
  142.6779   80.4488  220.8451 H   0  0  0  0  0  0  0  0  0  0  0  0
  140.7285   79.3448  219.8045 H   0  0  0  0  0  0  0  0  0  0  0  0
  141.9177   78.1332  220.4155 H   0  0  0  0  0  0  0  0  0  0  0  0
  139.1803   78.8434  221.3559 H   0  0  0  0  0  0  0  0  0  0  0  0
  138.5306   76.4066  219.5018 H   0  0  0  0  0  0  0  0  0  0  0  0
  139.8443   77.5722  219.1878 H   0  0  0  0  0  0  0  0  0  0  0  0
  140.0013   74.8822  218.5537 H   0  0  0  0  0  0  0  0  0  0  0  0
  141.4302   75.8534  218.8755 H   0  0  0  0  0  0  0  0  0  0  0  0
  138.9869   73.8233  221.6801 H   0  0  0  0  0  0  0  0  0  0  0  0
  138.9542   73.5137  219.9365 H   0  0  0  0  0  0  0  0  0  0  0  0
  141.1014   72.9666  223.7044 H   0  0  0  0  0  0  0  0  0  0  0  0
  141.6681   72.8826  226.5278 H   0  0  0  0  0  0  0  0  0  0  0  0
  141.4105   71.4288  228.5708 H   0  0  0  0  0  0  0  0  0  0  0  0
  139.4069   68.3954  226.1697 H   0  0  0  0  0  0  0  0  0  0  0  0
  139.1860   69.1160  223.5370 H   0  0  0  0  0  0  0  0  0  0  0  0
  142.6044   70.6459  221.1755 H   0  0  0  0  0  0  0  0  0  0  0  0
  144.9614   71.4686  220.8795 H   0  0  0  0  0  0  0  0  0  0  0  0
  145.3942   73.8943  220.4351 H   0  0  0  0  0  0  0  0  0  0  0  0
  143.4740   75.5071  220.2766 H   0  0  0  0  0  0  0  0  0  0  0  0
  140.2109   75.3711  222.6232 H   0  0  0  0  0  0  0  0  0  0  0  0
  141.6222   76.1937  221.9270 H   0  0  0  0  0  0  0  0  0  0  0  0
  139.9267   79.3031  223.4632 H   0  0  0  0  0  0  0  0  0  0  0  0
  139.9111   77.4838  223.5813 H   0  0  0  0  0  0  0  0  0  0  0  0
  142.2000   77.4120  223.2070 H   0  0  0  0  0  0  0  0  0  0  0  0
  1  2  1  0
  2  3  1  0
  3  4  1  0
  4  5  1  0
  5  6  1  0
  6  7  1  0
  7  8  1  0
  9  8  1  6
  9 10  1  0
 10 11  1  0
 11 12  1  0
 12 13  2  0
 12 14  1  0
 14 15  2  0
 15 16  1  0
 16 17  2  0
 17 18  1  0
 18 19  2  0
 19 20  1  0
 19 21  1  0
 21 22  2  0
 22 23  1  0
 11 24  1  0
 24 25  2  0
 25 26  1  0
 26 27  2  0
 27 28  1  0
 28 29  2  0
  9 30  1  0
  5 31  1  0
 31 32  1  0
 32  2  1  0
 30  6  1  0
 29  9  1  0
 23 14  1  0
 29 24  1  0
 22 16  1  0
  1 33  1  0
  1 34  1  0
  1 35  1  0
  2 36  1  6
  3 37  1  0
  3 38  1  0
  4 39  1  0
  4 40  1  0
  5 41  1  1
  7 42  1  0
  7 43  1  0
  8 44  1  0
  8 45  1  0
 10 46  1  0
 10 47  1  0
 15 48  1  0
 17 49  1  0
 18 50  1  0
 21 51  1  0
 23 52  1  0
 25 53  1  0
 26 54  1  0
 27 55  1  0
 28 56  1  0
 30 57  1  0
 30 58  1  0
 31 59  1  0
 31 60  1  0
 32 61  1  0
M  END
>  <UniqueID>  (70) 
95

>  <SMILES>  (70) 
C[C@@H]1CC[C@@H](N2CC[C@]3(CN(C(=O)c4cc5ccc(F)cc5[nH]4)c4ccccc43)C2)CN1

>  <Energy>  (70) 
135.06761424271122

>  <Genealogy>  (70) 
C[C@@H]1CC[C@@H](N2CC[C@]3(CN(C(=O)c4cc5ccc(F)cc5[nH]4)c4ccccc43)C2)CN1 (chirality)
C[C@@H]1CC[C@@H](N2CC[C@]3(CN(C(=O)c4cc5ccc(F)cc5[nH]4)c4ccccc43)C2)CN1 (3D coordinates assigned)
C[C@@H]1CC[C@@H](N2CC[C@]3(CN(C(=O)c4cc5ccc(F)cc5[nH]4)c4ccccc43)C2)CN1 (nonaromatic ring conformer: 135.06761424271122 kcal/mol)

>  <smiles>  (70) 
C[C@@H]1CCC(N2CC[C@]3(CN(C(=O)c4cc5ccc(F)cc5[nH]4)c4ccccc43)C2)CN1

>  <score_type>  (70) 
oracle

>  <origin>  (70) 
autodockgpu

>  <m_score__min__energy>  (70) 
-9.3300000000000001

>  <m_primary>  (70) 
energy

>  <meeko>  (70) 
{"free_energy": -9.32, "intermolecular_energy": -10.21, "internal_energy": -1.55, "cluster_size": 19, "cluster_id": 1, "rank_in_cluster": 12}

>  <energy>  (70) 
-9.32

>  <cluster_rmsd>  (70) 
0.17

>  <rmsd>  (70) 
270.82

>  <cluster>  (70) 
1

$$$$
MYPHZBOANNRFAS-AGTLBBOYNA-N
     RDKit          3D

 61 66  0  0  0  0  0  0  0  0999 V2000
  142.8390   80.5130  223.7470 C   0  0  0  0  0  0  0  0  0  0  0  0
  142.5320   79.4030  222.7410 C   0  0  2  0  0  0  0  0  0  0  0  0
  141.8260   79.9790  221.4910 C   0  0  0  0  0  0  0  0  0  0  0  0
  141.1280   78.8690  220.7070 C   0  0  0  0  0  0  0  0  0  0  0  0
  140.0450   78.1810  221.5830 C   0  0  1  0  0  0  0  0  0  0  0  0
  139.7350   76.7810  221.1930 N   0  0  0  0  0  0  0  0  0  0  0  0
  139.5790   76.5800  219.7410 C   0  0  0  0  0  0  0  0  0  0  0  0
  140.5150   75.4540  219.3250 C   0  0  0  0  0  0  0  0  0  0  0  0
  140.7440   74.6710  220.6130 C   0  0  1  0  0  0  0  0  0  0  0  0
  139.6960   73.5210  220.8130 C   0  0  0  0  0  0  0  0  0  0  0  0
  140.4750   72.2980  221.0340 N   0  0  0  0  0  0  0  0  0  0  0  0
  139.9600   71.1560  221.7370 C   0  0  0  0  0  0  0  0  0  0  0  0
  139.3610   70.2470  221.1010 O   0  0  0  0  0  0  0  0  0  0  0  0
  140.1440   71.0160  223.1890 C   0  0  0  0  0  0  0  0  0  0  0  0
  140.6720   72.0020  224.0210 C   0  0  0  0  0  0  0  0  0  0  0  0
  140.6900   71.4350  225.2750 C   0  0  0  0  0  0  0  0  0  0  0  0
  141.1110   71.9550  226.4970 C   0  0  0  0  0  0  0  0  0  0  0  0
  141.0210   71.1240  227.6270 C   0  0  0  0  0  0  0  0  0  0  0  0
  140.5240   69.8070  227.5110 C   0  0  0  0  0  0  0  0  0  0  0  0
  140.4440   69.0160  228.6110 F   0  0  0  0  0  0  0  0  0  0  0  0
  140.1070   69.3110  226.2620 C   0  0  0  0  0  0  0  0  0  0  0  0
  140.2000   70.1600  225.1600 C   0  0  0  0  0  0  0  0  0  0  0  0
  139.8620   69.8890  223.8890 N   0  0  0  0  0  0  0  0  0  0  0  0
  141.8550   72.6090  220.8990 C   0  0  0  0  0  0  0  0  0  0  0  0
  142.9260   71.7120  220.9800 C   0  0  0  0  0  0  0  0  0  0  0  0
  144.2290   72.2070  220.8120 C   0  0  0  0  0  0  0  0  0  0  0  0
  144.4390   73.5760  220.5620 C   0  0  0  0  0  0  0  0  0  0  0  0
  143.3480   74.4530  220.4740 C   0  0  0  0  0  0  0  0  0  0  0  0
  142.0550   73.9390  220.6380 C   0  0  0  0  0  0  0  0  0  0  0  0
  140.6470   75.7430  221.7020 C   0  0  0  0  0  0  0  0  0  0  0  0
  140.3360   78.2980  223.1040 C   0  0  0  0  0  0  0  0  0  0  0  0
  141.7750   78.3260  223.4160 N   0  0  0  0  0  0  0  0  0  0  0  0
  142.7307   80.1216  224.7693 H   0  0  0  0  0  0  0  0  0  0  0  0
  143.8692   80.8685  223.5977 H   0  0  0  0  0  0  0  0  0  0  0  0
  142.1379   81.3474  223.5977 H   0  0  0  0  0  0  0  0  0  0  0  0
  143.4644   78.9531  222.3691 H   0  0  0  0  0  0  0  0  0  0  0  0
  141.0793   80.7219  221.8080 H   0  0  0  0  0  0  0  0  0  0  0  0
  142.5805   80.4494  220.8434 H   0  0  0  0  0  0  0  0  0  0  0  0
  140.6510   79.3011  219.8149 H   0  0  0  0  0  0  0  0  0  0  0  0
  141.8758   78.1183  220.4117 H   0  0  0  0  0  0  0  0  0  0  0  0
  139.1298   78.7550  221.3757 H   0  0  0  0  0  0  0  0  0  0  0  0
  138.5388   76.3065  219.5105 H   0  0  0  0  0  0  0  0  0  0  0  0
  139.8230   77.5040  219.1963 H   0  0  0  0  0  0  0  0  0  0  0  0
  140.0463   74.8186  218.5591 H   0  0  0  0  0  0  0  0  0  0  0  0
  141.4514   75.8235  218.8816 H   0  0  0  0  0  0  0  0  0  0  0  0
  139.0594   73.7315  221.6850 H   0  0  0  0  0  0  0  0  0  0  0  0
  139.0328   73.4241  219.9408 H   0  0  0  0  0  0  0  0  0  0  0  0
  141.0021   73.0122  223.7374 H   0  0  0  0  0  0  0  0  0  0  0  0
  141.5005   72.9808  226.5748 H   0  0  0  0  0  0  0  0  0  0  0  0
  141.3401   71.5023  228.6094 H   0  0  0  0  0  0  0  0  0  0  0  0
  139.7201   68.2865  226.1584 H   0  0  0  0  0  0  0  0  0  0  0  0
  139.4930   68.9870  223.5210 H   0  0  0  0  0  0  0  0  0  0  0  0
  142.7509   70.6430  221.1710 H   0  0  0  0  0  0  0  0  0  0  0  0
  145.0881   71.5230  220.8759 H   0  0  0  0  0  0  0  0  0  0  0  0
  145.4622   73.9594  220.4352 H   0  0  0  0  0  0  0  0  0  0  0  0
  143.5046   75.5244  220.2799 H   0  0  0  0  0  0  0  0  0  0  0  0
  140.2457   75.3069  222.6287 H   0  0  0  0  0  0  0  0  0  0  0  0
  141.6368   76.1640  221.9325 H   0  0  0  0  0  0  0  0  0  0  0  0
  139.8786   79.2260  223.4777 H   0  0  0  0  0  0  0  0  0  0  0  0
  139.9124   77.4060  223.5887 H   0  0  0  0  0  0  0  0  0  0  0  0
  142.1990   77.3970  223.1990 H   0  0  0  0  0  0  0  0  0  0  0  0
  1  2  1  0
  2  3  1  0
  3  4  1  0
  4  5  1  0
  5  6  1  0
  6  7  1  0
  7  8  1  0
  9  8  1  6
  9 10  1  0
 10 11  1  0
 11 12  1  0
 12 13  2  0
 12 14  1  0
 14 15  2  0
 15 16  1  0
 16 17  2  0
 17 18  1  0
 18 19  2  0
 19 20  1  0
 19 21  1  0
 21 22  2  0
 22 23  1  0
 11 24  1  0
 24 25  2  0
 25 26  1  0
 26 27  2  0
 27 28  1  0
 28 29  2  0
  9 30  1  0
  5 31  1  0
 31 32  1  0
 32  2  1  0
 30  6  1  0
 29  9  1  0
 23 14  1  0
 29 24  1  0
 22 16  1  0
  1 33  1  0
  1 34  1  0
  1 35  1  0
  2 36  1  6
  3 37  1  0
  3 38  1  0
  4 39  1  0
  4 40  1  0
  5 41  1  1
  7 42  1  0
  7 43  1  0
  8 44  1  0
  8 45  1  0
 10 46  1  0
 10 47  1  0
 15 48  1  0
 17 49  1  0
 18 50  1  0
 21 51  1  0
 23 52  1  0
 25 53  1  0
 26 54  1  0
 27 55  1  0
 28 56  1  0
 30 57  1  0
 30 58  1  0
 31 59  1  0
 31 60  1  0
 32 61  1  0
M  END
>  <UniqueID>  (71) 
95

>  <SMILES>  (71) 
C[C@@H]1CC[C@@H](N2CC[C@]3(CN(C(=O)c4cc5ccc(F)cc5[nH]4)c4ccccc43)C2)CN1

>  <Energy>  (71) 
135.06761424271122

>  <Genealogy>  (71) 
C[C@@H]1CC[C@@H](N2CC[C@]3(CN(C(=O)c4cc5ccc(F)cc5[nH]4)c4ccccc43)C2)CN1 (chirality)
C[C@@H]1CC[C@@H](N2CC[C@]3(CN(C(=O)c4cc5ccc(F)cc5[nH]4)c4ccccc43)C2)CN1 (3D coordinates assigned)
C[C@@H]1CC[C@@H](N2CC[C@]3(CN(C(=O)c4cc5ccc(F)cc5[nH]4)c4ccccc43)C2)CN1 (nonaromatic ring conformer: 135.06761424271122 kcal/mol)

>  <smiles>  (71) 
C[C@@H]1CCC(N2CC[C@]3(CN(C(=O)c4cc5ccc(F)cc5[nH]4)c4ccccc43)C2)CN1

>  <score_type>  (71) 
oracle

>  <origin>  (71) 
autodockgpu

>  <m_score__min__energy>  (71) 
-9.3300000000000001

>  <m_primary>  (71) 
energy

>  <meeko>  (71) 
{"free_energy": -9.32, "intermolecular_energy": -10.22, "internal_energy": -1.55, "cluster_size": 19, "cluster_id": 1, "rank_in_cluster": 5}

>  <energy>  (71) 
-9.32

>  <cluster_rmsd>  (71) 
0.08

>  <rmsd>  (71) 
270.75

>  <cluster>  (71) 
1

$$$$
MYPHZBOANNRFAS-AGTLBBOYNA-N
     RDKit          3D

 61 66  0  0  0  0  0  0  0  0999 V2000
  142.8590   80.5150  223.7500 C   0  0  0  0  0  0  0  0  0  0  0  0
  142.5550   79.4060  222.7410 C   0  0  2  0  0  0  0  0  0  0  0  0
  141.8590   79.9850  221.4860 C   0  0  0  0  0  0  0  0  0  0  0  0
  141.1620   78.8780  220.6980 C   0  0  0  0  0  0  0  0  0  0  0  0
  140.0710   78.1930  221.5670 C   0  0  1  0  0  0  0  0  0  0  0  0
  139.7580   76.7940  221.1760 N   0  0  0  0  0  0  0  0  0  0  0  0
  139.6080   76.5940  219.7230 C   0  0  0  0  0  0  0  0  0  0  0  0
  140.5420   75.4670  219.3100 C   0  0  0  0  0  0  0  0  0  0  0  0
  140.7640   74.6820  220.5980 C   0  0  1  0  0  0  0  0  0  0  0  0
  139.7110   73.5350  220.7930 C   0  0  0  0  0  0  0  0  0  0  0  0
  140.4860   72.3090  221.0170 N   0  0  0  0  0  0  0  0  0  0  0  0
  139.9640   71.1690  221.7170 C   0  0  0  0  0  0  0  0  0  0  0  0
  139.3580   70.2660  221.0800 O   0  0  0  0  0  0  0  0  0  0  0  0
  140.1510   71.0220  223.1680 C   0  0  0  0  0  0  0  0  0  0  0  0
  140.6780   72.0060  224.0040 C   0  0  0  0  0  0  0  0  0  0  0  0
  140.6990   71.4330  225.2550 C   0  0  0  0  0  0  0  0  0  0  0  0
  141.1210   71.9480  226.4790 C   0  0  0  0  0  0  0  0  0  0  0  0
  141.0340   71.1120  227.6060 C   0  0  0  0  0  0  0  0  0  0  0  0
  140.5390   69.7950  227.4850 C   0  0  0  0  0  0  0  0  0  0  0  0
  140.4630   68.9990  228.5810 F   0  0  0  0  0  0  0  0  0  0  0  0
  140.1210   69.3040  226.2340 C   0  0  0  0  0  0  0  0  0  0  0  0
  140.2110   70.1580  225.1360 C   0  0  0  0  0  0  0  0  0  0  0  0
  139.8720   69.8920  223.8640 N   0  0  0  0  0  0  0  0  0  0  0  0
  141.8670   72.6160  220.8870 C   0  0  0  0  0  0  0  0  0  0  0  0
  142.9360   71.7160  220.9720 C   0  0  0  0  0  0  0  0  0  0  0  0
  144.2400   72.2080  220.8090 C   0  0  0  0  0  0  0  0  0  0  0  0
  144.4560   73.5760  220.5610 C   0  0  0  0  0  0  0  0  0  0  0  0
  143.3670   74.4570  220.4690 C   0  0  0  0  0  0  0  0  0  0  0  0
  142.0720   73.9460  220.6280 C   0  0  0  0  0  0  0  0  0  0  0  0
  140.6660   75.7540  221.6880 C   0  0  0  0  0  0  0  0  0  0  0  0
  140.3530   78.3100  223.0910 C   0  0  0  0  0  0  0  0  0  0  0  0
  141.7890   78.3320  223.4110 N   0  0  0  0  0  0  0  0  0  0  0  0
  142.7510   80.1211  224.7714 H   0  0  0  0  0  0  0  0  0  0  0  0
  143.8885   80.8732  223.6021 H   0  0  0  0  0  0  0  0  0  0  0  0
  142.1561   81.3481  223.6021 H   0  0  0  0  0  0  0  0  0  0  0  0
  143.4882   78.9530  222.3751 H   0  0  0  0  0  0  0  0  0  0  0  0
  141.1132   80.7309  221.7981 H   0  0  0  0  0  0  0  0  0  0  0  0
  142.6194   80.4525  220.8432 H   0  0  0  0  0  0  0  0  0  0  0  0
  140.6919   79.3120  219.8032 H   0  0  0  0  0  0  0  0  0  0  0  0
  141.9091   78.1247  220.4074 H   0  0  0  0  0  0  0  0  0  0  0  0
  139.1590   78.7695  221.3527 H   0  0  0  0  0  0  0  0  0  0  0  0
  138.5681   76.3233  219.4879 H   0  0  0  0  0  0  0  0  0  0  0  0
  139.8570   77.5178  219.1803 H   0  0  0  0  0  0  0  0  0  0  0  0
  140.0748   74.8336  218.5416 H   0  0  0  0  0  0  0  0  0  0  0  0
  141.4811   75.8346  218.8708 H   0  0  0  0  0  0  0  0  0  0  0  0
  139.0712   73.7471  221.6623 H   0  0  0  0  0  0  0  0  0  0  0  0
  139.0510   73.4406  219.9180 H   0  0  0  0  0  0  0  0  0  0  0  0
  141.0052   73.0184  223.7246 H   0  0  0  0  0  0  0  0  0  0  0  0
  141.5091   72.9740  226.5608 H   0  0  0  0  0  0  0  0  0  0  0  0
  141.3539   71.4866  228.5895 H   0  0  0  0  0  0  0  0  0  0  0  0
  139.7357   68.2793  226.1262 H   0  0  0  0  0  0  0  0  0  0  0  0
  139.5040   68.9910  223.4920 H   0  0  0  0  0  0  0  0  0  0  0  0
  142.7578   70.6473  221.1623 H   0  0  0  0  0  0  0  0  0  0  0  0
  145.0968   71.5214  220.8754 H   0  0  0  0  0  0  0  0  0  0  0  0
  145.4810   73.9562  220.4389 H   0  0  0  0  0  0  0  0  0  0  0  0
  143.5272   75.5280  220.2758 H   0  0  0  0  0  0  0  0  0  0  0  0
  140.2606   75.3184  222.6132 H   0  0  0  0  0  0  0  0  0  0  0  0
  141.6559   76.1725  221.9224 H   0  0  0  0  0  0  0  0  0  0  0  0
  139.8973   79.2402  223.4612 H   0  0  0  0  0  0  0  0  0  0  0  0
  139.9223   77.4205  223.5741 H   0  0  0  0  0  0  0  0  0  0  0  0
  142.2120   77.4010  223.1970 H   0  0  0  0  0  0  0  0  0  0  0  0
  1  2  1  0
  2  3  1  0
  3  4  1  0
  4  5  1  0
  5  6  1  0
  6  7  1  0
  7  8  1  0
  9  8  1  6
  9 10  1  0
 10 11  1  0
 11 12  1  0
 12 13  2  0
 12 14  1  0
 14 15  2  0
 15 16  1  0
 16 17  2  0
 17 18  1  0
 18 19  2  0
 19 20  1  0
 19 21  1  0
 21 22  2  0
 22 23  1  0
 11 24  1  0
 24 25  2  0
 25 26  1  0
 26 27  2  0
 27 28  1  0
 28 29  2  0
  9 30  1  0
  5 31  1  0
 31 32  1  0
 32  2  1  0
 30  6  1  0
 29  9  1  0
 23 14  1  0
 29 24  1  0
 22 16  1  0
  1 33  1  0
  1 34  1  0
  1 35  1  0
  2 36  1  6
  3 37  1  0
  3 38  1  0
  4 39  1  0
  4 40  1  0
  5 41  1  1
  7 42  1  0
  7 43  1  0
  8 44  1  0
  8 45  1  0
 10 46  1  0
 10 47  1  0
 15 48  1  0
 17 49  1  0
 18 50  1  0
 21 51  1  0
 23 52  1  0
 25 53  1  0
 26 54  1  0
 27 55  1  0
 28 56  1  0
 30 57  1  0
 30 58  1  0
 31 59  1  0
 31 60  1  0
 32 61  1  0
M  END
>  <UniqueID>  (72) 
95

>  <SMILES>  (72) 
C[C@@H]1CC[C@@H](N2CC[C@]3(CN(C(=O)c4cc5ccc(F)cc5[nH]4)c4ccccc43)C2)CN1

>  <Energy>  (72) 
135.06761424271122

>  <Genealogy>  (72) 
C[C@@H]1CC[C@@H](N2CC[C@]3(CN(C(=O)c4cc5ccc(F)cc5[nH]4)c4ccccc43)C2)CN1 (chirality)
C[C@@H]1CC[C@@H](N2CC[C@]3(CN(C(=O)c4cc5ccc(F)cc5[nH]4)c4ccccc43)C2)CN1 (3D coordinates assigned)
C[C@@H]1CC[C@@H](N2CC[C@]3(CN(C(=O)c4cc5ccc(F)cc5[nH]4)c4ccccc43)C2)CN1 (nonaromatic ring conformer: 135.06761424271122 kcal/mol)

>  <smiles>  (72) 
C[C@@H]1CCC(N2CC[C@]3(CN(C(=O)c4cc5ccc(F)cc5[nH]4)c4ccccc43)C2)CN1

>  <score_type>  (72) 
oracle

>  <origin>  (72) 
autodockgpu

>  <m_score__min__energy>  (72) 
-9.3300000000000001

>  <m_primary>  (72) 
energy

>  <meeko>  (72) 
{"free_energy": -9.32, "intermolecular_energy": -10.22, "internal_energy": -1.55, "cluster_size": 19, "cluster_id": 1, "rank_in_cluster": 4}

>  <energy>  (72) 
-9.32

>  <cluster_rmsd>  (72) 
0.19

>  <rmsd>  (72) 
270.75

>  <cluster>  (72) 
1

$$$$
MYPHZBOANNRFAS-AGTLBBOYNA-N
     RDKit          3D

 61 66  0  0  0  0  0  0  0  0999 V2000
  142.8540   80.5460  223.8140 C   0  0  0  0  0  0  0  0  0  0  0  0
  142.5660   79.4440  222.7930 C   0  0  2  0  0  0  0  0  0  0  0  0
  141.8920   80.0330  221.5310 C   0  0  0  0  0  0  0  0  0  0  0  0
  141.2080   78.9320  220.7230 C   0  0  0  0  0  0  0  0  0  0  0  0
  140.1010   78.2420  221.5690 C   0  0  1  0  0  0  0  0  0  0  0  0
  139.7940   76.8460  221.1620 N   0  0  0  0  0  0  0  0  0  0  0  0
  139.6730   76.6560  219.7050 C   0  0  0  0  0  0  0  0  0  0  0  0
  140.6130   75.5290  219.3040 C   0  0  0  0  0  0  0  0  0  0  0  0
  140.8080   74.7360  220.5910 C   0  0  1  0  0  0  0  0  0  0  0  0
  139.7500   73.5890  220.7580 C   0  0  0  0  0  0  0  0  0  0  0  0
  140.5180   72.3610  220.9890 N   0  0  0  0  0  0  0  0  0  0  0  0
  139.9810   71.2170  221.6710 C   0  0  0  0  0  0  0  0  0  0  0  0
  139.3520   70.3390  221.0210 O   0  0  0  0  0  0  0  0  0  0  0  0
  140.1770   71.0380  223.1170 C   0  0  0  0  0  0  0  0  0  0  0  0
  140.6910   72.0100  223.9740 C   0  0  0  0  0  0  0  0  0  0  0  0
  140.7280   71.4070  225.2110 C   0  0  0  0  0  0  0  0  0  0  0  0
  141.1470   71.8990  226.4450 C   0  0  0  0  0  0  0  0  0  0  0  0
  141.0810   71.0340  227.5510 C   0  0  0  0  0  0  0  0  0  0  0  0
  140.6090   69.7120  227.4000 C   0  0  0  0  0  0  0  0  0  0  0  0
  140.5530   68.8880  228.4760 F   0  0  0  0  0  0  0  0  0  0  0  0
  140.1940   69.2440  226.1390 C   0  0  0  0  0  0  0  0  0  0  0  0
  140.2630   70.1270  225.0620 C   0  0  0  0  0  0  0  0  0  0  0  0
  139.9220   69.8860  223.7850 N   0  0  0  0  0  0  0  0  0  0  0  0
  141.9020   72.6670  220.8890 C   0  0  0  0  0  0  0  0  0  0  0  0
  142.9680   71.7640  220.9890 C   0  0  0  0  0  0  0  0  0  0  0  0
  144.2760   72.2540  220.8550 C   0  0  0  0  0  0  0  0  0  0  0  0
  144.4980   73.6240  220.6210 C   0  0  0  0  0  0  0  0  0  0  0  0
  143.4130   74.5070  220.5120 C   0  0  0  0  0  0  0  0  0  0  0  0
  142.1150   73.9970  220.6420 C   0  0  0  0  0  0  0  0  0  0  0  0
  140.6900   75.8010  221.6850 C   0  0  0  0  0  0  0  0  0  0  0  0
  140.3580   78.3480  223.0980 C   0  0  0  0  0  0  0  0  0  0  0  0
  141.7890   78.3670  223.4420 N   0  0  0  0  0  0  0  0  0  0  0  0
  142.7480   80.1404  224.8310 H   0  0  0  0  0  0  0  0  0  0  0  0
  143.8795   80.9179  223.6726 H   0  0  0  0  0  0  0  0  0  0  0  0
  142.1416   81.3721  223.6726 H   0  0  0  0  0  0  0  0  0  0  0  0
  143.5045   78.9918  222.4398 H   0  0  0  0  0  0  0  0  0  0  0  0
  141.1413   80.7770  221.8360 H   0  0  0  0  0  0  0  0  0  0  0  0
  142.6633   80.5051  220.9048 H   0  0  0  0  0  0  0  0  0  0  0  0
  140.7539   79.3726  219.8232 H   0  0  0  0  0  0  0  0  0  0  0  0
  141.9593   78.1801  220.4399 H   0  0  0  0  0  0  0  0  0  0  0  0
  139.1928   78.8205  221.3444 H   0  0  0  0  0  0  0  0  0  0  0  0
  138.6375   76.3894  219.4470 H   0  0  0  0  0  0  0  0  0  0  0  0
  139.9349   77.5827  219.1733 H   0  0  0  0  0  0  0  0  0  0  0  0
  140.1598   74.9011  218.5227 H   0  0  0  0  0  0  0  0  0  0  0  0
  141.5614   75.8973  218.8858 H   0  0  0  0  0  0  0  0  0  0  0  0
  139.0937   73.7964  221.6160 H   0  0  0  0  0  0  0  0  0  0  0  0
  139.1074   73.5012  219.8695 H   0  0  0  0  0  0  0  0  0  0  0  0
  140.9994   73.0344  223.7179 H   0  0  0  0  0  0  0  0  0  0  0  0
  141.5170   72.9295  226.5504 H   0  0  0  0  0  0  0  0  0  0  0  0
  141.3996   71.3899  228.5419 H   0  0  0  0  0  0  0  0  0  0  0  0
  139.8272   68.2153  226.0075 H   0  0  0  0  0  0  0  0  0  0  0  0
  139.5690   68.9870  223.3930 H   0  0  0  0  0  0  0  0  0  0  0  0
  142.7839   70.6945  221.1686 H   0  0  0  0  0  0  0  0  0  0  0  0
  145.1303   71.5655  220.9330 H   0  0  0  0  0  0  0  0  0  0  0  0
  145.5257   74.0038  220.5232 H   0  0  0  0  0  0  0  0  0  0  0  0
  143.5785   75.5788  220.3280 H   0  0  0  0  0  0  0  0  0  0  0  0
  140.2657   75.3603  222.5992 H   0  0  0  0  0  0  0  0  0  0  0  0
  141.6758   76.2164  221.9413 H   0  0  0  0  0  0  0  0  0  0  0  0
  139.8966   79.2758  223.4673 H   0  0  0  0  0  0  0  0  0  0  0  0
  139.9192   77.4553  223.5675 H   0  0  0  0  0  0  0  0  0  0  0  0
  142.2140   77.4370  223.2290 H   0  0  0  0  0  0  0  0  0  0  0  0
  1  2  1  0
  2  3  1  0
  3  4  1  0
  4  5  1  0
  5  6  1  0
  6  7  1  0
  7  8  1  0
  9  8  1  6
  9 10  1  0
 10 11  1  0
 11 12  1  0
 12 13  2  0
 12 14  1  0
 14 15  2  0
 15 16  1  0
 16 17  2  0
 17 18  1  0
 18 19  2  0
 19 20  1  0
 19 21  1  0
 21 22  2  0
 22 23  1  0
 11 24  1  0
 24 25  2  0
 25 26  1  0
 26 27  2  0
 27 28  1  0
 28 29  2  0
  9 30  1  0
  5 31  1  0
 31 32  1  0
 32  2  1  0
 30  6  1  0
 29  9  1  0
 23 14  1  0
 29 24  1  0
 22 16  1  0
  1 33  1  0
  1 34  1  0
  1 35  1  0
  2 36  1  6
  3 37  1  0
  3 38  1  0
  4 39  1  0
  4 40  1  0
  5 41  1  1
  7 42  1  0
  7 43  1  0
  8 44  1  0
  8 45  1  0
 10 46  1  0
 10 47  1  0
 15 48  1  0
 17 49  1  0
 18 50  1  0
 21 51  1  0
 23 52  1  0
 25 53  1  0
 26 54  1  0
 27 55  1  0
 28 56  1  0
 30 57  1  0
 30 58  1  0
 31 59  1  0
 31 60  1  0
 32 61  1  0
M  END
>  <UniqueID>  (73) 
95

>  <SMILES>  (73) 
C[C@@H]1CC[C@@H](N2CC[C@]3(CN(C(=O)c4cc5ccc(F)cc5[nH]4)c4ccccc43)C2)CN1

>  <Energy>  (73) 
135.06761424271122

>  <Genealogy>  (73) 
C[C@@H]1CC[C@@H](N2CC[C@]3(CN(C(=O)c4cc5ccc(F)cc5[nH]4)c4ccccc43)C2)CN1 (chirality)
C[C@@H]1CC[C@@H](N2CC[C@]3(CN(C(=O)c4cc5ccc(F)cc5[nH]4)c4ccccc43)C2)CN1 (3D coordinates assigned)
C[C@@H]1CC[C@@H](N2CC[C@]3(CN(C(=O)c4cc5ccc(F)cc5[nH]4)c4ccccc43)C2)CN1 (nonaromatic ring conformer: 135.06761424271122 kcal/mol)

>  <smiles>  (73) 
C[C@@H]1CCC(N2CC[C@]3(CN(C(=O)c4cc5ccc(F)cc5[nH]4)c4ccccc43)C2)CN1

>  <score_type>  (73) 
oracle

>  <origin>  (73) 
autodockgpu

>  <m_score__min__energy>  (73) 
-9.3300000000000001

>  <m_primary>  (73) 
energy

>  <meeko>  (73) 
{"free_energy": -9.32, "intermolecular_energy": -10.22, "internal_energy": -1.55, "cluster_size": 19, "cluster_id": 1, "rank_in_cluster": 8}

>  <energy>  (73) 
-9.31

>  <cluster_rmsd>  (73) 
0.2

>  <rmsd>  (73) 
270.75

>  <cluster>  (73) 
1

$$$$
MYPHZBOANNRFAS-AGTLBBOYNA-N
     RDKit          3D

 61 66  0  0  0  0  0  0  0  0999 V2000
  142.8720   80.4980  223.7350 C   0  0  0  0  0  0  0  0  0  0  0  0
  142.5430   79.3950  222.7270 C   0  0  2  0  0  0  0  0  0  0  0  0
  141.8430   79.9860  221.4800 C   0  0  0  0  0  0  0  0  0  0  0  0
  141.1240   78.8890  220.6970 C   0  0  0  0  0  0  0  0  0  0  0  0
  140.0320   78.2180  221.5760 C   0  0  1  0  0  0  0  0  0  0  0  0
  139.6970   76.8240  221.1840 N   0  0  0  0  0  0  0  0  0  0  0  0
  139.5380   76.6270  219.7320 C   0  0  0  0  0  0  0  0  0  0  0  0
  140.4530   75.4860  219.3150 C   0  0  0  0  0  0  0  0  0  0  0  0
  140.6700   74.6970  220.6010 C   0  0  1  0  0  0  0  0  0  0  0  0
  139.6020   73.5650  220.8000 C   0  0  0  0  0  0  0  0  0  0  0  0
  140.3590   72.3290  221.0200 N   0  0  0  0  0  0  0  0  0  0  0  0
  139.8240   71.1950  221.7220 C   0  0  0  0  0  0  0  0  0  0  0  0
  139.2090   70.2980  221.0850 O   0  0  0  0  0  0  0  0  0  0  0  0
  140.0070   71.0500  223.1730 C   0  0  0  0  0  0  0  0  0  0  0  0
  140.6890   71.9570  223.9820 C   0  0  0  0  0  0  0  0  0  0  0  0
  140.6400   71.4120  225.2450 C   0  0  0  0  0  0  0  0  0  0  0  0
  141.1530   71.8800  226.4520 C   0  0  0  0  0  0  0  0  0  0  0  0
  140.9560   71.0890  227.5980 C   0  0  0  0  0  0  0  0  0  0  0  0
  140.2630   69.8620  227.5100 C   0  0  0  0  0  0  0  0  0  0  0  0
  140.0810   69.1080  228.6240 F   0  0  0  0  0  0  0  0  0  0  0  0
  139.7570   69.4160  226.2750 C   0  0  0  0  0  0  0  0  0  0  0  0
  139.9620   70.2250  225.1580 C   0  0  0  0  0  0  0  0  0  0  0  0
  139.5680   69.9900  223.8960 N   0  0  0  0  0  0  0  0  0  0  0  0
  141.7440   72.6160  220.8840 C   0  0  0  0  0  0  0  0  0  0  0  0
  142.8000   71.7000  220.9640 C   0  0  0  0  0  0  0  0  0  0  0  0
  144.1110   72.1720  220.7960 C   0  0  0  0  0  0  0  0  0  0  0  0
  144.3450   73.5370  220.5480 C   0  0  0  0  0  0  0  0  0  0  0  0
  143.2690   74.4340  220.4610 C   0  0  0  0  0  0  0  0  0  0  0  0
  141.9680   73.9420  220.6250 C   0  0  0  0  0  0  0  0  0  0  0  0
  140.5920   75.7700  221.6920 C   0  0  0  0  0  0  0  0  0  0  0  0
  140.3310   78.3280  223.0960 C   0  0  0  0  0  0  0  0  0  0  0  0
  141.7700   78.3310  223.4030 N   0  0  0  0  0  0  0  0  0  0  0  0
  142.7555   80.1076  224.7568 H   0  0  0  0  0  0  0  0  0  0  0  0
  143.9092   80.8330  223.5865 H   0  0  0  0  0  0  0  0  0  0  0  0
  142.1878   81.3464  223.5865 H   0  0  0  0  0  0  0  0  0  0  0  0
  143.4659   78.9296  222.3505 H   0  0  0  0  0  0  0  0  0  0  0  0
  141.1101   80.7410  221.8006 H   0  0  0  0  0  0  0  0  0  0  0  0
  142.6030   80.4453  220.8308 H   0  0  0  0  0  0  0  0  0  0  0  0
  140.6515   79.3301  219.8070 H   0  0  0  0  0  0  0  0  0  0  0  0
  141.8581   78.1262  220.3984 H   0  0  0  0  0  0  0  0  0  0  0  0
  139.1254   78.8072  221.3738 H   0  0  0  0  0  0  0  0  0  0  0  0
  138.4931   76.3723  219.5011 H   0  0  0  0  0  0  0  0  0  0  0  0
  139.7988   77.5471  219.1885 H   0  0  0  0  0  0  0  0  0  0  0  0
  139.9726   74.8599  218.5487 H   0  0  0  0  0  0  0  0  0  0  0  0
  141.3955   75.8400  218.8719 H   0  0  0  0  0  0  0  0  0  0  0  0
  138.9690   73.7858  221.6721 H   0  0  0  0  0  0  0  0  0  0  0  0
  138.9374   73.4804  219.9276 H   0  0  0  0  0  0  0  0  0  0  0  0
  141.1629   72.9019  223.6777 H   0  0  0  0  0  0  0  0  0  0  0  0
  141.6941   72.8361  226.5072 H   0  0  0  0  0  0  0  0  0  0  0  0
  141.3444   71.4285  228.5695 H   0  0  0  0  0  0  0  0  0  0  0  0
  139.2176   68.4608  226.1935 H   0  0  0  0  0  0  0  0  0  0  0  0
  139.0610   69.1480  223.5470 H   0  0  0  0  0  0  0  0  0  0  0  0
  142.6064   70.6340  221.1543 H   0  0  0  0  0  0  0  0  0  0  0  0
  144.9579   71.4728  220.8584 H   0  0  0  0  0  0  0  0  0  0  0  0
  145.3748   73.9025  220.4219 H   0  0  0  0  0  0  0  0  0  0  0  0
  143.4441   75.5026  220.2678 H   0  0  0  0  0  0  0  0  0  0  0  0
  140.1840   75.3399  222.6186 H   0  0  0  0  0  0  0  0  0  0  0  0
  141.5889   76.1738  221.9226 H   0  0  0  0  0  0  0  0  0  0  0  0
  139.8909   79.2632  223.4725 H   0  0  0  0  0  0  0  0  0  0  0  0
  139.8943   77.4425  223.5809 H   0  0  0  0  0  0  0  0  0  0  0  0
  142.1780   77.3950  223.1830 H   0  0  0  0  0  0  0  0  0  0  0  0
  1  2  1  0
  2  3  1  0
  3  4  1  0
  4  5  1  0
  5  6  1  0
  6  7  1  0
  7  8  1  0
  9  8  1  6
  9 10  1  0
 10 11  1  0
 11 12  1  0
 12 13  2  0
 12 14  1  0
 14 15  2  0
 15 16  1  0
 16 17  2  0
 17 18  1  0
 18 19  2  0
 19 20  1  0
 19 21  1  0
 21 22  2  0
 22 23  1  0
 11 24  1  0
 24 25  2  0
 25 26  1  0
 26 27  2  0
 27 28  1  0
 28 29  2  0
  9 30  1  0
  5 31  1  0
 31 32  1  0
 32  2  1  0
 30  6  1  0
 29  9  1  0
 23 14  1  0
 29 24  1  0
 22 16  1  0
  1 33  1  0
  1 34  1  0
  1 35  1  0
  2 36  1  6
  3 37  1  0
  3 38  1  0
  4 39  1  0
  4 40  1  0
  5 41  1  1
  7 42  1  0
  7 43  1  0
  8 44  1  0
  8 45  1  0
 10 46  1  0
 10 47  1  0
 15 48  1  0
 17 49  1  0
 18 50  1  0
 21 51  1  0
 23 52  1  0
 25 53  1  0
 26 54  1  0
 27 55  1  0
 28 56  1  0
 30 57  1  0
 30 58  1  0
 31 59  1  0
 31 60  1  0
 32 61  1  0
M  END
>  <UniqueID>  (74) 
95

>  <SMILES>  (74) 
C[C@@H]1CC[C@@H](N2CC[C@]3(CN(C(=O)c4cc5ccc(F)cc5[nH]4)c4ccccc43)C2)CN1

>  <Energy>  (74) 
135.06761424271122

>  <Genealogy>  (74) 
C[C@@H]1CC[C@@H](N2CC[C@]3(CN(C(=O)c4cc5ccc(F)cc5[nH]4)c4ccccc43)C2)CN1 (chirality)
C[C@@H]1CC[C@@H](N2CC[C@]3(CN(C(=O)c4cc5ccc(F)cc5[nH]4)c4ccccc43)C2)CN1 (3D coordinates assigned)
C[C@@H]1CC[C@@H](N2CC[C@]3(CN(C(=O)c4cc5ccc(F)cc5[nH]4)c4ccccc43)C2)CN1 (nonaromatic ring conformer: 135.06761424271122 kcal/mol)

>  <smiles>  (74) 
C[C@@H]1CCC(N2CC[C@]3(CN(C(=O)c4cc5ccc(F)cc5[nH]4)c4ccccc43)C2)CN1

>  <score_type>  (74) 
oracle

>  <origin>  (74) 
autodockgpu

>  <m_score__min__energy>  (74) 
-9.3300000000000001

>  <m_primary>  (74) 
energy

>  <meeko>  (74) 
{"free_energy": -9.31, "intermolecular_energy": -10.21, "internal_energy": -1.55, "cluster_size": 19, "cluster_id": 1, "rank_in_cluster": 16}

>  <energy>  (74) 
-9.31

>  <cluster_rmsd>  (74) 
0.06

>  <rmsd>  (74) 
270.79

>  <cluster>  (74) 
1

$$$$
MYPHZBOANNRFAS-AGTLBBOYNA-N
     RDKit          3D

 61 66  0  0  0  0  0  0  0  0999 V2000
  142.8220   80.5150  223.7650 C   0  0  0  0  0  0  0  0  0  0  0  0
  142.5250   79.3990  222.7620 C   0  0  2  0  0  0  0  0  0  0  0  0
  141.8300   79.9690  221.5020 C   0  0  0  0  0  0  0  0  0  0  0  0
  141.1400   78.8540  220.7170 C   0  0  0  0  0  0  0  0  0  0  0  0
  140.0500   78.1700  221.5870 C   0  0  1  0  0  0  0  0  0  0  0  0
  139.7440   76.7670  221.2020 N   0  0  0  0  0  0  0  0  0  0  0  0
  139.5820   76.5630  219.7510 C   0  0  0  0  0  0  0  0  0  0  0  0
  140.5210   75.4410  219.3320 C   0  0  0  0  0  0  0  0  0  0  0  0
  140.7610   74.6620  220.6200 C   0  0  1  0  0  0  0  0  0  0  0  0
  139.7190   73.5070  220.8280 C   0  0  0  0  0  0  0  0  0  0  0  0
  140.5060   72.2880  221.0470 N   0  0  0  0  0  0  0  0  0  0  0  0
  139.9990   71.1450  221.7550 C   0  0  0  0  0  0  0  0  0  0  0  0
  139.4190   70.2230  221.1210 O   0  0  0  0  0  0  0  0  0  0  0  0
  140.1710   71.0190  223.2090 C   0  0  0  0  0  0  0  0  0  0  0  0
  140.6840   72.0170  224.0360 C   0  0  0  0  0  0  0  0  0  0  0  0
  140.6960   71.4610  225.2960 C   0  0  0  0  0  0  0  0  0  0  0  0
  141.1020   71.9950  226.5160 C   0  0  0  0  0  0  0  0  0  0  0  0
  141.0080   71.1740  227.6540 C   0  0  0  0  0  0  0  0  0  0  0  0
  140.5210   69.8530  227.5460 C   0  0  0  0  0  0  0  0  0  0  0  0
  140.4370   69.0720  228.6520 F   0  0  0  0  0  0  0  0  0  0  0  0
  140.1180   69.3430  226.2980 C   0  0  0  0  0  0  0  0  0  0  0  0
  140.2160   70.1830  225.1890 C   0  0  0  0  0  0  0  0  0  0  0  0
  139.8910   69.8970  223.9170 N   0  0  0  0  0  0  0  0  0  0  0  0
  141.8830   72.6050  220.9040 C   0  0  0  0  0  0  0  0  0  0  0  0
  142.9590   71.7140  220.9810 C   0  0  0  0  0  0  0  0  0  0  0  0
  144.2580   72.2150  220.8050 C   0  0  0  0  0  0  0  0  0  0  0  0
  144.4610   73.5840  220.5520 C   0  0  0  0  0  0  0  0  0  0  0  0
  143.3650   74.4560  220.4680 C   0  0  0  0  0  0  0  0  0  0  0  0
  142.0750   73.9350  220.6400 C   0  0  0  0  0  0  0  0  0  0  0  0
  140.6650   75.7350  221.7080 C   0  0  0  0  0  0  0  0  0  0  0  0
  140.3270   78.2950  223.1110 C   0  0  0  0  0  0  0  0  0  0  0  0
  141.7630   78.3250  223.4350 N   0  0  0  0  0  0  0  0  0  0  0  0
  142.7183   80.1253  224.7884 H   0  0  0  0  0  0  0  0  0  0  0  0
  143.8486   80.8801  223.6139 H   0  0  0  0  0  0  0  0  0  0  0  0
  142.1127   81.3421  223.6139 H   0  0  0  0  0  0  0  0  0  0  0  0
  143.4609   78.9473  222.4014 H   0  0  0  0  0  0  0  0  0  0  0  0
  141.0799   80.7129  221.8083 H   0  0  0  0  0  0  0  0  0  0  0  0
  142.5900   80.4371  220.8591 H   0  0  0  0  0  0  0  0  0  0  0  0
  140.6707   79.2810  219.8184 H   0  0  0  0  0  0  0  0  0  0  0  0
  141.8910   78.1024  220.4320 H   0  0  0  0  0  0  0  0  0  0  0  0
  139.1368   78.7429  221.3681 H   0  0  0  0  0  0  0  0  0  0  0  0
  138.5419   76.2844  219.5260 H   0  0  0  0  0  0  0  0  0  0  0  0
  139.8191   77.4874  219.2039 H   0  0  0  0  0  0  0  0  0  0  0  0
  140.0511   74.8018  218.5700 H   0  0  0  0  0  0  0  0  0  0  0  0
  141.4531   75.8141  218.8825 H   0  0  0  0  0  0  0  0  0  0  0  0
  139.0862   73.7160  221.7032 H   0  0  0  0  0  0  0  0  0  0  0  0
  139.0511   73.4053  219.9599 H   0  0  0  0  0  0  0  0  0  0  0  0
  141.0082   73.0273  223.7458 H   0  0  0  0  0  0  0  0  0  0  0  0
  141.4834   73.0243  226.5874 H   0  0  0  0  0  0  0  0  0  0  0  0
  141.3161   71.5638  228.6354 H   0  0  0  0  0  0  0  0  0  0  0  0
  139.7381   68.3153  226.2003 H   0  0  0  0  0  0  0  0  0  0  0  0
  139.5320   68.9890  223.5540 H   0  0  0  0  0  0  0  0  0  0  0  0
  142.7905   70.6445  221.1752 H   0  0  0  0  0  0  0  0  0  0  0  0
  145.1205   71.5350  220.8650 H   0  0  0  0  0  0  0  0  0  0  0  0
  145.4818   73.9718  220.4197 H   0  0  0  0  0  0  0  0  0  0  0  0
  143.5151   75.5278  220.2710 H   0  0  0  0  0  0  0  0  0  0  0  0
  140.2716   75.2984  222.6379 H   0  0  0  0  0  0  0  0  0  0  0  0
  141.6537   76.1616  221.9324 H   0  0  0  0  0  0  0  0  0  0  0  0
  139.8660   79.2247  223.4758 H   0  0  0  0  0  0  0  0  0  0  0  0
  139.8989   77.4058  223.5969 H   0  0  0  0  0  0  0  0  0  0  0  0
  142.1900   77.3950  223.2270 H   0  0  0  0  0  0  0  0  0  0  0  0
  1  2  1  0
  2  3  1  0
  3  4  1  0
  4  5  1  0
  5  6  1  0
  6  7  1  0
  7  8  1  0
  9  8  1  6
  9 10  1  0
 10 11  1  0
 11 12  1  0
 12 13  2  0
 12 14  1  0
 14 15  2  0
 15 16  1  0
 16 17  2  0
 17 18  1  0
 18 19  2  0
 19 20  1  0
 19 21  1  0
 21 22  2  0
 22 23  1  0
 11 24  1  0
 24 25  2  0
 25 26  1  0
 26 27  2  0
 27 28  1  0
 28 29  2  0
  9 30  1  0
  5 31  1  0
 31 32  1  0
 32  2  1  0
 30  6  1  0
 29  9  1  0
 23 14  1  0
 29 24  1  0
 22 16  1  0
  1 33  1  0
  1 34  1  0
  1 35  1  0
  2 36  1  6
  3 37  1  0
  3 38  1  0
  4 39  1  0
  4 40  1  0
  5 41  1  1
  7 42  1  0
  7 43  1  0
  8 44  1  0
  8 45  1  0
 10 46  1  0
 10 47  1  0
 15 48  1  0
 17 49  1  0
 18 50  1  0
 21 51  1  0
 23 52  1  0
 25 53  1  0
 26 54  1  0
 27 55  1  0
 28 56  1  0
 30 57  1  0
 30 58  1  0
 31 59  1  0
 31 60  1  0
 32 61  1  0
M  END
>  <UniqueID>  (75) 
95

>  <SMILES>  (75) 
C[C@@H]1CC[C@@H](N2CC[C@]3(CN(C(=O)c4cc5ccc(F)cc5[nH]4)c4ccccc43)C2)CN1

>  <Energy>  (75) 
135.06761424271122

>  <Genealogy>  (75) 
C[C@@H]1CC[C@@H](N2CC[C@]3(CN(C(=O)c4cc5ccc(F)cc5[nH]4)c4ccccc43)C2)CN1 (chirality)
C[C@@H]1CC[C@@H](N2CC[C@]3(CN(C(=O)c4cc5ccc(F)cc5[nH]4)c4ccccc43)C2)CN1 (3D coordinates assigned)
C[C@@H]1CC[C@@H](N2CC[C@]3(CN(C(=O)c4cc5ccc(F)cc5[nH]4)c4ccccc43)C2)CN1 (nonaromatic ring conformer: 135.06761424271122 kcal/mol)

>  <smiles>  (75) 
C[C@@H]1CCC(N2CC[C@]3(CN(C(=O)c4cc5ccc(F)cc5[nH]4)c4ccccc43)C2)CN1

>  <score_type>  (75) 
oracle

>  <origin>  (75) 
autodockgpu

>  <m_score__min__energy>  (75) 
-9.3300000000000001

>  <m_primary>  (75) 
energy

>  <meeko>  (75) 
{"free_energy": -9.32, "intermolecular_energy": -10.22, "internal_energy": -1.55, "cluster_size": 19, "cluster_id": 1, "rank_in_cluster": 6}

>  <energy>  (75) 
-9.31

>  <cluster_rmsd>  (75) 
0.13

>  <rmsd>  (75) 
270.8

>  <cluster>  (75) 
1

$$$$
MYPHZBOANNRFAS-AGTLBBOYNA-N
     RDKit          3D

 61 66  0  0  0  0  0  0  0  0999 V2000
  142.9120   80.5280  223.7420 C   0  0  0  0  0  0  0  0  0  0  0  0
  142.5860   79.4250  222.7320 C   0  0  2  0  0  0  0  0  0  0  0  0
  141.8930   80.0180  221.4820 C   0  0  0  0  0  0  0  0  0  0  0  0
  141.1760   78.9220  220.6950 C   0  0  0  0  0  0  0  0  0  0  0  0
  140.0790   78.2520  221.5680 C   0  0  1  0  0  0  0  0  0  0  0  0
  139.7430   76.8590  221.1750 N   0  0  0  0  0  0  0  0  0  0  0  0
  139.5950   76.6620  219.7220 C   0  0  0  0  0  0  0  0  0  0  0  0
  140.5110   75.5180  219.3120 C   0  0  0  0  0  0  0  0  0  0  0  0
  140.7150   74.7300  220.6010 C   0  0  1  0  0  0  0  0  0  0  0  0
  139.6420   73.6010  220.7920 C   0  0  0  0  0  0  0  0  0  0  0  0
  140.3950   72.3620  221.0190 N   0  0  0  0  0  0  0  0  0  0  0  0
  139.8510   71.2300  221.7170 C   0  0  0  0  0  0  0  0  0  0  0  0
  139.2140   70.3490  221.0800 O   0  0  0  0  0  0  0  0  0  0  0  0
  140.0500   71.0690  223.1640 C   0  0  0  0  0  0  0  0  0  0  0  0
  140.6710   72.0050  223.9890 C   0  0  0  0  0  0  0  0  0  0  0  0
  140.6660   71.4320  225.2410 C   0  0  0  0  0  0  0  0  0  0  0  0
  141.1510   71.9100  226.4560 C   0  0  0  0  0  0  0  0  0  0  0  0
  141.0150   71.0830  227.5860 C   0  0  0  0  0  0  0  0  0  0  0  0
  140.4090   69.8120  227.4750 C   0  0  0  0  0  0  0  0  0  0  0  0
  140.2860   69.0250  228.5730 F   0  0  0  0  0  0  0  0  0  0  0  0
  139.9300   69.3580  226.2320 C   0  0  0  0  0  0  0  0  0  0  0  0
  140.0720   70.2020  225.1310 C   0  0  0  0  0  0  0  0  0  0  0  0
  139.6900   69.9650  223.8660 N   0  0  0  0  0  0  0  0  0  0  0  0
  141.7810   72.6450  220.8940 C   0  0  0  0  0  0  0  0  0  0  0  0
  142.8340   71.7270  220.9820 C   0  0  0  0  0  0  0  0  0  0  0  0
  144.1470   72.1960  220.8240 C   0  0  0  0  0  0  0  0  0  0  0  0
  144.3870   73.5600  220.5770 C   0  0  0  0  0  0  0  0  0  0  0  0
  143.3140   74.4600  220.4810 C   0  0  0  0  0  0  0  0  0  0  0  0
  142.0100   73.9710  220.6360 C   0  0  0  0  0  0  0  0  0  0  0  0
  140.6310   75.8030  221.6900 C   0  0  0  0  0  0  0  0  0  0  0  0
  140.3700   78.3610  223.0900 C   0  0  0  0  0  0  0  0  0  0  0  0
  141.8080   78.3620  223.4040 N   0  0  0  0  0  0  0  0  0  0  0  0
  142.7961   80.1360  224.7632 H   0  0  0  0  0  0  0  0  0  0  0  0
  143.9484   80.8658  223.5943 H   0  0  0  0  0  0  0  0  0  0  0  0
  142.2258   81.3749  223.5943 H   0  0  0  0  0  0  0  0  0  0  0  0
  143.5097   78.9577  222.3600 H   0  0  0  0  0  0  0  0  0  0  0  0
  141.1597   80.7740  221.7994 H   0  0  0  0  0  0  0  0  0  0  0  0
  142.6567   80.4767  220.8367 H   0  0  0  0  0  0  0  0  0  0  0  0
  140.7084   79.3642  219.8029 H   0  0  0  0  0  0  0  0  0  0  0  0
  141.9106   78.1583  220.3999 H   0  0  0  0  0  0  0  0  0  0  0  0
  139.1749   78.8430  221.3600 H   0  0  0  0  0  0  0  0  0  0  0  0
  138.5513   76.4098  219.4830 H   0  0  0  0  0  0  0  0  0  0  0  0
  139.8624   77.5813  219.1804 H   0  0  0  0  0  0  0  0  0  0  0  0
  140.0352   74.8925  218.5423 H   0  0  0  0  0  0  0  0  0  0  0  0
  141.4578   75.8688  218.8755 H   0  0  0  0  0  0  0  0  0  0  0  0
  139.0026   73.8240  221.6589 H   0  0  0  0  0  0  0  0  0  0  0  0
  138.9840   73.5177  219.9145 H   0  0  0  0  0  0  0  0  0  0  0  0
  141.0764   72.9866  223.7026 H   0  0  0  0  0  0  0  0  0  0  0  0
  141.6242   72.9003  226.5295 H   0  0  0  0  0  0  0  0  0  0  0  0
  141.3833   71.4288  228.5631 H   0  0  0  0  0  0  0  0  0  0  0  0
  139.4587   68.3691  226.1321 H   0  0  0  0  0  0  0  0  0  0  0  0
  139.2420   69.0980  223.5020 H   0  0  0  0  0  0  0  0  0  0  0  0
  142.6366   70.6615  221.1708 H   0  0  0  0  0  0  0  0  0  0  0  0
  144.9916   71.4947  220.8935 H   0  0  0  0  0  0  0  0  0  0  0  0
  145.4188   73.9225  220.4587 H   0  0  0  0  0  0  0  0  0  0  0  0
  143.4933   75.5280  220.2879 H   0  0  0  0  0  0  0  0  0  0  0  0
  140.2146   75.3743  222.6135 H   0  0  0  0  0  0  0  0  0  0  0  0
  141.6271   76.2045  221.9280 H   0  0  0  0  0  0  0  0  0  0  0  0
  139.9291   79.2966  223.4646 H   0  0  0  0  0  0  0  0  0  0  0  0
  139.9294   77.4761  223.5725 H   0  0  0  0  0  0  0  0  0  0  0  0
  142.2160   77.4250  223.1860 H   0  0  0  0  0  0  0  0  0  0  0  0
  1  2  1  0
  2  3  1  0
  3  4  1  0
  4  5  1  0
  5  6  1  0
  6  7  1  0
  7  8  1  0
  9  8  1  6
  9 10  1  0
 10 11  1  0
 11 12  1  0
 12 13  2  0
 12 14  1  0
 14 15  2  0
 15 16  1  0
 16 17  2  0
 17 18  1  0
 18 19  2  0
 19 20  1  0
 19 21  1  0
 21 22  2  0
 22 23  1  0
 11 24  1  0
 24 25  2  0
 25 26  1  0
 26 27  2  0
 27 28  1  0
 28 29  2  0
  9 30  1  0
  5 31  1  0
 31 32  1  0
 32  2  1  0
 30  6  1  0
 29  9  1  0
 23 14  1  0
 29 24  1  0
 22 16  1  0
  1 33  1  0
  1 34  1  0
  1 35  1  0
  2 36  1  6
  3 37  1  0
  3 38  1  0
  4 39  1  0
  4 40  1  0
  5 41  1  1
  7 42  1  0
  7 43  1  0
  8 44  1  0
  8 45  1  0
 10 46  1  0
 10 47  1  0
 15 48  1  0
 17 49  1  0
 18 50  1  0
 21 51  1  0
 23 52  1  0
 25 53  1  0
 26 54  1  0
 27 55  1  0
 28 56  1  0
 30 57  1  0
 30 58  1  0
 31 59  1  0
 31 60  1  0
 32 61  1  0
M  END
>  <UniqueID>  (76) 
95

>  <SMILES>  (76) 
C[C@@H]1CC[C@@H](N2CC[C@]3(CN(C(=O)c4cc5ccc(F)cc5[nH]4)c4ccccc43)C2)CN1

>  <Energy>  (76) 
135.06761424271122

>  <Genealogy>  (76) 
C[C@@H]1CC[C@@H](N2CC[C@]3(CN(C(=O)c4cc5ccc(F)cc5[nH]4)c4ccccc43)C2)CN1 (chirality)
C[C@@H]1CC[C@@H](N2CC[C@]3(CN(C(=O)c4cc5ccc(F)cc5[nH]4)c4ccccc43)C2)CN1 (3D coordinates assigned)
C[C@@H]1CC[C@@H](N2CC[C@]3(CN(C(=O)c4cc5ccc(F)cc5[nH]4)c4ccccc43)C2)CN1 (nonaromatic ring conformer: 135.06761424271122 kcal/mol)

>  <smiles>  (76) 
C[C@@H]1CCC(N2CC[C@]3(CN(C(=O)c4cc5ccc(F)cc5[nH]4)c4ccccc43)C2)CN1

>  <score_type>  (76) 
oracle

>  <origin>  (76) 
autodockgpu

>  <m_score__min__energy>  (76) 
-9.3300000000000001

>  <m_primary>  (76) 
energy

>  <meeko>  (76) 
{"free_energy": -9.31, "intermolecular_energy": -10.2, "internal_energy": -1.55, "cluster_size": 19, "cluster_id": 1, "rank_in_cluster": 17}

>  <energy>  (76) 
-9.31

>  <cluster_rmsd>  (76) 
0.24

>  <rmsd>  (76) 
270.72

>  <cluster>  (76) 
1

$$$$
MYPHZBOANNRFAS-AGTLBBOYNA-N
     RDKit          3D

 61 66  0  0  0  0  0  0  0  0999 V2000
  142.8330   80.5560  223.7510 C   0  0  0  0  0  0  0  0  0  0  0  0
  142.5330   79.4500  222.7390 C   0  0  2  0  0  0  0  0  0  0  0  0
  141.8230   80.0290  221.4920 C   0  0  0  0  0  0  0  0  0  0  0  0
  141.1320   78.9190  220.7020 C   0  0  0  0  0  0  0  0  0  0  0  0
  140.0530   78.2190  221.5750 C   0  0  1  0  0  0  0  0  0  0  0  0
  139.7510   76.8190  221.1770 N   0  0  0  0  0  0  0  0  0  0  0  0
  139.6060   76.6230  219.7240 C   0  0  0  0  0  0  0  0  0  0  0  0
  140.5490   75.5040  219.3090 C   0  0  0  0  0  0  0  0  0  0  0  0
  140.7740   74.7170  220.5950 C   0  0  1  0  0  0  0  0  0  0  0  0
  139.7290   73.5610  220.7840 C   0  0  0  0  0  0  0  0  0  0  0  0
  140.5120   72.3400  221.0050 N   0  0  0  0  0  0  0  0  0  0  0  0
  139.9970   71.1930  221.7000 C   0  0  0  0  0  0  0  0  0  0  0  0
  139.4170   70.2790  221.0550 O   0  0  0  0  0  0  0  0  0  0  0  0
  140.1610   71.0540  223.1540 C   0  0  0  0  0  0  0  0  0  0  0  0
  140.6990   72.0320  223.9890 C   0  0  0  0  0  0  0  0  0  0  0  0
  140.6910   71.4690  225.2450 C   0  0  0  0  0  0  0  0  0  0  0  0
  141.1080   71.9850  226.4700 C   0  0  0  0  0  0  0  0  0  0  0  0
  140.9880   71.1600  227.6020 C   0  0  0  0  0  0  0  0  0  0  0  0
  140.4640   69.8540  227.4850 C   0  0  0  0  0  0  0  0  0  0  0  0
  140.3550   69.0690  228.5860 F   0  0  0  0  0  0  0  0  0  0  0  0
  140.0520   69.3620  226.2330 C   0  0  0  0  0  0  0  0  0  0  0  0
  140.1760   70.2050  225.1290 C   0  0  0  0  0  0  0  0  0  0  0  0
  139.8470   69.9370  223.8550 N   0  0  0  0  0  0  0  0  0  0  0  0
  141.8910   72.6580  220.8790 C   0  0  0  0  0  0  0  0  0  0  0  0
  142.9660   71.7650  220.9640 C   0  0  0  0  0  0  0  0  0  0  0  0
  144.2670   72.2670  220.8050 C   0  0  0  0  0  0  0  0  0  0  0  0
  144.4730   73.6370  220.5630 C   0  0  0  0  0  0  0  0  0  0  0  0
  143.3790   74.5110  220.4710 C   0  0  0  0  0  0  0  0  0  0  0  0
  142.0870   73.9900  220.6250 C   0  0  0  0  0  0  0  0  0  0  0  0
  140.6650   75.7840  221.6880 C   0  0  0  0  0  0  0  0  0  0  0  0
  140.3440   78.3300  223.0970 C   0  0  0  0  0  0  0  0  0  0  0  0
  141.7820   78.3650  223.4080 N   0  0  0  0  0  0  0  0  0  0  0  0
  142.7252   80.1587  224.7711 H   0  0  0  0  0  0  0  0  0  0  0  0
  143.8616   80.9174  223.6050 H   0  0  0  0  0  0  0  0  0  0  0  0
  142.1280   81.3876  223.6050 H   0  0  0  0  0  0  0  0  0  0  0  0
  143.4681   79.0078  222.3648 H   0  0  0  0  0  0  0  0  0  0  0  0
  141.0717   80.7654  221.8133 H   0  0  0  0  0  0  0  0  0  0  0  0
  142.5743   80.5080  220.8470 H   0  0  0  0  0  0  0  0  0  0  0  0
  140.6521   79.3529  219.8124 H   0  0  0  0  0  0  0  0  0  0  0  0
  141.8845   78.1747  220.4024 H   0  0  0  0  0  0  0  0  0  0  0  0
  139.1340   78.7881  221.3713 H   0  0  0  0  0  0  0  0  0  0  0  0
  138.5686   76.3457  219.4856 H   0  0  0  0  0  0  0  0  0  0  0  0
  139.8499   77.5504  219.1851 H   0  0  0  0  0  0  0  0  0  0  0  0
  140.0878   74.8696  218.5378 H   0  0  0  0  0  0  0  0  0  0  0  0
  141.4862   75.8796  218.8725 H   0  0  0  0  0  0  0  0  0  0  0  0
  139.0861   73.7653  221.6529 H   0  0  0  0  0  0  0  0  0  0  0  0
  139.0717   73.4649  219.9073 H   0  0  0  0  0  0  0  0  0  0  0  0
  141.0526   73.0344  223.7060 H   0  0  0  0  0  0  0  0  0  0  0  0
  141.5171   73.0030  226.5488 H   0  0  0  0  0  0  0  0  0  0  0  0
  141.3048   71.5348  228.5865 H   0  0  0  0  0  0  0  0  0  0  0  0
  139.6453   68.3453  226.1283 H   0  0  0  0  0  0  0  0  0  0  0  0
  139.4640   69.0410  223.4850 H   0  0  0  0  0  0  0  0  0  0  0  0
  142.7949   70.6946  221.1511 H   0  0  0  0  0  0  0  0  0  0  0  0
  145.1287   71.5864  220.8699 H   0  0  0  0  0  0  0  0  0  0  0  0
  145.4956   74.0249  220.4454 H   0  0  0  0  0  0  0  0  0  0  0  0
  143.5324   75.5837  220.2818 H   0  0  0  0  0  0  0  0  0  0  0  0
  140.2601   75.3422  222.6104 H   0  0  0  0  0  0  0  0  0  0  0  0
  141.6511   76.2089  221.9268 H   0  0  0  0  0  0  0  0  0  0  0  0
  139.8812   79.2533  223.4756 H   0  0  0  0  0  0  0  0  0  0  0  0
  139.9259   77.4332  223.5775 H   0  0  0  0  0  0  0  0  0  0  0  0
  142.2120   77.4390  223.1860 H   0  0  0  0  0  0  0  0  0  0  0  0
  1  2  1  0
  2  3  1  0
  3  4  1  0
  4  5  1  0
  5  6  1  0
  6  7  1  0
  7  8  1  0
  9  8  1  6
  9 10  1  0
 10 11  1  0
 11 12  1  0
 12 13  2  0
 12 14  1  0
 14 15  2  0
 15 16  1  0
 16 17  2  0
 17 18  1  0
 18 19  2  0
 19 20  1  0
 19 21  1  0
 21 22  2  0
 22 23  1  0
 11 24  1  0
 24 25  2  0
 25 26  1  0
 26 27  2  0
 27 28  1  0
 28 29  2  0
  9 30  1  0
  5 31  1  0
 31 32  1  0
 32  2  1  0
 30  6  1  0
 29  9  1  0
 23 14  1  0
 29 24  1  0
 22 16  1  0
  1 33  1  0
  1 34  1  0
  1 35  1  0
  2 36  1  6
  3 37  1  0
  3 38  1  0
  4 39  1  0
  4 40  1  0
  5 41  1  1
  7 42  1  0
  7 43  1  0
  8 44  1  0
  8 45  1  0
 10 46  1  0
 10 47  1  0
 15 48  1  0
 17 49  1  0
 18 50  1  0
 21 51  1  0
 23 52  1  0
 25 53  1  0
 26 54  1  0
 27 55  1  0
 28 56  1  0
 30 57  1  0
 30 58  1  0
 31 59  1  0
 31 60  1  0
 32 61  1  0
M  END
>  <UniqueID>  (77) 
95

>  <SMILES>  (77) 
C[C@@H]1CC[C@@H](N2CC[C@]3(CN(C(=O)c4cc5ccc(F)cc5[nH]4)c4ccccc43)C2)CN1

>  <Energy>  (77) 
135.06761424271122

>  <Genealogy>  (77) 
C[C@@H]1CC[C@@H](N2CC[C@]3(CN(C(=O)c4cc5ccc(F)cc5[nH]4)c4ccccc43)C2)CN1 (chirality)
C[C@@H]1CC[C@@H](N2CC[C@]3(CN(C(=O)c4cc5ccc(F)cc5[nH]4)c4ccccc43)C2)CN1 (3D coordinates assigned)
C[C@@H]1CC[C@@H](N2CC[C@]3(CN(C(=O)c4cc5ccc(F)cc5[nH]4)c4ccccc43)C2)CN1 (nonaromatic ring conformer: 135.06761424271122 kcal/mol)

>  <smiles>  (77) 
C[C@@H]1CCC(N2CC[C@]3(CN(C(=O)c4cc5ccc(F)cc5[nH]4)c4ccccc43)C2)CN1

>  <score_type>  (77) 
oracle

>  <origin>  (77) 
autodockgpu

>  <m_score__min__energy>  (77) 
-9.3300000000000001

>  <m_primary>  (77) 
energy

>  <meeko>  (77) 
{"free_energy": -9.33, "intermolecular_energy": -10.22, "internal_energy": -1.55, "cluster_size": 19, "cluster_id": 1, "rank_in_cluster": 2}

>  <energy>  (77) 
-9.31

>  <cluster_rmsd>  (77) 
0.17

>  <rmsd>  (77) 
270.75

>  <cluster>  (77) 
1

$$$$
MYPHZBOANNRFAS-AGTLBBOYNA-N
     RDKit          3D

 61 66  0  0  0  0  0  0  0  0999 V2000
  142.8890   80.5110  223.7440 C   0  0  0  0  0  0  0  0  0  0  0  0
  142.5640   79.4070  222.7370 C   0  0  2  0  0  0  0  0  0  0  0  0
  141.8670   79.9960  221.4870 C   0  0  0  0  0  0  0  0  0  0  0  0
  141.1510   78.8980  220.7020 C   0  0  0  0  0  0  0  0  0  0  0  0
  140.0570   78.2260  221.5790 C   0  0  1  0  0  0  0  0  0  0  0  0
  139.7240   76.8320  221.1870 N   0  0  0  0  0  0  0  0  0  0  0  0
  139.5760   76.6320  219.7350 C   0  0  0  0  0  0  0  0  0  0  0  0
  140.4940   75.4900  219.3270 C   0  0  0  0  0  0  0  0  0  0  0  0
  140.6990   74.7040  220.6170 C   0  0  1  0  0  0  0  0  0  0  0  0
  139.6280   73.5730  220.8100 C   0  0  0  0  0  0  0  0  0  0  0  0
  140.3830   72.3360  221.0380 N   0  0  0  0  0  0  0  0  0  0  0  0
  139.8410   71.2040  221.7380 C   0  0  0  0  0  0  0  0  0  0  0  0
  139.2120   70.3170  221.1010 O   0  0  0  0  0  0  0  0  0  0  0  0
  140.0320   71.0500  223.1870 C   0  0  0  0  0  0  0  0  0  0  0  0
  140.6970   71.9650  224.0020 C   0  0  0  0  0  0  0  0  0  0  0  0
  140.6650   71.4070  225.2600 C   0  0  0  0  0  0  0  0  0  0  0  0
  141.1710   71.8760  226.4700 C   0  0  0  0  0  0  0  0  0  0  0  0
  140.9960   71.0700  227.6090 C   0  0  0  0  0  0  0  0  0  0  0  0
  140.3300   69.8280  227.5120 C   0  0  0  0  0  0  0  0  0  0  0  0
  140.1700   69.0600  228.6190 F   0  0  0  0  0  0  0  0  0  0  0  0
  139.8300   69.3830  226.2750 C   0  0  0  0  0  0  0  0  0  0  0  0
  140.0120   70.2060  225.1640 C   0  0  0  0  0  0  0  0  0  0  0  0
  139.6190   69.9730  223.9010 N   0  0  0  0  0  0  0  0  0  0  0  0
  141.7680   72.6210  220.9130 C   0  0  0  0  0  0  0  0  0  0  0  0
  142.8230   71.7050  221.0030 C   0  0  0  0  0  0  0  0  0  0  0  0
  144.1350   72.1760  220.8450 C   0  0  0  0  0  0  0  0  0  0  0  0
  144.3730   73.5400  220.5960 C   0  0  0  0  0  0  0  0  0  0  0  0
  143.2990   74.4380  220.4980 C   0  0  0  0  0  0  0  0  0  0  0  0
  141.9960   73.9470  220.6530 C   0  0  0  0  0  0  0  0  0  0  0  0
  140.6130   75.7780  221.7050 C   0  0  0  0  0  0  0  0  0  0  0  0
  140.3510   78.3380  223.1000 C   0  0  0  0  0  0  0  0  0  0  0  0
  141.7890   78.3420  223.4100 N   0  0  0  0  0  0  0  0  0  0  0  0
  142.7741   80.1206  224.7659 H   0  0  0  0  0  0  0  0  0  0  0  0
  143.9250   80.8496  223.5952 H   0  0  0  0  0  0  0  0  0  0  0  0
  142.2018   81.3569  223.5952 H   0  0  0  0  0  0  0  0  0  0  0  0
  143.4893   78.9424  222.3655 H   0  0  0  0  0  0  0  0  0  0  0  0
  141.1325   80.7506  221.8048 H   0  0  0  0  0  0  0  0  0  0  0  0
  142.6289   80.4549  220.8398 H   0  0  0  0  0  0  0  0  0  0  0  0
  140.6803   79.3385  219.8107 H   0  0  0  0  0  0  0  0  0  0  0  0
  141.8865   78.1359  220.4051 H   0  0  0  0  0  0  0  0  0  0  0  0
  139.1504   78.8142  221.3737 H   0  0  0  0  0  0  0  0  0  0  0  0
  138.5328   76.3769  219.4968 H   0  0  0  0  0  0  0  0  0  0  0  0
  139.8411   77.5509  219.1916 H   0  0  0  0  0  0  0  0  0  0  0  0
  140.0198   74.8626  218.5579 H   0  0  0  0  0  0  0  0  0  0  0  0
  141.4403   75.8422  218.8905 H   0  0  0  0  0  0  0  0  0  0  0  0
  138.9887   73.7959  221.6769 H   0  0  0  0  0  0  0  0  0  0  0  0
  138.9698   73.4875  219.9329 H   0  0  0  0  0  0  0  0  0  0  0  0
  141.1484   72.9231  223.7048 H   0  0  0  0  0  0  0  0  0  0  0  0
  141.6899   72.8439  226.5325 H   0  0  0  0  0  0  0  0  0  0  0  0
  141.3804   71.4090  228.5823 H   0  0  0  0  0  0  0  0  0  0  0  0
  139.3119   68.4167  226.1867 H   0  0  0  0  0  0  0  0  0  0  0  0
  139.1310   69.1240  223.5470 H   0  0  0  0  0  0  0  0  0  0  0  0
  142.6275   70.6394  221.1934 H   0  0  0  0  0  0  0  0  0  0  0  0
  144.9807   71.4762  220.9161 H   0  0  0  0  0  0  0  0  0  0  0  0
  145.4043   73.9038  220.4777 H   0  0  0  0  0  0  0  0  0  0  0  0
  143.4766   75.5060  220.3034 H   0  0  0  0  0  0  0  0  0  0  0  0
  140.1962   75.3500  222.6286 H   0  0  0  0  0  0  0  0  0  0  0  0
  141.6083   76.1808  221.9441 H   0  0  0  0  0  0  0  0  0  0  0  0
  139.9094   79.2734  223.4742 H   0  0  0  0  0  0  0  0  0  0  0  0
  139.9129   77.4534  223.5852 H   0  0  0  0  0  0  0  0  0  0  0  0
  142.1980   77.4060  223.1930 H   0  0  0  0  0  0  0  0  0  0  0  0
  1  2  1  0
  2  3  1  0
  3  4  1  0
  4  5  1  0
  5  6  1  0
  6  7  1  0
  7  8  1  0
  9  8  1  6
  9 10  1  0
 10 11  1  0
 11 12  1  0
 12 13  2  0
 12 14  1  0
 14 15  2  0
 15 16  1  0
 16 17  2  0
 17 18  1  0
 18 19  2  0
 19 20  1  0
 19 21  1  0
 21 22  2  0
 22 23  1  0
 11 24  1  0
 24 25  2  0
 25 26  1  0
 26 27  2  0
 27 28  1  0
 28 29  2  0
  9 30  1  0
  5 31  1  0
 31 32  1  0
 32  2  1  0
 30  6  1  0
 29  9  1  0
 23 14  1  0
 29 24  1  0
 22 16  1  0
  1 33  1  0
  1 34  1  0
  1 35  1  0
  2 36  1  6
  3 37  1  0
  3 38  1  0
  4 39  1  0
  4 40  1  0
  5 41  1  1
  7 42  1  0
  7 43  1  0
  8 44  1  0
  8 45  1  0
 10 46  1  0
 10 47  1  0
 15 48  1  0
 17 49  1  0
 18 50  1  0
 21 51  1  0
 23 52  1  0
 25 53  1  0
 26 54  1  0
 27 55  1  0
 28 56  1  0
 30 57  1  0
 30 58  1  0
 31 59  1  0
 31 60  1  0
 32 61  1  0
M  END
>  <UniqueID>  (78) 
95

>  <SMILES>  (78) 
C[C@@H]1CC[C@@H](N2CC[C@]3(CN(C(=O)c4cc5ccc(F)cc5[nH]4)c4ccccc43)C2)CN1

>  <Energy>  (78) 
135.06761424271122

>  <Genealogy>  (78) 
C[C@@H]1CC[C@@H](N2CC[C@]3(CN(C(=O)c4cc5ccc(F)cc5[nH]4)c4ccccc43)C2)CN1 (chirality)
C[C@@H]1CC[C@@H](N2CC[C@]3(CN(C(=O)c4cc5ccc(F)cc5[nH]4)c4ccccc43)C2)CN1 (3D coordinates assigned)
C[C@@H]1CC[C@@H](N2CC[C@]3(CN(C(=O)c4cc5ccc(F)cc5[nH]4)c4ccccc43)C2)CN1 (nonaromatic ring conformer: 135.06761424271122 kcal/mol)

>  <smiles>  (78) 
C[C@@H]1CCC(N2CC[C@]3(CN(C(=O)c4cc5ccc(F)cc5[nH]4)c4ccccc43)C2)CN1

>  <score_type>  (78) 
oracle

>  <origin>  (78) 
autodockgpu

>  <m_score__min__energy>  (78) 
-9.3300000000000001

>  <m_primary>  (78) 
energy

>  <meeko>  (78) 
{"free_energy": -9.33, "intermolecular_energy": -10.22, "internal_energy": -1.55, "cluster_size": 19, "cluster_id": 1, "rank_in_cluster": 3}

>  <energy>  (78) 
-9.3

>  <cluster_rmsd>  (78) 
0.28

>  <rmsd>  (78) 
270.73

>  <cluster>  (78) 
1

$$$$
MYPHZBOANNRFAS-AGTLBBOYNA-N
     RDKit          3D

 61 66  0  0  0  0  0  0  0  0999 V2000
  142.9160   80.5250  223.7340 C   0  0  0  0  0  0  0  0  0  0  0  0
  142.5840   79.4220  222.7280 C   0  0  2  0  0  0  0  0  0  0  0  0
  141.8910   80.0140  221.4780 C   0  0  0  0  0  0  0  0  0  0  0  0
  141.1680   78.9200  220.6950 C   0  0  0  0  0  0  0  0  0  0  0  0
  140.0700   78.2560  221.5720 C   0  0  1  0  0  0  0  0  0  0  0  0
  139.7280   76.8630  221.1820 N   0  0  0  0  0  0  0  0  0  0  0  0
  139.5710   76.6650  219.7300 C   0  0  0  0  0  0  0  0  0  0  0  0
  140.4810   75.5170  219.3170 C   0  0  0  0  0  0  0  0  0  0  0  0
  140.6900   74.7300  220.6060 C   0  0  1  0  0  0  0  0  0  0  0  0
  139.6140   73.6050  220.8050 C   0  0  0  0  0  0  0  0  0  0  0  0
  140.3640   72.3640  221.0290 N   0  0  0  0  0  0  0  0  0  0  0  0
  139.8210   71.2350  221.7310 C   0  0  0  0  0  0  0  0  0  0  0  0
  139.1880   70.3490  221.0970 O   0  0  0  0  0  0  0  0  0  0  0  0
  140.0140   71.0820  223.1800 C   0  0  0  0  0  0  0  0  0  0  0  0
  140.6980   71.9880  223.9900 C   0  0  0  0  0  0  0  0  0  0  0  0
  140.6610   71.4350  225.2500 C   0  0  0  0  0  0  0  0  0  0  0  0
  141.1800   71.8990  226.4560 C   0  0  0  0  0  0  0  0  0  0  0  0
  140.9950   71.1000  227.5990 C   0  0  0  0  0  0  0  0  0  0  0  0
  140.3080   69.8690  227.5080 C   0  0  0  0  0  0  0  0  0  0  0  0
  140.1390   69.1080  228.6180 F   0  0  0  0  0  0  0  0  0  0  0  0
  139.7960   69.4290  226.2740 C   0  0  0  0  0  0  0  0  0  0  0  0
  139.9880   70.2450  225.1600 C   0  0  0  0  0  0  0  0  0  0  0  0
  139.5860   70.0150  223.9000 N   0  0  0  0  0  0  0  0  0  0  0  0
  141.7510   72.6430  220.8960 C   0  0  0  0  0  0  0  0  0  0  0  0
  142.8010   71.7210  220.9810 C   0  0  0  0  0  0  0  0  0  0  0  0
  144.1150   72.1860  220.8150 C   0  0  0  0  0  0  0  0  0  0  0  0
  144.3580   73.5490  220.5650 C   0  0  0  0  0  0  0  0  0  0  0  0
  143.2880   74.4520  220.4730 C   0  0  0  0  0  0  0  0  0  0  0  0
  141.9830   73.9670  220.6350 C   0  0  0  0  0  0  0  0  0  0  0  0
  140.6150   75.8050  221.6950 C   0  0  0  0  0  0  0  0  0  0  0  0
  140.3640   78.3670  223.0930 C   0  0  0  0  0  0  0  0  0  0  0  0
  141.8030   78.3630  223.4030 N   0  0  0  0  0  0  0  0  0  0  0  0
  142.7990   80.1362  224.7563 H   0  0  0  0  0  0  0  0  0  0  0  0
  143.9539   80.8572  223.5846 H   0  0  0  0  0  0  0  0  0  0  0  0
  142.2339   81.3749  223.5846 H   0  0  0  0  0  0  0  0  0  0  0  0
  143.5058   78.9510  222.3561 H   0  0  0  0  0  0  0  0  0  0  0  0
  141.1615   80.7739  221.7950 H   0  0  0  0  0  0  0  0  0  0  0  0
  142.6557   80.4673  220.8300 H   0  0  0  0  0  0  0  0  0  0  0  0
  140.7001   79.3625  219.8032 H   0  0  0  0  0  0  0  0  0  0  0  0
  141.8987   78.1527  220.3996 H   0  0  0  0  0  0  0  0  0  0  0  0
  139.1678   78.8503  221.3651 H   0  0  0  0  0  0  0  0  0  0  0  0
  138.5252   76.4162  219.4970 H   0  0  0  0  0  0  0  0  0  0  0  0
  139.8382   77.5827  219.1855 H   0  0  0  0  0  0  0  0  0  0  0  0
  139.9988   74.8919  218.5510 H   0  0  0  0  0  0  0  0  0  0  0  0
  141.4265   75.8642  218.8749 H   0  0  0  0  0  0  0  0  0  0  0  0
  138.9807   73.8314  221.6754 H   0  0  0  0  0  0  0  0  0  0  0  0
  138.9503   73.5229  219.9316 H   0  0  0  0  0  0  0  0  0  0  0  0
  141.1650   72.9371  223.6880 H   0  0  0  0  0  0  0  0  0  0  0  0
  141.7164   72.8577  226.5130 H   0  0  0  0  0  0  0  0  0  0  0  0
  141.3879   71.4360  228.5700 H   0  0  0  0  0  0  0  0  0  0  0  0
  139.2611   68.4715  226.1906 H   0  0  0  0  0  0  0  0  0  0  0  0
  139.0820   69.1730  223.5500 H   0  0  0  0  0  0  0  0  0  0  0  0
  142.6009   70.6566  221.1735 H   0  0  0  0  0  0  0  0  0  0  0  0
  144.9578   71.4821  220.8806 H   0  0  0  0  0  0  0  0  0  0  0  0
  145.3904   73.9080  220.4412 H   0  0  0  0  0  0  0  0  0  0  0  0
  143.4697   75.5192  220.2777 H   0  0  0  0  0  0  0  0  0  0  0  0
  140.2014   75.3789  222.6210 H   0  0  0  0  0  0  0  0  0  0  0  0
  141.6134   76.2033  221.9285 H   0  0  0  0  0  0  0  0  0  0  0  0
  139.9276   79.3050  223.4667 H   0  0  0  0  0  0  0  0  0  0  0  0
  139.9206   77.4853  223.5788 H   0  0  0  0  0  0  0  0  0  0  0  0
  142.2060   77.4240  223.1870 H   0  0  0  0  0  0  0  0  0  0  0  0
  1  2  1  0
  2  3  1  0
  3  4  1  0
  4  5  1  0
  5  6  1  0
  6  7  1  0
  7  8  1  0
  9  8  1  6
  9 10  1  0
 10 11  1  0
 11 12  1  0
 12 13  2  0
 12 14  1  0
 14 15  2  0
 15 16  1  0
 16 17  2  0
 17 18  1  0
 18 19  2  0
 19 20  1  0
 19 21  1  0
 21 22  2  0
 22 23  1  0
 11 24  1  0
 24 25  2  0
 25 26  1  0
 26 27  2  0
 27 28  1  0
 28 29  2  0
  9 30  1  0
  5 31  1  0
 31 32  1  0
 32  2  1  0
 30  6  1  0
 29  9  1  0
 23 14  1  0
 29 24  1  0
 22 16  1  0
  1 33  1  0
  1 34  1  0
  1 35  1  0
  2 36  1  6
  3 37  1  0
  3 38  1  0
  4 39  1  0
  4 40  1  0
  5 41  1  1
  7 42  1  0
  7 43  1  0
  8 44  1  0
  8 45  1  0
 10 46  1  0
 10 47  1  0
 15 48  1  0
 17 49  1  0
 18 50  1  0
 21 51  1  0
 23 52  1  0
 25 53  1  0
 26 54  1  0
 27 55  1  0
 28 56  1  0
 30 57  1  0
 30 58  1  0
 31 59  1  0
 31 60  1  0
 32 61  1  0
M  END
>  <UniqueID>  (79) 
95

>  <SMILES>  (79) 
C[C@@H]1CC[C@@H](N2CC[C@]3(CN(C(=O)c4cc5ccc(F)cc5[nH]4)c4ccccc43)C2)CN1

>  <Energy>  (79) 
135.06761424271122

>  <Genealogy>  (79) 
C[C@@H]1CC[C@@H](N2CC[C@]3(CN(C(=O)c4cc5ccc(F)cc5[nH]4)c4ccccc43)C2)CN1 (chirality)
C[C@@H]1CC[C@@H](N2CC[C@]3(CN(C(=O)c4cc5ccc(F)cc5[nH]4)c4ccccc43)C2)CN1 (3D coordinates assigned)
C[C@@H]1CC[C@@H](N2CC[C@]3(CN(C(=O)c4cc5ccc(F)cc5[nH]4)c4ccccc43)C2)CN1 (nonaromatic ring conformer: 135.06761424271122 kcal/mol)

>  <smiles>  (79) 
C[C@@H]1CCC(N2CC[C@]3(CN(C(=O)c4cc5ccc(F)cc5[nH]4)c4ccccc43)C2)CN1

>  <score_type>  (79) 
oracle

>  <origin>  (79) 
autodockgpu

>  <m_score__min__energy>  (79) 
-9.3300000000000001

>  <m_primary>  (79) 
energy

>  <meeko>  (79) 
{"free_energy": -9.32, "intermolecular_energy": -10.22, "internal_energy": -1.55, "cluster_size": 19, "cluster_id": 1, "rank_in_cluster": 9}

>  <energy>  (79) 
-9.27

>  <cluster_rmsd>  (79) 
0.19

>  <rmsd>  (79) 
270.72

>  <cluster>  (79) 
1

$$$$
MYPHZBOANNRFAS-AGTLBBOYNA-N
     RDKit          3D

 61 66  0  0  0  0  0  0  0  0999 V2000
  142.8830   80.5460  223.8550 C   0  0  0  0  0  0  0  0  0  0  0  0
  142.5960   79.4480  222.8290 C   0  0  2  0  0  0  0  0  0  0  0  0
  141.9420   80.0440  221.5600 C   0  0  0  0  0  0  0  0  0  0  0  0
  141.2570   78.9490  220.7430 C   0  0  0  0  0  0  0  0  0  0  0  0
  140.1350   78.2690  221.5760 C   0  0  1  0  0  0  0  0  0  0  0  0
  139.8200   76.8760  221.1640 N   0  0  0  0  0  0  0  0  0  0  0  0
  139.7020   76.6910  219.7060 C   0  0  0  0  0  0  0  0  0  0  0  0
  140.6360   75.5590  219.3050 C   0  0  0  0  0  0  0  0  0  0  0  0
  140.8210   74.7610  220.5910 C   0  0  1  0  0  0  0  0  0  0  0  0
  139.7550   73.6210  220.7510 C   0  0  0  0  0  0  0  0  0  0  0  0
  140.5140   72.3870  220.9820 N   0  0  0  0  0  0  0  0  0  0  0  0
  139.9660   71.2440  221.6590 C   0  0  0  0  0  0  0  0  0  0  0  0
  139.3250   70.3770  221.0060 O   0  0  0  0  0  0  0  0  0  0  0  0
  140.1650   71.0550  223.1030 C   0  0  0  0  0  0  0  0  0  0  0  0
  140.6780   72.0210  223.9670 C   0  0  0  0  0  0  0  0  0  0  0  0
  140.7190   71.4080  225.1990 C   0  0  0  0  0  0  0  0  0  0  0  0
  141.1380   71.8920  226.4360 C   0  0  0  0  0  0  0  0  0  0  0  0
  141.0760   71.0180  227.5360 C   0  0  0  0  0  0  0  0  0  0  0  0
  140.6070   69.6960  227.3750 C   0  0  0  0  0  0  0  0  0  0  0  0
  140.5540   68.8630  228.4440 F   0  0  0  0  0  0  0  0  0  0  0  0
  140.1910   69.2370  226.1110 C   0  0  0  0  0  0  0  0  0  0  0  0
  140.2560   70.1290  225.0410 C   0  0  0  0  0  0  0  0  0  0  0  0
  139.9140   69.8970  223.7630 N   0  0  0  0  0  0  0  0  0  0  0  0
  141.9000   72.6830  220.8870 C   0  0  0  0  0  0  0  0  0  0  0  0
  142.9590   71.7730  220.9890 C   0  0  0  0  0  0  0  0  0  0  0  0
  144.2710   72.2550  220.8620 C   0  0  0  0  0  0  0  0  0  0  0  0
  144.5040   73.6230  220.6320 C   0  0  0  0  0  0  0  0  0  0  0  0
  143.4250   74.5140  220.5220 C   0  0  0  0  0  0  0  0  0  0  0  0
  142.1230   74.0130  220.6450 C   0  0  0  0  0  0  0  0  0  0  0  0
  140.7060   75.8230  221.6880 C   0  0  0  0  0  0  0  0  0  0  0  0
  140.3750   78.3710  223.1070 C   0  0  0  0  0  0  0  0  0  0  0  0
  141.8020   78.3760  223.4680 N   0  0  0  0  0  0  0  0  0  0  0  0
  142.7759   80.1363  224.8702 H   0  0  0  0  0  0  0  0  0  0  0  0
  143.9087   80.9185  223.7162 H   0  0  0  0  0  0  0  0  0  0  0  0
  142.1708   81.3727  223.7162 H   0  0  0  0  0  0  0  0  0  0  0  0
  143.5345   78.9882  222.4857 H   0  0  0  0  0  0  0  0  0  0  0  0
  141.1947   80.7945  221.8569 H   0  0  0  0  0  0  0  0  0  0  0  0
  142.7246   80.5097  220.9431 H   0  0  0  0  0  0  0  0  0  0  0  0
  140.8169   79.3941  219.8384 H   0  0  0  0  0  0  0  0  0  0  0  0
  142.0046   78.1906  220.4676 H   0  0  0  0  0  0  0  0  0  0  0  0
  139.2350   78.8566  221.3422 H   0  0  0  0  0  0  0  0  0  0  0  0
  138.6655   76.4318  219.4441 H   0  0  0  0  0  0  0  0  0  0  0  0
  139.9713   77.6174  219.1776 H   0  0  0  0  0  0  0  0  0  0  0  0
  140.1815   74.9363  218.5203 H   0  0  0  0  0  0  0  0  0  0  0  0
  141.5883   75.9221  218.8911 H   0  0  0  0  0  0  0  0  0  0  0  0
  139.0967   73.8307  221.6070 H   0  0  0  0  0  0  0  0  0  0  0  0
  139.1153   73.5397  219.8598 H   0  0  0  0  0  0  0  0  0  0  0  0
  140.9832   73.0482  223.7188 H   0  0  0  0  0  0  0  0  0  0  0  0
  141.5049   72.9229  226.5487 H   0  0  0  0  0  0  0  0  0  0  0  0
  141.3953   71.3669  228.5292 H   0  0  0  0  0  0  0  0  0  0  0  0
  139.8266   68.2085  225.9718 H   0  0  0  0  0  0  0  0  0  0  0  0
  139.5620   69.0010  223.3640 H   0  0  0  0  0  0  0  0  0  0  0  0
  142.7671   70.7042  221.1647 H   0  0  0  0  0  0  0  0  0  0  0  0
  145.1202   71.5604  220.9426 H   0  0  0  0  0  0  0  0  0  0  0  0
  145.5347   73.9956  220.5381 H   0  0  0  0  0  0  0  0  0  0  0  0
  143.5988   75.5853  220.3426 H   0  0  0  0  0  0  0  0  0  0  0  0
  140.2743   75.3824  222.5988 H   0  0  0  0  0  0  0  0  0  0  0  0
  141.6935   76.2302  221.9505 H   0  0  0  0  0  0  0  0  0  0  0  0
  139.9182   79.3028  223.4718 H   0  0  0  0  0  0  0  0  0  0  0  0
  139.9223   77.4819  223.5702 H   0  0  0  0  0  0  0  0  0  0  0  0
  142.2210   77.4430  223.2590 H   0  0  0  0  0  0  0  0  0  0  0  0
  1  2  1  0
  2  3  1  0
  3  4  1  0
  4  5  1  0
  5  6  1  0
  6  7  1  0
  7  8  1  0
  9  8  1  6
  9 10  1  0
 10 11  1  0
 11 12  1  0
 12 13  2  0
 12 14  1  0
 14 15  2  0
 15 16  1  0
 16 17  2  0
 17 18  1  0
 18 19  2  0
 19 20  1  0
 19 21  1  0
 21 22  2  0
 22 23  1  0
 11 24  1  0
 24 25  2  0
 25 26  1  0
 26 27  2  0
 27 28  1  0
 28 29  2  0
  9 30  1  0
  5 31  1  0
 31 32  1  0
 32  2  1  0
 30  6  1  0
 29  9  1  0
 23 14  1  0
 29 24  1  0
 22 16  1  0
  1 33  1  0
  1 34  1  0
  1 35  1  0
  2 36  1  6
  3 37  1  0
  3 38  1  0
  4 39  1  0
  4 40  1  0
  5 41  1  1
  7 42  1  0
  7 43  1  0
  8 44  1  0
  8 45  1  0
 10 46  1  0
 10 47  1  0
 15 48  1  0
 17 49  1  0
 18 50  1  0
 21 51  1  0
 23 52  1  0
 25 53  1  0
 26 54  1  0
 27 55  1  0
 28 56  1  0
 30 57  1  0
 30 58  1  0
 31 59  1  0
 31 60  1  0
 32 61  1  0
M  END
>  <UniqueID>  (80) 
95

>  <SMILES>  (80) 
C[C@@H]1CC[C@@H](N2CC[C@]3(CN(C(=O)c4cc5ccc(F)cc5[nH]4)c4ccccc43)C2)CN1

>  <Energy>  (80) 
135.06761424271122

>  <Genealogy>  (80) 
C[C@@H]1CC[C@@H](N2CC[C@]3(CN(C(=O)c4cc5ccc(F)cc5[nH]4)c4ccccc43)C2)CN1 (chirality)
C[C@@H]1CC[C@@H](N2CC[C@]3(CN(C(=O)c4cc5ccc(F)cc5[nH]4)c4ccccc43)C2)CN1 (3D coordinates assigned)
C[C@@H]1CC[C@@H](N2CC[C@]3(CN(C(=O)c4cc5ccc(F)cc5[nH]4)c4ccccc43)C2)CN1 (nonaromatic ring conformer: 135.06761424271122 kcal/mol)

>  <smiles>  (80) 
C[C@@H]1CCC(N2CC[C@]3(CN(C(=O)c4cc5ccc(F)cc5[nH]4)c4ccccc43)C2)CN1

>  <score_type>  (80) 
oracle

>  <origin>  (80) 
autodockgpu

>  <m_score__min__energy>  (80) 
-9.3300000000000001

>  <m_primary>  (80) 
energy

>  <meeko>  (80) 
{"free_energy": -9.31, "intermolecular_energy": -10.21, "internal_energy": -1.55, "cluster_size": 19, "cluster_id": 1, "rank_in_cluster": 14}

>  <energy>  (80) 
-8.4

>  <cluster_rmsd>  (80) 
0.0

>  <rmsd>  (80) 
271.83

>  <cluster>  (80) 
2

$$$$
