
     RDKit          3D

 64 69  0  0  0  0  0  0  0  0999 V2000
  142.2110   81.1490  222.6110 C   0  0  0  0  0  0  0  0  0  0  0  0
  141.9280   80.4950  223.7890 C   0  0  0  0  0  0  0  0  0  0  0  0
  141.4450   79.2070  223.8500 C   0  0  0  0  0  0  0  0  0  0  0  0
  141.2290   78.5270  222.6660 C   0  0  0  0  0  0  0  0  0  0  0  0
  141.5140   79.1900  221.5030 C   0  0  0  0  0  0  0  0  0  0  0  0
  141.9910   80.4620  221.4100 C   0  0  0  0  0  0  0  0  0  0  0  0
  141.2770   78.4450  220.2260 C   0  0  0  0  0  0  0  0  0  0  0  0
  141.8370   77.0680  220.4300 C   0  0  0  0  0  0  0  0  0  0  0  0
  141.2040   76.3960  221.5760 N   0  0  0  0  0  0  0  0  0  0  0  0
  141.1200   74.9790  221.4770 C   0  0  0  0  0  0  0  0  0  0  0  0
  140.2670   74.2930  222.2750 N   0  0  0  0  0  0  0  0  0  0  0  0
  140.1320   72.9530  222.2210 C   0  0  0  0  0  0  0  0  0  0  0  0
  139.2770   72.2110  223.0660 N   0  0  0  0  0  0  0  0  0  0  0  0
  139.6300   70.9670  223.7130 C   0  0  0  0  0  0  0  0  0  0  0  0
  138.4420   70.5570  224.5900 C   0  0  2  0  0  0  0  0  0  0  0  0
  138.1750   69.1060  224.2250 C   0  0  0  0  0  0  0  0  0  0  0  0
  137.1560   69.1170  223.1300 C   0  0  0  0  0  0  0  0  0  0  0  0
  136.8050   70.5630  222.9600 C   0  0  0  0  0  0  0  0  0  0  0  0
  137.2200   71.2360  224.1940 N   0  0  0  0  0  0  0  0  0  0  0  0
  140.8850   72.2740  221.3260 N   0  0  0  0  0  0  0  0  0  0  0  0
  141.7540   72.9220  220.5080 C   0  0  0  0  0  0  0  0  0  0  0  0
  142.4880   72.1150  219.6030 N   0  0  0  0  0  0  0  0  0  0  0  0
  141.8730   71.0580  218.8070 C   0  0  0  0  0  0  0  0  0  0  0  0
  142.3610   69.7480  219.3820 C   0  0  0  0  0  0  0  0  0  0  0  0
  143.8460   69.7820  219.3460 C   0  0  0  0  0  0  0  0  0  0  0  0
  144.4680   68.5230  219.2770 C   0  0  0  0  0  0  0  0  0  0  0  0
  145.8490   68.4550  219.2430 C   0  0  0  0  0  0  0  0  0  0  0  0
  146.6030   69.6330  219.2790 C   0  0  0  0  0  0  0  0  0  0  0  0
  145.9530   70.8730  219.3470 C   0  0  0  0  0  0  0  0  0  0  0  0
  144.5810   70.9460  219.3800 C   0  0  0  0  0  0  0  0  0  0  0  0
  143.9110   72.2960  219.4600 C   0  0  0  0  0  0  0  0  0  0  0  0
  141.8580   74.2570  220.5950 N   0  0  0  0  0  0  0  0  0  0  0  0
  140.7060   77.1350  222.7210 C   0  0  0  0  0  0  0  0  0  0  0  0
  142.5978   82.1788  222.6127 H   0  0  0  0  0  0  0  0  0  0  0  0
  142.0972   81.0314  224.7343 H   0  0  0  0  0  0  0  0  0  0  0  0
  141.2358   78.7300  224.8189 H   0  0  0  0  0  0  0  0  0  0  0  0
  142.1945   80.9294  220.4353 H   0  0  0  0  0  0  0  0  0  0  0  0
  140.1994   78.3898  220.0119 H   0  0  0  0  0  0  0  0  0  0  0  0
  141.7574   78.9493  219.3745 H   0  0  0  0  0  0  0  0  0  0  0  0
  141.6601   76.4716  219.5228 H   0  0  0  0  0  0  0  0  0  0  0  0
  142.9143   77.1587  220.6332 H   0  0  0  0  0  0  0  0  0  0  0  0
  138.3270   72.5960  223.2310 H   0  0  0  0  0  0  0  0  0  0  0  0
  139.8255   70.1918  222.9574 H   0  0  0  0  0  0  0  0  0  0  0  0
  140.5392   71.0879  224.3202 H   0  0  0  0  0  0  0  0  0  0  0  0
  138.6765   70.7704  225.6433 H   0  0  0  0  0  0  0  0  0  0  0  0
  139.1014   68.6267  223.8756 H   0  0  0  0  0  0  0  0  0  0  0  0
  137.8129   68.5399  225.0958 H   0  0  0  0  0  0  0  0  0  0  0  0
  137.5791   68.7076  222.2008 H   0  0  0  0  0  0  0  0  0  0  0  0
  136.2783   68.4984  223.3688 H   0  0  0  0  0  0  0  0  0  0  0  0
  137.3405   70.9858  222.0972 H   0  0  0  0  0  0  0  0  0  0  0  0
  135.7283   70.6937  222.7766 H   0  0  0  0  0  0  0  0  0  0  0  0
  137.3760   72.2490  224.0720 H   0  0  0  0  0  0  0  0  0  0  0  0
  140.7769   71.1187  218.8768 H   0  0  0  0  0  0  0  0  0  0  0  0
  142.1437   71.1514  217.7449 H   0  0  0  0  0  0  0  0  0  0  0  0
  142.0110   69.6373  220.4190 H   0  0  0  0  0  0  0  0  0  0  0  0
  141.9744   68.8972  218.8017 H   0  0  0  0  0  0  0  0  0  0  0  0
  143.8641   67.6040  219.2504 H   0  0  0  0  0  0  0  0  0  0  0  0
  146.3526   67.4786  219.1879 H   0  0  0  0  0  0  0  0  0  0  0  0
  147.7017   69.5862  219.2541 H   0  0  0  0  0  0  0  0  0  0  0  0
  146.5477   71.7980  219.3742 H   0  0  0  0  0  0  0  0  0  0  0  0
  144.3000   72.8482  220.3282 H   0  0  0  0  0  0  0  0  0  0  0  0
  144.1192   72.8652  218.5421 H   0  0  0  0  0  0  0  0  0  0  0  0
  139.6064   77.1533  222.6979 H   0  0  0  0  0  0  0  0  0  0  0  0
  141.0403   76.6496  223.6497 H   0  0  0  0  0  0  0  0  0  0  0  0
  1  2  2  0
  2  3  1  0
  3  4  2  0
  4  5  1  0
  5  6  2  0
  5  7  1  0
  7  8  1  0
  8  9  1  0
  9 10  1  0
 10 11  2  0
 11 12  1  0
 12 13  1  0
 13 14  1  0
 14 15  1  0
 15 16  1  0
 16 17  1  0
 17 18  1  0
 18 19  1  0
 12 20  2  0
 20 21  1  0
 21 22  1  0
 22 23  1  0
 23 24  1  0
 24 25  1  0
 25 26  2  0
 26 27  1  0
 27 28  2  0
 28 29  1  0
 29 30  2  0
 30 31  1  0
 21 32  2  0
  9 33  1  0
  6  1  1  0
 32 10  1  0
 33  4  1  0
 19 15  1  0
 31 22  1  0
 30 25  1  0
  1 34  1  0
  2 35  1  0
  3 36  1  0
  6 37  1  0
  7 38  1  0
  7 39  1  0
  8 40  1  0
  8 41  1  0
 13 42  1  0
 14 43  1  0
 14 44  1  0
 15 45  1  1
 16 46  1  0
 16 47  1  0
 17 48  1  0
 17 49  1  0
 18 50  1  0
 18 51  1  0
 19 52  1  0
 23 53  1  0
 23 54  1  0
 24 55  1  0
 24 56  1  0
 26 57  1  0
 27 58  1  0
 28 59  1  0
 29 60  1  0
 31 61  1  0
 31 62  1  0
 33 63  1  0
 33 64  1  0
M  END
>  <smiles>  (1) 
c1ccc2c(c1)CCN(c1nc(NC[C@@H]3CCCN3)nc(N3CCc4ccccc4C3)n1)C2

>  <score_type>  (1) 
oracle

>  <origin>  (1) 
autodockgpu

>  <m_score__min__energy>  (1) 
-9.8599999999999994

>  <m_primary>  (1) 
energy

>  <meeko>  (1) 
{"free_energy": -8.62, "intermolecular_energy": -10.11, "internal_energy": -1.57, "cluster_size": 1, "cluster_id": 3, "rank_in_cluster": 1}

>  <energy>  (1) 
-9.86

>  <cluster_rmsd>  (1) 
0.0

>  <rmsd>  (1) 
270.57

>  <cluster>  (1) 
1

$$$$

     RDKit          3D

 64 69  0  0  0  0  0  0  0  0999 V2000
  139.8750   68.1150  227.7620 C   0  0  0  0  0  0  0  0  0  0  0  0
  139.4850   67.5150  226.5850 C   0  0  0  0  0  0  0  0  0  0  0  0
  139.3550   68.1890  225.3920 C   0  0  0  0  0  0  0  0  0  0  0  0
  139.6260   69.5450  225.3680 C   0  0  0  0  0  0  0  0  0  0  0  0
  140.0100   70.1270  226.5460 C   0  0  0  0  0  0  0  0  0  0  0  0
  140.1480   69.4880  227.7400 C   0  0  0  0  0  0  0  0  0  0  0  0
  140.3020   71.5950  226.5080 C   0  0  0  0  0  0  0  0  0  0  0  0
  141.1310   71.8300  225.2790 C   0  0  0  0  0  0  0  0  0  0  0  0
  140.4290   71.3850  224.0650 N   0  0  0  0  0  0  0  0  0  0  0  0
  140.7430   72.1110  222.8820 C   0  0  0  0  0  0  0  0  0  0  0  0
  141.4200   71.5070  221.8760 N   0  0  0  0  0  0  0  0  0  0  0  0
  141.7370   72.1370  220.7270 C   0  0  0  0  0  0  0  0  0  0  0  0
  142.4730   71.5420  219.6780 N   0  0  0  0  0  0  0  0  0  0  0  0
  143.8780   71.2080  219.7410 C   0  0  0  0  0  0  0  0  0  0  0  0
  144.6480   72.3570  219.0810 C   0  0  2  0  0  0  0  0  0  0  0  0
  145.9860   72.3900  219.8020 C   0  0  0  0  0  0  0  0  0  0  0  0
  145.8400   73.3530  220.9370 C   0  0  0  0  0  0  0  0  0  0  0  0
  144.4580   73.9090  220.7820 C   0  0  0  0  0  0  0  0  0  0  0  0
  144.0630   73.6500  219.3950 N   0  0  0  0  0  0  0  0  0  0  0  0
  141.3560   73.4260  220.5820 N   0  0  0  0  0  0  0  0  0  0  0  0
  140.6770   74.0700  221.5660 C   0  0  0  0  0  0  0  0  0  0  0  0
  140.3200   75.4170  221.3090 N   0  0  0  0  0  0  0  0  0  0  0  0
  140.4870   76.0440  220.0010 C   0  0  0  0  0  0  0  0  0  0  0  0
  141.6190   77.0340  220.1410 C   0  0  0  0  0  0  0  0  0  0  0  0
  141.2550   77.9620  221.2430 C   0  0  0  0  0  0  0  0  0  0  0  0
  141.8360   79.2390  221.1610 C   0  0  0  0  0  0  0  0  0  0  0  0
  141.5580   80.1700  222.1470 C   0  0  0  0  0  0  0  0  0  0  0  0
  140.7070   79.8290  223.2040 C   0  0  0  0  0  0  0  0  0  0  0  0
  140.1420   78.5470  223.2560 C   0  0  0  0  0  0  0  0  0  0  0  0
  140.4160   77.6180  222.2790 C   0  0  0  0  0  0  0  0  0  0  0  0
  139.7970   76.2450  222.3670 C   0  0  0  0  0  0  0  0  0  0  0  0
  140.3820   73.4070  222.6950 N   0  0  0  0  0  0  0  0  0  0  0  0
  139.4850   70.2830  224.0830 C   0  0  0  0  0  0  0  0  0  0  0  0
  139.9691   67.5332  228.6908 H   0  0  0  0  0  0  0  0  0  0  0  0
  139.2652   66.4373  226.5993 H   0  0  0  0  0  0  0  0  0  0  0  0
  139.0428   67.6613  224.4787 H   0  0  0  0  0  0  0  0  0  0  0  0
  140.4601   70.0263  228.6471 H   0  0  0  0  0  0  0  0  0  0  0  0
  139.3648   72.1680  226.4501 H   0  0  0  0  0  0  0  0  0  0  0  0
  140.8325   71.9199  227.4152 H   0  0  0  0  0  0  0  0  0  0  0  0
  141.3475   72.9051  225.1935 H   0  0  0  0  0  0  0  0  0  0  0  0
  142.0614   71.2508  225.3730 H   0  0  0  0  0  0  0  0  0  0  0  0
  141.9570   71.3300  218.8020 H   0  0  0  0  0  0  0  0  0  0  0  0
  144.1922   71.0972  220.7893 H   0  0  0  0  0  0  0  0  0  0  0  0
  144.0766   70.2576  219.2239 H   0  0  0  0  0  0  0  0  0  0  0  0
  144.6721   72.2001  217.9925 H   0  0  0  0  0  0  0  0  0  0  0  0
  146.2354   71.3891  220.1840 H   0  0  0  0  0  0  0  0  0  0  0  0
  146.7937   72.6995  219.1224 H   0  0  0  0  0  0  0  0  0  0  0  0
  145.9448   72.8354  221.9019 H   0  0  0  0  0  0  0  0  0  0  0  0
  146.6106   74.1378  220.9213 H   0  0  0  0  0  0  0  0  0  0  0  0
  143.7660   73.4079  221.4749 H   0  0  0  0  0  0  0  0  0  0  0  0
  144.4321   74.9847  221.0106 H   0  0  0  0  0  0  0  0  0  0  0  0
  143.0400   73.6410  219.2590 H   0  0  0  0  0  0  0  0  0  0  0  0
  140.7372   75.2851  219.2450 H   0  0  0  0  0  0  0  0  0  0  0  0
  139.5610   76.5419  219.6776 H   0  0  0  0  0  0  0  0  0  0  0  0
  142.5531   76.5068  220.3849 H   0  0  0  0  0  0  0  0  0  0  0  0
  141.7757   77.5845  219.2016 H   0  0  0  0  0  0  0  0  0  0  0  0
  142.5027   79.4953  220.3245 H   0  0  0  0  0  0  0  0  0  0  0  0
  142.0045   81.1742  222.0997 H   0  0  0  0  0  0  0  0  0  0  0  0
  140.4822   80.5639  223.9910 H   0  0  0  0  0  0  0  0  0  0  0  0
  139.4723   78.2810  224.0871 H   0  0  0  0  0  0  0  0  0  0  0  0
  140.0401   75.7942  223.3405 H   0  0  0  0  0  0  0  0  0  0  0  0
  138.7048   76.3264  222.2650 H   0  0  0  0  0  0  0  0  0  0  0  0
  138.4606   70.6734  223.9924 H   0  0  0  0  0  0  0  0  0  0  0  0
  139.6888   69.6053  223.2409 H   0  0  0  0  0  0  0  0  0  0  0  0
  1  2  2  0
  2  3  1  0
  3  4  2  0
  4  5  1  0
  5  6  2  0
  5  7  1  0
  7  8  1  0
  8  9  1  0
  9 10  1  0
 10 11  2  0
 11 12  1  0
 12 13  1  0
 13 14  1  0
 14 15  1  0
 15 16  1  0
 16 17  1  0
 17 18  1  0
 18 19  1  0
 12 20  2  0
 20 21  1  0
 21 22  1  0
 22 23  1  0
 23 24  1  0
 24 25  1  0
 25 26  2  0
 26 27  1  0
 27 28  2  0
 28 29  1  0
 29 30  2  0
 30 31  1  0
 21 32  2  0
  9 33  1  0
  6  1  1  0
 32 10  1  0
 33  4  1  0
 19 15  1  0
 31 22  1  0
 30 25  1  0
  1 34  1  0
  2 35  1  0
  3 36  1  0
  6 37  1  0
  7 38  1  0
  7 39  1  0
  8 40  1  0
  8 41  1  0
 13 42  1  0
 14 43  1  0
 14 44  1  0
 15 45  1  6
 16 46  1  0
 16 47  1  0
 17 48  1  0
 17 49  1  0
 18 50  1  0
 18 51  1  0
 19 52  1  0
 23 53  1  0
 23 54  1  0
 24 55  1  0
 24 56  1  0
 26 57  1  0
 27 58  1  0
 28 59  1  0
 29 60  1  0
 31 61  1  0
 31 62  1  0
 33 63  1  0
 33 64  1  0
M  END
>  <smiles>  (2) 
c1ccc2c(c1)CCN(c1nc(NC[C@@H]3CCCN3)nc(N3CCc4ccccc4C3)n1)C2

>  <score_type>  (2) 
oracle

>  <origin>  (2) 
autodockgpu

>  <m_score__min__energy>  (2) 
-9.8599999999999994

>  <m_primary>  (2) 
energy

>  <meeko>  (2) 
{"free_energy": -9.06, "intermolecular_energy": -10.55, "internal_energy": -2.04, "cluster_size": 14, "cluster_id": 1, "rank_in_cluster": 10}

>  <energy>  (2) 
-9.86

>  <cluster_rmsd>  (2) 
0.1

>  <rmsd>  (2) 
270.58

>  <cluster>  (2) 
1

$$$$

     RDKit          3D

 64 69  0  0  0  0  0  0  0  0999 V2000
  139.9350   68.1710  227.9080 C   0  0  0  0  0  0  0  0  0  0  0  0
  139.5250   67.5360  226.7560 C   0  0  0  0  0  0  0  0  0  0  0  0
  139.3530   68.1790  225.5510 C   0  0  0  0  0  0  0  0  0  0  0  0
  139.6030   69.5370  225.4870 C   0  0  0  0  0  0  0  0  0  0  0  0
  140.0080   70.1540  226.6400 C   0  0  0  0  0  0  0  0  0  0  0  0
  140.1860   69.5470  227.8450 C   0  0  0  0  0  0  0  0  0  0  0  0
  140.2770   71.6250  226.5590 C   0  0  0  0  0  0  0  0  0  0  0  0
  141.0700   71.8420  225.3040 C   0  0  0  0  0  0  0  0  0  0  0  0
  140.3440   71.3570  224.1190 N   0  0  0  0  0  0  0  0  0  0  0  0
  140.6170   72.0590  222.9120 C   0  0  0  0  0  0  0  0  0  0  0  0
  141.2300   71.4250  221.8840 N   0  0  0  0  0  0  0  0  0  0  0  0
  141.5050   72.0300  220.7110 C   0  0  0  0  0  0  0  0  0  0  0  0
  142.1760   71.4020  219.6370 N   0  0  0  0  0  0  0  0  0  0  0  0
  143.5480   71.6560  219.2590 C   0  0  0  0  0  0  0  0  0  0  0  0
  143.7890   73.1620  219.4050 C   0  0  2  0  0  0  0  0  0  0  0  0
  145.1840   73.3870  218.8430 C   0  0  0  0  0  0  0  0  0  0  0  0
  146.1330   73.2860  219.9940 C   0  0  0  0  0  0  0  0  0  0  0  0
  145.2530   73.0970  221.1910 C   0  0  0  0  0  0  0  0  0  0  0  0
  143.9180   73.5570  220.7970 N   0  0  0  0  0  0  0  0  0  0  0  0
  141.1470   73.3260  220.5640 N   0  0  0  0  0  0  0  0  0  0  0  0
  140.5320   73.9990  221.5700 C   0  0  0  0  0  0  0  0  0  0  0  0
  140.1930   75.3500  221.3090 N   0  0  0  0  0  0  0  0  0  0  0  0
  140.2440   75.9350  219.9730 C   0  0  0  0  0  0  0  0  0  0  0  0
  141.4160   76.8890  219.9660 C   0  0  0  0  0  0  0  0  0  0  0  0
  141.1980   77.8580  221.0700 C   0  0  0  0  0  0  0  0  0  0  0  0
  141.8070   79.1120  220.8910 C   0  0  0  0  0  0  0  0  0  0  0  0
  141.6630   80.0790  221.8700 C   0  0  0  0  0  0  0  0  0  0  0  0
  140.9150   79.7960  223.0180 C   0  0  0  0  0  0  0  0  0  0  0  0
  140.3180   78.5360  223.1670 C   0  0  0  0  0  0  0  0  0  0  0  0
  140.4590   77.5730  222.1970 C   0  0  0  0  0  0  0  0  0  0  0  0
  139.8090   76.2250  222.3900 C   0  0  0  0  0  0  0  0  0  0  0  0
  140.2770   73.3600  222.7220 N   0  0  0  0  0  0  0  0  0  0  0  0
  139.4190   70.2410  224.1880 C   0  0  0  0  0  0  0  0  0  0  0  0
  140.0612   67.6141  228.8482 H   0  0  0  0  0  0  0  0  0  0  0  0
  139.3240   66.4555  226.8017 H   0  0  0  0  0  0  0  0  0  0  0  0
  139.0242   67.6248  224.6595 H   0  0  0  0  0  0  0  0  0  0  0  0
  140.5126   70.1124  228.7302 H   0  0  0  0  0  0  0  0  0  0  0  0
  139.3301   72.1829  226.5120 H   0  0  0  0  0  0  0  0  0  0  0  0
  140.8259   71.9794  227.4439 H   0  0  0  0  0  0  0  0  0  0  0  0
  141.2676   72.9178  225.1871 H   0  0  0  0  0  0  0  0  0  0  0  0
  142.0112   71.2789  225.3877 H   0  0  0  0  0  0  0  0  0  0  0  0
  141.6360   70.7080  219.0850 H   0  0  0  0  0  0  0  0  0  0  0  0
  144.2296   71.0999  219.9194 H   0  0  0  0  0  0  0  0  0  0  0  0
  143.7340   71.3301  218.2250 H   0  0  0  0  0  0  0  0  0  0  0  0
  142.9640   73.7093  218.9255 H   0  0  0  0  0  0  0  0  0  0  0  0
  145.4178   72.6194  218.0906 H   0  0  0  0  0  0  0  0  0  0  0  0
  145.2594   74.3691  218.3534 H   0  0  0  0  0  0  0  0  0  0  0  0
  146.8072   72.4261  219.8676 H   0  0  0  0  0  0  0  0  0  0  0  0
  146.7765   74.1735  220.0843 H   0  0  0  0  0  0  0  0  0  0  0  0
  145.2211   72.0352  221.4764 H   0  0  0  0  0  0  0  0  0  0  0  0
  145.6303   73.6600  222.0574 H   0  0  0  0  0  0  0  0  0  0  0  0
  143.1630   73.1520  221.3730 H   0  0  0  0  0  0  0  0  0  0  0  0
  140.3905   75.1477  219.2189 H   0  0  0  0  0  0  0  0  0  0  0  0
  139.3059   76.4560  219.7311 H   0  0  0  0  0  0  0  0  0  0  0  0
  142.3531   76.3364  220.1287 H   0  0  0  0  0  0  0  0  0  0  0  0
  141.4920   77.4081  218.9992 H   0  0  0  0  0  0  0  0  0  0  0  0
  142.3914   79.3222  219.9831 H   0  0  0  0  0  0  0  0  0  0  0  0
  142.1342   81.0653  221.7464 H   0  0  0  0  0  0  0  0  0  0  0  0
  140.7956   80.5593  223.8010 H   0  0  0  0  0  0  0  0  0  0  0  0
  139.7303   78.3160  224.0704 H   0  0  0  0  0  0  0  0  0  0  0  0
  140.1373   75.7926  223.3467 H   0  0  0  0  0  0  0  0  0  0  0  0
  138.7152   76.3417  222.3981 H   0  0  0  0  0  0  0  0  0  0  0  0
  138.3865   70.6129  224.1133 H   0  0  0  0  0  0  0  0  0  0  0  0
  139.6138   69.5457  223.3582 H   0  0  0  0  0  0  0  0  0  0  0  0
  1  2  2  0
  2  3  1  0
  3  4  2  0
  4  5  1  0
  5  6  2  0
  5  7  1  0
  7  8  1  0
  8  9  1  0
  9 10  1  0
 10 11  2  0
 11 12  1  0
 12 13  1  0
 13 14  1  0
 14 15  1  0
 15 16  1  0
 16 17  1  0
 17 18  1  0
 18 19  1  0
 12 20  2  0
 20 21  1  0
 21 22  1  0
 22 23  1  0
 23 24  1  0
 24 25  1  0
 25 26  2  0
 26 27  1  0
 27 28  2  0
 28 29  1  0
 29 30  2  0
 30 31  1  0
 21 32  2  0
  9 33  1  0
  6  1  1  0
 32 10  1  0
 33  4  1  0
 19 15  1  0
 31 22  1  0
 30 25  1  0
  1 34  1  0
  2 35  1  0
  3 36  1  0
  6 37  1  0
  7 38  1  0
  7 39  1  0
  8 40  1  0
  8 41  1  0
 13 42  1  0
 14 43  1  0
 14 44  1  0
 15 45  1  6
 16 46  1  0
 16 47  1  0
 17 48  1  0
 17 49  1  0
 18 50  1  0
 18 51  1  0
 19 52  1  0
 23 53  1  0
 23 54  1  0
 24 55  1  0
 24 56  1  0
 26 57  1  0
 27 58  1  0
 28 59  1  0
 29 60  1  0
 31 61  1  0
 31 62  1  0
 33 63  1  0
 33 64  1  0
M  END
>  <smiles>  (3) 
c1ccc2c(c1)CCN(c1nc(NC[C@@H]3CCCN3)nc(N3CCc4ccccc4C3)n1)C2

>  <score_type>  (3) 
oracle

>  <origin>  (3) 
autodockgpu

>  <m_score__min__energy>  (3) 
-9.8599999999999994

>  <m_primary>  (3) 
energy

>  <meeko>  (3) 
{"free_energy": -9.02, "intermolecular_energy": -10.51, "internal_energy": -1.94, "cluster_size": 14, "cluster_id": 1, "rank_in_cluster": 13}

>  <energy>  (3) 
-9.85

>  <cluster_rmsd>  (3) 
0.5

>  <rmsd>  (3) 
270.58

>  <cluster>  (3) 
1

$$$$

     RDKit          3D

 64 69  0  0  0  0  0  0  0  0999 V2000
  139.6820   68.0270  227.6750 C   0  0  0  0  0  0  0  0  0  0  0  0
  139.2690   67.4660  226.4870 C   0  0  0  0  0  0  0  0  0  0  0  0
  139.1590   68.1700  225.3090 C   0  0  0  0  0  0  0  0  0  0  0  0
  139.4770   69.5160  225.3130 C   0  0  0  0  0  0  0  0  0  0  0  0
  139.8850   70.0590  226.5010 C   0  0  0  0  0  0  0  0  0  0  0  0
  140.0030   69.3890  227.6810 C   0  0  0  0  0  0  0  0  0  0  0  0
  140.2280   71.5150  226.4940 C   0  0  0  0  0  0  0  0  0  0  0  0
  141.0620   71.7480  225.2680 C   0  0  0  0  0  0  0  0  0  0  0  0
  140.3410   71.3540  224.0470 N   0  0  0  0  0  0  0  0  0  0  0  0
  140.6780   72.0940  222.8790 C   0  0  0  0  0  0  0  0  0  0  0  0
  141.3820   71.5050  221.8830 N   0  0  0  0  0  0  0  0  0  0  0  0
  141.7210   72.1480  220.7480 C   0  0  0  0  0  0  0  0  0  0  0  0
  142.4850   71.5680  219.7110 N   0  0  0  0  0  0  0  0  0  0  0  0
  143.9260   71.4480  219.7140 C   0  0  0  0  0  0  0  0  0  0  0  0
  144.4870   72.6990  219.0280 C   0  0  2  0  0  0  0  0  0  0  0  0
  145.9040   72.8300  219.5640 C   0  0  0  0  0  0  0  0  0  0  0  0
  145.8300   73.7180  220.7650 C   0  0  0  0  0  0  0  0  0  0  0  0
  144.3950   74.1400  220.8310 C   0  0  0  0  0  0  0  0  0  0  0  0
  143.8360   73.9100  219.4960 N   0  0  0  0  0  0  0  0  0  0  0  0
  141.3350   73.4360  220.6070 N   0  0  0  0  0  0  0  0  0  0  0  0
  140.6290   74.0660  221.5810 C   0  0  0  0  0  0  0  0  0  0  0  0
  140.2690   75.4130  221.3290 N   0  0  0  0  0  0  0  0  0  0  0  0
  140.2760   75.9970  219.9910 C   0  0  0  0  0  0  0  0  0  0  0  0
  141.4380   76.9630  219.9500 C   0  0  0  0  0  0  0  0  0  0  0  0
  141.2400   77.9310  221.0590 C   0  0  0  0  0  0  0  0  0  0  0  0
  141.8310   79.1910  220.8620 C   0  0  0  0  0  0  0  0  0  0  0  0
  141.7030   80.1570  221.8440 C   0  0  0  0  0  0  0  0  0  0  0  0
  140.9910   79.8680  223.0130 C   0  0  0  0  0  0  0  0  0  0  0  0
  140.4120   78.6020  223.1800 C   0  0  0  0  0  0  0  0  0  0  0  0
  140.5370   77.6390  222.2070 C   0  0  0  0  0  0  0  0  0  0  0  0
  139.9070   76.2840  222.4190 C   0  0  0  0  0  0  0  0  0  0  0  0
  140.3130   73.3900  222.6970 N   0  0  0  0  0  0  0  0  0  0  0  0
  139.3600   70.2850  224.0440 C   0  0  0  0  0  0  0  0  0  0  0  0
  139.7573   67.4229  228.5912 H   0  0  0  0  0  0  0  0  0  0  0  0
  139.0128   66.3963  226.4789 H   0  0  0  0  0  0  0  0  0  0  0  0
  138.8258   67.6734  224.3858 H   0  0  0  0  0  0  0  0  0  0  0  0
  140.3360   69.8963  228.5984 H   0  0  0  0  0  0  0  0  0  0  0  0
  139.3114   72.1216  226.4515 H   0  0  0  0  0  0  0  0  0  0  0  0
  140.7717   71.8010  227.4065 H   0  0  0  0  0  0  0  0  0  0  0  0
  141.3157   72.8165  225.2051 H   0  0  0  0  0  0  0  0  0  0  0  0
  141.9723   71.1354  225.3462 H   0  0  0  0  0  0  0  0  0  0  0  0
  141.9650   71.2010  218.8900 H   0  0  0  0  0  0  0  0  0  0  0  0
  144.2968   71.3868  220.7478 H   0  0  0  0  0  0  0  0  0  0  0  0
  144.2429   70.5373  219.1846 H   0  0  0  0  0  0  0  0  0  0  0  0
  144.3728   72.5981  217.9386 H   0  0  0  0  0  0  0  0  0  0  0  0
  146.2949   71.8416  219.8471 H   0  0  0  0  0  0  0  0  0  0  0  0
  146.5773   73.2505  218.8025 H   0  0  0  0  0  0  0  0  0  0  0  0
  146.1157   73.1678  221.6736 H   0  0  0  0  0  0  0  0  0  0  0  0
  146.5154   74.5754  220.6942 H   0  0  0  0  0  0  0  0  0  0  0  0
  143.8555   73.5395  221.5783 H   0  0  0  0  0  0  0  0  0  0  0  0
  144.3022   75.1955  221.1265 H   0  0  0  0  0  0  0  0  0  0  0  0
  142.8090   73.8060  219.4980 H   0  0  0  0  0  0  0  0  0  0  0  0
  140.4090   75.2103  219.2338 H   0  0  0  0  0  0  0  0  0  0  0  0
  139.3262   76.5082  219.7753 H   0  0  0  0  0  0  0  0  0  0  0  0
  142.3849   76.4203  220.0873 H   0  0  0  0  0  0  0  0  0  0  0  0
  141.4824   77.4814  218.9808 H   0  0  0  0  0  0  0  0  0  0  0  0
  142.3884   79.4063  219.9384 H   0  0  0  0  0  0  0  0  0  0  0  0
  142.1593   81.1484  221.7062 H   0  0  0  0  0  0  0  0  0  0  0  0
  140.8858   80.6311  223.7982 H   0  0  0  0  0  0  0  0  0  0  0  0
  139.8517   78.3769  224.0995 H   0  0  0  0  0  0  0  0  0  0  0  0
  140.2669   75.8559  223.3662 H   0  0  0  0  0  0  0  0  0  0  0  0
  138.8127   76.3891  222.4581 H   0  0  0  0  0  0  0  0  0  0  0  0
  138.3495   70.7121  223.9635 H   0  0  0  0  0  0  0  0  0  0  0  0
  139.5396   69.6183  223.1877 H   0  0  0  0  0  0  0  0  0  0  0  0
  1  2  2  0
  2  3  1  0
  3  4  2  0
  4  5  1  0
  5  6  2  0
  5  7  1  0
  7  8  1  0
  8  9  1  0
  9 10  1  0
 10 11  2  0
 11 12  1  0
 12 13  1  0
 13 14  1  0
 14 15  1  0
 15 16  1  0
 16 17  1  0
 17 18  1  0
 18 19  1  0
 12 20  2  0
 20 21  1  0
 21 22  1  0
 22 23  1  0
 23 24  1  0
 24 25  1  0
 25 26  2  0
 26 27  1  0
 27 28  2  0
 28 29  1  0
 29 30  2  0
 30 31  1  0
 21 32  2  0
  9 33  1  0
  6  1  1  0
 32 10  1  0
 33  4  1  0
 19 15  1  0
 31 22  1  0
 30 25  1  0
  1 34  1  0
  2 35  1  0
  3 36  1  0
  6 37  1  0
  7 38  1  0
  7 39  1  0
  8 40  1  0
  8 41  1  0
 13 42  1  0
 14 43  1  0
 14 44  1  0
 15 45  1  6
 16 46  1  0
 16 47  1  0
 17 48  1  0
 17 49  1  0
 18 50  1  0
 18 51  1  0
 19 52  1  0
 23 53  1  0
 23 54  1  0
 24 55  1  0
 24 56  1  0
 26 57  1  0
 27 58  1  0
 28 59  1  0
 29 60  1  0
 31 61  1  0
 31 62  1  0
 33 63  1  0
 33 64  1  0
M  END
>  <smiles>  (4) 
c1ccc2c(c1)CCN(c1nc(NC[C@@H]3CCCN3)nc(N3CCc4ccccc4C3)n1)C2

>  <score_type>  (4) 
oracle

>  <origin>  (4) 
autodockgpu

>  <m_score__min__energy>  (4) 
-9.8599999999999994

>  <m_primary>  (4) 
energy

>  <meeko>  (4) 
{"free_energy": -9.07, "intermolecular_energy": -10.57, "internal_energy": -2.04, "cluster_size": 14, "cluster_id": 1, "rank_in_cluster": 8}

>  <energy>  (4) 
-9.84

>  <cluster_rmsd>  (4) 
0.11

>  <rmsd>  (4) 
270.61

>  <cluster>  (4) 
1

$$$$

     RDKit          3D

 64 69  0  0  0  0  0  0  0  0999 V2000
  139.7960   68.0310  227.6640 C   0  0  0  0  0  0  0  0  0  0  0  0
  139.3830   67.4600  226.4800 C   0  0  0  0  0  0  0  0  0  0  0  0
  139.2540   68.1580  225.3010 C   0  0  0  0  0  0  0  0  0  0  0  0
  139.5540   69.5080  225.2970 C   0  0  0  0  0  0  0  0  0  0  0  0
  139.9630   70.0610  226.4810 C   0  0  0  0  0  0  0  0  0  0  0  0
  140.0990   69.3980  227.6620 C   0  0  0  0  0  0  0  0  0  0  0  0
  140.2860   71.5230  226.4660 C   0  0  0  0  0  0  0  0  0  0  0  0
  141.1070   71.7620  225.2330 C   0  0  0  0  0  0  0  0  0  0  0  0
  140.3830   71.3530  224.0180 N   0  0  0  0  0  0  0  0  0  0  0  0
  140.7010   72.0940  222.8450 C   0  0  0  0  0  0  0  0  0  0  0  0
  141.3900   71.5050  221.8390 N   0  0  0  0  0  0  0  0  0  0  0  0
  141.7110   72.1480  220.6980 C   0  0  0  0  0  0  0  0  0  0  0  0
  142.4590   71.5680  219.6490 N   0  0  0  0  0  0  0  0  0  0  0  0
  143.8800   71.3020  219.6970 C   0  0  0  0  0  0  0  0  0  0  0  0
  144.5880   72.4940  219.0440 C   0  0  2  0  0  0  0  0  0  0  0  0
  145.9400   72.5660  219.7340 C   0  0  0  0  0  0  0  0  0  0  0  0
  145.7840   73.4990  220.8920 C   0  0  0  0  0  0  0  0  0  0  0  0
  144.3780   74.0020  220.7810 C   0  0  0  0  0  0  0  0  0  0  0  0
  143.9600   73.7550  219.3980 N   0  0  0  0  0  0  0  0  0  0  0  0
  141.3220   73.4360  220.5630 N   0  0  0  0  0  0  0  0  0  0  0  0
  140.6310   74.0650  221.5480 C   0  0  0  0  0  0  0  0  0  0  0  0
  140.2660   75.4120  221.3010 N   0  0  0  0  0  0  0  0  0  0  0  0
  140.2920   76.0070  219.9690 C   0  0  0  0  0  0  0  0  0  0  0  0
  141.4470   76.9810  219.9560 C   0  0  0  0  0  0  0  0  0  0  0  0
  141.2230   77.9380  221.0700 C   0  0  0  0  0  0  0  0  0  0  0  0
  141.8080   79.2040  220.8930 C   0  0  0  0  0  0  0  0  0  0  0  0
  141.6570   80.1610  221.8810 C   0  0  0  0  0  0  0  0  0  0  0  0
  140.9270   79.8560  223.0350 C   0  0  0  0  0  0  0  0  0  0  0  0
  140.3540   78.5860  223.1820 C   0  0  0  0  0  0  0  0  0  0  0  0
  140.5020   77.6320  222.2020 C   0  0  0  0  0  0  0  0  0  0  0  0
  139.8780   76.2710  222.3920 C   0  0  0  0  0  0  0  0  0  0  0  0
  140.3320   73.3890  222.6680 N   0  0  0  0  0  0  0  0  0  0  0  0
  139.4170   70.2710  224.0270 C   0  0  0  0  0  0  0  0  0  0  0  0
  139.8849   67.4317  228.5821 H   0  0  0  0  0  0  0  0  0  0  0  0
  139.1430   66.3865  226.4770 H   0  0  0  0  0  0  0  0  0  0  0  0
  138.9198   67.6535  224.3824 H   0  0  0  0  0  0  0  0  0  0  0  0
  140.4323   69.9135  228.5748 H   0  0  0  0  0  0  0  0  0  0  0  0
  139.3608   72.1168  226.4282 H   0  0  0  0  0  0  0  0  0  0  0  0
  140.8324   71.8203  227.3732 H   0  0  0  0  0  0  0  0  0  0  0  0
  141.3454   72.8336  225.1639 H   0  0  0  0  0  0  0  0  0  0  0  0
  142.0258   71.1617  225.3071 H   0  0  0  0  0  0  0  0  0  0  0  0
  141.9420   71.3160  218.7840 H   0  0  0  0  0  0  0  0  0  0  0  0
  144.2081   71.1951  220.7415 H   0  0  0  0  0  0  0  0  0  0  0  0
  144.1199   70.3682  219.1675 H   0  0  0  0  0  0  0  0  0  0  0  0
  144.5925   72.3602  217.9522 H   0  0  0  0  0  0  0  0  0  0  0  0
  146.2378   71.5683  220.0888 H   0  0  0  0  0  0  0  0  0  0  0  0
  146.7180   72.9214  219.0424 H   0  0  0  0  0  0  0  0  0  0  0  0
  145.9326   72.9666  221.8431 H   0  0  0  0  0  0  0  0  0  0  0  0
  146.5225   74.3140  220.8751 H   0  0  0  0  0  0  0  0  0  0  0  0
  143.7234   73.4598  221.4792 H   0  0  0  0  0  0  0  0  0  0  0  0
  144.3151   75.0710  221.0325 H   0  0  0  0  0  0  0  0  0  0  0  0
  142.9350   73.7090  219.2850 H   0  0  0  0  0  0  0  0  0  0  0  0
  140.4437   75.2277  219.2077 H   0  0  0  0  0  0  0  0  0  0  0  0
  139.3424   76.5134  219.7412 H   0  0  0  0  0  0  0  0  0  0  0  0
  142.3954   76.4439  220.1047 H   0  0  0  0  0  0  0  0  0  0  0  0
  141.5042   77.5081  218.9922 H   0  0  0  0  0  0  0  0  0  0  0  0
  142.3787   79.4310  219.9804 H   0  0  0  0  0  0  0  0  0  0  0  0
  142.1086   81.1566  221.7597 H   0  0  0  0  0  0  0  0  0  0  0  0
  140.8033   80.6115  223.8249 H   0  0  0  0  0  0  0  0  0  0  0  0
  139.7801   78.3493  224.0901 H   0  0  0  0  0  0  0  0  0  0  0  0
  140.2241   75.8375  223.3419 H   0  0  0  0  0  0  0  0  0  0  0  0
  138.7825   76.3678  222.4129 H   0  0  0  0  0  0  0  0  0  0  0  0
  138.4002   70.6841  223.9531 H   0  0  0  0  0  0  0  0  0  0  0  0
  139.5993   69.6037  223.1717 H   0  0  0  0  0  0  0  0  0  0  0  0
  1  2  2  0
  2  3  1  0
  3  4  2  0
  4  5  1  0
  5  6  2  0
  5  7  1  0
  7  8  1  0
  8  9  1  0
  9 10  1  0
 10 11  2  0
 11 12  1  0
 12 13  1  0
 13 14  1  0
 14 15  1  0
 15 16  1  0
 16 17  1  0
 17 18  1  0
 18 19  1  0
 12 20  2  0
 20 21  1  0
 21 22  1  0
 22 23  1  0
 23 24  1  0
 24 25  1  0
 25 26  2  0
 26 27  1  0
 27 28  2  0
 28 29  1  0
 29 30  2  0
 30 31  1  0
 21 32  2  0
  9 33  1  0
  6  1  1  0
 32 10  1  0
 33  4  1  0
 19 15  1  0
 31 22  1  0
 30 25  1  0
  1 34  1  0
  2 35  1  0
  3 36  1  0
  6 37  1  0
  7 38  1  0
  7 39  1  0
  8 40  1  0
  8 41  1  0
 13 42  1  0
 14 43  1  0
 14 44  1  0
 15 45  1  6
 16 46  1  0
 16 47  1  0
 17 48  1  0
 17 49  1  0
 18 50  1  0
 18 51  1  0
 19 52  1  0
 23 53  1  0
 23 54  1  0
 24 55  1  0
 24 56  1  0
 26 57  1  0
 27 58  1  0
 28 59  1  0
 29 60  1  0
 31 61  1  0
 31 62  1  0
 33 63  1  0
 33 64  1  0
M  END
>  <smiles>  (5) 
c1ccc2c(c1)CCN(c1nc(NC[C@@H]3CCCN3)nc(N3CCc4ccccc4C3)n1)C2

>  <score_type>  (5) 
oracle

>  <origin>  (5) 
autodockgpu

>  <m_score__min__energy>  (5) 
-9.8599999999999994

>  <m_primary>  (5) 
energy

>  <meeko>  (5) 
{"free_energy": -9.14, "intermolecular_energy": -10.63, "internal_energy": -2.05, "cluster_size": 14, "cluster_id": 1, "rank_in_cluster": 6}

>  <energy>  (5) 
-9.14

>  <cluster_rmsd>  (5) 
1.25

>  <rmsd>  (5) 
270.55

>  <cluster>  (5) 
1

$$$$

     RDKit          3D

 64 69  0  0  0  0  0  0  0  0999 V2000
  138.8380   69.2770  227.0840 C   0  0  0  0  0  0  0  0  0  0  0  0
  140.0130   69.9370  227.3680 C   0  0  0  0  0  0  0  0  0  0  0  0
  140.7470   70.6260  226.4290 C   0  0  0  0  0  0  0  0  0  0  0  0
  140.2870   70.6590  225.1260 C   0  0  0  0  0  0  0  0  0  0  0  0
  139.1190   69.9970  224.8590 C   0  0  0  0  0  0  0  0  0  0  0  0
  138.3710   69.3080  225.7640 C   0  0  0  0  0  0  0  0  0  0  0  0
  138.6280   70.0390  223.4450 C   0  0  0  0  0  0  0  0  0  0  0  0
  138.7760   71.4610  222.9880 C   0  0  0  0  0  0  0  0  0  0  0  0
  140.1710   71.9160  223.0930 N   0  0  0  0  0  0  0  0  0  0  0  0
  140.5630   72.8940  222.1360 C   0  0  0  0  0  0  0  0  0  0  0  0
  141.2390   72.5190  221.0230 N   0  0  0  0  0  0  0  0  0  0  0  0
  141.6270   73.3950  220.0740 C   0  0  0  0  0  0  0  0  0  0  0  0
  142.3650   73.0360  218.9240 N   0  0  0  0  0  0  0  0  0  0  0  0
  143.6040   73.6560  218.5100 C   0  0  0  0  0  0  0  0  0  0  0  0
  144.7220   72.6320  218.7410 C   0  0  2  0  0  0  0  0  0  0  0  0
  144.3800   71.9800  220.0710 C   0  0  0  0  0  0  0  0  0  0  0  0
  145.0930   72.7590  221.1300 C   0  0  0  0  0  0  0  0  0  0  0  0
  145.8910   73.7750  220.3730 C   0  0  0  0  0  0  0  0  0  0  0  0
  145.9990   73.2760  219.0000 N   0  0  0  0  0  0  0  0  0  0  0  0
  141.3210   74.7000  220.2490 N   0  0  0  0  0  0  0  0  0  0  0  0
  140.6450   75.1180  221.3510 C   0  0  0  0  0  0  0  0  0  0  0  0
  140.3690   76.5060  221.4320 N   0  0  0  0  0  0  0  0  0  0  0  0
  140.2530   77.3600  220.2540 C   0  0  0  0  0  0  0  0  0  0  0  0
  141.4760   78.2480  220.2450 C   0  0  0  0  0  0  0  0  0  0  0  0
  141.5030   78.9670  221.5450 C   0  0  0  0  0  0  0  0  0  0  0  0
  142.1670   80.2060  221.5250 C   0  0  0  0  0  0  0  0  0  0  0  0
  142.2470   80.9460  222.6920 C   0  0  0  0  0  0  0  0  0  0  0  0
  141.6690   80.4540  223.8670 C   0  0  0  0  0  0  0  0  0  0  0  0
  141.0130   79.2150  223.8540 C   0  0  0  0  0  0  0  0  0  0  0  0
  140.9310   78.4760  222.6970 C   0  0  0  0  0  0  0  0  0  0  0  0
  140.2230   77.1440  222.7170 C   0  0  0  0  0  0  0  0  0  0  0  0
  140.2780   74.2150  222.2720 N   0  0  0  0  0  0  0  0  0  0  0  0
  141.0750   71.3990  224.1040 C   0  0  0  0  0  0  0  0  0  0  0  0
  138.2837   68.7423  227.8694 H   0  0  0  0  0  0  0  0  0  0  0  0
  140.3857   69.9122  228.4026 H   0  0  0  0  0  0  0  0  0  0  0  0
  141.6788   71.1389  226.7094 H   0  0  0  0  0  0  0  0  0  0  0  0
  137.4411   68.7983  225.4715 H   0  0  0  0  0  0  0  0  0  0  0  0
  139.2314   69.3712  222.8126 H   0  0  0  0  0  0  0  0  0  0  0  0
  137.5825   69.7042  223.3754 H   0  0  0  0  0  0  0  0  0  0  0  0
  138.4533   71.5352  221.9390 H   0  0  0  0  0  0  0  0  0  0  0  0
  138.1543   72.0987  223.6337 H   0  0  0  0  0  0  0  0  0  0  0  0
  141.9810   72.2690  218.3380 H   0  0  0  0  0  0  0  0  0  0  0  0
  143.5534   73.9250  217.4446 H   0  0  0  0  0  0  0  0  0  0  0  0
  143.7916   74.5755  219.0838 H   0  0  0  0  0  0  0  0  0  0  0  0
  144.7952   71.9703  217.8653 H   0  0  0  0  0  0  0  0  0  0  0  0
  143.2939   72.0150  220.2417 H   0  0  0  0  0  0  0  0  0  0  0  0
  144.6874   70.9239  220.0835 H   0  0  0  0  0  0  0  0  0  0  0  0
  144.3740   73.2508  221.8017 H   0  0  0  0  0  0  0  0  0  0  0  0
  145.7235   72.1207  221.7664 H   0  0  0  0  0  0  0  0  0  0  0  0
  145.3778   74.7479  220.3850 H   0  0  0  0  0  0  0  0  0  0  0  0
  146.8837   73.9195  220.8242 H   0  0  0  0  0  0  0  0  0  0  0  0
  146.1900   74.0200  218.3110 H   0  0  0  0  0  0  0  0  0  0  0  0
  140.2222   76.7465  219.3415 H   0  0  0  0  0  0  0  0  0  0  0  0
  139.3290   77.9561  220.2845 H   0  0  0  0  0  0  0  0  0  0  0  0
  142.3844   77.6381  220.1321 H   0  0  0  0  0  0  0  0  0  0  0  0
  141.4384   78.9579  219.4055 H   0  0  0  0  0  0  0  0  0  0  0  0
  142.6169   80.5823  220.5944 H   0  0  0  0  0  0  0  0  0  0  0  0
  142.7632   81.9174  222.6954 H   0  0  0  0  0  0  0  0  0  0  0  0
  141.7290   81.0371  224.7978 H   0  0  0  0  0  0  0  0  0  0  0  0
  140.5591   78.8299  224.7790 H   0  0  0  0  0  0  0  0  0  0  0  0
  140.6642   76.5053  223.4964 H   0  0  0  0  0  0  0  0  0  0  0  0
  139.1553   77.2980  222.9322 H   0  0  0  0  0  0  0  0  0  0  0  0
  141.8020   70.7192  223.6357 H   0  0  0  0  0  0  0  0  0  0  0  0
  141.6137   72.2310  224.5811 H   0  0  0  0  0  0  0  0  0  0  0  0
  1  2  2  0
  2  3  1  0
  3  4  2  0
  4  5  1  0
  5  6  2  0
  5  7  1  0
  7  8  1  0
  8  9  1  0
  9 10  1  0
 10 11  2  0
 11 12  1  0
 12 13  1  0
 13 14  1  0
 14 15  1  0
 15 16  1  0
 16 17  1  0
 17 18  1  0
 18 19  1  0
 12 20  2  0
 20 21  1  0
 21 22  1  0
 22 23  1  0
 23 24  1  0
 24 25  1  0
 25 26  2  0
 26 27  1  0
 27 28  2  0
 28 29  1  0
 29 30  2  0
 30 31  1  0
 21 32  2  0
  9 33  1  0
  6  1  1  0
 32 10  1  0
 33  4  1  0
 19 15  1  0
 31 22  1  0
 30 25  1  0
  1 34  1  0
  2 35  1  0
  3 36  1  0
  6 37  1  0
  7 38  1  0
  7 39  1  0
  8 40  1  0
  8 41  1  0
 13 42  1  0
 14 43  1  0
 14 44  1  0
 15 45  1  6
 16 46  1  0
 16 47  1  0
 17 48  1  0
 17 49  1  0
 18 50  1  0
 18 51  1  0
 19 52  1  0
 23 53  1  0
 23 54  1  0
 24 55  1  0
 24 56  1  0
 26 57  1  0
 27 58  1  0
 28 59  1  0
 29 60  1  0
 31 61  1  0
 31 62  1  0
 33 63  1  0
 33 64  1  0
M  END
>  <smiles>  (6) 
c1ccc2c(c1)CCN(c1nc(NC[C@@H]3CCCN3)nc(N3CCc4ccccc4C3)n1)C2

>  <score_type>  (6) 
oracle

>  <origin>  (6) 
autodockgpu

>  <m_score__min__energy>  (6) 
-9.8599999999999994

>  <m_primary>  (6) 
energy

>  <meeko>  (6) 
{"free_energy": -9.86, "intermolecular_energy": -11.35, "internal_energy": -1.17, "cluster_size": 14, "cluster_id": 1, "rank_in_cluster": 2}

>  <energy>  (6) 
-9.14

>  <cluster_rmsd>  (6) 
1.25

>  <rmsd>  (6) 
270.55

>  <cluster>  (6) 
1

$$$$

     RDKit          3D

 64 69  0  0  0  0  0  0  0  0999 V2000
  139.8610   68.0030  227.6480 C   0  0  0  0  0  0  0  0  0  0  0  0
  139.4630   67.4270  226.4620 C   0  0  0  0  0  0  0  0  0  0  0  0
  139.3200   68.1280  225.2850 C   0  0  0  0  0  0  0  0  0  0  0  0
  139.5880   69.4840  225.2880 C   0  0  0  0  0  0  0  0  0  0  0  0
  139.9820   70.0410  226.4750 C   0  0  0  0  0  0  0  0  0  0  0  0
  140.1320   69.3760  227.6530 C   0  0  0  0  0  0  0  0  0  0  0  0
  140.2710   71.5100  226.4670 C   0  0  0  0  0  0  0  0  0  0  0  0
  141.0880   71.7740  225.2360 C   0  0  0  0  0  0  0  0  0  0  0  0
  140.3760   71.3540  224.0190 N   0  0  0  0  0  0  0  0  0  0  0  0
  140.6780   72.1070  222.8500 C   0  0  0  0  0  0  0  0  0  0  0  0
  141.3480   71.5270  221.8250 N   0  0  0  0  0  0  0  0  0  0  0  0
  141.6540   72.1830  220.6870 C   0  0  0  0  0  0  0  0  0  0  0  0
  142.3830   71.6120  219.6200 N   0  0  0  0  0  0  0  0  0  0  0  0
  143.7820   71.2500  219.6750 C   0  0  0  0  0  0  0  0  0  0  0  0
  144.5760   72.4090  219.0610 C   0  0  2  0  0  0  0  0  0  0  0  0
  145.9120   72.3880  219.7840 C   0  0  0  0  0  0  0  0  0  0  0  0
  145.7830   73.3100  220.9550 C   0  0  0  0  0  0  0  0  0  0  0  0
  144.4120   73.8980  220.8190 C   0  0  0  0  0  0  0  0  0  0  0  0
  144.0150   73.7000  219.4230 N   0  0  0  0  0  0  0  0  0  0  0  0
  141.2680   73.4730  220.5730 N   0  0  0  0  0  0  0  0  0  0  0  0
  140.5950   74.0930  221.5770 C   0  0  0  0  0  0  0  0  0  0  0  0
  140.2310   75.4440  221.3510 N   0  0  0  0  0  0  0  0  0  0  0  0
  140.1680   76.0350  220.0180 C   0  0  0  0  0  0  0  0  0  0  0  0
  141.3320   76.9920  219.9160 C   0  0  0  0  0  0  0  0  0  0  0  0
  141.2040   77.9560  221.0390 C   0  0  0  0  0  0  0  0  0  0  0  0
  141.7920   79.2130  220.8150 C   0  0  0  0  0  0  0  0  0  0  0  0
  141.7270   80.1750  221.8070 C   0  0  0  0  0  0  0  0  0  0  0  0
  141.0800   79.8850  223.0130 C   0  0  0  0  0  0  0  0  0  0  0  0
  140.5020   78.6230  223.2060 C   0  0  0  0  0  0  0  0  0  0  0  0
  140.5640   77.6640  222.2230 C   0  0  0  0  0  0  0  0  0  0  0  0
  139.9370   76.3130  222.4640 C   0  0  0  0  0  0  0  0  0  0  0  0
  140.3110   73.4050  222.6940 N   0  0  0  0  0  0  0  0  0  0  0  0
  139.4350   70.2490  224.0210 C   0  0  0  0  0  0  0  0  0  0  0  0
  139.9628   67.4020  228.5637 H   0  0  0  0  0  0  0  0  0  0  0  0
  139.2476   66.3483  226.4543 H   0  0  0  0  0  0  0  0  0  0  0  0
  138.9997   67.6201  224.3633 H   0  0  0  0  0  0  0  0  0  0  0  0
  140.4521   69.8948  228.5686 H   0  0  0  0  0  0  0  0  0  0  0  0
  139.3323   72.0823  226.4306 H   0  0  0  0  0  0  0  0  0  0  0  0
  140.8094   71.8156  227.3762 H   0  0  0  0  0  0  0  0  0  0  0  0
  141.3012   72.8513  225.1722 H   0  0  0  0  0  0  0  0  0  0  0  0
  142.0206   71.1952  225.3087 H   0  0  0  0  0  0  0  0  0  0  0  0
  141.8680   71.4420  218.7340 H   0  0  0  0  0  0  0  0  0  0  0  0
  144.0899   71.0941  220.7195 H   0  0  0  0  0  0  0  0  0  0  0  0
  143.9652   70.3163  219.1231 H   0  0  0  0  0  0  0  0  0  0  0  0
  144.5998   72.2938  217.9673 H   0  0  0  0  0  0  0  0  0  0  0  0
  146.1407   71.3685  220.1279 H   0  0  0  0  0  0  0  0  0  0  0  0
  146.7270   72.7071  219.1177 H   0  0  0  0  0  0  0  0  0  0  0  0
  145.8759   72.7542  221.8997 H   0  0  0  0  0  0  0  0  0  0  0  0
  146.5689   74.0795  220.9705 H   0  0  0  0  0  0  0  0  0  0  0  0
  143.7091   73.3842  221.4912 H   0  0  0  0  0  0  0  0  0  0  0  0
  144.4065   74.9645  221.0883 H   0  0  0  0  0  0  0  0  0  0  0  0
  142.9930   73.7160  219.2850 H   0  0  0  0  0  0  0  0  0  0  0  0
  140.2524   75.2513  219.2508 H   0  0  0  0  0  0  0  0  0  0  0  0
  139.2116   76.5546  219.8587 H   0  0  0  0  0  0  0  0  0  0  0  0
  142.2811   76.4419  219.9972 H   0  0  0  0  0  0  0  0  0  0  0  0
  141.3256   77.5149  218.9482 H   0  0  0  0  0  0  0  0  0  0  0  0
  142.2978   79.4291  219.8624 H   0  0  0  0  0  0  0  0  0  0  0  0
  142.1821   81.1638  221.6482 H   0  0  0  0  0  0  0  0  0  0  0  0
  141.0252   80.6446  223.8067 H   0  0  0  0  0  0  0  0  0  0  0  0
  139.9930   78.3973  224.1547 H   0  0  0  0  0  0  0  0  0  0  0  0
  140.3462   75.8778  223.3877 H   0  0  0  0  0  0  0  0  0  0  0  0
  138.8474   76.4258  222.5648 H   0  0  0  0  0  0  0  0  0  0  0  0
  138.4089   70.6384  223.9470 H   0  0  0  0  0  0  0  0  0  0  0  0
  139.6341   69.5901  223.1630 H   0  0  0  0  0  0  0  0  0  0  0  0
  1  2  2  0
  2  3  1  0
  3  4  2  0
  4  5  1  0
  5  6  2  0
  5  7  1  0
  7  8  1  0
  8  9  1  0
  9 10  1  0
 10 11  2  0
 11 12  1  0
 12 13  1  0
 13 14  1  0
 14 15  1  0
 15 16  1  0
 16 17  1  0
 17 18  1  0
 18 19  1  0
 12 20  2  0
 20 21  1  0
 21 22  1  0
 22 23  1  0
 23 24  1  0
 24 25  1  0
 25 26  2  0
 26 27  1  0
 27 28  2  0
 28 29  1  0
 29 30  2  0
 30 31  1  0
 21 32  2  0
  9 33  1  0
  6  1  1  0
 32 10  1  0
 33  4  1  0
 19 15  1  0
 31 22  1  0
 30 25  1  0
  1 34  1  0
  2 35  1  0
  3 36  1  0
  6 37  1  0
  7 38  1  0
  7 39  1  0
  8 40  1  0
  8 41  1  0
 13 42  1  0
 14 43  1  0
 14 44  1  0
 15 45  1  6
 16 46  1  0
 16 47  1  0
 17 48  1  0
 17 49  1  0
 18 50  1  0
 18 51  1  0
 19 52  1  0
 23 53  1  0
 23 54  1  0
 24 55  1  0
 24 56  1  0
 26 57  1  0
 27 58  1  0
 28 59  1  0
 29 60  1  0
 31 61  1  0
 31 62  1  0
 33 63  1  0
 33 64  1  0
M  END
>  <smiles>  (7) 
c1ccc2c(c1)CCN(c1nc(NC[C@@H]3CCCN3)nc(N3CCc4ccccc4C3)n1)C2

>  <score_type>  (7) 
oracle

>  <origin>  (7) 
autodockgpu

>  <m_score__min__energy>  (7) 
-9.8599999999999994

>  <m_primary>  (7) 
energy

>  <meeko>  (7) 
{"free_energy": -9.14, "intermolecular_energy": -10.63, "internal_energy": -2.04, "cluster_size": 14, "cluster_id": 1, "rank_in_cluster": 5}

>  <energy>  (7) 
-9.12

>  <cluster_rmsd>  (7) 
1.25

>  <rmsd>  (7) 
270.53

>  <cluster>  (7) 
1

$$$$

     RDKit          3D

 64 69  0  0  0  0  0  0  0  0999 V2000
  139.7950   68.1570  227.8530 C   0  0  0  0  0  0  0  0  0  0  0  0
  139.3540   67.5650  226.6900 C   0  0  0  0  0  0  0  0  0  0  0  0
  139.2190   68.2370  225.4960 C   0  0  0  0  0  0  0  0  0  0  0  0
  139.5410   69.5810  225.4550 C   0  0  0  0  0  0  0  0  0  0  0  0
  139.9760   70.1550  226.6190 C   0  0  0  0  0  0  0  0  0  0  0  0
  140.1200   69.5190  227.8130 C   0  0  0  0  0  0  0  0  0  0  0  0
  140.3230   71.6100  226.5640 C   0  0  0  0  0  0  0  0  0  0  0  0
  141.1290   71.8070  225.3130 C   0  0  0  0  0  0  0  0  0  0  0  0
  140.3800   71.3810  224.1200 N   0  0  0  0  0  0  0  0  0  0  0  0
  140.6920   72.0880  222.9250 C   0  0  0  0  0  0  0  0  0  0  0  0
  141.3430   71.4600  221.9170 N   0  0  0  0  0  0  0  0  0  0  0  0
  141.6560   72.0700  220.7560 C   0  0  0  0  0  0  0  0  0  0  0  0
  142.3660   71.4490  219.7040 N   0  0  0  0  0  0  0  0  0  0  0  0
  143.7630   71.6750  219.4030 C   0  0  0  0  0  0  0  0  0  0  0  0
  143.9920   73.1910  219.4250 C   0  0  2  0  0  0  0  0  0  0  0  0
  145.3990   73.3760  218.8820 C   0  0  0  0  0  0  0  0  0  0  0  0
  146.3190   73.3820  220.0610 C   0  0  0  0  0  0  0  0  0  0  0  0
  145.4080   73.2900  221.2460 C   0  0  0  0  0  0  0  0  0  0  0  0
  144.0820   73.7040  220.7810 N   0  0  0  0  0  0  0  0  0  0  0  0
  141.2980   73.3640  220.6010 N   0  0  0  0  0  0  0  0  0  0  0  0
  140.6450   74.0320  221.5870 C   0  0  0  0  0  0  0  0  0  0  0  0
  140.3090   75.3830  221.3180 N   0  0  0  0  0  0  0  0  0  0  0  0
  140.5440   76.0140  220.0240 C   0  0  0  0  0  0  0  0  0  0  0  0
  141.6750   76.9960  220.2240 C   0  0  0  0  0  0  0  0  0  0  0  0
  141.2630   77.9210  221.3100 C   0  0  0  0  0  0  0  0  0  0  0  0
  141.8550   79.1950  221.2640 C   0  0  0  0  0  0  0  0  0  0  0  0
  141.5350   80.1240  222.2380 C   0  0  0  0  0  0  0  0  0  0  0  0
  140.6310   79.7830  223.2500 C   0  0  0  0  0  0  0  0  0  0  0  0
  140.0560   78.5050  223.2690 C   0  0  0  0  0  0  0  0  0  0  0  0
  140.3720   77.5790  222.3030 C   0  0  0  0  0  0  0  0  0  0  0  0
  139.7410   76.2100  222.3540 C   0  0  0  0  0  0  0  0  0  0  0  0
  140.3520   73.3880  222.7270 N   0  0  0  0  0  0  0  0  0  0  0  0
  139.3960   70.3160  224.1690 C   0  0  0  0  0  0  0  0  0  0  0  0
  139.8890   67.5784  228.7838 H   0  0  0  0  0  0  0  0  0  0  0  0
  139.0954   66.4962  226.7168 H   0  0  0  0  0  0  0  0  0  0  0  0
  138.8629   67.7163  224.5948 H   0  0  0  0  0  0  0  0  0  0  0  0
  140.4760   70.0509  228.7076 H   0  0  0  0  0  0  0  0  0  0  0  0
  139.4072   72.2182  226.5262 H   0  0  0  0  0  0  0  0  0  0  0  0
  140.8887   71.9188  227.4554 H   0  0  0  0  0  0  0  0  0  0  0  0
  141.3828   72.8728  225.2147 H   0  0  0  0  0  0  0  0  0  0  0  0
  142.0397   71.1945  225.3875 H   0  0  0  0  0  0  0  0  0  0  0  0
  141.8390   70.7800  219.1100 H   0  0  0  0  0  0  0  0  0  0  0  0
  144.3952   71.1873  220.1596 H   0  0  0  0  0  0  0  0  0  0  0  0
  144.0237   71.2549  218.4204 H   0  0  0  0  0  0  0  0  0  0  0  0
  143.1776   73.6900  218.8794 H   0  0  0  0  0  0  0  0  0  0  0  0
  145.6558   72.5477  218.2053 H   0  0  0  0  0  0  0  0  0  0  0  0
  145.4822   74.3127  218.3113 H   0  0  0  0  0  0  0  0  0  0  0  0
  147.0010   72.5197  220.0267 H   0  0  0  0  0  0  0  0  0  0  0  0
  146.9559   74.2784  220.0908 H   0  0  0  0  0  0  0  0  0  0  0  0
  145.3742   72.2563  221.6206 H   0  0  0  0  0  0  0  0  0  0  0  0
  145.7593   73.9288  222.0698 H   0  0  0  0  0  0  0  0  0  0  0  0
  143.3140   73.3460  221.3700 H   0  0  0  0  0  0  0  0  0  0  0  0
  140.8259   75.2567  219.2776 H   0  0  0  0  0  0  0  0  0  0  0  0
  139.6384   76.5198  219.6580 H   0  0  0  0  0  0  0  0  0  0  0  0
  142.5924   76.4615  220.5114 H   0  0  0  0  0  0  0  0  0  0  0  0
  141.8820   77.5492  219.2960 H   0  0  0  0  0  0  0  0  0  0  0  0
  142.5644   79.4504  220.4630 H   0  0  0  0  0  0  0  0  0  0  0  0
  141.9890   81.1257  222.2169 H   0  0  0  0  0  0  0  0  0  0  0  0
  140.3723   80.5158  224.0285 H   0  0  0  0  0  0  0  0  0  0  0  0
  139.3445   78.2400  224.0650 H   0  0  0  0  0  0  0  0  0  0  0  0
  139.9341   75.7530  223.3358 H   0  0  0  0  0  0  0  0  0  0  0  0
  138.6555   76.2992  222.1998 H   0  0  0  0  0  0  0  0  0  0  0  0
  138.3852   70.7445  224.1011 H   0  0  0  0  0  0  0  0  0  0  0  0
  139.5530   69.6260  223.3269 H   0  0  0  0  0  0  0  0  0  0  0  0
  1  2  2  0
  2  3  1  0
  3  4  2  0
  4  5  1  0
  5  6  2  0
  5  7  1  0
  7  8  1  0
  8  9  1  0
  9 10  1  0
 10 11  2  0
 11 12  1  0
 12 13  1  0
 13 14  1  0
 14 15  1  0
 15 16  1  0
 16 17  1  0
 17 18  1  0
 18 19  1  0
 12 20  2  0
 20 21  1  0
 21 22  1  0
 22 23  1  0
 23 24  1  0
 24 25  1  0
 25 26  2  0
 26 27  1  0
 27 28  2  0
 28 29  1  0
 29 30  2  0
 30 31  1  0
 21 32  2  0
  9 33  1  0
  6  1  1  0
 32 10  1  0
 33  4  1  0
 19 15  1  0
 31 22  1  0
 30 25  1  0
  1 34  1  0
  2 35  1  0
  3 36  1  0
  6 37  1  0
  7 38  1  0
  7 39  1  0
  8 40  1  0
  8 41  1  0
 13 42  1  0
 14 43  1  0
 14 44  1  0
 15 45  1  6
 16 46  1  0
 16 47  1  0
 17 48  1  0
 17 49  1  0
 18 50  1  0
 18 51  1  0
 19 52  1  0
 23 53  1  0
 23 54  1  0
 24 55  1  0
 24 56  1  0
 26 57  1  0
 27 58  1  0
 28 59  1  0
 29 60  1  0
 31 61  1  0
 31 62  1  0
 33 63  1  0
 33 64  1  0
M  END
>  <smiles>  (8) 
c1ccc2c(c1)CCN(c1nc(NC[C@@H]3CCCN3)nc(N3CCc4ccccc4C3)n1)C2

>  <score_type>  (8) 
oracle

>  <origin>  (8) 
autodockgpu

>  <m_score__min__energy>  (8) 
-9.8599999999999994

>  <m_primary>  (8) 
energy

>  <meeko>  (8) 
{"free_energy": -9.03, "intermolecular_energy": -10.52, "internal_energy": -1.96, "cluster_size": 14, "cluster_id": 1, "rank_in_cluster": 12}

>  <energy>  (8) 
-9.07

>  <cluster_rmsd>  (8) 
1.27

>  <rmsd>  (8) 
270.56

>  <cluster>  (8) 
1

$$$$

     RDKit          3D

 64 69  0  0  0  0  0  0  0  0999 V2000
  142.1260   80.4560  222.9440 C   0  0  0  0  0  0  0  0  0  0  0  0
  141.0500   80.3830  223.8000 C   0  0  0  0  0  0  0  0  0  0  0  0
  140.0890   79.3990  223.7360 C   0  0  0  0  0  0  0  0  0  0  0  0
  140.2040   78.4280  222.7580 C   0  0  0  0  0  0  0  0  0  0  0  0
  141.2780   78.5150  221.9140 C   0  0  0  0  0  0  0  0  0  0  0  0
  142.2430   79.4750  221.9520 C   0  0  0  0  0  0  0  0  0  0  0  0
  141.3940   77.4580  220.8600 C   0  0  0  0  0  0  0  0  0  0  0  0
  141.1100   76.1500  221.5390 C   0  0  0  0  0  0  0  0  0  0  0  0
  139.7780   76.1490  222.1650 N   0  0  0  0  0  0  0  0  0  0  0  0
  139.1390   74.8790  222.2280 C   0  0  0  0  0  0  0  0  0  0  0  0
  137.8590   74.7440  221.8080 N   0  0  0  0  0  0  0  0  0  0  0  0
  137.2030   73.5660  221.8300 C   0  0  0  0  0  0  0  0  0  0  0  0
  135.8560   73.4060  221.4330 N   0  0  0  0  0  0  0  0  0  0  0  0
  134.7120   73.8740  222.1830 C   0  0  0  0  0  0  0  0  0  0  0  0
  134.7030   73.1190  223.5170 C   0  0  2  0  0  0  0  0  0  0  0  0
  133.4870   73.6540  224.2560 C   0  0  0  0  0  0  0  0  0  0  0  0
  133.9600   74.8000  225.0920 C   0  0  0  0  0  0  0  0  0  0  0  0
  135.4420   74.8320  224.8780 C   0  0  0  0  0  0  0  0  0  0  0  0
  135.8140   73.5100  224.3670 N   0  0  0  0  0  0  0  0  0  0  0  0
  137.8620   72.4790  222.2900 N   0  0  0  0  0  0  0  0  0  0  0  0
  139.1460   72.5700  222.7210 C   0  0  0  0  0  0  0  0  0  0  0  0
  139.7450   71.3690  223.1770 N   0  0  0  0  0  0  0  0  0  0  0  0
  139.4390   70.0640  222.6010 C   0  0  0  0  0  0  0  0  0  0  0  0
  138.6370   69.3140  223.6390 C   0  0  0  0  0  0  0  0  0  0  0  0
  139.4540   69.2790  224.8790 C   0  0  0  0  0  0  0  0  0  0  0  0
  139.1910   68.1940  225.7340 C   0  0  0  0  0  0  0  0  0  0  0  0
  139.9000   68.0810  226.9170 C   0  0  0  0  0  0  0  0  0  0  0  0
  140.8630   69.0420  227.2430 C   0  0  0  0  0  0  0  0  0  0  0  0
  141.1030   70.1120  226.3690 C   0  0  0  0  0  0  0  0  0  0  0  0
  140.4000   70.2290  225.1930 C   0  0  0  0  0  0  0  0  0  0  0  0
  140.6780   71.3940  224.2760 C   0  0  0  0  0  0  0  0  0  0  0  0
  139.7630   73.7620  222.6840 N   0  0  0  0  0  0  0  0  0  0  0  0
  139.1700   77.3610  222.6800 C   0  0  0  0  0  0  0  0  0  0  0  0
  142.8707   81.2603  223.0367 H   0  0  0  0  0  0  0  0  0  0  0  0
  140.9527   81.1539  224.5786 H   0  0  0  0  0  0  0  0  0  0  0  0
  139.2492   79.3855  224.4463 H   0  0  0  0  0  0  0  0  0  0  0  0
  143.0773   79.4795  221.2352 H   0  0  0  0  0  0  0  0  0  0  0  0
  140.6620   77.6376  220.0588 H   0  0  0  0  0  0  0  0  0  0  0  0
  142.3936   77.4604  220.4010 H   0  0  0  0  0  0  0  0  0  0  0  0
  141.1560   75.3423  220.7937 H   0  0  0  0  0  0  0  0  0  0  0  0
  141.8630   75.9975  222.3262 H   0  0  0  0  0  0  0  0  0  0  0  0
  135.6850   72.9150  220.5340 H   0  0  0  0  0  0  0  0  0  0  0  0
  134.7967   74.9558  222.3631 H   0  0  0  0  0  0  0  0  0  0  0  0
  133.7805   73.6933  221.6265 H   0  0  0  0  0  0  0  0  0  0  0  0
  134.7313   72.0369  223.3216 H   0  0  0  0  0  0  0  0  0  0  0  0
  132.7278   73.9971  223.5377 H   0  0  0  0  0  0  0  0  0  0  0  0
  133.0286   72.8726  224.8800 H   0  0  0  0  0  0  0  0  0  0  0  0
  133.4984   75.7412  224.7588 H   0  0  0  0  0  0  0  0  0  0  0  0
  133.6924   74.6833  226.1525 H   0  0  0  0  0  0  0  0  0  0  0  0
  135.7042   75.6104  224.1464 H   0  0  0  0  0  0  0  0  0  0  0  0
  135.9752   75.0635  225.8119 H   0  0  0  0  0  0  0  0  0  0  0  0
  136.7040   73.5120  223.8440 H   0  0  0  0  0  0  0  0  0  0  0  0
  138.8502   70.1840  221.6796 H   0  0  0  0  0  0  0  0  0  0  0  0
  140.3582   69.5196  222.3389 H   0  0  0  0  0  0  0  0  0  0  0  0
  137.6856   69.8327  223.8283 H   0  0  0  0  0  0  0  0  0  0  0  0
  138.4042   68.2958  223.2941 H   0  0  0  0  0  0  0  0  0  0  0  0
  138.4315   67.4448  225.4659 H   0  0  0  0  0  0  0  0  0  0  0  0
  139.7072   67.2391  227.5982 H   0  0  0  0  0  0  0  0  0  0  0  0
  141.4301   68.9585  228.1818 H   0  0  0  0  0  0  0  0  0  0  0  0
  141.8616   70.8657  226.6269 H   0  0  0  0  0  0  0  0  0  0  0  0
  140.5641   72.3355  224.8333 H   0  0  0  0  0  0  0  0  0  0  0  0
  141.7051   71.3212  223.8890 H   0  0  0  0  0  0  0  0  0  0  0  0
  138.3600   77.6812  222.0081 H   0  0  0  0  0  0  0  0  0  0  0  0
  138.7559   77.1718  223.6813 H   0  0  0  0  0  0  0  0  0  0  0  0
  1  2  2  0
  2  3  1  0
  3  4  2  0
  4  5  1  0
  5  6  2  0
  5  7  1  0
  7  8  1  0
  8  9  1  0
  9 10  1  0
 10 11  2  0
 11 12  1  0
 12 13  1  0
 13 14  1  0
 14 15  1  0
 15 16  1  0
 16 17  1  0
 17 18  1  0
 18 19  1  0
 12 20  2  0
 20 21  1  0
 21 22  1  0
 22 23  1  0
 23 24  1  0
 24 25  1  0
 25 26  2  0
 26 27  1  0
 27 28  2  0
 28 29  1  0
 29 30  2  0
 30 31  1  0
 21 32  2  0
  9 33  1  0
  6  1  1  0
 32 10  1  0
 33  4  1  0
 19 15  1  0
 31 22  1  0
 30 25  1  0
  1 34  1  0
  2 35  1  0
  3 36  1  0
  6 37  1  0
  7 38  1  0
  7 39  1  0
  8 40  1  0
  8 41  1  0
 13 42  1  0
 14 43  1  0
 14 44  1  0
 15 45  1  6
 16 46  1  0
 16 47  1  0
 17 48  1  0
 17 49  1  0
 18 50  1  0
 18 51  1  0
 19 52  1  0
 23 53  1  0
 23 54  1  0
 24 55  1  0
 24 56  1  0
 26 57  1  0
 27 58  1  0
 28 59  1  0
 29 60  1  0
 31 61  1  0
 31 62  1  0
 33 63  1  0
 33 64  1  0
M  END
>  <smiles>  (9) 
c1ccc2c(c1)CCN(c1nc(NC[C@@H]3CCCN3)nc(N3CCc4ccccc4C3)n1)C2

>  <score_type>  (9) 
oracle

>  <origin>  (9) 
autodockgpu

>  <m_score__min__energy>  (9) 
-9.8599999999999994

>  <m_primary>  (9) 
energy

>  <meeko>  (9) 
{"free_energy": -8.97, "intermolecular_energy": -10.47, "internal_energy": -1.94, "cluster_size": 5, "cluster_id": 2, "rank_in_cluster": 2}

>  <energy>  (9) 
-9.07

>  <cluster_rmsd>  (9) 
1.26

>  <rmsd>  (9) 
270.52

>  <cluster>  (9) 
1

$$$$

     RDKit          3D

 64 69  0  0  0  0  0  0  0  0999 V2000
  139.5810   69.8870  228.2860 C   0  0  0  0  0  0  0  0  0  0  0  0
  140.4090   70.9880  228.3170 C   0  0  0  0  0  0  0  0  0  0  0  0
  140.9000   71.6050  227.1890 C   0  0  0  0  0  0  0  0  0  0  0  0
  140.5480   71.0960  225.9530 C   0  0  0  0  0  0  0  0  0  0  0  0
  139.7260   70.0010  225.9380 C   0  0  0  0  0  0  0  0  0  0  0  0
  139.2250   69.3700  227.0350 C   0  0  0  0  0  0  0  0  0  0  0  0
  139.3500   69.4590  224.5940 C   0  0  0  0  0  0  0  0  0  0  0  0
  138.9940   70.6430  223.7440 C   0  0  0  0  0  0  0  0  0  0  0  0
  140.1140   71.5930  223.6520 N   0  0  0  0  0  0  0  0  0  0  0  0
  140.1820   72.3340  222.4390 C   0  0  0  0  0  0  0  0  0  0  0  0
  140.3130   71.6870  221.2560 N   0  0  0  0  0  0  0  0  0  0  0  0
  140.3710   72.3300  220.0730 C   0  0  0  0  0  0  0  0  0  0  0  0
  140.5440   71.6810  218.8290 N   0  0  0  0  0  0  0  0  0  0  0  0
  141.6140   70.7590  218.5210 C   0  0  0  0  0  0  0  0  0  0  0  0
  142.8010   71.5910  218.0220 C   0  0  2  0  0  0  0  0  0  0  0  0
  144.0220   70.7350  218.3140 C   0  0  0  0  0  0  0  0  0  0  0  0
  144.5170   71.1360  219.6670 C   0  0  0  0  0  0  0  0  0  0  0  0
  143.6230   72.2670  220.0720 C   0  0  0  0  0  0  0  0  0  0  0  0
  143.0140   72.7730  218.8390 N   0  0  0  0  0  0  0  0  0  0  0  0
  140.2910   73.6800  220.0780 N   0  0  0  0  0  0  0  0  0  0  0  0
  140.1600   74.3680  221.2410 C   0  0  0  0  0  0  0  0  0  0  0  0
  140.0770   75.7790  221.1320 N   0  0  0  0  0  0  0  0  0  0  0  0
  140.5840   76.5150  219.9790 C   0  0  0  0  0  0  0  0  0  0  0  0
  141.8140   77.2560  220.4480 C   0  0  0  0  0  0  0  0  0  0  0  0
  141.4030   78.0980  221.6020 C   0  0  0  0  0  0  0  0  0  0  0  0
  142.1850   79.2470  221.8080 C   0  0  0  0  0  0  0  0  0  0  0  0
  141.8800   80.0900  222.8630 C   0  0  0  0  0  0  0  0  0  0  0  0
  140.8030   79.7880  223.7030 C   0  0  0  0  0  0  0  0  0  0  0  0
  140.0410   78.6340  223.4700 C   0  0  0  0  0  0  0  0  0  0  0  0
  140.3410   77.7940  222.4240 C   0  0  0  0  0  0  0  0  0  0  0  0
  139.5050   76.5570  222.2030 C   0  0  0  0  0  0  0  0  0  0  0  0
  140.1070   73.6900  222.3980 N   0  0  0  0  0  0  0  0  0  0  0  0
  141.0750   71.7560  224.7270 C   0  0  0  0  0  0  0  0  0  0  0  0
  139.2114   69.4288  229.2152 H   0  0  0  0  0  0  0  0  0  0  0  0
  140.6934   71.3965  229.2979 H   0  0  0  0  0  0  0  0  0  0  0  0
  141.5575   72.4832  227.2692 H   0  0  0  0  0  0  0  0  0  0  0  0
  138.5689   68.4920  226.9424 H   0  0  0  0  0  0  0  0  0  0  0  0
  140.1980   68.9149  224.1524 H   0  0  0  0  0  0  0  0  0  0  0  0
  138.5083   68.7548  224.6693 H   0  0  0  0  0  0  0  0  0  0  0  0
  138.7368   70.2937  222.7331 H   0  0  0  0  0  0  0  0  0  0  0  0
  138.1398   71.1581  224.2076 H   0  0  0  0  0  0  0  0  0  0  0  0
  139.8450   71.8860  218.0890 H   0  0  0  0  0  0  0  0  0  0  0  0
  141.8997   70.1985  219.4233 H   0  0  0  0  0  0  0  0  0  0  0  0
  141.2967   70.0345  217.7566 H   0  0  0  0  0  0  0  0  0  0  0  0
  142.6302   71.8749  216.9731 H   0  0  0  0  0  0  0  0  0  0  0  0
  143.7472   69.6699  218.3116 H   0  0  0  0  0  0  0  0  0  0  0  0
  144.7993   70.8822  217.5497 H   0  0  0  0  0  0  0  0  0  0  0  0
  144.4316   70.2995  220.3762 H   0  0  0  0  0  0  0  0  0  0  0  0
  145.5784   71.4245  219.6560 H   0  0  0  0  0  0  0  0  0  0  0  0
  142.8447   71.9088  220.7619 H   0  0  0  0  0  0  0  0  0  0  0  0
  144.1870   73.0555  220.5917 H   0  0  0  0  0  0  0  0  0  0  0  0
  142.1300   73.2810  219.0010 H   0  0  0  0  0  0  0  0  0  0  0  0
  140.8462   75.8183  219.1691 H   0  0  0  0  0  0  0  0  0  0  0  0
  139.8268   77.2102  219.5874 H   0  0  0  0  0  0  0  0  0  0  0  0
  142.5894   76.5408  220.7598 H   0  0  0  0  0  0  0  0  0  0  0  0
  142.2301   77.8754  219.6398 H   0  0  0  0  0  0  0  0  0  0  0  0
  143.0287   79.4738  221.1396 H   0  0  0  0  0  0  0  0  0  0  0  0
  142.4821   80.9934  223.0400 H   0  0  0  0  0  0  0  0  0  0  0  0
  140.5547   80.4532  224.5432 H   0  0  0  0  0  0  0  0  0  0  0  0
  139.1942   78.3985  224.1313 H   0  0  0  0  0  0  0  0  0  0  0  0
  139.4872   75.9563  223.1243 H   0  0  0  0  0  0  0  0  0  0  0  0
  138.4782   76.8493  221.9378 H   0  0  0  0  0  0  0  0  0  0  0  0
  142.0307   71.2927  224.4406 H   0  0  0  0  0  0  0  0  0  0  0  0
  141.2366   72.8265  224.9217 H   0  0  0  0  0  0  0  0  0  0  0  0
  1  2  2  0
  2  3  1  0
  3  4  2  0
  4  5  1  0
  5  6  2  0
  5  7  1  0
  7  8  1  0
  8  9  1  0
  9 10  1  0
 10 11  2  0
 11 12  1  0
 12 13  1  0
 13 14  1  0
 14 15  1  0
 15 16  1  0
 16 17  1  0
 17 18  1  0
 18 19  1  0
 12 20  2  0
 20 21  1  0
 21 22  1  0
 22 23  1  0
 23 24  1  0
 24 25  1  0
 25 26  2  0
 26 27  1  0
 27 28  2  0
 28 29  1  0
 29 30  2  0
 30 31  1  0
 21 32  2  0
  9 33  1  0
  6  1  1  0
 32 10  1  0
 33  4  1  0
 19 15  1  0
 31 22  1  0
 30 25  1  0
  1 34  1  0
  2 35  1  0
  3 36  1  0
  6 37  1  0
  7 38  1  0
  7 39  1  0
  8 40  1  0
  8 41  1  0
 13 42  1  0
 14 43  1  0
 14 44  1  0
 15 45  1  6
 16 46  1  0
 16 47  1  0
 17 48  1  0
 17 49  1  0
 18 50  1  0
 18 51  1  0
 19 52  1  0
 23 53  1  0
 23 54  1  0
 24 55  1  0
 24 56  1  0
 26 57  1  0
 27 58  1  0
 28 59  1  0
 29 60  1  0
 31 61  1  0
 31 62  1  0
 33 63  1  0
 33 64  1  0
M  END
>  <smiles>  (10) 
c1ccc2c(c1)CCN(c1nc(NC[C@@H]3CCCN3)nc(N3CCc4ccccc4C3)n1)C2

>  <score_type>  (10) 
oracle

>  <origin>  (10) 
autodockgpu

>  <m_score__min__energy>  (10) 
-9.8599999999999994

>  <m_primary>  (10) 
energy

>  <meeko>  (10) 
{"free_energy": -8.13, "intermolecular_energy": -9.62, "internal_energy": -1.94, "cluster_size": 14, "cluster_id": 1, "rank_in_cluster": 14}

>  <energy>  (10) 
-9.06

>  <cluster_rmsd>  (10) 
1.26

>  <rmsd>  (10) 
270.62

>  <cluster>  (10) 
1

$$$$

     RDKit          3D

 64 69  0  0  0  0  0  0  0  0999 V2000
  142.1720   80.4410  222.9380 C   0  0  0  0  0  0  0  0  0  0  0  0
  141.0930   80.3720  223.7910 C   0  0  0  0  0  0  0  0  0  0  0  0
  140.1300   79.3910  223.7240 C   0  0  0  0  0  0  0  0  0  0  0  0
  140.2450   78.4190  222.7480 C   0  0  0  0  0  0  0  0  0  0  0  0
  141.3230   78.5010  221.9070 C   0  0  0  0  0  0  0  0  0  0  0  0
  142.2900   79.4580  221.9480 C   0  0  0  0  0  0  0  0  0  0  0  0
  141.4390   77.4430  220.8550 C   0  0  0  0  0  0  0  0  0  0  0  0
  141.1490   76.1370  221.5350 C   0  0  0  0  0  0  0  0  0  0  0  0
  139.8150   76.1400  222.1560 N   0  0  0  0  0  0  0  0  0  0  0  0
  139.1720   74.8720  222.2170 C   0  0  0  0  0  0  0  0  0  0  0  0
  137.8930   74.7390  221.7900 N   0  0  0  0  0  0  0  0  0  0  0  0
  137.2340   73.5630  221.8110 C   0  0  0  0  0  0  0  0  0  0  0  0
  135.8890   73.4060  221.4060 N   0  0  0  0  0  0  0  0  0  0  0  0
  134.7420   73.8830  222.1460 C   0  0  0  0  0  0  0  0  0  0  0  0
  134.7120   73.1230  223.4770 C   0  0  2  0  0  0  0  0  0  0  0  0
  133.4930   73.6650  224.2040 C   0  0  0  0  0  0  0  0  0  0  0  0
  133.9660   74.8040  225.0500 C   0  0  0  0  0  0  0  0  0  0  0  0
  135.4510   74.8250  224.8520 C   0  0  0  0  0  0  0  0  0  0  0  0
  135.8170   73.5020  224.3400 N   0  0  0  0  0  0  0  0  0  0  0  0
  137.8860   72.4760  222.2780 N   0  0  0  0  0  0  0  0  0  0  0  0
  139.1690   72.5650  222.7170 C   0  0  0  0  0  0  0  0  0  0  0  0
  139.7610   71.3630  223.1790 N   0  0  0  0  0  0  0  0  0  0  0  0
  139.4530   70.0570  222.6060 C   0  0  0  0  0  0  0  0  0  0  0  0
  138.6440   69.3130  223.6420 C   0  0  0  0  0  0  0  0  0  0  0  0
  139.4540   69.2790  224.8870 C   0  0  0  0  0  0  0  0  0  0  0  0
  139.1840   68.1980  225.7440 C   0  0  0  0  0  0  0  0  0  0  0  0
  139.8870   68.0860  226.9300 C   0  0  0  0  0  0  0  0  0  0  0  0
  140.8520   69.0450  227.2580 C   0  0  0  0  0  0  0  0  0  0  0  0
  141.0990   70.1110  226.3820 C   0  0  0  0  0  0  0  0  0  0  0  0
  140.4030   70.2260  225.2020 C   0  0  0  0  0  0  0  0  0  0  0  0
  140.6890   71.3880  224.2830 C   0  0  0  0  0  0  0  0  0  0  0  0
  139.7890   73.7540  222.6800 N   0  0  0  0  0  0  0  0  0  0  0  0
  139.2080   77.3550  222.6670 C   0  0  0  0  0  0  0  0  0  0  0  0
  142.9182   81.2438  223.0316 H   0  0  0  0  0  0  0  0  0  0  0  0
  140.9954   81.1436  224.5689 H   0  0  0  0  0  0  0  0  0  0  0  0
  139.2877   79.3807  224.4313 H   0  0  0  0  0  0  0  0  0  0  0  0
  143.1274   79.4591  221.2347 H   0  0  0  0  0  0  0  0  0  0  0  0
  140.7099   77.6238  220.0514 H   0  0  0  0  0  0  0  0  0  0  0  0
  142.4399   77.4418  220.3987 H   0  0  0  0  0  0  0  0  0  0  0  0
  141.1957   75.3280  220.7912 H   0  0  0  0  0  0  0  0  0  0  0  0
  141.8986   75.9841  222.3254 H   0  0  0  0  0  0  0  0  0  0  0  0
  135.7220   72.9120  220.5080 H   0  0  0  0  0  0  0  0  0  0  0  0
  134.8358   74.9633  222.3311 H   0  0  0  0  0  0  0  0  0  0  0  0
  133.8144   73.7141  221.5794 H   0  0  0  0  0  0  0  0  0  0  0  0
  134.7333   72.0413  223.2784 H   0  0  0  0  0  0  0  0  0  0  0  0
  132.7449   74.0172  223.4785 H   0  0  0  0  0  0  0  0  0  0  0  0
  133.0212   72.8850  224.8197 H   0  0  0  0  0  0  0  0  0  0  0  0
  133.5155   75.7502  224.7158 H   0  0  0  0  0  0  0  0  0  0  0  0
  133.6860   74.6851  226.1071 H   0  0  0  0  0  0  0  0  0  0  0  0
  135.7274   75.6040  224.1262 H   0  0  0  0  0  0  0  0  0  0  0  0
  135.9763   75.0489  225.7922 H   0  0  0  0  0  0  0  0  0  0  0  0
  136.7120   73.4990  223.8270 H   0  0  0  0  0  0  0  0  0  0  0  0
  138.8689   70.1760  221.6816 H   0  0  0  0  0  0  0  0  0  0  0  0
  140.3716   69.5086  222.3502 H   0  0  0  0  0  0  0  0  0  0  0  0
  137.6932   69.8351  223.8246 H   0  0  0  0  0  0  0  0  0  0  0  0
  138.4105   68.2943  223.2989 H   0  0  0  0  0  0  0  0  0  0  0  0
  138.4232   67.4505  225.4749 H   0  0  0  0  0  0  0  0  0  0  0  0
  139.6883   67.2466  227.6126 H   0  0  0  0  0  0  0  0  0  0  0  0
  141.4145   68.9625  228.1997 H   0  0  0  0  0  0  0  0  0  0  0  0
  141.8580   70.8637  226.6415 H   0  0  0  0  0  0  0  0  0  0  0  0
  140.5752   72.3313  224.8372 H   0  0  0  0  0  0  0  0  0  0  0  0
  141.7177   71.3110  223.9012 H   0  0  0  0  0  0  0  0  0  0  0  0
  138.4019   77.6767  221.9912 H   0  0  0  0  0  0  0  0  0  0  0  0
  138.7888   77.1684  223.6668 H   0  0  0  0  0  0  0  0  0  0  0  0
  1  2  2  0
  2  3  1  0
  3  4  2  0
  4  5  1  0
  5  6  2  0
  5  7  1  0
  7  8  1  0
  8  9  1  0
  9 10  1  0
 10 11  2  0
 11 12  1  0
 12 13  1  0
 13 14  1  0
 14 15  1  0
 15 16  1  0
 16 17  1  0
 17 18  1  0
 18 19  1  0
 12 20  2  0
 20 21  1  0
 21 22  1  0
 22 23  1  0
 23 24  1  0
 24 25  1  0
 25 26  2  0
 26 27  1  0
 27 28  2  0
 28 29  1  0
 29 30  2  0
 30 31  1  0
 21 32  2  0
  9 33  1  0
  6  1  1  0
 32 10  1  0
 33  4  1  0
 19 15  1  0
 31 22  1  0
 30 25  1  0
  1 34  1  0
  2 35  1  0
  3 36  1  0
  6 37  1  0
  7 38  1  0
  7 39  1  0
  8 40  1  0
  8 41  1  0
 13 42  1  0
 14 43  1  0
 14 44  1  0
 15 45  1  6
 16 46  1  0
 16 47  1  0
 17 48  1  0
 17 49  1  0
 18 50  1  0
 18 51  1  0
 19 52  1  0
 23 53  1  0
 23 54  1  0
 24 55  1  0
 24 56  1  0
 26 57  1  0
 27 58  1  0
 28 59  1  0
 29 60  1  0
 31 61  1  0
 31 62  1  0
 33 63  1  0
 33 64  1  0
M  END
>  <smiles>  (11) 
c1ccc2c(c1)CCN(c1nc(NC[C@@H]3CCCN3)nc(N3CCc4ccccc4C3)n1)C2

>  <score_type>  (11) 
oracle

>  <origin>  (11) 
autodockgpu

>  <m_score__min__energy>  (11) 
-9.8599999999999994

>  <m_primary>  (11) 
energy

>  <meeko>  (11) 
{"free_energy": -8.98, "intermolecular_energy": -10.47, "internal_energy": -1.93, "cluster_size": 5, "cluster_id": 2, "rank_in_cluster": 1}

>  <energy>  (11) 
-9.06

>  <cluster_rmsd>  (11) 
1.36

>  <rmsd>  (11) 
270.62

>  <cluster>  (11) 
1

$$$$

     RDKit          3D

 64 69  0  0  0  0  0  0  0  0999 V2000
  138.7900   69.2560  226.5510 C   0  0  0  0  0  0  0  0  0  0  0  0
  140.0190   69.8020  226.8520 C   0  0  0  0  0  0  0  0  0  0  0  0
  140.7700   70.5300  225.9580 C   0  0  0  0  0  0  0  0  0  0  0  0
  140.2700   70.7270  224.6840 C   0  0  0  0  0  0  0  0  0  0  0  0
  139.0490   70.1770  224.3990 C   0  0  0  0  0  0  0  0  0  0  0  0
  138.2840   69.4530  225.2610 C   0  0  0  0  0  0  0  0  0  0  0  0
  138.5170   70.3970  223.0170 C   0  0  0  0  0  0  0  0  0  0  0  0
  138.7520   71.8440  222.6980 C   0  0  0  0  0  0  0  0  0  0  0  0
  140.1790   72.1890  222.7910 N   0  0  0  0  0  0  0  0  0  0  0  0
  140.6090   73.2300  221.9200 C   0  0  0  0  0  0  0  0  0  0  0  0
  141.3640   72.9360  220.8350 N   0  0  0  0  0  0  0  0  0  0  0  0
  141.7920   73.8740  219.9660 C   0  0  0  0  0  0  0  0  0  0  0  0
  142.6090   73.5990  218.8470 N   0  0  0  0  0  0  0  0  0  0  0  0
  143.9670   74.0690  218.6800 C   0  0  0  0  0  0  0  0  0  0  0  0
  144.8930   72.8640  218.8800 C   0  0  2  0  0  0  0  0  0  0  0  0
  144.4910   72.2890  220.2280 C   0  0  0  0  0  0  0  0  0  0  0  0
  145.3710   72.9330  221.2520 C   0  0  0  0  0  0  0  0  0  0  0  0
  146.3080   73.7880  220.4560 C   0  0  0  0  0  0  0  0  0  0  0  0
  146.2730   73.2720  219.0850 N   0  0  0  0  0  0  0  0  0  0  0  0
  141.4450   75.1600  220.1960 N   0  0  0  0  0  0  0  0  0  0  0  0
  140.6900   75.4990  221.2740 C   0  0  0  0  0  0  0  0  0  0  0  0
  140.3780   76.8730  221.4170 N   0  0  0  0  0  0  0  0  0  0  0  0
  140.1230   77.7500  220.2790 C   0  0  0  0  0  0  0  0  0  0  0  0
  141.3090   78.6800  220.1790 C   0  0  0  0  0  0  0  0  0  0  0  0
  141.4360   79.3690  221.4890 C   0  0  0  0  0  0  0  0  0  0  0  0
  142.0540   80.6310  221.4400 C   0  0  0  0  0  0  0  0  0  0  0  0
  142.2200   81.3460  222.6130 C   0  0  0  0  0  0  0  0  0  0  0  0
  141.7730   80.8060  223.8240 C   0  0  0  0  0  0  0  0  0  0  0  0
  141.1600   79.5460  223.8390 C   0  0  0  0  0  0  0  0  0  0  0  0
  140.9920   78.8310  222.6760 C   0  0  0  0  0  0  0  0  0  0  0  0
  140.3340   77.4750  222.7270 C   0  0  0  0  0  0  0  0  0  0  0  0
  140.2850   74.5340  222.1150 N   0  0  0  0  0  0  0  0  0  0  0  0
  141.0760   71.5120  223.7090 C   0  0  0  0  0  0  0  0  0  0  0  0
  138.2245   68.6834  227.3009 H   0  0  0  0  0  0  0  0  0  0  0  0
  140.4222   69.6472  227.8637 H   0  0  0  0  0  0  0  0  0  0  0  0
  141.7457   70.9457  226.2501 H   0  0  0  0  0  0  0  0  0  0  0  0
  137.3105   69.0407  224.9571 H   0  0  0  0  0  0  0  0  0  0  0  0
  139.0499   69.7575  222.2979 H   0  0  0  0  0  0  0  0  0  0  0  0
  137.4483   70.1437  222.9561 H   0  0  0  0  0  0  0  0  0  0  0  0
  138.4006   72.0468  221.6755 H   0  0  0  0  0  0  0  0  0  0  0  0
  138.2000   72.4537  223.4284 H   0  0  0  0  0  0  0  0  0  0  0  0
  142.1980   73.0130  218.0950 H   0  0  0  0  0  0  0  0  0  0  0  0
  144.1007   74.4831  217.6697 H   0  0  0  0  0  0  0  0  0  0  0  0
  144.1971   74.8624  219.4064 H   0  0  0  0  0  0  0  0  0  0  0  0
  144.8147   72.1962  218.0094 H   0  0  0  0  0  0  0  0  0  0  0  0
  143.4357   72.5177  220.4378 H   0  0  0  0  0  0  0  0  0  0  0  0
  144.6056   71.1951  220.2407 H   0  0  0  0  0  0  0  0  0  0  0  0
  144.7768   73.5475  221.9443 H   0  0  0  0  0  0  0  0  0  0  0  0
  145.9018   72.1950  221.8714 H   0  0  0  0  0  0  0  0  0  0  0  0
  145.9769   74.8368  220.4766 H   0  0  0  0  0  0  0  0  0  0  0  0
  147.3270   73.7555  220.8691 H   0  0  0  0  0  0  0  0  0  0  0  0
  146.5660   73.9670  218.3810 H   0  0  0  0  0  0  0  0  0  0  0  0
  140.0260   77.1577  219.3572 H   0  0  0  0  0  0  0  0  0  0  0  0
  139.1871   78.3124  220.4125 H   0  0  0  0  0  0  0  0  0  0  0  0
  142.2221   78.1052  219.9650 H   0  0  0  0  0  0  0  0  0  0  0  0
  141.1683   79.4076  219.3661 H   0  0  0  0  0  0  0  0  0  0  0  0
  142.4010   81.0446  220.4816 H   0  0  0  0  0  0  0  0  0  0  0  0
  142.7014   82.3349  222.5936 H   0  0  0  0  0  0  0  0  0  0  0  0
  141.9023   81.3684  224.7605 H   0  0  0  0  0  0  0  0  0  0  0  0
  140.8090   79.1237  224.7921 H   0  0  0  0  0  0  0  0  0  0  0  0
  140.8684   76.8342  223.4438 H   0  0  0  0  0  0  0  0  0  0  0  0
  139.2872   77.5857  223.0462 H   0  0  0  0  0  0  0  0  0  0  0  0
  141.7367   70.8353  223.1473 H   0  0  0  0  0  0  0  0  0  0  0  0
  141.6884   72.2526  224.2442 H   0  0  0  0  0  0  0  0  0  0  0  0
  1  2  2  0
  2  3  1  0
  3  4  2  0
  4  5  1  0
  5  6  2  0
  5  7  1  0
  7  8  1  0
  8  9  1  0
  9 10  1  0
 10 11  2  0
 11 12  1  0
 12 13  1  0
 13 14  1  0
 14 15  1  0
 15 16  1  0
 16 17  1  0
 17 18  1  0
 18 19  1  0
 12 20  2  0
 20 21  1  0
 21 22  1  0
 22 23  1  0
 23 24  1  0
 24 25  1  0
 25 26  2  0
 26 27  1  0
 27 28  2  0
 28 29  1  0
 29 30  2  0
 30 31  1  0
 21 32  2  0
  9 33  1  0
  6  1  1  0
 32 10  1  0
 33  4  1  0
 19 15  1  0
 31 22  1  0
 30 25  1  0
  1 34  1  0
  2 35  1  0
  3 36  1  0
  6 37  1  0
  7 38  1  0
  7 39  1  0
  8 40  1  0
  8 41  1  0
 13 42  1  0
 14 43  1  0
 14 44  1  0
 15 45  1  6
 16 46  1  0
 16 47  1  0
 17 48  1  0
 17 49  1  0
 18 50  1  0
 18 51  1  0
 19 52  1  0
 23 53  1  0
 23 54  1  0
 24 55  1  0
 24 56  1  0
 26 57  1  0
 27 58  1  0
 28 59  1  0
 29 60  1  0
 31 61  1  0
 31 62  1  0
 33 63  1  0
 33 64  1  0
M  END
>  <smiles>  (12) 
c1ccc2c(c1)CCN(c1nc(NC[C@@H]3CCCN3)nc(N3CCc4ccccc4C3)n1)C2

>  <score_type>  (12) 
oracle

>  <origin>  (12) 
autodockgpu

>  <m_score__min__energy>  (12) 
-9.8599999999999994

>  <m_primary>  (12) 
energy

>  <meeko>  (12) 
{"free_energy": -9.85, "intermolecular_energy": -11.34, "internal_energy": -1.15, "cluster_size": 14, "cluster_id": 1, "rank_in_cluster": 3}

>  <energy>  (12) 
-9.03

>  <cluster_rmsd>  (12) 
1.39

>  <rmsd>  (12) 
270.7

>  <cluster>  (12) 
1

$$$$

     RDKit          3D

 64 69  0  0  0  0  0  0  0  0999 V2000
  138.8320   69.2870  227.2350 C   0  0  0  0  0  0  0  0  0  0  0  0
  140.0080   69.9500  227.5070 C   0  0  0  0  0  0  0  0  0  0  0  0
  140.7450   70.6180  226.5550 C   0  0  0  0  0  0  0  0  0  0  0  0
  140.2850   70.6250  225.2510 C   0  0  0  0  0  0  0  0  0  0  0  0
  139.1160   69.9600  224.9960 C   0  0  0  0  0  0  0  0  0  0  0  0
  138.3660   69.2920  225.9140 C   0  0  0  0  0  0  0  0  0  0  0  0
  138.6270   69.9750  223.5810 C   0  0  0  0  0  0  0  0  0  0  0  0
  138.7780   71.3870  223.0960 C   0  0  0  0  0  0  0  0  0  0  0  0
  140.1750   71.8410  223.1920 N   0  0  0  0  0  0  0  0  0  0  0  0
  140.5700   72.7980  222.2160 C   0  0  0  0  0  0  0  0  0  0  0  0
  141.2510   72.4010  221.1150 N   0  0  0  0  0  0  0  0  0  0  0  0
  141.6420   73.2560  220.1480 C   0  0  0  0  0  0  0  0  0  0  0  0
  142.3840   72.8730  219.0090 N   0  0  0  0  0  0  0  0  0  0  0  0
  143.5890   73.5270  218.5500 C   0  0  0  0  0  0  0  0  0  0  0  0
  144.7530   72.5590  218.7930 C   0  0  2  0  0  0  0  0  0  0  0  0
  144.4520   71.9260  220.1420 C   0  0  0  0  0  0  0  0  0  0  0  0
  145.1420   72.7610  221.1730 C   0  0  0  0  0  0  0  0  0  0  0  0
  145.8880   73.7910  220.3830 C   0  0  0  0  0  0  0  0  0  0  0  0
  146.0030   73.2630  219.0210 N   0  0  0  0  0  0  0  0  0  0  0  0
  141.3330   74.5640  220.2940 N   0  0  0  0  0  0  0  0  0  0  0  0
  140.6520   75.0050  221.3830 C   0  0  0  0  0  0  0  0  0  0  0  0
  140.3750   76.3940  221.4320 N   0  0  0  0  0  0  0  0  0  0  0  0
  140.3020   77.2300  220.2380 C   0  0  0  0  0  0  0  0  0  0  0  0
  141.5250   78.1170  220.2610 C   0  0  0  0  0  0  0  0  0  0  0  0
  141.5060   78.8560  221.5490 C   0  0  0  0  0  0  0  0  0  0  0  0
  142.1710   80.0950  221.5350 C   0  0  0  0  0  0  0  0  0  0  0  0
  142.2090   80.8530  222.6920 C   0  0  0  0  0  0  0  0  0  0  0  0
  141.5880   80.3780  223.8530 C   0  0  0  0  0  0  0  0  0  0  0  0
  140.9320   79.1400  223.8340 C   0  0  0  0  0  0  0  0  0  0  0  0
  140.8920   78.3830  222.6870 C   0  0  0  0  0  0  0  0  0  0  0  0
  140.1820   77.0510  222.7010 C   0  0  0  0  0  0  0  0  0  0  0  0
  140.2820   74.1210  222.3220 N   0  0  0  0  0  0  0  0  0  0  0  0
  141.0760   71.3430  224.2140 C   0  0  0  0  0  0  0  0  0  0  0  0
  138.2758   68.7695  228.0305 H   0  0  0  0  0  0  0  0  0  0  0  0
  140.3792   69.9456  228.5425 H   0  0  0  0  0  0  0  0  0  0  0  0
  141.6780   71.1341  226.8254 H   0  0  0  0  0  0  0  0  0  0  0  0
  137.4351   68.7787  225.6313 H   0  0  0  0  0  0  0  0  0  0  0  0
  139.2301   69.2938  222.9627 H   0  0  0  0  0  0  0  0  0  0  0  0
  137.5810   69.6408  223.5168 H   0  0  0  0  0  0  0  0  0  0  0  0
  138.4554   71.4412  222.0458 H   0  0  0  0  0  0  0  0  0  0  0  0
  138.1577   72.0388  223.7288 H   0  0  0  0  0  0  0  0  0  0  0  0
  142.0320   72.0590  218.4680 H   0  0  0  0  0  0  0  0  0  0  0  0
  143.5077   73.7564  217.4773 H   0  0  0  0  0  0  0  0  0  0  0  0
  143.7491   74.4723  219.0893 H   0  0  0  0  0  0  0  0  0  0  0  0
  144.8468   71.8797  217.9329 H   0  0  0  0  0  0  0  0  0  0  0  0
  143.3671   71.9193  220.3238 H   0  0  0  0  0  0  0  0  0  0  0  0
  144.8035   70.8843  220.1771 H   0  0  0  0  0  0  0  0  0  0  0  0
  144.4096   73.2383  221.8406 H   0  0  0  0  0  0  0  0  0  0  0  0
  145.8061   72.1660  221.8172 H   0  0  0  0  0  0  0  0  0  0  0  0
  145.3339   74.7412  220.3773 H   0  0  0  0  0  0  0  0  0  0  0  0
  146.8782   73.9888  220.8194 H   0  0  0  0  0  0  0  0  0  0  0  0
  146.1540   73.9970  218.3120 H   0  0  0  0  0  0  0  0  0  0  0  0
  140.3041   76.6030  219.3342 H   0  0  0  0  0  0  0  0  0  0  0  0
  139.3778   77.8264  220.2254 H   0  0  0  0  0  0  0  0  0  0  0  0
  142.4362   77.5048  220.1909 H   0  0  0  0  0  0  0  0  0  0  0  0
  141.5184   78.8141  219.4102 H   0  0  0  0  0  0  0  0  0  0  0  0
  142.6549   80.4570  220.6159 H   0  0  0  0  0  0  0  0  0  0  0  0
  142.7249   81.8245  222.6993 H   0  0  0  0  0  0  0  0  0  0  0  0
  141.6148   80.9744  224.7769 H   0  0  0  0  0  0  0  0  0  0  0  0
  140.4434   78.7695  224.7473 H   0  0  0  0  0  0  0  0  0  0  0  0
  140.5934   76.4239  223.5056 H   0  0  0  0  0  0  0  0  0  0  0  0
  139.1072   77.2085  222.8744 H   0  0  0  0  0  0  0  0  0  0  0  0
  141.8021   70.6523  223.7605 H   0  0  0  0  0  0  0  0  0  0  0  0
  141.6156   72.1836  224.6747 H   0  0  0  0  0  0  0  0  0  0  0  0
  1  2  2  0
  2  3  1  0
  3  4  2  0
  4  5  1  0
  5  6  2  0
  5  7  1  0
  7  8  1  0
  8  9  1  0
  9 10  1  0
 10 11  2  0
 11 12  1  0
 12 13  1  0
 13 14  1  0
 14 15  1  0
 15 16  1  0
 16 17  1  0
 17 18  1  0
 18 19  1  0
 12 20  2  0
 20 21  1  0
 21 22  1  0
 22 23  1  0
 23 24  1  0
 24 25  1  0
 25 26  2  0
 26 27  1  0
 27 28  2  0
 28 29  1  0
 29 30  2  0
 30 31  1  0
 21 32  2  0
  9 33  1  0
  6  1  1  0
 32 10  1  0
 33  4  1  0
 19 15  1  0
 31 22  1  0
 30 25  1  0
  1 34  1  0
  2 35  1  0
  3 36  1  0
  6 37  1  0
  7 38  1  0
  7 39  1  0
  8 40  1  0
  8 41  1  0
 13 42  1  0
 14 43  1  0
 14 44  1  0
 15 45  1  6
 16 46  1  0
 16 47  1  0
 17 48  1  0
 17 49  1  0
 18 50  1  0
 18 51  1  0
 19 52  1  0
 23 53  1  0
 23 54  1  0
 24 55  1  0
 24 56  1  0
 26 57  1  0
 27 58  1  0
 28 59  1  0
 29 60  1  0
 31 61  1  0
 31 62  1  0
 33 63  1  0
 33 64  1  0
M  END
>  <smiles>  (13) 
c1ccc2c(c1)CCN(c1nc(NC[C@@H]3CCCN3)nc(N3CCc4ccccc4C3)n1)C2

>  <score_type>  (13) 
oracle

>  <origin>  (13) 
autodockgpu

>  <m_score__min__energy>  (13) 
-9.8599999999999994

>  <m_primary>  (13) 
energy

>  <meeko>  (13) 
{"free_energy": -9.84, "intermolecular_energy": -11.33, "internal_energy": -1.18, "cluster_size": 14, "cluster_id": 1, "rank_in_cluster": 4}

>  <energy>  (13) 
-9.02

>  <cluster_rmsd>  (13) 
1.4

>  <rmsd>  (13) 
270.61

>  <cluster>  (13) 
1

$$$$

     RDKit          3D

 64 69  0  0  0  0  0  0  0  0999 V2000
  139.8210   68.0630  227.7160 C   0  0  0  0  0  0  0  0  0  0  0  0
  139.4110   67.4730  226.5400 C   0  0  0  0  0  0  0  0  0  0  0  0
  139.2700   68.1570  225.3540 C   0  0  0  0  0  0  0  0  0  0  0  0
  139.5510   69.5100  225.3340 C   0  0  0  0  0  0  0  0  0  0  0  0
  139.9560   70.0820  226.5100 C   0  0  0  0  0  0  0  0  0  0  0  0
  140.1040   69.4340  227.6980 C   0  0  0  0  0  0  0  0  0  0  0  0
  140.2580   71.5470  226.4780 C   0  0  0  0  0  0  0  0  0  0  0  0
  141.0730   71.7840  225.2400 C   0  0  0  0  0  0  0  0  0  0  0  0
  140.3510   71.3530  224.0320 N   0  0  0  0  0  0  0  0  0  0  0  0
  140.6550   72.0840  222.8500 C   0  0  0  0  0  0  0  0  0  0  0  0
  141.3040   71.4780  221.8270 N   0  0  0  0  0  0  0  0  0  0  0  0
  141.6100   72.1130  220.6780 C   0  0  0  0  0  0  0  0  0  0  0  0
  142.3170   71.5150  219.6110 N   0  0  0  0  0  0  0  0  0  0  0  0
  143.7240   71.7120  219.3390 C   0  0  0  0  0  0  0  0  0  0  0  0
  143.9880   73.2210  219.3800 C   0  0  2  0  0  0  0  0  0  0  0  0
  145.4140   73.3770  218.8780 C   0  0  0  0  0  0  0  0  0  0  0  0
  146.3010   73.3520  220.0820 C   0  0  0  0  0  0  0  0  0  0  0  0
  145.3550   73.2730  221.2410 C   0  0  0  0  0  0  0  0  0  0  0  0
  144.0530   73.7220  220.7420 N   0  0  0  0  0  0  0  0  0  0  0  0
  141.2470   73.4090  220.5500 N   0  0  0  0  0  0  0  0  0  0  0  0
  140.5960   74.0550  221.5520 C   0  0  0  0  0  0  0  0  0  0  0  0
  140.2550   75.4100  221.3120 N   0  0  0  0  0  0  0  0  0  0  0  0
  140.3060   76.0150  219.9860 C   0  0  0  0  0  0  0  0  0  0  0  0
  141.4760   76.9710  219.9940 C   0  0  0  0  0  0  0  0  0  0  0  0
  141.2560   77.9220  221.1130 C   0  0  0  0  0  0  0  0  0  0  0  0
  141.8640   79.1800  220.9540 C   0  0  0  0  0  0  0  0  0  0  0  0
  141.7170   80.1310  221.9480 C   0  0  0  0  0  0  0  0  0  0  0  0
  140.9690   79.8290  223.0910 C   0  0  0  0  0  0  0  0  0  0  0  0
  140.3740   78.5660  223.2210 C   0  0  0  0  0  0  0  0  0  0  0  0
  140.5180   77.6180  222.2350 C   0  0  0  0  0  0  0  0  0  0  0  0
  139.8700   76.2660  222.4060 C   0  0  0  0  0  0  0  0  0  0  0  0
  140.3110   73.3870  222.6810 N   0  0  0  0  0  0  0  0  0  0  0  0
  139.3990   70.2570  224.0560 C   0  0  0  0  0  0  0  0  0  0  0  0
  139.9227   67.4750  228.6401 H   0  0  0  0  0  0  0  0  0  0  0  0
  139.1840   66.3967  226.5497 H   0  0  0  0  0  0  0  0  0  0  0  0
  138.9408   67.6380  224.4417 H   0  0  0  0  0  0  0  0  0  0  0  0
  140.4317   69.9644  228.6042 H   0  0  0  0  0  0  0  0  0  0  0  0
  139.3244   72.1272  226.4359 H   0  0  0  0  0  0  0  0  0  0  0  0
  140.8023   71.8621  227.3805 H   0  0  0  0  0  0  0  0  0  0  0  0
  141.2972   72.8579  225.1591 H   0  0  0  0  0  0  0  0  0  0  0  0
  142.0000   71.1969  225.3177 H   0  0  0  0  0  0  0  0  0  0  0  0
  141.7790   70.8890  218.9810 H   0  0  0  0  0  0  0  0  0  0  0  0
  144.3301   71.2027  220.1027 H   0  0  0  0  0  0  0  0  0  0  0  0
  143.9933   71.2956  218.3571 H   0  0  0  0  0  0  0  0  0  0  0  0
  143.2006   73.7427  218.8162 H   0  0  0  0  0  0  0  0  0  0  0  0
  145.6702   72.5482  218.2016 H   0  0  0  0  0  0  0  0  0  0  0  0
  145.5349   74.3161  218.3181 H   0  0  0  0  0  0  0  0  0  0  0  0
  146.9630   72.4738  220.0595 H   0  0  0  0  0  0  0  0  0  0  0  0
  146.9581   74.2325  220.1367 H   0  0  0  0  0  0  0  0  0  0  0  0
  145.2862   72.2377  221.6063 H   0  0  0  0  0  0  0  0  0  0  0  0
  145.6980   73.8969  222.0795 H   0  0  0  0  0  0  0  0  0  0  0  0
  143.2600   73.3770  221.3060 H   0  0  0  0  0  0  0  0  0  0  0  0
  140.4545   75.2395  219.2201 H   0  0  0  0  0  0  0  0  0  0  0  0
  139.3671   76.5381  219.7516 H   0  0  0  0  0  0  0  0  0  0  0  0
  142.4141   76.4177  220.1481 H   0  0  0  0  0  0  0  0  0  0  0  0
  141.5512   77.5054  219.0355 H   0  0  0  0  0  0  0  0  0  0  0  0
  142.4493   79.4052  220.0503 H   0  0  0  0  0  0  0  0  0  0  0  0
  142.1861   81.1201  221.8401 H   0  0  0  0  0  0  0  0  0  0  0  0
  140.8480   80.5802  223.8854 H   0  0  0  0  0  0  0  0  0  0  0  0
  139.7861   78.3310  224.1206 H   0  0  0  0  0  0  0  0  0  0  0  0
  140.1988   75.8186  223.3556 H   0  0  0  0  0  0  0  0  0  0  0  0
  138.7761   76.3809  222.4159 H   0  0  0  0  0  0  0  0  0  0  0  0
  138.3764   70.6553  223.9812 H   0  0  0  0  0  0  0  0  0  0  0  0
  139.5874   69.5830  223.2073 H   0  0  0  0  0  0  0  0  0  0  0  0
  1  2  2  0
  2  3  1  0
  3  4  2  0
  4  5  1  0
  5  6  2  0
  5  7  1  0
  7  8  1  0
  8  9  1  0
  9 10  1  0
 10 11  2  0
 11 12  1  0
 12 13  1  0
 13 14  1  0
 14 15  1  0
 15 16  1  0
 16 17  1  0
 17 18  1  0
 18 19  1  0
 12 20  2  0
 20 21  1  0
 21 22  1  0
 22 23  1  0
 23 24  1  0
 24 25  1  0
 25 26  2  0
 26 27  1  0
 27 28  2  0
 28 29  1  0
 29 30  2  0
 30 31  1  0
 21 32  2  0
  9 33  1  0
  6  1  1  0
 32 10  1  0
 33  4  1  0
 19 15  1  0
 31 22  1  0
 30 25  1  0
  1 34  1  0
  2 35  1  0
  3 36  1  0
  6 37  1  0
  7 38  1  0
  7 39  1  0
  8 40  1  0
  8 41  1  0
 13 42  1  0
 14 43  1  0
 14 44  1  0
 15 45  1  6
 16 46  1  0
 16 47  1  0
 17 48  1  0
 17 49  1  0
 18 50  1  0
 18 51  1  0
 19 52  1  0
 23 53  1  0
 23 54  1  0
 24 55  1  0
 24 56  1  0
 26 57  1  0
 27 58  1  0
 28 59  1  0
 29 60  1  0
 31 61  1  0
 31 62  1  0
 33 63  1  0
 33 64  1  0
M  END
>  <smiles>  (14) 
c1ccc2c(c1)CCN(c1nc(NC[C@@H]3CCCN3)nc(N3CCc4ccccc4C3)n1)C2

>  <score_type>  (14) 
oracle

>  <origin>  (14) 
autodockgpu

>  <m_score__min__energy>  (14) 
-9.8599999999999994

>  <m_primary>  (14) 
energy

>  <meeko>  (14) 
{"free_energy": -9.06, "intermolecular_energy": -10.55, "internal_energy": -1.97, "cluster_size": 14, "cluster_id": 1, "rank_in_cluster": 11}

>  <energy>  (14) 
-8.13

>  <cluster_rmsd>  (14) 
1.39

>  <rmsd>  (14) 
270.18

>  <cluster>  (14) 
1

$$$$

     RDKit          3D

 64 69  0  0  0  0  0  0  0  0999 V2000
  142.2230   80.4440  222.9210 C   0  0  0  0  0  0  0  0  0  0  0  0
  141.1550   80.3870  223.7900 C   0  0  0  0  0  0  0  0  0  0  0  0
  140.1860   79.4110  223.7420 C   0  0  0  0  0  0  0  0  0  0  0  0
  140.2810   78.4330  222.7700 C   0  0  0  0  0  0  0  0  0  0  0  0
  141.3470   78.5040  221.9140 C   0  0  0  0  0  0  0  0  0  0  0  0
  142.3200   79.4550  221.9350 C   0  0  0  0  0  0  0  0  0  0  0  0
  141.4420   77.4390  220.8660 C   0  0  0  0  0  0  0  0  0  0  0  0
  141.1530   76.1380  221.5570 C   0  0  0  0  0  0  0  0  0  0  0  0
  139.8290   76.1530  222.1970 N   0  0  0  0  0  0  0  0  0  0  0  0
  139.1790   74.8890  222.2750 C   0  0  0  0  0  0  0  0  0  0  0  0
  137.8700   74.7790  221.9440 N   0  0  0  0  0  0  0  0  0  0  0  0
  137.2020   73.6080  221.9850 C   0  0  0  0  0  0  0  0  0  0  0  0
  135.8290   73.4730  221.6800 N   0  0  0  0  0  0  0  0  0  0  0  0
  134.8800   72.7110  222.4620 C   0  0  0  0  0  0  0  0  0  0  0  0
  135.3900   72.6960  223.9070 C   0  0  2  0  0  0  0  0  0  0  0  0
  134.1540   72.4310  224.7500 C   0  0  0  0  0  0  0  0  0  0  0  0
  133.5960   73.7660  225.1300 C   0  0  0  0  0  0  0  0  0  0  0  0
  134.5740   74.7530  224.5710 C   0  0  0  0  0  0  0  0  0  0  0  0
  135.8190   74.0150  224.3420 N   0  0  0  0  0  0  0  0  0  0  0  0
  137.8780   72.5030  222.3720 N   0  0  0  0  0  0  0  0  0  0  0  0
  139.1900   72.5700  222.7140 C   0  0  0  0  0  0  0  0  0  0  0  0
  139.8040   71.3510  223.0980 N   0  0  0  0  0  0  0  0  0  0  0  0
  139.5150   70.0790  222.4450 C   0  0  0  0  0  0  0  0  0  0  0  0
  138.7220   69.2580  223.4350 C   0  0  0  0  0  0  0  0  0  0  0  0
  139.5370   69.1600  224.6730 C   0  0  0  0  0  0  0  0  0  0  0  0
  139.2880   68.0230  225.4610 C   0  0  0  0  0  0  0  0  0  0  0  0
  139.9970   67.8490  226.6360 C   0  0  0  0  0  0  0  0  0  0  0  0
  140.9480   68.8010  227.0210 C   0  0  0  0  0  0  0  0  0  0  0  0
  141.1750   69.9230  226.2130 C   0  0  0  0  0  0  0  0  0  0  0  0
  140.4720   70.1010  225.0440 C   0  0  0  0  0  0  0  0  0  0  0  0
  140.7350   71.3230  224.1990 C   0  0  0  0  0  0  0  0  0  0  0  0
  139.8190   73.7550  222.6600 N   0  0  0  0  0  0  0  0  0  0  0  0
  139.2360   77.3740  222.7110 C   0  0  0  0  0  0  0  0  0  0  0  0
  142.9760   81.2420  222.9997 H   0  0  0  0  0  0  0  0  0  0  0  0
  141.0725   81.1640  224.5642 H   0  0  0  0  0  0  0  0  0  0  0  0
  139.3540   79.4093  224.4615 H   0  0  0  0  0  0  0  0  0  0  0  0
  143.1465   79.4470  221.2091 H   0  0  0  0  0  0  0  0  0  0  0  0
  140.7032   77.6201  220.0714 H   0  0  0  0  0  0  0  0  0  0  0  0
  142.4367   77.4290  220.3964 H   0  0  0  0  0  0  0  0  0  0  0  0
  141.1835   75.3250  220.8167 H   0  0  0  0  0  0  0  0  0  0  0  0
  141.9130   75.9841  222.3372 H   0  0  0  0  0  0  0  0  0  0  0  0
  135.4840   73.9620  220.8310 H   0  0  0  0  0  0  0  0  0  0  0  0
  133.8884   73.1851  222.4175 H   0  0  0  0  0  0  0  0  0  0  0  0
  134.7856   71.6871  222.0712 H   0  0  0  0  0  0  0  0  0  0  0  0
  136.2162   71.9750  223.9933 H   0  0  0  0  0  0  0  0  0  0  0  0
  133.4134   71.8627  224.1682 H   0  0  0  0  0  0  0  0  0  0  0  0
  134.4044   71.8391  225.6427 H   0  0  0  0  0  0  0  0  0  0  0  0
  132.5999   73.9117  224.6867 H   0  0  0  0  0  0  0  0  0  0  0  0
  133.4689   73.8725  226.2174 H   0  0  0  0  0  0  0  0  0  0  0  0
  134.1975   75.1676  223.6242 H   0  0  0  0  0  0  0  0  0  0  0  0
  134.7301   75.5953  225.2611 H   0  0  0  0  0  0  0  0  0  0  0  0
  136.4320   74.4600  223.6410 H   0  0  0  0  0  0  0  0  0  0  0  0
  138.9253   70.2463  221.5316 H   0  0  0  0  0  0  0  0  0  0  0  0
  140.4413   69.5629  222.1524 H   0  0  0  0  0  0  0  0  0  0  0  0
  137.7634   69.7517  223.6524 H   0  0  0  0  0  0  0  0  0  0  0  0
  138.5041   68.2589  223.0295 H   0  0  0  0  0  0  0  0  0  0  0  0
  138.5389   67.2811  225.1473 H   0  0  0  0  0  0  0  0  0  0  0  0
  139.8140   66.9657  227.2655 H   0  0  0  0  0  0  0  0  0  0  0  0
  141.5150   68.6689  227.9543 H   0  0  0  0  0  0  0  0  0  0  0  0
  141.9235   70.6696  226.5167 H   0  0  0  0  0  0  0  0  0  0  0  0
  140.6069   72.2277  224.8115 H   0  0  0  0  0  0  0  0  0  0  0  0
  141.7636   71.2879  223.8108 H   0  0  0  0  0  0  0  0  0  0  0  0
  138.4212   77.6966  222.0461 H   0  0  0  0  0  0  0  0  0  0  0  0
  138.8309   77.1951  223.7179 H   0  0  0  0  0  0  0  0  0  0  0  0
  1  2  2  0
  2  3  1  0
  3  4  2  0
  4  5  1  0
  5  6  2  0
  5  7  1  0
  7  8  1  0
  8  9  1  0
  9 10  1  0
 10 11  2  0
 11 12  1  0
 12 13  1  0
 13 14  1  0
 14 15  1  0
 15 16  1  0
 16 17  1  0
 17 18  1  0
 18 19  1  0
 12 20  2  0
 20 21  1  0
 21 22  1  0
 22 23  1  0
 23 24  1  0
 24 25  1  0
 25 26  2  0
 26 27  1  0
 27 28  2  0
 28 29  1  0
 29 30  2  0
 30 31  1  0
 21 32  2  0
  9 33  1  0
  6  1  1  0
 32 10  1  0
 33  4  1  0
 19 15  1  0
 31 22  1  0
 30 25  1  0
  1 34  1  0
  2 35  1  0
  3 36  1  0
  6 37  1  0
  7 38  1  0
  7 39  1  0
  8 40  1  0
  8 41  1  0
 13 42  1  0
 14 43  1  0
 14 44  1  0
 15 45  1  6
 16 46  1  0
 16 47  1  0
 17 48  1  0
 17 49  1  0
 18 50  1  0
 18 51  1  0
 19 52  1  0
 23 53  1  0
 23 54  1  0
 24 55  1  0
 24 56  1  0
 26 57  1  0
 27 58  1  0
 28 59  1  0
 29 60  1  0
 31 61  1  0
 31 62  1  0
 33 63  1  0
 33 64  1  0
M  END
>  <smiles>  (15) 
c1ccc2c(c1)CCN(c1nc(NC[C@@H]3CCCN3)nc(N3CCc4ccccc4C3)n1)C2

>  <score_type>  (15) 
oracle

>  <origin>  (15) 
autodockgpu

>  <m_score__min__energy>  (15) 
-9.8599999999999994

>  <m_primary>  (15) 
energy

>  <meeko>  (15) 
{"free_energy": -8.63, "intermolecular_energy": -10.12, "internal_energy": -1.65, "cluster_size": 5, "cluster_id": 2, "rank_in_cluster": 5}

>  <energy>  (15) 
-8.98

>  <cluster_rmsd>  (15) 
0.0

>  <rmsd>  (15) 
270.18

>  <cluster>  (15) 
2

$$$$

     RDKit          3D

 64 69  0  0  0  0  0  0  0  0999 V2000
  142.1870   80.4380  222.9410 C   0  0  0  0  0  0  0  0  0  0  0  0
  141.1070   80.3700  223.7940 C   0  0  0  0  0  0  0  0  0  0  0  0
  140.1430   79.3910  223.7260 C   0  0  0  0  0  0  0  0  0  0  0  0
  140.2570   78.4190  222.7500 C   0  0  0  0  0  0  0  0  0  0  0  0
  141.3350   78.5000  221.9090 C   0  0  0  0  0  0  0  0  0  0  0  0
  142.3040   79.4550  221.9500 C   0  0  0  0  0  0  0  0  0  0  0  0
  141.4500   77.4420  220.8560 C   0  0  0  0  0  0  0  0  0  0  0  0
  141.1570   76.1360  221.5350 C   0  0  0  0  0  0  0  0  0  0  0  0
  139.8240   76.1410  222.1560 N   0  0  0  0  0  0  0  0  0  0  0  0
  139.1790   74.8740  222.2170 C   0  0  0  0  0  0  0  0  0  0  0  0
  137.9010   74.7430  221.7880 N   0  0  0  0  0  0  0  0  0  0  0  0
  137.2390   73.5680  221.8080 C   0  0  0  0  0  0  0  0  0  0  0  0
  135.8950   73.4120  221.4010 N   0  0  0  0  0  0  0  0  0  0  0  0
  134.7470   73.8790  222.1460 C   0  0  0  0  0  0  0  0  0  0  0  0
  134.7150   73.1000  223.4660 C   0  0  2  0  0  0  0  0  0  0  0  0
  133.4880   73.6250  224.1940 C   0  0  0  0  0  0  0  0  0  0  0  0
  133.9500   74.7550  225.0580 C   0  0  0  0  0  0  0  0  0  0  0  0
  135.4350   74.7870  224.8690 C   0  0  0  0  0  0  0  0  0  0  0  0
  135.8130   73.4740  224.3410 N   0  0  0  0  0  0  0  0  0  0  0  0
  137.8900   72.4790  222.2760 N   0  0  0  0  0  0  0  0  0  0  0  0
  139.1720   72.5660  222.7160 C   0  0  0  0  0  0  0  0  0  0  0  0
  139.7630   71.3640  223.1790 N   0  0  0  0  0  0  0  0  0  0  0  0
  139.4510   70.0580  222.6070 C   0  0  0  0  0  0  0  0  0  0  0  0
  138.6410   69.3170  223.6460 C   0  0  0  0  0  0  0  0  0  0  0  0
  139.4530   69.2830  224.8890 C   0  0  0  0  0  0  0  0  0  0  0  0
  139.1810   68.2030  225.7480 C   0  0  0  0  0  0  0  0  0  0  0  0
  139.8850   68.0910  226.9340 C   0  0  0  0  0  0  0  0  0  0  0  0
  140.8520   69.0480  227.2590 C   0  0  0  0  0  0  0  0  0  0  0  0
  141.1010   70.1120  226.3820 C   0  0  0  0  0  0  0  0  0  0  0  0
  140.4040   70.2280  225.2030 C   0  0  0  0  0  0  0  0  0  0  0  0
  140.6910   71.3890  224.2820 C   0  0  0  0  0  0  0  0  0  0  0  0
  139.7940   73.7550  222.6800 N   0  0  0  0  0  0  0  0  0  0  0  0
  139.2180   77.3560  222.6680 C   0  0  0  0  0  0  0  0  0  0  0  0
  142.9343   81.2396  223.0354 H   0  0  0  0  0  0  0  0  0  0  0  0
  141.0103   81.1412  224.5724 H   0  0  0  0  0  0  0  0  0  0  0  0
  139.3001   79.3819  224.4327 H   0  0  0  0  0  0  0  0  0  0  0  0
  143.1415   79.4548  221.2368 H   0  0  0  0  0  0  0  0  0  0  0  0
  140.7220   77.6246  220.0519 H   0  0  0  0  0  0  0  0  0  0  0  0
  142.4513   77.4393  220.4006 H   0  0  0  0  0  0  0  0  0  0  0  0
  141.2018   75.3276  220.7904 H   0  0  0  0  0  0  0  0  0  0  0  0
  141.9063   75.9810  222.3252 H   0  0  0  0  0  0  0  0  0  0  0  0
  135.7290   72.9270  220.4980 H   0  0  0  0  0  0  0  0  0  0  0  0
  134.8409   74.9565  222.3466 H   0  0  0  0  0  0  0  0  0  0  0  0
  133.8201   73.7187  221.5757 H   0  0  0  0  0  0  0  0  0  0  0  0
  134.7446   72.0214  223.2523 H   0  0  0  0  0  0  0  0  0  0  0  0
  132.7417   73.9827  223.4694 H   0  0  0  0  0  0  0  0  0  0  0  0
  133.0173   72.8340  224.7963 H   0  0  0  0  0  0  0  0  0  0  0  0
  133.4961   75.7032  224.7340 H   0  0  0  0  0  0  0  0  0  0  0  0
  133.6648   74.6201  226.1118 H   0  0  0  0  0  0  0  0  0  0  0  0
  135.7108   75.5777  224.1557 H   0  0  0  0  0  0  0  0  0  0  0  0
  135.9530   75.0004  225.8157 H   0  0  0  0  0  0  0  0  0  0  0  0
  136.7110   73.4830  223.8330 H   0  0  0  0  0  0  0  0  0  0  0  0
  138.8658   70.1777  221.6833 H   0  0  0  0  0  0  0  0  0  0  0  0
  140.3677   69.5070  222.3499 H   0  0  0  0  0  0  0  0  0  0  0  0
  137.6918   69.8418  223.8294 H   0  0  0  0  0  0  0  0  0  0  0  0
  138.4040   68.2985  223.3048 H   0  0  0  0  0  0  0  0  0  0  0  0
  138.4183   67.4569  225.4804 H   0  0  0  0  0  0  0  0  0  0  0  0
  139.6851   67.2532  227.6181 H   0  0  0  0  0  0  0  0  0  0  0  0
  141.4153   68.9655  228.2002 H   0  0  0  0  0  0  0  0  0  0  0  0
  141.8626   70.8627  226.6398 H   0  0  0  0  0  0  0  0  0  0  0  0
  140.5786   72.3331  224.8352 H   0  0  0  0  0  0  0  0  0  0  0  0
  141.7194   71.3101  223.8997 H   0  0  0  0  0  0  0  0  0  0  0  0
  138.4123   77.6792  221.9924 H   0  0  0  0  0  0  0  0  0  0  0  0
  138.7981   77.1691  223.6674 H   0  0  0  0  0  0  0  0  0  0  0  0
  1  2  2  0
  2  3  1  0
  3  4  2  0
  4  5  1  0
  5  6  2  0
  5  7  1  0
  7  8  1  0
  8  9  1  0
  9 10  1  0
 10 11  2  0
 11 12  1  0
 12 13  1  0
 13 14  1  0
 14 15  1  0
 15 16  1  0
 16 17  1  0
 17 18  1  0
 18 19  1  0
 12 20  2  0
 20 21  1  0
 21 22  1  0
 22 23  1  0
 23 24  1  0
 24 25  1  0
 25 26  2  0
 26 27  1  0
 27 28  2  0
 28 29  1  0
 29 30  2  0
 30 31  1  0
 21 32  2  0
  9 33  1  0
  6  1  1  0
 32 10  1  0
 33  4  1  0
 19 15  1  0
 31 22  1  0
 30 25  1  0
  1 34  1  0
  2 35  1  0
  3 36  1  0
  6 37  1  0
  7 38  1  0
  7 39  1  0
  8 40  1  0
  8 41  1  0
 13 42  1  0
 14 43  1  0
 14 44  1  0
 15 45  1  6
 16 46  1  0
 16 47  1  0
 17 48  1  0
 17 49  1  0
 18 50  1  0
 18 51  1  0
 19 52  1  0
 23 53  1  0
 23 54  1  0
 24 55  1  0
 24 56  1  0
 26 57  1  0
 27 58  1  0
 28 59  1  0
 29 60  1  0
 31 61  1  0
 31 62  1  0
 33 63  1  0
 33 64  1  0
M  END
>  <smiles>  (16) 
c1ccc2c(c1)CCN(c1nc(NC[C@@H]3CCCN3)nc(N3CCc4ccccc4C3)n1)C2

>  <score_type>  (16) 
oracle

>  <origin>  (16) 
autodockgpu

>  <m_score__min__energy>  (16) 
-9.8599999999999994

>  <m_primary>  (16) 
energy

>  <meeko>  (16) 
{"free_energy": -8.97, "intermolecular_energy": -10.47, "internal_energy": -1.93, "cluster_size": 5, "cluster_id": 2, "rank_in_cluster": 3}

>  <energy>  (16) 
-8.97

>  <cluster_rmsd>  (16) 
0.04

>  <rmsd>  (16) 
270.18

>  <cluster>  (16) 
2

$$$$

     RDKit          3D

 64 69  0  0  0  0  0  0  0  0999 V2000
  142.0280   80.2190  222.6710 C   0  0  0  0  0  0  0  0  0  0  0  0
  140.9200   80.1650  223.4890 C   0  0  0  0  0  0  0  0  0  0  0  0
  139.9840   79.1570  223.4370 C   0  0  0  0  0  0  0  0  0  0  0  0
  140.1570   78.1420  222.5150 C   0  0  0  0  0  0  0  0  0  0  0  0
  141.2610   78.2110  221.7090 C   0  0  0  0  0  0  0  0  0  0  0  0
  142.2030   79.1930  221.7350 C   0  0  0  0  0  0  0  0  0  0  0  0
  141.4390   77.1060  220.7150 C   0  0  0  0  0  0  0  0  0  0  0  0
  141.1560   75.8270  221.4470 C   0  0  0  0  0  0  0  0  0  0  0  0
  139.8010   75.8270  222.0220 N   0  0  0  0  0  0  0  0  0  0  0  0
  139.1870   74.5480  222.1240 C   0  0  0  0  0  0  0  0  0  0  0  0
  137.9340   74.3580  221.6440 N   0  0  0  0  0  0  0  0  0  0  0  0
  137.3030   73.1670  221.6990 C   0  0  0  0  0  0  0  0  0  0  0  0
  135.9840   72.9520  221.2390 N   0  0  0  0  0  0  0  0  0  0  0  0
  134.7870   73.3040  221.9690 C   0  0  0  0  0  0  0  0  0  0  0  0
  134.8920   72.6560  223.3540 C   0  0  2  0  0  0  0  0  0  0  0  0
  133.6000   73.0390  224.0580 C   0  0  0  0  0  0  0  0  0  0  0  0
  133.8760   74.3040  224.8070 C   0  0  0  0  0  0  0  0  0  0  0  0
  135.3340   74.5600  224.5840 C   0  0  0  0  0  0  0  0  0  0  0  0
  135.9190   73.2830  224.1680 N   0  0  0  0  0  0  0  0  0  0  0  0
  137.9580   72.1250  222.2570 N   0  0  0  0  0  0  0  0  0  0  0  0
  139.2140   72.2720  222.7520 C   0  0  0  0  0  0  0  0  0  0  0  0
  139.8120   71.1140  223.3090 N   0  0  0  0  0  0  0  0  0  0  0  0
  139.5400   69.7680  222.8150 C   0  0  0  0  0  0  0  0  0  0  0  0
  138.7140   69.0800  223.8770 C   0  0  0  0  0  0  0  0  0  0  0  0
  139.4890   69.1430  225.1420 C   0  0  0  0  0  0  0  0  0  0  0  0
  139.2110   68.1160  226.0620 C   0  0  0  0  0  0  0  0  0  0  0  0
  139.8810   68.0950  227.2720 C   0  0  0  0  0  0  0  0  0  0  0  0
  140.8220   69.0900  227.5610 C   0  0  0  0  0  0  0  0  0  0  0  0
  141.0770   70.1000  226.6240 C   0  0  0  0  0  0  0  0  0  0  0  0
  140.4130   70.1250  225.4200 C   0  0  0  0  0  0  0  0  0  0  0  0
  140.7070   71.2280  224.4340 C   0  0  0  0  0  0  0  0  0  0  0  0
  139.8070   73.4740  222.6780 N   0  0  0  0  0  0  0  0  0  0  0  0
  139.1480   77.0490  222.4520 C   0  0  0  0  0  0  0  0  0  0  0  0
  142.7524   81.0429  222.7512 H   0  0  0  0  0  0  0  0  0  0  0  0
  140.7758   80.9712  224.2233 H   0  0  0  0  0  0  0  0  0  0  0  0
  139.1173   79.1593  224.1144 H   0  0  0  0  0  0  0  0  0  0  0  0
  143.0640   79.1809  221.0505 H   0  0  0  0  0  0  0  0  0  0  0  0
  140.7349   77.2295  219.8789 H   0  0  0  0  0  0  0  0  0  0  0  0
  142.4555   77.1080  220.2947 H   0  0  0  0  0  0  0  0  0  0  0  0
  141.2471   74.9850  220.7451 H   0  0  0  0  0  0  0  0  0  0  0  0
  141.8812   75.7300  222.2684 H   0  0  0  0  0  0  0  0  0  0  0  0
  135.8770   72.5090  220.3060 H   0  0  0  0  0  0  0  0  0  0  0  0
  134.7147   74.3970  222.0691 H   0  0  0  0  0  0  0  0  0  0  0  0
  133.8896   72.9504  221.4401 H   0  0  0  0  0  0  0  0  0  0  0  0
  135.0973   71.5816  223.2377 H   0  0  0  0  0  0  0  0  0  0  0  0
  132.8005   73.2022  223.3203 H   0  0  0  0  0  0  0  0  0  0  0  0
  133.2693   72.2408  224.7388 H   0  0  0  0  0  0  0  0  0  0  0  0
  133.2704   75.1316  224.4091 H   0  0  0  0  0  0  0  0  0  0  0  0
  133.6238   74.2220  225.8746 H   0  0  0  0  0  0  0  0  0  0  0  0
  135.4715   75.3159  223.7968 H   0  0  0  0  0  0  0  0  0  0  0  0
  135.8161   74.9413  225.4962 H   0  0  0  0  0  0  0  0  0  0  0  0
  136.8000   73.3910  223.6410 H   0  0  0  0  0  0  0  0  0  0  0  0
  138.9796   69.8162  221.8697 H   0  0  0  0  0  0  0  0  0  0  0  0
  140.4734   69.2197  222.6198 H   0  0  0  0  0  0  0  0  0  0  0  0
  137.7503   69.5963  223.9988 H   0  0  0  0  0  0  0  0  0  0  0  0
  138.5064   68.0368  223.5967 H   0  0  0  0  0  0  0  0  0  0  0  0
  138.4700   67.3392  225.8222 H   0  0  0  0  0  0  0  0  0  0  0  0
  139.6752   67.2999  228.0038 H   0  0  0  0  0  0  0  0  0  0  0  0
  141.3596   69.0791  228.5206 H   0  0  0  0  0  0  0  0  0  0  0  0
  141.8163   70.8814  226.8539 H   0  0  0  0  0  0  0  0  0  0  0  0
  140.5626   72.2038  224.9207 H   0  0  0  0  0  0  0  0  0  0  0  0
  141.7473   71.1436  224.0867 H   0  0  0  0  0  0  0  0  0  0  0  0
  138.3583   77.3171  221.7347 H   0  0  0  0  0  0  0  0  0  0  0  0
  138.6988   76.9005  223.4450 H   0  0  0  0  0  0  0  0  0  0  0  0
  1  2  2  0
  2  3  1  0
  3  4  2  0
  4  5  1  0
  5  6  2  0
  5  7  1  0
  7  8  1  0
  8  9  1  0
  9 10  1  0
 10 11  2  0
 11 12  1  0
 12 13  1  0
 13 14  1  0
 14 15  1  0
 15 16  1  0
 16 17  1  0
 17 18  1  0
 18 19  1  0
 12 20  2  0
 20 21  1  0
 21 22  1  0
 22 23  1  0
 23 24  1  0
 24 25  1  0
 25 26  2  0
 26 27  1  0
 27 28  2  0
 28 29  1  0
 29 30  2  0
 30 31  1  0
 21 32  2  0
  9 33  1  0
  6  1  1  0
 32 10  1  0
 33  4  1  0
 19 15  1  0
 31 22  1  0
 30 25  1  0
  1 34  1  0
  2 35  1  0
  3 36  1  0
  6 37  1  0
  7 38  1  0
  7 39  1  0
  8 40  1  0
  8 41  1  0
 13 42  1  0
 14 43  1  0
 14 44  1  0
 15 45  1  6
 16 46  1  0
 16 47  1  0
 17 48  1  0
 17 49  1  0
 18 50  1  0
 18 51  1  0
 19 52  1  0
 23 53  1  0
 23 54  1  0
 24 55  1  0
 24 56  1  0
 26 57  1  0
 27 58  1  0
 28 59  1  0
 29 60  1  0
 31 61  1  0
 31 62  1  0
 33 63  1  0
 33 64  1  0
M  END
>  <smiles>  (17) 
c1ccc2c(c1)CCN(c1nc(NC[C@@H]3CCCN3)nc(N3CCc4ccccc4C3)n1)C2

>  <score_type>  (17) 
oracle

>  <origin>  (17) 
autodockgpu

>  <m_score__min__energy>  (17) 
-9.8599999999999994

>  <m_primary>  (17) 
energy

>  <meeko>  (17) 
{"free_energy": -8.89, "intermolecular_energy": -10.38, "internal_energy": -1.98, "cluster_size": 5, "cluster_id": 2, "rank_in_cluster": 4}

>  <energy>  (17) 
-8.97

>  <cluster_rmsd>  (17) 
0.02

>  <rmsd>  (17) 
270.18

>  <cluster>  (17) 
2

$$$$

     RDKit          3D

 64 69  0  0  0  0  0  0  0  0999 V2000
  139.9020   68.0280  227.6200 C   0  0  0  0  0  0  0  0  0  0  0  0
  139.5390   67.4320  226.4330 C   0  0  0  0  0  0  0  0  0  0  0  0
  139.3980   68.1170  225.2470 C   0  0  0  0  0  0  0  0  0  0  0  0
  139.6320   69.4790  225.2410 C   0  0  0  0  0  0  0  0  0  0  0  0
  139.9910   70.0580  226.4280 C   0  0  0  0  0  0  0  0  0  0  0  0
  140.1380   69.4090  227.6150 C   0  0  0  0  0  0  0  0  0  0  0  0
  140.2420   71.5330  226.4100 C   0  0  0  0  0  0  0  0  0  0  0  0
  141.0740   71.8060  225.1910 C   0  0  0  0  0  0  0  0  0  0  0  0
  140.3930   71.3570  223.9660 N   0  0  0  0  0  0  0  0  0  0  0  0
  140.6970   72.1060  222.7940 C   0  0  0  0  0  0  0  0  0  0  0  0
  141.3610   71.5200  221.7690 N   0  0  0  0  0  0  0  0  0  0  0  0
  141.6660   72.1720  220.6290 C   0  0  0  0  0  0  0  0  0  0  0  0
  142.3900   71.5960  219.5610 N   0  0  0  0  0  0  0  0  0  0  0  0
  143.7760   71.1900  219.6250 C   0  0  0  0  0  0  0  0  0  0  0  0
  144.6110   72.3310  219.0330 C   0  0  2  0  0  0  0  0  0  0  0  0
  145.9420   72.2550  219.7640 C   0  0  0  0  0  0  0  0  0  0  0  0
  145.8360   73.1620  220.9480 C   0  0  0  0  0  0  0  0  0  0  0  0
  144.4860   73.7970  220.8140 C   0  0  0  0  0  0  0  0  0  0  0  0
  144.0910   73.6340  219.4130 N   0  0  0  0  0  0  0  0  0  0  0  0
  141.2870   73.4640  220.5140 N   0  0  0  0  0  0  0  0  0  0  0  0
  140.6200   74.0900  221.5180 C   0  0  0  0  0  0  0  0  0  0  0  0
  140.2640   75.4420  221.2910 N   0  0  0  0  0  0  0  0  0  0  0  0
  140.2430   76.0430  219.9610 C   0  0  0  0  0  0  0  0  0  0  0  0
  141.4090   77.0020  219.9040 C   0  0  0  0  0  0  0  0  0  0  0  0
  141.2440   77.9570  221.0300 C   0  0  0  0  0  0  0  0  0  0  0  0
  141.8390   79.2160  220.8340 C   0  0  0  0  0  0  0  0  0  0  0  0
  141.7410   80.1700  221.8310 C   0  0  0  0  0  0  0  0  0  0  0  0
  141.0550   79.8710  223.0130 C   0  0  0  0  0  0  0  0  0  0  0  0
  140.4710   78.6070  223.1780 C   0  0  0  0  0  0  0  0  0  0  0  0
  140.5660   77.6550  222.1900 C   0  0  0  0  0  0  0  0  0  0  0  0
  139.9330   76.3020  222.4000 C   0  0  0  0  0  0  0  0  0  0  0  0
  140.3360   73.4060  222.6370 N   0  0  0  0  0  0  0  0  0  0  0  0
  139.4810   70.2280  223.9630 C   0  0  0  0  0  0  0  0  0  0  0  0
  140.0035   67.4384  228.5431 H   0  0  0  0  0  0  0  0  0  0  0  0
  139.3512   66.3482  226.4322 H   0  0  0  0  0  0  0  0  0  0  0  0
  139.1058   67.5922  224.3254 H   0  0  0  0  0  0  0  0  0  0  0  0
  140.4293   69.9451  228.5303 H   0  0  0  0  0  0  0  0  0  0  0  0
  139.2897   72.0803  226.3511 H   0  0  0  0  0  0  0  0  0  0  0  0
  140.7559   71.8614  227.3255 H   0  0  0  0  0  0  0  0  0  0  0  0
  141.2618   72.8876  225.1204 H   0  0  0  0  0  0  0  0  0  0  0  0
  142.0194   71.2516  225.2852 H   0  0  0  0  0  0  0  0  0  0  0  0
  141.8790   71.4550  218.6670 H   0  0  0  0  0  0  0  0  0  0  0  0
  144.0686   71.0121  220.6703 H   0  0  0  0  0  0  0  0  0  0  0  0
  143.9358   70.2576  219.0637 H   0  0  0  0  0  0  0  0  0  0  0  0
  144.6373   72.2319  217.9378 H   0  0  0  0  0  0  0  0  0  0  0  0
  146.1351   71.2233  220.0932 H   0  0  0  0  0  0  0  0  0  0  0  0
  146.7711   72.5576  219.1075 H   0  0  0  0  0  0  0  0  0  0  0  0
  145.9049   72.5888  221.8843 H   0  0  0  0  0  0  0  0  0  0  0  0
  146.6465   73.9050  220.9798 H   0  0  0  0  0  0  0  0  0  0  0  0
  143.7625   73.2962  221.4742 H   0  0  0  0  0  0  0  0  0  0  0  0
  144.5139   74.8588  221.1001 H   0  0  0  0  0  0  0  0  0  0  0  0
  143.0710   73.6860  219.2690 H   0  0  0  0  0  0  0  0  0  0  0  0
  140.3529   75.2652  219.1910 H   0  0  0  0  0  0  0  0  0  0  0  0
  139.2916   76.5627  219.7748 H   0  0  0  0  0  0  0  0  0  0  0  0
  142.3556   76.4520  220.0112 H   0  0  0  0  0  0  0  0  0  0  0  0
  141.4331   77.5326  218.9407 H   0  0  0  0  0  0  0  0  0  0  0  0
  142.3754   79.4394  219.9000 H   0  0  0  0  0  0  0  0  0  0  0  0
  142.2008   81.1600  221.6949 H   0  0  0  0  0  0  0  0  0  0  0  0
  140.9741   80.6248  223.8100 H   0  0  0  0  0  0  0  0  0  0  0  0
  139.9310   78.3743  224.1077 H   0  0  0  0  0  0  0  0  0  0  0  0
  140.3122   75.8601  223.3332 H   0  0  0  0  0  0  0  0  0  0  0  0
  138.8406   76.4132  222.4659 H   0  0  0  0  0  0  0  0  0  0  0  0
  138.4466   70.5898  223.8677 H   0  0  0  0  0  0  0  0  0  0  0  0
  139.7118   69.5663  223.1151 H   0  0  0  0  0  0  0  0  0  0  0  0
  1  2  2  0
  2  3  1  0
  3  4  2  0
  4  5  1  0
  5  6  2  0
  5  7  1  0
  7  8  1  0
  8  9  1  0
  9 10  1  0
 10 11  2  0
 11 12  1  0
 12 13  1  0
 13 14  1  0
 14 15  1  0
 15 16  1  0
 16 17  1  0
 17 18  1  0
 18 19  1  0
 12 20  2  0
 20 21  1  0
 21 22  1  0
 22 23  1  0
 23 24  1  0
 24 25  1  0
 25 26  2  0
 26 27  1  0
 27 28  2  0
 28 29  1  0
 29 30  2  0
 30 31  1  0
 21 32  2  0
  9 33  1  0
  6  1  1  0
 32 10  1  0
 33  4  1  0
 19 15  1  0
 31 22  1  0
 30 25  1  0
  1 34  1  0
  2 35  1  0
  3 36  1  0
  6 37  1  0
  7 38  1  0
  7 39  1  0
  8 40  1  0
  8 41  1  0
 13 42  1  0
 14 43  1  0
 14 44  1  0
 15 45  1  6
 16 46  1  0
 16 47  1  0
 17 48  1  0
 17 49  1  0
 18 50  1  0
 18 51  1  0
 19 52  1  0
 23 53  1  0
 23 54  1  0
 24 55  1  0
 24 56  1  0
 26 57  1  0
 27 58  1  0
 28 59  1  0
 29 60  1  0
 31 61  1  0
 31 62  1  0
 33 63  1  0
 33 64  1  0
M  END
>  <smiles>  (18) 
c1ccc2c(c1)CCN(c1nc(NC[C@@H]3CCCN3)nc(N3CCc4ccccc4C3)n1)C2

>  <score_type>  (18) 
oracle

>  <origin>  (18) 
autodockgpu

>  <m_score__min__energy>  (18) 
-9.8599999999999994

>  <m_primary>  (18) 
energy

>  <meeko>  (18) 
{"free_energy": -9.12, "intermolecular_energy": -10.61, "internal_energy": -2.02, "cluster_size": 14, "cluster_id": 1, "rank_in_cluster": 7}

>  <energy>  (18) 
-8.89

>  <cluster_rmsd>  (18) 
0.38

>  <rmsd>  (18) 
270.07

>  <cluster>  (18) 
2

$$$$

     RDKit          3D

 64 69  0  0  0  0  0  0  0  0999 V2000
  139.6900   68.0290  227.6540 C   0  0  0  0  0  0  0  0  0  0  0  0
  139.3160   67.4500  226.4610 C   0  0  0  0  0  0  0  0  0  0  0  0
  139.2120   68.1440  225.2770 C   0  0  0  0  0  0  0  0  0  0  0  0
  139.4950   69.4970  225.2780 C   0  0  0  0  0  0  0  0  0  0  0  0
  139.8640   70.0580  226.4700 C   0  0  0  0  0  0  0  0  0  0  0  0
  139.9760   69.4000  227.6570 C   0  0  0  0  0  0  0  0  0  0  0  0
  140.1690   71.5230  226.4600 C   0  0  0  0  0  0  0  0  0  0  0  0
  141.0210   71.7700  225.2500 C   0  0  0  0  0  0  0  0  0  0  0  0
  140.3370   71.3490  224.0170 N   0  0  0  0  0  0  0  0  0  0  0  0
  140.6780   72.0910  222.8510 C   0  0  0  0  0  0  0  0  0  0  0  0
  141.3860   71.5020  221.8580 N   0  0  0  0  0  0  0  0  0  0  0  0
  141.7300   72.1470  220.7240 C   0  0  0  0  0  0  0  0  0  0  0  0
  142.4980   71.5680  219.6890 N   0  0  0  0  0  0  0  0  0  0  0  0
  143.9310   71.3740  219.7340 C   0  0  0  0  0  0  0  0  0  0  0  0
  144.5720   72.5540  218.9950 C   0  0  2  0  0  0  0  0  0  0  0  0
  145.8570   72.8340  219.7560 C   0  0  0  0  0  0  0  0  0  0  0  0
  145.5310   73.8650  220.7890 C   0  0  0  0  0  0  0  0  0  0  0  0
  144.0960   74.2110  220.5330 C   0  0  0  0  0  0  0  0  0  0  0  0
  143.8060   73.7770  219.1640 N   0  0  0  0  0  0  0  0  0  0  0  0
  141.3440   73.4350  220.5820 N   0  0  0  0  0  0  0  0  0  0  0  0
  140.6330   74.0630  221.5540 C   0  0  0  0  0  0  0  0  0  0  0  0
  140.2740   75.4100  221.3010 N   0  0  0  0  0  0  0  0  0  0  0  0
  140.3620   76.0180  219.9770 C   0  0  0  0  0  0  0  0  0  0  0  0
  141.5110   76.9980  220.0310 C   0  0  0  0  0  0  0  0  0  0  0  0
  141.2270   77.9440  221.1400 C   0  0  0  0  0  0  0  0  0  0  0  0
  141.8140   79.2140  221.0040 C   0  0  0  0  0  0  0  0  0  0  0  0
  141.6090   80.1610  221.9920 C   0  0  0  0  0  0  0  0  0  0  0  0
  140.8240   79.8420  223.1060 C   0  0  0  0  0  0  0  0  0  0  0  0
  140.2510   78.5670  223.2120 C   0  0  0  0  0  0  0  0  0  0  0  0
  140.4530   77.6230  222.2330 C   0  0  0  0  0  0  0  0  0  0  0  0
  139.8280   76.2580  222.3790 C   0  0  0  0  0  0  0  0  0  0  0  0
  140.3120   73.3860  222.6680 N   0  0  0  0  0  0  0  0  0  0  0  0
  139.3840   70.2550  224.0020 C   0  0  0  0  0  0  0  0  0  0  0  0
  139.7618   67.4328  228.5757 H   0  0  0  0  0  0  0  0  0  0  0  0
  139.0880   66.3739  226.4545 H   0  0  0  0  0  0  0  0  0  0  0  0
  138.9104   67.6333  224.3506 H   0  0  0  0  0  0  0  0  0  0  0  0
  140.2776   69.9220  228.5771 H   0  0  0  0  0  0  0  0  0  0  0  0
  139.2379   72.1050  226.3949 H   0  0  0  0  0  0  0  0  0  0  0  0
  140.6864   71.8289  227.3813 H   0  0  0  0  0  0  0  0  0  0  0  0
  141.2472   72.8445  225.1848 H   0  0  0  0  0  0  0  0  0  0  0  0
  141.9452   71.1821  225.3513 H   0  0  0  0  0  0  0  0  0  0  0  0
  141.9880   71.2590  218.8390 H   0  0  0  0  0  0  0  0  0  0  0  0
  144.2756   71.3515  220.7784 H   0  0  0  0  0  0  0  0  0  0  0  0
  144.2107   70.4201  219.2630 H   0  0  0  0  0  0  0  0  0  0  0  0
  144.6688   72.3053  217.9279 H   0  0  0  0  0  0  0  0  0  0  0  0
  146.2189   71.9146  220.2395 H   0  0  0  0  0  0  0  0  0  0  0  0
  146.6474   73.1897  219.0788 H   0  0  0  0  0  0  0  0  0  0  0  0
  145.6574   73.4544  221.8017 H   0  0  0  0  0  0  0  0  0  0  0  0
  146.1907   74.7430  220.7268 H   0  0  0  0  0  0  0  0  0  0  0  0
  143.4443   73.6843  221.2456 H   0  0  0  0  0  0  0  0  0  0  0  0
  143.9165   75.2892  220.6570 H   0  0  0  0  0  0  0  0  0  0  0  0
  142.8010   73.6170  218.9930 H   0  0  0  0  0  0  0  0  0  0  0  0
  140.5555   75.2469  219.2167 H   0  0  0  0  0  0  0  0  0  0  0  0
  139.4219   76.5213  219.7069 H   0  0  0  0  0  0  0  0  0  0  0  0
  142.4535   76.4641  220.2226 H   0  0  0  0  0  0  0  0  0  0  0  0
  141.6133   77.5341  219.0759 H   0  0  0  0  0  0  0  0  0  0  0  0
  142.4286   79.4521  220.1233 H   0  0  0  0  0  0  0  0  0  0  0  0
  142.0609   81.1599  221.9023 H   0  0  0  0  0  0  0  0  0  0  0  0
  140.6572   80.5893  223.8958 H   0  0  0  0  0  0  0  0  0  0  0  0
  139.6332   78.3192  224.0877 H   0  0  0  0  0  0  0  0  0  0  0  0
  140.1287   75.8175  223.3411 H   0  0  0  0  0  0  0  0  0  0  0  0
  138.7323   76.3497  222.3456 H   0  0  0  0  0  0  0  0  0  0  0  0
  138.3647   70.6554  223.8986 H   0  0  0  0  0  0  0  0  0  0  0  0
  139.5980   69.5878  223.1540 H   0  0  0  0  0  0  0  0  0  0  0  0
  1  2  2  0
  2  3  1  0
  3  4  2  0
  4  5  1  0
  5  6  2  0
  5  7  1  0
  7  8  1  0
  8  9  1  0
  9 10  1  0
 10 11  2  0
 11 12  1  0
 12 13  1  0
 13 14  1  0
 14 15  1  0
 15 16  1  0
 16 17  1  0
 17 18  1  0
 18 19  1  0
 12 20  2  0
 20 21  1  0
 21 22  1  0
 22 23  1  0
 23 24  1  0
 24 25  1  0
 25 26  2  0
 26 27  1  0
 27 28  2  0
 28 29  1  0
 29 30  2  0
 30 31  1  0
 21 32  2  0
  9 33  1  0
  6  1  1  0
 32 10  1  0
 33  4  1  0
 19 15  1  0
 31 22  1  0
 30 25  1  0
  1 34  1  0
  2 35  1  0
  3 36  1  0
  6 37  1  0
  7 38  1  0
  7 39  1  0
  8 40  1  0
  8 41  1  0
 13 42  1  0
 14 43  1  0
 14 44  1  0
 15 45  1  6
 16 46  1  0
 16 47  1  0
 17 48  1  0
 17 49  1  0
 18 50  1  0
 18 51  1  0
 19 52  1  0
 23 53  1  0
 23 54  1  0
 24 55  1  0
 24 56  1  0
 26 57  1  0
 27 58  1  0
 28 59  1  0
 29 60  1  0
 31 61  1  0
 31 62  1  0
 33 63  1  0
 33 64  1  0
M  END
>  <smiles>  (19) 
c1ccc2c(c1)CCN(c1nc(NC[C@@H]3CCCN3)nc(N3CCc4ccccc4C3)n1)C2

>  <score_type>  (19) 
oracle

>  <origin>  (19) 
autodockgpu

>  <m_score__min__energy>  (19) 
-9.8599999999999994

>  <m_primary>  (19) 
energy

>  <meeko>  (19) 
{"free_energy": -9.07, "intermolecular_energy": -10.56, "internal_energy": -1.98, "cluster_size": 14, "cluster_id": 1, "rank_in_cluster": 9}

>  <energy>  (19) 
-8.63

>  <cluster_rmsd>  (19) 
0.51

>  <rmsd>  (19) 
270.18

>  <cluster>  (19) 
2

$$$$

     RDKit          3D

 64 69  0  0  0  0  0  0  0  0999 V2000
  138.8260   69.2100  227.0920 C   0  0  0  0  0  0  0  0  0  0  0  0
  139.9790   69.9010  227.3960 C   0  0  0  0  0  0  0  0  0  0  0  0
  140.7170   70.5980  226.4670 C   0  0  0  0  0  0  0  0  0  0  0  0
  140.2850   70.6080  225.1540 C   0  0  0  0  0  0  0  0  0  0  0  0
  139.1390   69.9160  224.8670 C   0  0  0  0  0  0  0  0  0  0  0  0
  138.3880   69.2180  225.7620 C   0  0  0  0  0  0  0  0  0  0  0  0
  138.6800   69.9340  223.4430 C   0  0  0  0  0  0  0  0  0  0  0  0
  138.8040   71.3550  222.9760 C   0  0  0  0  0  0  0  0  0  0  0  0
  140.1860   71.8440  223.1070 N   0  0  0  0  0  0  0  0  0  0  0  0
  140.5760   72.8220  222.1490 C   0  0  0  0  0  0  0  0  0  0  0  0
  141.2600   72.4490  221.0410 N   0  0  0  0  0  0  0  0  0  0  0  0
  141.6470   73.3250  220.0920 C   0  0  0  0  0  0  0  0  0  0  0  0
  142.3930   72.9680  218.9460 N   0  0  0  0  0  0  0  0  0  0  0  0
  143.6610   73.5520  218.5700 C   0  0  0  0  0  0  0  0  0  0  0  0
  144.7420   72.4980  218.8340 C   0  0  2  0  0  0  0  0  0  0  0  0
  144.4200   71.9520  220.2150 C   0  0  0  0  0  0  0  0  0  0  0  0
  145.2020   72.7670  221.1950 C   0  0  0  0  0  0  0  0  0  0  0  0
  146.0160   73.6940  220.3460 C   0  0  0  0  0  0  0  0  0  0  0  0
  146.0530   73.1000  219.0070 N   0  0  0  0  0  0  0  0  0  0  0  0
  141.3310   74.6290  220.2620 N   0  0  0  0  0  0  0  0  0  0  0  0
  140.6470   75.0450  221.3590 C   0  0  0  0  0  0  0  0  0  0  0  0
  140.3620   76.4310  221.4350 N   0  0  0  0  0  0  0  0  0  0  0  0
  140.2360   77.2790  220.2540 C   0  0  0  0  0  0  0  0  0  0  0  0
  141.4520   78.1750  220.2380 C   0  0  0  0  0  0  0  0  0  0  0  0
  141.4790   78.9000  221.5340 C   0  0  0  0  0  0  0  0  0  0  0  0
  142.1340   80.1440  221.5080 C   0  0  0  0  0  0  0  0  0  0  0  0
  142.2120   80.8890  222.6710 C   0  0  0  0  0  0  0  0  0  0  0  0
  141.6410   80.3980  223.8500 C   0  0  0  0  0  0  0  0  0  0  0  0
  140.9940   79.1540  223.8440 C   0  0  0  0  0  0  0  0  0  0  0  0
  140.9140   78.4100  222.6900 C   0  0  0  0  0  0  0  0  0  0  0  0
  140.2150   77.0730  222.7180 C   0  0  0  0  0  0  0  0  0  0  0  0
  140.2810   74.1410  222.2810 N   0  0  0  0  0  0  0  0  0  0  0  0
  141.0790   71.3580  224.1420 C   0  0  0  0  0  0  0  0  0  0  0  0
  138.2672   68.6690  227.8699 H   0  0  0  0  0  0  0  0  0  0  0  0
  140.3287   69.8950  228.4389 H   0  0  0  0  0  0  0  0  0  0  0  0
  141.6303   71.1352  226.7626 H   0  0  0  0  0  0  0  0  0  0  0  0
  137.4771   68.6837  225.4542 H   0  0  0  0  0  0  0  0  0  0  0  0
  139.3136   69.2756  222.8306 H   0  0  0  0  0  0  0  0  0  0  0  0
  137.6446   69.5735  223.3530 H   0  0  0  0  0  0  0  0  0  0  0  0
  138.5026   71.4123  221.9197 H   0  0  0  0  0  0  0  0  0  0  0  0
  138.1533   71.9834  223.6019 H   0  0  0  0  0  0  0  0  0  0  0  0
  141.9930   72.2300  218.3350 H   0  0  0  0  0  0  0  0  0  0  0  0
  143.6502   73.8217  217.5036 H   0  0  0  0  0  0  0  0  0  0  0  0
  143.8571   74.4659  219.1500 H   0  0  0  0  0  0  0  0  0  0  0  0
  144.7565   71.7770  218.0033 H   0  0  0  0  0  0  0  0  0  0  0  0
  143.3430   72.0466  220.4179 H   0  0  0  0  0  0  0  0  0  0  0  0
  144.6828   70.8864  220.2892 H   0  0  0  0  0  0  0  0  0  0  0  0
  144.5284   73.3341  221.8543 H   0  0  0  0  0  0  0  0  0  0  0  0
  145.8267   72.1447  221.8526 H   0  0  0  0  0  0  0  0  0  0  0  0
  145.5461   74.6879  220.3089 H   0  0  0  0  0  0  0  0  0  0  0  0
  147.0293   73.8235  220.7539 H   0  0  0  0  0  0  0  0  0  0  0  0
  146.2510   73.7870  218.2630 H   0  0  0  0  0  0  0  0  0  0  0  0
  140.2069   76.6615  219.3441 H   0  0  0  0  0  0  0  0  0  0  0  0
  139.3078   77.8685  220.2846 H   0  0  0  0  0  0  0  0  0  0  0  0
  142.3642   77.5707  220.1249 H   0  0  0  0  0  0  0  0  0  0  0  0
  141.4062   78.8812  219.3959 H   0  0  0  0  0  0  0  0  0  0  0  0
  142.5787   80.5200  220.5748 H   0  0  0  0  0  0  0  0  0  0  0  0
  142.7212   81.8640  222.6688 H   0  0  0  0  0  0  0  0  0  0  0  0
  141.6994   80.9855  224.7781 H   0  0  0  0  0  0  0  0  0  0  0  0
  140.5458   78.7691  224.7719 H   0  0  0  0  0  0  0  0  0  0  0  0
  140.6628   76.4406  223.4987 H   0  0  0  0  0  0  0  0  0  0  0  0
  139.1469   77.2202  222.9360 H   0  0  0  0  0  0  0  0  0  0  0  0
  141.8321   70.6916  223.6963 H   0  0  0  0  0  0  0  0  0  0  0  0
  141.5875   72.2066  224.6229 H   0  0  0  0  0  0  0  0  0  0  0  0
  1  2  2  0
  2  3  1  0
  3  4  2  0
  4  5  1  0
  5  6  2  0
  5  7  1  0
  7  8  1  0
  8  9  1  0
  9 10  1  0
 10 11  2  0
 11 12  1  0
 12 13  1  0
 13 14  1  0
 14 15  1  0
 15 16  1  0
 16 17  1  0
 17 18  1  0
 18 19  1  0
 12 20  2  0
 20 21  1  0
 21 22  1  0
 22 23  1  0
 23 24  1  0
 24 25  1  0
 25 26  2  0
 26 27  1  0
 27 28  2  0
 28 29  1  0
 29 30  2  0
 30 31  1  0
 21 32  2  0
  9 33  1  0
  6  1  1  0
 32 10  1  0
 33  4  1  0
 19 15  1  0
 31 22  1  0
 30 25  1  0
  1 34  1  0
  2 35  1  0
  3 36  1  0
  6 37  1  0
  7 38  1  0
  7 39  1  0
  8 40  1  0
  8 41  1  0
 13 42  1  0
 14 43  1  0
 14 44  1  0
 15 45  1  6
 16 46  1  0
 16 47  1  0
 17 48  1  0
 17 49  1  0
 18 50  1  0
 18 51  1  0
 19 52  1  0
 23 53  1  0
 23 54  1  0
 24 55  1  0
 24 56  1  0
 26 57  1  0
 27 58  1  0
 28 59  1  0
 29 60  1  0
 31 61  1  0
 31 62  1  0
 33 63  1  0
 33 64  1  0
M  END
>  <smiles>  (20) 
c1ccc2c(c1)CCN(c1nc(NC[C@@H]3CCCN3)nc(N3CCc4ccccc4C3)n1)C2

>  <score_type>  (20) 
oracle

>  <origin>  (20) 
autodockgpu

>  <m_score__min__energy>  (20) 
-9.8599999999999994

>  <m_primary>  (20) 
energy

>  <meeko>  (20) 
{"free_energy": -9.86, "intermolecular_energy": -11.35, "internal_energy": -1.16, "cluster_size": 14, "cluster_id": 1, "rank_in_cluster": 1}

>  <energy>  (20) 
-8.62

>  <cluster_rmsd>  (20) 
0.0

>  <rmsd>  (20) 
269.9

>  <cluster>  (20) 
3

$$$$
