MHMHNRBLDMQEKR-XMMPIXPANA-N
     RDKit          3D

 54 58  0  0  0  0  0  0  0  0999 V2000
  142.1590   75.2610  221.5820 O   0  0  0  0  0  0  0  0  0  0  0  0
  140.8040   74.8010  221.1180 S   0  0  0  0  0  0  0  0  0  0  0  0
  140.3420   73.6790  222.0070 O   0  0  0  0  0  0  0  0  0  0  0  0
  139.6530   76.1600  221.2670 C   0  0  0  0  0  0  0  0  0  0  0  0
  140.3660   77.4020  221.7200 C   0  0  0  0  0  0  0  0  0  0  0  0
  141.0420   77.4210  222.9490 C   0  0  0  0  0  0  0  0  0  0  0  0
  141.6750   78.5870  223.3900 C   0  0  0  0  0  0  0  0  0  0  0  0
  141.6510   79.7510  222.6030 C   0  0  0  0  0  0  0  0  0  0  0  0
  142.2890   81.0230  223.1020 C   0  0  0  0  0  0  0  0  0  0  0  0
  141.6770   81.4530  224.2660 F   0  0  0  0  0  0  0  0  0  0  0  0
  142.1770   82.0280  222.1580 F   0  0  0  0  0  0  0  0  0  0  0  0
  143.6280   80.7910  223.3560 F   0  0  0  0  0  0  0  0  0  0  0  0
  140.9390   79.7400  221.3910 C   0  0  0  0  0  0  0  0  0  0  0  0
  140.3070   78.5740  220.9510 C   0  0  0  0  0  0  0  0  0  0  0  0
  140.8710   74.2730  219.4380 N   0  0  0  0  0  0  0  0  0  0  0  0
  140.6660   72.8020  219.3430 C   0  0  0  0  0  0  0  0  0  0  0  0
  141.9720   71.9530  219.2660 C   0  0  0  0  0  0  0  0  0  0  0  0
  143.1980   72.7010  219.7320 C   0  0  0  0  0  0  0  0  0  0  0  0
  144.2240   72.0380  220.4220 C   0  0  0  0  0  0  0  0  0  0  0  0
  145.3070   72.7600  220.9260 C   0  0  0  0  0  0  0  0  0  0  0  0
  145.3600   74.1460  220.7640 C   0  0  0  0  0  0  0  0  0  0  0  0
  144.3500   74.8110  220.0650 C   0  0  0  0  0  0  0  0  0  0  0  0
  143.2940   74.0820  219.4820 C   0  0  0  0  0  0  0  0  0  0  0  0
  142.1110   74.6920  218.7480 C   0  0  2  0  0  0  0  0  0  0  0  0
  142.1640   76.1820  218.4360 C   0  0  0  0  0  0  0  0  0  0  0  0
  143.3160   76.8850  218.0740 C   0  0  0  0  0  0  0  0  0  0  0  0
  143.0180   78.1400  217.6750 N   0  0  0  0  0  0  0  0  0  0  0  0
  141.6820   78.2330  217.7130 C   0  0  0  0  0  0  0  0  0  0  0  0
  140.9110   79.3220  217.3090 C   0  0  0  0  0  0  0  0  0  0  0  0
  139.5140   79.1860  217.3300 C   0  0  0  0  0  0  0  0  0  0  0  0
  138.9250   77.9680  217.7250 C   0  0  0  0  0  0  0  0  0  0  0  0
  139.7250   76.8810  218.1160 C   0  0  0  0  0  0  0  0  0  0  0  0
  141.1150   77.0520  218.1340 C   0  0  0  0  0  0  0  0  0  0  0  0
  139.1844   76.3471  220.2895 H   0  0  0  0  0  0  0  0  0  0  0  0
  138.8853   75.8979  222.0099 H   0  0  0  0  0  0  0  0  0  0  0  0
  141.0743   76.5132  223.5694 H   0  0  0  0  0  0  0  0  0  0  0  0
  142.1952   78.5933  224.3592 H   0  0  0  0  0  0  0  0  0  0  0  0
  140.8789   80.6558  220.7846 H   0  0  0  0  0  0  0  0  0  0  0  0
  139.7603   78.5750  219.9965 H   0  0  0  0  0  0  0  0  0  0  0  0
  140.1020   72.4790  220.2305 H   0  0  0  0  0  0  0  0  0  0  0  0
  140.1330   72.6286  218.3965 H   0  0  0  0  0  0  0  0  0  0  0  0
  141.8463   71.0608  219.8970 H   0  0  0  0  0  0  0  0  0  0  0  0
  142.1305   71.6935  218.2089 H   0  0  0  0  0  0  0  0  0  0  0  0
  144.1749   70.9486  220.5659 H   0  0  0  0  0  0  0  0  0  0  0  0
  146.1196   72.2367  221.4513 H   0  0  0  0  0  0  0  0  0  0  0  0
  146.1998   74.7159  221.1882 H   0  0  0  0  0  0  0  0  0  0  0  0
  144.3788   75.9064  219.9693 H   0  0  0  0  0  0  0  0  0  0  0  0
  142.1453   74.2885  217.7252 H   0  0  0  0  0  0  0  0  0  0  0  0
  144.3340   76.4697  218.1095 H   0  0  0  0  0  0  0  0  0  0  0  0
  143.6920   78.8650  217.3410 H   0  0  0  0  0  0  0  0  0  0  0  0
  141.3835   80.2604  216.9833 H   0  0  0  0  0  0  0  0  0  0  0  0
  138.8766   80.0333  217.0371 H   0  0  0  0  0  0  0  0  0  0  0  0
  137.8296   77.8675  217.7272 H   0  0  0  0  0  0  0  0  0  0  0  0
  139.2712   75.9203  218.4007 H   0  0  0  0  0  0  0  0  0  0  0  0
  1  2  2  0
  2  3  2  0
  2  4  1  0
  4  5  1  0
  5  6  2  0
  6  7  1  0
  7  8  2  0
  8  9  1  0
  9 10  1  0
  9 11  1  0
  9 12  1  0
  8 13  1  0
 13 14  2  0
  2 15  1  0
 15 16  1  0
 16 17  1  0
 17 18  1  0
 18 19  2  0
 19 20  1  0
 20 21  2  0
 21 22  1  0
 22 23  2  0
 23 24  1  0
 24 25  1  0
 25 26  2  0
 26 27  1  0
 27 28  1  0
 28 29  2  0
 29 30  1  0
 30 31  2  0
 31 32  1  0
 32 33  2  0
 14  5  1  0
 24 15  1  0
 33 25  1  0
 23 18  1  0
 33 28  1  0
  4 34  1  0
  4 35  1  0
  6 36  1  0
  7 37  1  0
 13 38  1  0
 14 39  1  0
 16 40  1  0
 16 41  1  0
 17 42  1  0
 17 43  1  0
 19 44  1  0
 20 45  1  0
 21 46  1  0
 22 47  1  0
 24 48  1  6
 26 49  1  0
 27 50  1  0
 29 51  1  0
 30 52  1  0
 31 53  1  0
 32 54  1  0
M  END
>  <UniqueID>  (1) 
189

>  <SMILES>  (1) 
O=S(=O)(Cc1ccc(C(F)(F)F)cc1)N1CCc2ccccc2[C@@H]1c1c[nH]c2ccccc12

>  <Energy>  (1) 
93.31607809198984

>  <Genealogy>  (1) 
O=S(=O)(Cc1ccc(C(F)(F)F)cc1)N1CCc2ccccc2[C@@H]1c1c[nH]c2ccccc12 (3D coordinates assigned)
O=S(=O)(Cc1ccc(C(F)(F)F)cc1)N1CCc2ccccc2[C@@H]1c1c[nH]c2ccccc12 (nonaromatic ring conformer: 93.31607809198984 kcal/mol)

>  <smiles>  (1) 
O=S(=O)(Cc1ccc(C(F)(F)F)cc1)N1CCc2ccccc2[C@@H]1c1c[nH]c2ccccc12

>  <score_type>  (1) 
oracle

>  <origin>  (1) 
autodockgpu

>  <m_score__min__energy>  (1) 
-7.4100000000000001

>  <m_primary>  (1) 
energy

>  <meeko>  (1) 
{"free_energy": -7.08, "intermolecular_energy": -8.57, "internal_energy": -2.24, "cluster_size": 4, "cluster_id": 2, "rank_in_cluster": 4}

>  <energy>  (1) 
-7.41

>  <cluster_rmsd>  (1) 
0.0

>  <rmsd>  (1) 
271.29

>  <cluster>  (1) 
1

$$$$
MHMHNRBLDMQEKR-XMMPIXPANA-N
     RDKit          3D

 54 58  0  0  0  0  0  0  0  0999 V2000
  139.3220   76.8240  219.5750 O   0  0  0  0  0  0  0  0  0  0  0  0
  140.6640   76.7100  218.9060 S   0  0  0  0  0  0  0  0  0  0  0  0
  140.6800   75.4680  218.0600 O   0  0  0  0  0  0  0  0  0  0  0  0
  140.9000   78.1290  217.8460 C   0  0  0  0  0  0  0  0  0  0  0  0
  140.7840   79.4000  218.6380 C   0  0  0  0  0  0  0  0  0  0  0  0
  141.9360   80.0500  219.1050 C   0  0  0  0  0  0  0  0  0  0  0  0
  141.8290   81.2120  219.8750 C   0  0  0  0  0  0  0  0  0  0  0  0
  140.5680   81.7490  220.1820 C   0  0  0  0  0  0  0  0  0  0  0  0
  140.4510   82.9730  221.0550 C   0  0  0  0  0  0  0  0  0  0  0  0
  140.2500   84.1050  220.2850 F   0  0  0  0  0  0  0  0  0  0  0  0
  141.6040   83.1540  221.7980 F   0  0  0  0  0  0  0  0  0  0  0  0
  139.3800   82.8170  221.9150 F   0  0  0  0  0  0  0  0  0  0  0  0
  139.4140   81.0740  219.7460 C   0  0  0  0  0  0  0  0  0  0  0  0
  139.5220   79.9120  218.9760 C   0  0  0  0  0  0  0  0  0  0  0  0
  141.9520   76.6580  220.1080 N   0  0  0  0  0  0  0  0  0  0  0  0
  142.9420   75.6010  219.7690 C   0  0  0  0  0  0  0  0  0  0  0  0
  142.7300   74.2340  220.4910 C   0  0  0  0  0  0  0  0  0  0  0  0
  141.3410   74.0700  221.0600 C   0  0  0  0  0  0  0  0  0  0  0  0
  140.7110   72.8170  221.0640 C   0  0  0  0  0  0  0  0  0  0  0  0
  139.3930   72.6990  221.5100 C   0  0  0  0  0  0  0  0  0  0  0  0
  138.6920   73.8320  221.9300 C   0  0  0  0  0  0  0  0  0  0  0  0
  139.3180   75.0800  221.9430 C   0  0  0  0  0  0  0  0  0  0  0  0
  140.6730   75.1970  221.5730 C   0  0  0  0  0  0  0  0  0  0  0  0
  141.4480   76.5020  221.4910 C   0  0  2  0  0  0  0  0  0  0  0  0
  140.7820   77.7560  222.0440 C   0  0  0  0  0  0  0  0  0  0  0  0
  139.4350   77.8570  222.4020 C   0  0  0  0  0  0  0  0  0  0  0  0
  139.1820   79.0220  223.0350 N   0  0  0  0  0  0  0  0  0  0  0  0
  140.3640   79.6450  223.1480 C   0  0  0  0  0  0  0  0  0  0  0  0
  140.6100   80.8490  223.8060 C   0  0  0  0  0  0  0  0  0  0  0  0
  141.9410   81.2880  223.9030 C   0  0  0  0  0  0  0  0  0  0  0  0
  142.9860   80.5080  223.3690 C   0  0  0  0  0  0  0  0  0  0  0  0
  142.7110   79.2920  222.7210 C   0  0  0  0  0  0  0  0  0  0  0  0
  141.3750   78.8940  222.5930 C   0  0  0  0  0  0  0  0  0  0  0  0
  141.8989   78.0772  217.3882 H   0  0  0  0  0  0  0  0  0  0  0  0
  140.1253   78.1235  217.0651 H   0  0  0  0  0  0  0  0  0  0  0  0
  142.9292   79.6432  218.8640 H   0  0  0  0  0  0  0  0  0  0  0  0
  142.7387   81.7091  220.2429 H   0  0  0  0  0  0  0  0  0  0  0  0
  138.4200   81.4626  220.0124 H   0  0  0  0  0  0  0  0  0  0  0  0
  138.6128   79.3964  218.6333 H   0  0  0  0  0  0  0  0  0  0  0  0
  142.8925   75.4240  218.6845 H   0  0  0  0  0  0  0  0  0  0  0  0
  143.9180   75.9772  220.1095 H   0  0  0  0  0  0  0  0  0  0  0  0
  142.9089   73.4251  219.7673 H   0  0  0  0  0  0  0  0  0  0  0  0
  143.4349   74.1976  221.3347 H   0  0  0  0  0  0  0  0  0  0  0  0
  141.2553   71.9268  220.7157 H   0  0  0  0  0  0  0  0  0  0  0  0
  138.9062   71.7128  221.5306 H   0  0  0  0  0  0  0  0  0  0  0  0
  137.6440   73.7407  222.2514 H   0  0  0  0  0  0  0  0  0  0  0  0
  138.7521   75.9744  222.2428 H   0  0  0  0  0  0  0  0  0  0  0  0
  142.2816   76.4061  222.2023 H   0  0  0  0  0  0  0  0  0  0  0  0
  138.6781   77.0862  222.1946 H   0  0  0  0  0  0  0  0  0  0  0  0
  138.2630   79.3380  223.4170 H   0  0  0  0  0  0  0  0  0  0  0  0
  139.7866   81.4378  224.2364 H   0  0  0  0  0  0  0  0  0  0  0  0
  142.1682   82.2440  224.3975 H   0  0  0  0  0  0  0  0  0  0  0  0
  144.0261   80.8541  223.4603 H   0  0  0  0  0  0  0  0  0  0  0  0
  143.5254   78.6682  222.3240 H   0  0  0  0  0  0  0  0  0  0  0  0
  1  2  2  0
  2  3  2  0
  2  4  1  0
  4  5  1  0
  5  6  2  0
  6  7  1  0
  7  8  2  0
  8  9  1  0
  9 10  1  0
  9 11  1  0
  9 12  1  0
  8 13  1  0
 13 14  2  0
  2 15  1  0
 15 16  1  0
 16 17  1  0
 17 18  1  0
 18 19  2  0
 19 20  1  0
 20 21  2  0
 21 22  1  0
 22 23  2  0
 23 24  1  0
 24 25  1  0
 25 26  2  0
 26 27  1  0
 27 28  1  0
 28 29  2  0
 29 30  1  0
 30 31  2  0
 31 32  1  0
 32 33  2  0
 14  5  1  0
 24 15  1  0
 33 25  1  0
 23 18  1  0
 33 28  1  0
  4 34  1  0
  4 35  1  0
  6 36  1  0
  7 37  1  0
 13 38  1  0
 14 39  1  0
 16 40  1  0
 16 41  1  0
 17 42  1  0
 17 43  1  0
 19 44  1  0
 20 45  1  0
 21 46  1  0
 22 47  1  0
 24 48  1  1
 26 49  1  0
 27 50  1  0
 29 51  1  0
 30 52  1  0
 31 53  1  0
 32 54  1  0
M  END
>  <UniqueID>  (2) 
189

>  <SMILES>  (2) 
O=S(=O)(Cc1ccc(C(F)(F)F)cc1)N1CCc2ccccc2[C@@H]1c1c[nH]c2ccccc12

>  <Energy>  (2) 
93.31607809198984

>  <Genealogy>  (2) 
O=S(=O)(Cc1ccc(C(F)(F)F)cc1)N1CCc2ccccc2[C@@H]1c1c[nH]c2ccccc12 (3D coordinates assigned)
O=S(=O)(Cc1ccc(C(F)(F)F)cc1)N1CCc2ccccc2[C@@H]1c1c[nH]c2ccccc12 (nonaromatic ring conformer: 93.31607809198984 kcal/mol)

>  <smiles>  (2) 
O=S(=O)(Cc1ccc(C(F)(F)F)cc1)N1CCc2ccccc2[C@@H]1c1c[nH]c2ccccc12

>  <score_type>  (2) 
oracle

>  <origin>  (2) 
autodockgpu

>  <m_score__min__energy>  (2) 
-7.4100000000000001

>  <m_primary>  (2) 
energy

>  <meeko>  (2) 
{"free_energy": -6.42, "intermolecular_energy": -7.91, "internal_energy": -2.88, "cluster_size": 7, "cluster_id": 3, "rank_in_cluster": 7}

>  <energy>  (2) 
-7.41

>  <cluster_rmsd>  (2) 
0.05

>  <rmsd>  (2) 
271.28

>  <cluster>  (2) 
1

$$$$
MHMHNRBLDMQEKR-XMMPIXPANA-N
     RDKit          3D

 54 58  0  0  0  0  0  0  0  0999 V2000
  139.3110   76.8110  219.5960 O   0  0  0  0  0  0  0  0  0  0  0  0
  140.6520   76.6980  218.9230 S   0  0  0  0  0  0  0  0  0  0  0  0
  140.6700   75.4490  218.0850 O   0  0  0  0  0  0  0  0  0  0  0  0
  140.8780   78.1100  217.8510 C   0  0  0  0  0  0  0  0  0  0  0  0
  140.7680   79.3860  218.6370 C   0  0  0  0  0  0  0  0  0  0  0  0
  141.9240   80.0390  219.0890 C   0  0  0  0  0  0  0  0  0  0  0  0
  141.8240   81.2060  219.8520 C   0  0  0  0  0  0  0  0  0  0  0  0
  140.5650   81.7450  220.1670 C   0  0  0  0  0  0  0  0  0  0  0  0
  140.4550   82.9740  221.0330 C   0  0  0  0  0  0  0  0  0  0  0  0
  141.6100   83.1540  221.7750 F   0  0  0  0  0  0  0  0  0  0  0  0
  139.3910   82.8590  221.9110 F   0  0  0  0  0  0  0  0  0  0  0  0
  140.2590   84.0810  220.2300 F   0  0  0  0  0  0  0  0  0  0  0  0
  139.4080   81.0660  219.7460 C   0  0  0  0  0  0  0  0  0  0  0  0
  139.5090   79.9000  218.9830 C   0  0  0  0  0  0  0  0  0  0  0  0
  141.9440   76.6600  220.1210 N   0  0  0  0  0  0  0  0  0  0  0  0
  142.9410   75.6090  219.7820 C   0  0  0  0  0  0  0  0  0  0  0  0
  142.7410   74.2440  220.5100 C   0  0  0  0  0  0  0  0  0  0  0  0
  141.3560   74.0710  221.0840 C   0  0  0  0  0  0  0  0  0  0  0  0
  140.7350   72.8140  221.0960 C   0  0  0  0  0  0  0  0  0  0  0  0
  139.4200   72.6870  221.5460 C   0  0  0  0  0  0  0  0  0  0  0  0
  138.7120   73.8160  221.9650 C   0  0  0  0  0  0  0  0  0  0  0  0
  139.3280   75.0700  221.9700 C   0  0  0  0  0  0  0  0  0  0  0  0
  140.6810   75.1960  221.5950 C   0  0  0  0  0  0  0  0  0  0  0  0
  141.4460   76.5060  221.5060 C   0  0  2  0  0  0  0  0  0  0  0  0
  140.7720   77.7570  222.0560 C   0  0  0  0  0  0  0  0  0  0  0  0
  139.4260   77.8490  222.4190 C   0  0  0  0  0  0  0  0  0  0  0  0
  139.1670   79.0150  223.0480 N   0  0  0  0  0  0  0  0  0  0  0  0
  140.3440   79.6470  223.1540 C   0  0  0  0  0  0  0  0  0  0  0  0
  140.5840   80.8550  223.8070 C   0  0  0  0  0  0  0  0  0  0  0  0
  141.9110   81.3050  223.8960 C   0  0  0  0  0  0  0  0  0  0  0  0
  142.9610   80.5310  223.3610 C   0  0  0  0  0  0  0  0  0  0  0  0
  142.6930   79.3100  222.7190 C   0  0  0  0  0  0  0  0  0  0  0  0
  141.3590   78.9020  222.5980 C   0  0  0  0  0  0  0  0  0  0  0  0
  141.8729   78.0558  217.3848 H   0  0  0  0  0  0  0  0  0  0  0  0
  140.0971   78.0991  217.0764 H   0  0  0  0  0  0  0  0  0  0  0  0
  142.9149   79.6305  218.8417 H   0  0  0  0  0  0  0  0  0  0  0  0
  142.7369   81.7057  220.2082 H   0  0  0  0  0  0  0  0  0  0  0  0
  138.4163   81.4556  220.0193 H   0  0  0  0  0  0  0  0  0  0  0  0
  138.5968   79.3822  218.6518 H   0  0  0  0  0  0  0  0  0  0  0  0
  142.8889   75.4275  218.6983 H   0  0  0  0  0  0  0  0  0  0  0  0
  143.9156   75.9936  220.1169 H   0  0  0  0  0  0  0  0  0  0  0  0
  142.9239   73.4337  219.7890 H   0  0  0  0  0  0  0  0  0  0  0  0
  143.4484   74.2170  221.3520 H   0  0  0  0  0  0  0  0  0  0  0  0
  141.2851   71.9265  220.7501 H   0  0  0  0  0  0  0  0  0  0  0  0
  138.9407   71.6972  221.5708 H   0  0  0  0  0  0  0  0  0  0  0  0
  137.6664   73.7174  222.2920 H   0  0  0  0  0  0  0  0  0  0  0  0
  138.7558   75.9612  222.2673 H   0  0  0  0  0  0  0  0  0  0  0  0
  142.2825   76.4195  222.2150 H   0  0  0  0  0  0  0  0  0  0  0  0
  138.6742   77.0715  222.2182 H   0  0  0  0  0  0  0  0  0  0  0  0
  138.2470   79.3250  223.4330 H   0  0  0  0  0  0  0  0  0  0  0  0
  139.7580   81.4385  224.2398 H   0  0  0  0  0  0  0  0  0  0  0  0
  142.1323   82.2652  224.3850 H   0  0  0  0  0  0  0  0  0  0  0  0
  143.9987   80.8858  223.4468 H   0  0  0  0  0  0  0  0  0  0  0  0
  143.5105   78.6905  222.3216 H   0  0  0  0  0  0  0  0  0  0  0  0
  1  2  2  0
  2  3  2  0
  2  4  1  0
  4  5  1  0
  5  6  2  0
  6  7  1  0
  7  8  2  0
  8  9  1  0
  9 10  1  0
  9 11  1  0
  9 12  1  0
  8 13  1  0
 13 14  2  0
  2 15  1  0
 15 16  1  0
 16 17  1  0
 17 18  1  0
 18 19  2  0
 19 20  1  0
 20 21  2  0
 21 22  1  0
 22 23  2  0
 23 24  1  0
 24 25  1  0
 25 26  2  0
 26 27  1  0
 27 28  1  0
 28 29  2  0
 29 30  1  0
 30 31  2  0
 31 32  1  0
 32 33  2  0
 14  5  1  0
 24 15  1  0
 33 25  1  0
 23 18  1  0
 33 28  1  0
  4 34  1  0
  4 35  1  0
  6 36  1  0
  7 37  1  0
 13 38  1  0
 14 39  1  0
 16 40  1  0
 16 41  1  0
 17 42  1  0
 17 43  1  0
 19 44  1  0
 20 45  1  0
 21 46  1  0
 22 47  1  0
 24 48  1  1
 26 49  1  0
 27 50  1  0
 29 51  1  0
 30 52  1  0
 31 53  1  0
 32 54  1  0
M  END
>  <UniqueID>  (3) 
189

>  <SMILES>  (3) 
O=S(=O)(Cc1ccc(C(F)(F)F)cc1)N1CCc2ccccc2[C@@H]1c1c[nH]c2ccccc12

>  <Energy>  (3) 
93.31607809198984

>  <Genealogy>  (3) 
O=S(=O)(Cc1ccc(C(F)(F)F)cc1)N1CCc2ccccc2[C@@H]1c1c[nH]c2ccccc12 (3D coordinates assigned)
O=S(=O)(Cc1ccc(C(F)(F)F)cc1)N1CCc2ccccc2[C@@H]1c1c[nH]c2ccccc12 (nonaromatic ring conformer: 93.31607809198984 kcal/mol)

>  <smiles>  (3) 
O=S(=O)(Cc1ccc(C(F)(F)F)cc1)N1CCc2ccccc2[C@@H]1c1c[nH]c2ccccc12

>  <score_type>  (3) 
oracle

>  <origin>  (3) 
autodockgpu

>  <m_score__min__energy>  (3) 
-7.4100000000000001

>  <m_primary>  (3) 
energy

>  <meeko>  (3) 
{"free_energy": -6.43, "intermolecular_energy": -7.92, "internal_energy": -2.88, "cluster_size": 7, "cluster_id": 3, "rank_in_cluster": 6}

>  <energy>  (3) 
-7.4

>  <cluster_rmsd>  (3) 
0.05

>  <rmsd>  (3) 
271.28

>  <cluster>  (3) 
1

$$$$
MHMHNRBLDMQEKR-XMMPIXPANA-N
     RDKit          3D

 54 58  0  0  0  0  0  0  0  0999 V2000
  139.8380   75.2320  222.5020 O   0  0  0  0  0  0  0  0  0  0  0  0
  138.6500   75.2350  221.5800 S   0  0  0  0  0  0  0  0  0  0  0  0
  137.4260   74.8470  222.3640 O   0  0  0  0  0  0  0  0  0  0  0  0
  138.4210   76.8890  220.9430 C   0  0  0  0  0  0  0  0  0  0  0  0
  139.4440   77.8210  221.5270 C   0  0  0  0  0  0  0  0  0  0  0  0
  140.5100   78.2830  220.7410 C   0  0  0  0  0  0  0  0  0  0  0  0
  141.4840   79.1210  221.2930 C   0  0  0  0  0  0  0  0  0  0  0  0
  141.4020   79.5180  222.6390 C   0  0  0  0  0  0  0  0  0  0  0  0
  142.4800   80.3780  223.2480 C   0  0  0  0  0  0  0  0  0  0  0  0
  142.1630   81.7190  223.1240 F   0  0  0  0  0  0  0  0  0  0  0  0
  143.6930   80.1600  222.6180 F   0  0  0  0  0  0  0  0  0  0  0  0
  142.6070   80.0670  224.5890 F   0  0  0  0  0  0  0  0  0  0  0  0
  140.3550   79.0210  223.4340 C   0  0  0  0  0  0  0  0  0  0  0  0
  139.3810   78.1840  222.8810 C   0  0  0  0  0  0  0  0  0  0  0  0
  138.9050   74.1210  220.2390 N   0  0  0  0  0  0  0  0  0  0  0  0
  137.6700   73.3370  219.9670 C   0  0  0  0  0  0  0  0  0  0  0  0
  137.6190   71.9270  220.6310 C   0  0  0  0  0  0  0  0  0  0  0  0
  138.6010   71.7670  221.7670 C   0  0  0  0  0  0  0  0  0  0  0  0
  138.2750   70.9990  222.8950 C   0  0  0  0  0  0  0  0  0  0  0  0
  139.1560   70.9350  223.9760 C   0  0  0  0  0  0  0  0  0  0  0  0
  140.3520   71.6550  223.9470 C   0  0  0  0  0  0  0  0  0  0  0  0
  140.6910   72.4100  222.8210 C   0  0  0  0  0  0  0  0  0  0  0  0
  139.8470   72.4150  221.6920 C   0  0  0  0  0  0  0  0  0  0  0  0
  140.0750   73.2370  220.4340 C   0  0  2  0  0  0  0  0  0  0  0  0
  141.4130   73.9520  220.2880 C   0  0  0  0  0  0  0  0  0  0  0  0
  141.5990   75.3330  220.3890 C   0  0  0  0  0  0  0  0  0  0  0  0
  142.9110   75.6510  220.4080 N   0  0  0  0  0  0  0  0  0  0  0  0
  143.5730   74.4860  220.3880 C   0  0  0  0  0  0  0  0  0  0  0  0
  144.9530   74.3120  220.4770 C   0  0  0  0  0  0  0  0  0  0  0  0
  145.4500   73.0000  220.5420 C   0  0  0  0  0  0  0  0  0  0  0  0
  144.5640   71.9040  220.5440 C   0  0  0  0  0  0  0  0  0  0  0  0
  143.1750   72.1080  220.4660 C   0  0  0  0  0  0  0  0  0  0  0  0
  142.7020   73.4210  220.3540 C   0  0  0  0  0  0  0  0  0  0  0  0
  138.5275   76.8738  219.8483 H   0  0  0  0  0  0  0  0  0  0  0  0
  137.4168   77.2424  221.2200 H   0  0  0  0  0  0  0  0  0  0  0  0
  140.5802   77.9845  219.6846 H   0  0  0  0  0  0  0  0  0  0  0  0
  142.3198   79.4718  220.6698 H   0  0  0  0  0  0  0  0  0  0  0  0
  140.3014   79.2924  224.4987 H   0  0  0  0  0  0  0  0  0  0  0  0
  138.5611   77.8081  223.5106 H   0  0  0  0  0  0  0  0  0  0  0  0
  136.8107   73.9173  220.3342 H   0  0  0  0  0  0  0  0  0  0  0  0
  137.6514   73.1638  218.8809 H   0  0  0  0  0  0  0  0  0  0  0  0
  136.6039   71.7609  221.0207 H   0  0  0  0  0  0  0  0  0  0  0  0
  137.8912   71.1926  219.8586 H   0  0  0  0  0  0  0  0  0  0  0  0
  137.3242   70.4467  222.9276 H   0  0  0  0  0  0  0  0  0  0  0  0
  138.9078   70.3168  224.8514 H   0  0  0  0  0  0  0  0  0  0  0  0
  141.0295   71.6278  224.8132 H   0  0  0  0  0  0  0  0  0  0  0  0
  141.6183   73.0016  222.8157 H   0  0  0  0  0  0  0  0  0  0  0  0
  140.1616   72.5142  219.6093 H   0  0  0  0  0  0  0  0  0  0  0  0
  140.7816   76.0669  220.4458 H   0  0  0  0  0  0  0  0  0  0  0  0
  143.3200   76.6080  220.4910 H   0  0  0  0  0  0  0  0  0  0  0  0
  145.6328   75.1766  220.4958 H   0  0  0  0  0  0  0  0  0  0  0  0
  146.5352   72.8272  220.5916 H   0  0  0  0  0  0  0  0  0  0  0  0
  144.9624   70.8806  220.6071 H   0  0  0  0  0  0  0  0  0  0  0  0
  142.4777   71.2576  220.4923 H   0  0  0  0  0  0  0  0  0  0  0  0
  1  2  2  0
  2  3  2  0
  2  4  1  0
  4  5  1  0
  5  6  2  0
  6  7  1  0
  7  8  2  0
  8  9  1  0
  9 10  1  0
  9 11  1  0
  9 12  1  0
  8 13  1  0
 13 14  2  0
  2 15  1  0
 15 16  1  0
 16 17  1  0
 17 18  1  0
 18 19  2  0
 19 20  1  0
 20 21  2  0
 21 22  1  0
 22 23  2  0
 23 24  1  0
 24 25  1  0
 25 26  2  0
 26 27  1  0
 27 28  1  0
 28 29  2  0
 29 30  1  0
 30 31  2  0
 31 32  1  0
 32 33  2  0
 14  5  1  0
 24 15  1  0
 33 25  1  0
 23 18  1  0
 33 28  1  0
  4 34  1  0
  4 35  1  0
  6 36  1  0
  7 37  1  0
 13 38  1  0
 14 39  1  0
 16 40  1  0
 16 41  1  0
 17 42  1  0
 17 43  1  0
 19 44  1  0
 20 45  1  0
 21 46  1  0
 22 47  1  0
 24 48  1  6
 26 49  1  0
 27 50  1  0
 29 51  1  0
 30 52  1  0
 31 53  1  0
 32 54  1  0
M  END
>  <UniqueID>  (4) 
189

>  <SMILES>  (4) 
O=S(=O)(Cc1ccc(C(F)(F)F)cc1)N1CCc2ccccc2[C@@H]1c1c[nH]c2ccccc12

>  <Energy>  (4) 
93.31607809198984

>  <Genealogy>  (4) 
O=S(=O)(Cc1ccc(C(F)(F)F)cc1)N1CCc2ccccc2[C@@H]1c1c[nH]c2ccccc12 (3D coordinates assigned)
O=S(=O)(Cc1ccc(C(F)(F)F)cc1)N1CCc2ccccc2[C@@H]1c1c[nH]c2ccccc12 (nonaromatic ring conformer: 93.31607809198984 kcal/mol)

>  <smiles>  (4) 
O=S(=O)(Cc1ccc(C(F)(F)F)cc1)N1CCc2ccccc2[C@@H]1c1c[nH]c2ccccc12

>  <score_type>  (4) 
oracle

>  <origin>  (4) 
autodockgpu

>  <m_score__min__energy>  (4) 
-7.4100000000000001

>  <m_primary>  (4) 
energy

>  <meeko>  (4) 
{"free_energy": -7.32, "intermolecular_energy": -8.81, "internal_energy": -2.02, "cluster_size": 9, "cluster_id": 1, "rank_in_cluster": 8}

>  <energy>  (4) 
-7.4

>  <cluster_rmsd>  (4) 
0.18

>  <rmsd>  (4) 
271.37

>  <cluster>  (4) 
1

$$$$
MHMHNRBLDMQEKR-XMMPIXPANA-N
     RDKit          3D

 54 58  0  0  0  0  0  0  0  0999 V2000
  139.2950   76.8270  219.5860 O   0  0  0  0  0  0  0  0  0  0  0  0
  140.6330   76.7200  218.9070 S   0  0  0  0  0  0  0  0  0  0  0  0
  140.6500   75.4770  218.0610 O   0  0  0  0  0  0  0  0  0  0  0  0
  140.8540   78.1400  217.8440 C   0  0  0  0  0  0  0  0  0  0  0  0
  140.7540   79.4100  218.6400 C   0  0  0  0  0  0  0  0  0  0  0  0
  141.9160   80.0900  219.0360 C   0  0  0  0  0  0  0  0  0  0  0  0
  141.8260   81.2520  219.8080 C   0  0  0  0  0  0  0  0  0  0  0  0
  140.5720   81.7580  220.1890 C   0  0  0  0  0  0  0  0  0  0  0  0
  140.4770   82.9820  221.0650 C   0  0  0  0  0  0  0  0  0  0  0  0
  139.4100   82.8750  221.9400 F   0  0  0  0  0  0  0  0  0  0  0  0
  140.2940   84.1190  220.2980 F   0  0  0  0  0  0  0  0  0  0  0  0
  141.6440   83.1120  221.7930 F   0  0  0  0  0  0  0  0  0  0  0  0
  139.4120   81.0530  219.8240 C   0  0  0  0  0  0  0  0  0  0  0  0
  139.5020   79.8910  219.0520 C   0  0  0  0  0  0  0  0  0  0  0  0
  141.9290   76.6750  220.1000 N   0  0  0  0  0  0  0  0  0  0  0  0
  142.9240   75.6250  219.7540 C   0  0  0  0  0  0  0  0  0  0  0  0
  142.7250   74.2570  220.4770 C   0  0  0  0  0  0  0  0  0  0  0  0
  141.3420   74.0840  221.0550 C   0  0  0  0  0  0  0  0  0  0  0  0
  140.7200   72.8270  221.0630 C   0  0  0  0  0  0  0  0  0  0  0  0
  139.4060   72.7000  221.5180 C   0  0  0  0  0  0  0  0  0  0  0  0
  138.7000   73.8280  221.9430 C   0  0  0  0  0  0  0  0  0  0  0  0
  139.3180   75.0810  221.9520 C   0  0  0  0  0  0  0  0  0  0  0  0
  140.6700   75.2060  221.5730 C   0  0  0  0  0  0  0  0  0  0  0  0
  141.4360   76.5160  221.4870 C   0  0  2  0  0  0  0  0  0  0  0  0
  140.7660   77.7660  222.0440 C   0  0  0  0  0  0  0  0  0  0  0  0
  139.4190   77.8600  222.4050 C   0  0  0  0  0  0  0  0  0  0  0  0
  139.1630   79.0220  223.0420 N   0  0  0  0  0  0  0  0  0  0  0  0
  140.3420   79.6490  223.1550 C   0  0  0  0  0  0  0  0  0  0  0  0
  140.5840   80.8520  223.8170 C   0  0  0  0  0  0  0  0  0  0  0  0
  141.9130   81.2960  223.9130 C   0  0  0  0  0  0  0  0  0  0  0  0
  142.9610   80.5220  223.3750 C   0  0  0  0  0  0  0  0  0  0  0  0
  142.6900   79.3070  222.7240 C   0  0  0  0  0  0  0  0  0  0  0  0
  141.3550   78.9040  222.5960 C   0  0  0  0  0  0  0  0  0  0  0  0
  141.8449   78.0868  217.3693 H   0  0  0  0  0  0  0  0  0  0  0  0
  140.0665   78.1371  217.0760 H   0  0  0  0  0  0  0  0  0  0  0  0
  142.9028   79.7066  218.7374 H   0  0  0  0  0  0  0  0  0  0  0  0
  142.7431   81.7736  220.1192 H   0  0  0  0  0  0  0  0  0  0  0  0
  138.4263   81.4182  220.1482 H   0  0  0  0  0  0  0  0  0  0  0  0
  138.5871   79.3513  218.7663 H   0  0  0  0  0  0  0  0  0  0  0  0
  142.8688   75.4480  218.6697 H   0  0  0  0  0  0  0  0  0  0  0  0
  143.8999   76.0075  220.0878 H   0  0  0  0  0  0  0  0  0  0  0  0
  142.9041   73.4494  219.7519 H   0  0  0  0  0  0  0  0  0  0  0  0
  143.4355   74.2252  221.3161 H   0  0  0  0  0  0  0  0  0  0  0  0
  141.2677   71.9405  220.7106 H   0  0  0  0  0  0  0  0  0  0  0  0
  138.9262   71.7104  221.5418 H   0  0  0  0  0  0  0  0  0  0  0  0
  137.6548   73.7295  222.2714 H   0  0  0  0  0  0  0  0  0  0  0  0
  138.7484   75.9718  222.2554 H   0  0  0  0  0  0  0  0  0  0  0  0
  142.2743   76.4255  222.1935 H   0  0  0  0  0  0  0  0  0  0  0  0
  138.6649   77.0867  222.1968 H   0  0  0  0  0  0  0  0  0  0  0  0
  138.2430   79.3330  223.4270 H   0  0  0  0  0  0  0  0  0  0  0  0
  139.7589   81.4358  224.2510 H   0  0  0  0  0  0  0  0  0  0  0  0
  142.1369   82.2515  224.4099 H   0  0  0  0  0  0  0  0  0  0  0  0
  143.9998   80.8723  223.4657 H   0  0  0  0  0  0  0  0  0  0  0  0
  143.5064   78.6874  222.3246 H   0  0  0  0  0  0  0  0  0  0  0  0
  1  2  2  0
  2  3  2  0
  2  4  1  0
  4  5  1  0
  5  6  2  0
  6  7  1  0
  7  8  2  0
  8  9  1  0
  9 10  1  0
  9 11  1  0
  9 12  1  0
  8 13  1  0
 13 14  2  0
  2 15  1  0
 15 16  1  0
 16 17  1  0
 17 18  1  0
 18 19  2  0
 19 20  1  0
 20 21  2  0
 21 22  1  0
 22 23  2  0
 23 24  1  0
 24 25  1  0
 25 26  2  0
 26 27  1  0
 27 28  1  0
 28 29  2  0
 29 30  1  0
 30 31  2  0
 31 32  1  0
 32 33  2  0
 14  5  1  0
 24 15  1  0
 33 25  1  0
 23 18  1  0
 33 28  1  0
  4 34  1  0
  4 35  1  0
  6 36  1  0
  7 37  1  0
 13 38  1  0
 14 39  1  0
 16 40  1  0
 16 41  1  0
 17 42  1  0
 17 43  1  0
 19 44  1  0
 20 45  1  0
 21 46  1  0
 22 47  1  0
 24 48  1  1
 26 49  1  0
 27 50  1  0
 29 51  1  0
 30 52  1  0
 31 53  1  0
 32 54  1  0
M  END
>  <UniqueID>  (5) 
189

>  <SMILES>  (5) 
O=S(=O)(Cc1ccc(C(F)(F)F)cc1)N1CCc2ccccc2[C@@H]1c1c[nH]c2ccccc12

>  <Energy>  (5) 
93.31607809198984

>  <Genealogy>  (5) 
O=S(=O)(Cc1ccc(C(F)(F)F)cc1)N1CCc2ccccc2[C@@H]1c1c[nH]c2ccccc12 (3D coordinates assigned)
O=S(=O)(Cc1ccc(C(F)(F)F)cc1)N1CCc2ccccc2[C@@H]1c1c[nH]c2ccccc12 (nonaromatic ring conformer: 93.31607809198984 kcal/mol)

>  <smiles>  (5) 
O=S(=O)(Cc1ccc(C(F)(F)F)cc1)N1CCc2ccccc2[C@@H]1c1c[nH]c2ccccc12

>  <score_type>  (5) 
oracle

>  <origin>  (5) 
autodockgpu

>  <m_score__min__energy>  (5) 
-7.4100000000000001

>  <m_primary>  (5) 
energy

>  <meeko>  (5) 
{"free_energy": -6.43, "intermolecular_energy": -7.92, "internal_energy": -2.88, "cluster_size": 7, "cluster_id": 3, "rank_in_cluster": 4}

>  <energy>  (5) 
-7.38

>  <cluster_rmsd>  (5) 
0.15

>  <rmsd>  (5) 
271.37

>  <cluster>  (5) 
1

$$$$
MHMHNRBLDMQEKR-XMMPIXPANA-N
     RDKit          3D

 54 58  0  0  0  0  0  0  0  0999 V2000
  139.3040   76.8580  219.5760 O   0  0  0  0  0  0  0  0  0  0  0  0
  140.6420   76.7570  218.8980 S   0  0  0  0  0  0  0  0  0  0  0  0
  140.6650   75.5160  218.0490 O   0  0  0  0  0  0  0  0  0  0  0  0
  140.8580   78.1800  217.8370 C   0  0  0  0  0  0  0  0  0  0  0  0
  140.7550   79.4480  218.6350 C   0  0  0  0  0  0  0  0  0  0  0  0
  141.9140   80.0820  219.1070 C   0  0  0  0  0  0  0  0  0  0  0  0
  141.8200   81.2420  219.8820 C   0  0  0  0  0  0  0  0  0  0  0  0
  140.5640   81.7930  220.1890 C   0  0  0  0  0  0  0  0  0  0  0  0
  140.4600   83.0130  221.0670 C   0  0  0  0  0  0  0  0  0  0  0  0
  140.2800   84.1520  220.3030 F   0  0  0  0  0  0  0  0  0  0  0  0
  141.6130   83.1740  221.8170 F   0  0  0  0  0  0  0  0  0  0  0  0
  139.3840   82.8690  221.9220 F   0  0  0  0  0  0  0  0  0  0  0  0
  139.4040   81.1330  219.7480 C   0  0  0  0  0  0  0  0  0  0  0  0
  139.4990   79.9730  218.9730 C   0  0  0  0  0  0  0  0  0  0  0  0
  141.9390   76.7160  220.0910 N   0  0  0  0  0  0  0  0  0  0  0  0
  142.9350   75.6670  219.7450 C   0  0  0  0  0  0  0  0  0  0  0  0
  142.7390   74.3000  220.4690 C   0  0  0  0  0  0  0  0  0  0  0  0
  141.3560   74.1240  221.0480 C   0  0  0  0  0  0  0  0  0  0  0  0
  140.7360   72.8660  221.0580 C   0  0  0  0  0  0  0  0  0  0  0  0
  139.4220   72.7370  221.5130 C   0  0  0  0  0  0  0  0  0  0  0  0
  138.7150   73.8650  221.9370 C   0  0  0  0  0  0  0  0  0  0  0  0
  139.3310   75.1190  221.9440 C   0  0  0  0  0  0  0  0  0  0  0  0
  140.6830   75.2460  221.5650 C   0  0  0  0  0  0  0  0  0  0  0  0
  141.4460   76.5580  221.4770 C   0  0  2  0  0  0  0  0  0  0  0  0
  140.7730   77.8070  222.0330 C   0  0  0  0  0  0  0  0  0  0  0  0
  139.4240   77.9010  222.3850 C   0  0  0  0  0  0  0  0  0  0  0  0
  139.1650   79.0620  223.0240 N   0  0  0  0  0  0  0  0  0  0  0  0
  140.3440   79.6870  223.1470 C   0  0  0  0  0  0  0  0  0  0  0  0
  140.5830   80.8880  223.8140 C   0  0  0  0  0  0  0  0  0  0  0  0
  141.9120   81.3290  223.9210 C   0  0  0  0  0  0  0  0  0  0  0  0
  142.9630   80.5560  223.3880 C   0  0  0  0  0  0  0  0  0  0  0  0
  142.6950   79.3430  222.7310 C   0  0  0  0  0  0  0  0  0  0  0  0
  141.3600   78.9430  222.5930 C   0  0  0  0  0  0  0  0  0  0  0  0
  141.8486   78.1305  217.3613 H   0  0  0  0  0  0  0  0  0  0  0  0
  140.0698   78.1761  217.0697 H   0  0  0  0  0  0  0  0  0  0  0  0
  142.9026   79.6641  218.8660 H   0  0  0  0  0  0  0  0  0  0  0  0
  142.7349   81.7264  220.2538 H   0  0  0  0  0  0  0  0  0  0  0  0
  138.4142   81.5320  220.0145 H   0  0  0  0  0  0  0  0  0  0  0  0
  138.5842   79.4697  218.6267 H   0  0  0  0  0  0  0  0  0  0  0  0
  142.8789   75.4889  218.6610 H   0  0  0  0  0  0  0  0  0  0  0  0
  143.9106   76.0512  220.0776 H   0  0  0  0  0  0  0  0  0  0  0  0
  142.9197   73.4922  219.7446 H   0  0  0  0  0  0  0  0  0  0  0  0
  143.4497   74.2708  221.3081 H   0  0  0  0  0  0  0  0  0  0  0  0
  141.2853   71.9800  220.7071 H   0  0  0  0  0  0  0  0  0  0  0  0
  138.9434   71.7469  221.5376 H   0  0  0  0  0  0  0  0  0  0  0  0
  137.6702   73.7655  222.2663 H   0  0  0  0  0  0  0  0  0  0  0  0
  138.7598   76.0093  222.2459 H   0  0  0  0  0  0  0  0  0  0  0  0
  142.2847   76.4708  222.1834 H   0  0  0  0  0  0  0  0  0  0  0  0
  138.6705   77.1291  222.1694 H   0  0  0  0  0  0  0  0  0  0  0  0
  138.2430   79.3730  223.4020 H   0  0  0  0  0  0  0  0  0  0  0  0
  139.7557   81.4722  224.2433 H   0  0  0  0  0  0  0  0  0  0  0  0
  142.1337   82.2822  224.4232 H   0  0  0  0  0  0  0  0  0  0  0  0
  144.0015   80.9050  223.4871 H   0  0  0  0  0  0  0  0  0  0  0  0
  143.5131   78.7234  222.3351 H   0  0  0  0  0  0  0  0  0  0  0  0
  1  2  2  0
  2  3  2  0
  2  4  1  0
  4  5  1  0
  5  6  2  0
  6  7  1  0
  7  8  2  0
  8  9  1  0
  9 10  1  0
  9 11  1  0
  9 12  1  0
  8 13  1  0
 13 14  2  0
  2 15  1  0
 15 16  1  0
 16 17  1  0
 17 18  1  0
 18 19  2  0
 19 20  1  0
 20 21  2  0
 21 22  1  0
 22 23  2  0
 23 24  1  0
 24 25  1  0
 25 26  2  0
 26 27  1  0
 27 28  1  0
 28 29  2  0
 29 30  1  0
 30 31  2  0
 31 32  1  0
 32 33  2  0
 14  5  1  0
 24 15  1  0
 33 25  1  0
 23 18  1  0
 33 28  1  0
  4 34  1  0
  4 35  1  0
  6 36  1  0
  7 37  1  0
 13 38  1  0
 14 39  1  0
 16 40  1  0
 16 41  1  0
 17 42  1  0
 17 43  1  0
 19 44  1  0
 20 45  1  0
 21 46  1  0
 22 47  1  0
 24 48  1  1
 26 49  1  0
 27 50  1  0
 29 51  1  0
 30 52  1  0
 31 53  1  0
 32 54  1  0
M  END
>  <UniqueID>  (6) 
189

>  <SMILES>  (6) 
O=S(=O)(Cc1ccc(C(F)(F)F)cc1)N1CCc2ccccc2[C@@H]1c1c[nH]c2ccccc12

>  <Energy>  (6) 
93.31607809198984

>  <Genealogy>  (6) 
O=S(=O)(Cc1ccc(C(F)(F)F)cc1)N1CCc2ccccc2[C@@H]1c1c[nH]c2ccccc12 (3D coordinates assigned)
O=S(=O)(Cc1ccc(C(F)(F)F)cc1)N1CCc2ccccc2[C@@H]1c1c[nH]c2ccccc12 (nonaromatic ring conformer: 93.31607809198984 kcal/mol)

>  <smiles>  (6) 
O=S(=O)(Cc1ccc(C(F)(F)F)cc1)N1CCc2ccccc2[C@@H]1c1c[nH]c2ccccc12

>  <score_type>  (6) 
oracle

>  <origin>  (6) 
autodockgpu

>  <m_score__min__energy>  (6) 
-7.4100000000000001

>  <m_primary>  (6) 
energy

>  <meeko>  (6) 
{"free_energy": -6.43, "intermolecular_energy": -7.92, "internal_energy": -2.88, "cluster_size": 7, "cluster_id": 3, "rank_in_cluster": 5}

>  <energy>  (6) 
-7.38

>  <cluster_rmsd>  (6) 
0.1

>  <rmsd>  (6) 
271.33

>  <cluster>  (6) 
1

$$$$
MHMHNRBLDMQEKR-XMMPIXPANA-N
     RDKit          3D

 54 58  0  0  0  0  0  0  0  0999 V2000
  139.8140   75.1720  222.5520 O   0  0  0  0  0  0  0  0  0  0  0  0
  138.6450   75.2250  221.6060 S   0  0  0  0  0  0  0  0  0  0  0  0
  137.3940   74.8700  222.3610 O   0  0  0  0  0  0  0  0  0  0  0  0
  138.4840   76.8930  220.9840 C   0  0  0  0  0  0  0  0  0  0  0  0
  139.5550   77.7730  221.5640 C   0  0  0  0  0  0  0  0  0  0  0  0
  139.4930   78.1670  222.9090 C   0  0  0  0  0  0  0  0  0  0  0  0
  140.4680   79.0170  223.4420 C   0  0  0  0  0  0  0  0  0  0  0  0
  141.5250   79.4780  222.6400 C   0  0  0  0  0  0  0  0  0  0  0  0
  142.5470   80.4350  223.2000 C   0  0  0  0  0  0  0  0  0  0  0  0
  143.8090   80.1440  222.7130 F   0  0  0  0  0  0  0  0  0  0  0  0
  142.5870   80.3530  224.5810 F   0  0  0  0  0  0  0  0  0  0  0  0
  142.2100   81.7250  222.8350 F   0  0  0  0  0  0  0  0  0  0  0  0
  141.5620   79.1130  221.2830 C   0  0  0  0  0  0  0  0  0  0  0  0
  140.5870   78.2640  220.7510 C   0  0  0  0  0  0  0  0  0  0  0  0
  138.8900   74.1190  220.2570 N   0  0  0  0  0  0  0  0  0  0  0  0
  137.6550   73.3340  219.9920 C   0  0  0  0  0  0  0  0  0  0  0  0
  137.6120   71.9200  220.6500 C   0  0  0  0  0  0  0  0  0  0  0  0
  138.6030   71.7560  221.7770 C   0  0  0  0  0  0  0  0  0  0  0  0
  138.2890   70.9820  222.9030 C   0  0  0  0  0  0  0  0  0  0  0  0
  139.1790   70.9150  223.9760 C   0  0  0  0  0  0  0  0  0  0  0  0
  140.3740   71.6370  223.9400 C   0  0  0  0  0  0  0  0  0  0  0  0
  140.7020   72.3980  222.8150 C   0  0  0  0  0  0  0  0  0  0  0  0
  139.8480   72.4070  221.6930 C   0  0  0  0  0  0  0  0  0  0  0  0
  140.0640   73.2350  220.4370 C   0  0  2  0  0  0  0  0  0  0  0  0
  141.3990   73.9530  220.2840 C   0  0  0  0  0  0  0  0  0  0  0  0
  141.5840   75.3340  220.3950 C   0  0  0  0  0  0  0  0  0  0  0  0
  142.8960   75.6530  220.4030 N   0  0  0  0  0  0  0  0  0  0  0  0
  143.5590   74.4890  220.3640 C   0  0  0  0  0  0  0  0  0  0  0  0
  144.9410   74.3160  220.4360 C   0  0  0  0  0  0  0  0  0  0  0  0
  145.4400   73.0040  220.4830 C   0  0  0  0  0  0  0  0  0  0  0  0
  144.5550   71.9070  220.4850 C   0  0  0  0  0  0  0  0  0  0  0  0
  143.1660   72.1100  220.4250 C   0  0  0  0  0  0  0  0  0  0  0  0
  142.6890   73.4230  220.3300 C   0  0  0  0  0  0  0  0  0  0  0  0
  138.5778   76.8820  219.8881 H   0  0  0  0  0  0  0  0  0  0  0  0
  137.4999   77.2892  221.2747 H   0  0  0  0  0  0  0  0  0  0  0  0
  138.6736   77.8058  223.5478 H   0  0  0  0  0  0  0  0  0  0  0  0
  140.4065   79.3263  224.4958 H   0  0  0  0  0  0  0  0  0  0  0  0
  142.3635   79.4980  220.6354 H   0  0  0  0  0  0  0  0  0  0  0  0
  140.6295   77.9796  219.6893 H   0  0  0  0  0  0  0  0  0  0  0  0
  136.7977   73.9109  220.3691 H   0  0  0  0  0  0  0  0  0  0  0  0
  137.6279   73.1657  218.9053 H   0  0  0  0  0  0  0  0  0  0  0  0
  136.6003   71.7502  221.0471 H   0  0  0  0  0  0  0  0  0  0  0  0
  137.8795   71.1900  219.8718 H   0  0  0  0  0  0  0  0  0  0  0  0
  137.3401   70.4269  222.9408 H   0  0  0  0  0  0  0  0  0  0  0  0
  138.9390   70.2929  224.8509 H   0  0  0  0  0  0  0  0  0  0  0  0
  141.0591   71.6065  224.8000 H   0  0  0  0  0  0  0  0  0  0  0  0
  141.6282   72.9913  222.8046 H   0  0  0  0  0  0  0  0  0  0  0  0
  140.1447   72.5168  219.6078 H   0  0  0  0  0  0  0  0  0  0  0  0
  140.7664   76.0663  220.4666 H   0  0  0  0  0  0  0  0  0  0  0  0
  143.3050   76.6090  220.4900 H   0  0  0  0  0  0  0  0  0  0  0  0
  145.6199   75.1813  220.4554 H   0  0  0  0  0  0  0  0  0  0  0  0
  146.5259   72.8319  220.5184 H   0  0  0  0  0  0  0  0  0  0  0  0
  144.9551   70.8835  220.5339 H   0  0  0  0  0  0  0  0  0  0  0  0
  142.4704   71.2583  220.4520 H   0  0  0  0  0  0  0  0  0  0  0  0
  1  2  2  0
  2  3  2  0
  2  4  1  0
  4  5  1  0
  5  6  2  0
  6  7  1  0
  7  8  2  0
  8  9  1  0
  9 10  1  0
  9 11  1  0
  9 12  1  0
  8 13  1  0
 13 14  2  0
  2 15  1  0
 15 16  1  0
 16 17  1  0
 17 18  1  0
 18 19  2  0
 19 20  1  0
 20 21  2  0
 21 22  1  0
 22 23  2  0
 23 24  1  0
 24 25  1  0
 25 26  2  0
 26 27  1  0
 27 28  1  0
 28 29  2  0
 29 30  1  0
 30 31  2  0
 31 32  1  0
 32 33  2  0
 14  5  1  0
 24 15  1  0
 33 25  1  0
 23 18  1  0
 33 28  1  0
  4 34  1  0
  4 35  1  0
  6 36  1  0
  7 37  1  0
 13 38  1  0
 14 39  1  0
 16 40  1  0
 16 41  1  0
 17 42  1  0
 17 43  1  0
 19 44  1  0
 20 45  1  0
 21 46  1  0
 22 47  1  0
 24 48  1  6
 26 49  1  0
 27 50  1  0
 29 51  1  0
 30 52  1  0
 31 53  1  0
 32 54  1  0
M  END
>  <UniqueID>  (7) 
189

>  <SMILES>  (7) 
O=S(=O)(Cc1ccc(C(F)(F)F)cc1)N1CCc2ccccc2[C@@H]1c1c[nH]c2ccccc12

>  <Energy>  (7) 
93.31607809198984

>  <Genealogy>  (7) 
O=S(=O)(Cc1ccc(C(F)(F)F)cc1)N1CCc2ccccc2[C@@H]1c1c[nH]c2ccccc12 (3D coordinates assigned)
O=S(=O)(Cc1ccc(C(F)(F)F)cc1)N1CCc2ccccc2[C@@H]1c1c[nH]c2ccccc12 (nonaromatic ring conformer: 93.31607809198984 kcal/mol)

>  <smiles>  (7) 
O=S(=O)(Cc1ccc(C(F)(F)F)cc1)N1CCc2ccccc2[C@@H]1c1c[nH]c2ccccc12

>  <score_type>  (7) 
oracle

>  <origin>  (7) 
autodockgpu

>  <m_score__min__energy>  (7) 
-7.4100000000000001

>  <m_primary>  (7) 
energy

>  <meeko>  (7) 
{"free_energy": -7.41, "intermolecular_energy": -8.9, "internal_energy": -2.01, "cluster_size": 9, "cluster_id": 1, "rank_in_cluster": 2}

>  <energy>  (7) 
-7.34

>  <cluster_rmsd>  (7) 
0.09

>  <rmsd>  (7) 
271.29

>  <cluster>  (7) 
1

$$$$
MHMHNRBLDMQEKR-XMMPIXPANA-N
     RDKit          3D

 54 58  0  0  0  0  0  0  0  0999 V2000
  139.8460   75.2380  222.6540 O   0  0  0  0  0  0  0  0  0  0  0  0
  138.6470   75.2960  221.7480 S   0  0  0  0  0  0  0  0  0  0  0  0
  137.4210   74.9410  222.5430 O   0  0  0  0  0  0  0  0  0  0  0  0
  138.4680   76.9660  221.1370 C   0  0  0  0  0  0  0  0  0  0  0  0
  139.5420   77.8490  221.7060 C   0  0  0  0  0  0  0  0  0  0  0  0
  139.4650   78.2850  223.0380 C   0  0  0  0  0  0  0  0  0  0  0  0
  140.4430   79.1380  223.5600 C   0  0  0  0  0  0  0  0  0  0  0  0
  141.5190   79.5590  222.7610 C   0  0  0  0  0  0  0  0  0  0  0  0
  142.5450   80.5200  223.3080 C   0  0  0  0  0  0  0  0  0  0  0  0
  142.8920   80.1790  224.6030 F   0  0  0  0  0  0  0  0  0  0  0  0
  142.0470   81.8110  223.3180 F   0  0  0  0  0  0  0  0  0  0  0  0
  143.6750   80.4790  222.5130 F   0  0  0  0  0  0  0  0  0  0  0  0
  141.5720   79.1520  221.4170 C   0  0  0  0  0  0  0  0  0  0  0  0
  140.5940   78.3000  220.8960 C   0  0  0  0  0  0  0  0  0  0  0  0
  138.8440   74.1930  220.3880 N   0  0  0  0  0  0  0  0  0  0  0  0
  137.5900   73.4310  220.1450 C   0  0  0  0  0  0  0  0  0  0  0  0
  137.5360   72.0140  220.7970 C   0  0  0  0  0  0  0  0  0  0  0  0
  138.5480   71.8270  221.9010 C   0  0  0  0  0  0  0  0  0  0  0  0
  138.2440   71.0520  223.0300 C   0  0  0  0  0  0  0  0  0  0  0  0
  139.1550   70.9630  224.0840 C   0  0  0  0  0  0  0  0  0  0  0  0
  140.3620   71.6650  224.0260 C   0  0  0  0  0  0  0  0  0  0  0  0
  140.6790   72.4260  222.8990 C   0  0  0  0  0  0  0  0  0  0  0  0
  139.8020   72.4570  221.7950 C   0  0  0  0  0  0  0  0  0  0  0  0
  140.0060   73.2880  220.5390 C   0  0  2  0  0  0  0  0  0  0  0  0
  141.3500   73.9840  220.3620 C   0  0  0  0  0  0  0  0  0  0  0  0
  141.5570   75.3630  220.4530 C   0  0  0  0  0  0  0  0  0  0  0  0
  142.8730   75.6620  220.4420 N   0  0  0  0  0  0  0  0  0  0  0  0
  143.5180   74.4880  220.4120 C   0  0  0  0  0  0  0  0  0  0  0  0
  144.8980   74.2950  220.4710 C   0  0  0  0  0  0  0  0  0  0  0  0
  145.3780   72.9760  220.5310 C   0  0  0  0  0  0  0  0  0  0  0  0
  144.4770   71.8930  220.5570 C   0  0  0  0  0  0  0  0  0  0  0  0
  143.0900   72.1160  220.5090 C   0  0  0  0  0  0  0  0  0  0  0  0
  142.6320   73.4350  220.4020 C   0  0  0  0  0  0  0  0  0  0  0  0
  138.5462   76.9610  220.0398 H   0  0  0  0  0  0  0  0  0  0  0  0
  137.4860   77.3552  221.4438 H   0  0  0  0  0  0  0  0  0  0  0  0
  138.6312   77.9542  223.6747 H   0  0  0  0  0  0  0  0  0  0  0  0
  140.3691   79.4812  224.6025 H   0  0  0  0  0  0  0  0  0  0  0  0
  142.3886   79.5062  220.7707 H   0  0  0  0  0  0  0  0  0  0  0  0
  140.6499   77.9815  219.8446 H   0  0  0  0  0  0  0  0  0  0  0  0
  136.7510   74.0208  220.5429 H   0  0  0  0  0  0  0  0  0  0  0  0
  137.5372   73.2690  219.0583 H   0  0  0  0  0  0  0  0  0  0  0  0
  136.5303   71.8600  221.2152 H   0  0  0  0  0  0  0  0  0  0  0  0
  137.7733   71.2833  220.0097 H   0  0  0  0  0  0  0  0  0  0  0  0
  137.2863   70.5136  223.0849 H   0  0  0  0  0  0  0  0  0  0  0  0
  138.9227   70.3401  224.9604 H   0  0  0  0  0  0  0  0  0  0  0  0
  141.0647   71.6179  224.8710 H   0  0  0  0  0  0  0  0  0  0  0  0
  141.6152   73.0028  222.8722 H   0  0  0  0  0  0  0  0  0  0  0  0
  140.0569   72.5731  219.7046 H   0  0  0  0  0  0  0  0  0  0  0  0
  140.7513   76.1085  220.5244 H   0  0  0  0  0  0  0  0  0  0  0  0
  143.2970   76.6140  220.5110 H   0  0  0  0  0  0  0  0  0  0  0  0
  145.5900   75.1501  220.4705 H   0  0  0  0  0  0  0  0  0  0  0  0
  146.4615   72.7880  220.5578 H   0  0  0  0  0  0  0  0  0  0  0  0
  144.8623   70.8643  220.6154 H   0  0  0  0  0  0  0  0  0  0  0  0
  142.3820   71.2754  220.5544 H   0  0  0  0  0  0  0  0  0  0  0  0
  1  2  2  0
  2  3  2  0
  2  4  1  0
  4  5  1  0
  5  6  2  0
  6  7  1  0
  7  8  2  0
  8  9  1  0
  9 10  1  0
  9 11  1  0
  9 12  1  0
  8 13  1  0
 13 14  2  0
  2 15  1  0
 15 16  1  0
 16 17  1  0
 17 18  1  0
 18 19  2  0
 19 20  1  0
 20 21  2  0
 21 22  1  0
 22 23  2  0
 23 24  1  0
 24 25  1  0
 25 26  2  0
 26 27  1  0
 27 28  1  0
 28 29  2  0
 29 30  1  0
 30 31  2  0
 31 32  1  0
 32 33  2  0
 14  5  1  0
 24 15  1  0
 33 25  1  0
 23 18  1  0
 33 28  1  0
  4 34  1  0
  4 35  1  0
  6 36  1  0
  7 37  1  0
 13 38  1  0
 14 39  1  0
 16 40  1  0
 16 41  1  0
 17 42  1  0
 17 43  1  0
 19 44  1  0
 20 45  1  0
 21 46  1  0
 22 47  1  0
 24 48  1  6
 26 49  1  0
 27 50  1  0
 29 51  1  0
 30 52  1  0
 31 53  1  0
 32 54  1  0
M  END
>  <UniqueID>  (8) 
189

>  <SMILES>  (8) 
O=S(=O)(Cc1ccc(C(F)(F)F)cc1)N1CCc2ccccc2[C@@H]1c1c[nH]c2ccccc12

>  <Energy>  (8) 
93.31607809198984

>  <Genealogy>  (8) 
O=S(=O)(Cc1ccc(C(F)(F)F)cc1)N1CCc2ccccc2[C@@H]1c1c[nH]c2ccccc12 (3D coordinates assigned)
O=S(=O)(Cc1ccc(C(F)(F)F)cc1)N1CCc2ccccc2[C@@H]1c1c[nH]c2ccccc12 (nonaromatic ring conformer: 93.31607809198984 kcal/mol)

>  <smiles>  (8) 
O=S(=O)(Cc1ccc(C(F)(F)F)cc1)N1CCc2ccccc2[C@@H]1c1c[nH]c2ccccc12

>  <score_type>  (8) 
oracle

>  <origin>  (8) 
autodockgpu

>  <m_score__min__energy>  (8) 
-7.4100000000000001

>  <m_primary>  (8) 
energy

>  <meeko>  (8) 
{"free_energy": -7.38, "intermolecular_energy": -8.87, "internal_energy": -2.01, "cluster_size": 9, "cluster_id": 1, "rank_in_cluster": 5}

>  <energy>  (8) 
-7.32

>  <cluster_rmsd>  (8) 
0.1

>  <rmsd>  (8) 
271.28

>  <cluster>  (8) 
1

$$$$
MHMHNRBLDMQEKR-XMMPIXPANA-N
     RDKit          3D

 54 58  0  0  0  0  0  0  0  0999 V2000
  139.2160   76.9990  219.6540 O   0  0  0  0  0  0  0  0  0  0  0  0
  140.5880   76.6950  219.1190 S   0  0  0  0  0  0  0  0  0  0  0  0
  140.5130   75.4620  218.2620 O   0  0  0  0  0  0  0  0  0  0  0  0
  141.1270   78.0650  218.1050 C   0  0  0  0  0  0  0  0  0  0  0  0
  140.9120   79.3660  218.8260 C   0  0  0  0  0  0  0  0  0  0  0  0
  142.0050   80.0740  219.3460 C   0  0  0  0  0  0  0  0  0  0  0  0
  141.8050   81.2650  220.0500 C   0  0  0  0  0  0  0  0  0  0  0  0
  140.5080   81.7730  220.2360 C   0  0  0  0  0  0  0  0  0  0  0  0
  140.2880   83.0300  221.0390 C   0  0  0  0  0  0  0  0  0  0  0  0
  141.4440   83.3910  221.7080 F   0  0  0  0  0  0  0  0  0  0  0  0
  139.2870   82.8420  221.9760 F   0  0  0  0  0  0  0  0  0  0  0  0
  139.9220   84.0560  220.1880 F   0  0  0  0  0  0  0  0  0  0  0  0
  139.4130   81.0410  219.7470 C   0  0  0  0  0  0  0  0  0  0  0  0
  139.6130   79.8500  219.0430 C   0  0  0  0  0  0  0  0  0  0  0  0
  141.7300   76.4620  220.4410 N   0  0  0  0  0  0  0  0  0  0  0  0
  142.5970   75.2810  220.1830 C   0  0  0  0  0  0  0  0  0  0  0  0
  142.1300   73.9540  220.8560 C   0  0  0  0  0  0  0  0  0  0  0  0
  140.6820   73.9790  221.2820 C   0  0  0  0  0  0  0  0  0  0  0  0
  139.8900   72.8230  221.2020 C   0  0  0  0  0  0  0  0  0  0  0  0
  138.5310   72.8850  221.5130 C   0  0  0  0  0  0  0  0  0  0  0  0
  137.9510   74.1010  221.8820 C   0  0  0  0  0  0  0  0  0  0  0  0
  138.7360   75.2520  221.9790 C   0  0  0  0  0  0  0  0  0  0  0  0
  140.1250   75.1840  221.7460 C   0  0  0  0  0  0  0  0  0  0  0  0
  141.0740   76.3720  221.7650 C   0  0  2  0  0  0  0  0  0  0  0  0
  140.5320   77.7030  222.2710 C   0  0  0  0  0  0  0  0  0  0  0  0
  139.2210   77.9220  222.7040 C   0  0  0  0  0  0  0  0  0  0  0  0
  139.0910   79.1400  223.2710 N   0  0  0  0  0  0  0  0  0  0  0  0
  140.3160   79.6820  223.2680 C   0  0  0  0  0  0  0  0  0  0  0  0
  140.6860   80.9050  223.8260 C   0  0  0  0  0  0  0  0  0  0  0  0
  142.0470   81.2530  223.8100 C   0  0  0  0  0  0  0  0  0  0  0  0
  143.0000   80.3680  223.2670 C   0  0  0  0  0  0  0  0  0  0  0  0
  142.6010   79.1360  222.7210 C   0  0  0  0  0  0  0  0  0  0  0  0
  141.2350   78.8280  222.7040 C   0  0  0  0  0  0  0  0  0  0  0  0
  142.1970   77.9489  217.8778 H   0  0  0  0  0  0  0  0  0  0  0  0
  140.5417   78.0719  217.1737 H   0  0  0  0  0  0  0  0  0  0  0  0
  143.0253   79.6901  219.1991 H   0  0  0  0  0  0  0  0  0  0  0  0
  142.6686   81.8082  220.4612 H   0  0  0  0  0  0  0  0  0  0  0  0
  138.3904   81.4079  219.9194 H   0  0  0  0  0  0  0  0  0  0  0  0
  138.7483   79.2899  218.6575 H   0  0  0  0  0  0  0  0  0  0  0  0
  142.6334   75.1167  219.0960 H   0  0  0  0  0  0  0  0  0  0  0  0
  143.5759   75.5190  220.6248 H   0  0  0  0  0  0  0  0  0  0  0  0
  142.2692   73.1311  220.1394 H   0  0  0  0  0  0  0  0  0  0  0  0
  142.7351   73.8185  221.7646 H   0  0  0  0  0  0  0  0  0  0  0  0
  140.3406   71.8679  220.8941 H   0  0  0  0  0  0  0  0  0  0  0  0
  137.9154   71.9746  221.4675 H   0  0  0  0  0  0  0  0  0  0  0  0
  136.8734   74.1521  222.0967 H   0  0  0  0  0  0  0  0  0  0  0  0
  138.2695   76.2140  222.2378 H   0  0  0  0  0  0  0  0  0  0  0  0
  141.8109   76.1618  222.5542 H   0  0  0  0  0  0  0  0  0  0  0  0
  138.4017   77.1959  222.5966 H   0  0  0  0  0  0  0  0  0  0  0  0
  138.2230   79.5450  223.6870 H   0  0  0  0  0  0  0  0  0  0  0  0
  139.9346   81.5774  224.2657 H   0  0  0  0  0  0  0  0  0  0  0  0
  142.3701   82.2200  224.2229 H   0  0  0  0  0  0  0  0  0  0  0  0
  144.0649   80.6438  223.2706 H   0  0  0  0  0  0  0  0  0  0  0  0
  143.3430   78.4314  222.3172 H   0  0  0  0  0  0  0  0  0  0  0  0
  1  2  2  0
  2  3  2  0
  2  4  1  0
  4  5  1  0
  5  6  2  0
  6  7  1  0
  7  8  2  0
  8  9  1  0
  9 10  1  0
  9 11  1  0
  9 12  1  0
  8 13  1  0
 13 14  2  0
  2 15  1  0
 15 16  1  0
 16 17  1  0
 17 18  1  0
 18 19  2  0
 19 20  1  0
 20 21  2  0
 21 22  1  0
 22 23  2  0
 23 24  1  0
 24 25  1  0
 25 26  2  0
 26 27  1  0
 27 28  1  0
 28 29  2  0
 29 30  1  0
 30 31  2  0
 31 32  1  0
 32 33  2  0
 14  5  1  0
 24 15  1  0
 33 25  1  0
 23 18  1  0
 33 28  1  0
  4 34  1  0
  4 35  1  0
  6 36  1  0
  7 37  1  0
 13 38  1  0
 14 39  1  0
 16 40  1  0
 16 41  1  0
 17 42  1  0
 17 43  1  0
 19 44  1  0
 20 45  1  0
 21 46  1  0
 22 47  1  0
 24 48  1  1
 26 49  1  0
 27 50  1  0
 29 51  1  0
 30 52  1  0
 31 53  1  0
 32 54  1  0
M  END
>  <UniqueID>  (9) 
189

>  <SMILES>  (9) 
O=S(=O)(Cc1ccc(C(F)(F)F)cc1)N1CCc2ccccc2[C@@H]1c1c[nH]c2ccccc12

>  <Energy>  (9) 
93.31607809198984

>  <Genealogy>  (9) 
O=S(=O)(Cc1ccc(C(F)(F)F)cc1)N1CCc2ccccc2[C@@H]1c1c[nH]c2ccccc12 (3D coordinates assigned)
O=S(=O)(Cc1ccc(C(F)(F)F)cc1)N1CCc2ccccc2[C@@H]1c1c[nH]c2ccccc12 (nonaromatic ring conformer: 93.31607809198984 kcal/mol)

>  <smiles>  (9) 
O=S(=O)(Cc1ccc(C(F)(F)F)cc1)N1CCc2ccccc2[C@@H]1c1c[nH]c2ccccc12

>  <score_type>  (9) 
oracle

>  <origin>  (9) 
autodockgpu

>  <m_score__min__energy>  (9) 
-7.4100000000000001

>  <m_primary>  (9) 
energy

>  <meeko>  (9) 
{"free_energy": -6.44, "intermolecular_energy": -7.93, "internal_energy": -2.86, "cluster_size": 7, "cluster_id": 3, "rank_in_cluster": 3}

>  <energy>  (9) 
-7.3

>  <cluster_rmsd>  (9) 
0.3

>  <rmsd>  (9) 
271.19

>  <cluster>  (9) 
1

$$$$
MHMHNRBLDMQEKR-XMMPIXPANA-N
     RDKit          3D

 54 58  0  0  0  0  0  0  0  0999 V2000
  139.6820   75.0370  222.5680 O   0  0  0  0  0  0  0  0  0  0  0  0
  138.5260   75.0200  221.6050 S   0  0  0  0  0  0  0  0  0  0  0  0
  137.2780   74.6390  222.3520 O   0  0  0  0  0  0  0  0  0  0  0  0
  138.3130   76.6630  220.9340 C   0  0  0  0  0  0  0  0  0  0  0  0
  139.3810   77.5830  221.4520 C   0  0  0  0  0  0  0  0  0  0  0  0
  139.3880   77.9700  222.8010 C   0  0  0  0  0  0  0  0  0  0  0  0
  140.3590   78.8550  223.2770 C   0  0  0  0  0  0  0  0  0  0  0  0
  141.3470   79.3600  222.4140 C   0  0  0  0  0  0  0  0  0  0  0  0
  142.3630   80.3550  222.9160 C   0  0  0  0  0  0  0  0  0  0  0  0
  142.3650   81.4910  222.1260 F   0  0  0  0  0  0  0  0  0  0  0  0
  143.6340   79.8090  222.8920 F   0  0  0  0  0  0  0  0  0  0  0  0
  142.0500   80.7100  224.2140 F   0  0  0  0  0  0  0  0  0  0  0  0
  141.3140   79.0020  221.0560 C   0  0  0  0  0  0  0  0  0  0  0  0
  140.3420   78.1160  220.5800 C   0  0  0  0  0  0  0  0  0  0  0  0
  138.8330   73.8870  220.2910 N   0  0  0  0  0  0  0  0  0  0  0  0
  137.6360   73.0410  220.0390 C   0  0  0  0  0  0  0  0  0  0  0  0
  137.6490   71.6460  220.7380 C   0  0  0  0  0  0  0  0  0  0  0  0
  138.6360   71.5590  221.8770 C   0  0  0  0  0  0  0  0  0  0  0  0
  138.3460   70.8040  223.0220 C   0  0  0  0  0  0  0  0  0  0  0  0
  139.2280   70.8080  224.1040 C   0  0  0  0  0  0  0  0  0  0  0  0
  140.3900   71.5810  224.0570 C   0  0  0  0  0  0  0  0  0  0  0  0
  140.6940   72.3230  222.9130 C   0  0  0  0  0  0  0  0  0  0  0  0
  139.8520   72.2620  221.7840 C   0  0  0  0  0  0  0  0  0  0  0  0
  140.0430   73.0620  220.5060 C   0  0  2  0  0  0  0  0  0  0  0  0
  141.3460   73.8340  220.3430 C   0  0  0  0  0  0  0  0  0  0  0  0
  141.4770   75.2210  220.4590 C   0  0  0  0  0  0  0  0  0  0  0  0
  142.7750   75.5920  220.4550 N   0  0  0  0  0  0  0  0  0  0  0  0
  143.4840   74.4560  220.4050 C   0  0  0  0  0  0  0  0  0  0  0  0
  144.8720   74.3390  220.4620 C   0  0  0  0  0  0  0  0  0  0  0  0
  145.4240   73.0480  220.4990 C   0  0  0  0  0  0  0  0  0  0  0  0
  144.5840   71.9160  220.5040 C   0  0  0  0  0  0  0  0  0  0  0  0
  143.1870   72.0630  220.4580 C   0  0  0  0  0  0  0  0  0  0  0  0
  142.6570   73.3570  220.3750 C   0  0  0  0  0  0  0  0  0  0  0  0
  138.3751   76.6172  219.8367 H   0  0  0  0  0  0  0  0  0  0  0  0
  137.3299   77.0491  221.2413 H   0  0  0  0  0  0  0  0  0  0  0  0
  138.6249   77.5745  223.4874 H   0  0  0  0  0  0  0  0  0  0  0  0
  140.3501   79.1586  224.3342 H   0  0  0  0  0  0  0  0  0  0  0  0
  142.0576   79.4213  220.3623 H   0  0  0  0  0  0  0  0  0  0  0  0
  140.3311   77.8357  219.5164 H   0  0  0  0  0  0  0  0  0  0  0  0
  136.7507   73.5902  220.3920 H   0  0  0  0  0  0  0  0  0  0  0  0
  137.6264   72.8403  218.9575 H   0  0  0  0  0  0  0  0  0  0  0  0
  136.6422   71.4433  221.1320 H   0  0  0  0  0  0  0  0  0  0  0  0
  137.9552   70.9061  219.9838 H   0  0  0  0  0  0  0  0  0  0  0  0
  137.4226   70.2079  223.0679 H   0  0  0  0  0  0  0  0  0  0  0  0
  139.0074   70.2015  224.9948 H   0  0  0  0  0  0  0  0  0  0  0  0
  141.0678   71.6058  224.9230 H   0  0  0  0  0  0  0  0  0  0  0  0
  141.5929   72.9566  222.8931 H   0  0  0  0  0  0  0  0  0  0  0  0
  140.1633   72.3245  219.6988 H   0  0  0  0  0  0  0  0  0  0  0  0
  140.6316   75.9198  220.5427 H   0  0  0  0  0  0  0  0  0  0  0  0
  143.1460   76.5640  220.5420 H   0  0  0  0  0  0  0  0  0  0  0  0
  145.5155   75.2310  220.4776 H   0  0  0  0  0  0  0  0  0  0  0  0
  146.5162   72.9198  220.5242 H   0  0  0  0  0  0  0  0  0  0  0  0
  145.0255   70.9093  220.5442 H   0  0  0  0  0  0  0  0  0  0  0  0
  142.5264   71.1839  220.4864 H   0  0  0  0  0  0  0  0  0  0  0  0
  1  2  2  0
  2  3  2  0
  2  4  1  0
  4  5  1  0
  5  6  2  0
  6  7  1  0
  7  8  2  0
  8  9  1  0
  9 10  1  0
  9 11  1  0
  9 12  1  0
  8 13  1  0
 13 14  2  0
  2 15  1  0
 15 16  1  0
 16 17  1  0
 17 18  1  0
 18 19  2  0
 19 20  1  0
 20 21  2  0
 21 22  1  0
 22 23  2  0
 23 24  1  0
 24 25  1  0
 25 26  2  0
 26 27  1  0
 27 28  1  0
 28 29  2  0
 29 30  1  0
 30 31  2  0
 31 32  1  0
 32 33  2  0
 14  5  1  0
 24 15  1  0
 33 25  1  0
 23 18  1  0
 33 28  1  0
  4 34  1  0
  4 35  1  0
  6 36  1  0
  7 37  1  0
 13 38  1  0
 14 39  1  0
 16 40  1  0
 16 41  1  0
 17 42  1  0
 17 43  1  0
 19 44  1  0
 20 45  1  0
 21 46  1  0
 22 47  1  0
 24 48  1  6
 26 49  1  0
 27 50  1  0
 29 51  1  0
 30 52  1  0
 31 53  1  0
 32 54  1  0
M  END
>  <UniqueID>  (10) 
189

>  <SMILES>  (10) 
O=S(=O)(Cc1ccc(C(F)(F)F)cc1)N1CCc2ccccc2[C@@H]1c1c[nH]c2ccccc12

>  <Energy>  (10) 
93.31607809198984

>  <Genealogy>  (10) 
O=S(=O)(Cc1ccc(C(F)(F)F)cc1)N1CCc2ccccc2[C@@H]1c1c[nH]c2ccccc12 (3D coordinates assigned)
O=S(=O)(Cc1ccc(C(F)(F)F)cc1)N1CCc2ccccc2[C@@H]1c1c[nH]c2ccccc12 (nonaromatic ring conformer: 93.31607809198984 kcal/mol)

>  <smiles>  (10) 
O=S(=O)(Cc1ccc(C(F)(F)F)cc1)N1CCc2ccccc2[C@@H]1c1c[nH]c2ccccc12

>  <score_type>  (10) 
oracle

>  <origin>  (10) 
autodockgpu

>  <m_score__min__energy>  (10) 
-7.4100000000000001

>  <m_primary>  (10) 
energy

>  <meeko>  (10) 
{"free_energy": -7.3, "intermolecular_energy": -8.79, "internal_energy": -2.01, "cluster_size": 9, "cluster_id": 1, "rank_in_cluster": 9}

>  <energy>  (10) 
-7.12

>  <cluster_rmsd>  (10) 
0.0

>  <rmsd>  (10) 
271.06

>  <cluster>  (10) 
2

$$$$
MHMHNRBLDMQEKR-XMMPIXPANA-N
     RDKit          3D

 54 58  0  0  0  0  0  0  0  0999 V2000
  142.1730   75.2830  221.5880 O   0  0  0  0  0  0  0  0  0  0  0  0
  140.8060   74.8630  221.1220 S   0  0  0  0  0  0  0  0  0  0  0  0
  140.3150   73.7470  222.0040 O   0  0  0  0  0  0  0  0  0  0  0  0
  139.6920   76.2510  221.2820 C   0  0  0  0  0  0  0  0  0  0  0  0
  140.4330   77.4640  221.7670 C   0  0  0  0  0  0  0  0  0  0  0  0
  141.0500   77.4570  223.0280 C   0  0  0  0  0  0  0  0  0  0  0  0
  141.7090   78.5970  223.4980 C   0  0  0  0  0  0  0  0  0  0  0  0
  141.7700   79.7590  222.7110 C   0  0  0  0  0  0  0  0  0  0  0  0
  142.4350   81.0050  223.2400 C   0  0  0  0  0  0  0  0  0  0  0  0
  143.8030   80.8220  223.3450 F   0  0  0  0  0  0  0  0  0  0  0  0
  141.9440   81.3260  224.4930 F   0  0  0  0  0  0  0  0  0  0  0  0
  142.1870   82.0550  222.3760 F   0  0  0  0  0  0  0  0  0  0  0  0
  141.1170   79.7760  221.4660 C   0  0  0  0  0  0  0  0  0  0  0  0
  140.4590   78.6350  220.9960 C   0  0  0  0  0  0  0  0  0  0  0  0
  140.8580   74.3450  219.4390 N   0  0  0  0  0  0  0  0  0  0  0  0
  140.6380   72.8770  219.3350 C   0  0  0  0  0  0  0  0  0  0  0  0
  141.9360   72.0160  219.2450 C   0  0  0  0  0  0  0  0  0  0  0  0
  143.1710   72.7480  219.7090 C   0  0  0  0  0  0  0  0  0  0  0  0
  144.1950   72.0710  220.3890 C   0  0  0  0  0  0  0  0  0  0  0  0
  145.2880   72.7790  220.8910 C   0  0  0  0  0  0  0  0  0  0  0  0
  145.3540   74.1660  220.7380 C   0  0  0  0  0  0  0  0  0  0  0  0
  144.3460   74.8450  220.0490 C   0  0  0  0  0  0  0  0  0  0  0  0
  143.2800   74.1300  219.4670 C   0  0  0  0  0  0  0  0  0  0  0  0
  142.0990   74.7560  218.7440 C   0  0  2  0  0  0  0  0  0  0  0  0
  142.1640   76.2480  218.4420 C   0  0  0  0  0  0  0  0  0  0  0  0
  143.3200   76.9420  218.0740 C   0  0  0  0  0  0  0  0  0  0  0  0
  143.0320   78.2020  217.6860 N   0  0  0  0  0  0  0  0  0  0  0  0
  141.6970   78.3080  217.7360 C   0  0  0  0  0  0  0  0  0  0  0  0
  140.9350   79.4080  217.3450 C   0  0  0  0  0  0  0  0  0  0  0  0
  139.5360   79.2860  217.3780 C   0  0  0  0  0  0  0  0  0  0  0  0
  138.9380   78.0720  217.7700 C   0  0  0  0  0  0  0  0  0  0  0  0
  139.7300   76.9740  218.1470 C   0  0  0  0  0  0  0  0  0  0  0  0
  141.1220   77.1300  218.1540 C   0  0  0  0  0  0  0  0  0  0  0  0
  139.2416   76.4691  220.3024 H   0  0  0  0  0  0  0  0  0  0  0  0
  138.9079   75.9970  222.0105 H   0  0  0  0  0  0  0  0  0  0  0  0
  141.0148   76.5500  223.6494 H   0  0  0  0  0  0  0  0  0  0  0  0
  142.1828   78.5839  224.4906 H   0  0  0  0  0  0  0  0  0  0  0  0
  141.1237   80.6925  220.8578 H   0  0  0  0  0  0  0  0  0  0  0  0
  139.9592   78.6562  220.0163 H   0  0  0  0  0  0  0  0  0  0  0  0
  140.0757   72.5533  220.2233 H   0  0  0  0  0  0  0  0  0  0  0  0
  140.0980   72.7152  218.3904 H   0  0  0  0  0  0  0  0  0  0  0  0
  141.8051   71.1206  219.8705 H   0  0  0  0  0  0  0  0  0  0  0  0
  142.0862   71.7628  218.1851 H   0  0  0  0  0  0  0  0  0  0  0  0
  144.1362   70.9812  220.5265 H   0  0  0  0  0  0  0  0  0  0  0  0
  146.0985   72.2442  221.4078 H   0  0  0  0  0  0  0  0  0  0  0  0
  146.2017   74.7249  221.1611 H   0  0  0  0  0  0  0  0  0  0  0  0
  144.3844   75.9408  219.9605 H   0  0  0  0  0  0  0  0  0  0  0  0
  142.1242   74.3584  217.7187 H   0  0  0  0  0  0  0  0  0  0  0  0
  144.3339   76.5160  218.0976 H   0  0  0  0  0  0  0  0  0  0  0  0
  143.7100   78.9220  217.3510 H   0  0  0  0  0  0  0  0  0  0  0  0
  141.4148   80.3432  217.0205 H   0  0  0  0  0  0  0  0  0  0  0  0
  138.9048   80.1418  217.0967 H   0  0  0  0  0  0  0  0  0  0  0  0
  137.8417   77.9828  217.7811 H   0  0  0  0  0  0  0  0  0  0  0  0
  139.2684   76.0163  218.4294 H   0  0  0  0  0  0  0  0  0  0  0  0
  1  2  2  0
  2  3  2  0
  2  4  1  0
  4  5  1  0
  5  6  2  0
  6  7  1  0
  7  8  2  0
  8  9  1  0
  9 10  1  0
  9 11  1  0
  9 12  1  0
  8 13  1  0
 13 14  2  0
  2 15  1  0
 15 16  1  0
 16 17  1  0
 17 18  1  0
 18 19  2  0
 19 20  1  0
 20 21  2  0
 21 22  1  0
 22 23  2  0
 23 24  1  0
 24 25  1  0
 25 26  2  0
 26 27  1  0
 27 28  1  0
 28 29  2  0
 29 30  1  0
 30 31  2  0
 31 32  1  0
 32 33  2  0
 14  5  1  0
 24 15  1  0
 33 25  1  0
 23 18  1  0
 33 28  1  0
  4 34  1  0
  4 35  1  0
  6 36  1  0
  7 37  1  0
 13 38  1  0
 14 39  1  0
 16 40  1  0
 16 41  1  0
 17 42  1  0
 17 43  1  0
 19 44  1  0
 20 45  1  0
 21 46  1  0
 22 47  1  0
 24 48  1  6
 26 49  1  0
 27 50  1  0
 29 51  1  0
 30 52  1  0
 31 53  1  0
 32 54  1  0
M  END
>  <UniqueID>  (11) 
189

>  <SMILES>  (11) 
O=S(=O)(Cc1ccc(C(F)(F)F)cc1)N1CCc2ccccc2[C@@H]1c1c[nH]c2ccccc12

>  <Energy>  (11) 
93.31607809198984

>  <Genealogy>  (11) 
O=S(=O)(Cc1ccc(C(F)(F)F)cc1)N1CCc2ccccc2[C@@H]1c1c[nH]c2ccccc12 (3D coordinates assigned)
O=S(=O)(Cc1ccc(C(F)(F)F)cc1)N1CCc2ccccc2[C@@H]1c1c[nH]c2ccccc12 (nonaromatic ring conformer: 93.31607809198984 kcal/mol)

>  <smiles>  (11) 
O=S(=O)(Cc1ccc(C(F)(F)F)cc1)N1CCc2ccccc2[C@@H]1c1c[nH]c2ccccc12

>  <score_type>  (11) 
oracle

>  <origin>  (11) 
autodockgpu

>  <m_score__min__energy>  (11) 
-7.4100000000000001

>  <m_primary>  (11) 
energy

>  <meeko>  (11) 
{"free_energy": -7.09, "intermolecular_energy": -8.58, "internal_energy": -2.24, "cluster_size": 4, "cluster_id": 2, "rank_in_cluster": 2}

>  <energy>  (11) 
-7.09

>  <cluster_rmsd>  (11) 
0.05

>  <rmsd>  (11) 
271.05

>  <cluster>  (11) 
2

$$$$
MHMHNRBLDMQEKR-XMMPIXPANA-N
     RDKit          3D

 54 58  0  0  0  0  0  0  0  0999 V2000
  142.1430   75.2720  221.5940 O   0  0  0  0  0  0  0  0  0  0  0  0
  140.7860   74.8200  221.1290 S   0  0  0  0  0  0  0  0  0  0  0  0
  140.3290   73.6810  221.9990 O   0  0  0  0  0  0  0  0  0  0  0  0
  139.6350   76.1760  221.3100 C   0  0  0  0  0  0  0  0  0  0  0  0
  140.3560   77.4170  221.7560 C   0  0  0  0  0  0  0  0  0  0  0  0
  141.0330   77.4370  222.9850 C   0  0  0  0  0  0  0  0  0  0  0  0
  141.6720   78.6020  223.4200 C   0  0  0  0  0  0  0  0  0  0  0  0
  141.6530   79.7630  222.6280 C   0  0  0  0  0  0  0  0  0  0  0  0
  142.2980   81.0330  223.1210 C   0  0  0  0  0  0  0  0  0  0  0  0
  143.6430   80.8320  223.3770 F   0  0  0  0  0  0  0  0  0  0  0  0
  141.6950   81.4650  224.2890 F   0  0  0  0  0  0  0  0  0  0  0  0
  142.1650   82.0150  222.1560 F   0  0  0  0  0  0  0  0  0  0  0  0
  140.9400   79.7500  221.4170 C   0  0  0  0  0  0  0  0  0  0  0  0
  140.3010   78.5850  220.9820 C   0  0  0  0  0  0  0  0  0  0  0  0
  140.8430   74.3240  219.4400 N   0  0  0  0  0  0  0  0  0  0  0  0
  140.6240   72.8570  219.3160 C   0  0  0  0  0  0  0  0  0  0  0  0
  141.9220   71.9970  219.2190 C   0  0  0  0  0  0  0  0  0  0  0  0
  143.1560   72.7240  219.6960 C   0  0  0  0  0  0  0  0  0  0  0  0
  144.1770   72.0390  220.3700 C   0  0  0  0  0  0  0  0  0  0  0  0
  145.2690   72.7400  220.8850 C   0  0  0  0  0  0  0  0  0  0  0  0
  145.3350   74.1290  220.7500 C   0  0  0  0  0  0  0  0  0  0  0  0
  144.3290   74.8170  220.0660 C   0  0  0  0  0  0  0  0  0  0  0  0
  143.2650   74.1090  219.4720 C   0  0  0  0  0  0  0  0  0  0  0  0
  142.0860   74.7440  218.7540 C   0  0  2  0  0  0  0  0  0  0  0  0
  142.1520   76.2390  218.4700 C   0  0  0  0  0  0  0  0  0  0  0  0
  143.3130   76.9420  218.1380 C   0  0  0  0  0  0  0  0  0  0  0  0
  143.0290   78.2060  217.7580 N   0  0  0  0  0  0  0  0  0  0  0  0
  141.6920   78.3060  217.7780 C   0  0  0  0  0  0  0  0  0  0  0  0
  140.9350   79.4080  217.3830 C   0  0  0  0  0  0  0  0  0  0  0  0
  139.5360   79.2800  217.3820 C   0  0  0  0  0  0  0  0  0  0  0  0
  138.9340   78.0590  217.7460 C   0  0  0  0  0  0  0  0  0  0  0  0
  139.7220   76.9600  218.1280 C   0  0  0  0  0  0  0  0  0  0  0  0
  141.1130   77.1210  218.1690 C   0  0  0  0  0  0  0  0  0  0  0  0
  139.1459   76.3681  220.3436 H   0  0  0  0  0  0  0  0  0  0  0  0
  138.8829   75.9080  222.0667 H   0  0  0  0  0  0  0  0  0  0  0  0
  141.0611   76.5317  223.6092 H   0  0  0  0  0  0  0  0  0  0  0  0
  142.1932   78.6100  224.3887 H   0  0  0  0  0  0  0  0  0  0  0  0
  140.8842   80.6635  220.8067 H   0  0  0  0  0  0  0  0  0  0  0  0
  139.7527   78.5847  220.0284 H   0  0  0  0  0  0  0  0  0  0  0  0
  140.0588   72.5216  220.1981 H   0  0  0  0  0  0  0  0  0  0  0  0
  140.0876   72.7078  218.3673 H   0  0  0  0  0  0  0  0  0  0  0  0
  141.7894   71.0940  219.8329 H   0  0  0  0  0  0  0  0  0  0  0  0
  142.0753   71.7566  218.1566 H   0  0  0  0  0  0  0  0  0  0  0  0
  144.1175   70.9475  220.4932 H   0  0  0  0  0  0  0  0  0  0  0  0
  146.0778   72.1984  221.3973 H   0  0  0  0  0  0  0  0  0  0  0  0
  146.1811   74.6826  221.1832 H   0  0  0  0  0  0  0  0  0  0  0  0
  144.3678   75.9138  219.9911 H   0  0  0  0  0  0  0  0  0  0  0  0
  142.1139   74.3592  217.7239 H   0  0  0  0  0  0  0  0  0  0  0  0
  144.3279   76.5199  218.1807 H   0  0  0  0  0  0  0  0  0  0  0  0
  143.7110   78.9330  217.4470 H   0  0  0  0  0  0  0  0  0  0  0  0
  141.4183   80.3490  217.0813 H   0  0  0  0  0  0  0  0  0  0  0  0
  138.9079   80.1365  217.0959 H   0  0  0  0  0  0  0  0  0  0  0  0
  137.8381   77.9654  217.7310 H   0  0  0  0  0  0  0  0  0  0  0  0
  139.2581   75.9972  218.3884 H   0  0  0  0  0  0  0  0  0  0  0  0
  1  2  2  0
  2  3  2  0
  2  4  1  0
  4  5  1  0
  5  6  2  0
  6  7  1  0
  7  8  2  0
  8  9  1  0
  9 10  1  0
  9 11  1  0
  9 12  1  0
  8 13  1  0
 13 14  2  0
  2 15  1  0
 15 16  1  0
 16 17  1  0
 17 18  1  0
 18 19  2  0
 19 20  1  0
 20 21  2  0
 21 22  1  0
 22 23  2  0
 23 24  1  0
 24 25  1  0
 25 26  2  0
 26 27  1  0
 27 28  1  0
 28 29  2  0
 29 30  1  0
 30 31  2  0
 31 32  1  0
 32 33  2  0
 14  5  1  0
 24 15  1  0
 33 25  1  0
 23 18  1  0
 33 28  1  0
  4 34  1  0
  4 35  1  0
  6 36  1  0
  7 37  1  0
 13 38  1  0
 14 39  1  0
 16 40  1  0
 16 41  1  0
 17 42  1  0
 17 43  1  0
 19 44  1  0
 20 45  1  0
 21 46  1  0
 22 47  1  0
 24 48  1  6
 26 49  1  0
 27 50  1  0
 29 51  1  0
 30 52  1  0
 31 53  1  0
 32 54  1  0
M  END
>  <UniqueID>  (12) 
189

>  <SMILES>  (12) 
O=S(=O)(Cc1ccc(C(F)(F)F)cc1)N1CCc2ccccc2[C@@H]1c1c[nH]c2ccccc12

>  <Energy>  (12) 
93.31607809198984

>  <Genealogy>  (12) 
O=S(=O)(Cc1ccc(C(F)(F)F)cc1)N1CCc2ccccc2[C@@H]1c1c[nH]c2ccccc12 (3D coordinates assigned)
O=S(=O)(Cc1ccc(C(F)(F)F)cc1)N1CCc2ccccc2[C@@H]1c1c[nH]c2ccccc12 (nonaromatic ring conformer: 93.31607809198984 kcal/mol)

>  <smiles>  (12) 
O=S(=O)(Cc1ccc(C(F)(F)F)cc1)N1CCc2ccccc2[C@@H]1c1c[nH]c2ccccc12

>  <score_type>  (12) 
oracle

>  <origin>  (12) 
autodockgpu

>  <m_score__min__energy>  (12) 
-7.4100000000000001

>  <m_primary>  (12) 
energy

>  <meeko>  (12) 
{"free_energy": -7.09, "intermolecular_energy": -8.58, "internal_energy": -2.26, "cluster_size": 4, "cluster_id": 2, "rank_in_cluster": 3}

>  <energy>  (12) 
-7.09

>  <cluster_rmsd>  (12) 
0.12

>  <rmsd>  (12) 
271.01

>  <cluster>  (12) 
2

$$$$
MHMHNRBLDMQEKR-XMMPIXPANA-N
     RDKit          3D

 54 58  0  0  0  0  0  0  0  0999 V2000
  139.8220   75.1880  222.5400 O   0  0  0  0  0  0  0  0  0  0  0  0
  138.6520   75.2450  221.5960 S   0  0  0  0  0  0  0  0  0  0  0  0
  137.4020   74.8850  222.3510 O   0  0  0  0  0  0  0  0  0  0  0  0
  138.4890   76.9150  220.9820 C   0  0  0  0  0  0  0  0  0  0  0  0
  139.5600   77.7930  221.5640 C   0  0  0  0  0  0  0  0  0  0  0  0
  139.4960   78.1890  222.9080 C   0  0  0  0  0  0  0  0  0  0  0  0
  140.4710   79.0360  223.4420 C   0  0  0  0  0  0  0  0  0  0  0  0
  141.5320   79.4940  222.6430 C   0  0  0  0  0  0  0  0  0  0  0  0
  142.5550   80.4500  223.2040 C   0  0  0  0  0  0  0  0  0  0  0  0
  143.8150   80.1610  222.7130 F   0  0  0  0  0  0  0  0  0  0  0  0
  142.5980   80.3620  224.5850 F   0  0  0  0  0  0  0  0  0  0  0  0
  142.2160   81.7410  222.8460 F   0  0  0  0  0  0  0  0  0  0  0  0
  141.5710   79.1280  221.2860 C   0  0  0  0  0  0  0  0  0  0  0  0
  140.5960   78.2800  220.7530 C   0  0  0  0  0  0  0  0  0  0  0  0
  138.8960   74.1450  220.2410 N   0  0  0  0  0  0  0  0  0  0  0  0
  137.6570   73.3670  219.9690 C   0  0  0  0  0  0  0  0  0  0  0  0
  137.6060   71.9500  220.6180 C   0  0  0  0  0  0  0  0  0  0  0  0
  138.5940   71.7750  221.7470 C   0  0  0  0  0  0  0  0  0  0  0  0
  138.2720   70.9960  222.8680 C   0  0  0  0  0  0  0  0  0  0  0  0
  139.1590   70.9180  223.9430 C   0  0  0  0  0  0  0  0  0  0  0  0
  140.3580   71.6350  223.9150 C   0  0  0  0  0  0  0  0  0  0  0  0
  140.6920   72.4010  222.7950 C   0  0  0  0  0  0  0  0  0  0  0  0
  139.8420   72.4200  221.6710 C   0  0  0  0  0  0  0  0  0  0  0  0
  140.0650   73.2550  220.4200 C   0  0  2  0  0  0  0  0  0  0  0  0
  141.4040   73.9670  220.2750 C   0  0  0  0  0  0  0  0  0  0  0  0
  141.5930   75.3480  220.3840 C   0  0  0  0  0  0  0  0  0  0  0  0
  142.9060   75.6610  220.4000 N   0  0  0  0  0  0  0  0  0  0  0  0
  143.5650   74.4950  220.3700 C   0  0  0  0  0  0  0  0  0  0  0  0
  144.9460   74.3170  220.4520 C   0  0  0  0  0  0  0  0  0  0  0  0
  145.4390   73.0030  220.5070 C   0  0  0  0  0  0  0  0  0  0  0  0
  144.5500   71.9100  220.5050 C   0  0  0  0  0  0  0  0  0  0  0  0
  143.1620   72.1180  220.4330 C   0  0  0  0  0  0  0  0  0  0  0  0
  142.6910   73.4330  220.3320 C   0  0  0  0  0  0  0  0  0  0  0  0
  138.5811   76.9089  219.8859 H   0  0  0  0  0  0  0  0  0  0  0  0
  137.5051   77.3092  221.2761 H   0  0  0  0  0  0  0  0  0  0  0  0
  138.6739   77.8310  223.5452 H   0  0  0  0  0  0  0  0  0  0  0  0
  140.4072   79.3463  224.4954 H   0  0  0  0  0  0  0  0  0  0  0  0
  142.3741   79.5115  220.6395 H   0  0  0  0  0  0  0  0  0  0  0  0
  140.6413   77.9930  219.6921 H   0  0  0  0  0  0  0  0  0  0  0  0
  136.8018   73.9457  220.3481 H   0  0  0  0  0  0  0  0  0  0  0  0
  137.6311   73.2053  218.8813 H   0  0  0  0  0  0  0  0  0  0  0  0
  136.5926   71.7823  221.0115 H   0  0  0  0  0  0  0  0  0  0  0  0
  137.8720   71.2234  219.8362 H   0  0  0  0  0  0  0  0  0  0  0  0
  137.3198   70.4461  222.9001 H   0  0  0  0  0  0  0  0  0  0  0  0
  138.9138   70.2914  224.8132 H   0  0  0  0  0  0  0  0  0  0  0  0
  141.0406   71.5964  224.7767 H   0  0  0  0  0  0  0  0  0  0  0  0
  141.6206   72.9906  222.7906 H   0  0  0  0  0  0  0  0  0  0  0  0
  140.1441   72.5413  219.5867 H   0  0  0  0  0  0  0  0  0  0  0  0
  140.7778   76.0837  220.4484 H   0  0  0  0  0  0  0  0  0  0  0  0
  143.3180   76.6170  220.4880 H   0  0  0  0  0  0  0  0  0  0  0  0
  145.6283   75.1796  220.4729 H   0  0  0  0  0  0  0  0  0  0  0  0
  146.5238   72.8265  220.5518 H   0  0  0  0  0  0  0  0  0  0  0  0
  144.9457   70.8851  220.5603 H   0  0  0  0  0  0  0  0  0  0  0  0
  142.4629   71.2690  220.4554 H   0  0  0  0  0  0  0  0  0  0  0  0
  1  2  2  0
  2  3  2  0
  2  4  1  0
  4  5  1  0
  5  6  2  0
  6  7  1  0
  7  8  2  0
  8  9  1  0
  9 10  1  0
  9 11  1  0
  9 12  1  0
  8 13  1  0
 13 14  2  0
  2 15  1  0
 15 16  1  0
 16 17  1  0
 17 18  1  0
 18 19  2  0
 19 20  1  0
 20 21  2  0
 21 22  1  0
 22 23  2  0
 23 24  1  0
 24 25  1  0
 25 26  2  0
 26 27  1  0
 27 28  1  0
 28 29  2  0
 29 30  1  0
 30 31  2  0
 31 32  1  0
 32 33  2  0
 14  5  1  0
 24 15  1  0
 33 25  1  0
 23 18  1  0
 33 28  1  0
  4 34  1  0
  4 35  1  0
  6 36  1  0
  7 37  1  0
 13 38  1  0
 14 39  1  0
 16 40  1  0
 16 41  1  0
 17 42  1  0
 17 43  1  0
 19 44  1  0
 20 45  1  0
 21 46  1  0
 22 47  1  0
 24 48  1  6
 26 49  1  0
 27 50  1  0
 29 51  1  0
 30 52  1  0
 31 53  1  0
 32 54  1  0
M  END
>  <UniqueID>  (13) 
189

>  <SMILES>  (13) 
O=S(=O)(Cc1ccc(C(F)(F)F)cc1)N1CCc2ccccc2[C@@H]1c1c[nH]c2ccccc12

>  <Energy>  (13) 
93.31607809198984

>  <Genealogy>  (13) 
O=S(=O)(Cc1ccc(C(F)(F)F)cc1)N1CCc2ccccc2[C@@H]1c1c[nH]c2ccccc12 (3D coordinates assigned)
O=S(=O)(Cc1ccc(C(F)(F)F)cc1)N1CCc2ccccc2[C@@H]1c1c[nH]c2ccccc12 (nonaromatic ring conformer: 93.31607809198984 kcal/mol)

>  <smiles>  (13) 
O=S(=O)(Cc1ccc(C(F)(F)F)cc1)N1CCc2ccccc2[C@@H]1c1c[nH]c2ccccc12

>  <score_type>  (13) 
oracle

>  <origin>  (13) 
autodockgpu

>  <m_score__min__energy>  (13) 
-7.4100000000000001

>  <m_primary>  (13) 
energy

>  <meeko>  (13) 
{"free_energy": -7.4, "intermolecular_energy": -8.9, "internal_energy": -2.01, "cluster_size": 9, "cluster_id": 1, "rank_in_cluster": 3}

>  <energy>  (13) 
-7.08

>  <cluster_rmsd>  (13) 
0.14

>  <rmsd>  (13) 
271.0

>  <cluster>  (13) 
2

$$$$
MHMHNRBLDMQEKR-XMMPIXPANA-N
     RDKit          3D

 54 58  0  0  0  0  0  0  0  0999 V2000
  139.8380   75.2730  222.6660 O   0  0  0  0  0  0  0  0  0  0  0  0
  138.6300   75.3390  221.7730 S   0  0  0  0  0  0  0  0  0  0  0  0
  137.4100   74.9920  222.5820 O   0  0  0  0  0  0  0  0  0  0  0  0
  138.4570   77.0090  221.1620 C   0  0  0  0  0  0  0  0  0  0  0  0
  139.5380   77.8870  221.7250 C   0  0  0  0  0  0  0  0  0  0  0  0
  139.4320   78.3900  223.0300 C   0  0  0  0  0  0  0  0  0  0  0  0
  140.4190   79.2370  223.5430 C   0  0  0  0  0  0  0  0  0  0  0  0
  141.5330   79.5870  222.7610 C   0  0  0  0  0  0  0  0  0  0  0  0
  142.5710   80.5420  223.2960 C   0  0  0  0  0  0  0  0  0  0  0  0
  143.7130   80.5080  222.5160 F   0  0  0  0  0  0  0  0  0  0  0  0
  142.9210   80.2070  224.5920 F   0  0  0  0  0  0  0  0  0  0  0  0
  142.0560   81.8250  223.2860 F   0  0  0  0  0  0  0  0  0  0  0  0
  141.6160   79.1130  221.4410 C   0  0  0  0  0  0  0  0  0  0  0  0
  140.6290   78.2660  220.9290 C   0  0  0  0  0  0  0  0  0  0  0  0
  138.8050   74.2330  220.4130 N   0  0  0  0  0  0  0  0  0  0  0  0
  137.5440   73.4780  220.1860 C   0  0  0  0  0  0  0  0  0  0  0  0
  137.4900   72.0620  220.8390 C   0  0  0  0  0  0  0  0  0  0  0  0
  138.5140   71.8710  221.9320 C   0  0  0  0  0  0  0  0  0  0  0  0
  138.2190   71.0980  223.0650 C   0  0  0  0  0  0  0  0  0  0  0  0
  139.1420   71.0060  224.1080 C   0  0  0  0  0  0  0  0  0  0  0  0
  140.3510   71.7000  224.0360 C   0  0  0  0  0  0  0  0  0  0  0  0
  140.6590   72.4590  222.9040 C   0  0  0  0  0  0  0  0  0  0  0  0
  139.7700   72.4930  221.8100 C   0  0  0  0  0  0  0  0  0  0  0  0
  139.9630   73.3220  220.5510 C   0  0  2  0  0  0  0  0  0  0  0  0
  141.3090   74.0100  220.3570 C   0  0  0  0  0  0  0  0  0  0  0  0
  141.5220   75.3890  220.4280 C   0  0  0  0  0  0  0  0  0  0  0  0
  142.8390   75.6830  220.4050 N   0  0  0  0  0  0  0  0  0  0  0  0
  143.4800   74.5060  220.3880 C   0  0  0  0  0  0  0  0  0  0  0  0
  144.8590   74.3090  220.4430 C   0  0  0  0  0  0  0  0  0  0  0  0
  145.3340   72.9890  220.5180 C   0  0  0  0  0  0  0  0  0  0  0  0
  144.4290   71.9100  220.5640 C   0  0  0  0  0  0  0  0  0  0  0  0
  143.0430   72.1380  220.5200 C   0  0  0  0  0  0  0  0  0  0  0  0
  142.5900   73.4570  220.3970 C   0  0  0  0  0  0  0  0  0  0  0  0
  138.5300   77.0028  220.0644 H   0  0  0  0  0  0  0  0  0  0  0  0
  137.4785   77.4034  221.4735 H   0  0  0  0  0  0  0  0  0  0  0  0
  138.5677   78.1166  223.6532 H   0  0  0  0  0  0  0  0  0  0  0  0
  140.3230   79.6319  224.5652 H   0  0  0  0  0  0  0  0  0  0  0  0
  142.4636   79.4105  220.8061 H   0  0  0  0  0  0  0  0  0  0  0  0
  140.7082   77.8947  219.8966 H   0  0  0  0  0  0  0  0  0  0  0  0
  136.7134   74.0726  220.5940 H   0  0  0  0  0  0  0  0  0  0  0  0
  137.4770   73.3158  219.1001 H   0  0  0  0  0  0  0  0  0  0  0  0
  136.4884   71.9132  221.2686 H   0  0  0  0  0  0  0  0  0  0  0  0
  137.7143   71.3295  220.0496 H   0  0  0  0  0  0  0  0  0  0  0  0
  137.2596   70.5640  223.1314 H   0  0  0  0  0  0  0  0  0  0  0  0
  138.9164   70.3857  224.9880 H   0  0  0  0  0  0  0  0  0  0  0  0
  141.0632   71.6492  224.8727 H   0  0  0  0  0  0  0  0  0  0  0  0
  141.5975   73.0315  222.8662 H   0  0  0  0  0  0  0  0  0  0  0  0
  139.9991   72.6061  219.7166 H   0  0  0  0  0  0  0  0  0  0  0  0
  140.7196   76.1385  220.4941 H   0  0  0  0  0  0  0  0  0  0  0  0
  143.2670   76.6340  220.4590 H   0  0  0  0  0  0  0  0  0  0  0  0
  145.5542   75.1614  220.4281 H   0  0  0  0  0  0  0  0  0  0  0  0
  146.4169   72.7970  220.5409 H   0  0  0  0  0  0  0  0  0  0  0  0
  144.8105   70.8807  220.6349 H   0  0  0  0  0  0  0  0  0  0  0  0
  142.3318   71.3010  220.5807 H   0  0  0  0  0  0  0  0  0  0  0  0
  1  2  2  0
  2  3  2  0
  2  4  1  0
  4  5  1  0
  5  6  2  0
  6  7  1  0
  7  8  2  0
  8  9  1  0
  9 10  1  0
  9 11  1  0
  9 12  1  0
  8 13  1  0
 13 14  2  0
  2 15  1  0
 15 16  1  0
 16 17  1  0
 17 18  1  0
 18 19  2  0
 19 20  1  0
 20 21  2  0
 21 22  1  0
 22 23  2  0
 23 24  1  0
 24 25  1  0
 25 26  2  0
 26 27  1  0
 27 28  1  0
 28 29  2  0
 29 30  1  0
 30 31  2  0
 31 32  1  0
 32 33  2  0
 14  5  1  0
 24 15  1  0
 33 25  1  0
 23 18  1  0
 33 28  1  0
  4 34  1  0
  4 35  1  0
  6 36  1  0
  7 37  1  0
 13 38  1  0
 14 39  1  0
 16 40  1  0
 16 41  1  0
 17 42  1  0
 17 43  1  0
 19 44  1  0
 20 45  1  0
 21 46  1  0
 22 47  1  0
 24 48  1  6
 26 49  1  0
 27 50  1  0
 29 51  1  0
 30 52  1  0
 31 53  1  0
 32 54  1  0
M  END
>  <UniqueID>  (14) 
189

>  <SMILES>  (14) 
O=S(=O)(Cc1ccc(C(F)(F)F)cc1)N1CCc2ccccc2[C@@H]1c1c[nH]c2ccccc12

>  <Energy>  (14) 
93.31607809198984

>  <Genealogy>  (14) 
O=S(=O)(Cc1ccc(C(F)(F)F)cc1)N1CCc2ccccc2[C@@H]1c1c[nH]c2ccccc12 (3D coordinates assigned)
O=S(=O)(Cc1ccc(C(F)(F)F)cc1)N1CCc2ccccc2[C@@H]1c1c[nH]c2ccccc12 (nonaromatic ring conformer: 93.31607809198984 kcal/mol)

>  <smiles>  (14) 
O=S(=O)(Cc1ccc(C(F)(F)F)cc1)N1CCc2ccccc2[C@@H]1c1c[nH]c2ccccc12

>  <score_type>  (14) 
oracle

>  <origin>  (14) 
autodockgpu

>  <m_score__min__energy>  (14) 
-7.4100000000000001

>  <m_primary>  (14) 
energy

>  <meeko>  (14) 
{"free_energy": -7.4, "intermolecular_energy": -8.9, "internal_energy": -1.99, "cluster_size": 9, "cluster_id": 1, "rank_in_cluster": 4}

>  <energy>  (14) 
-6.46

>  <cluster_rmsd>  (14) 
0.0

>  <rmsd>  (14) 
271.72

>  <cluster>  (14) 
3

$$$$
MHMHNRBLDMQEKR-XMMPIXPANA-N
     RDKit          3D

 54 58  0  0  0  0  0  0  0  0999 V2000
  139.8160   75.2190  222.6630 O   0  0  0  0  0  0  0  0  0  0  0  0
  138.6050   75.2670  221.7720 S   0  0  0  0  0  0  0  0  0  0  0  0
  137.3930   74.8950  222.5800 O   0  0  0  0  0  0  0  0  0  0  0  0
  138.4010   76.9370  221.1690 C   0  0  0  0  0  0  0  0  0  0  0  0
  139.4880   77.8230  221.7060 C   0  0  0  0  0  0  0  0  0  0  0  0
  139.4490   78.2610  223.0380 C   0  0  0  0  0  0  0  0  0  0  0  0
  140.4390   79.1170  223.5300 C   0  0  0  0  0  0  0  0  0  0  0  0
  141.4910   79.5400  222.7000 C   0  0  0  0  0  0  0  0  0  0  0  0
  142.5300   80.5040  223.2150 C   0  0  0  0  0  0  0  0  0  0  0  0
  142.5850   80.4700  224.5970 F   0  0  0  0  0  0  0  0  0  0  0  0
  142.2300   81.7980  222.8260 F   0  0  0  0  0  0  0  0  0  0  0  0
  143.7660   80.1550  222.7050 F   0  0  0  0  0  0  0  0  0  0  0  0
  141.5050   79.1320  221.3550 C   0  0  0  0  0  0  0  0  0  0  0  0
  140.5140   78.2760  220.8640 C   0  0  0  0  0  0  0  0  0  0  0  0
  138.7990   74.1710  220.4060 N   0  0  0  0  0  0  0  0  0  0  0  0
  137.5460   73.4050  220.1660 C   0  0  0  0  0  0  0  0  0  0  0  0
  137.5010   71.9860  220.8110 C   0  0  0  0  0  0  0  0  0  0  0  0
  138.5200   71.7970  221.9090 C   0  0  0  0  0  0  0  0  0  0  0  0
  138.2250   71.0150  223.0350 C   0  0  0  0  0  0  0  0  0  0  0  0
  139.1430   70.9250  224.0830 C   0  0  0  0  0  0  0  0  0  0  0  0
  140.3460   71.6310  224.0220 C   0  0  0  0  0  0  0  0  0  0  0  0
  140.6540   72.3990  222.8970 C   0  0  0  0  0  0  0  0  0  0  0  0
  139.7710   72.4320  221.7980 C   0  0  0  0  0  0  0  0  0  0  0  0
  139.9640   73.2700  220.5450 C   0  0  2  0  0  0  0  0  0  0  0  0
  141.3040   73.9710  220.3630 C   0  0  0  0  0  0  0  0  0  0  0  0
  141.5060   75.3510  220.4520 C   0  0  0  0  0  0  0  0  0  0  0  0
  142.8210   75.6560  220.4370 N   0  0  0  0  0  0  0  0  0  0  0  0
  143.4710   74.4840  220.4070 C   0  0  0  0  0  0  0  0  0  0  0  0
  144.8520   74.2980  220.4620 C   0  0  0  0  0  0  0  0  0  0  0  0
  145.3370   72.9810  220.5220 C   0  0  0  0  0  0  0  0  0  0  0  0
  144.4410   71.8940  220.5520 C   0  0  0  0  0  0  0  0  0  0  0  0
  143.0530   72.1110  220.5070 C   0  0  0  0  0  0  0  0  0  0  0  0
  142.5900   73.4280  220.4000 C   0  0  0  0  0  0  0  0  0  0  0  0
  138.4458   76.9337  220.0699 H   0  0  0  0  0  0  0  0  0  0  0  0
  137.4273   77.3220  221.5061 H   0  0  0  0  0  0  0  0  0  0  0  0
  138.6350   77.9292  223.6992 H   0  0  0  0  0  0  0  0  0  0  0  0
  140.3940   79.4616  224.5737 H   0  0  0  0  0  0  0  0  0  0  0  0
  142.3007   79.4883  220.6842 H   0  0  0  0  0  0  0  0  0  0  0  0
  140.5394   77.9563  219.8118 H   0  0  0  0  0  0  0  0  0  0  0  0
  136.7069   73.9896  220.5711 H   0  0  0  0  0  0  0  0  0  0  0  0
  137.4879   73.2479  219.0788 H   0  0  0  0  0  0  0  0  0  0  0  0
  136.4982   71.8263  221.2339 H   0  0  0  0  0  0  0  0  0  0  0  0
  137.7369   71.2602  220.0188 H   0  0  0  0  0  0  0  0  0  0  0  0
  137.2699   70.4723  223.0926 H   0  0  0  0  0  0  0  0  0  0  0  0
  138.9183   70.2971  224.9578 H   0  0  0  0  0  0  0  0  0  0  0  0
  141.0535   71.5821  224.8629 H   0  0  0  0  0  0  0  0  0  0  0  0
  141.5878   72.9797  222.8681 H   0  0  0  0  0  0  0  0  0  0  0  0
  140.0118   72.5595  219.7066 H   0  0  0  0  0  0  0  0  0  0  0  0
  140.6974   76.0932  220.5249 H   0  0  0  0  0  0  0  0  0  0  0  0
  143.2410   76.6090  220.5040 H   0  0  0  0  0  0  0  0  0  0  0  0
  145.5403   75.1561  220.4585 H   0  0  0  0  0  0  0  0  0  0  0  0
  146.4213   72.7975  220.5457 H   0  0  0  0  0  0  0  0  0  0  0  0
  144.8309   70.8671  220.6111 H   0  0  0  0  0  0  0  0  0  0  0  0
  142.3484   71.2676  220.5546 H   0  0  0  0  0  0  0  0  0  0  0  0
  1  2  2  0
  2  3  2  0
  2  4  1  0
  4  5  1  0
  5  6  2  0
  6  7  1  0
  7  8  2  0
  8  9  1  0
  9 10  1  0
  9 11  1  0
  9 12  1  0
  8 13  1  0
 13 14  2  0
  2 15  1  0
 15 16  1  0
 16 17  1  0
 17 18  1  0
 18 19  2  0
 19 20  1  0
 20 21  2  0
 21 22  1  0
 22 23  2  0
 23 24  1  0
 24 25  1  0
 25 26  2  0
 26 27  1  0
 27 28  1  0
 28 29  2  0
 29 30  1  0
 30 31  2  0
 31 32  1  0
 32 33  2  0
 14  5  1  0
 24 15  1  0
 33 25  1  0
 23 18  1  0
 33 28  1  0
  4 34  1  0
  4 35  1  0
  6 36  1  0
  7 37  1  0
 13 38  1  0
 14 39  1  0
 16 40  1  0
 16 41  1  0
 17 42  1  0
 17 43  1  0
 19 44  1  0
 20 45  1  0
 21 46  1  0
 22 47  1  0
 24 48  1  6
 26 49  1  0
 27 50  1  0
 29 51  1  0
 30 52  1  0
 31 53  1  0
 32 54  1  0
M  END
>  <UniqueID>  (15) 
189

>  <SMILES>  (15) 
O=S(=O)(Cc1ccc(C(F)(F)F)cc1)N1CCc2ccccc2[C@@H]1c1c[nH]c2ccccc12

>  <Energy>  (15) 
93.31607809198984

>  <Genealogy>  (15) 
O=S(=O)(Cc1ccc(C(F)(F)F)cc1)N1CCc2ccccc2[C@@H]1c1c[nH]c2ccccc12 (3D coordinates assigned)
O=S(=O)(Cc1ccc(C(F)(F)F)cc1)N1CCc2ccccc2[C@@H]1c1c[nH]c2ccccc12 (nonaromatic ring conformer: 93.31607809198984 kcal/mol)

>  <smiles>  (15) 
O=S(=O)(Cc1ccc(C(F)(F)F)cc1)N1CCc2ccccc2[C@@H]1c1c[nH]c2ccccc12

>  <score_type>  (15) 
oracle

>  <origin>  (15) 
autodockgpu

>  <m_score__min__energy>  (15) 
-7.4100000000000001

>  <m_primary>  (15) 
energy

>  <meeko>  (15) 
{"free_energy": -7.38, "intermolecular_energy": -8.87, "internal_energy": -2.02, "cluster_size": 9, "cluster_id": 1, "rank_in_cluster": 6}

>  <energy>  (15) 
-6.44

>  <cluster_rmsd>  (15) 
0.63

>  <rmsd>  (15) 
271.56

>  <cluster>  (15) 
3

$$$$
MHMHNRBLDMQEKR-XMMPIXPANA-N
     RDKit          3D

 54 58  0  0  0  0  0  0  0  0999 V2000
  138.9430   77.2570  219.9670 O   0  0  0  0  0  0  0  0  0  0  0  0
  140.2890   76.7290  219.5540 S   0  0  0  0  0  0  0  0  0  0  0  0
  140.0890   75.4960  218.7160 O   0  0  0  0  0  0  0  0  0  0  0  0
  141.1130   77.9680  218.5630 C   0  0  0  0  0  0  0  0  0  0  0  0
  140.9100   79.3320  219.1570 C   0  0  0  0  0  0  0  0  0  0  0  0
  141.9930   80.0270  219.7170 C   0  0  0  0  0  0  0  0  0  0  0  0
  141.8000   81.2820  220.3040 C   0  0  0  0  0  0  0  0  0  0  0  0
  140.5220   81.8660  220.3310 C   0  0  0  0  0  0  0  0  0  0  0  0
  140.3040   83.1940  221.0100 C   0  0  0  0  0  0  0  0  0  0  0  0
  139.2760   83.1100  221.9310 F   0  0  0  0  0  0  0  0  0  0  0  0
  139.9760   84.1680  220.0830 F   0  0  0  0  0  0  0  0  0  0  0  0
  141.4640   83.5670  221.6630 F   0  0  0  0  0  0  0  0  0  0  0  0
  139.4330   81.1490  219.8050 C   0  0  0  0  0  0  0  0  0  0  0  0
  139.6270   79.8950  219.2180 C   0  0  0  0  0  0  0  0  0  0  0  0
  141.2720   76.3630  220.9700 N   0  0  0  0  0  0  0  0  0  0  0  0
  141.8750   75.0080  220.8530 C   0  0  0  0  0  0  0  0  0  0  0  0
  141.0910   73.8680  221.5720 C   0  0  0  0  0  0  0  0  0  0  0  0
  139.6610   74.2330  221.8860 C   0  0  0  0  0  0  0  0  0  0  0  0
  138.6430   73.2700  221.8210 C   0  0  0  0  0  0  0  0  0  0  0  0
  137.3130   73.6430  222.0250 C   0  0  0  0  0  0  0  0  0  0  0  0
  136.9910   74.9800  222.2710 C   0  0  0  0  0  0  0  0  0  0  0  0
  138.0000   75.9420  222.3520 C   0  0  0  0  0  0  0  0  0  0  0  0
  139.3530   75.5620  222.2290 C   0  0  0  0  0  0  0  0  0  0  0  0
  140.5340   76.5180  222.2430 C   0  0  2  0  0  0  0  0  0  0  0  0
  140.2650   77.9700  222.6210 C   0  0  0  0  0  0  0  0  0  0  0  0
  139.0350   78.4710  223.0550 C   0  0  0  0  0  0  0  0  0  0  0  0
  139.1520   79.7410  223.4970 N   0  0  0  0  0  0  0  0  0  0  0  0
  140.4550   80.0420  223.4150 C   0  0  0  0  0  0  0  0  0  0  0  0
  141.0640   81.2220  223.8390 C   0  0  0  0  0  0  0  0  0  0  0  0
  142.4640   81.3060  223.7620 C   0  0  0  0  0  0  0  0  0  0  0  0
  143.2170   80.2110  223.2930 C   0  0  0  0  0  0  0  0  0  0  0  0
  142.5780   79.0280  222.8840 C   0  0  0  0  0  0  0  0  0  0  0  0
  141.1790   78.9800  222.9240 C   0  0  0  0  0  0  0  0  0  0  0  0
  142.1896   77.7453  218.5256 H   0  0  0  0  0  0  0  0  0  0  0  0
  140.6890   77.9536  217.5481 H   0  0  0  0  0  0  0  0  0  0  0  0
  142.9989   79.5825  219.6942 H   0  0  0  0  0  0  0  0  0  0  0  0
  142.6540   81.8151  220.7473 H   0  0  0  0  0  0  0  0  0  0  0  0
  138.4212   81.5777  219.8556 H   0  0  0  0  0  0  0  0  0  0  0  0
  138.7688   79.3471  218.8018 H   0  0  0  0  0  0  0  0  0  0  0  0
  141.9392   74.7553  219.7844 H   0  0  0  0  0  0  0  0  0  0  0  0
  142.8543   75.0658  221.3506 H   0  0  0  0  0  0  0  0  0  0  0  0
  141.0901   72.9809  220.9216 H   0  0  0  0  0  0  0  0  0  0  0  0
  141.5969   73.6789  222.5303 H   0  0  0  0  0  0  0  0  0  0  0  0
  138.8928   72.2199  221.6091 H   0  0  0  0  0  0  0  0  0  0  0  0
  136.5180   72.8834  221.9920 H   0  0  0  0  0  0  0  0  0  0  0  0
  135.9396   75.2758  222.4013 H   0  0  0  0  0  0  0  0  0  0  0  0
  137.7392   76.9986  222.5121 H   0  0  0  0  0  0  0  0  0  0  0  0
  141.1589   76.2176  223.0969 H   0  0  0  0  0  0  0  0  0  0  0  0
  138.0928   77.9036  223.0386 H   0  0  0  0  0  0  0  0  0  0  0  0
  138.3890   80.3390  223.8860 H   0  0  0  0  0  0  0  0  0  0  0  0
  140.4662   82.0621  224.2224 H   0  0  0  0  0  0  0  0  0  0  0  0
  142.9748   82.2305  224.0691 H   0  0  0  0  0  0  0  0  0  0  0  0
  144.3137   80.2828  223.2467 H   0  0  0  0  0  0  0  0  0  0  0  0
  143.1622   78.1614  222.5410 H   0  0  0  0  0  0  0  0  0  0  0  0
  1  2  2  0
  2  3  2  0
  2  4  1  0
  4  5  1  0
  5  6  2  0
  6  7  1  0
  7  8  2  0
  8  9  1  0
  9 10  1  0
  9 11  1  0
  9 12  1  0
  8 13  1  0
 13 14  2  0
  2 15  1  0
 15 16  1  0
 16 17  1  0
 17 18  1  0
 18 19  2  0
 19 20  1  0
 20 21  2  0
 21 22  1  0
 22 23  2  0
 23 24  1  0
 24 25  1  0
 25 26  2  0
 26 27  1  0
 27 28  1  0
 28 29  2  0
 29 30  1  0
 30 31  2  0
 31 32  1  0
 32 33  2  0
 14  5  1  0
 24 15  1  0
 33 25  1  0
 23 18  1  0
 33 28  1  0
  4 34  1  0
  4 35  1  0
  6 36  1  0
  7 37  1  0
 13 38  1  0
 14 39  1  0
 16 40  1  0
 16 41  1  0
 17 42  1  0
 17 43  1  0
 19 44  1  0
 20 45  1  0
 21 46  1  0
 22 47  1  0
 24 48  1  1
 26 49  1  0
 27 50  1  0
 29 51  1  0
 30 52  1  0
 31 53  1  0
 32 54  1  0
M  END
>  <UniqueID>  (16) 
189

>  <SMILES>  (16) 
O=S(=O)(Cc1ccc(C(F)(F)F)cc1)N1CCc2ccccc2[C@@H]1c1c[nH]c2ccccc12

>  <Energy>  (16) 
93.31607809198984

>  <Genealogy>  (16) 
O=S(=O)(Cc1ccc(C(F)(F)F)cc1)N1CCc2ccccc2[C@@H]1c1c[nH]c2ccccc12 (3D coordinates assigned)
O=S(=O)(Cc1ccc(C(F)(F)F)cc1)N1CCc2ccccc2[C@@H]1c1c[nH]c2ccccc12 (nonaromatic ring conformer: 93.31607809198984 kcal/mol)

>  <smiles>  (16) 
O=S(=O)(Cc1ccc(C(F)(F)F)cc1)N1CCc2ccccc2[C@@H]1c1c[nH]c2ccccc12

>  <score_type>  (16) 
oracle

>  <origin>  (16) 
autodockgpu

>  <m_score__min__energy>  (16) 
-7.4100000000000001

>  <m_primary>  (16) 
energy

>  <meeko>  (16) 
{"free_energy": -6.46, "intermolecular_energy": -7.95, "internal_energy": -2.83, "cluster_size": 7, "cluster_id": 3, "rank_in_cluster": 1}

>  <energy>  (16) 
-6.44

>  <cluster_rmsd>  (16) 
0.63

>  <rmsd>  (16) 
271.56

>  <cluster>  (16) 
3

$$$$
MHMHNRBLDMQEKR-XMMPIXPANA-N
     RDKit          3D

 54 58  0  0  0  0  0  0  0  0999 V2000
  139.8160   75.1970  222.5760 O   0  0  0  0  0  0  0  0  0  0  0  0
  138.6310   75.2510  221.6510 S   0  0  0  0  0  0  0  0  0  0  0  0
  137.3950   74.8810  222.4230 O   0  0  0  0  0  0  0  0  0  0  0  0
  138.4500   76.9230  221.0470 C   0  0  0  0  0  0  0  0  0  0  0  0
  139.5250   77.8050  221.6150 C   0  0  0  0  0  0  0  0  0  0  0  0
  139.4610   78.2260  222.9520 C   0  0  0  0  0  0  0  0  0  0  0  0
  140.4410   79.0760  223.4720 C   0  0  0  0  0  0  0  0  0  0  0  0
  141.5070   79.5110  222.6670 C   0  0  0  0  0  0  0  0  0  0  0  0
  142.5350   80.4700  223.2140 C   0  0  0  0  0  0  0  0  0  0  0  0
  143.7910   80.1780  222.7120 F   0  0  0  0  0  0  0  0  0  0  0  0
  142.5910   80.3900  224.5940 F   0  0  0  0  0  0  0  0  0  0  0  0
  142.1930   81.7590  222.8500 F   0  0  0  0  0  0  0  0  0  0  0  0
  141.5470   79.1190  221.3180 C   0  0  0  0  0  0  0  0  0  0  0  0
  140.5670   78.2690  220.7980 C   0  0  0  0  0  0  0  0  0  0  0  0
  138.8610   74.1580  220.2880 N   0  0  0  0  0  0  0  0  0  0  0  0
  137.6170   73.3870  220.0190 C   0  0  0  0  0  0  0  0  0  0  0  0
  137.5650   71.9660  220.6610 C   0  0  0  0  0  0  0  0  0  0  0  0
  138.5600   71.7810  221.7810 C   0  0  0  0  0  0  0  0  0  0  0  0
  138.2440   70.9960  222.9000 C   0  0  0  0  0  0  0  0  0  0  0  0
  139.1380   70.9080  223.9680 C   0  0  0  0  0  0  0  0  0  0  0  0
  140.3390   71.6200  223.9340 C   0  0  0  0  0  0  0  0  0  0  0  0
  140.6690   72.3910  222.8170 C   0  0  0  0  0  0  0  0  0  0  0  0
  139.8100   72.4210  221.6990 C   0  0  0  0  0  0  0  0  0  0  0  0
  140.0270   73.2620  220.4520 C   0  0  2  0  0  0  0  0  0  0  0  0
  141.3680   73.9700  220.3010 C   0  0  0  0  0  0  0  0  0  0  0  0
  141.5630   75.3500  220.4130 C   0  0  0  0  0  0  0  0  0  0  0  0
  142.8770   75.6590  220.4220 N   0  0  0  0  0  0  0  0  0  0  0  0
  143.5320   74.4900  220.3850 C   0  0  0  0  0  0  0  0  0  0  0  0
  144.9120   74.3070  220.4600 C   0  0  0  0  0  0  0  0  0  0  0  0
  145.4010   72.9910  220.5080 C   0  0  0  0  0  0  0  0  0  0  0  0
  144.5080   71.9010  220.5080 C   0  0  0  0  0  0  0  0  0  0  0  0
  143.1200   72.1140  220.4450 C   0  0  0  0  0  0  0  0  0  0  0  0
  142.6540   73.4310  220.3500 C   0  0  0  0  0  0  0  0  0  0  0  0
  138.5246   76.9218  219.9495 H   0  0  0  0  0  0  0  0  0  0  0  0
  137.4690   77.3105  221.3591 H   0  0  0  0  0  0  0  0  0  0  0  0
  138.6354   77.8853  223.5941 H   0  0  0  0  0  0  0  0  0  0  0  0
  140.3772   79.4068  224.5191 H   0  0  0  0  0  0  0  0  0  0  0  0
  142.3551   79.4837  220.6669 H   0  0  0  0  0  0  0  0  0  0  0  0
  140.6129   77.9622  219.7427 H   0  0  0  0  0  0  0  0  0  0  0  0
  136.7665   73.9670  220.4066 H   0  0  0  0  0  0  0  0  0  0  0  0
  137.5830   73.2319  218.9305 H   0  0  0  0  0  0  0  0  0  0  0  0
  136.5538   71.8003  221.0611 H   0  0  0  0  0  0  0  0  0  0  0  0
  137.8223   71.2426  219.8733 H   0  0  0  0  0  0  0  0  0  0  0  0
  137.2903   70.4491  222.9356 H   0  0  0  0  0  0  0  0  0  0  0  0
  138.8967   70.2778  224.8367 H   0  0  0  0  0  0  0  0  0  0  0  0
  141.0278   71.5734  224.7904 H   0  0  0  0  0  0  0  0  0  0  0  0
  141.6006   72.9758  222.8094 H   0  0  0  0  0  0  0  0  0  0  0  0
  140.0968   72.5529  219.6140 H   0  0  0  0  0  0  0  0  0  0  0  0
  140.7508   76.0883  220.4845 H   0  0  0  0  0  0  0  0  0  0  0  0
  143.2930   76.6130  220.5100 H   0  0  0  0  0  0  0  0  0  0  0  0
  145.5973   75.1672  220.4810 H   0  0  0  0  0  0  0  0  0  0  0  0
  146.4855   72.8106  220.5457 H   0  0  0  0  0  0  0  0  0  0  0  0
  144.9004   70.8746  220.5577 H   0  0  0  0  0  0  0  0  0  0  0  0
  142.4178   71.2677  220.4697 H   0  0  0  0  0  0  0  0  0  0  0  0
  1  2  2  0
  2  3  2  0
  2  4  1  0
  4  5  1  0
  5  6  2  0
  6  7  1  0
  7  8  2  0
  8  9  1  0
  9 10  1  0
  9 11  1  0
  9 12  1  0
  8 13  1  0
 13 14  2  0
  2 15  1  0
 15 16  1  0
 16 17  1  0
 17 18  1  0
 18 19  2  0
 19 20  1  0
 20 21  2  0
 21 22  1  0
 22 23  2  0
 23 24  1  0
 24 25  1  0
 25 26  2  0
 26 27  1  0
 27 28  1  0
 28 29  2  0
 29 30  1  0
 30 31  2  0
 31 32  1  0
 32 33  2  0
 14  5  1  0
 24 15  1  0
 33 25  1  0
 23 18  1  0
 33 28  1  0
  4 34  1  0
  4 35  1  0
  6 36  1  0
  7 37  1  0
 13 38  1  0
 14 39  1  0
 16 40  1  0
 16 41  1  0
 17 42  1  0
 17 43  1  0
 19 44  1  0
 20 45  1  0
 21 46  1  0
 22 47  1  0
 24 48  1  6
 26 49  1  0
 27 50  1  0
 29 51  1  0
 30 52  1  0
 31 53  1  0
 32 54  1  0
M  END
>  <UniqueID>  (17) 
189

>  <SMILES>  (17) 
O=S(=O)(Cc1ccc(C(F)(F)F)cc1)N1CCc2ccccc2[C@@H]1c1c[nH]c2ccccc12

>  <Energy>  (17) 
93.31607809198984

>  <Genealogy>  (17) 
O=S(=O)(Cc1ccc(C(F)(F)F)cc1)N1CCc2ccccc2[C@@H]1c1c[nH]c2ccccc12 (3D coordinates assigned)
O=S(=O)(Cc1ccc(C(F)(F)F)cc1)N1CCc2ccccc2[C@@H]1c1c[nH]c2ccccc12 (nonaromatic ring conformer: 93.31607809198984 kcal/mol)

>  <smiles>  (17) 
O=S(=O)(Cc1ccc(C(F)(F)F)cc1)N1CCc2ccccc2[C@@H]1c1c[nH]c2ccccc12

>  <score_type>  (17) 
oracle

>  <origin>  (17) 
autodockgpu

>  <m_score__min__energy>  (17) 
-7.4100000000000001

>  <m_primary>  (17) 
energy

>  <meeko>  (17) 
{"free_energy": -7.41, "intermolecular_energy": -8.9, "internal_energy": -2.01, "cluster_size": 9, "cluster_id": 1, "rank_in_cluster": 1}

>  <energy>  (17) 
-6.43

>  <cluster_rmsd>  (17) 
0.88

>  <rmsd>  (17) 
271.56

>  <cluster>  (17) 
3

$$$$
MHMHNRBLDMQEKR-XMMPIXPANA-N
     RDKit          3D

 54 58  0  0  0  0  0  0  0  0999 V2000
  142.1610   75.2500  221.5980 O   0  0  0  0  0  0  0  0  0  0  0  0
  140.7960   74.8380  221.1180 S   0  0  0  0  0  0  0  0  0  0  0  0
  140.3000   73.7080  221.9780 O   0  0  0  0  0  0  0  0  0  0  0  0
  139.6810   76.2240  221.2950 C   0  0  0  0  0  0  0  0  0  0  0  0
  140.4240   77.4330  221.7890 C   0  0  0  0  0  0  0  0  0  0  0  0
  141.0620   77.4080  223.0390 C   0  0  0  0  0  0  0  0  0  0  0  0
  141.7220   78.5430  223.5170 C   0  0  0  0  0  0  0  0  0  0  0  0
  141.7630   79.7200  222.7500 C   0  0  0  0  0  0  0  0  0  0  0  0
  142.4300   80.9600  223.2880 C   0  0  0  0  0  0  0  0  0  0  0  0
  143.7960   80.7710  223.4010 F   0  0  0  0  0  0  0  0  0  0  0  0
  141.9320   81.2770  224.5400 F   0  0  0  0  0  0  0  0  0  0  0  0
  142.1910   82.0150  222.4280 F   0  0  0  0  0  0  0  0  0  0  0  0
  141.0890   79.7530  221.5170 C   0  0  0  0  0  0  0  0  0  0  0  0
  140.4300   78.6170  221.0380 C   0  0  0  0  0  0  0  0  0  0  0  0
  140.8570   74.3490  219.4270 N   0  0  0  0  0  0  0  0  0  0  0  0
  140.6420   72.8820  219.2970 C   0  0  0  0  0  0  0  0  0  0  0  0
  141.9420   72.0260  219.1980 C   0  0  0  0  0  0  0  0  0  0  0  0
  143.1740   72.7540  219.6800 C   0  0  0  0  0  0  0  0  0  0  0  0
  144.1960   72.0690  220.3520 C   0  0  0  0  0  0  0  0  0  0  0  0
  145.2850   72.7710  220.8710 C   0  0  0  0  0  0  0  0  0  0  0  0
  145.3480   74.1600  220.7420 C   0  0  0  0  0  0  0  0  0  0  0  0
  144.3410   74.8490  220.0600 C   0  0  0  0  0  0  0  0  0  0  0  0
  143.2790   74.1400  219.4610 C   0  0  0  0  0  0  0  0  0  0  0  0
  142.0990   74.7750  218.7440 C   0  0  2  0  0  0  0  0  0  0  0  0
  142.1620   76.2720  218.4670 C   0  0  0  0  0  0  0  0  0  0  0  0
  143.3190   76.9770  218.1260 C   0  0  0  0  0  0  0  0  0  0  0  0
  143.0300   78.2420  217.7550 N   0  0  0  0  0  0  0  0  0  0  0  0
  141.6940   78.3410  217.7900 C   0  0  0  0  0  0  0  0  0  0  0  0
  140.9320   79.4450  217.4070 C   0  0  0  0  0  0  0  0  0  0  0  0
  139.5340   79.3160  217.4190 C   0  0  0  0  0  0  0  0  0  0  0  0
  138.9360   78.0930  217.7830 C   0  0  0  0  0  0  0  0  0  0  0  0
  139.7280   76.9920  218.1530 C   0  0  0  0  0  0  0  0  0  0  0  0
  141.1190   77.1540  218.1800 C   0  0  0  0  0  0  0  0  0  0  0  0
  139.2270   76.4511  220.3191 H   0  0  0  0  0  0  0  0  0  0  0  0
  138.8993   75.9628  222.0235 H   0  0  0  0  0  0  0  0  0  0  0  0
  141.0423   76.4904  223.6453 H   0  0  0  0  0  0  0  0  0  0  0  0
  142.2131   78.5151  224.5009 H   0  0  0  0  0  0  0  0  0  0  0  0
  141.0800   80.6797  220.9245 H   0  0  0  0  0  0  0  0  0  0  0  0
  139.9137   78.6522  220.0673 H   0  0  0  0  0  0  0  0  0  0  0  0
  140.0768   72.5417  220.1772 H   0  0  0  0  0  0  0  0  0  0  0  0
  140.1070   72.7351  218.3472 H   0  0  0  0  0  0  0  0  0  0  0  0
  141.8108   71.1199  219.8077 H   0  0  0  0  0  0  0  0  0  0  0  0
  142.0973   71.7908  218.1347 H   0  0  0  0  0  0  0  0  0  0  0  0
  144.1396   70.9768  220.4704 H   0  0  0  0  0  0  0  0  0  0  0  0
  146.0946   72.2295  221.3822 H   0  0  0  0  0  0  0  0  0  0  0  0
  146.1925   74.7136  221.1783 H   0  0  0  0  0  0  0  0  0  0  0  0
  144.3769   75.9462  219.9903 H   0  0  0  0  0  0  0  0  0  0  0  0
  142.1284   74.3949  217.7122 H   0  0  0  0  0  0  0  0  0  0  0  0
  144.3345   76.5554  218.1561 H   0  0  0  0  0  0  0  0  0  0  0  0
  143.7100   78.9710  217.4410 H   0  0  0  0  0  0  0  0  0  0  0  0
  141.4117   80.3876  217.1049 H   0  0  0  0  0  0  0  0  0  0  0  0
  138.9026   80.1735  217.1430 H   0  0  0  0  0  0  0  0  0  0  0  0
  137.8400   77.9990  217.7776 H   0  0  0  0  0  0  0  0  0  0  0  0
  139.2671   76.0281  218.4146 H   0  0  0  0  0  0  0  0  0  0  0  0
  1  2  2  0
  2  3  2  0
  2  4  1  0
  4  5  1  0
  5  6  2  0
  6  7  1  0
  7  8  2  0
  8  9  1  0
  9 10  1  0
  9 11  1  0
  9 12  1  0
  8 13  1  0
 13 14  2  0
  2 15  1  0
 15 16  1  0
 16 17  1  0
 17 18  1  0
 18 19  2  0
 19 20  1  0
 20 21  2  0
 21 22  1  0
 22 23  2  0
 23 24  1  0
 24 25  1  0
 25 26  2  0
 26 27  1  0
 27 28  1  0
 28 29  2  0
 29 30  1  0
 30 31  2  0
 31 32  1  0
 32 33  2  0
 14  5  1  0
 24 15  1  0
 33 25  1  0
 23 18  1  0
 33 28  1  0
  4 34  1  0
  4 35  1  0
  6 36  1  0
  7 37  1  0
 13 38  1  0
 14 39  1  0
 16 40  1  0
 16 41  1  0
 17 42  1  0
 17 43  1  0
 19 44  1  0
 20 45  1  0
 21 46  1  0
 22 47  1  0
 24 48  1  6
 26 49  1  0
 27 50  1  0
 29 51  1  0
 30 52  1  0
 31 53  1  0
 32 54  1  0
M  END
>  <UniqueID>  (18) 
189

>  <SMILES>  (18) 
O=S(=O)(Cc1ccc(C(F)(F)F)cc1)N1CCc2ccccc2[C@@H]1c1c[nH]c2ccccc12

>  <Energy>  (18) 
93.31607809198984

>  <Genealogy>  (18) 
O=S(=O)(Cc1ccc(C(F)(F)F)cc1)N1CCc2ccccc2[C@@H]1c1c[nH]c2ccccc12 (3D coordinates assigned)
O=S(=O)(Cc1ccc(C(F)(F)F)cc1)N1CCc2ccccc2[C@@H]1c1c[nH]c2ccccc12 (nonaromatic ring conformer: 93.31607809198984 kcal/mol)

>  <smiles>  (18) 
O=S(=O)(Cc1ccc(C(F)(F)F)cc1)N1CCc2ccccc2[C@@H]1c1c[nH]c2ccccc12

>  <score_type>  (18) 
oracle

>  <origin>  (18) 
autodockgpu

>  <m_score__min__energy>  (18) 
-7.4100000000000001

>  <m_primary>  (18) 
energy

>  <meeko>  (18) 
{"free_energy": -7.12, "intermolecular_energy": -8.61, "internal_energy": -2.23, "cluster_size": 4, "cluster_id": 2, "rank_in_cluster": 1}

>  <energy>  (18) 
-6.43

>  <cluster_rmsd>  (18) 
0.88

>  <rmsd>  (18) 
271.57

>  <cluster>  (18) 
3

$$$$
MHMHNRBLDMQEKR-XMMPIXPANA-N
     RDKit          3D

 54 58  0  0  0  0  0  0  0  0999 V2000
  139.1880   77.0060  219.6650 O   0  0  0  0  0  0  0  0  0  0  0  0
  140.5590   76.7110  219.1200 S   0  0  0  0  0  0  0  0  0  0  0  0
  140.4860   75.4750  218.2670 O   0  0  0  0  0  0  0  0  0  0  0  0
  141.0790   78.0820  218.0980 C   0  0  0  0  0  0  0  0  0  0  0  0
  140.8770   79.3820  218.8240 C   0  0  0  0  0  0  0  0  0  0  0  0
  141.9800   80.0920  219.3210 C   0  0  0  0  0  0  0  0  0  0  0  0
  141.7920   81.2830  220.0300 C   0  0  0  0  0  0  0  0  0  0  0  0
  140.4980   81.7880  220.2440 C   0  0  0  0  0  0  0  0  0  0  0  0
  140.2930   83.0440  221.0520 C   0  0  0  0  0  0  0  0  0  0  0  0
  139.2680   82.8740  221.9670 F   0  0  0  0  0  0  0  0  0  0  0  0
  139.9660   84.1070  220.2280 F   0  0  0  0  0  0  0  0  0  0  0  0
  141.4580   83.3430  221.7320 F   0  0  0  0  0  0  0  0  0  0  0  0
  139.3940   81.0530  219.7790 C   0  0  0  0  0  0  0  0  0  0  0  0
  139.5820   79.8630  219.0700 C   0  0  0  0  0  0  0  0  0  0  0  0
  141.7120   76.4910  220.4340 N   0  0  0  0  0  0  0  0  0  0  0  0
  142.5860   75.3150  220.1720 C   0  0  0  0  0  0  0  0  0  0  0  0
  142.1340   73.9860  220.8530 C   0  0  0  0  0  0  0  0  0  0  0  0
  140.6890   74.0020  221.2900 C   0  0  0  0  0  0  0  0  0  0  0  0
  139.9050   72.8410  221.2200 C   0  0  0  0  0  0  0  0  0  0  0  0
  138.5480   72.8930  221.5420 C   0  0  0  0  0  0  0  0  0  0  0  0
  137.9630   74.1070  221.9110 C   0  0  0  0  0  0  0  0  0  0  0  0
  138.7400   75.2640  221.9980 C   0  0  0  0  0  0  0  0  0  0  0  0
  140.1270   75.2050  221.7550 C   0  0  0  0  0  0  0  0  0  0  0  0
  141.0680   76.4000  221.7630 C   0  0  2  0  0  0  0  0  0  0  0  0
  140.5200   77.7280  222.2690 C   0  0  0  0  0  0  0  0  0  0  0  0
  139.2070   77.9440  222.6960 C   0  0  0  0  0  0  0  0  0  0  0  0
  139.0710   79.1600  223.2650 N   0  0  0  0  0  0  0  0  0  0  0  0
  140.2950   79.7050  223.2690 C   0  0  0  0  0  0  0  0  0  0  0  0
  140.6590   80.9280  223.8320 C   0  0  0  0  0  0  0  0  0  0  0  0
  142.0190   81.2780  223.8230 C   0  0  0  0  0  0  0  0  0  0  0  0
  142.9770   80.3970  223.2830 C   0  0  0  0  0  0  0  0  0  0  0  0
  142.5840   79.1650  222.7330 C   0  0  0  0  0  0  0  0  0  0  0  0
  141.2180   78.8540  222.7070 C   0  0  0  0  0  0  0  0  0  0  0  0
  142.1447   77.9664  217.8511 H   0  0  0  0  0  0  0  0  0  0  0  0
  140.4767   78.0898  217.1776 H   0  0  0  0  0  0  0  0  0  0  0  0
  142.9978   79.7103  219.1523 H   0  0  0  0  0  0  0  0  0  0  0  0
  142.6630   81.8281  220.4228 H   0  0  0  0  0  0  0  0  0  0  0  0
  138.3745   81.4168  219.9744 H   0  0  0  0  0  0  0  0  0  0  0  0
  138.7105   79.3009  218.7032 H   0  0  0  0  0  0  0  0  0  0  0  0
  142.6146   75.1478  219.0852 H   0  0  0  0  0  0  0  0  0  0  0  0
  143.5668   75.5614  220.6049 H   0  0  0  0  0  0  0  0  0  0  0  0
  142.2737   73.1619  220.1379 H   0  0  0  0  0  0  0  0  0  0  0  0
  142.7471   73.8576  221.7572 H   0  0  0  0  0  0  0  0  0  0  0  0
  140.3602   71.8885  220.9110 H   0  0  0  0  0  0  0  0  0  0  0  0
  137.9388   71.9778  221.5053 H   0  0  0  0  0  0  0  0  0  0  0  0
  136.8867   74.1515  222.1337 H   0  0  0  0  0  0  0  0  0  0  0  0
  138.2685   76.2235  222.2568 H   0  0  0  0  0  0  0  0  0  0  0  0
  141.8130   76.1974  222.5465 H   0  0  0  0  0  0  0  0  0  0  0  0
  138.3897   77.2165  222.5829 H   0  0  0  0  0  0  0  0  0  0  0  0
  138.1990   79.5620  223.6770 H   0  0  0  0  0  0  0  0  0  0  0  0
  139.9041   81.5978  224.2696 H   0  0  0  0  0  0  0  0  0  0  0  0
  142.3380   82.2448  224.2396 H   0  0  0  0  0  0  0  0  0  0  0  0
  144.0410   80.6759  223.2921 H   0  0  0  0  0  0  0  0  0  0  0  0
  143.3299   78.4625  222.3330 H   0  0  0  0  0  0  0  0  0  0  0  0
  1  2  2  0
  2  3  2  0
  2  4  1  0
  4  5  1  0
  5  6  2  0
  6  7  1  0
  7  8  2  0
  8  9  1  0
  9 10  1  0
  9 11  1  0
  9 12  1  0
  8 13  1  0
 13 14  2  0
  2 15  1  0
 15 16  1  0
 16 17  1  0
 17 18  1  0
 18 19  2  0
 19 20  1  0
 20 21  2  0
 21 22  1  0
 22 23  2  0
 23 24  1  0
 24 25  1  0
 25 26  2  0
 26 27  1  0
 27 28  1  0
 28 29  2  0
 29 30  1  0
 30 31  2  0
 31 32  1  0
 32 33  2  0
 14  5  1  0
 24 15  1  0
 33 25  1  0
 23 18  1  0
 33 28  1  0
  4 34  1  0
  4 35  1  0
  6 36  1  0
  7 37  1  0
 13 38  1  0
 14 39  1  0
 16 40  1  0
 16 41  1  0
 17 42  1  0
 17 43  1  0
 19 44  1  0
 20 45  1  0
 21 46  1  0
 22 47  1  0
 24 48  1  1
 26 49  1  0
 27 50  1  0
 29 51  1  0
 30 52  1  0
 31 53  1  0
 32 54  1  0
M  END
>  <UniqueID>  (19) 
189

>  <SMILES>  (19) 
O=S(=O)(Cc1ccc(C(F)(F)F)cc1)N1CCc2ccccc2[C@@H]1c1c[nH]c2ccccc12

>  <Energy>  (19) 
93.31607809198984

>  <Genealogy>  (19) 
O=S(=O)(Cc1ccc(C(F)(F)F)cc1)N1CCc2ccccc2[C@@H]1c1c[nH]c2ccccc12 (3D coordinates assigned)
O=S(=O)(Cc1ccc(C(F)(F)F)cc1)N1CCc2ccccc2[C@@H]1c1c[nH]c2ccccc12 (nonaromatic ring conformer: 93.31607809198984 kcal/mol)

>  <smiles>  (19) 
O=S(=O)(Cc1ccc(C(F)(F)F)cc1)N1CCc2ccccc2[C@@H]1c1c[nH]c2ccccc12

>  <score_type>  (19) 
oracle

>  <origin>  (19) 
autodockgpu

>  <m_score__min__energy>  (19) 
-7.4100000000000001

>  <m_primary>  (19) 
energy

>  <meeko>  (19) 
{"free_energy": -6.44, "intermolecular_energy": -7.93, "internal_energy": -2.87, "cluster_size": 7, "cluster_id": 3, "rank_in_cluster": 2}

>  <energy>  (19) 
-6.43

>  <cluster_rmsd>  (19) 
0.88

>  <rmsd>  (19) 
271.56

>  <cluster>  (19) 
3

$$$$
MHMHNRBLDMQEKR-XMMPIXPANA-N
     RDKit          3D

 54 58  0  0  0  0  0  0  0  0999 V2000
  139.8500   75.2530  222.5140 O   0  0  0  0  0  0  0  0  0  0  0  0
  138.6560   75.2610  221.5980 S   0  0  0  0  0  0  0  0  0  0  0  0
  137.4350   74.8840  222.3900 O   0  0  0  0  0  0  0  0  0  0  0  0
  138.4350   76.9150  220.9570 C   0  0  0  0  0  0  0  0  0  0  0  0
  139.4650   77.8430  221.5370 C   0  0  0  0  0  0  0  0  0  0  0  0
  140.5460   78.2760  220.7550 C   0  0  0  0  0  0  0  0  0  0  0  0
  141.5250   79.1090  221.3030 C   0  0  0  0  0  0  0  0  0  0  0  0
  141.4340   79.5310  222.6400 C   0  0  0  0  0  0  0  0  0  0  0  0
  142.5180   80.3870  223.2460 C   0  0  0  0  0  0  0  0  0  0  0  0
  143.7310   80.1520  222.6250 F   0  0  0  0  0  0  0  0  0  0  0  0
  142.6610   80.1110  224.5950 F   0  0  0  0  0  0  0  0  0  0  0  0
  142.1840   81.7200  223.0920 F   0  0  0  0  0  0  0  0  0  0  0  0
  140.3720   79.0630  223.4320 C   0  0  0  0  0  0  0  0  0  0  0  0
  139.3920   78.2300  222.8830 C   0  0  0  0  0  0  0  0  0  0  0  0
  138.8970   74.1420  220.2590 N   0  0  0  0  0  0  0  0  0  0  0  0
  137.6590   73.3580  220.0030 C   0  0  0  0  0  0  0  0  0  0  0  0
  137.6130   71.9500  220.6740 C   0  0  0  0  0  0  0  0  0  0  0  0
  138.6060   71.7940  221.8000 C   0  0  0  0  0  0  0  0  0  0  0  0
  138.2910   71.0300  222.9340 C   0  0  0  0  0  0  0  0  0  0  0  0
  139.1830   70.9700  224.0060 C   0  0  0  0  0  0  0  0  0  0  0  0
  140.3790   71.6890  223.9620 C   0  0  0  0  0  0  0  0  0  0  0  0
  140.7080   72.4390  222.8300 C   0  0  0  0  0  0  0  0  0  0  0  0
  139.8520   72.4410  221.7100 C   0  0  0  0  0  0  0  0  0  0  0  0
  140.0690   73.2570  220.4460 C   0  0  2  0  0  0  0  0  0  0  0  0
  141.4050   73.9700  220.2840 C   0  0  0  0  0  0  0  0  0  0  0  0
  141.5950   75.3510  220.3850 C   0  0  0  0  0  0  0  0  0  0  0  0
  142.9070   75.6660  220.3870 N   0  0  0  0  0  0  0  0  0  0  0  0
  143.5670   74.5000  220.3570 C   0  0  0  0  0  0  0  0  0  0  0  0
  144.9490   74.3240  220.4270 C   0  0  0  0  0  0  0  0  0  0  0  0
  145.4440   73.0110  220.4840 C   0  0  0  0  0  0  0  0  0  0  0  0
  144.5560   71.9170  220.4960 C   0  0  0  0  0  0  0  0  0  0  0  0
  143.1670   72.1230  220.4360 C   0  0  0  0  0  0  0  0  0  0  0  0
  142.6940   73.4370  220.3330 C   0  0  0  0  0  0  0  0  0  0  0  0
  138.5393   76.8964  219.8621 H   0  0  0  0  0  0  0  0  0  0  0  0
  137.4334   77.2748  221.2350 H   0  0  0  0  0  0  0  0  0  0  0  0
  140.6235   77.9581  219.7048 H   0  0  0  0  0  0  0  0  0  0  0  0
  142.3727   79.4366  220.6833 H   0  0  0  0  0  0  0  0  0  0  0  0
  140.3110   79.3538  224.4911 H   0  0  0  0  0  0  0  0  0  0  0  0
  138.5600   77.8767  223.5098 H   0  0  0  0  0  0  0  0  0  0  0  0
  136.8040   73.9408  220.3762 H   0  0  0  0  0  0  0  0  0  0  0  0
  137.6296   73.1799  218.9179 H   0  0  0  0  0  0  0  0  0  0  0  0
  136.6017   71.7868  221.0749 H   0  0  0  0  0  0  0  0  0  0  0  0
  137.8762   71.2118  219.9021 H   0  0  0  0  0  0  0  0  0  0  0  0
  137.3405   70.4780  222.9782 H   0  0  0  0  0  0  0  0  0  0  0  0
  138.9434   70.3556  224.8864 H   0  0  0  0  0  0  0  0  0  0  0  0
  141.0648   71.6649  224.8217 H   0  0  0  0  0  0  0  0  0  0  0  0
  141.6364   73.0288  222.8127 H   0  0  0  0  0  0  0  0  0  0  0  0
  140.1475   72.5305  219.6238 H   0  0  0  0  0  0  0  0  0  0  0  0
  140.7799   76.0864  220.4540 H   0  0  0  0  0  0  0  0  0  0  0  0
  143.3190   76.6230  220.4660 H   0  0  0  0  0  0  0  0  0  0  0  0
  145.6304   75.1875  220.4373 H   0  0  0  0  0  0  0  0  0  0  0  0
  146.5294   72.8359  220.5194 H   0  0  0  0  0  0  0  0  0  0  0  0
  144.9533   70.8928  220.5528 H   0  0  0  0  0  0  0  0  0  0  0  0
  142.4690   71.2734  220.4691 H   0  0  0  0  0  0  0  0  0  0  0  0
  1  2  2  0
  2  3  2  0
  2  4  1  0
  4  5  1  0
  5  6  2  0
  6  7  1  0
  7  8  2  0
  8  9  1  0
  9 10  1  0
  9 11  1  0
  9 12  1  0
  8 13  1  0
 13 14  2  0
  2 15  1  0
 15 16  1  0
 16 17  1  0
 17 18  1  0
 18 19  2  0
 19 20  1  0
 20 21  2  0
 21 22  1  0
 22 23  2  0
 23 24  1  0
 24 25  1  0
 25 26  2  0
 26 27  1  0
 27 28  1  0
 28 29  2  0
 29 30  1  0
 30 31  2  0
 31 32  1  0
 32 33  2  0
 14  5  1  0
 24 15  1  0
 33 25  1  0
 23 18  1  0
 33 28  1  0
  4 34  1  0
  4 35  1  0
  6 36  1  0
  7 37  1  0
 13 38  1  0
 14 39  1  0
 16 40  1  0
 16 41  1  0
 17 42  1  0
 17 43  1  0
 19 44  1  0
 20 45  1  0
 21 46  1  0
 22 47  1  0
 24 48  1  6
 26 49  1  0
 27 50  1  0
 29 51  1  0
 30 52  1  0
 31 53  1  0
 32 54  1  0
M  END
>  <UniqueID>  (20) 
189

>  <SMILES>  (20) 
O=S(=O)(Cc1ccc(C(F)(F)F)cc1)N1CCc2ccccc2[C@@H]1c1c[nH]c2ccccc12

>  <Energy>  (20) 
93.31607809198984

>  <Genealogy>  (20) 
O=S(=O)(Cc1ccc(C(F)(F)F)cc1)N1CCc2ccccc2[C@@H]1c1c[nH]c2ccccc12 (3D coordinates assigned)
O=S(=O)(Cc1ccc(C(F)(F)F)cc1)N1CCc2ccccc2[C@@H]1c1c[nH]c2ccccc12 (nonaromatic ring conformer: 93.31607809198984 kcal/mol)

>  <smiles>  (20) 
O=S(=O)(Cc1ccc(C(F)(F)F)cc1)N1CCc2ccccc2[C@@H]1c1c[nH]c2ccccc12

>  <score_type>  (20) 
oracle

>  <origin>  (20) 
autodockgpu

>  <m_score__min__energy>  (20) 
-7.4100000000000001

>  <m_primary>  (20) 
energy

>  <meeko>  (20) 
{"free_energy": -7.34, "intermolecular_energy": -8.83, "internal_energy": -2.02, "cluster_size": 9, "cluster_id": 1, "rank_in_cluster": 7}

>  <energy>  (20) 
-6.42

>  <cluster_rmsd>  (20) 
0.88

>  <rmsd>  (20) 
271.56

>  <cluster>  (20) 
3

$$$$
MHMHNRBLDMQEKR-XMMPIXPANA-N
     RDKit          3D

 54 58  0  0  0  0  0  0  0  0999 V2000
  142.1590   75.2610  221.5820 O   0  0  0  0  0  0  0  0  0  0  0  0
  140.8040   74.8010  221.1180 S   0  0  0  0  0  0  0  0  0  0  0  0
  140.3420   73.6790  222.0070 O   0  0  0  0  0  0  0  0  0  0  0  0
  139.6530   76.1600  221.2670 C   0  0  0  0  0  0  0  0  0  0  0  0
  140.3660   77.4020  221.7200 C   0  0  0  0  0  0  0  0  0  0  0  0
  141.0420   77.4210  222.9490 C   0  0  0  0  0  0  0  0  0  0  0  0
  141.6750   78.5870  223.3900 C   0  0  0  0  0  0  0  0  0  0  0  0
  141.6510   79.7510  222.6030 C   0  0  0  0  0  0  0  0  0  0  0  0
  142.2890   81.0230  223.1020 C   0  0  0  0  0  0  0  0  0  0  0  0
  141.6770   81.4530  224.2660 F   0  0  0  0  0  0  0  0  0  0  0  0
  142.1770   82.0280  222.1580 F   0  0  0  0  0  0  0  0  0  0  0  0
  143.6280   80.7910  223.3560 F   0  0  0  0  0  0  0  0  0  0  0  0
  140.9390   79.7400  221.3910 C   0  0  0  0  0  0  0  0  0  0  0  0
  140.3070   78.5740  220.9510 C   0  0  0  0  0  0  0  0  0  0  0  0
  140.8710   74.2730  219.4380 N   0  0  0  0  0  0  0  0  0  0  0  0
  140.6660   72.8020  219.3430 C   0  0  0  0  0  0  0  0  0  0  0  0
  141.9720   71.9530  219.2660 C   0  0  0  0  0  0  0  0  0  0  0  0
  143.1980   72.7010  219.7320 C   0  0  0  0  0  0  0  0  0  0  0  0
  144.2240   72.0380  220.4220 C   0  0  0  0  0  0  0  0  0  0  0  0
  145.3070   72.7600  220.9260 C   0  0  0  0  0  0  0  0  0  0  0  0
  145.3600   74.1460  220.7640 C   0  0  0  0  0  0  0  0  0  0  0  0
  144.3500   74.8110  220.0650 C   0  0  0  0  0  0  0  0  0  0  0  0
  143.2940   74.0820  219.4820 C   0  0  0  0  0  0  0  0  0  0  0  0
  142.1110   74.6920  218.7480 C   0  0  2  0  0  0  0  0  0  0  0  0
  142.1640   76.1820  218.4360 C   0  0  0  0  0  0  0  0  0  0  0  0
  143.3160   76.8850  218.0740 C   0  0  0  0  0  0  0  0  0  0  0  0
  143.0180   78.1400  217.6750 N   0  0  0  0  0  0  0  0  0  0  0  0
  141.6820   78.2330  217.7130 C   0  0  0  0  0  0  0  0  0  0  0  0
  140.9110   79.3220  217.3090 C   0  0  0  0  0  0  0  0  0  0  0  0
  139.5140   79.1860  217.3300 C   0  0  0  0  0  0  0  0  0  0  0  0
  138.9250   77.9680  217.7250 C   0  0  0  0  0  0  0  0  0  0  0  0
  139.7250   76.8810  218.1160 C   0  0  0  0  0  0  0  0  0  0  0  0
  141.1150   77.0520  218.1340 C   0  0  0  0  0  0  0  0  0  0  0  0
  139.1844   76.3471  220.2895 H   0  0  0  0  0  0  0  0  0  0  0  0
  138.8853   75.8979  222.0099 H   0  0  0  0  0  0  0  0  0  0  0  0
  141.0743   76.5132  223.5694 H   0  0  0  0  0  0  0  0  0  0  0  0
  142.1952   78.5933  224.3592 H   0  0  0  0  0  0  0  0  0  0  0  0
  140.8789   80.6558  220.7846 H   0  0  0  0  0  0  0  0  0  0  0  0
  139.7603   78.5750  219.9965 H   0  0  0  0  0  0  0  0  0  0  0  0
  140.1020   72.4790  220.2305 H   0  0  0  0  0  0  0  0  0  0  0  0
  140.1330   72.6286  218.3965 H   0  0  0  0  0  0  0  0  0  0  0  0
  141.8463   71.0608  219.8970 H   0  0  0  0  0  0  0  0  0  0  0  0
  142.1305   71.6935  218.2089 H   0  0  0  0  0  0  0  0  0  0  0  0
  144.1749   70.9486  220.5659 H   0  0  0  0  0  0  0  0  0  0  0  0
  146.1196   72.2367  221.4513 H   0  0  0  0  0  0  0  0  0  0  0  0
  146.1998   74.7159  221.1882 H   0  0  0  0  0  0  0  0  0  0  0  0
  144.3788   75.9064  219.9693 H   0  0  0  0  0  0  0  0  0  0  0  0
  142.1453   74.2885  217.7252 H   0  0  0  0  0  0  0  0  0  0  0  0
  144.3340   76.4697  218.1095 H   0  0  0  0  0  0  0  0  0  0  0  0
  143.6920   78.8650  217.3410 H   0  0  0  0  0  0  0  0  0  0  0  0
  141.3835   80.2604  216.9833 H   0  0  0  0  0  0  0  0  0  0  0  0
  138.8766   80.0333  217.0371 H   0  0  0  0  0  0  0  0  0  0  0  0
  137.8296   77.8675  217.7272 H   0  0  0  0  0  0  0  0  0  0  0  0
  139.2712   75.9203  218.4007 H   0  0  0  0  0  0  0  0  0  0  0  0
  1  2  2  0
  2  3  2  0
  2  4  1  0
  4  5  1  0
  5  6  2  0
  6  7  1  0
  7  8  2  0
  8  9  1  0
  9 10  1  0
  9 11  1  0
  9 12  1  0
  8 13  1  0
 13 14  2  0
  2 15  1  0
 15 16  1  0
 16 17  1  0
 17 18  1  0
 18 19  2  0
 19 20  1  0
 20 21  2  0
 21 22  1  0
 22 23  2  0
 23 24  1  0
 24 25  1  0
 25 26  2  0
 26 27  1  0
 27 28  1  0
 28 29  2  0
 29 30  1  0
 30 31  2  0
 31 32  1  0
 32 33  2  0
 14  5  1  0
 24 15  1  0
 33 25  1  0
 23 18  1  0
 33 28  1  0
  4 34  1  0
  4 35  1  0
  6 36  1  0
  7 37  1  0
 13 38  1  0
 14 39  1  0
 16 40  1  0
 16 41  1  0
 17 42  1  0
 17 43  1  0
 19 44  1  0
 20 45  1  0
 21 46  1  0
 22 47  1  0
 24 48  1  6
 26 49  1  0
 27 50  1  0
 29 51  1  0
 30 52  1  0
 31 53  1  0
 32 54  1  0
M  END
>  <UniqueID>  (21) 
190

>  <SMILES>  (21) 
O=S(=O)(Cc1ccc(C(F)(F)F)cc1)N1CCc2ccccc2[C@@H]1c1c[nH]c2ccccc12

>  <Energy>  (21) 
98.03035976018789

>  <Genealogy>  (21) 
O=S(=O)(Cc1ccc(C(F)(F)F)cc1)N1CCc2ccccc2[C@@H]1c1c[nH]c2ccccc12 (3D coordinates assigned)
O=S(=O)(Cc1ccc(C(F)(F)F)cc1)N1CCc2ccccc2[C@@H]1c1c[nH]c2ccccc12 (nonaromatic ring conformer: 98.03035976018789 kcal/mol)

>  <smiles>  (21) 
O=S(=O)(Cc1ccc(C(F)(F)F)cc1)N1CCc2ccccc2[C@@H]1c1c[nH]c2ccccc12

>  <score_type>  (21) 
oracle

>  <origin>  (21) 
autodockgpu

>  <m_score__min__energy>  (21) 
-7.4100000000000001

>  <m_primary>  (21) 
energy

>  <meeko>  (21) 
{"free_energy": -7.08, "intermolecular_energy": -8.57, "internal_energy": -2.24, "cluster_size": 4, "cluster_id": 2, "rank_in_cluster": 4}

>  <energy>  (21) 
-7.41

>  <cluster_rmsd>  (21) 
0.0

>  <rmsd>  (21) 
271.29

>  <cluster>  (21) 
1

$$$$
MHMHNRBLDMQEKR-XMMPIXPANA-N
     RDKit          3D

 54 58  0  0  0  0  0  0  0  0999 V2000
  139.3220   76.8240  219.5750 O   0  0  0  0  0  0  0  0  0  0  0  0
  140.6640   76.7100  218.9060 S   0  0  0  0  0  0  0  0  0  0  0  0
  140.6800   75.4680  218.0600 O   0  0  0  0  0  0  0  0  0  0  0  0
  140.9000   78.1290  217.8460 C   0  0  0  0  0  0  0  0  0  0  0  0
  140.7840   79.4000  218.6380 C   0  0  0  0  0  0  0  0  0  0  0  0
  141.9360   80.0500  219.1050 C   0  0  0  0  0  0  0  0  0  0  0  0
  141.8290   81.2120  219.8750 C   0  0  0  0  0  0  0  0  0  0  0  0
  140.5680   81.7490  220.1820 C   0  0  0  0  0  0  0  0  0  0  0  0
  140.4510   82.9730  221.0550 C   0  0  0  0  0  0  0  0  0  0  0  0
  140.2500   84.1050  220.2850 F   0  0  0  0  0  0  0  0  0  0  0  0
  141.6040   83.1540  221.7980 F   0  0  0  0  0  0  0  0  0  0  0  0
  139.3800   82.8170  221.9150 F   0  0  0  0  0  0  0  0  0  0  0  0
  139.4140   81.0740  219.7460 C   0  0  0  0  0  0  0  0  0  0  0  0
  139.5220   79.9120  218.9760 C   0  0  0  0  0  0  0  0  0  0  0  0
  141.9520   76.6580  220.1080 N   0  0  0  0  0  0  0  0  0  0  0  0
  142.9420   75.6010  219.7690 C   0  0  0  0  0  0  0  0  0  0  0  0
  142.7300   74.2340  220.4910 C   0  0  0  0  0  0  0  0  0  0  0  0
  141.3410   74.0700  221.0600 C   0  0  0  0  0  0  0  0  0  0  0  0
  140.7110   72.8170  221.0640 C   0  0  0  0  0  0  0  0  0  0  0  0
  139.3930   72.6990  221.5100 C   0  0  0  0  0  0  0  0  0  0  0  0
  138.6920   73.8320  221.9300 C   0  0  0  0  0  0  0  0  0  0  0  0
  139.3180   75.0800  221.9430 C   0  0  0  0  0  0  0  0  0  0  0  0
  140.6730   75.1970  221.5730 C   0  0  0  0  0  0  0  0  0  0  0  0
  141.4480   76.5020  221.4910 C   0  0  2  0  0  0  0  0  0  0  0  0
  140.7820   77.7560  222.0440 C   0  0  0  0  0  0  0  0  0  0  0  0
  139.4350   77.8570  222.4020 C   0  0  0  0  0  0  0  0  0  0  0  0
  139.1820   79.0220  223.0350 N   0  0  0  0  0  0  0  0  0  0  0  0
  140.3640   79.6450  223.1480 C   0  0  0  0  0  0  0  0  0  0  0  0
  140.6100   80.8490  223.8060 C   0  0  0  0  0  0  0  0  0  0  0  0
  141.9410   81.2880  223.9030 C   0  0  0  0  0  0  0  0  0  0  0  0
  142.9860   80.5080  223.3690 C   0  0  0  0  0  0  0  0  0  0  0  0
  142.7110   79.2920  222.7210 C   0  0  0  0  0  0  0  0  0  0  0  0
  141.3750   78.8940  222.5930 C   0  0  0  0  0  0  0  0  0  0  0  0
  141.8989   78.0772  217.3882 H   0  0  0  0  0  0  0  0  0  0  0  0
  140.1253   78.1235  217.0651 H   0  0  0  0  0  0  0  0  0  0  0  0
  142.9292   79.6432  218.8640 H   0  0  0  0  0  0  0  0  0  0  0  0
  142.7387   81.7091  220.2429 H   0  0  0  0  0  0  0  0  0  0  0  0
  138.4200   81.4626  220.0124 H   0  0  0  0  0  0  0  0  0  0  0  0
  138.6128   79.3964  218.6333 H   0  0  0  0  0  0  0  0  0  0  0  0
  142.8925   75.4240  218.6845 H   0  0  0  0  0  0  0  0  0  0  0  0
  143.9180   75.9772  220.1095 H   0  0  0  0  0  0  0  0  0  0  0  0
  142.9089   73.4251  219.7673 H   0  0  0  0  0  0  0  0  0  0  0  0
  143.4349   74.1976  221.3347 H   0  0  0  0  0  0  0  0  0  0  0  0
  141.2553   71.9268  220.7157 H   0  0  0  0  0  0  0  0  0  0  0  0
  138.9062   71.7128  221.5306 H   0  0  0  0  0  0  0  0  0  0  0  0
  137.6440   73.7407  222.2514 H   0  0  0  0  0  0  0  0  0  0  0  0
  138.7521   75.9744  222.2428 H   0  0  0  0  0  0  0  0  0  0  0  0
  142.2816   76.4061  222.2023 H   0  0  0  0  0  0  0  0  0  0  0  0
  138.6781   77.0862  222.1946 H   0  0  0  0  0  0  0  0  0  0  0  0
  138.2630   79.3380  223.4170 H   0  0  0  0  0  0  0  0  0  0  0  0
  139.7866   81.4378  224.2364 H   0  0  0  0  0  0  0  0  0  0  0  0
  142.1682   82.2440  224.3975 H   0  0  0  0  0  0  0  0  0  0  0  0
  144.0261   80.8541  223.4603 H   0  0  0  0  0  0  0  0  0  0  0  0
  143.5254   78.6682  222.3240 H   0  0  0  0  0  0  0  0  0  0  0  0
  1  2  2  0
  2  3  2  0
  2  4  1  0
  4  5  1  0
  5  6  2  0
  6  7  1  0
  7  8  2  0
  8  9  1  0
  9 10  1  0
  9 11  1  0
  9 12  1  0
  8 13  1  0
 13 14  2  0
  2 15  1  0
 15 16  1  0
 16 17  1  0
 17 18  1  0
 18 19  2  0
 19 20  1  0
 20 21  2  0
 21 22  1  0
 22 23  2  0
 23 24  1  0
 24 25  1  0
 25 26  2  0
 26 27  1  0
 27 28  1  0
 28 29  2  0
 29 30  1  0
 30 31  2  0
 31 32  1  0
 32 33  2  0
 14  5  1  0
 24 15  1  0
 33 25  1  0
 23 18  1  0
 33 28  1  0
  4 34  1  0
  4 35  1  0
  6 36  1  0
  7 37  1  0
 13 38  1  0
 14 39  1  0
 16 40  1  0
 16 41  1  0
 17 42  1  0
 17 43  1  0
 19 44  1  0
 20 45  1  0
 21 46  1  0
 22 47  1  0
 24 48  1  1
 26 49  1  0
 27 50  1  0
 29 51  1  0
 30 52  1  0
 31 53  1  0
 32 54  1  0
M  END
>  <UniqueID>  (22) 
190

>  <SMILES>  (22) 
O=S(=O)(Cc1ccc(C(F)(F)F)cc1)N1CCc2ccccc2[C@@H]1c1c[nH]c2ccccc12

>  <Energy>  (22) 
98.03035976018789

>  <Genealogy>  (22) 
O=S(=O)(Cc1ccc(C(F)(F)F)cc1)N1CCc2ccccc2[C@@H]1c1c[nH]c2ccccc12 (3D coordinates assigned)
O=S(=O)(Cc1ccc(C(F)(F)F)cc1)N1CCc2ccccc2[C@@H]1c1c[nH]c2ccccc12 (nonaromatic ring conformer: 98.03035976018789 kcal/mol)

>  <smiles>  (22) 
O=S(=O)(Cc1ccc(C(F)(F)F)cc1)N1CCc2ccccc2[C@@H]1c1c[nH]c2ccccc12

>  <score_type>  (22) 
oracle

>  <origin>  (22) 
autodockgpu

>  <m_score__min__energy>  (22) 
-7.4100000000000001

>  <m_primary>  (22) 
energy

>  <meeko>  (22) 
{"free_energy": -6.42, "intermolecular_energy": -7.91, "internal_energy": -2.88, "cluster_size": 7, "cluster_id": 3, "rank_in_cluster": 7}

>  <energy>  (22) 
-7.41

>  <cluster_rmsd>  (22) 
0.05

>  <rmsd>  (22) 
271.28

>  <cluster>  (22) 
1

$$$$
MHMHNRBLDMQEKR-XMMPIXPANA-N
     RDKit          3D

 54 58  0  0  0  0  0  0  0  0999 V2000
  139.3110   76.8110  219.5960 O   0  0  0  0  0  0  0  0  0  0  0  0
  140.6520   76.6980  218.9230 S   0  0  0  0  0  0  0  0  0  0  0  0
  140.6700   75.4490  218.0850 O   0  0  0  0  0  0  0  0  0  0  0  0
  140.8780   78.1100  217.8510 C   0  0  0  0  0  0  0  0  0  0  0  0
  140.7680   79.3860  218.6370 C   0  0  0  0  0  0  0  0  0  0  0  0
  141.9240   80.0390  219.0890 C   0  0  0  0  0  0  0  0  0  0  0  0
  141.8240   81.2060  219.8520 C   0  0  0  0  0  0  0  0  0  0  0  0
  140.5650   81.7450  220.1670 C   0  0  0  0  0  0  0  0  0  0  0  0
  140.4550   82.9740  221.0330 C   0  0  0  0  0  0  0  0  0  0  0  0
  141.6100   83.1540  221.7750 F   0  0  0  0  0  0  0  0  0  0  0  0
  139.3910   82.8590  221.9110 F   0  0  0  0  0  0  0  0  0  0  0  0
  140.2590   84.0810  220.2300 F   0  0  0  0  0  0  0  0  0  0  0  0
  139.4080   81.0660  219.7460 C   0  0  0  0  0  0  0  0  0  0  0  0
  139.5090   79.9000  218.9830 C   0  0  0  0  0  0  0  0  0  0  0  0
  141.9440   76.6600  220.1210 N   0  0  0  0  0  0  0  0  0  0  0  0
  142.9410   75.6090  219.7820 C   0  0  0  0  0  0  0  0  0  0  0  0
  142.7410   74.2440  220.5100 C   0  0  0  0  0  0  0  0  0  0  0  0
  141.3560   74.0710  221.0840 C   0  0  0  0  0  0  0  0  0  0  0  0
  140.7350   72.8140  221.0960 C   0  0  0  0  0  0  0  0  0  0  0  0
  139.4200   72.6870  221.5460 C   0  0  0  0  0  0  0  0  0  0  0  0
  138.7120   73.8160  221.9650 C   0  0  0  0  0  0  0  0  0  0  0  0
  139.3280   75.0700  221.9700 C   0  0  0  0  0  0  0  0  0  0  0  0
  140.6810   75.1960  221.5950 C   0  0  0  0  0  0  0  0  0  0  0  0
  141.4460   76.5060  221.5060 C   0  0  2  0  0  0  0  0  0  0  0  0
  140.7720   77.7570  222.0560 C   0  0  0  0  0  0  0  0  0  0  0  0
  139.4260   77.8490  222.4190 C   0  0  0  0  0  0  0  0  0  0  0  0
  139.1670   79.0150  223.0480 N   0  0  0  0  0  0  0  0  0  0  0  0
  140.3440   79.6470  223.1540 C   0  0  0  0  0  0  0  0  0  0  0  0
  140.5840   80.8550  223.8070 C   0  0  0  0  0  0  0  0  0  0  0  0
  141.9110   81.3050  223.8960 C   0  0  0  0  0  0  0  0  0  0  0  0
  142.9610   80.5310  223.3610 C   0  0  0  0  0  0  0  0  0  0  0  0
  142.6930   79.3100  222.7190 C   0  0  0  0  0  0  0  0  0  0  0  0
  141.3590   78.9020  222.5980 C   0  0  0  0  0  0  0  0  0  0  0  0
  141.8729   78.0558  217.3848 H   0  0  0  0  0  0  0  0  0  0  0  0
  140.0971   78.0991  217.0764 H   0  0  0  0  0  0  0  0  0  0  0  0
  142.9149   79.6305  218.8417 H   0  0  0  0  0  0  0  0  0  0  0  0
  142.7369   81.7057  220.2082 H   0  0  0  0  0  0  0  0  0  0  0  0
  138.4163   81.4556  220.0193 H   0  0  0  0  0  0  0  0  0  0  0  0
  138.5968   79.3822  218.6518 H   0  0  0  0  0  0  0  0  0  0  0  0
  142.8889   75.4275  218.6983 H   0  0  0  0  0  0  0  0  0  0  0  0
  143.9156   75.9936  220.1169 H   0  0  0  0  0  0  0  0  0  0  0  0
  142.9239   73.4337  219.7890 H   0  0  0  0  0  0  0  0  0  0  0  0
  143.4484   74.2170  221.3520 H   0  0  0  0  0  0  0  0  0  0  0  0
  141.2851   71.9265  220.7501 H   0  0  0  0  0  0  0  0  0  0  0  0
  138.9407   71.6972  221.5708 H   0  0  0  0  0  0  0  0  0  0  0  0
  137.6664   73.7174  222.2920 H   0  0  0  0  0  0  0  0  0  0  0  0
  138.7558   75.9612  222.2673 H   0  0  0  0  0  0  0  0  0  0  0  0
  142.2825   76.4195  222.2150 H   0  0  0  0  0  0  0  0  0  0  0  0
  138.6742   77.0715  222.2182 H   0  0  0  0  0  0  0  0  0  0  0  0
  138.2470   79.3250  223.4330 H   0  0  0  0  0  0  0  0  0  0  0  0
  139.7580   81.4385  224.2398 H   0  0  0  0  0  0  0  0  0  0  0  0
  142.1323   82.2652  224.3850 H   0  0  0  0  0  0  0  0  0  0  0  0
  143.9987   80.8858  223.4468 H   0  0  0  0  0  0  0  0  0  0  0  0
  143.5105   78.6905  222.3216 H   0  0  0  0  0  0  0  0  0  0  0  0
  1  2  2  0
  2  3  2  0
  2  4  1  0
  4  5  1  0
  5  6  2  0
  6  7  1  0
  7  8  2  0
  8  9  1  0
  9 10  1  0
  9 11  1  0
  9 12  1  0
  8 13  1  0
 13 14  2  0
  2 15  1  0
 15 16  1  0
 16 17  1  0
 17 18  1  0
 18 19  2  0
 19 20  1  0
 20 21  2  0
 21 22  1  0
 22 23  2  0
 23 24  1  0
 24 25  1  0
 25 26  2  0
 26 27  1  0
 27 28  1  0
 28 29  2  0
 29 30  1  0
 30 31  2  0
 31 32  1  0
 32 33  2  0
 14  5  1  0
 24 15  1  0
 33 25  1  0
 23 18  1  0
 33 28  1  0
  4 34  1  0
  4 35  1  0
  6 36  1  0
  7 37  1  0
 13 38  1  0
 14 39  1  0
 16 40  1  0
 16 41  1  0
 17 42  1  0
 17 43  1  0
 19 44  1  0
 20 45  1  0
 21 46  1  0
 22 47  1  0
 24 48  1  1
 26 49  1  0
 27 50  1  0
 29 51  1  0
 30 52  1  0
 31 53  1  0
 32 54  1  0
M  END
>  <UniqueID>  (23) 
190

>  <SMILES>  (23) 
O=S(=O)(Cc1ccc(C(F)(F)F)cc1)N1CCc2ccccc2[C@@H]1c1c[nH]c2ccccc12

>  <Energy>  (23) 
98.03035976018789

>  <Genealogy>  (23) 
O=S(=O)(Cc1ccc(C(F)(F)F)cc1)N1CCc2ccccc2[C@@H]1c1c[nH]c2ccccc12 (3D coordinates assigned)
O=S(=O)(Cc1ccc(C(F)(F)F)cc1)N1CCc2ccccc2[C@@H]1c1c[nH]c2ccccc12 (nonaromatic ring conformer: 98.03035976018789 kcal/mol)

>  <smiles>  (23) 
O=S(=O)(Cc1ccc(C(F)(F)F)cc1)N1CCc2ccccc2[C@@H]1c1c[nH]c2ccccc12

>  <score_type>  (23) 
oracle

>  <origin>  (23) 
autodockgpu

>  <m_score__min__energy>  (23) 
-7.4100000000000001

>  <m_primary>  (23) 
energy

>  <meeko>  (23) 
{"free_energy": -6.43, "intermolecular_energy": -7.92, "internal_energy": -2.88, "cluster_size": 7, "cluster_id": 3, "rank_in_cluster": 6}

>  <energy>  (23) 
-7.4

>  <cluster_rmsd>  (23) 
0.05

>  <rmsd>  (23) 
271.28

>  <cluster>  (23) 
1

$$$$
MHMHNRBLDMQEKR-XMMPIXPANA-N
     RDKit          3D

 54 58  0  0  0  0  0  0  0  0999 V2000
  139.8380   75.2320  222.5020 O   0  0  0  0  0  0  0  0  0  0  0  0
  138.6500   75.2350  221.5800 S   0  0  0  0  0  0  0  0  0  0  0  0
  137.4260   74.8470  222.3640 O   0  0  0  0  0  0  0  0  0  0  0  0
  138.4210   76.8890  220.9430 C   0  0  0  0  0  0  0  0  0  0  0  0
  139.4440   77.8210  221.5270 C   0  0  0  0  0  0  0  0  0  0  0  0
  140.5100   78.2830  220.7410 C   0  0  0  0  0  0  0  0  0  0  0  0
  141.4840   79.1210  221.2930 C   0  0  0  0  0  0  0  0  0  0  0  0
  141.4020   79.5180  222.6390 C   0  0  0  0  0  0  0  0  0  0  0  0
  142.4800   80.3780  223.2480 C   0  0  0  0  0  0  0  0  0  0  0  0
  142.1630   81.7190  223.1240 F   0  0  0  0  0  0  0  0  0  0  0  0
  143.6930   80.1600  222.6180 F   0  0  0  0  0  0  0  0  0  0  0  0
  142.6070   80.0670  224.5890 F   0  0  0  0  0  0  0  0  0  0  0  0
  140.3550   79.0210  223.4340 C   0  0  0  0  0  0  0  0  0  0  0  0
  139.3810   78.1840  222.8810 C   0  0  0  0  0  0  0  0  0  0  0  0
  138.9050   74.1210  220.2390 N   0  0  0  0  0  0  0  0  0  0  0  0
  137.6700   73.3370  219.9670 C   0  0  0  0  0  0  0  0  0  0  0  0
  137.6190   71.9270  220.6310 C   0  0  0  0  0  0  0  0  0  0  0  0
  138.6010   71.7670  221.7670 C   0  0  0  0  0  0  0  0  0  0  0  0
  138.2750   70.9990  222.8950 C   0  0  0  0  0  0  0  0  0  0  0  0
  139.1560   70.9350  223.9760 C   0  0  0  0  0  0  0  0  0  0  0  0
  140.3520   71.6550  223.9470 C   0  0  0  0  0  0  0  0  0  0  0  0
  140.6910   72.4100  222.8210 C   0  0  0  0  0  0  0  0  0  0  0  0
  139.8470   72.4150  221.6920 C   0  0  0  0  0  0  0  0  0  0  0  0
  140.0750   73.2370  220.4340 C   0  0  2  0  0  0  0  0  0  0  0  0
  141.4130   73.9520  220.2880 C   0  0  0  0  0  0  0  0  0  0  0  0
  141.5990   75.3330  220.3890 C   0  0  0  0  0  0  0  0  0  0  0  0
  142.9110   75.6510  220.4080 N   0  0  0  0  0  0  0  0  0  0  0  0
  143.5730   74.4860  220.3880 C   0  0  0  0  0  0  0  0  0  0  0  0
  144.9530   74.3120  220.4770 C   0  0  0  0  0  0  0  0  0  0  0  0
  145.4500   73.0000  220.5420 C   0  0  0  0  0  0  0  0  0  0  0  0
  144.5640   71.9040  220.5440 C   0  0  0  0  0  0  0  0  0  0  0  0
  143.1750   72.1080  220.4660 C   0  0  0  0  0  0  0  0  0  0  0  0
  142.7020   73.4210  220.3540 C   0  0  0  0  0  0  0  0  0  0  0  0
  138.5275   76.8738  219.8483 H   0  0  0  0  0  0  0  0  0  0  0  0
  137.4168   77.2424  221.2200 H   0  0  0  0  0  0  0  0  0  0  0  0
  140.5802   77.9845  219.6846 H   0  0  0  0  0  0  0  0  0  0  0  0
  142.3198   79.4718  220.6698 H   0  0  0  0  0  0  0  0  0  0  0  0
  140.3014   79.2924  224.4987 H   0  0  0  0  0  0  0  0  0  0  0  0
  138.5611   77.8081  223.5106 H   0  0  0  0  0  0  0  0  0  0  0  0
  136.8107   73.9173  220.3342 H   0  0  0  0  0  0  0  0  0  0  0  0
  137.6514   73.1638  218.8809 H   0  0  0  0  0  0  0  0  0  0  0  0
  136.6039   71.7609  221.0207 H   0  0  0  0  0  0  0  0  0  0  0  0
  137.8912   71.1926  219.8586 H   0  0  0  0  0  0  0  0  0  0  0  0
  137.3242   70.4467  222.9276 H   0  0  0  0  0  0  0  0  0  0  0  0
  138.9078   70.3168  224.8514 H   0  0  0  0  0  0  0  0  0  0  0  0
  141.0295   71.6278  224.8132 H   0  0  0  0  0  0  0  0  0  0  0  0
  141.6183   73.0016  222.8157 H   0  0  0  0  0  0  0  0  0  0  0  0
  140.1616   72.5142  219.6093 H   0  0  0  0  0  0  0  0  0  0  0  0
  140.7816   76.0669  220.4458 H   0  0  0  0  0  0  0  0  0  0  0  0
  143.3200   76.6080  220.4910 H   0  0  0  0  0  0  0  0  0  0  0  0
  145.6328   75.1766  220.4958 H   0  0  0  0  0  0  0  0  0  0  0  0
  146.5352   72.8272  220.5916 H   0  0  0  0  0  0  0  0  0  0  0  0
  144.9624   70.8806  220.6071 H   0  0  0  0  0  0  0  0  0  0  0  0
  142.4777   71.2576  220.4923 H   0  0  0  0  0  0  0  0  0  0  0  0
  1  2  2  0
  2  3  2  0
  2  4  1  0
  4  5  1  0
  5  6  2  0
  6  7  1  0
  7  8  2  0
  8  9  1  0
  9 10  1  0
  9 11  1  0
  9 12  1  0
  8 13  1  0
 13 14  2  0
  2 15  1  0
 15 16  1  0
 16 17  1  0
 17 18  1  0
 18 19  2  0
 19 20  1  0
 20 21  2  0
 21 22  1  0
 22 23  2  0
 23 24  1  0
 24 25  1  0
 25 26  2  0
 26 27  1  0
 27 28  1  0
 28 29  2  0
 29 30  1  0
 30 31  2  0
 31 32  1  0
 32 33  2  0
 14  5  1  0
 24 15  1  0
 33 25  1  0
 23 18  1  0
 33 28  1  0
  4 34  1  0
  4 35  1  0
  6 36  1  0
  7 37  1  0
 13 38  1  0
 14 39  1  0
 16 40  1  0
 16 41  1  0
 17 42  1  0
 17 43  1  0
 19 44  1  0
 20 45  1  0
 21 46  1  0
 22 47  1  0
 24 48  1  6
 26 49  1  0
 27 50  1  0
 29 51  1  0
 30 52  1  0
 31 53  1  0
 32 54  1  0
M  END
>  <UniqueID>  (24) 
190

>  <SMILES>  (24) 
O=S(=O)(Cc1ccc(C(F)(F)F)cc1)N1CCc2ccccc2[C@@H]1c1c[nH]c2ccccc12

>  <Energy>  (24) 
98.03035976018789

>  <Genealogy>  (24) 
O=S(=O)(Cc1ccc(C(F)(F)F)cc1)N1CCc2ccccc2[C@@H]1c1c[nH]c2ccccc12 (3D coordinates assigned)
O=S(=O)(Cc1ccc(C(F)(F)F)cc1)N1CCc2ccccc2[C@@H]1c1c[nH]c2ccccc12 (nonaromatic ring conformer: 98.03035976018789 kcal/mol)

>  <smiles>  (24) 
O=S(=O)(Cc1ccc(C(F)(F)F)cc1)N1CCc2ccccc2[C@@H]1c1c[nH]c2ccccc12

>  <score_type>  (24) 
oracle

>  <origin>  (24) 
autodockgpu

>  <m_score__min__energy>  (24) 
-7.4100000000000001

>  <m_primary>  (24) 
energy

>  <meeko>  (24) 
{"free_energy": -7.32, "intermolecular_energy": -8.81, "internal_energy": -2.02, "cluster_size": 9, "cluster_id": 1, "rank_in_cluster": 8}

>  <energy>  (24) 
-7.4

>  <cluster_rmsd>  (24) 
0.18

>  <rmsd>  (24) 
271.37

>  <cluster>  (24) 
1

$$$$
MHMHNRBLDMQEKR-XMMPIXPANA-N
     RDKit          3D

 54 58  0  0  0  0  0  0  0  0999 V2000
  139.2950   76.8270  219.5860 O   0  0  0  0  0  0  0  0  0  0  0  0
  140.6330   76.7200  218.9070 S   0  0  0  0  0  0  0  0  0  0  0  0
  140.6500   75.4770  218.0610 O   0  0  0  0  0  0  0  0  0  0  0  0
  140.8540   78.1400  217.8440 C   0  0  0  0  0  0  0  0  0  0  0  0
  140.7540   79.4100  218.6400 C   0  0  0  0  0  0  0  0  0  0  0  0
  141.9160   80.0900  219.0360 C   0  0  0  0  0  0  0  0  0  0  0  0
  141.8260   81.2520  219.8080 C   0  0  0  0  0  0  0  0  0  0  0  0
  140.5720   81.7580  220.1890 C   0  0  0  0  0  0  0  0  0  0  0  0
  140.4770   82.9820  221.0650 C   0  0  0  0  0  0  0  0  0  0  0  0
  139.4100   82.8750  221.9400 F   0  0  0  0  0  0  0  0  0  0  0  0
  140.2940   84.1190  220.2980 F   0  0  0  0  0  0  0  0  0  0  0  0
  141.6440   83.1120  221.7930 F   0  0  0  0  0  0  0  0  0  0  0  0
  139.4120   81.0530  219.8240 C   0  0  0  0  0  0  0  0  0  0  0  0
  139.5020   79.8910  219.0520 C   0  0  0  0  0  0  0  0  0  0  0  0
  141.9290   76.6750  220.1000 N   0  0  0  0  0  0  0  0  0  0  0  0
  142.9240   75.6250  219.7540 C   0  0  0  0  0  0  0  0  0  0  0  0
  142.7250   74.2570  220.4770 C   0  0  0  0  0  0  0  0  0  0  0  0
  141.3420   74.0840  221.0550 C   0  0  0  0  0  0  0  0  0  0  0  0
  140.7200   72.8270  221.0630 C   0  0  0  0  0  0  0  0  0  0  0  0
  139.4060   72.7000  221.5180 C   0  0  0  0  0  0  0  0  0  0  0  0
  138.7000   73.8280  221.9430 C   0  0  0  0  0  0  0  0  0  0  0  0
  139.3180   75.0810  221.9520 C   0  0  0  0  0  0  0  0  0  0  0  0
  140.6700   75.2060  221.5730 C   0  0  0  0  0  0  0  0  0  0  0  0
  141.4360   76.5160  221.4870 C   0  0  2  0  0  0  0  0  0  0  0  0
  140.7660   77.7660  222.0440 C   0  0  0  0  0  0  0  0  0  0  0  0
  139.4190   77.8600  222.4050 C   0  0  0  0  0  0  0  0  0  0  0  0
  139.1630   79.0220  223.0420 N   0  0  0  0  0  0  0  0  0  0  0  0
  140.3420   79.6490  223.1550 C   0  0  0  0  0  0  0  0  0  0  0  0
  140.5840   80.8520  223.8170 C   0  0  0  0  0  0  0  0  0  0  0  0
  141.9130   81.2960  223.9130 C   0  0  0  0  0  0  0  0  0  0  0  0
  142.9610   80.5220  223.3750 C   0  0  0  0  0  0  0  0  0  0  0  0
  142.6900   79.3070  222.7240 C   0  0  0  0  0  0  0  0  0  0  0  0
  141.3550   78.9040  222.5960 C   0  0  0  0  0  0  0  0  0  0  0  0
  141.8449   78.0868  217.3693 H   0  0  0  0  0  0  0  0  0  0  0  0
  140.0665   78.1371  217.0760 H   0  0  0  0  0  0  0  0  0  0  0  0
  142.9028   79.7066  218.7374 H   0  0  0  0  0  0  0  0  0  0  0  0
  142.7431   81.7736  220.1192 H   0  0  0  0  0  0  0  0  0  0  0  0
  138.4263   81.4182  220.1482 H   0  0  0  0  0  0  0  0  0  0  0  0
  138.5871   79.3513  218.7663 H   0  0  0  0  0  0  0  0  0  0  0  0
  142.8688   75.4480  218.6697 H   0  0  0  0  0  0  0  0  0  0  0  0
  143.8999   76.0075  220.0878 H   0  0  0  0  0  0  0  0  0  0  0  0
  142.9041   73.4494  219.7519 H   0  0  0  0  0  0  0  0  0  0  0  0
  143.4355   74.2252  221.3161 H   0  0  0  0  0  0  0  0  0  0  0  0
  141.2677   71.9405  220.7106 H   0  0  0  0  0  0  0  0  0  0  0  0
  138.9262   71.7104  221.5418 H   0  0  0  0  0  0  0  0  0  0  0  0
  137.6548   73.7295  222.2714 H   0  0  0  0  0  0  0  0  0  0  0  0
  138.7484   75.9718  222.2554 H   0  0  0  0  0  0  0  0  0  0  0  0
  142.2743   76.4255  222.1935 H   0  0  0  0  0  0  0  0  0  0  0  0
  138.6649   77.0867  222.1968 H   0  0  0  0  0  0  0  0  0  0  0  0
  138.2430   79.3330  223.4270 H   0  0  0  0  0  0  0  0  0  0  0  0
  139.7589   81.4358  224.2510 H   0  0  0  0  0  0  0  0  0  0  0  0
  142.1369   82.2515  224.4099 H   0  0  0  0  0  0  0  0  0  0  0  0
  143.9998   80.8723  223.4657 H   0  0  0  0  0  0  0  0  0  0  0  0
  143.5064   78.6874  222.3246 H   0  0  0  0  0  0  0  0  0  0  0  0
  1  2  2  0
  2  3  2  0
  2  4  1  0
  4  5  1  0
  5  6  2  0
  6  7  1  0
  7  8  2  0
  8  9  1  0
  9 10  1  0
  9 11  1  0
  9 12  1  0
  8 13  1  0
 13 14  2  0
  2 15  1  0
 15 16  1  0
 16 17  1  0
 17 18  1  0
 18 19  2  0
 19 20  1  0
 20 21  2  0
 21 22  1  0
 22 23  2  0
 23 24  1  0
 24 25  1  0
 25 26  2  0
 26 27  1  0
 27 28  1  0
 28 29  2  0
 29 30  1  0
 30 31  2  0
 31 32  1  0
 32 33  2  0
 14  5  1  0
 24 15  1  0
 33 25  1  0
 23 18  1  0
 33 28  1  0
  4 34  1  0
  4 35  1  0
  6 36  1  0
  7 37  1  0
 13 38  1  0
 14 39  1  0
 16 40  1  0
 16 41  1  0
 17 42  1  0
 17 43  1  0
 19 44  1  0
 20 45  1  0
 21 46  1  0
 22 47  1  0
 24 48  1  1
 26 49  1  0
 27 50  1  0
 29 51  1  0
 30 52  1  0
 31 53  1  0
 32 54  1  0
M  END
>  <UniqueID>  (25) 
190

>  <SMILES>  (25) 
O=S(=O)(Cc1ccc(C(F)(F)F)cc1)N1CCc2ccccc2[C@@H]1c1c[nH]c2ccccc12

>  <Energy>  (25) 
98.03035976018789

>  <Genealogy>  (25) 
O=S(=O)(Cc1ccc(C(F)(F)F)cc1)N1CCc2ccccc2[C@@H]1c1c[nH]c2ccccc12 (3D coordinates assigned)
O=S(=O)(Cc1ccc(C(F)(F)F)cc1)N1CCc2ccccc2[C@@H]1c1c[nH]c2ccccc12 (nonaromatic ring conformer: 98.03035976018789 kcal/mol)

>  <smiles>  (25) 
O=S(=O)(Cc1ccc(C(F)(F)F)cc1)N1CCc2ccccc2[C@@H]1c1c[nH]c2ccccc12

>  <score_type>  (25) 
oracle

>  <origin>  (25) 
autodockgpu

>  <m_score__min__energy>  (25) 
-7.4100000000000001

>  <m_primary>  (25) 
energy

>  <meeko>  (25) 
{"free_energy": -6.43, "intermolecular_energy": -7.92, "internal_energy": -2.88, "cluster_size": 7, "cluster_id": 3, "rank_in_cluster": 4}

>  <energy>  (25) 
-7.38

>  <cluster_rmsd>  (25) 
0.15

>  <rmsd>  (25) 
271.37

>  <cluster>  (25) 
1

$$$$
MHMHNRBLDMQEKR-XMMPIXPANA-N
     RDKit          3D

 54 58  0  0  0  0  0  0  0  0999 V2000
  139.3040   76.8580  219.5760 O   0  0  0  0  0  0  0  0  0  0  0  0
  140.6420   76.7570  218.8980 S   0  0  0  0  0  0  0  0  0  0  0  0
  140.6650   75.5160  218.0490 O   0  0  0  0  0  0  0  0  0  0  0  0
  140.8580   78.1800  217.8370 C   0  0  0  0  0  0  0  0  0  0  0  0
  140.7550   79.4480  218.6350 C   0  0  0  0  0  0  0  0  0  0  0  0
  141.9140   80.0820  219.1070 C   0  0  0  0  0  0  0  0  0  0  0  0
  141.8200   81.2420  219.8820 C   0  0  0  0  0  0  0  0  0  0  0  0
  140.5640   81.7930  220.1890 C   0  0  0  0  0  0  0  0  0  0  0  0
  140.4600   83.0130  221.0670 C   0  0  0  0  0  0  0  0  0  0  0  0
  140.2800   84.1520  220.3030 F   0  0  0  0  0  0  0  0  0  0  0  0
  141.6130   83.1740  221.8170 F   0  0  0  0  0  0  0  0  0  0  0  0
  139.3840   82.8690  221.9220 F   0  0  0  0  0  0  0  0  0  0  0  0
  139.4040   81.1330  219.7480 C   0  0  0  0  0  0  0  0  0  0  0  0
  139.4990   79.9730  218.9730 C   0  0  0  0  0  0  0  0  0  0  0  0
  141.9390   76.7160  220.0910 N   0  0  0  0  0  0  0  0  0  0  0  0
  142.9350   75.6670  219.7450 C   0  0  0  0  0  0  0  0  0  0  0  0
  142.7390   74.3000  220.4690 C   0  0  0  0  0  0  0  0  0  0  0  0
  141.3560   74.1240  221.0480 C   0  0  0  0  0  0  0  0  0  0  0  0
  140.7360   72.8660  221.0580 C   0  0  0  0  0  0  0  0  0  0  0  0
  139.4220   72.7370  221.5130 C   0  0  0  0  0  0  0  0  0  0  0  0
  138.7150   73.8650  221.9370 C   0  0  0  0  0  0  0  0  0  0  0  0
  139.3310   75.1190  221.9440 C   0  0  0  0  0  0  0  0  0  0  0  0
  140.6830   75.2460  221.5650 C   0  0  0  0  0  0  0  0  0  0  0  0
  141.4460   76.5580  221.4770 C   0  0  2  0  0  0  0  0  0  0  0  0
  140.7730   77.8070  222.0330 C   0  0  0  0  0  0  0  0  0  0  0  0
  139.4240   77.9010  222.3850 C   0  0  0  0  0  0  0  0  0  0  0  0
  139.1650   79.0620  223.0240 N   0  0  0  0  0  0  0  0  0  0  0  0
  140.3440   79.6870  223.1470 C   0  0  0  0  0  0  0  0  0  0  0  0
  140.5830   80.8880  223.8140 C   0  0  0  0  0  0  0  0  0  0  0  0
  141.9120   81.3290  223.9210 C   0  0  0  0  0  0  0  0  0  0  0  0
  142.9630   80.5560  223.3880 C   0  0  0  0  0  0  0  0  0  0  0  0
  142.6950   79.3430  222.7310 C   0  0  0  0  0  0  0  0  0  0  0  0
  141.3600   78.9430  222.5930 C   0  0  0  0  0  0  0  0  0  0  0  0
  141.8486   78.1305  217.3613 H   0  0  0  0  0  0  0  0  0  0  0  0
  140.0698   78.1761  217.0697 H   0  0  0  0  0  0  0  0  0  0  0  0
  142.9026   79.6641  218.8660 H   0  0  0  0  0  0  0  0  0  0  0  0
  142.7349   81.7264  220.2538 H   0  0  0  0  0  0  0  0  0  0  0  0
  138.4142   81.5320  220.0145 H   0  0  0  0  0  0  0  0  0  0  0  0
  138.5842   79.4697  218.6267 H   0  0  0  0  0  0  0  0  0  0  0  0
  142.8789   75.4889  218.6610 H   0  0  0  0  0  0  0  0  0  0  0  0
  143.9106   76.0512  220.0776 H   0  0  0  0  0  0  0  0  0  0  0  0
  142.9197   73.4922  219.7446 H   0  0  0  0  0  0  0  0  0  0  0  0
  143.4497   74.2708  221.3081 H   0  0  0  0  0  0  0  0  0  0  0  0
  141.2853   71.9800  220.7071 H   0  0  0  0  0  0  0  0  0  0  0  0
  138.9434   71.7469  221.5376 H   0  0  0  0  0  0  0  0  0  0  0  0
  137.6702   73.7655  222.2663 H   0  0  0  0  0  0  0  0  0  0  0  0
  138.7598   76.0093  222.2459 H   0  0  0  0  0  0  0  0  0  0  0  0
  142.2847   76.4708  222.1834 H   0  0  0  0  0  0  0  0  0  0  0  0
  138.6705   77.1291  222.1694 H   0  0  0  0  0  0  0  0  0  0  0  0
  138.2430   79.3730  223.4020 H   0  0  0  0  0  0  0  0  0  0  0  0
  139.7557   81.4722  224.2433 H   0  0  0  0  0  0  0  0  0  0  0  0
  142.1337   82.2822  224.4232 H   0  0  0  0  0  0  0  0  0  0  0  0
  144.0015   80.9050  223.4871 H   0  0  0  0  0  0  0  0  0  0  0  0
  143.5131   78.7234  222.3351 H   0  0  0  0  0  0  0  0  0  0  0  0
  1  2  2  0
  2  3  2  0
  2  4  1  0
  4  5  1  0
  5  6  2  0
  6  7  1  0
  7  8  2  0
  8  9  1  0
  9 10  1  0
  9 11  1  0
  9 12  1  0
  8 13  1  0
 13 14  2  0
  2 15  1  0
 15 16  1  0
 16 17  1  0
 17 18  1  0
 18 19  2  0
 19 20  1  0
 20 21  2  0
 21 22  1  0
 22 23  2  0
 23 24  1  0
 24 25  1  0
 25 26  2  0
 26 27  1  0
 27 28  1  0
 28 29  2  0
 29 30  1  0
 30 31  2  0
 31 32  1  0
 32 33  2  0
 14  5  1  0
 24 15  1  0
 33 25  1  0
 23 18  1  0
 33 28  1  0
  4 34  1  0
  4 35  1  0
  6 36  1  0
  7 37  1  0
 13 38  1  0
 14 39  1  0
 16 40  1  0
 16 41  1  0
 17 42  1  0
 17 43  1  0
 19 44  1  0
 20 45  1  0
 21 46  1  0
 22 47  1  0
 24 48  1  1
 26 49  1  0
 27 50  1  0
 29 51  1  0
 30 52  1  0
 31 53  1  0
 32 54  1  0
M  END
>  <UniqueID>  (26) 
190

>  <SMILES>  (26) 
O=S(=O)(Cc1ccc(C(F)(F)F)cc1)N1CCc2ccccc2[C@@H]1c1c[nH]c2ccccc12

>  <Energy>  (26) 
98.03035976018789

>  <Genealogy>  (26) 
O=S(=O)(Cc1ccc(C(F)(F)F)cc1)N1CCc2ccccc2[C@@H]1c1c[nH]c2ccccc12 (3D coordinates assigned)
O=S(=O)(Cc1ccc(C(F)(F)F)cc1)N1CCc2ccccc2[C@@H]1c1c[nH]c2ccccc12 (nonaromatic ring conformer: 98.03035976018789 kcal/mol)

>  <smiles>  (26) 
O=S(=O)(Cc1ccc(C(F)(F)F)cc1)N1CCc2ccccc2[C@@H]1c1c[nH]c2ccccc12

>  <score_type>  (26) 
oracle

>  <origin>  (26) 
autodockgpu

>  <m_score__min__energy>  (26) 
-7.4100000000000001

>  <m_primary>  (26) 
energy

>  <meeko>  (26) 
{"free_energy": -6.43, "intermolecular_energy": -7.92, "internal_energy": -2.88, "cluster_size": 7, "cluster_id": 3, "rank_in_cluster": 5}

>  <energy>  (26) 
-7.38

>  <cluster_rmsd>  (26) 
0.1

>  <rmsd>  (26) 
271.33

>  <cluster>  (26) 
1

$$$$
MHMHNRBLDMQEKR-XMMPIXPANA-N
     RDKit          3D

 54 58  0  0  0  0  0  0  0  0999 V2000
  139.8140   75.1720  222.5520 O   0  0  0  0  0  0  0  0  0  0  0  0
  138.6450   75.2250  221.6060 S   0  0  0  0  0  0  0  0  0  0  0  0
  137.3940   74.8700  222.3610 O   0  0  0  0  0  0  0  0  0  0  0  0
  138.4840   76.8930  220.9840 C   0  0  0  0  0  0  0  0  0  0  0  0
  139.5550   77.7730  221.5640 C   0  0  0  0  0  0  0  0  0  0  0  0
  139.4930   78.1670  222.9090 C   0  0  0  0  0  0  0  0  0  0  0  0
  140.4680   79.0170  223.4420 C   0  0  0  0  0  0  0  0  0  0  0  0
  141.5250   79.4780  222.6400 C   0  0  0  0  0  0  0  0  0  0  0  0
  142.5470   80.4350  223.2000 C   0  0  0  0  0  0  0  0  0  0  0  0
  143.8090   80.1440  222.7130 F   0  0  0  0  0  0  0  0  0  0  0  0
  142.5870   80.3530  224.5810 F   0  0  0  0  0  0  0  0  0  0  0  0
  142.2100   81.7250  222.8350 F   0  0  0  0  0  0  0  0  0  0  0  0
  141.5620   79.1130  221.2830 C   0  0  0  0  0  0  0  0  0  0  0  0
  140.5870   78.2640  220.7510 C   0  0  0  0  0  0  0  0  0  0  0  0
  138.8900   74.1190  220.2570 N   0  0  0  0  0  0  0  0  0  0  0  0
  137.6550   73.3340  219.9920 C   0  0  0  0  0  0  0  0  0  0  0  0
  137.6120   71.9200  220.6500 C   0  0  0  0  0  0  0  0  0  0  0  0
  138.6030   71.7560  221.7770 C   0  0  0  0  0  0  0  0  0  0  0  0
  138.2890   70.9820  222.9030 C   0  0  0  0  0  0  0  0  0  0  0  0
  139.1790   70.9150  223.9760 C   0  0  0  0  0  0  0  0  0  0  0  0
  140.3740   71.6370  223.9400 C   0  0  0  0  0  0  0  0  0  0  0  0
  140.7020   72.3980  222.8150 C   0  0  0  0  0  0  0  0  0  0  0  0
  139.8480   72.4070  221.6930 C   0  0  0  0  0  0  0  0  0  0  0  0
  140.0640   73.2350  220.4370 C   0  0  2  0  0  0  0  0  0  0  0  0
  141.3990   73.9530  220.2840 C   0  0  0  0  0  0  0  0  0  0  0  0
  141.5840   75.3340  220.3950 C   0  0  0  0  0  0  0  0  0  0  0  0
  142.8960   75.6530  220.4030 N   0  0  0  0  0  0  0  0  0  0  0  0
  143.5590   74.4890  220.3640 C   0  0  0  0  0  0  0  0  0  0  0  0
  144.9410   74.3160  220.4360 C   0  0  0  0  0  0  0  0  0  0  0  0
  145.4400   73.0040  220.4830 C   0  0  0  0  0  0  0  0  0  0  0  0
  144.5550   71.9070  220.4850 C   0  0  0  0  0  0  0  0  0  0  0  0
  143.1660   72.1100  220.4250 C   0  0  0  0  0  0  0  0  0  0  0  0
  142.6890   73.4230  220.3300 C   0  0  0  0  0  0  0  0  0  0  0  0
  138.5778   76.8820  219.8881 H   0  0  0  0  0  0  0  0  0  0  0  0
  137.4999   77.2892  221.2747 H   0  0  0  0  0  0  0  0  0  0  0  0
  138.6736   77.8058  223.5478 H   0  0  0  0  0  0  0  0  0  0  0  0
  140.4065   79.3263  224.4958 H   0  0  0  0  0  0  0  0  0  0  0  0
  142.3635   79.4980  220.6354 H   0  0  0  0  0  0  0  0  0  0  0  0
  140.6295   77.9796  219.6893 H   0  0  0  0  0  0  0  0  0  0  0  0
  136.7977   73.9109  220.3691 H   0  0  0  0  0  0  0  0  0  0  0  0
  137.6279   73.1657  218.9053 H   0  0  0  0  0  0  0  0  0  0  0  0
  136.6003   71.7502  221.0471 H   0  0  0  0  0  0  0  0  0  0  0  0
  137.8795   71.1900  219.8718 H   0  0  0  0  0  0  0  0  0  0  0  0
  137.3401   70.4269  222.9408 H   0  0  0  0  0  0  0  0  0  0  0  0
  138.9390   70.2929  224.8509 H   0  0  0  0  0  0  0  0  0  0  0  0
  141.0591   71.6065  224.8000 H   0  0  0  0  0  0  0  0  0  0  0  0
  141.6282   72.9913  222.8046 H   0  0  0  0  0  0  0  0  0  0  0  0
  140.1447   72.5168  219.6078 H   0  0  0  0  0  0  0  0  0  0  0  0
  140.7664   76.0663  220.4666 H   0  0  0  0  0  0  0  0  0  0  0  0
  143.3050   76.6090  220.4900 H   0  0  0  0  0  0  0  0  0  0  0  0
  145.6199   75.1813  220.4554 H   0  0  0  0  0  0  0  0  0  0  0  0
  146.5259   72.8319  220.5184 H   0  0  0  0  0  0  0  0  0  0  0  0
  144.9551   70.8835  220.5339 H   0  0  0  0  0  0  0  0  0  0  0  0
  142.4704   71.2583  220.4520 H   0  0  0  0  0  0  0  0  0  0  0  0
  1  2  2  0
  2  3  2  0
  2  4  1  0
  4  5  1  0
  5  6  2  0
  6  7  1  0
  7  8  2  0
  8  9  1  0
  9 10  1  0
  9 11  1  0
  9 12  1  0
  8 13  1  0
 13 14  2  0
  2 15  1  0
 15 16  1  0
 16 17  1  0
 17 18  1  0
 18 19  2  0
 19 20  1  0
 20 21  2  0
 21 22  1  0
 22 23  2  0
 23 24  1  0
 24 25  1  0
 25 26  2  0
 26 27  1  0
 27 28  1  0
 28 29  2  0
 29 30  1  0
 30 31  2  0
 31 32  1  0
 32 33  2  0
 14  5  1  0
 24 15  1  0
 33 25  1  0
 23 18  1  0
 33 28  1  0
  4 34  1  0
  4 35  1  0
  6 36  1  0
  7 37  1  0
 13 38  1  0
 14 39  1  0
 16 40  1  0
 16 41  1  0
 17 42  1  0
 17 43  1  0
 19 44  1  0
 20 45  1  0
 21 46  1  0
 22 47  1  0
 24 48  1  6
 26 49  1  0
 27 50  1  0
 29 51  1  0
 30 52  1  0
 31 53  1  0
 32 54  1  0
M  END
>  <UniqueID>  (27) 
190

>  <SMILES>  (27) 
O=S(=O)(Cc1ccc(C(F)(F)F)cc1)N1CCc2ccccc2[C@@H]1c1c[nH]c2ccccc12

>  <Energy>  (27) 
98.03035976018789

>  <Genealogy>  (27) 
O=S(=O)(Cc1ccc(C(F)(F)F)cc1)N1CCc2ccccc2[C@@H]1c1c[nH]c2ccccc12 (3D coordinates assigned)
O=S(=O)(Cc1ccc(C(F)(F)F)cc1)N1CCc2ccccc2[C@@H]1c1c[nH]c2ccccc12 (nonaromatic ring conformer: 98.03035976018789 kcal/mol)

>  <smiles>  (27) 
O=S(=O)(Cc1ccc(C(F)(F)F)cc1)N1CCc2ccccc2[C@@H]1c1c[nH]c2ccccc12

>  <score_type>  (27) 
oracle

>  <origin>  (27) 
autodockgpu

>  <m_score__min__energy>  (27) 
-7.4100000000000001

>  <m_primary>  (27) 
energy

>  <meeko>  (27) 
{"free_energy": -7.41, "intermolecular_energy": -8.9, "internal_energy": -2.01, "cluster_size": 9, "cluster_id": 1, "rank_in_cluster": 2}

>  <energy>  (27) 
-7.34

>  <cluster_rmsd>  (27) 
0.09

>  <rmsd>  (27) 
271.29

>  <cluster>  (27) 
1

$$$$
MHMHNRBLDMQEKR-XMMPIXPANA-N
     RDKit          3D

 54 58  0  0  0  0  0  0  0  0999 V2000
  139.8460   75.2380  222.6540 O   0  0  0  0  0  0  0  0  0  0  0  0
  138.6470   75.2960  221.7480 S   0  0  0  0  0  0  0  0  0  0  0  0
  137.4210   74.9410  222.5430 O   0  0  0  0  0  0  0  0  0  0  0  0
  138.4680   76.9660  221.1370 C   0  0  0  0  0  0  0  0  0  0  0  0
  139.5420   77.8490  221.7060 C   0  0  0  0  0  0  0  0  0  0  0  0
  139.4650   78.2850  223.0380 C   0  0  0  0  0  0  0  0  0  0  0  0
  140.4430   79.1380  223.5600 C   0  0  0  0  0  0  0  0  0  0  0  0
  141.5190   79.5590  222.7610 C   0  0  0  0  0  0  0  0  0  0  0  0
  142.5450   80.5200  223.3080 C   0  0  0  0  0  0  0  0  0  0  0  0
  142.8920   80.1790  224.6030 F   0  0  0  0  0  0  0  0  0  0  0  0
  142.0470   81.8110  223.3180 F   0  0  0  0  0  0  0  0  0  0  0  0
  143.6750   80.4790  222.5130 F   0  0  0  0  0  0  0  0  0  0  0  0
  141.5720   79.1520  221.4170 C   0  0  0  0  0  0  0  0  0  0  0  0
  140.5940   78.3000  220.8960 C   0  0  0  0  0  0  0  0  0  0  0  0
  138.8440   74.1930  220.3880 N   0  0  0  0  0  0  0  0  0  0  0  0
  137.5900   73.4310  220.1450 C   0  0  0  0  0  0  0  0  0  0  0  0
  137.5360   72.0140  220.7970 C   0  0  0  0  0  0  0  0  0  0  0  0
  138.5480   71.8270  221.9010 C   0  0  0  0  0  0  0  0  0  0  0  0
  138.2440   71.0520  223.0300 C   0  0  0  0  0  0  0  0  0  0  0  0
  139.1550   70.9630  224.0840 C   0  0  0  0  0  0  0  0  0  0  0  0
  140.3620   71.6650  224.0260 C   0  0  0  0  0  0  0  0  0  0  0  0
  140.6790   72.4260  222.8990 C   0  0  0  0  0  0  0  0  0  0  0  0
  139.8020   72.4570  221.7950 C   0  0  0  0  0  0  0  0  0  0  0  0
  140.0060   73.2880  220.5390 C   0  0  2  0  0  0  0  0  0  0  0  0
  141.3500   73.9840  220.3620 C   0  0  0  0  0  0  0  0  0  0  0  0
  141.5570   75.3630  220.4530 C   0  0  0  0  0  0  0  0  0  0  0  0
  142.8730   75.6620  220.4420 N   0  0  0  0  0  0  0  0  0  0  0  0
  143.5180   74.4880  220.4120 C   0  0  0  0  0  0  0  0  0  0  0  0
  144.8980   74.2950  220.4710 C   0  0  0  0  0  0  0  0  0  0  0  0
  145.3780   72.9760  220.5310 C   0  0  0  0  0  0  0  0  0  0  0  0
  144.4770   71.8930  220.5570 C   0  0  0  0  0  0  0  0  0  0  0  0
  143.0900   72.1160  220.5090 C   0  0  0  0  0  0  0  0  0  0  0  0
  142.6320   73.4350  220.4020 C   0  0  0  0  0  0  0  0  0  0  0  0
  138.5462   76.9610  220.0398 H   0  0  0  0  0  0  0  0  0  0  0  0
  137.4860   77.3552  221.4438 H   0  0  0  0  0  0  0  0  0  0  0  0
  138.6312   77.9542  223.6747 H   0  0  0  0  0  0  0  0  0  0  0  0
  140.3691   79.4812  224.6025 H   0  0  0  0  0  0  0  0  0  0  0  0
  142.3886   79.5062  220.7707 H   0  0  0  0  0  0  0  0  0  0  0  0
  140.6499   77.9815  219.8446 H   0  0  0  0  0  0  0  0  0  0  0  0
  136.7510   74.0208  220.5429 H   0  0  0  0  0  0  0  0  0  0  0  0
  137.5372   73.2690  219.0583 H   0  0  0  0  0  0  0  0  0  0  0  0
  136.5303   71.8600  221.2152 H   0  0  0  0  0  0  0  0  0  0  0  0
  137.7733   71.2833  220.0097 H   0  0  0  0  0  0  0  0  0  0  0  0
  137.2863   70.5136  223.0849 H   0  0  0  0  0  0  0  0  0  0  0  0
  138.9227   70.3401  224.9604 H   0  0  0  0  0  0  0  0  0  0  0  0
  141.0647   71.6179  224.8710 H   0  0  0  0  0  0  0  0  0  0  0  0
  141.6152   73.0028  222.8722 H   0  0  0  0  0  0  0  0  0  0  0  0
  140.0569   72.5731  219.7046 H   0  0  0  0  0  0  0  0  0  0  0  0
  140.7513   76.1085  220.5244 H   0  0  0  0  0  0  0  0  0  0  0  0
  143.2970   76.6140  220.5110 H   0  0  0  0  0  0  0  0  0  0  0  0
  145.5900   75.1501  220.4705 H   0  0  0  0  0  0  0  0  0  0  0  0
  146.4615   72.7880  220.5578 H   0  0  0  0  0  0  0  0  0  0  0  0
  144.8623   70.8643  220.6154 H   0  0  0  0  0  0  0  0  0  0  0  0
  142.3820   71.2754  220.5544 H   0  0  0  0  0  0  0  0  0  0  0  0
  1  2  2  0
  2  3  2  0
  2  4  1  0
  4  5  1  0
  5  6  2  0
  6  7  1  0
  7  8  2  0
  8  9  1  0
  9 10  1  0
  9 11  1  0
  9 12  1  0
  8 13  1  0
 13 14  2  0
  2 15  1  0
 15 16  1  0
 16 17  1  0
 17 18  1  0
 18 19  2  0
 19 20  1  0
 20 21  2  0
 21 22  1  0
 22 23  2  0
 23 24  1  0
 24 25  1  0
 25 26  2  0
 26 27  1  0
 27 28  1  0
 28 29  2  0
 29 30  1  0
 30 31  2  0
 31 32  1  0
 32 33  2  0
 14  5  1  0
 24 15  1  0
 33 25  1  0
 23 18  1  0
 33 28  1  0
  4 34  1  0
  4 35  1  0
  6 36  1  0
  7 37  1  0
 13 38  1  0
 14 39  1  0
 16 40  1  0
 16 41  1  0
 17 42  1  0
 17 43  1  0
 19 44  1  0
 20 45  1  0
 21 46  1  0
 22 47  1  0
 24 48  1  6
 26 49  1  0
 27 50  1  0
 29 51  1  0
 30 52  1  0
 31 53  1  0
 32 54  1  0
M  END
>  <UniqueID>  (28) 
190

>  <SMILES>  (28) 
O=S(=O)(Cc1ccc(C(F)(F)F)cc1)N1CCc2ccccc2[C@@H]1c1c[nH]c2ccccc12

>  <Energy>  (28) 
98.03035976018789

>  <Genealogy>  (28) 
O=S(=O)(Cc1ccc(C(F)(F)F)cc1)N1CCc2ccccc2[C@@H]1c1c[nH]c2ccccc12 (3D coordinates assigned)
O=S(=O)(Cc1ccc(C(F)(F)F)cc1)N1CCc2ccccc2[C@@H]1c1c[nH]c2ccccc12 (nonaromatic ring conformer: 98.03035976018789 kcal/mol)

>  <smiles>  (28) 
O=S(=O)(Cc1ccc(C(F)(F)F)cc1)N1CCc2ccccc2[C@@H]1c1c[nH]c2ccccc12

>  <score_type>  (28) 
oracle

>  <origin>  (28) 
autodockgpu

>  <m_score__min__energy>  (28) 
-7.4100000000000001

>  <m_primary>  (28) 
energy

>  <meeko>  (28) 
{"free_energy": -7.38, "intermolecular_energy": -8.87, "internal_energy": -2.01, "cluster_size": 9, "cluster_id": 1, "rank_in_cluster": 5}

>  <energy>  (28) 
-7.32

>  <cluster_rmsd>  (28) 
0.1

>  <rmsd>  (28) 
271.28

>  <cluster>  (28) 
1

$$$$
MHMHNRBLDMQEKR-XMMPIXPANA-N
     RDKit          3D

 54 58  0  0  0  0  0  0  0  0999 V2000
  139.2160   76.9990  219.6540 O   0  0  0  0  0  0  0  0  0  0  0  0
  140.5880   76.6950  219.1190 S   0  0  0  0  0  0  0  0  0  0  0  0
  140.5130   75.4620  218.2620 O   0  0  0  0  0  0  0  0  0  0  0  0
  141.1270   78.0650  218.1050 C   0  0  0  0  0  0  0  0  0  0  0  0
  140.9120   79.3660  218.8260 C   0  0  0  0  0  0  0  0  0  0  0  0
  142.0050   80.0740  219.3460 C   0  0  0  0  0  0  0  0  0  0  0  0
  141.8050   81.2650  220.0500 C   0  0  0  0  0  0  0  0  0  0  0  0
  140.5080   81.7730  220.2360 C   0  0  0  0  0  0  0  0  0  0  0  0
  140.2880   83.0300  221.0390 C   0  0  0  0  0  0  0  0  0  0  0  0
  141.4440   83.3910  221.7080 F   0  0  0  0  0  0  0  0  0  0  0  0
  139.2870   82.8420  221.9760 F   0  0  0  0  0  0  0  0  0  0  0  0
  139.9220   84.0560  220.1880 F   0  0  0  0  0  0  0  0  0  0  0  0
  139.4130   81.0410  219.7470 C   0  0  0  0  0  0  0  0  0  0  0  0
  139.6130   79.8500  219.0430 C   0  0  0  0  0  0  0  0  0  0  0  0
  141.7300   76.4620  220.4410 N   0  0  0  0  0  0  0  0  0  0  0  0
  142.5970   75.2810  220.1830 C   0  0  0  0  0  0  0  0  0  0  0  0
  142.1300   73.9540  220.8560 C   0  0  0  0  0  0  0  0  0  0  0  0
  140.6820   73.9790  221.2820 C   0  0  0  0  0  0  0  0  0  0  0  0
  139.8900   72.8230  221.2020 C   0  0  0  0  0  0  0  0  0  0  0  0
  138.5310   72.8850  221.5130 C   0  0  0  0  0  0  0  0  0  0  0  0
  137.9510   74.1010  221.8820 C   0  0  0  0  0  0  0  0  0  0  0  0
  138.7360   75.2520  221.9790 C   0  0  0  0  0  0  0  0  0  0  0  0
  140.1250   75.1840  221.7460 C   0  0  0  0  0  0  0  0  0  0  0  0
  141.0740   76.3720  221.7650 C   0  0  2  0  0  0  0  0  0  0  0  0
  140.5320   77.7030  222.2710 C   0  0  0  0  0  0  0  0  0  0  0  0
  139.2210   77.9220  222.7040 C   0  0  0  0  0  0  0  0  0  0  0  0
  139.0910   79.1400  223.2710 N   0  0  0  0  0  0  0  0  0  0  0  0
  140.3160   79.6820  223.2680 C   0  0  0  0  0  0  0  0  0  0  0  0
  140.6860   80.9050  223.8260 C   0  0  0  0  0  0  0  0  0  0  0  0
  142.0470   81.2530  223.8100 C   0  0  0  0  0  0  0  0  0  0  0  0
  143.0000   80.3680  223.2670 C   0  0  0  0  0  0  0  0  0  0  0  0
  142.6010   79.1360  222.7210 C   0  0  0  0  0  0  0  0  0  0  0  0
  141.2350   78.8280  222.7040 C   0  0  0  0  0  0  0  0  0  0  0  0
  142.1970   77.9489  217.8778 H   0  0  0  0  0  0  0  0  0  0  0  0
  140.5417   78.0719  217.1737 H   0  0  0  0  0  0  0  0  0  0  0  0
  143.0253   79.6901  219.1991 H   0  0  0  0  0  0  0  0  0  0  0  0
  142.6686   81.8082  220.4612 H   0  0  0  0  0  0  0  0  0  0  0  0
  138.3904   81.4079  219.9194 H   0  0  0  0  0  0  0  0  0  0  0  0
  138.7483   79.2899  218.6575 H   0  0  0  0  0  0  0  0  0  0  0  0
  142.6334   75.1167  219.0960 H   0  0  0  0  0  0  0  0  0  0  0  0
  143.5759   75.5190  220.6248 H   0  0  0  0  0  0  0  0  0  0  0  0
  142.2692   73.1311  220.1394 H   0  0  0  0  0  0  0  0  0  0  0  0
  142.7351   73.8185  221.7646 H   0  0  0  0  0  0  0  0  0  0  0  0
  140.3406   71.8679  220.8941 H   0  0  0  0  0  0  0  0  0  0  0  0
  137.9154   71.9746  221.4675 H   0  0  0  0  0  0  0  0  0  0  0  0
  136.8734   74.1521  222.0967 H   0  0  0  0  0  0  0  0  0  0  0  0
  138.2695   76.2140  222.2378 H   0  0  0  0  0  0  0  0  0  0  0  0
  141.8109   76.1618  222.5542 H   0  0  0  0  0  0  0  0  0  0  0  0
  138.4017   77.1959  222.5966 H   0  0  0  0  0  0  0  0  0  0  0  0
  138.2230   79.5450  223.6870 H   0  0  0  0  0  0  0  0  0  0  0  0
  139.9346   81.5774  224.2657 H   0  0  0  0  0  0  0  0  0  0  0  0
  142.3701   82.2200  224.2229 H   0  0  0  0  0  0  0  0  0  0  0  0
  144.0649   80.6438  223.2706 H   0  0  0  0  0  0  0  0  0  0  0  0
  143.3430   78.4314  222.3172 H   0  0  0  0  0  0  0  0  0  0  0  0
  1  2  2  0
  2  3  2  0
  2  4  1  0
  4  5  1  0
  5  6  2  0
  6  7  1  0
  7  8  2  0
  8  9  1  0
  9 10  1  0
  9 11  1  0
  9 12  1  0
  8 13  1  0
 13 14  2  0
  2 15  1  0
 15 16  1  0
 16 17  1  0
 17 18  1  0
 18 19  2  0
 19 20  1  0
 20 21  2  0
 21 22  1  0
 22 23  2  0
 23 24  1  0
 24 25  1  0
 25 26  2  0
 26 27  1  0
 27 28  1  0
 28 29  2  0
 29 30  1  0
 30 31  2  0
 31 32  1  0
 32 33  2  0
 14  5  1  0
 24 15  1  0
 33 25  1  0
 23 18  1  0
 33 28  1  0
  4 34  1  0
  4 35  1  0
  6 36  1  0
  7 37  1  0
 13 38  1  0
 14 39  1  0
 16 40  1  0
 16 41  1  0
 17 42  1  0
 17 43  1  0
 19 44  1  0
 20 45  1  0
 21 46  1  0
 22 47  1  0
 24 48  1  1
 26 49  1  0
 27 50  1  0
 29 51  1  0
 30 52  1  0
 31 53  1  0
 32 54  1  0
M  END
>  <UniqueID>  (29) 
190

>  <SMILES>  (29) 
O=S(=O)(Cc1ccc(C(F)(F)F)cc1)N1CCc2ccccc2[C@@H]1c1c[nH]c2ccccc12

>  <Energy>  (29) 
98.03035976018789

>  <Genealogy>  (29) 
O=S(=O)(Cc1ccc(C(F)(F)F)cc1)N1CCc2ccccc2[C@@H]1c1c[nH]c2ccccc12 (3D coordinates assigned)
O=S(=O)(Cc1ccc(C(F)(F)F)cc1)N1CCc2ccccc2[C@@H]1c1c[nH]c2ccccc12 (nonaromatic ring conformer: 98.03035976018789 kcal/mol)

>  <smiles>  (29) 
O=S(=O)(Cc1ccc(C(F)(F)F)cc1)N1CCc2ccccc2[C@@H]1c1c[nH]c2ccccc12

>  <score_type>  (29) 
oracle

>  <origin>  (29) 
autodockgpu

>  <m_score__min__energy>  (29) 
-7.4100000000000001

>  <m_primary>  (29) 
energy

>  <meeko>  (29) 
{"free_energy": -6.44, "intermolecular_energy": -7.93, "internal_energy": -2.86, "cluster_size": 7, "cluster_id": 3, "rank_in_cluster": 3}

>  <energy>  (29) 
-7.3

>  <cluster_rmsd>  (29) 
0.3

>  <rmsd>  (29) 
271.19

>  <cluster>  (29) 
1

$$$$
MHMHNRBLDMQEKR-XMMPIXPANA-N
     RDKit          3D

 54 58  0  0  0  0  0  0  0  0999 V2000
  139.6820   75.0370  222.5680 O   0  0  0  0  0  0  0  0  0  0  0  0
  138.5260   75.0200  221.6050 S   0  0  0  0  0  0  0  0  0  0  0  0
  137.2780   74.6390  222.3520 O   0  0  0  0  0  0  0  0  0  0  0  0
  138.3130   76.6630  220.9340 C   0  0  0  0  0  0  0  0  0  0  0  0
  139.3810   77.5830  221.4520 C   0  0  0  0  0  0  0  0  0  0  0  0
  139.3880   77.9700  222.8010 C   0  0  0  0  0  0  0  0  0  0  0  0
  140.3590   78.8550  223.2770 C   0  0  0  0  0  0  0  0  0  0  0  0
  141.3470   79.3600  222.4140 C   0  0  0  0  0  0  0  0  0  0  0  0
  142.3630   80.3550  222.9160 C   0  0  0  0  0  0  0  0  0  0  0  0
  142.3650   81.4910  222.1260 F   0  0  0  0  0  0  0  0  0  0  0  0
  143.6340   79.8090  222.8920 F   0  0  0  0  0  0  0  0  0  0  0  0
  142.0500   80.7100  224.2140 F   0  0  0  0  0  0  0  0  0  0  0  0
  141.3140   79.0020  221.0560 C   0  0  0  0  0  0  0  0  0  0  0  0
  140.3420   78.1160  220.5800 C   0  0  0  0  0  0  0  0  0  0  0  0
  138.8330   73.8870  220.2910 N   0  0  0  0  0  0  0  0  0  0  0  0
  137.6360   73.0410  220.0390 C   0  0  0  0  0  0  0  0  0  0  0  0
  137.6490   71.6460  220.7380 C   0  0  0  0  0  0  0  0  0  0  0  0
  138.6360   71.5590  221.8770 C   0  0  0  0  0  0  0  0  0  0  0  0
  138.3460   70.8040  223.0220 C   0  0  0  0  0  0  0  0  0  0  0  0
  139.2280   70.8080  224.1040 C   0  0  0  0  0  0  0  0  0  0  0  0
  140.3900   71.5810  224.0570 C   0  0  0  0  0  0  0  0  0  0  0  0
  140.6940   72.3230  222.9130 C   0  0  0  0  0  0  0  0  0  0  0  0
  139.8520   72.2620  221.7840 C   0  0  0  0  0  0  0  0  0  0  0  0
  140.0430   73.0620  220.5060 C   0  0  2  0  0  0  0  0  0  0  0  0
  141.3460   73.8340  220.3430 C   0  0  0  0  0  0  0  0  0  0  0  0
  141.4770   75.2210  220.4590 C   0  0  0  0  0  0  0  0  0  0  0  0
  142.7750   75.5920  220.4550 N   0  0  0  0  0  0  0  0  0  0  0  0
  143.4840   74.4560  220.4050 C   0  0  0  0  0  0  0  0  0  0  0  0
  144.8720   74.3390  220.4620 C   0  0  0  0  0  0  0  0  0  0  0  0
  145.4240   73.0480  220.4990 C   0  0  0  0  0  0  0  0  0  0  0  0
  144.5840   71.9160  220.5040 C   0  0  0  0  0  0  0  0  0  0  0  0
  143.1870   72.0630  220.4580 C   0  0  0  0  0  0  0  0  0  0  0  0
  142.6570   73.3570  220.3750 C   0  0  0  0  0  0  0  0  0  0  0  0
  138.3751   76.6172  219.8367 H   0  0  0  0  0  0  0  0  0  0  0  0
  137.3299   77.0491  221.2413 H   0  0  0  0  0  0  0  0  0  0  0  0
  138.6249   77.5745  223.4874 H   0  0  0  0  0  0  0  0  0  0  0  0
  140.3501   79.1586  224.3342 H   0  0  0  0  0  0  0  0  0  0  0  0
  142.0576   79.4213  220.3623 H   0  0  0  0  0  0  0  0  0  0  0  0
  140.3311   77.8357  219.5164 H   0  0  0  0  0  0  0  0  0  0  0  0
  136.7507   73.5902  220.3920 H   0  0  0  0  0  0  0  0  0  0  0  0
  137.6264   72.8403  218.9575 H   0  0  0  0  0  0  0  0  0  0  0  0
  136.6422   71.4433  221.1320 H   0  0  0  0  0  0  0  0  0  0  0  0
  137.9552   70.9061  219.9838 H   0  0  0  0  0  0  0  0  0  0  0  0
  137.4226   70.2079  223.0679 H   0  0  0  0  0  0  0  0  0  0  0  0
  139.0074   70.2015  224.9948 H   0  0  0  0  0  0  0  0  0  0  0  0
  141.0678   71.6058  224.9230 H   0  0  0  0  0  0  0  0  0  0  0  0
  141.5929   72.9566  222.8931 H   0  0  0  0  0  0  0  0  0  0  0  0
  140.1633   72.3245  219.6988 H   0  0  0  0  0  0  0  0  0  0  0  0
  140.6316   75.9198  220.5427 H   0  0  0  0  0  0  0  0  0  0  0  0
  143.1460   76.5640  220.5420 H   0  0  0  0  0  0  0  0  0  0  0  0
  145.5155   75.2310  220.4776 H   0  0  0  0  0  0  0  0  0  0  0  0
  146.5162   72.9198  220.5242 H   0  0  0  0  0  0  0  0  0  0  0  0
  145.0255   70.9093  220.5442 H   0  0  0  0  0  0  0  0  0  0  0  0
  142.5264   71.1839  220.4864 H   0  0  0  0  0  0  0  0  0  0  0  0
  1  2  2  0
  2  3  2  0
  2  4  1  0
  4  5  1  0
  5  6  2  0
  6  7  1  0
  7  8  2  0
  8  9  1  0
  9 10  1  0
  9 11  1  0
  9 12  1  0
  8 13  1  0
 13 14  2  0
  2 15  1  0
 15 16  1  0
 16 17  1  0
 17 18  1  0
 18 19  2  0
 19 20  1  0
 20 21  2  0
 21 22  1  0
 22 23  2  0
 23 24  1  0
 24 25  1  0
 25 26  2  0
 26 27  1  0
 27 28  1  0
 28 29  2  0
 29 30  1  0
 30 31  2  0
 31 32  1  0
 32 33  2  0
 14  5  1  0
 24 15  1  0
 33 25  1  0
 23 18  1  0
 33 28  1  0
  4 34  1  0
  4 35  1  0
  6 36  1  0
  7 37  1  0
 13 38  1  0
 14 39  1  0
 16 40  1  0
 16 41  1  0
 17 42  1  0
 17 43  1  0
 19 44  1  0
 20 45  1  0
 21 46  1  0
 22 47  1  0
 24 48  1  6
 26 49  1  0
 27 50  1  0
 29 51  1  0
 30 52  1  0
 31 53  1  0
 32 54  1  0
M  END
>  <UniqueID>  (30) 
190

>  <SMILES>  (30) 
O=S(=O)(Cc1ccc(C(F)(F)F)cc1)N1CCc2ccccc2[C@@H]1c1c[nH]c2ccccc12

>  <Energy>  (30) 
98.03035976018789

>  <Genealogy>  (30) 
O=S(=O)(Cc1ccc(C(F)(F)F)cc1)N1CCc2ccccc2[C@@H]1c1c[nH]c2ccccc12 (3D coordinates assigned)
O=S(=O)(Cc1ccc(C(F)(F)F)cc1)N1CCc2ccccc2[C@@H]1c1c[nH]c2ccccc12 (nonaromatic ring conformer: 98.03035976018789 kcal/mol)

>  <smiles>  (30) 
O=S(=O)(Cc1ccc(C(F)(F)F)cc1)N1CCc2ccccc2[C@@H]1c1c[nH]c2ccccc12

>  <score_type>  (30) 
oracle

>  <origin>  (30) 
autodockgpu

>  <m_score__min__energy>  (30) 
-7.4100000000000001

>  <m_primary>  (30) 
energy

>  <meeko>  (30) 
{"free_energy": -7.3, "intermolecular_energy": -8.79, "internal_energy": -2.01, "cluster_size": 9, "cluster_id": 1, "rank_in_cluster": 9}

>  <energy>  (30) 
-7.12

>  <cluster_rmsd>  (30) 
0.0

>  <rmsd>  (30) 
271.06

>  <cluster>  (30) 
2

$$$$
MHMHNRBLDMQEKR-XMMPIXPANA-N
     RDKit          3D

 54 58  0  0  0  0  0  0  0  0999 V2000
  142.1730   75.2830  221.5880 O   0  0  0  0  0  0  0  0  0  0  0  0
  140.8060   74.8630  221.1220 S   0  0  0  0  0  0  0  0  0  0  0  0
  140.3150   73.7470  222.0040 O   0  0  0  0  0  0  0  0  0  0  0  0
  139.6920   76.2510  221.2820 C   0  0  0  0  0  0  0  0  0  0  0  0
  140.4330   77.4640  221.7670 C   0  0  0  0  0  0  0  0  0  0  0  0
  141.0500   77.4570  223.0280 C   0  0  0  0  0  0  0  0  0  0  0  0
  141.7090   78.5970  223.4980 C   0  0  0  0  0  0  0  0  0  0  0  0
  141.7700   79.7590  222.7110 C   0  0  0  0  0  0  0  0  0  0  0  0
  142.4350   81.0050  223.2400 C   0  0  0  0  0  0  0  0  0  0  0  0
  143.8030   80.8220  223.3450 F   0  0  0  0  0  0  0  0  0  0  0  0
  141.9440   81.3260  224.4930 F   0  0  0  0  0  0  0  0  0  0  0  0
  142.1870   82.0550  222.3760 F   0  0  0  0  0  0  0  0  0  0  0  0
  141.1170   79.7760  221.4660 C   0  0  0  0  0  0  0  0  0  0  0  0
  140.4590   78.6350  220.9960 C   0  0  0  0  0  0  0  0  0  0  0  0
  140.8580   74.3450  219.4390 N   0  0  0  0  0  0  0  0  0  0  0  0
  140.6380   72.8770  219.3350 C   0  0  0  0  0  0  0  0  0  0  0  0
  141.9360   72.0160  219.2450 C   0  0  0  0  0  0  0  0  0  0  0  0
  143.1710   72.7480  219.7090 C   0  0  0  0  0  0  0  0  0  0  0  0
  144.1950   72.0710  220.3890 C   0  0  0  0  0  0  0  0  0  0  0  0
  145.2880   72.7790  220.8910 C   0  0  0  0  0  0  0  0  0  0  0  0
  145.3540   74.1660  220.7380 C   0  0  0  0  0  0  0  0  0  0  0  0
  144.3460   74.8450  220.0490 C   0  0  0  0  0  0  0  0  0  0  0  0
  143.2800   74.1300  219.4670 C   0  0  0  0  0  0  0  0  0  0  0  0
  142.0990   74.7560  218.7440 C   0  0  2  0  0  0  0  0  0  0  0  0
  142.1640   76.2480  218.4420 C   0  0  0  0  0  0  0  0  0  0  0  0
  143.3200   76.9420  218.0740 C   0  0  0  0  0  0  0  0  0  0  0  0
  143.0320   78.2020  217.6860 N   0  0  0  0  0  0  0  0  0  0  0  0
  141.6970   78.3080  217.7360 C   0  0  0  0  0  0  0  0  0  0  0  0
  140.9350   79.4080  217.3450 C   0  0  0  0  0  0  0  0  0  0  0  0
  139.5360   79.2860  217.3780 C   0  0  0  0  0  0  0  0  0  0  0  0
  138.9380   78.0720  217.7700 C   0  0  0  0  0  0  0  0  0  0  0  0
  139.7300   76.9740  218.1470 C   0  0  0  0  0  0  0  0  0  0  0  0
  141.1220   77.1300  218.1540 C   0  0  0  0  0  0  0  0  0  0  0  0
  139.2416   76.4691  220.3024 H   0  0  0  0  0  0  0  0  0  0  0  0
  138.9079   75.9970  222.0105 H   0  0  0  0  0  0  0  0  0  0  0  0
  141.0148   76.5500  223.6494 H   0  0  0  0  0  0  0  0  0  0  0  0
  142.1828   78.5839  224.4906 H   0  0  0  0  0  0  0  0  0  0  0  0
  141.1237   80.6925  220.8578 H   0  0  0  0  0  0  0  0  0  0  0  0
  139.9592   78.6562  220.0163 H   0  0  0  0  0  0  0  0  0  0  0  0
  140.0757   72.5533  220.2233 H   0  0  0  0  0  0  0  0  0  0  0  0
  140.0980   72.7152  218.3904 H   0  0  0  0  0  0  0  0  0  0  0  0
  141.8051   71.1206  219.8705 H   0  0  0  0  0  0  0  0  0  0  0  0
  142.0862   71.7628  218.1851 H   0  0  0  0  0  0  0  0  0  0  0  0
  144.1362   70.9812  220.5265 H   0  0  0  0  0  0  0  0  0  0  0  0
  146.0985   72.2442  221.4078 H   0  0  0  0  0  0  0  0  0  0  0  0
  146.2017   74.7249  221.1611 H   0  0  0  0  0  0  0  0  0  0  0  0
  144.3844   75.9408  219.9605 H   0  0  0  0  0  0  0  0  0  0  0  0
  142.1242   74.3584  217.7187 H   0  0  0  0  0  0  0  0  0  0  0  0
  144.3339   76.5160  218.0976 H   0  0  0  0  0  0  0  0  0  0  0  0
  143.7100   78.9220  217.3510 H   0  0  0  0  0  0  0  0  0  0  0  0
  141.4148   80.3432  217.0205 H   0  0  0  0  0  0  0  0  0  0  0  0
  138.9048   80.1418  217.0967 H   0  0  0  0  0  0  0  0  0  0  0  0
  137.8417   77.9828  217.7811 H   0  0  0  0  0  0  0  0  0  0  0  0
  139.2684   76.0163  218.4294 H   0  0  0  0  0  0  0  0  0  0  0  0
  1  2  2  0
  2  3  2  0
  2  4  1  0
  4  5  1  0
  5  6  2  0
  6  7  1  0
  7  8  2  0
  8  9  1  0
  9 10  1  0
  9 11  1  0
  9 12  1  0
  8 13  1  0
 13 14  2  0
  2 15  1  0
 15 16  1  0
 16 17  1  0
 17 18  1  0
 18 19  2  0
 19 20  1  0
 20 21  2  0
 21 22  1  0
 22 23  2  0
 23 24  1  0
 24 25  1  0
 25 26  2  0
 26 27  1  0
 27 28  1  0
 28 29  2  0
 29 30  1  0
 30 31  2  0
 31 32  1  0
 32 33  2  0
 14  5  1  0
 24 15  1  0
 33 25  1  0
 23 18  1  0
 33 28  1  0
  4 34  1  0
  4 35  1  0
  6 36  1  0
  7 37  1  0
 13 38  1  0
 14 39  1  0
 16 40  1  0
 16 41  1  0
 17 42  1  0
 17 43  1  0
 19 44  1  0
 20 45  1  0
 21 46  1  0
 22 47  1  0
 24 48  1  6
 26 49  1  0
 27 50  1  0
 29 51  1  0
 30 52  1  0
 31 53  1  0
 32 54  1  0
M  END
>  <UniqueID>  (31) 
190

>  <SMILES>  (31) 
O=S(=O)(Cc1ccc(C(F)(F)F)cc1)N1CCc2ccccc2[C@@H]1c1c[nH]c2ccccc12

>  <Energy>  (31) 
98.03035976018789

>  <Genealogy>  (31) 
O=S(=O)(Cc1ccc(C(F)(F)F)cc1)N1CCc2ccccc2[C@@H]1c1c[nH]c2ccccc12 (3D coordinates assigned)
O=S(=O)(Cc1ccc(C(F)(F)F)cc1)N1CCc2ccccc2[C@@H]1c1c[nH]c2ccccc12 (nonaromatic ring conformer: 98.03035976018789 kcal/mol)

>  <smiles>  (31) 
O=S(=O)(Cc1ccc(C(F)(F)F)cc1)N1CCc2ccccc2[C@@H]1c1c[nH]c2ccccc12

>  <score_type>  (31) 
oracle

>  <origin>  (31) 
autodockgpu

>  <m_score__min__energy>  (31) 
-7.4100000000000001

>  <m_primary>  (31) 
energy

>  <meeko>  (31) 
{"free_energy": -7.09, "intermolecular_energy": -8.58, "internal_energy": -2.24, "cluster_size": 4, "cluster_id": 2, "rank_in_cluster": 2}

>  <energy>  (31) 
-7.09

>  <cluster_rmsd>  (31) 
0.05

>  <rmsd>  (31) 
271.05

>  <cluster>  (31) 
2

$$$$
MHMHNRBLDMQEKR-XMMPIXPANA-N
     RDKit          3D

 54 58  0  0  0  0  0  0  0  0999 V2000
  142.1430   75.2720  221.5940 O   0  0  0  0  0  0  0  0  0  0  0  0
  140.7860   74.8200  221.1290 S   0  0  0  0  0  0  0  0  0  0  0  0
  140.3290   73.6810  221.9990 O   0  0  0  0  0  0  0  0  0  0  0  0
  139.6350   76.1760  221.3100 C   0  0  0  0  0  0  0  0  0  0  0  0
  140.3560   77.4170  221.7560 C   0  0  0  0  0  0  0  0  0  0  0  0
  141.0330   77.4370  222.9850 C   0  0  0  0  0  0  0  0  0  0  0  0
  141.6720   78.6020  223.4200 C   0  0  0  0  0  0  0  0  0  0  0  0
  141.6530   79.7630  222.6280 C   0  0  0  0  0  0  0  0  0  0  0  0
  142.2980   81.0330  223.1210 C   0  0  0  0  0  0  0  0  0  0  0  0
  143.6430   80.8320  223.3770 F   0  0  0  0  0  0  0  0  0  0  0  0
  141.6950   81.4650  224.2890 F   0  0  0  0  0  0  0  0  0  0  0  0
  142.1650   82.0150  222.1560 F   0  0  0  0  0  0  0  0  0  0  0  0
  140.9400   79.7500  221.4170 C   0  0  0  0  0  0  0  0  0  0  0  0
  140.3010   78.5850  220.9820 C   0  0  0  0  0  0  0  0  0  0  0  0
  140.8430   74.3240  219.4400 N   0  0  0  0  0  0  0  0  0  0  0  0
  140.6240   72.8570  219.3160 C   0  0  0  0  0  0  0  0  0  0  0  0
  141.9220   71.9970  219.2190 C   0  0  0  0  0  0  0  0  0  0  0  0
  143.1560   72.7240  219.6960 C   0  0  0  0  0  0  0  0  0  0  0  0
  144.1770   72.0390  220.3700 C   0  0  0  0  0  0  0  0  0  0  0  0
  145.2690   72.7400  220.8850 C   0  0  0  0  0  0  0  0  0  0  0  0
  145.3350   74.1290  220.7500 C   0  0  0  0  0  0  0  0  0  0  0  0
  144.3290   74.8170  220.0660 C   0  0  0  0  0  0  0  0  0  0  0  0
  143.2650   74.1090  219.4720 C   0  0  0  0  0  0  0  0  0  0  0  0
  142.0860   74.7440  218.7540 C   0  0  2  0  0  0  0  0  0  0  0  0
  142.1520   76.2390  218.4700 C   0  0  0  0  0  0  0  0  0  0  0  0
  143.3130   76.9420  218.1380 C   0  0  0  0  0  0  0  0  0  0  0  0
  143.0290   78.2060  217.7580 N   0  0  0  0  0  0  0  0  0  0  0  0
  141.6920   78.3060  217.7780 C   0  0  0  0  0  0  0  0  0  0  0  0
  140.9350   79.4080  217.3830 C   0  0  0  0  0  0  0  0  0  0  0  0
  139.5360   79.2800  217.3820 C   0  0  0  0  0  0  0  0  0  0  0  0
  138.9340   78.0590  217.7460 C   0  0  0  0  0  0  0  0  0  0  0  0
  139.7220   76.9600  218.1280 C   0  0  0  0  0  0  0  0  0  0  0  0
  141.1130   77.1210  218.1690 C   0  0  0  0  0  0  0  0  0  0  0  0
  139.1459   76.3681  220.3436 H   0  0  0  0  0  0  0  0  0  0  0  0
  138.8829   75.9080  222.0667 H   0  0  0  0  0  0  0  0  0  0  0  0
  141.0611   76.5317  223.6092 H   0  0  0  0  0  0  0  0  0  0  0  0
  142.1932   78.6100  224.3887 H   0  0  0  0  0  0  0  0  0  0  0  0
  140.8842   80.6635  220.8067 H   0  0  0  0  0  0  0  0  0  0  0  0
  139.7527   78.5847  220.0284 H   0  0  0  0  0  0  0  0  0  0  0  0
  140.0588   72.5216  220.1981 H   0  0  0  0  0  0  0  0  0  0  0  0
  140.0876   72.7078  218.3673 H   0  0  0  0  0  0  0  0  0  0  0  0
  141.7894   71.0940  219.8329 H   0  0  0  0  0  0  0  0  0  0  0  0
  142.0753   71.7566  218.1566 H   0  0  0  0  0  0  0  0  0  0  0  0
  144.1175   70.9475  220.4932 H   0  0  0  0  0  0  0  0  0  0  0  0
  146.0778   72.1984  221.3973 H   0  0  0  0  0  0  0  0  0  0  0  0
  146.1811   74.6826  221.1832 H   0  0  0  0  0  0  0  0  0  0  0  0
  144.3678   75.9138  219.9911 H   0  0  0  0  0  0  0  0  0  0  0  0
  142.1139   74.3592  217.7239 H   0  0  0  0  0  0  0  0  0  0  0  0
  144.3279   76.5199  218.1807 H   0  0  0  0  0  0  0  0  0  0  0  0
  143.7110   78.9330  217.4470 H   0  0  0  0  0  0  0  0  0  0  0  0
  141.4183   80.3490  217.0813 H   0  0  0  0  0  0  0  0  0  0  0  0
  138.9079   80.1365  217.0959 H   0  0  0  0  0  0  0  0  0  0  0  0
  137.8381   77.9654  217.7310 H   0  0  0  0  0  0  0  0  0  0  0  0
  139.2581   75.9972  218.3884 H   0  0  0  0  0  0  0  0  0  0  0  0
  1  2  2  0
  2  3  2  0
  2  4  1  0
  4  5  1  0
  5  6  2  0
  6  7  1  0
  7  8  2  0
  8  9  1  0
  9 10  1  0
  9 11  1  0
  9 12  1  0
  8 13  1  0
 13 14  2  0
  2 15  1  0
 15 16  1  0
 16 17  1  0
 17 18  1  0
 18 19  2  0
 19 20  1  0
 20 21  2  0
 21 22  1  0
 22 23  2  0
 23 24  1  0
 24 25  1  0
 25 26  2  0
 26 27  1  0
 27 28  1  0
 28 29  2  0
 29 30  1  0
 30 31  2  0
 31 32  1  0
 32 33  2  0
 14  5  1  0
 24 15  1  0
 33 25  1  0
 23 18  1  0
 33 28  1  0
  4 34  1  0
  4 35  1  0
  6 36  1  0
  7 37  1  0
 13 38  1  0
 14 39  1  0
 16 40  1  0
 16 41  1  0
 17 42  1  0
 17 43  1  0
 19 44  1  0
 20 45  1  0
 21 46  1  0
 22 47  1  0
 24 48  1  6
 26 49  1  0
 27 50  1  0
 29 51  1  0
 30 52  1  0
 31 53  1  0
 32 54  1  0
M  END
>  <UniqueID>  (32) 
190

>  <SMILES>  (32) 
O=S(=O)(Cc1ccc(C(F)(F)F)cc1)N1CCc2ccccc2[C@@H]1c1c[nH]c2ccccc12

>  <Energy>  (32) 
98.03035976018789

>  <Genealogy>  (32) 
O=S(=O)(Cc1ccc(C(F)(F)F)cc1)N1CCc2ccccc2[C@@H]1c1c[nH]c2ccccc12 (3D coordinates assigned)
O=S(=O)(Cc1ccc(C(F)(F)F)cc1)N1CCc2ccccc2[C@@H]1c1c[nH]c2ccccc12 (nonaromatic ring conformer: 98.03035976018789 kcal/mol)

>  <smiles>  (32) 
O=S(=O)(Cc1ccc(C(F)(F)F)cc1)N1CCc2ccccc2[C@@H]1c1c[nH]c2ccccc12

>  <score_type>  (32) 
oracle

>  <origin>  (32) 
autodockgpu

>  <m_score__min__energy>  (32) 
-7.4100000000000001

>  <m_primary>  (32) 
energy

>  <meeko>  (32) 
{"free_energy": -7.09, "intermolecular_energy": -8.58, "internal_energy": -2.26, "cluster_size": 4, "cluster_id": 2, "rank_in_cluster": 3}

>  <energy>  (32) 
-7.09

>  <cluster_rmsd>  (32) 
0.12

>  <rmsd>  (32) 
271.01

>  <cluster>  (32) 
2

$$$$
MHMHNRBLDMQEKR-XMMPIXPANA-N
     RDKit          3D

 54 58  0  0  0  0  0  0  0  0999 V2000
  139.8220   75.1880  222.5400 O   0  0  0  0  0  0  0  0  0  0  0  0
  138.6520   75.2450  221.5960 S   0  0  0  0  0  0  0  0  0  0  0  0
  137.4020   74.8850  222.3510 O   0  0  0  0  0  0  0  0  0  0  0  0
  138.4890   76.9150  220.9820 C   0  0  0  0  0  0  0  0  0  0  0  0
  139.5600   77.7930  221.5640 C   0  0  0  0  0  0  0  0  0  0  0  0
  139.4960   78.1890  222.9080 C   0  0  0  0  0  0  0  0  0  0  0  0
  140.4710   79.0360  223.4420 C   0  0  0  0  0  0  0  0  0  0  0  0
  141.5320   79.4940  222.6430 C   0  0  0  0  0  0  0  0  0  0  0  0
  142.5550   80.4500  223.2040 C   0  0  0  0  0  0  0  0  0  0  0  0
  143.8150   80.1610  222.7130 F   0  0  0  0  0  0  0  0  0  0  0  0
  142.5980   80.3620  224.5850 F   0  0  0  0  0  0  0  0  0  0  0  0
  142.2160   81.7410  222.8460 F   0  0  0  0  0  0  0  0  0  0  0  0
  141.5710   79.1280  221.2860 C   0  0  0  0  0  0  0  0  0  0  0  0
  140.5960   78.2800  220.7530 C   0  0  0  0  0  0  0  0  0  0  0  0
  138.8960   74.1450  220.2410 N   0  0  0  0  0  0  0  0  0  0  0  0
  137.6570   73.3670  219.9690 C   0  0  0  0  0  0  0  0  0  0  0  0
  137.6060   71.9500  220.6180 C   0  0  0  0  0  0  0  0  0  0  0  0
  138.5940   71.7750  221.7470 C   0  0  0  0  0  0  0  0  0  0  0  0
  138.2720   70.9960  222.8680 C   0  0  0  0  0  0  0  0  0  0  0  0
  139.1590   70.9180  223.9430 C   0  0  0  0  0  0  0  0  0  0  0  0
  140.3580   71.6350  223.9150 C   0  0  0  0  0  0  0  0  0  0  0  0
  140.6920   72.4010  222.7950 C   0  0  0  0  0  0  0  0  0  0  0  0
  139.8420   72.4200  221.6710 C   0  0  0  0  0  0  0  0  0  0  0  0
  140.0650   73.2550  220.4200 C   0  0  2  0  0  0  0  0  0  0  0  0
  141.4040   73.9670  220.2750 C   0  0  0  0  0  0  0  0  0  0  0  0
  141.5930   75.3480  220.3840 C   0  0  0  0  0  0  0  0  0  0  0  0
  142.9060   75.6610  220.4000 N   0  0  0  0  0  0  0  0  0  0  0  0
  143.5650   74.4950  220.3700 C   0  0  0  0  0  0  0  0  0  0  0  0
  144.9460   74.3170  220.4520 C   0  0  0  0  0  0  0  0  0  0  0  0
  145.4390   73.0030  220.5070 C   0  0  0  0  0  0  0  0  0  0  0  0
  144.5500   71.9100  220.5050 C   0  0  0  0  0  0  0  0  0  0  0  0
  143.1620   72.1180  220.4330 C   0  0  0  0  0  0  0  0  0  0  0  0
  142.6910   73.4330  220.3320 C   0  0  0  0  0  0  0  0  0  0  0  0
  138.5811   76.9089  219.8859 H   0  0  0  0  0  0  0  0  0  0  0  0
  137.5051   77.3092  221.2761 H   0  0  0  0  0  0  0  0  0  0  0  0
  138.6739   77.8310  223.5452 H   0  0  0  0  0  0  0  0  0  0  0  0
  140.4072   79.3463  224.4954 H   0  0  0  0  0  0  0  0  0  0  0  0
  142.3741   79.5115  220.6395 H   0  0  0  0  0  0  0  0  0  0  0  0
  140.6413   77.9930  219.6921 H   0  0  0  0  0  0  0  0  0  0  0  0
  136.8018   73.9457  220.3481 H   0  0  0  0  0  0  0  0  0  0  0  0
  137.6311   73.2053  218.8813 H   0  0  0  0  0  0  0  0  0  0  0  0
  136.5926   71.7823  221.0115 H   0  0  0  0  0  0  0  0  0  0  0  0
  137.8720   71.2234  219.8362 H   0  0  0  0  0  0  0  0  0  0  0  0
  137.3198   70.4461  222.9001 H   0  0  0  0  0  0  0  0  0  0  0  0
  138.9138   70.2914  224.8132 H   0  0  0  0  0  0  0  0  0  0  0  0
  141.0406   71.5964  224.7767 H   0  0  0  0  0  0  0  0  0  0  0  0
  141.6206   72.9906  222.7906 H   0  0  0  0  0  0  0  0  0  0  0  0
  140.1441   72.5413  219.5867 H   0  0  0  0  0  0  0  0  0  0  0  0
  140.7778   76.0837  220.4484 H   0  0  0  0  0  0  0  0  0  0  0  0
  143.3180   76.6170  220.4880 H   0  0  0  0  0  0  0  0  0  0  0  0
  145.6283   75.1796  220.4729 H   0  0  0  0  0  0  0  0  0  0  0  0
  146.5238   72.8265  220.5518 H   0  0  0  0  0  0  0  0  0  0  0  0
  144.9457   70.8851  220.5603 H   0  0  0  0  0  0  0  0  0  0  0  0
  142.4629   71.2690  220.4554 H   0  0  0  0  0  0  0  0  0  0  0  0
  1  2  2  0
  2  3  2  0
  2  4  1  0
  4  5  1  0
  5  6  2  0
  6  7  1  0
  7  8  2  0
  8  9  1  0
  9 10  1  0
  9 11  1  0
  9 12  1  0
  8 13  1  0
 13 14  2  0
  2 15  1  0
 15 16  1  0
 16 17  1  0
 17 18  1  0
 18 19  2  0
 19 20  1  0
 20 21  2  0
 21 22  1  0
 22 23  2  0
 23 24  1  0
 24 25  1  0
 25 26  2  0
 26 27  1  0
 27 28  1  0
 28 29  2  0
 29 30  1  0
 30 31  2  0
 31 32  1  0
 32 33  2  0
 14  5  1  0
 24 15  1  0
 33 25  1  0
 23 18  1  0
 33 28  1  0
  4 34  1  0
  4 35  1  0
  6 36  1  0
  7 37  1  0
 13 38  1  0
 14 39  1  0
 16 40  1  0
 16 41  1  0
 17 42  1  0
 17 43  1  0
 19 44  1  0
 20 45  1  0
 21 46  1  0
 22 47  1  0
 24 48  1  6
 26 49  1  0
 27 50  1  0
 29 51  1  0
 30 52  1  0
 31 53  1  0
 32 54  1  0
M  END
>  <UniqueID>  (33) 
190

>  <SMILES>  (33) 
O=S(=O)(Cc1ccc(C(F)(F)F)cc1)N1CCc2ccccc2[C@@H]1c1c[nH]c2ccccc12

>  <Energy>  (33) 
98.03035976018789

>  <Genealogy>  (33) 
O=S(=O)(Cc1ccc(C(F)(F)F)cc1)N1CCc2ccccc2[C@@H]1c1c[nH]c2ccccc12 (3D coordinates assigned)
O=S(=O)(Cc1ccc(C(F)(F)F)cc1)N1CCc2ccccc2[C@@H]1c1c[nH]c2ccccc12 (nonaromatic ring conformer: 98.03035976018789 kcal/mol)

>  <smiles>  (33) 
O=S(=O)(Cc1ccc(C(F)(F)F)cc1)N1CCc2ccccc2[C@@H]1c1c[nH]c2ccccc12

>  <score_type>  (33) 
oracle

>  <origin>  (33) 
autodockgpu

>  <m_score__min__energy>  (33) 
-7.4100000000000001

>  <m_primary>  (33) 
energy

>  <meeko>  (33) 
{"free_energy": -7.4, "intermolecular_energy": -8.9, "internal_energy": -2.01, "cluster_size": 9, "cluster_id": 1, "rank_in_cluster": 3}

>  <energy>  (33) 
-7.08

>  <cluster_rmsd>  (33) 
0.14

>  <rmsd>  (33) 
271.0

>  <cluster>  (33) 
2

$$$$
MHMHNRBLDMQEKR-XMMPIXPANA-N
     RDKit          3D

 54 58  0  0  0  0  0  0  0  0999 V2000
  139.8380   75.2730  222.6660 O   0  0  0  0  0  0  0  0  0  0  0  0
  138.6300   75.3390  221.7730 S   0  0  0  0  0  0  0  0  0  0  0  0
  137.4100   74.9920  222.5820 O   0  0  0  0  0  0  0  0  0  0  0  0
  138.4570   77.0090  221.1620 C   0  0  0  0  0  0  0  0  0  0  0  0
  139.5380   77.8870  221.7250 C   0  0  0  0  0  0  0  0  0  0  0  0
  139.4320   78.3900  223.0300 C   0  0  0  0  0  0  0  0  0  0  0  0
  140.4190   79.2370  223.5430 C   0  0  0  0  0  0  0  0  0  0  0  0
  141.5330   79.5870  222.7610 C   0  0  0  0  0  0  0  0  0  0  0  0
  142.5710   80.5420  223.2960 C   0  0  0  0  0  0  0  0  0  0  0  0
  143.7130   80.5080  222.5160 F   0  0  0  0  0  0  0  0  0  0  0  0
  142.9210   80.2070  224.5920 F   0  0  0  0  0  0  0  0  0  0  0  0
  142.0560   81.8250  223.2860 F   0  0  0  0  0  0  0  0  0  0  0  0
  141.6160   79.1130  221.4410 C   0  0  0  0  0  0  0  0  0  0  0  0
  140.6290   78.2660  220.9290 C   0  0  0  0  0  0  0  0  0  0  0  0
  138.8050   74.2330  220.4130 N   0  0  0  0  0  0  0  0  0  0  0  0
  137.5440   73.4780  220.1860 C   0  0  0  0  0  0  0  0  0  0  0  0
  137.4900   72.0620  220.8390 C   0  0  0  0  0  0  0  0  0  0  0  0
  138.5140   71.8710  221.9320 C   0  0  0  0  0  0  0  0  0  0  0  0
  138.2190   71.0980  223.0650 C   0  0  0  0  0  0  0  0  0  0  0  0
  139.1420   71.0060  224.1080 C   0  0  0  0  0  0  0  0  0  0  0  0
  140.3510   71.7000  224.0360 C   0  0  0  0  0  0  0  0  0  0  0  0
  140.6590   72.4590  222.9040 C   0  0  0  0  0  0  0  0  0  0  0  0
  139.7700   72.4930  221.8100 C   0  0  0  0  0  0  0  0  0  0  0  0
  139.9630   73.3220  220.5510 C   0  0  2  0  0  0  0  0  0  0  0  0
  141.3090   74.0100  220.3570 C   0  0  0  0  0  0  0  0  0  0  0  0
  141.5220   75.3890  220.4280 C   0  0  0  0  0  0  0  0  0  0  0  0
  142.8390   75.6830  220.4050 N   0  0  0  0  0  0  0  0  0  0  0  0
  143.4800   74.5060  220.3880 C   0  0  0  0  0  0  0  0  0  0  0  0
  144.8590   74.3090  220.4430 C   0  0  0  0  0  0  0  0  0  0  0  0
  145.3340   72.9890  220.5180 C   0  0  0  0  0  0  0  0  0  0  0  0
  144.4290   71.9100  220.5640 C   0  0  0  0  0  0  0  0  0  0  0  0
  143.0430   72.1380  220.5200 C   0  0  0  0  0  0  0  0  0  0  0  0
  142.5900   73.4570  220.3970 C   0  0  0  0  0  0  0  0  0  0  0  0
  138.5300   77.0028  220.0644 H   0  0  0  0  0  0  0  0  0  0  0  0
  137.4785   77.4034  221.4735 H   0  0  0  0  0  0  0  0  0  0  0  0
  138.5677   78.1166  223.6532 H   0  0  0  0  0  0  0  0  0  0  0  0
  140.3230   79.6319  224.5652 H   0  0  0  0  0  0  0  0  0  0  0  0
  142.4636   79.4105  220.8061 H   0  0  0  0  0  0  0  0  0  0  0  0
  140.7082   77.8947  219.8966 H   0  0  0  0  0  0  0  0  0  0  0  0
  136.7134   74.0726  220.5940 H   0  0  0  0  0  0  0  0  0  0  0  0
  137.4770   73.3158  219.1001 H   0  0  0  0  0  0  0  0  0  0  0  0
  136.4884   71.9132  221.2686 H   0  0  0  0  0  0  0  0  0  0  0  0
  137.7143   71.3295  220.0496 H   0  0  0  0  0  0  0  0  0  0  0  0
  137.2596   70.5640  223.1314 H   0  0  0  0  0  0  0  0  0  0  0  0
  138.9164   70.3857  224.9880 H   0  0  0  0  0  0  0  0  0  0  0  0
  141.0632   71.6492  224.8727 H   0  0  0  0  0  0  0  0  0  0  0  0
  141.5975   73.0315  222.8662 H   0  0  0  0  0  0  0  0  0  0  0  0
  139.9991   72.6061  219.7166 H   0  0  0  0  0  0  0  0  0  0  0  0
  140.7196   76.1385  220.4941 H   0  0  0  0  0  0  0  0  0  0  0  0
  143.2670   76.6340  220.4590 H   0  0  0  0  0  0  0  0  0  0  0  0
  145.5542   75.1614  220.4281 H   0  0  0  0  0  0  0  0  0  0  0  0
  146.4169   72.7970  220.5409 H   0  0  0  0  0  0  0  0  0  0  0  0
  144.8105   70.8807  220.6349 H   0  0  0  0  0  0  0  0  0  0  0  0
  142.3318   71.3010  220.5807 H   0  0  0  0  0  0  0  0  0  0  0  0
  1  2  2  0
  2  3  2  0
  2  4  1  0
  4  5  1  0
  5  6  2  0
  6  7  1  0
  7  8  2  0
  8  9  1  0
  9 10  1  0
  9 11  1  0
  9 12  1  0
  8 13  1  0
 13 14  2  0
  2 15  1  0
 15 16  1  0
 16 17  1  0
 17 18  1  0
 18 19  2  0
 19 20  1  0
 20 21  2  0
 21 22  1  0
 22 23  2  0
 23 24  1  0
 24 25  1  0
 25 26  2  0
 26 27  1  0
 27 28  1  0
 28 29  2  0
 29 30  1  0
 30 31  2  0
 31 32  1  0
 32 33  2  0
 14  5  1  0
 24 15  1  0
 33 25  1  0
 23 18  1  0
 33 28  1  0
  4 34  1  0
  4 35  1  0
  6 36  1  0
  7 37  1  0
 13 38  1  0
 14 39  1  0
 16 40  1  0
 16 41  1  0
 17 42  1  0
 17 43  1  0
 19 44  1  0
 20 45  1  0
 21 46  1  0
 22 47  1  0
 24 48  1  6
 26 49  1  0
 27 50  1  0
 29 51  1  0
 30 52  1  0
 31 53  1  0
 32 54  1  0
M  END
>  <UniqueID>  (34) 
190

>  <SMILES>  (34) 
O=S(=O)(Cc1ccc(C(F)(F)F)cc1)N1CCc2ccccc2[C@@H]1c1c[nH]c2ccccc12

>  <Energy>  (34) 
98.03035976018789

>  <Genealogy>  (34) 
O=S(=O)(Cc1ccc(C(F)(F)F)cc1)N1CCc2ccccc2[C@@H]1c1c[nH]c2ccccc12 (3D coordinates assigned)
O=S(=O)(Cc1ccc(C(F)(F)F)cc1)N1CCc2ccccc2[C@@H]1c1c[nH]c2ccccc12 (nonaromatic ring conformer: 98.03035976018789 kcal/mol)

>  <smiles>  (34) 
O=S(=O)(Cc1ccc(C(F)(F)F)cc1)N1CCc2ccccc2[C@@H]1c1c[nH]c2ccccc12

>  <score_type>  (34) 
oracle

>  <origin>  (34) 
autodockgpu

>  <m_score__min__energy>  (34) 
-7.4100000000000001

>  <m_primary>  (34) 
energy

>  <meeko>  (34) 
{"free_energy": -7.4, "intermolecular_energy": -8.9, "internal_energy": -1.99, "cluster_size": 9, "cluster_id": 1, "rank_in_cluster": 4}

>  <energy>  (34) 
-6.46

>  <cluster_rmsd>  (34) 
0.0

>  <rmsd>  (34) 
271.72

>  <cluster>  (34) 
3

$$$$
MHMHNRBLDMQEKR-XMMPIXPANA-N
     RDKit          3D

 54 58  0  0  0  0  0  0  0  0999 V2000
  139.8160   75.2190  222.6630 O   0  0  0  0  0  0  0  0  0  0  0  0
  138.6050   75.2670  221.7720 S   0  0  0  0  0  0  0  0  0  0  0  0
  137.3930   74.8950  222.5800 O   0  0  0  0  0  0  0  0  0  0  0  0
  138.4010   76.9370  221.1690 C   0  0  0  0  0  0  0  0  0  0  0  0
  139.4880   77.8230  221.7060 C   0  0  0  0  0  0  0  0  0  0  0  0
  139.4490   78.2610  223.0380 C   0  0  0  0  0  0  0  0  0  0  0  0
  140.4390   79.1170  223.5300 C   0  0  0  0  0  0  0  0  0  0  0  0
  141.4910   79.5400  222.7000 C   0  0  0  0  0  0  0  0  0  0  0  0
  142.5300   80.5040  223.2150 C   0  0  0  0  0  0  0  0  0  0  0  0
  142.5850   80.4700  224.5970 F   0  0  0  0  0  0  0  0  0  0  0  0
  142.2300   81.7980  222.8260 F   0  0  0  0  0  0  0  0  0  0  0  0
  143.7660   80.1550  222.7050 F   0  0  0  0  0  0  0  0  0  0  0  0
  141.5050   79.1320  221.3550 C   0  0  0  0  0  0  0  0  0  0  0  0
  140.5140   78.2760  220.8640 C   0  0  0  0  0  0  0  0  0  0  0  0
  138.7990   74.1710  220.4060 N   0  0  0  0  0  0  0  0  0  0  0  0
  137.5460   73.4050  220.1660 C   0  0  0  0  0  0  0  0  0  0  0  0
  137.5010   71.9860  220.8110 C   0  0  0  0  0  0  0  0  0  0  0  0
  138.5200   71.7970  221.9090 C   0  0  0  0  0  0  0  0  0  0  0  0
  138.2250   71.0150  223.0350 C   0  0  0  0  0  0  0  0  0  0  0  0
  139.1430   70.9250  224.0830 C   0  0  0  0  0  0  0  0  0  0  0  0
  140.3460   71.6310  224.0220 C   0  0  0  0  0  0  0  0  0  0  0  0
  140.6540   72.3990  222.8970 C   0  0  0  0  0  0  0  0  0  0  0  0
  139.7710   72.4320  221.7980 C   0  0  0  0  0  0  0  0  0  0  0  0
  139.9640   73.2700  220.5450 C   0  0  2  0  0  0  0  0  0  0  0  0
  141.3040   73.9710  220.3630 C   0  0  0  0  0  0  0  0  0  0  0  0
  141.5060   75.3510  220.4520 C   0  0  0  0  0  0  0  0  0  0  0  0
  142.8210   75.6560  220.4370 N   0  0  0  0  0  0  0  0  0  0  0  0
  143.4710   74.4840  220.4070 C   0  0  0  0  0  0  0  0  0  0  0  0
  144.8520   74.2980  220.4620 C   0  0  0  0  0  0  0  0  0  0  0  0
  145.3370   72.9810  220.5220 C   0  0  0  0  0  0  0  0  0  0  0  0
  144.4410   71.8940  220.5520 C   0  0  0  0  0  0  0  0  0  0  0  0
  143.0530   72.1110  220.5070 C   0  0  0  0  0  0  0  0  0  0  0  0
  142.5900   73.4280  220.4000 C   0  0  0  0  0  0  0  0  0  0  0  0
  138.4458   76.9337  220.0699 H   0  0  0  0  0  0  0  0  0  0  0  0
  137.4273   77.3220  221.5061 H   0  0  0  0  0  0  0  0  0  0  0  0
  138.6350   77.9292  223.6992 H   0  0  0  0  0  0  0  0  0  0  0  0
  140.3940   79.4616  224.5737 H   0  0  0  0  0  0  0  0  0  0  0  0
  142.3007   79.4883  220.6842 H   0  0  0  0  0  0  0  0  0  0  0  0
  140.5394   77.9563  219.8118 H   0  0  0  0  0  0  0  0  0  0  0  0
  136.7069   73.9896  220.5711 H   0  0  0  0  0  0  0  0  0  0  0  0
  137.4879   73.2479  219.0788 H   0  0  0  0  0  0  0  0  0  0  0  0
  136.4982   71.8263  221.2339 H   0  0  0  0  0  0  0  0  0  0  0  0
  137.7369   71.2602  220.0188 H   0  0  0  0  0  0  0  0  0  0  0  0
  137.2699   70.4723  223.0926 H   0  0  0  0  0  0  0  0  0  0  0  0
  138.9183   70.2971  224.9578 H   0  0  0  0  0  0  0  0  0  0  0  0
  141.0535   71.5821  224.8629 H   0  0  0  0  0  0  0  0  0  0  0  0
  141.5878   72.9797  222.8681 H   0  0  0  0  0  0  0  0  0  0  0  0
  140.0118   72.5595  219.7066 H   0  0  0  0  0  0  0  0  0  0  0  0
  140.6974   76.0932  220.5249 H   0  0  0  0  0  0  0  0  0  0  0  0
  143.2410   76.6090  220.5040 H   0  0  0  0  0  0  0  0  0  0  0  0
  145.5403   75.1561  220.4585 H   0  0  0  0  0  0  0  0  0  0  0  0
  146.4213   72.7975  220.5457 H   0  0  0  0  0  0  0  0  0  0  0  0
  144.8309   70.8671  220.6111 H   0  0  0  0  0  0  0  0  0  0  0  0
  142.3484   71.2676  220.5546 H   0  0  0  0  0  0  0  0  0  0  0  0
  1  2  2  0
  2  3  2  0
  2  4  1  0
  4  5  1  0
  5  6  2  0
  6  7  1  0
  7  8  2  0
  8  9  1  0
  9 10  1  0
  9 11  1  0
  9 12  1  0
  8 13  1  0
 13 14  2  0
  2 15  1  0
 15 16  1  0
 16 17  1  0
 17 18  1  0
 18 19  2  0
 19 20  1  0
 20 21  2  0
 21 22  1  0
 22 23  2  0
 23 24  1  0
 24 25  1  0
 25 26  2  0
 26 27  1  0
 27 28  1  0
 28 29  2  0
 29 30  1  0
 30 31  2  0
 31 32  1  0
 32 33  2  0
 14  5  1  0
 24 15  1  0
 33 25  1  0
 23 18  1  0
 33 28  1  0
  4 34  1  0
  4 35  1  0
  6 36  1  0
  7 37  1  0
 13 38  1  0
 14 39  1  0
 16 40  1  0
 16 41  1  0
 17 42  1  0
 17 43  1  0
 19 44  1  0
 20 45  1  0
 21 46  1  0
 22 47  1  0
 24 48  1  6
 26 49  1  0
 27 50  1  0
 29 51  1  0
 30 52  1  0
 31 53  1  0
 32 54  1  0
M  END
>  <UniqueID>  (35) 
190

>  <SMILES>  (35) 
O=S(=O)(Cc1ccc(C(F)(F)F)cc1)N1CCc2ccccc2[C@@H]1c1c[nH]c2ccccc12

>  <Energy>  (35) 
98.03035976018789

>  <Genealogy>  (35) 
O=S(=O)(Cc1ccc(C(F)(F)F)cc1)N1CCc2ccccc2[C@@H]1c1c[nH]c2ccccc12 (3D coordinates assigned)
O=S(=O)(Cc1ccc(C(F)(F)F)cc1)N1CCc2ccccc2[C@@H]1c1c[nH]c2ccccc12 (nonaromatic ring conformer: 98.03035976018789 kcal/mol)

>  <smiles>  (35) 
O=S(=O)(Cc1ccc(C(F)(F)F)cc1)N1CCc2ccccc2[C@@H]1c1c[nH]c2ccccc12

>  <score_type>  (35) 
oracle

>  <origin>  (35) 
autodockgpu

>  <m_score__min__energy>  (35) 
-7.4100000000000001

>  <m_primary>  (35) 
energy

>  <meeko>  (35) 
{"free_energy": -7.38, "intermolecular_energy": -8.87, "internal_energy": -2.02, "cluster_size": 9, "cluster_id": 1, "rank_in_cluster": 6}

>  <energy>  (35) 
-6.44

>  <cluster_rmsd>  (35) 
0.63

>  <rmsd>  (35) 
271.56

>  <cluster>  (35) 
3

$$$$
MHMHNRBLDMQEKR-XMMPIXPANA-N
     RDKit          3D

 54 58  0  0  0  0  0  0  0  0999 V2000
  138.9430   77.2570  219.9670 O   0  0  0  0  0  0  0  0  0  0  0  0
  140.2890   76.7290  219.5540 S   0  0  0  0  0  0  0  0  0  0  0  0
  140.0890   75.4960  218.7160 O   0  0  0  0  0  0  0  0  0  0  0  0
  141.1130   77.9680  218.5630 C   0  0  0  0  0  0  0  0  0  0  0  0
  140.9100   79.3320  219.1570 C   0  0  0  0  0  0  0  0  0  0  0  0
  141.9930   80.0270  219.7170 C   0  0  0  0  0  0  0  0  0  0  0  0
  141.8000   81.2820  220.3040 C   0  0  0  0  0  0  0  0  0  0  0  0
  140.5220   81.8660  220.3310 C   0  0  0  0  0  0  0  0  0  0  0  0
  140.3040   83.1940  221.0100 C   0  0  0  0  0  0  0  0  0  0  0  0
  139.2760   83.1100  221.9310 F   0  0  0  0  0  0  0  0  0  0  0  0
  139.9760   84.1680  220.0830 F   0  0  0  0  0  0  0  0  0  0  0  0
  141.4640   83.5670  221.6630 F   0  0  0  0  0  0  0  0  0  0  0  0
  139.4330   81.1490  219.8050 C   0  0  0  0  0  0  0  0  0  0  0  0
  139.6270   79.8950  219.2180 C   0  0  0  0  0  0  0  0  0  0  0  0
  141.2720   76.3630  220.9700 N   0  0  0  0  0  0  0  0  0  0  0  0
  141.8750   75.0080  220.8530 C   0  0  0  0  0  0  0  0  0  0  0  0
  141.0910   73.8680  221.5720 C   0  0  0  0  0  0  0  0  0  0  0  0
  139.6610   74.2330  221.8860 C   0  0  0  0  0  0  0  0  0  0  0  0
  138.6430   73.2700  221.8210 C   0  0  0  0  0  0  0  0  0  0  0  0
  137.3130   73.6430  222.0250 C   0  0  0  0  0  0  0  0  0  0  0  0
  136.9910   74.9800  222.2710 C   0  0  0  0  0  0  0  0  0  0  0  0
  138.0000   75.9420  222.3520 C   0  0  0  0  0  0  0  0  0  0  0  0
  139.3530   75.5620  222.2290 C   0  0  0  0  0  0  0  0  0  0  0  0
  140.5340   76.5180  222.2430 C   0  0  2  0  0  0  0  0  0  0  0  0
  140.2650   77.9700  222.6210 C   0  0  0  0  0  0  0  0  0  0  0  0
  139.0350   78.4710  223.0550 C   0  0  0  0  0  0  0  0  0  0  0  0
  139.1520   79.7410  223.4970 N   0  0  0  0  0  0  0  0  0  0  0  0
  140.4550   80.0420  223.4150 C   0  0  0  0  0  0  0  0  0  0  0  0
  141.0640   81.2220  223.8390 C   0  0  0  0  0  0  0  0  0  0  0  0
  142.4640   81.3060  223.7620 C   0  0  0  0  0  0  0  0  0  0  0  0
  143.2170   80.2110  223.2930 C   0  0  0  0  0  0  0  0  0  0  0  0
  142.5780   79.0280  222.8840 C   0  0  0  0  0  0  0  0  0  0  0  0
  141.1790   78.9800  222.9240 C   0  0  0  0  0  0  0  0  0  0  0  0
  142.1896   77.7453  218.5256 H   0  0  0  0  0  0  0  0  0  0  0  0
  140.6890   77.9536  217.5481 H   0  0  0  0  0  0  0  0  0  0  0  0
  142.9989   79.5825  219.6942 H   0  0  0  0  0  0  0  0  0  0  0  0
  142.6540   81.8151  220.7473 H   0  0  0  0  0  0  0  0  0  0  0  0
  138.4212   81.5777  219.8556 H   0  0  0  0  0  0  0  0  0  0  0  0
  138.7688   79.3471  218.8018 H   0  0  0  0  0  0  0  0  0  0  0  0
  141.9392   74.7553  219.7844 H   0  0  0  0  0  0  0  0  0  0  0  0
  142.8543   75.0658  221.3506 H   0  0  0  0  0  0  0  0  0  0  0  0
  141.0901   72.9809  220.9216 H   0  0  0  0  0  0  0  0  0  0  0  0
  141.5969   73.6789  222.5303 H   0  0  0  0  0  0  0  0  0  0  0  0
  138.8928   72.2199  221.6091 H   0  0  0  0  0  0  0  0  0  0  0  0
  136.5180   72.8834  221.9920 H   0  0  0  0  0  0  0  0  0  0  0  0
  135.9396   75.2758  222.4013 H   0  0  0  0  0  0  0  0  0  0  0  0
  137.7392   76.9986  222.5121 H   0  0  0  0  0  0  0  0  0  0  0  0
  141.1589   76.2176  223.0969 H   0  0  0  0  0  0  0  0  0  0  0  0
  138.0928   77.9036  223.0386 H   0  0  0  0  0  0  0  0  0  0  0  0
  138.3890   80.3390  223.8860 H   0  0  0  0  0  0  0  0  0  0  0  0
  140.4662   82.0621  224.2224 H   0  0  0  0  0  0  0  0  0  0  0  0
  142.9748   82.2305  224.0691 H   0  0  0  0  0  0  0  0  0  0  0  0
  144.3137   80.2828  223.2467 H   0  0  0  0  0  0  0  0  0  0  0  0
  143.1622   78.1614  222.5410 H   0  0  0  0  0  0  0  0  0  0  0  0
  1  2  2  0
  2  3  2  0
  2  4  1  0
  4  5  1  0
  5  6  2  0
  6  7  1  0
  7  8  2  0
  8  9  1  0
  9 10  1  0
  9 11  1  0
  9 12  1  0
  8 13  1  0
 13 14  2  0
  2 15  1  0
 15 16  1  0
 16 17  1  0
 17 18  1  0
 18 19  2  0
 19 20  1  0
 20 21  2  0
 21 22  1  0
 22 23  2  0
 23 24  1  0
 24 25  1  0
 25 26  2  0
 26 27  1  0
 27 28  1  0
 28 29  2  0
 29 30  1  0
 30 31  2  0
 31 32  1  0
 32 33  2  0
 14  5  1  0
 24 15  1  0
 33 25  1  0
 23 18  1  0
 33 28  1  0
  4 34  1  0
  4 35  1  0
  6 36  1  0
  7 37  1  0
 13 38  1  0
 14 39  1  0
 16 40  1  0
 16 41  1  0
 17 42  1  0
 17 43  1  0
 19 44  1  0
 20 45  1  0
 21 46  1  0
 22 47  1  0
 24 48  1  1
 26 49  1  0
 27 50  1  0
 29 51  1  0
 30 52  1  0
 31 53  1  0
 32 54  1  0
M  END
>  <UniqueID>  (36) 
190

>  <SMILES>  (36) 
O=S(=O)(Cc1ccc(C(F)(F)F)cc1)N1CCc2ccccc2[C@@H]1c1c[nH]c2ccccc12

>  <Energy>  (36) 
98.03035976018789

>  <Genealogy>  (36) 
O=S(=O)(Cc1ccc(C(F)(F)F)cc1)N1CCc2ccccc2[C@@H]1c1c[nH]c2ccccc12 (3D coordinates assigned)
O=S(=O)(Cc1ccc(C(F)(F)F)cc1)N1CCc2ccccc2[C@@H]1c1c[nH]c2ccccc12 (nonaromatic ring conformer: 98.03035976018789 kcal/mol)

>  <smiles>  (36) 
O=S(=O)(Cc1ccc(C(F)(F)F)cc1)N1CCc2ccccc2[C@@H]1c1c[nH]c2ccccc12

>  <score_type>  (36) 
oracle

>  <origin>  (36) 
autodockgpu

>  <m_score__min__energy>  (36) 
-7.4100000000000001

>  <m_primary>  (36) 
energy

>  <meeko>  (36) 
{"free_energy": -6.46, "intermolecular_energy": -7.95, "internal_energy": -2.83, "cluster_size": 7, "cluster_id": 3, "rank_in_cluster": 1}

>  <energy>  (36) 
-6.44

>  <cluster_rmsd>  (36) 
0.63

>  <rmsd>  (36) 
271.56

>  <cluster>  (36) 
3

$$$$
MHMHNRBLDMQEKR-XMMPIXPANA-N
     RDKit          3D

 54 58  0  0  0  0  0  0  0  0999 V2000
  139.8160   75.1970  222.5760 O   0  0  0  0  0  0  0  0  0  0  0  0
  138.6310   75.2510  221.6510 S   0  0  0  0  0  0  0  0  0  0  0  0
  137.3950   74.8810  222.4230 O   0  0  0  0  0  0  0  0  0  0  0  0
  138.4500   76.9230  221.0470 C   0  0  0  0  0  0  0  0  0  0  0  0
  139.5250   77.8050  221.6150 C   0  0  0  0  0  0  0  0  0  0  0  0
  139.4610   78.2260  222.9520 C   0  0  0  0  0  0  0  0  0  0  0  0
  140.4410   79.0760  223.4720 C   0  0  0  0  0  0  0  0  0  0  0  0
  141.5070   79.5110  222.6670 C   0  0  0  0  0  0  0  0  0  0  0  0
  142.5350   80.4700  223.2140 C   0  0  0  0  0  0  0  0  0  0  0  0
  143.7910   80.1780  222.7120 F   0  0  0  0  0  0  0  0  0  0  0  0
  142.5910   80.3900  224.5940 F   0  0  0  0  0  0  0  0  0  0  0  0
  142.1930   81.7590  222.8500 F   0  0  0  0  0  0  0  0  0  0  0  0
  141.5470   79.1190  221.3180 C   0  0  0  0  0  0  0  0  0  0  0  0
  140.5670   78.2690  220.7980 C   0  0  0  0  0  0  0  0  0  0  0  0
  138.8610   74.1580  220.2880 N   0  0  0  0  0  0  0  0  0  0  0  0
  137.6170   73.3870  220.0190 C   0  0  0  0  0  0  0  0  0  0  0  0
  137.5650   71.9660  220.6610 C   0  0  0  0  0  0  0  0  0  0  0  0
  138.5600   71.7810  221.7810 C   0  0  0  0  0  0  0  0  0  0  0  0
  138.2440   70.9960  222.9000 C   0  0  0  0  0  0  0  0  0  0  0  0
  139.1380   70.9080  223.9680 C   0  0  0  0  0  0  0  0  0  0  0  0
  140.3390   71.6200  223.9340 C   0  0  0  0  0  0  0  0  0  0  0  0
  140.6690   72.3910  222.8170 C   0  0  0  0  0  0  0  0  0  0  0  0
  139.8100   72.4210  221.6990 C   0  0  0  0  0  0  0  0  0  0  0  0
  140.0270   73.2620  220.4520 C   0  0  2  0  0  0  0  0  0  0  0  0
  141.3680   73.9700  220.3010 C   0  0  0  0  0  0  0  0  0  0  0  0
  141.5630   75.3500  220.4130 C   0  0  0  0  0  0  0  0  0  0  0  0
  142.8770   75.6590  220.4220 N   0  0  0  0  0  0  0  0  0  0  0  0
  143.5320   74.4900  220.3850 C   0  0  0  0  0  0  0  0  0  0  0  0
  144.9120   74.3070  220.4600 C   0  0  0  0  0  0  0  0  0  0  0  0
  145.4010   72.9910  220.5080 C   0  0  0  0  0  0  0  0  0  0  0  0
  144.5080   71.9010  220.5080 C   0  0  0  0  0  0  0  0  0  0  0  0
  143.1200   72.1140  220.4450 C   0  0  0  0  0  0  0  0  0  0  0  0
  142.6540   73.4310  220.3500 C   0  0  0  0  0  0  0  0  0  0  0  0
  138.5246   76.9218  219.9495 H   0  0  0  0  0  0  0  0  0  0  0  0
  137.4690   77.3105  221.3591 H   0  0  0  0  0  0  0  0  0  0  0  0
  138.6354   77.8853  223.5941 H   0  0  0  0  0  0  0  0  0  0  0  0
  140.3772   79.4068  224.5191 H   0  0  0  0  0  0  0  0  0  0  0  0
  142.3551   79.4837  220.6669 H   0  0  0  0  0  0  0  0  0  0  0  0
  140.6129   77.9622  219.7427 H   0  0  0  0  0  0  0  0  0  0  0  0
  136.7665   73.9670  220.4066 H   0  0  0  0  0  0  0  0  0  0  0  0
  137.5830   73.2319  218.9305 H   0  0  0  0  0  0  0  0  0  0  0  0
  136.5538   71.8003  221.0611 H   0  0  0  0  0  0  0  0  0  0  0  0
  137.8223   71.2426  219.8733 H   0  0  0  0  0  0  0  0  0  0  0  0
  137.2903   70.4491  222.9356 H   0  0  0  0  0  0  0  0  0  0  0  0
  138.8967   70.2778  224.8367 H   0  0  0  0  0  0  0  0  0  0  0  0
  141.0278   71.5734  224.7904 H   0  0  0  0  0  0  0  0  0  0  0  0
  141.6006   72.9758  222.8094 H   0  0  0  0  0  0  0  0  0  0  0  0
  140.0968   72.5529  219.6140 H   0  0  0  0  0  0  0  0  0  0  0  0
  140.7508   76.0883  220.4845 H   0  0  0  0  0  0  0  0  0  0  0  0
  143.2930   76.6130  220.5100 H   0  0  0  0  0  0  0  0  0  0  0  0
  145.5973   75.1672  220.4810 H   0  0  0  0  0  0  0  0  0  0  0  0
  146.4855   72.8106  220.5457 H   0  0  0  0  0  0  0  0  0  0  0  0
  144.9004   70.8746  220.5577 H   0  0  0  0  0  0  0  0  0  0  0  0
  142.4178   71.2677  220.4697 H   0  0  0  0  0  0  0  0  0  0  0  0
  1  2  2  0
  2  3  2  0
  2  4  1  0
  4  5  1  0
  5  6  2  0
  6  7  1  0
  7  8  2  0
  8  9  1  0
  9 10  1  0
  9 11  1  0
  9 12  1  0
  8 13  1  0
 13 14  2  0
  2 15  1  0
 15 16  1  0
 16 17  1  0
 17 18  1  0
 18 19  2  0
 19 20  1  0
 20 21  2  0
 21 22  1  0
 22 23  2  0
 23 24  1  0
 24 25  1  0
 25 26  2  0
 26 27  1  0
 27 28  1  0
 28 29  2  0
 29 30  1  0
 30 31  2  0
 31 32  1  0
 32 33  2  0
 14  5  1  0
 24 15  1  0
 33 25  1  0
 23 18  1  0
 33 28  1  0
  4 34  1  0
  4 35  1  0
  6 36  1  0
  7 37  1  0
 13 38  1  0
 14 39  1  0
 16 40  1  0
 16 41  1  0
 17 42  1  0
 17 43  1  0
 19 44  1  0
 20 45  1  0
 21 46  1  0
 22 47  1  0
 24 48  1  6
 26 49  1  0
 27 50  1  0
 29 51  1  0
 30 52  1  0
 31 53  1  0
 32 54  1  0
M  END
>  <UniqueID>  (37) 
190

>  <SMILES>  (37) 
O=S(=O)(Cc1ccc(C(F)(F)F)cc1)N1CCc2ccccc2[C@@H]1c1c[nH]c2ccccc12

>  <Energy>  (37) 
98.03035976018789

>  <Genealogy>  (37) 
O=S(=O)(Cc1ccc(C(F)(F)F)cc1)N1CCc2ccccc2[C@@H]1c1c[nH]c2ccccc12 (3D coordinates assigned)
O=S(=O)(Cc1ccc(C(F)(F)F)cc1)N1CCc2ccccc2[C@@H]1c1c[nH]c2ccccc12 (nonaromatic ring conformer: 98.03035976018789 kcal/mol)

>  <smiles>  (37) 
O=S(=O)(Cc1ccc(C(F)(F)F)cc1)N1CCc2ccccc2[C@@H]1c1c[nH]c2ccccc12

>  <score_type>  (37) 
oracle

>  <origin>  (37) 
autodockgpu

>  <m_score__min__energy>  (37) 
-7.4100000000000001

>  <m_primary>  (37) 
energy

>  <meeko>  (37) 
{"free_energy": -7.41, "intermolecular_energy": -8.9, "internal_energy": -2.01, "cluster_size": 9, "cluster_id": 1, "rank_in_cluster": 1}

>  <energy>  (37) 
-6.43

>  <cluster_rmsd>  (37) 
0.88

>  <rmsd>  (37) 
271.56

>  <cluster>  (37) 
3

$$$$
MHMHNRBLDMQEKR-XMMPIXPANA-N
     RDKit          3D

 54 58  0  0  0  0  0  0  0  0999 V2000
  142.1610   75.2500  221.5980 O   0  0  0  0  0  0  0  0  0  0  0  0
  140.7960   74.8380  221.1180 S   0  0  0  0  0  0  0  0  0  0  0  0
  140.3000   73.7080  221.9780 O   0  0  0  0  0  0  0  0  0  0  0  0
  139.6810   76.2240  221.2950 C   0  0  0  0  0  0  0  0  0  0  0  0
  140.4240   77.4330  221.7890 C   0  0  0  0  0  0  0  0  0  0  0  0
  141.0620   77.4080  223.0390 C   0  0  0  0  0  0  0  0  0  0  0  0
  141.7220   78.5430  223.5170 C   0  0  0  0  0  0  0  0  0  0  0  0
  141.7630   79.7200  222.7500 C   0  0  0  0  0  0  0  0  0  0  0  0
  142.4300   80.9600  223.2880 C   0  0  0  0  0  0  0  0  0  0  0  0
  143.7960   80.7710  223.4010 F   0  0  0  0  0  0  0  0  0  0  0  0
  141.9320   81.2770  224.5400 F   0  0  0  0  0  0  0  0  0  0  0  0
  142.1910   82.0150  222.4280 F   0  0  0  0  0  0  0  0  0  0  0  0
  141.0890   79.7530  221.5170 C   0  0  0  0  0  0  0  0  0  0  0  0
  140.4300   78.6170  221.0380 C   0  0  0  0  0  0  0  0  0  0  0  0
  140.8570   74.3490  219.4270 N   0  0  0  0  0  0  0  0  0  0  0  0
  140.6420   72.8820  219.2970 C   0  0  0  0  0  0  0  0  0  0  0  0
  141.9420   72.0260  219.1980 C   0  0  0  0  0  0  0  0  0  0  0  0
  143.1740   72.7540  219.6800 C   0  0  0  0  0  0  0  0  0  0  0  0
  144.1960   72.0690  220.3520 C   0  0  0  0  0  0  0  0  0  0  0  0
  145.2850   72.7710  220.8710 C   0  0  0  0  0  0  0  0  0  0  0  0
  145.3480   74.1600  220.7420 C   0  0  0  0  0  0  0  0  0  0  0  0
  144.3410   74.8490  220.0600 C   0  0  0  0  0  0  0  0  0  0  0  0
  143.2790   74.1400  219.4610 C   0  0  0  0  0  0  0  0  0  0  0  0
  142.0990   74.7750  218.7440 C   0  0  2  0  0  0  0  0  0  0  0  0
  142.1620   76.2720  218.4670 C   0  0  0  0  0  0  0  0  0  0  0  0
  143.3190   76.9770  218.1260 C   0  0  0  0  0  0  0  0  0  0  0  0
  143.0300   78.2420  217.7550 N   0  0  0  0  0  0  0  0  0  0  0  0
  141.6940   78.3410  217.7900 C   0  0  0  0  0  0  0  0  0  0  0  0
  140.9320   79.4450  217.4070 C   0  0  0  0  0  0  0  0  0  0  0  0
  139.5340   79.3160  217.4190 C   0  0  0  0  0  0  0  0  0  0  0  0
  138.9360   78.0930  217.7830 C   0  0  0  0  0  0  0  0  0  0  0  0
  139.7280   76.9920  218.1530 C   0  0  0  0  0  0  0  0  0  0  0  0
  141.1190   77.1540  218.1800 C   0  0  0  0  0  0  0  0  0  0  0  0
  139.2270   76.4511  220.3191 H   0  0  0  0  0  0  0  0  0  0  0  0
  138.8993   75.9628  222.0235 H   0  0  0  0  0  0  0  0  0  0  0  0
  141.0423   76.4904  223.6453 H   0  0  0  0  0  0  0  0  0  0  0  0
  142.2131   78.5151  224.5009 H   0  0  0  0  0  0  0  0  0  0  0  0
  141.0800   80.6797  220.9245 H   0  0  0  0  0  0  0  0  0  0  0  0
  139.9137   78.6522  220.0673 H   0  0  0  0  0  0  0  0  0  0  0  0
  140.0768   72.5417  220.1772 H   0  0  0  0  0  0  0  0  0  0  0  0
  140.1070   72.7351  218.3472 H   0  0  0  0  0  0  0  0  0  0  0  0
  141.8108   71.1199  219.8077 H   0  0  0  0  0  0  0  0  0  0  0  0
  142.0973   71.7908  218.1347 H   0  0  0  0  0  0  0  0  0  0  0  0
  144.1396   70.9768  220.4704 H   0  0  0  0  0  0  0  0  0  0  0  0
  146.0946   72.2295  221.3822 H   0  0  0  0  0  0  0  0  0  0  0  0
  146.1925   74.7136  221.1783 H   0  0  0  0  0  0  0  0  0  0  0  0
  144.3769   75.9462  219.9903 H   0  0  0  0  0  0  0  0  0  0  0  0
  142.1284   74.3949  217.7122 H   0  0  0  0  0  0  0  0  0  0  0  0
  144.3345   76.5554  218.1561 H   0  0  0  0  0  0  0  0  0  0  0  0
  143.7100   78.9710  217.4410 H   0  0  0  0  0  0  0  0  0  0  0  0
  141.4117   80.3876  217.1049 H   0  0  0  0  0  0  0  0  0  0  0  0
  138.9026   80.1735  217.1430 H   0  0  0  0  0  0  0  0  0  0  0  0
  137.8400   77.9990  217.7776 H   0  0  0  0  0  0  0  0  0  0  0  0
  139.2671   76.0281  218.4146 H   0  0  0  0  0  0  0  0  0  0  0  0
  1  2  2  0
  2  3  2  0
  2  4  1  0
  4  5  1  0
  5  6  2  0
  6  7  1  0
  7  8  2  0
  8  9  1  0
  9 10  1  0
  9 11  1  0
  9 12  1  0
  8 13  1  0
 13 14  2  0
  2 15  1  0
 15 16  1  0
 16 17  1  0
 17 18  1  0
 18 19  2  0
 19 20  1  0
 20 21  2  0
 21 22  1  0
 22 23  2  0
 23 24  1  0
 24 25  1  0
 25 26  2  0
 26 27  1  0
 27 28  1  0
 28 29  2  0
 29 30  1  0
 30 31  2  0
 31 32  1  0
 32 33  2  0
 14  5  1  0
 24 15  1  0
 33 25  1  0
 23 18  1  0
 33 28  1  0
  4 34  1  0
  4 35  1  0
  6 36  1  0
  7 37  1  0
 13 38  1  0
 14 39  1  0
 16 40  1  0
 16 41  1  0
 17 42  1  0
 17 43  1  0
 19 44  1  0
 20 45  1  0
 21 46  1  0
 22 47  1  0
 24 48  1  6
 26 49  1  0
 27 50  1  0
 29 51  1  0
 30 52  1  0
 31 53  1  0
 32 54  1  0
M  END
>  <UniqueID>  (38) 
190

>  <SMILES>  (38) 
O=S(=O)(Cc1ccc(C(F)(F)F)cc1)N1CCc2ccccc2[C@@H]1c1c[nH]c2ccccc12

>  <Energy>  (38) 
98.03035976018789

>  <Genealogy>  (38) 
O=S(=O)(Cc1ccc(C(F)(F)F)cc1)N1CCc2ccccc2[C@@H]1c1c[nH]c2ccccc12 (3D coordinates assigned)
O=S(=O)(Cc1ccc(C(F)(F)F)cc1)N1CCc2ccccc2[C@@H]1c1c[nH]c2ccccc12 (nonaromatic ring conformer: 98.03035976018789 kcal/mol)

>  <smiles>  (38) 
O=S(=O)(Cc1ccc(C(F)(F)F)cc1)N1CCc2ccccc2[C@@H]1c1c[nH]c2ccccc12

>  <score_type>  (38) 
oracle

>  <origin>  (38) 
autodockgpu

>  <m_score__min__energy>  (38) 
-7.4100000000000001

>  <m_primary>  (38) 
energy

>  <meeko>  (38) 
{"free_energy": -7.12, "intermolecular_energy": -8.61, "internal_energy": -2.23, "cluster_size": 4, "cluster_id": 2, "rank_in_cluster": 1}

>  <energy>  (38) 
-6.43

>  <cluster_rmsd>  (38) 
0.88

>  <rmsd>  (38) 
271.57

>  <cluster>  (38) 
3

$$$$
MHMHNRBLDMQEKR-XMMPIXPANA-N
     RDKit          3D

 54 58  0  0  0  0  0  0  0  0999 V2000
  139.1880   77.0060  219.6650 O   0  0  0  0  0  0  0  0  0  0  0  0
  140.5590   76.7110  219.1200 S   0  0  0  0  0  0  0  0  0  0  0  0
  140.4860   75.4750  218.2670 O   0  0  0  0  0  0  0  0  0  0  0  0
  141.0790   78.0820  218.0980 C   0  0  0  0  0  0  0  0  0  0  0  0
  140.8770   79.3820  218.8240 C   0  0  0  0  0  0  0  0  0  0  0  0
  141.9800   80.0920  219.3210 C   0  0  0  0  0  0  0  0  0  0  0  0
  141.7920   81.2830  220.0300 C   0  0  0  0  0  0  0  0  0  0  0  0
  140.4980   81.7880  220.2440 C   0  0  0  0  0  0  0  0  0  0  0  0
  140.2930   83.0440  221.0520 C   0  0  0  0  0  0  0  0  0  0  0  0
  139.2680   82.8740  221.9670 F   0  0  0  0  0  0  0  0  0  0  0  0
  139.9660   84.1070  220.2280 F   0  0  0  0  0  0  0  0  0  0  0  0
  141.4580   83.3430  221.7320 F   0  0  0  0  0  0  0  0  0  0  0  0
  139.3940   81.0530  219.7790 C   0  0  0  0  0  0  0  0  0  0  0  0
  139.5820   79.8630  219.0700 C   0  0  0  0  0  0  0  0  0  0  0  0
  141.7120   76.4910  220.4340 N   0  0  0  0  0  0  0  0  0  0  0  0
  142.5860   75.3150  220.1720 C   0  0  0  0  0  0  0  0  0  0  0  0
  142.1340   73.9860  220.8530 C   0  0  0  0  0  0  0  0  0  0  0  0
  140.6890   74.0020  221.2900 C   0  0  0  0  0  0  0  0  0  0  0  0
  139.9050   72.8410  221.2200 C   0  0  0  0  0  0  0  0  0  0  0  0
  138.5480   72.8930  221.5420 C   0  0  0  0  0  0  0  0  0  0  0  0
  137.9630   74.1070  221.9110 C   0  0  0  0  0  0  0  0  0  0  0  0
  138.7400   75.2640  221.9980 C   0  0  0  0  0  0  0  0  0  0  0  0
  140.1270   75.2050  221.7550 C   0  0  0  0  0  0  0  0  0  0  0  0
  141.0680   76.4000  221.7630 C   0  0  2  0  0  0  0  0  0  0  0  0
  140.5200   77.7280  222.2690 C   0  0  0  0  0  0  0  0  0  0  0  0
  139.2070   77.9440  222.6960 C   0  0  0  0  0  0  0  0  0  0  0  0
  139.0710   79.1600  223.2650 N   0  0  0  0  0  0  0  0  0  0  0  0
  140.2950   79.7050  223.2690 C   0  0  0  0  0  0  0  0  0  0  0  0
  140.6590   80.9280  223.8320 C   0  0  0  0  0  0  0  0  0  0  0  0
  142.0190   81.2780  223.8230 C   0  0  0  0  0  0  0  0  0  0  0  0
  142.9770   80.3970  223.2830 C   0  0  0  0  0  0  0  0  0  0  0  0
  142.5840   79.1650  222.7330 C   0  0  0  0  0  0  0  0  0  0  0  0
  141.2180   78.8540  222.7070 C   0  0  0  0  0  0  0  0  0  0  0  0
  142.1447   77.9664  217.8511 H   0  0  0  0  0  0  0  0  0  0  0  0
  140.4767   78.0898  217.1776 H   0  0  0  0  0  0  0  0  0  0  0  0
  142.9978   79.7103  219.1523 H   0  0  0  0  0  0  0  0  0  0  0  0
  142.6630   81.8281  220.4228 H   0  0  0  0  0  0  0  0  0  0  0  0
  138.3745   81.4168  219.9744 H   0  0  0  0  0  0  0  0  0  0  0  0
  138.7105   79.3009  218.7032 H   0  0  0  0  0  0  0  0  0  0  0  0
  142.6146   75.1478  219.0852 H   0  0  0  0  0  0  0  0  0  0  0  0
  143.5668   75.5614  220.6049 H   0  0  0  0  0  0  0  0  0  0  0  0
  142.2737   73.1619  220.1379 H   0  0  0  0  0  0  0  0  0  0  0  0
  142.7471   73.8576  221.7572 H   0  0  0  0  0  0  0  0  0  0  0  0
  140.3602   71.8885  220.9110 H   0  0  0  0  0  0  0  0  0  0  0  0
  137.9388   71.9778  221.5053 H   0  0  0  0  0  0  0  0  0  0  0  0
  136.8867   74.1515  222.1337 H   0  0  0  0  0  0  0  0  0  0  0  0
  138.2685   76.2235  222.2568 H   0  0  0  0  0  0  0  0  0  0  0  0
  141.8130   76.1974  222.5465 H   0  0  0  0  0  0  0  0  0  0  0  0
  138.3897   77.2165  222.5829 H   0  0  0  0  0  0  0  0  0  0  0  0
  138.1990   79.5620  223.6770 H   0  0  0  0  0  0  0  0  0  0  0  0
  139.9041   81.5978  224.2696 H   0  0  0  0  0  0  0  0  0  0  0  0
  142.3380   82.2448  224.2396 H   0  0  0  0  0  0  0  0  0  0  0  0
  144.0410   80.6759  223.2921 H   0  0  0  0  0  0  0  0  0  0  0  0
  143.3299   78.4625  222.3330 H   0  0  0  0  0  0  0  0  0  0  0  0
  1  2  2  0
  2  3  2  0
  2  4  1  0
  4  5  1  0
  5  6  2  0
  6  7  1  0
  7  8  2  0
  8  9  1  0
  9 10  1  0
  9 11  1  0
  9 12  1  0
  8 13  1  0
 13 14  2  0
  2 15  1  0
 15 16  1  0
 16 17  1  0
 17 18  1  0
 18 19  2  0
 19 20  1  0
 20 21  2  0
 21 22  1  0
 22 23  2  0
 23 24  1  0
 24 25  1  0
 25 26  2  0
 26 27  1  0
 27 28  1  0
 28 29  2  0
 29 30  1  0
 30 31  2  0
 31 32  1  0
 32 33  2  0
 14  5  1  0
 24 15  1  0
 33 25  1  0
 23 18  1  0
 33 28  1  0
  4 34  1  0
  4 35  1  0
  6 36  1  0
  7 37  1  0
 13 38  1  0
 14 39  1  0
 16 40  1  0
 16 41  1  0
 17 42  1  0
 17 43  1  0
 19 44  1  0
 20 45  1  0
 21 46  1  0
 22 47  1  0
 24 48  1  1
 26 49  1  0
 27 50  1  0
 29 51  1  0
 30 52  1  0
 31 53  1  0
 32 54  1  0
M  END
>  <UniqueID>  (39) 
190

>  <SMILES>  (39) 
O=S(=O)(Cc1ccc(C(F)(F)F)cc1)N1CCc2ccccc2[C@@H]1c1c[nH]c2ccccc12

>  <Energy>  (39) 
98.03035976018789

>  <Genealogy>  (39) 
O=S(=O)(Cc1ccc(C(F)(F)F)cc1)N1CCc2ccccc2[C@@H]1c1c[nH]c2ccccc12 (3D coordinates assigned)
O=S(=O)(Cc1ccc(C(F)(F)F)cc1)N1CCc2ccccc2[C@@H]1c1c[nH]c2ccccc12 (nonaromatic ring conformer: 98.03035976018789 kcal/mol)

>  <smiles>  (39) 
O=S(=O)(Cc1ccc(C(F)(F)F)cc1)N1CCc2ccccc2[C@@H]1c1c[nH]c2ccccc12

>  <score_type>  (39) 
oracle

>  <origin>  (39) 
autodockgpu

>  <m_score__min__energy>  (39) 
-7.4100000000000001

>  <m_primary>  (39) 
energy

>  <meeko>  (39) 
{"free_energy": -6.44, "intermolecular_energy": -7.93, "internal_energy": -2.87, "cluster_size": 7, "cluster_id": 3, "rank_in_cluster": 2}

>  <energy>  (39) 
-6.43

>  <cluster_rmsd>  (39) 
0.88

>  <rmsd>  (39) 
271.56

>  <cluster>  (39) 
3

$$$$
MHMHNRBLDMQEKR-XMMPIXPANA-N
     RDKit          3D

 54 58  0  0  0  0  0  0  0  0999 V2000
  139.8500   75.2530  222.5140 O   0  0  0  0  0  0  0  0  0  0  0  0
  138.6560   75.2610  221.5980 S   0  0  0  0  0  0  0  0  0  0  0  0
  137.4350   74.8840  222.3900 O   0  0  0  0  0  0  0  0  0  0  0  0
  138.4350   76.9150  220.9570 C   0  0  0  0  0  0  0  0  0  0  0  0
  139.4650   77.8430  221.5370 C   0  0  0  0  0  0  0  0  0  0  0  0
  140.5460   78.2760  220.7550 C   0  0  0  0  0  0  0  0  0  0  0  0
  141.5250   79.1090  221.3030 C   0  0  0  0  0  0  0  0  0  0  0  0
  141.4340   79.5310  222.6400 C   0  0  0  0  0  0  0  0  0  0  0  0
  142.5180   80.3870  223.2460 C   0  0  0  0  0  0  0  0  0  0  0  0
  143.7310   80.1520  222.6250 F   0  0  0  0  0  0  0  0  0  0  0  0
  142.6610   80.1110  224.5950 F   0  0  0  0  0  0  0  0  0  0  0  0
  142.1840   81.7200  223.0920 F   0  0  0  0  0  0  0  0  0  0  0  0
  140.3720   79.0630  223.4320 C   0  0  0  0  0  0  0  0  0  0  0  0
  139.3920   78.2300  222.8830 C   0  0  0  0  0  0  0  0  0  0  0  0
  138.8970   74.1420  220.2590 N   0  0  0  0  0  0  0  0  0  0  0  0
  137.6590   73.3580  220.0030 C   0  0  0  0  0  0  0  0  0  0  0  0
  137.6130   71.9500  220.6740 C   0  0  0  0  0  0  0  0  0  0  0  0
  138.6060   71.7940  221.8000 C   0  0  0  0  0  0  0  0  0  0  0  0
  138.2910   71.0300  222.9340 C   0  0  0  0  0  0  0  0  0  0  0  0
  139.1830   70.9700  224.0060 C   0  0  0  0  0  0  0  0  0  0  0  0
  140.3790   71.6890  223.9620 C   0  0  0  0  0  0  0  0  0  0  0  0
  140.7080   72.4390  222.8300 C   0  0  0  0  0  0  0  0  0  0  0  0
  139.8520   72.4410  221.7100 C   0  0  0  0  0  0  0  0  0  0  0  0
  140.0690   73.2570  220.4460 C   0  0  2  0  0  0  0  0  0  0  0  0
  141.4050   73.9700  220.2840 C   0  0  0  0  0  0  0  0  0  0  0  0
  141.5950   75.3510  220.3850 C   0  0  0  0  0  0  0  0  0  0  0  0
  142.9070   75.6660  220.3870 N   0  0  0  0  0  0  0  0  0  0  0  0
  143.5670   74.5000  220.3570 C   0  0  0  0  0  0  0  0  0  0  0  0
  144.9490   74.3240  220.4270 C   0  0  0  0  0  0  0  0  0  0  0  0
  145.4440   73.0110  220.4840 C   0  0  0  0  0  0  0  0  0  0  0  0
  144.5560   71.9170  220.4960 C   0  0  0  0  0  0  0  0  0  0  0  0
  143.1670   72.1230  220.4360 C   0  0  0  0  0  0  0  0  0  0  0  0
  142.6940   73.4370  220.3330 C   0  0  0  0  0  0  0  0  0  0  0  0
  138.5393   76.8964  219.8621 H   0  0  0  0  0  0  0  0  0  0  0  0
  137.4334   77.2748  221.2350 H   0  0  0  0  0  0  0  0  0  0  0  0
  140.6235   77.9581  219.7048 H   0  0  0  0  0  0  0  0  0  0  0  0
  142.3727   79.4366  220.6833 H   0  0  0  0  0  0  0  0  0  0  0  0
  140.3110   79.3538  224.4911 H   0  0  0  0  0  0  0  0  0  0  0  0
  138.5600   77.8767  223.5098 H   0  0  0  0  0  0  0  0  0  0  0  0
  136.8040   73.9408  220.3762 H   0  0  0  0  0  0  0  0  0  0  0  0
  137.6296   73.1799  218.9179 H   0  0  0  0  0  0  0  0  0  0  0  0
  136.6017   71.7868  221.0749 H   0  0  0  0  0  0  0  0  0  0  0  0
  137.8762   71.2118  219.9021 H   0  0  0  0  0  0  0  0  0  0  0  0
  137.3405   70.4780  222.9782 H   0  0  0  0  0  0  0  0  0  0  0  0
  138.9434   70.3556  224.8864 H   0  0  0  0  0  0  0  0  0  0  0  0
  141.0648   71.6649  224.8217 H   0  0  0  0  0  0  0  0  0  0  0  0
  141.6364   73.0288  222.8127 H   0  0  0  0  0  0  0  0  0  0  0  0
  140.1475   72.5305  219.6238 H   0  0  0  0  0  0  0  0  0  0  0  0
  140.7799   76.0864  220.4540 H   0  0  0  0  0  0  0  0  0  0  0  0
  143.3190   76.6230  220.4660 H   0  0  0  0  0  0  0  0  0  0  0  0
  145.6304   75.1875  220.4373 H   0  0  0  0  0  0  0  0  0  0  0  0
  146.5294   72.8359  220.5194 H   0  0  0  0  0  0  0  0  0  0  0  0
  144.9533   70.8928  220.5528 H   0  0  0  0  0  0  0  0  0  0  0  0
  142.4690   71.2734  220.4691 H   0  0  0  0  0  0  0  0  0  0  0  0
  1  2  2  0
  2  3  2  0
  2  4  1  0
  4  5  1  0
  5  6  2  0
  6  7  1  0
  7  8  2  0
  8  9  1  0
  9 10  1  0
  9 11  1  0
  9 12  1  0
  8 13  1  0
 13 14  2  0
  2 15  1  0
 15 16  1  0
 16 17  1  0
 17 18  1  0
 18 19  2  0
 19 20  1  0
 20 21  2  0
 21 22  1  0
 22 23  2  0
 23 24  1  0
 24 25  1  0
 25 26  2  0
 26 27  1  0
 27 28  1  0
 28 29  2  0
 29 30  1  0
 30 31  2  0
 31 32  1  0
 32 33  2  0
 14  5  1  0
 24 15  1  0
 33 25  1  0
 23 18  1  0
 33 28  1  0
  4 34  1  0
  4 35  1  0
  6 36  1  0
  7 37  1  0
 13 38  1  0
 14 39  1  0
 16 40  1  0
 16 41  1  0
 17 42  1  0
 17 43  1  0
 19 44  1  0
 20 45  1  0
 21 46  1  0
 22 47  1  0
 24 48  1  6
 26 49  1  0
 27 50  1  0
 29 51  1  0
 30 52  1  0
 31 53  1  0
 32 54  1  0
M  END
>  <UniqueID>  (40) 
190

>  <SMILES>  (40) 
O=S(=O)(Cc1ccc(C(F)(F)F)cc1)N1CCc2ccccc2[C@@H]1c1c[nH]c2ccccc12

>  <Energy>  (40) 
98.03035976018789

>  <Genealogy>  (40) 
O=S(=O)(Cc1ccc(C(F)(F)F)cc1)N1CCc2ccccc2[C@@H]1c1c[nH]c2ccccc12 (3D coordinates assigned)
O=S(=O)(Cc1ccc(C(F)(F)F)cc1)N1CCc2ccccc2[C@@H]1c1c[nH]c2ccccc12 (nonaromatic ring conformer: 98.03035976018789 kcal/mol)

>  <smiles>  (40) 
O=S(=O)(Cc1ccc(C(F)(F)F)cc1)N1CCc2ccccc2[C@@H]1c1c[nH]c2ccccc12

>  <score_type>  (40) 
oracle

>  <origin>  (40) 
autodockgpu

>  <m_score__min__energy>  (40) 
-7.4100000000000001

>  <m_primary>  (40) 
energy

>  <meeko>  (40) 
{"free_energy": -7.34, "intermolecular_energy": -8.83, "internal_energy": -2.02, "cluster_size": 9, "cluster_id": 1, "rank_in_cluster": 7}

>  <energy>  (40) 
-6.42

>  <cluster_rmsd>  (40) 
0.88

>  <rmsd>  (40) 
271.56

>  <cluster>  (40) 
3

$$$$
MHMHNRBLDMQEKR-XMMPIXPANA-N
     RDKit          3D

 54 58  0  0  0  0  0  0  0  0999 V2000
  142.1590   75.2610  221.5820 O   0  0  0  0  0  0  0  0  0  0  0  0
  140.8040   74.8010  221.1180 S   0  0  0  0  0  0  0  0  0  0  0  0
  140.3420   73.6790  222.0070 O   0  0  0  0  0  0  0  0  0  0  0  0
  139.6530   76.1600  221.2670 C   0  0  0  0  0  0  0  0  0  0  0  0
  140.3660   77.4020  221.7200 C   0  0  0  0  0  0  0  0  0  0  0  0
  141.0420   77.4210  222.9490 C   0  0  0  0  0  0  0  0  0  0  0  0
  141.6750   78.5870  223.3900 C   0  0  0  0  0  0  0  0  0  0  0  0
  141.6510   79.7510  222.6030 C   0  0  0  0  0  0  0  0  0  0  0  0
  142.2890   81.0230  223.1020 C   0  0  0  0  0  0  0  0  0  0  0  0
  141.6770   81.4530  224.2660 F   0  0  0  0  0  0  0  0  0  0  0  0
  142.1770   82.0280  222.1580 F   0  0  0  0  0  0  0  0  0  0  0  0
  143.6280   80.7910  223.3560 F   0  0  0  0  0  0  0  0  0  0  0  0
  140.9390   79.7400  221.3910 C   0  0  0  0  0  0  0  0  0  0  0  0
  140.3070   78.5740  220.9510 C   0  0  0  0  0  0  0  0  0  0  0  0
  140.8710   74.2730  219.4380 N   0  0  0  0  0  0  0  0  0  0  0  0
  140.6660   72.8020  219.3430 C   0  0  0  0  0  0  0  0  0  0  0  0
  141.9720   71.9530  219.2660 C   0  0  0  0  0  0  0  0  0  0  0  0
  143.1980   72.7010  219.7320 C   0  0  0  0  0  0  0  0  0  0  0  0
  144.2240   72.0380  220.4220 C   0  0  0  0  0  0  0  0  0  0  0  0
  145.3070   72.7600  220.9260 C   0  0  0  0  0  0  0  0  0  0  0  0
  145.3600   74.1460  220.7640 C   0  0  0  0  0  0  0  0  0  0  0  0
  144.3500   74.8110  220.0650 C   0  0  0  0  0  0  0  0  0  0  0  0
  143.2940   74.0820  219.4820 C   0  0  0  0  0  0  0  0  0  0  0  0
  142.1110   74.6920  218.7480 C   0  0  2  0  0  0  0  0  0  0  0  0
  142.1640   76.1820  218.4360 C   0  0  0  0  0  0  0  0  0  0  0  0
  143.3160   76.8850  218.0740 C   0  0  0  0  0  0  0  0  0  0  0  0
  143.0180   78.1400  217.6750 N   0  0  0  0  0  0  0  0  0  0  0  0
  141.6820   78.2330  217.7130 C   0  0  0  0  0  0  0  0  0  0  0  0
  140.9110   79.3220  217.3090 C   0  0  0  0  0  0  0  0  0  0  0  0
  139.5140   79.1860  217.3300 C   0  0  0  0  0  0  0  0  0  0  0  0
  138.9250   77.9680  217.7250 C   0  0  0  0  0  0  0  0  0  0  0  0
  139.7250   76.8810  218.1160 C   0  0  0  0  0  0  0  0  0  0  0  0
  141.1150   77.0520  218.1340 C   0  0  0  0  0  0  0  0  0  0  0  0
  139.1844   76.3471  220.2895 H   0  0  0  0  0  0  0  0  0  0  0  0
  138.8853   75.8979  222.0099 H   0  0  0  0  0  0  0  0  0  0  0  0
  141.0743   76.5132  223.5694 H   0  0  0  0  0  0  0  0  0  0  0  0
  142.1952   78.5933  224.3592 H   0  0  0  0  0  0  0  0  0  0  0  0
  140.8789   80.6558  220.7846 H   0  0  0  0  0  0  0  0  0  0  0  0
  139.7603   78.5750  219.9965 H   0  0  0  0  0  0  0  0  0  0  0  0
  140.1020   72.4790  220.2305 H   0  0  0  0  0  0  0  0  0  0  0  0
  140.1330   72.6286  218.3965 H   0  0  0  0  0  0  0  0  0  0  0  0
  141.8463   71.0608  219.8970 H   0  0  0  0  0  0  0  0  0  0  0  0
  142.1305   71.6935  218.2089 H   0  0  0  0  0  0  0  0  0  0  0  0
  144.1749   70.9486  220.5659 H   0  0  0  0  0  0  0  0  0  0  0  0
  146.1196   72.2367  221.4513 H   0  0  0  0  0  0  0  0  0  0  0  0
  146.1998   74.7159  221.1882 H   0  0  0  0  0  0  0  0  0  0  0  0
  144.3788   75.9064  219.9693 H   0  0  0  0  0  0  0  0  0  0  0  0
  142.1453   74.2885  217.7252 H   0  0  0  0  0  0  0  0  0  0  0  0
  144.3340   76.4697  218.1095 H   0  0  0  0  0  0  0  0  0  0  0  0
  143.6920   78.8650  217.3410 H   0  0  0  0  0  0  0  0  0  0  0  0
  141.3835   80.2604  216.9833 H   0  0  0  0  0  0  0  0  0  0  0  0
  138.8766   80.0333  217.0371 H   0  0  0  0  0  0  0  0  0  0  0  0
  137.8296   77.8675  217.7272 H   0  0  0  0  0  0  0  0  0  0  0  0
  139.2712   75.9203  218.4007 H   0  0  0  0  0  0  0  0  0  0  0  0
  1  2  2  0
  2  3  2  0
  2  4  1  0
  4  5  1  0
  5  6  2  0
  6  7  1  0
  7  8  2  0
  8  9  1  0
  9 10  1  0
  9 11  1  0
  9 12  1  0
  8 13  1  0
 13 14  2  0
  2 15  1  0
 15 16  1  0
 16 17  1  0
 17 18  1  0
 18 19  2  0
 19 20  1  0
 20 21  2  0
 21 22  1  0
 22 23  2  0
 23 24  1  0
 24 25  1  0
 25 26  2  0
 26 27  1  0
 27 28  1  0
 28 29  2  0
 29 30  1  0
 30 31  2  0
 31 32  1  0
 32 33  2  0
 14  5  1  0
 24 15  1  0
 33 25  1  0
 23 18  1  0
 33 28  1  0
  4 34  1  0
  4 35  1  0
  6 36  1  0
  7 37  1  0
 13 38  1  0
 14 39  1  0
 16 40  1  0
 16 41  1  0
 17 42  1  0
 17 43  1  0
 19 44  1  0
 20 45  1  0
 21 46  1  0
 22 47  1  0
 24 48  1  6
 26 49  1  0
 27 50  1  0
 29 51  1  0
 30 52  1  0
 31 53  1  0
 32 54  1  0
M  END
>  <UniqueID>  (41) 
191

>  <SMILES>  (41) 
O=S(=O)(Cc1ccc(C(F)(F)F)cc1)N1CCc2ccccc2[C@@H]1c1c[nH]c2ccccc12

>  <Energy>  (41) 
98.23277094046774

>  <Genealogy>  (41) 
O=S(=O)(Cc1ccc(C(F)(F)F)cc1)N1CCc2ccccc2[C@@H]1c1c[nH]c2ccccc12 (3D coordinates assigned)
O=S(=O)(Cc1ccc(C(F)(F)F)cc1)N1CCc2ccccc2[C@@H]1c1c[nH]c2ccccc12 (nonaromatic ring conformer: 98.23277094046774 kcal/mol)

>  <smiles>  (41) 
O=S(=O)(Cc1ccc(C(F)(F)F)cc1)N1CCc2ccccc2[C@@H]1c1c[nH]c2ccccc12

>  <score_type>  (41) 
oracle

>  <origin>  (41) 
autodockgpu

>  <m_score__min__energy>  (41) 
-7.4100000000000001

>  <m_primary>  (41) 
energy

>  <meeko>  (41) 
{"free_energy": -7.08, "intermolecular_energy": -8.57, "internal_energy": -2.24, "cluster_size": 4, "cluster_id": 2, "rank_in_cluster": 4}

>  <energy>  (41) 
-7.41

>  <cluster_rmsd>  (41) 
0.0

>  <rmsd>  (41) 
271.29

>  <cluster>  (41) 
1

$$$$
MHMHNRBLDMQEKR-XMMPIXPANA-N
     RDKit          3D

 54 58  0  0  0  0  0  0  0  0999 V2000
  139.3220   76.8240  219.5750 O   0  0  0  0  0  0  0  0  0  0  0  0
  140.6640   76.7100  218.9060 S   0  0  0  0  0  0  0  0  0  0  0  0
  140.6800   75.4680  218.0600 O   0  0  0  0  0  0  0  0  0  0  0  0
  140.9000   78.1290  217.8460 C   0  0  0  0  0  0  0  0  0  0  0  0
  140.7840   79.4000  218.6380 C   0  0  0  0  0  0  0  0  0  0  0  0
  141.9360   80.0500  219.1050 C   0  0  0  0  0  0  0  0  0  0  0  0
  141.8290   81.2120  219.8750 C   0  0  0  0  0  0  0  0  0  0  0  0
  140.5680   81.7490  220.1820 C   0  0  0  0  0  0  0  0  0  0  0  0
  140.4510   82.9730  221.0550 C   0  0  0  0  0  0  0  0  0  0  0  0
  140.2500   84.1050  220.2850 F   0  0  0  0  0  0  0  0  0  0  0  0
  141.6040   83.1540  221.7980 F   0  0  0  0  0  0  0  0  0  0  0  0
  139.3800   82.8170  221.9150 F   0  0  0  0  0  0  0  0  0  0  0  0
  139.4140   81.0740  219.7460 C   0  0  0  0  0  0  0  0  0  0  0  0
  139.5220   79.9120  218.9760 C   0  0  0  0  0  0  0  0  0  0  0  0
  141.9520   76.6580  220.1080 N   0  0  0  0  0  0  0  0  0  0  0  0
  142.9420   75.6010  219.7690 C   0  0  0  0  0  0  0  0  0  0  0  0
  142.7300   74.2340  220.4910 C   0  0  0  0  0  0  0  0  0  0  0  0
  141.3410   74.0700  221.0600 C   0  0  0  0  0  0  0  0  0  0  0  0
  140.7110   72.8170  221.0640 C   0  0  0  0  0  0  0  0  0  0  0  0
  139.3930   72.6990  221.5100 C   0  0  0  0  0  0  0  0  0  0  0  0
  138.6920   73.8320  221.9300 C   0  0  0  0  0  0  0  0  0  0  0  0
  139.3180   75.0800  221.9430 C   0  0  0  0  0  0  0  0  0  0  0  0
  140.6730   75.1970  221.5730 C   0  0  0  0  0  0  0  0  0  0  0  0
  141.4480   76.5020  221.4910 C   0  0  2  0  0  0  0  0  0  0  0  0
  140.7820   77.7560  222.0440 C   0  0  0  0  0  0  0  0  0  0  0  0
  139.4350   77.8570  222.4020 C   0  0  0  0  0  0  0  0  0  0  0  0
  139.1820   79.0220  223.0350 N   0  0  0  0  0  0  0  0  0  0  0  0
  140.3640   79.6450  223.1480 C   0  0  0  0  0  0  0  0  0  0  0  0
  140.6100   80.8490  223.8060 C   0  0  0  0  0  0  0  0  0  0  0  0
  141.9410   81.2880  223.9030 C   0  0  0  0  0  0  0  0  0  0  0  0
  142.9860   80.5080  223.3690 C   0  0  0  0  0  0  0  0  0  0  0  0
  142.7110   79.2920  222.7210 C   0  0  0  0  0  0  0  0  0  0  0  0
  141.3750   78.8940  222.5930 C   0  0  0  0  0  0  0  0  0  0  0  0
  141.8989   78.0772  217.3882 H   0  0  0  0  0  0  0  0  0  0  0  0
  140.1253   78.1235  217.0651 H   0  0  0  0  0  0  0  0  0  0  0  0
  142.9292   79.6432  218.8640 H   0  0  0  0  0  0  0  0  0  0  0  0
  142.7387   81.7091  220.2429 H   0  0  0  0  0  0  0  0  0  0  0  0
  138.4200   81.4626  220.0124 H   0  0  0  0  0  0  0  0  0  0  0  0
  138.6128   79.3964  218.6333 H   0  0  0  0  0  0  0  0  0  0  0  0
  142.8925   75.4240  218.6845 H   0  0  0  0  0  0  0  0  0  0  0  0
  143.9180   75.9772  220.1095 H   0  0  0  0  0  0  0  0  0  0  0  0
  142.9089   73.4251  219.7673 H   0  0  0  0  0  0  0  0  0  0  0  0
  143.4349   74.1976  221.3347 H   0  0  0  0  0  0  0  0  0  0  0  0
  141.2553   71.9268  220.7157 H   0  0  0  0  0  0  0  0  0  0  0  0
  138.9062   71.7128  221.5306 H   0  0  0  0  0  0  0  0  0  0  0  0
  137.6440   73.7407  222.2514 H   0  0  0  0  0  0  0  0  0  0  0  0
  138.7521   75.9744  222.2428 H   0  0  0  0  0  0  0  0  0  0  0  0
  142.2816   76.4061  222.2023 H   0  0  0  0  0  0  0  0  0  0  0  0
  138.6781   77.0862  222.1946 H   0  0  0  0  0  0  0  0  0  0  0  0
  138.2630   79.3380  223.4170 H   0  0  0  0  0  0  0  0  0  0  0  0
  139.7866   81.4378  224.2364 H   0  0  0  0  0  0  0  0  0  0  0  0
  142.1682   82.2440  224.3975 H   0  0  0  0  0  0  0  0  0  0  0  0
  144.0261   80.8541  223.4603 H   0  0  0  0  0  0  0  0  0  0  0  0
  143.5254   78.6682  222.3240 H   0  0  0  0  0  0  0  0  0  0  0  0
  1  2  2  0
  2  3  2  0
  2  4  1  0
  4  5  1  0
  5  6  2  0
  6  7  1  0
  7  8  2  0
  8  9  1  0
  9 10  1  0
  9 11  1  0
  9 12  1  0
  8 13  1  0
 13 14  2  0
  2 15  1  0
 15 16  1  0
 16 17  1  0
 17 18  1  0
 18 19  2  0
 19 20  1  0
 20 21  2  0
 21 22  1  0
 22 23  2  0
 23 24  1  0
 24 25  1  0
 25 26  2  0
 26 27  1  0
 27 28  1  0
 28 29  2  0
 29 30  1  0
 30 31  2  0
 31 32  1  0
 32 33  2  0
 14  5  1  0
 24 15  1  0
 33 25  1  0
 23 18  1  0
 33 28  1  0
  4 34  1  0
  4 35  1  0
  6 36  1  0
  7 37  1  0
 13 38  1  0
 14 39  1  0
 16 40  1  0
 16 41  1  0
 17 42  1  0
 17 43  1  0
 19 44  1  0
 20 45  1  0
 21 46  1  0
 22 47  1  0
 24 48  1  1
 26 49  1  0
 27 50  1  0
 29 51  1  0
 30 52  1  0
 31 53  1  0
 32 54  1  0
M  END
>  <UniqueID>  (42) 
191

>  <SMILES>  (42) 
O=S(=O)(Cc1ccc(C(F)(F)F)cc1)N1CCc2ccccc2[C@@H]1c1c[nH]c2ccccc12

>  <Energy>  (42) 
98.23277094046774

>  <Genealogy>  (42) 
O=S(=O)(Cc1ccc(C(F)(F)F)cc1)N1CCc2ccccc2[C@@H]1c1c[nH]c2ccccc12 (3D coordinates assigned)
O=S(=O)(Cc1ccc(C(F)(F)F)cc1)N1CCc2ccccc2[C@@H]1c1c[nH]c2ccccc12 (nonaromatic ring conformer: 98.23277094046774 kcal/mol)

>  <smiles>  (42) 
O=S(=O)(Cc1ccc(C(F)(F)F)cc1)N1CCc2ccccc2[C@@H]1c1c[nH]c2ccccc12

>  <score_type>  (42) 
oracle

>  <origin>  (42) 
autodockgpu

>  <m_score__min__energy>  (42) 
-7.4100000000000001

>  <m_primary>  (42) 
energy

>  <meeko>  (42) 
{"free_energy": -6.42, "intermolecular_energy": -7.91, "internal_energy": -2.88, "cluster_size": 7, "cluster_id": 3, "rank_in_cluster": 7}

>  <energy>  (42) 
-7.41

>  <cluster_rmsd>  (42) 
0.05

>  <rmsd>  (42) 
271.28

>  <cluster>  (42) 
1

$$$$
MHMHNRBLDMQEKR-XMMPIXPANA-N
     RDKit          3D

 54 58  0  0  0  0  0  0  0  0999 V2000
  139.3110   76.8110  219.5960 O   0  0  0  0  0  0  0  0  0  0  0  0
  140.6520   76.6980  218.9230 S   0  0  0  0  0  0  0  0  0  0  0  0
  140.6700   75.4490  218.0850 O   0  0  0  0  0  0  0  0  0  0  0  0
  140.8780   78.1100  217.8510 C   0  0  0  0  0  0  0  0  0  0  0  0
  140.7680   79.3860  218.6370 C   0  0  0  0  0  0  0  0  0  0  0  0
  141.9240   80.0390  219.0890 C   0  0  0  0  0  0  0  0  0  0  0  0
  141.8240   81.2060  219.8520 C   0  0  0  0  0  0  0  0  0  0  0  0
  140.5650   81.7450  220.1670 C   0  0  0  0  0  0  0  0  0  0  0  0
  140.4550   82.9740  221.0330 C   0  0  0  0  0  0  0  0  0  0  0  0
  141.6100   83.1540  221.7750 F   0  0  0  0  0  0  0  0  0  0  0  0
  139.3910   82.8590  221.9110 F   0  0  0  0  0  0  0  0  0  0  0  0
  140.2590   84.0810  220.2300 F   0  0  0  0  0  0  0  0  0  0  0  0
  139.4080   81.0660  219.7460 C   0  0  0  0  0  0  0  0  0  0  0  0
  139.5090   79.9000  218.9830 C   0  0  0  0  0  0  0  0  0  0  0  0
  141.9440   76.6600  220.1210 N   0  0  0  0  0  0  0  0  0  0  0  0
  142.9410   75.6090  219.7820 C   0  0  0  0  0  0  0  0  0  0  0  0
  142.7410   74.2440  220.5100 C   0  0  0  0  0  0  0  0  0  0  0  0
  141.3560   74.0710  221.0840 C   0  0  0  0  0  0  0  0  0  0  0  0
  140.7350   72.8140  221.0960 C   0  0  0  0  0  0  0  0  0  0  0  0
  139.4200   72.6870  221.5460 C   0  0  0  0  0  0  0  0  0  0  0  0
  138.7120   73.8160  221.9650 C   0  0  0  0  0  0  0  0  0  0  0  0
  139.3280   75.0700  221.9700 C   0  0  0  0  0  0  0  0  0  0  0  0
  140.6810   75.1960  221.5950 C   0  0  0  0  0  0  0  0  0  0  0  0
  141.4460   76.5060  221.5060 C   0  0  2  0  0  0  0  0  0  0  0  0
  140.7720   77.7570  222.0560 C   0  0  0  0  0  0  0  0  0  0  0  0
  139.4260   77.8490  222.4190 C   0  0  0  0  0  0  0  0  0  0  0  0
  139.1670   79.0150  223.0480 N   0  0  0  0  0  0  0  0  0  0  0  0
  140.3440   79.6470  223.1540 C   0  0  0  0  0  0  0  0  0  0  0  0
  140.5840   80.8550  223.8070 C   0  0  0  0  0  0  0  0  0  0  0  0
  141.9110   81.3050  223.8960 C   0  0  0  0  0  0  0  0  0  0  0  0
  142.9610   80.5310  223.3610 C   0  0  0  0  0  0  0  0  0  0  0  0
  142.6930   79.3100  222.7190 C   0  0  0  0  0  0  0  0  0  0  0  0
  141.3590   78.9020  222.5980 C   0  0  0  0  0  0  0  0  0  0  0  0
  141.8729   78.0558  217.3848 H   0  0  0  0  0  0  0  0  0  0  0  0
  140.0971   78.0991  217.0764 H   0  0  0  0  0  0  0  0  0  0  0  0
  142.9149   79.6305  218.8417 H   0  0  0  0  0  0  0  0  0  0  0  0
  142.7369   81.7057  220.2082 H   0  0  0  0  0  0  0  0  0  0  0  0
  138.4163   81.4556  220.0193 H   0  0  0  0  0  0  0  0  0  0  0  0
  138.5968   79.3822  218.6518 H   0  0  0  0  0  0  0  0  0  0  0  0
  142.8889   75.4275  218.6983 H   0  0  0  0  0  0  0  0  0  0  0  0
  143.9156   75.9936  220.1169 H   0  0  0  0  0  0  0  0  0  0  0  0
  142.9239   73.4337  219.7890 H   0  0  0  0  0  0  0  0  0  0  0  0
  143.4484   74.2170  221.3520 H   0  0  0  0  0  0  0  0  0  0  0  0
  141.2851   71.9265  220.7501 H   0  0  0  0  0  0  0  0  0  0  0  0
  138.9407   71.6972  221.5708 H   0  0  0  0  0  0  0  0  0  0  0  0
  137.6664   73.7174  222.2920 H   0  0  0  0  0  0  0  0  0  0  0  0
  138.7558   75.9612  222.2673 H   0  0  0  0  0  0  0  0  0  0  0  0
  142.2825   76.4195  222.2150 H   0  0  0  0  0  0  0  0  0  0  0  0
  138.6742   77.0715  222.2182 H   0  0  0  0  0  0  0  0  0  0  0  0
  138.2470   79.3250  223.4330 H   0  0  0  0  0  0  0  0  0  0  0  0
  139.7580   81.4385  224.2398 H   0  0  0  0  0  0  0  0  0  0  0  0
  142.1323   82.2652  224.3850 H   0  0  0  0  0  0  0  0  0  0  0  0
  143.9987   80.8858  223.4468 H   0  0  0  0  0  0  0  0  0  0  0  0
  143.5105   78.6905  222.3216 H   0  0  0  0  0  0  0  0  0  0  0  0
  1  2  2  0
  2  3  2  0
  2  4  1  0
  4  5  1  0
  5  6  2  0
  6  7  1  0
  7  8  2  0
  8  9  1  0
  9 10  1  0
  9 11  1  0
  9 12  1  0
  8 13  1  0
 13 14  2  0
  2 15  1  0
 15 16  1  0
 16 17  1  0
 17 18  1  0
 18 19  2  0
 19 20  1  0
 20 21  2  0
 21 22  1  0
 22 23  2  0
 23 24  1  0
 24 25  1  0
 25 26  2  0
 26 27  1  0
 27 28  1  0
 28 29  2  0
 29 30  1  0
 30 31  2  0
 31 32  1  0
 32 33  2  0
 14  5  1  0
 24 15  1  0
 33 25  1  0
 23 18  1  0
 33 28  1  0
  4 34  1  0
  4 35  1  0
  6 36  1  0
  7 37  1  0
 13 38  1  0
 14 39  1  0
 16 40  1  0
 16 41  1  0
 17 42  1  0
 17 43  1  0
 19 44  1  0
 20 45  1  0
 21 46  1  0
 22 47  1  0
 24 48  1  1
 26 49  1  0
 27 50  1  0
 29 51  1  0
 30 52  1  0
 31 53  1  0
 32 54  1  0
M  END
>  <UniqueID>  (43) 
191

>  <SMILES>  (43) 
O=S(=O)(Cc1ccc(C(F)(F)F)cc1)N1CCc2ccccc2[C@@H]1c1c[nH]c2ccccc12

>  <Energy>  (43) 
98.23277094046774

>  <Genealogy>  (43) 
O=S(=O)(Cc1ccc(C(F)(F)F)cc1)N1CCc2ccccc2[C@@H]1c1c[nH]c2ccccc12 (3D coordinates assigned)
O=S(=O)(Cc1ccc(C(F)(F)F)cc1)N1CCc2ccccc2[C@@H]1c1c[nH]c2ccccc12 (nonaromatic ring conformer: 98.23277094046774 kcal/mol)

>  <smiles>  (43) 
O=S(=O)(Cc1ccc(C(F)(F)F)cc1)N1CCc2ccccc2[C@@H]1c1c[nH]c2ccccc12

>  <score_type>  (43) 
oracle

>  <origin>  (43) 
autodockgpu

>  <m_score__min__energy>  (43) 
-7.4100000000000001

>  <m_primary>  (43) 
energy

>  <meeko>  (43) 
{"free_energy": -6.43, "intermolecular_energy": -7.92, "internal_energy": -2.88, "cluster_size": 7, "cluster_id": 3, "rank_in_cluster": 6}

>  <energy>  (43) 
-7.4

>  <cluster_rmsd>  (43) 
0.05

>  <rmsd>  (43) 
271.28

>  <cluster>  (43) 
1

$$$$
MHMHNRBLDMQEKR-XMMPIXPANA-N
     RDKit          3D

 54 58  0  0  0  0  0  0  0  0999 V2000
  139.8380   75.2320  222.5020 O   0  0  0  0  0  0  0  0  0  0  0  0
  138.6500   75.2350  221.5800 S   0  0  0  0  0  0  0  0  0  0  0  0
  137.4260   74.8470  222.3640 O   0  0  0  0  0  0  0  0  0  0  0  0
  138.4210   76.8890  220.9430 C   0  0  0  0  0  0  0  0  0  0  0  0
  139.4440   77.8210  221.5270 C   0  0  0  0  0  0  0  0  0  0  0  0
  140.5100   78.2830  220.7410 C   0  0  0  0  0  0  0  0  0  0  0  0
  141.4840   79.1210  221.2930 C   0  0  0  0  0  0  0  0  0  0  0  0
  141.4020   79.5180  222.6390 C   0  0  0  0  0  0  0  0  0  0  0  0
  142.4800   80.3780  223.2480 C   0  0  0  0  0  0  0  0  0  0  0  0
  142.1630   81.7190  223.1240 F   0  0  0  0  0  0  0  0  0  0  0  0
  143.6930   80.1600  222.6180 F   0  0  0  0  0  0  0  0  0  0  0  0
  142.6070   80.0670  224.5890 F   0  0  0  0  0  0  0  0  0  0  0  0
  140.3550   79.0210  223.4340 C   0  0  0  0  0  0  0  0  0  0  0  0
  139.3810   78.1840  222.8810 C   0  0  0  0  0  0  0  0  0  0  0  0
  138.9050   74.1210  220.2390 N   0  0  0  0  0  0  0  0  0  0  0  0
  137.6700   73.3370  219.9670 C   0  0  0  0  0  0  0  0  0  0  0  0
  137.6190   71.9270  220.6310 C   0  0  0  0  0  0  0  0  0  0  0  0
  138.6010   71.7670  221.7670 C   0  0  0  0  0  0  0  0  0  0  0  0
  138.2750   70.9990  222.8950 C   0  0  0  0  0  0  0  0  0  0  0  0
  139.1560   70.9350  223.9760 C   0  0  0  0  0  0  0  0  0  0  0  0
  140.3520   71.6550  223.9470 C   0  0  0  0  0  0  0  0  0  0  0  0
  140.6910   72.4100  222.8210 C   0  0  0  0  0  0  0  0  0  0  0  0
  139.8470   72.4150  221.6920 C   0  0  0  0  0  0  0  0  0  0  0  0
  140.0750   73.2370  220.4340 C   0  0  2  0  0  0  0  0  0  0  0  0
  141.4130   73.9520  220.2880 C   0  0  0  0  0  0  0  0  0  0  0  0
  141.5990   75.3330  220.3890 C   0  0  0  0  0  0  0  0  0  0  0  0
  142.9110   75.6510  220.4080 N   0  0  0  0  0  0  0  0  0  0  0  0
  143.5730   74.4860  220.3880 C   0  0  0  0  0  0  0  0  0  0  0  0
  144.9530   74.3120  220.4770 C   0  0  0  0  0  0  0  0  0  0  0  0
  145.4500   73.0000  220.5420 C   0  0  0  0  0  0  0  0  0  0  0  0
  144.5640   71.9040  220.5440 C   0  0  0  0  0  0  0  0  0  0  0  0
  143.1750   72.1080  220.4660 C   0  0  0  0  0  0  0  0  0  0  0  0
  142.7020   73.4210  220.3540 C   0  0  0  0  0  0  0  0  0  0  0  0
  138.5275   76.8738  219.8483 H   0  0  0  0  0  0  0  0  0  0  0  0
  137.4168   77.2424  221.2200 H   0  0  0  0  0  0  0  0  0  0  0  0
  140.5802   77.9845  219.6846 H   0  0  0  0  0  0  0  0  0  0  0  0
  142.3198   79.4718  220.6698 H   0  0  0  0  0  0  0  0  0  0  0  0
  140.3014   79.2924  224.4987 H   0  0  0  0  0  0  0  0  0  0  0  0
  138.5611   77.8081  223.5106 H   0  0  0  0  0  0  0  0  0  0  0  0
  136.8107   73.9173  220.3342 H   0  0  0  0  0  0  0  0  0  0  0  0
  137.6514   73.1638  218.8809 H   0  0  0  0  0  0  0  0  0  0  0  0
  136.6039   71.7609  221.0207 H   0  0  0  0  0  0  0  0  0  0  0  0
  137.8912   71.1926  219.8586 H   0  0  0  0  0  0  0  0  0  0  0  0
  137.3242   70.4467  222.9276 H   0  0  0  0  0  0  0  0  0  0  0  0
  138.9078   70.3168  224.8514 H   0  0  0  0  0  0  0  0  0  0  0  0
  141.0295   71.6278  224.8132 H   0  0  0  0  0  0  0  0  0  0  0  0
  141.6183   73.0016  222.8157 H   0  0  0  0  0  0  0  0  0  0  0  0
  140.1616   72.5142  219.6093 H   0  0  0  0  0  0  0  0  0  0  0  0
  140.7816   76.0669  220.4458 H   0  0  0  0  0  0  0  0  0  0  0  0
  143.3200   76.6080  220.4910 H   0  0  0  0  0  0  0  0  0  0  0  0
  145.6328   75.1766  220.4958 H   0  0  0  0  0  0  0  0  0  0  0  0
  146.5352   72.8272  220.5916 H   0  0  0  0  0  0  0  0  0  0  0  0
  144.9624   70.8806  220.6071 H   0  0  0  0  0  0  0  0  0  0  0  0
  142.4777   71.2576  220.4923 H   0  0  0  0  0  0  0  0  0  0  0  0
  1  2  2  0
  2  3  2  0
  2  4  1  0
  4  5  1  0
  5  6  2  0
  6  7  1  0
  7  8  2  0
  8  9  1  0
  9 10  1  0
  9 11  1  0
  9 12  1  0
  8 13  1  0
 13 14  2  0
  2 15  1  0
 15 16  1  0
 16 17  1  0
 17 18  1  0
 18 19  2  0
 19 20  1  0
 20 21  2  0
 21 22  1  0
 22 23  2  0
 23 24  1  0
 24 25  1  0
 25 26  2  0
 26 27  1  0
 27 28  1  0
 28 29  2  0
 29 30  1  0
 30 31  2  0
 31 32  1  0
 32 33  2  0
 14  5  1  0
 24 15  1  0
 33 25  1  0
 23 18  1  0
 33 28  1  0
  4 34  1  0
  4 35  1  0
  6 36  1  0
  7 37  1  0
 13 38  1  0
 14 39  1  0
 16 40  1  0
 16 41  1  0
 17 42  1  0
 17 43  1  0
 19 44  1  0
 20 45  1  0
 21 46  1  0
 22 47  1  0
 24 48  1  6
 26 49  1  0
 27 50  1  0
 29 51  1  0
 30 52  1  0
 31 53  1  0
 32 54  1  0
M  END
>  <UniqueID>  (44) 
191

>  <SMILES>  (44) 
O=S(=O)(Cc1ccc(C(F)(F)F)cc1)N1CCc2ccccc2[C@@H]1c1c[nH]c2ccccc12

>  <Energy>  (44) 
98.23277094046774

>  <Genealogy>  (44) 
O=S(=O)(Cc1ccc(C(F)(F)F)cc1)N1CCc2ccccc2[C@@H]1c1c[nH]c2ccccc12 (3D coordinates assigned)
O=S(=O)(Cc1ccc(C(F)(F)F)cc1)N1CCc2ccccc2[C@@H]1c1c[nH]c2ccccc12 (nonaromatic ring conformer: 98.23277094046774 kcal/mol)

>  <smiles>  (44) 
O=S(=O)(Cc1ccc(C(F)(F)F)cc1)N1CCc2ccccc2[C@@H]1c1c[nH]c2ccccc12

>  <score_type>  (44) 
oracle

>  <origin>  (44) 
autodockgpu

>  <m_score__min__energy>  (44) 
-7.4100000000000001

>  <m_primary>  (44) 
energy

>  <meeko>  (44) 
{"free_energy": -7.32, "intermolecular_energy": -8.81, "internal_energy": -2.02, "cluster_size": 9, "cluster_id": 1, "rank_in_cluster": 8}

>  <energy>  (44) 
-7.4

>  <cluster_rmsd>  (44) 
0.18

>  <rmsd>  (44) 
271.37

>  <cluster>  (44) 
1

$$$$
MHMHNRBLDMQEKR-XMMPIXPANA-N
     RDKit          3D

 54 58  0  0  0  0  0  0  0  0999 V2000
  139.2950   76.8270  219.5860 O   0  0  0  0  0  0  0  0  0  0  0  0
  140.6330   76.7200  218.9070 S   0  0  0  0  0  0  0  0  0  0  0  0
  140.6500   75.4770  218.0610 O   0  0  0  0  0  0  0  0  0  0  0  0
  140.8540   78.1400  217.8440 C   0  0  0  0  0  0  0  0  0  0  0  0
  140.7540   79.4100  218.6400 C   0  0  0  0  0  0  0  0  0  0  0  0
  141.9160   80.0900  219.0360 C   0  0  0  0  0  0  0  0  0  0  0  0
  141.8260   81.2520  219.8080 C   0  0  0  0  0  0  0  0  0  0  0  0
  140.5720   81.7580  220.1890 C   0  0  0  0  0  0  0  0  0  0  0  0
  140.4770   82.9820  221.0650 C   0  0  0  0  0  0  0  0  0  0  0  0
  139.4100   82.8750  221.9400 F   0  0  0  0  0  0  0  0  0  0  0  0
  140.2940   84.1190  220.2980 F   0  0  0  0  0  0  0  0  0  0  0  0
  141.6440   83.1120  221.7930 F   0  0  0  0  0  0  0  0  0  0  0  0
  139.4120   81.0530  219.8240 C   0  0  0  0  0  0  0  0  0  0  0  0
  139.5020   79.8910  219.0520 C   0  0  0  0  0  0  0  0  0  0  0  0
  141.9290   76.6750  220.1000 N   0  0  0  0  0  0  0  0  0  0  0  0
  142.9240   75.6250  219.7540 C   0  0  0  0  0  0  0  0  0  0  0  0
  142.7250   74.2570  220.4770 C   0  0  0  0  0  0  0  0  0  0  0  0
  141.3420   74.0840  221.0550 C   0  0  0  0  0  0  0  0  0  0  0  0
  140.7200   72.8270  221.0630 C   0  0  0  0  0  0  0  0  0  0  0  0
  139.4060   72.7000  221.5180 C   0  0  0  0  0  0  0  0  0  0  0  0
  138.7000   73.8280  221.9430 C   0  0  0  0  0  0  0  0  0  0  0  0
  139.3180   75.0810  221.9520 C   0  0  0  0  0  0  0  0  0  0  0  0
  140.6700   75.2060  221.5730 C   0  0  0  0  0  0  0  0  0  0  0  0
  141.4360   76.5160  221.4870 C   0  0  2  0  0  0  0  0  0  0  0  0
  140.7660   77.7660  222.0440 C   0  0  0  0  0  0  0  0  0  0  0  0
  139.4190   77.8600  222.4050 C   0  0  0  0  0  0  0  0  0  0  0  0
  139.1630   79.0220  223.0420 N   0  0  0  0  0  0  0  0  0  0  0  0
  140.3420   79.6490  223.1550 C   0  0  0  0  0  0  0  0  0  0  0  0
  140.5840   80.8520  223.8170 C   0  0  0  0  0  0  0  0  0  0  0  0
  141.9130   81.2960  223.9130 C   0  0  0  0  0  0  0  0  0  0  0  0
  142.9610   80.5220  223.3750 C   0  0  0  0  0  0  0  0  0  0  0  0
  142.6900   79.3070  222.7240 C   0  0  0  0  0  0  0  0  0  0  0  0
  141.3550   78.9040  222.5960 C   0  0  0  0  0  0  0  0  0  0  0  0
  141.8449   78.0868  217.3693 H   0  0  0  0  0  0  0  0  0  0  0  0
  140.0665   78.1371  217.0760 H   0  0  0  0  0  0  0  0  0  0  0  0
  142.9028   79.7066  218.7374 H   0  0  0  0  0  0  0  0  0  0  0  0
  142.7431   81.7736  220.1192 H   0  0  0  0  0  0  0  0  0  0  0  0
  138.4263   81.4182  220.1482 H   0  0  0  0  0  0  0  0  0  0  0  0
  138.5871   79.3513  218.7663 H   0  0  0  0  0  0  0  0  0  0  0  0
  142.8688   75.4480  218.6697 H   0  0  0  0  0  0  0  0  0  0  0  0
  143.8999   76.0075  220.0878 H   0  0  0  0  0  0  0  0  0  0  0  0
  142.9041   73.4494  219.7519 H   0  0  0  0  0  0  0  0  0  0  0  0
  143.4355   74.2252  221.3161 H   0  0  0  0  0  0  0  0  0  0  0  0
  141.2677   71.9405  220.7106 H   0  0  0  0  0  0  0  0  0  0  0  0
  138.9262   71.7104  221.5418 H   0  0  0  0  0  0  0  0  0  0  0  0
  137.6548   73.7295  222.2714 H   0  0  0  0  0  0  0  0  0  0  0  0
  138.7484   75.9718  222.2554 H   0  0  0  0  0  0  0  0  0  0  0  0
  142.2743   76.4255  222.1935 H   0  0  0  0  0  0  0  0  0  0  0  0
  138.6649   77.0867  222.1968 H   0  0  0  0  0  0  0  0  0  0  0  0
  138.2430   79.3330  223.4270 H   0  0  0  0  0  0  0  0  0  0  0  0
  139.7589   81.4358  224.2510 H   0  0  0  0  0  0  0  0  0  0  0  0
  142.1369   82.2515  224.4099 H   0  0  0  0  0  0  0  0  0  0  0  0
  143.9998   80.8723  223.4657 H   0  0  0  0  0  0  0  0  0  0  0  0
  143.5064   78.6874  222.3246 H   0  0  0  0  0  0  0  0  0  0  0  0
  1  2  2  0
  2  3  2  0
  2  4  1  0
  4  5  1  0
  5  6  2  0
  6  7  1  0
  7  8  2  0
  8  9  1  0
  9 10  1  0
  9 11  1  0
  9 12  1  0
  8 13  1  0
 13 14  2  0
  2 15  1  0
 15 16  1  0
 16 17  1  0
 17 18  1  0
 18 19  2  0
 19 20  1  0
 20 21  2  0
 21 22  1  0
 22 23  2  0
 23 24  1  0
 24 25  1  0
 25 26  2  0
 26 27  1  0
 27 28  1  0
 28 29  2  0
 29 30  1  0
 30 31  2  0
 31 32  1  0
 32 33  2  0
 14  5  1  0
 24 15  1  0
 33 25  1  0
 23 18  1  0
 33 28  1  0
  4 34  1  0
  4 35  1  0
  6 36  1  0
  7 37  1  0
 13 38  1  0
 14 39  1  0
 16 40  1  0
 16 41  1  0
 17 42  1  0
 17 43  1  0
 19 44  1  0
 20 45  1  0
 21 46  1  0
 22 47  1  0
 24 48  1  1
 26 49  1  0
 27 50  1  0
 29 51  1  0
 30 52  1  0
 31 53  1  0
 32 54  1  0
M  END
>  <UniqueID>  (45) 
191

>  <SMILES>  (45) 
O=S(=O)(Cc1ccc(C(F)(F)F)cc1)N1CCc2ccccc2[C@@H]1c1c[nH]c2ccccc12

>  <Energy>  (45) 
98.23277094046774

>  <Genealogy>  (45) 
O=S(=O)(Cc1ccc(C(F)(F)F)cc1)N1CCc2ccccc2[C@@H]1c1c[nH]c2ccccc12 (3D coordinates assigned)
O=S(=O)(Cc1ccc(C(F)(F)F)cc1)N1CCc2ccccc2[C@@H]1c1c[nH]c2ccccc12 (nonaromatic ring conformer: 98.23277094046774 kcal/mol)

>  <smiles>  (45) 
O=S(=O)(Cc1ccc(C(F)(F)F)cc1)N1CCc2ccccc2[C@@H]1c1c[nH]c2ccccc12

>  <score_type>  (45) 
oracle

>  <origin>  (45) 
autodockgpu

>  <m_score__min__energy>  (45) 
-7.4100000000000001

>  <m_primary>  (45) 
energy

>  <meeko>  (45) 
{"free_energy": -6.43, "intermolecular_energy": -7.92, "internal_energy": -2.88, "cluster_size": 7, "cluster_id": 3, "rank_in_cluster": 4}

>  <energy>  (45) 
-7.38

>  <cluster_rmsd>  (45) 
0.15

>  <rmsd>  (45) 
271.37

>  <cluster>  (45) 
1

$$$$
MHMHNRBLDMQEKR-XMMPIXPANA-N
     RDKit          3D

 54 58  0  0  0  0  0  0  0  0999 V2000
  139.3040   76.8580  219.5760 O   0  0  0  0  0  0  0  0  0  0  0  0
  140.6420   76.7570  218.8980 S   0  0  0  0  0  0  0  0  0  0  0  0
  140.6650   75.5160  218.0490 O   0  0  0  0  0  0  0  0  0  0  0  0
  140.8580   78.1800  217.8370 C   0  0  0  0  0  0  0  0  0  0  0  0
  140.7550   79.4480  218.6350 C   0  0  0  0  0  0  0  0  0  0  0  0
  141.9140   80.0820  219.1070 C   0  0  0  0  0  0  0  0  0  0  0  0
  141.8200   81.2420  219.8820 C   0  0  0  0  0  0  0  0  0  0  0  0
  140.5640   81.7930  220.1890 C   0  0  0  0  0  0  0  0  0  0  0  0
  140.4600   83.0130  221.0670 C   0  0  0  0  0  0  0  0  0  0  0  0
  140.2800   84.1520  220.3030 F   0  0  0  0  0  0  0  0  0  0  0  0
  141.6130   83.1740  221.8170 F   0  0  0  0  0  0  0  0  0  0  0  0
  139.3840   82.8690  221.9220 F   0  0  0  0  0  0  0  0  0  0  0  0
  139.4040   81.1330  219.7480 C   0  0  0  0  0  0  0  0  0  0  0  0
  139.4990   79.9730  218.9730 C   0  0  0  0  0  0  0  0  0  0  0  0
  141.9390   76.7160  220.0910 N   0  0  0  0  0  0  0  0  0  0  0  0
  142.9350   75.6670  219.7450 C   0  0  0  0  0  0  0  0  0  0  0  0
  142.7390   74.3000  220.4690 C   0  0  0  0  0  0  0  0  0  0  0  0
  141.3560   74.1240  221.0480 C   0  0  0  0  0  0  0  0  0  0  0  0
  140.7360   72.8660  221.0580 C   0  0  0  0  0  0  0  0  0  0  0  0
  139.4220   72.7370  221.5130 C   0  0  0  0  0  0  0  0  0  0  0  0
  138.7150   73.8650  221.9370 C   0  0  0  0  0  0  0  0  0  0  0  0
  139.3310   75.1190  221.9440 C   0  0  0  0  0  0  0  0  0  0  0  0
  140.6830   75.2460  221.5650 C   0  0  0  0  0  0  0  0  0  0  0  0
  141.4460   76.5580  221.4770 C   0  0  2  0  0  0  0  0  0  0  0  0
  140.7730   77.8070  222.0330 C   0  0  0  0  0  0  0  0  0  0  0  0
  139.4240   77.9010  222.3850 C   0  0  0  0  0  0  0  0  0  0  0  0
  139.1650   79.0620  223.0240 N   0  0  0  0  0  0  0  0  0  0  0  0
  140.3440   79.6870  223.1470 C   0  0  0  0  0  0  0  0  0  0  0  0
  140.5830   80.8880  223.8140 C   0  0  0  0  0  0  0  0  0  0  0  0
  141.9120   81.3290  223.9210 C   0  0  0  0  0  0  0  0  0  0  0  0
  142.9630   80.5560  223.3880 C   0  0  0  0  0  0  0  0  0  0  0  0
  142.6950   79.3430  222.7310 C   0  0  0  0  0  0  0  0  0  0  0  0
  141.3600   78.9430  222.5930 C   0  0  0  0  0  0  0  0  0  0  0  0
  141.8486   78.1305  217.3613 H   0  0  0  0  0  0  0  0  0  0  0  0
  140.0698   78.1761  217.0697 H   0  0  0  0  0  0  0  0  0  0  0  0
  142.9026   79.6641  218.8660 H   0  0  0  0  0  0  0  0  0  0  0  0
  142.7349   81.7264  220.2538 H   0  0  0  0  0  0  0  0  0  0  0  0
  138.4142   81.5320  220.0145 H   0  0  0  0  0  0  0  0  0  0  0  0
  138.5842   79.4697  218.6267 H   0  0  0  0  0  0  0  0  0  0  0  0
  142.8789   75.4889  218.6610 H   0  0  0  0  0  0  0  0  0  0  0  0
  143.9106   76.0512  220.0776 H   0  0  0  0  0  0  0  0  0  0  0  0
  142.9197   73.4922  219.7446 H   0  0  0  0  0  0  0  0  0  0  0  0
  143.4497   74.2708  221.3081 H   0  0  0  0  0  0  0  0  0  0  0  0
  141.2853   71.9800  220.7071 H   0  0  0  0  0  0  0  0  0  0  0  0
  138.9434   71.7469  221.5376 H   0  0  0  0  0  0  0  0  0  0  0  0
  137.6702   73.7655  222.2663 H   0  0  0  0  0  0  0  0  0  0  0  0
  138.7598   76.0093  222.2459 H   0  0  0  0  0  0  0  0  0  0  0  0
  142.2847   76.4708  222.1834 H   0  0  0  0  0  0  0  0  0  0  0  0
  138.6705   77.1291  222.1694 H   0  0  0  0  0  0  0  0  0  0  0  0
  138.2430   79.3730  223.4020 H   0  0  0  0  0  0  0  0  0  0  0  0
  139.7557   81.4722  224.2433 H   0  0  0  0  0  0  0  0  0  0  0  0
  142.1337   82.2822  224.4232 H   0  0  0  0  0  0  0  0  0  0  0  0
  144.0015   80.9050  223.4871 H   0  0  0  0  0  0  0  0  0  0  0  0
  143.5131   78.7234  222.3351 H   0  0  0  0  0  0  0  0  0  0  0  0
  1  2  2  0
  2  3  2  0
  2  4  1  0
  4  5  1  0
  5  6  2  0
  6  7  1  0
  7  8  2  0
  8  9  1  0
  9 10  1  0
  9 11  1  0
  9 12  1  0
  8 13  1  0
 13 14  2  0
  2 15  1  0
 15 16  1  0
 16 17  1  0
 17 18  1  0
 18 19  2  0
 19 20  1  0
 20 21  2  0
 21 22  1  0
 22 23  2  0
 23 24  1  0
 24 25  1  0
 25 26  2  0
 26 27  1  0
 27 28  1  0
 28 29  2  0
 29 30  1  0
 30 31  2  0
 31 32  1  0
 32 33  2  0
 14  5  1  0
 24 15  1  0
 33 25  1  0
 23 18  1  0
 33 28  1  0
  4 34  1  0
  4 35  1  0
  6 36  1  0
  7 37  1  0
 13 38  1  0
 14 39  1  0
 16 40  1  0
 16 41  1  0
 17 42  1  0
 17 43  1  0
 19 44  1  0
 20 45  1  0
 21 46  1  0
 22 47  1  0
 24 48  1  1
 26 49  1  0
 27 50  1  0
 29 51  1  0
 30 52  1  0
 31 53  1  0
 32 54  1  0
M  END
>  <UniqueID>  (46) 
191

>  <SMILES>  (46) 
O=S(=O)(Cc1ccc(C(F)(F)F)cc1)N1CCc2ccccc2[C@@H]1c1c[nH]c2ccccc12

>  <Energy>  (46) 
98.23277094046774

>  <Genealogy>  (46) 
O=S(=O)(Cc1ccc(C(F)(F)F)cc1)N1CCc2ccccc2[C@@H]1c1c[nH]c2ccccc12 (3D coordinates assigned)
O=S(=O)(Cc1ccc(C(F)(F)F)cc1)N1CCc2ccccc2[C@@H]1c1c[nH]c2ccccc12 (nonaromatic ring conformer: 98.23277094046774 kcal/mol)

>  <smiles>  (46) 
O=S(=O)(Cc1ccc(C(F)(F)F)cc1)N1CCc2ccccc2[C@@H]1c1c[nH]c2ccccc12

>  <score_type>  (46) 
oracle

>  <origin>  (46) 
autodockgpu

>  <m_score__min__energy>  (46) 
-7.4100000000000001

>  <m_primary>  (46) 
energy

>  <meeko>  (46) 
{"free_energy": -6.43, "intermolecular_energy": -7.92, "internal_energy": -2.88, "cluster_size": 7, "cluster_id": 3, "rank_in_cluster": 5}

>  <energy>  (46) 
-7.38

>  <cluster_rmsd>  (46) 
0.1

>  <rmsd>  (46) 
271.33

>  <cluster>  (46) 
1

$$$$
MHMHNRBLDMQEKR-XMMPIXPANA-N
     RDKit          3D

 54 58  0  0  0  0  0  0  0  0999 V2000
  139.8140   75.1720  222.5520 O   0  0  0  0  0  0  0  0  0  0  0  0
  138.6450   75.2250  221.6060 S   0  0  0  0  0  0  0  0  0  0  0  0
  137.3940   74.8700  222.3610 O   0  0  0  0  0  0  0  0  0  0  0  0
  138.4840   76.8930  220.9840 C   0  0  0  0  0  0  0  0  0  0  0  0
  139.5550   77.7730  221.5640 C   0  0  0  0  0  0  0  0  0  0  0  0
  139.4930   78.1670  222.9090 C   0  0  0  0  0  0  0  0  0  0  0  0
  140.4680   79.0170  223.4420 C   0  0  0  0  0  0  0  0  0  0  0  0
  141.5250   79.4780  222.6400 C   0  0  0  0  0  0  0  0  0  0  0  0
  142.5470   80.4350  223.2000 C   0  0  0  0  0  0  0  0  0  0  0  0
  143.8090   80.1440  222.7130 F   0  0  0  0  0  0  0  0  0  0  0  0
  142.5870   80.3530  224.5810 F   0  0  0  0  0  0  0  0  0  0  0  0
  142.2100   81.7250  222.8350 F   0  0  0  0  0  0  0  0  0  0  0  0
  141.5620   79.1130  221.2830 C   0  0  0  0  0  0  0  0  0  0  0  0
  140.5870   78.2640  220.7510 C   0  0  0  0  0  0  0  0  0  0  0  0
  138.8900   74.1190  220.2570 N   0  0  0  0  0  0  0  0  0  0  0  0
  137.6550   73.3340  219.9920 C   0  0  0  0  0  0  0  0  0  0  0  0
  137.6120   71.9200  220.6500 C   0  0  0  0  0  0  0  0  0  0  0  0
  138.6030   71.7560  221.7770 C   0  0  0  0  0  0  0  0  0  0  0  0
  138.2890   70.9820  222.9030 C   0  0  0  0  0  0  0  0  0  0  0  0
  139.1790   70.9150  223.9760 C   0  0  0  0  0  0  0  0  0  0  0  0
  140.3740   71.6370  223.9400 C   0  0  0  0  0  0  0  0  0  0  0  0
  140.7020   72.3980  222.8150 C   0  0  0  0  0  0  0  0  0  0  0  0
  139.8480   72.4070  221.6930 C   0  0  0  0  0  0  0  0  0  0  0  0
  140.0640   73.2350  220.4370 C   0  0  2  0  0  0  0  0  0  0  0  0
  141.3990   73.9530  220.2840 C   0  0  0  0  0  0  0  0  0  0  0  0
  141.5840   75.3340  220.3950 C   0  0  0  0  0  0  0  0  0  0  0  0
  142.8960   75.6530  220.4030 N   0  0  0  0  0  0  0  0  0  0  0  0
  143.5590   74.4890  220.3640 C   0  0  0  0  0  0  0  0  0  0  0  0
  144.9410   74.3160  220.4360 C   0  0  0  0  0  0  0  0  0  0  0  0
  145.4400   73.0040  220.4830 C   0  0  0  0  0  0  0  0  0  0  0  0
  144.5550   71.9070  220.4850 C   0  0  0  0  0  0  0  0  0  0  0  0
  143.1660   72.1100  220.4250 C   0  0  0  0  0  0  0  0  0  0  0  0
  142.6890   73.4230  220.3300 C   0  0  0  0  0  0  0  0  0  0  0  0
  138.5778   76.8820  219.8881 H   0  0  0  0  0  0  0  0  0  0  0  0
  137.4999   77.2892  221.2747 H   0  0  0  0  0  0  0  0  0  0  0  0
  138.6736   77.8058  223.5478 H   0  0  0  0  0  0  0  0  0  0  0  0
  140.4065   79.3263  224.4958 H   0  0  0  0  0  0  0  0  0  0  0  0
  142.3635   79.4980  220.6354 H   0  0  0  0  0  0  0  0  0  0  0  0
  140.6295   77.9796  219.6893 H   0  0  0  0  0  0  0  0  0  0  0  0
  136.7977   73.9109  220.3691 H   0  0  0  0  0  0  0  0  0  0  0  0
  137.6279   73.1657  218.9053 H   0  0  0  0  0  0  0  0  0  0  0  0
  136.6003   71.7502  221.0471 H   0  0  0  0  0  0  0  0  0  0  0  0
  137.8795   71.1900  219.8718 H   0  0  0  0  0  0  0  0  0  0  0  0
  137.3401   70.4269  222.9408 H   0  0  0  0  0  0  0  0  0  0  0  0
  138.9390   70.2929  224.8509 H   0  0  0  0  0  0  0  0  0  0  0  0
  141.0591   71.6065  224.8000 H   0  0  0  0  0  0  0  0  0  0  0  0
  141.6282   72.9913  222.8046 H   0  0  0  0  0  0  0  0  0  0  0  0
  140.1447   72.5168  219.6078 H   0  0  0  0  0  0  0  0  0  0  0  0
  140.7664   76.0663  220.4666 H   0  0  0  0  0  0  0  0  0  0  0  0
  143.3050   76.6090  220.4900 H   0  0  0  0  0  0  0  0  0  0  0  0
  145.6199   75.1813  220.4554 H   0  0  0  0  0  0  0  0  0  0  0  0
  146.5259   72.8319  220.5184 H   0  0  0  0  0  0  0  0  0  0  0  0
  144.9551   70.8835  220.5339 H   0  0  0  0  0  0  0  0  0  0  0  0
  142.4704   71.2583  220.4520 H   0  0  0  0  0  0  0  0  0  0  0  0
  1  2  2  0
  2  3  2  0
  2  4  1  0
  4  5  1  0
  5  6  2  0
  6  7  1  0
  7  8  2  0
  8  9  1  0
  9 10  1  0
  9 11  1  0
  9 12  1  0
  8 13  1  0
 13 14  2  0
  2 15  1  0
 15 16  1  0
 16 17  1  0
 17 18  1  0
 18 19  2  0
 19 20  1  0
 20 21  2  0
 21 22  1  0
 22 23  2  0
 23 24  1  0
 24 25  1  0
 25 26  2  0
 26 27  1  0
 27 28  1  0
 28 29  2  0
 29 30  1  0
 30 31  2  0
 31 32  1  0
 32 33  2  0
 14  5  1  0
 24 15  1  0
 33 25  1  0
 23 18  1  0
 33 28  1  0
  4 34  1  0
  4 35  1  0
  6 36  1  0
  7 37  1  0
 13 38  1  0
 14 39  1  0
 16 40  1  0
 16 41  1  0
 17 42  1  0
 17 43  1  0
 19 44  1  0
 20 45  1  0
 21 46  1  0
 22 47  1  0
 24 48  1  6
 26 49  1  0
 27 50  1  0
 29 51  1  0
 30 52  1  0
 31 53  1  0
 32 54  1  0
M  END
>  <UniqueID>  (47) 
191

>  <SMILES>  (47) 
O=S(=O)(Cc1ccc(C(F)(F)F)cc1)N1CCc2ccccc2[C@@H]1c1c[nH]c2ccccc12

>  <Energy>  (47) 
98.23277094046774

>  <Genealogy>  (47) 
O=S(=O)(Cc1ccc(C(F)(F)F)cc1)N1CCc2ccccc2[C@@H]1c1c[nH]c2ccccc12 (3D coordinates assigned)
O=S(=O)(Cc1ccc(C(F)(F)F)cc1)N1CCc2ccccc2[C@@H]1c1c[nH]c2ccccc12 (nonaromatic ring conformer: 98.23277094046774 kcal/mol)

>  <smiles>  (47) 
O=S(=O)(Cc1ccc(C(F)(F)F)cc1)N1CCc2ccccc2[C@@H]1c1c[nH]c2ccccc12

>  <score_type>  (47) 
oracle

>  <origin>  (47) 
autodockgpu

>  <m_score__min__energy>  (47) 
-7.4100000000000001

>  <m_primary>  (47) 
energy

>  <meeko>  (47) 
{"free_energy": -7.41, "intermolecular_energy": -8.9, "internal_energy": -2.01, "cluster_size": 9, "cluster_id": 1, "rank_in_cluster": 2}

>  <energy>  (47) 
-7.34

>  <cluster_rmsd>  (47) 
0.09

>  <rmsd>  (47) 
271.29

>  <cluster>  (47) 
1

$$$$
MHMHNRBLDMQEKR-XMMPIXPANA-N
     RDKit          3D

 54 58  0  0  0  0  0  0  0  0999 V2000
  139.8460   75.2380  222.6540 O   0  0  0  0  0  0  0  0  0  0  0  0
  138.6470   75.2960  221.7480 S   0  0  0  0  0  0  0  0  0  0  0  0
  137.4210   74.9410  222.5430 O   0  0  0  0  0  0  0  0  0  0  0  0
  138.4680   76.9660  221.1370 C   0  0  0  0  0  0  0  0  0  0  0  0
  139.5420   77.8490  221.7060 C   0  0  0  0  0  0  0  0  0  0  0  0
  139.4650   78.2850  223.0380 C   0  0  0  0  0  0  0  0  0  0  0  0
  140.4430   79.1380  223.5600 C   0  0  0  0  0  0  0  0  0  0  0  0
  141.5190   79.5590  222.7610 C   0  0  0  0  0  0  0  0  0  0  0  0
  142.5450   80.5200  223.3080 C   0  0  0  0  0  0  0  0  0  0  0  0
  142.8920   80.1790  224.6030 F   0  0  0  0  0  0  0  0  0  0  0  0
  142.0470   81.8110  223.3180 F   0  0  0  0  0  0  0  0  0  0  0  0
  143.6750   80.4790  222.5130 F   0  0  0  0  0  0  0  0  0  0  0  0
  141.5720   79.1520  221.4170 C   0  0  0  0  0  0  0  0  0  0  0  0
  140.5940   78.3000  220.8960 C   0  0  0  0  0  0  0  0  0  0  0  0
  138.8440   74.1930  220.3880 N   0  0  0  0  0  0  0  0  0  0  0  0
  137.5900   73.4310  220.1450 C   0  0  0  0  0  0  0  0  0  0  0  0
  137.5360   72.0140  220.7970 C   0  0  0  0  0  0  0  0  0  0  0  0
  138.5480   71.8270  221.9010 C   0  0  0  0  0  0  0  0  0  0  0  0
  138.2440   71.0520  223.0300 C   0  0  0  0  0  0  0  0  0  0  0  0
  139.1550   70.9630  224.0840 C   0  0  0  0  0  0  0  0  0  0  0  0
  140.3620   71.6650  224.0260 C   0  0  0  0  0  0  0  0  0  0  0  0
  140.6790   72.4260  222.8990 C   0  0  0  0  0  0  0  0  0  0  0  0
  139.8020   72.4570  221.7950 C   0  0  0  0  0  0  0  0  0  0  0  0
  140.0060   73.2880  220.5390 C   0  0  2  0  0  0  0  0  0  0  0  0
  141.3500   73.9840  220.3620 C   0  0  0  0  0  0  0  0  0  0  0  0
  141.5570   75.3630  220.4530 C   0  0  0  0  0  0  0  0  0  0  0  0
  142.8730   75.6620  220.4420 N   0  0  0  0  0  0  0  0  0  0  0  0
  143.5180   74.4880  220.4120 C   0  0  0  0  0  0  0  0  0  0  0  0
  144.8980   74.2950  220.4710 C   0  0  0  0  0  0  0  0  0  0  0  0
  145.3780   72.9760  220.5310 C   0  0  0  0  0  0  0  0  0  0  0  0
  144.4770   71.8930  220.5570 C   0  0  0  0  0  0  0  0  0  0  0  0
  143.0900   72.1160  220.5090 C   0  0  0  0  0  0  0  0  0  0  0  0
  142.6320   73.4350  220.4020 C   0  0  0  0  0  0  0  0  0  0  0  0
  138.5462   76.9610  220.0398 H   0  0  0  0  0  0  0  0  0  0  0  0
  137.4860   77.3552  221.4438 H   0  0  0  0  0  0  0  0  0  0  0  0
  138.6312   77.9542  223.6747 H   0  0  0  0  0  0  0  0  0  0  0  0
  140.3691   79.4812  224.6025 H   0  0  0  0  0  0  0  0  0  0  0  0
  142.3886   79.5062  220.7707 H   0  0  0  0  0  0  0  0  0  0  0  0
  140.6499   77.9815  219.8446 H   0  0  0  0  0  0  0  0  0  0  0  0
  136.7510   74.0208  220.5429 H   0  0  0  0  0  0  0  0  0  0  0  0
  137.5372   73.2690  219.0583 H   0  0  0  0  0  0  0  0  0  0  0  0
  136.5303   71.8600  221.2152 H   0  0  0  0  0  0  0  0  0  0  0  0
  137.7733   71.2833  220.0097 H   0  0  0  0  0  0  0  0  0  0  0  0
  137.2863   70.5136  223.0849 H   0  0  0  0  0  0  0  0  0  0  0  0
  138.9227   70.3401  224.9604 H   0  0  0  0  0  0  0  0  0  0  0  0
  141.0647   71.6179  224.8710 H   0  0  0  0  0  0  0  0  0  0  0  0
  141.6152   73.0028  222.8722 H   0  0  0  0  0  0  0  0  0  0  0  0
  140.0569   72.5731  219.7046 H   0  0  0  0  0  0  0  0  0  0  0  0
  140.7513   76.1085  220.5244 H   0  0  0  0  0  0  0  0  0  0  0  0
  143.2970   76.6140  220.5110 H   0  0  0  0  0  0  0  0  0  0  0  0
  145.5900   75.1501  220.4705 H   0  0  0  0  0  0  0  0  0  0  0  0
  146.4615   72.7880  220.5578 H   0  0  0  0  0  0  0  0  0  0  0  0
  144.8623   70.8643  220.6154 H   0  0  0  0  0  0  0  0  0  0  0  0
  142.3820   71.2754  220.5544 H   0  0  0  0  0  0  0  0  0  0  0  0
  1  2  2  0
  2  3  2  0
  2  4  1  0
  4  5  1  0
  5  6  2  0
  6  7  1  0
  7  8  2  0
  8  9  1  0
  9 10  1  0
  9 11  1  0
  9 12  1  0
  8 13  1  0
 13 14  2  0
  2 15  1  0
 15 16  1  0
 16 17  1  0
 17 18  1  0
 18 19  2  0
 19 20  1  0
 20 21  2  0
 21 22  1  0
 22 23  2  0
 23 24  1  0
 24 25  1  0
 25 26  2  0
 26 27  1  0
 27 28  1  0
 28 29  2  0
 29 30  1  0
 30 31  2  0
 31 32  1  0
 32 33  2  0
 14  5  1  0
 24 15  1  0
 33 25  1  0
 23 18  1  0
 33 28  1  0
  4 34  1  0
  4 35  1  0
  6 36  1  0
  7 37  1  0
 13 38  1  0
 14 39  1  0
 16 40  1  0
 16 41  1  0
 17 42  1  0
 17 43  1  0
 19 44  1  0
 20 45  1  0
 21 46  1  0
 22 47  1  0
 24 48  1  6
 26 49  1  0
 27 50  1  0
 29 51  1  0
 30 52  1  0
 31 53  1  0
 32 54  1  0
M  END
>  <UniqueID>  (48) 
191

>  <SMILES>  (48) 
O=S(=O)(Cc1ccc(C(F)(F)F)cc1)N1CCc2ccccc2[C@@H]1c1c[nH]c2ccccc12

>  <Energy>  (48) 
98.23277094046774

>  <Genealogy>  (48) 
O=S(=O)(Cc1ccc(C(F)(F)F)cc1)N1CCc2ccccc2[C@@H]1c1c[nH]c2ccccc12 (3D coordinates assigned)
O=S(=O)(Cc1ccc(C(F)(F)F)cc1)N1CCc2ccccc2[C@@H]1c1c[nH]c2ccccc12 (nonaromatic ring conformer: 98.23277094046774 kcal/mol)

>  <smiles>  (48) 
O=S(=O)(Cc1ccc(C(F)(F)F)cc1)N1CCc2ccccc2[C@@H]1c1c[nH]c2ccccc12

>  <score_type>  (48) 
oracle

>  <origin>  (48) 
autodockgpu

>  <m_score__min__energy>  (48) 
-7.4100000000000001

>  <m_primary>  (48) 
energy

>  <meeko>  (48) 
{"free_energy": -7.38, "intermolecular_energy": -8.87, "internal_energy": -2.01, "cluster_size": 9, "cluster_id": 1, "rank_in_cluster": 5}

>  <energy>  (48) 
-7.32

>  <cluster_rmsd>  (48) 
0.1

>  <rmsd>  (48) 
271.28

>  <cluster>  (48) 
1

$$$$
MHMHNRBLDMQEKR-XMMPIXPANA-N
     RDKit          3D

 54 58  0  0  0  0  0  0  0  0999 V2000
  139.2160   76.9990  219.6540 O   0  0  0  0  0  0  0  0  0  0  0  0
  140.5880   76.6950  219.1190 S   0  0  0  0  0  0  0  0  0  0  0  0
  140.5130   75.4620  218.2620 O   0  0  0  0  0  0  0  0  0  0  0  0
  141.1270   78.0650  218.1050 C   0  0  0  0  0  0  0  0  0  0  0  0
  140.9120   79.3660  218.8260 C   0  0  0  0  0  0  0  0  0  0  0  0
  142.0050   80.0740  219.3460 C   0  0  0  0  0  0  0  0  0  0  0  0
  141.8050   81.2650  220.0500 C   0  0  0  0  0  0  0  0  0  0  0  0
  140.5080   81.7730  220.2360 C   0  0  0  0  0  0  0  0  0  0  0  0
  140.2880   83.0300  221.0390 C   0  0  0  0  0  0  0  0  0  0  0  0
  141.4440   83.3910  221.7080 F   0  0  0  0  0  0  0  0  0  0  0  0
  139.2870   82.8420  221.9760 F   0  0  0  0  0  0  0  0  0  0  0  0
  139.9220   84.0560  220.1880 F   0  0  0  0  0  0  0  0  0  0  0  0
  139.4130   81.0410  219.7470 C   0  0  0  0  0  0  0  0  0  0  0  0
  139.6130   79.8500  219.0430 C   0  0  0  0  0  0  0  0  0  0  0  0
  141.7300   76.4620  220.4410 N   0  0  0  0  0  0  0  0  0  0  0  0
  142.5970   75.2810  220.1830 C   0  0  0  0  0  0  0  0  0  0  0  0
  142.1300   73.9540  220.8560 C   0  0  0  0  0  0  0  0  0  0  0  0
  140.6820   73.9790  221.2820 C   0  0  0  0  0  0  0  0  0  0  0  0
  139.8900   72.8230  221.2020 C   0  0  0  0  0  0  0  0  0  0  0  0
  138.5310   72.8850  221.5130 C   0  0  0  0  0  0  0  0  0  0  0  0
  137.9510   74.1010  221.8820 C   0  0  0  0  0  0  0  0  0  0  0  0
  138.7360   75.2520  221.9790 C   0  0  0  0  0  0  0  0  0  0  0  0
  140.1250   75.1840  221.7460 C   0  0  0  0  0  0  0  0  0  0  0  0
  141.0740   76.3720  221.7650 C   0  0  2  0  0  0  0  0  0  0  0  0
  140.5320   77.7030  222.2710 C   0  0  0  0  0  0  0  0  0  0  0  0
  139.2210   77.9220  222.7040 C   0  0  0  0  0  0  0  0  0  0  0  0
  139.0910   79.1400  223.2710 N   0  0  0  0  0  0  0  0  0  0  0  0
  140.3160   79.6820  223.2680 C   0  0  0  0  0  0  0  0  0  0  0  0
  140.6860   80.9050  223.8260 C   0  0  0  0  0  0  0  0  0  0  0  0
  142.0470   81.2530  223.8100 C   0  0  0  0  0  0  0  0  0  0  0  0
  143.0000   80.3680  223.2670 C   0  0  0  0  0  0  0  0  0  0  0  0
  142.6010   79.1360  222.7210 C   0  0  0  0  0  0  0  0  0  0  0  0
  141.2350   78.8280  222.7040 C   0  0  0  0  0  0  0  0  0  0  0  0
  142.1970   77.9489  217.8778 H   0  0  0  0  0  0  0  0  0  0  0  0
  140.5417   78.0719  217.1737 H   0  0  0  0  0  0  0  0  0  0  0  0
  143.0253   79.6901  219.1991 H   0  0  0  0  0  0  0  0  0  0  0  0
  142.6686   81.8082  220.4612 H   0  0  0  0  0  0  0  0  0  0  0  0
  138.3904   81.4079  219.9194 H   0  0  0  0  0  0  0  0  0  0  0  0
  138.7483   79.2899  218.6575 H   0  0  0  0  0  0  0  0  0  0  0  0
  142.6334   75.1167  219.0960 H   0  0  0  0  0  0  0  0  0  0  0  0
  143.5759   75.5190  220.6248 H   0  0  0  0  0  0  0  0  0  0  0  0
  142.2692   73.1311  220.1394 H   0  0  0  0  0  0  0  0  0  0  0  0
  142.7351   73.8185  221.7646 H   0  0  0  0  0  0  0  0  0  0  0  0
  140.3406   71.8679  220.8941 H   0  0  0  0  0  0  0  0  0  0  0  0
  137.9154   71.9746  221.4675 H   0  0  0  0  0  0  0  0  0  0  0  0
  136.8734   74.1521  222.0967 H   0  0  0  0  0  0  0  0  0  0  0  0
  138.2695   76.2140  222.2378 H   0  0  0  0  0  0  0  0  0  0  0  0
  141.8109   76.1618  222.5542 H   0  0  0  0  0  0  0  0  0  0  0  0
  138.4017   77.1959  222.5966 H   0  0  0  0  0  0  0  0  0  0  0  0
  138.2230   79.5450  223.6870 H   0  0  0  0  0  0  0  0  0  0  0  0
  139.9346   81.5774  224.2657 H   0  0  0  0  0  0  0  0  0  0  0  0
  142.3701   82.2200  224.2229 H   0  0  0  0  0  0  0  0  0  0  0  0
  144.0649   80.6438  223.2706 H   0  0  0  0  0  0  0  0  0  0  0  0
  143.3430   78.4314  222.3172 H   0  0  0  0  0  0  0  0  0  0  0  0
  1  2  2  0
  2  3  2  0
  2  4  1  0
  4  5  1  0
  5  6  2  0
  6  7  1  0
  7  8  2  0
  8  9  1  0
  9 10  1  0
  9 11  1  0
  9 12  1  0
  8 13  1  0
 13 14  2  0
  2 15  1  0
 15 16  1  0
 16 17  1  0
 17 18  1  0
 18 19  2  0
 19 20  1  0
 20 21  2  0
 21 22  1  0
 22 23  2  0
 23 24  1  0
 24 25  1  0
 25 26  2  0
 26 27  1  0
 27 28  1  0
 28 29  2  0
 29 30  1  0
 30 31  2  0
 31 32  1  0
 32 33  2  0
 14  5  1  0
 24 15  1  0
 33 25  1  0
 23 18  1  0
 33 28  1  0
  4 34  1  0
  4 35  1  0
  6 36  1  0
  7 37  1  0
 13 38  1  0
 14 39  1  0
 16 40  1  0
 16 41  1  0
 17 42  1  0
 17 43  1  0
 19 44  1  0
 20 45  1  0
 21 46  1  0
 22 47  1  0
 24 48  1  1
 26 49  1  0
 27 50  1  0
 29 51  1  0
 30 52  1  0
 31 53  1  0
 32 54  1  0
M  END
>  <UniqueID>  (49) 
191

>  <SMILES>  (49) 
O=S(=O)(Cc1ccc(C(F)(F)F)cc1)N1CCc2ccccc2[C@@H]1c1c[nH]c2ccccc12

>  <Energy>  (49) 
98.23277094046774

>  <Genealogy>  (49) 
O=S(=O)(Cc1ccc(C(F)(F)F)cc1)N1CCc2ccccc2[C@@H]1c1c[nH]c2ccccc12 (3D coordinates assigned)
O=S(=O)(Cc1ccc(C(F)(F)F)cc1)N1CCc2ccccc2[C@@H]1c1c[nH]c2ccccc12 (nonaromatic ring conformer: 98.23277094046774 kcal/mol)

>  <smiles>  (49) 
O=S(=O)(Cc1ccc(C(F)(F)F)cc1)N1CCc2ccccc2[C@@H]1c1c[nH]c2ccccc12

>  <score_type>  (49) 
oracle

>  <origin>  (49) 
autodockgpu

>  <m_score__min__energy>  (49) 
-7.4100000000000001

>  <m_primary>  (49) 
energy

>  <meeko>  (49) 
{"free_energy": -6.44, "intermolecular_energy": -7.93, "internal_energy": -2.86, "cluster_size": 7, "cluster_id": 3, "rank_in_cluster": 3}

>  <energy>  (49) 
-7.3

>  <cluster_rmsd>  (49) 
0.3

>  <rmsd>  (49) 
271.19

>  <cluster>  (49) 
1

$$$$
MHMHNRBLDMQEKR-XMMPIXPANA-N
     RDKit          3D

 54 58  0  0  0  0  0  0  0  0999 V2000
  139.6820   75.0370  222.5680 O   0  0  0  0  0  0  0  0  0  0  0  0
  138.5260   75.0200  221.6050 S   0  0  0  0  0  0  0  0  0  0  0  0
  137.2780   74.6390  222.3520 O   0  0  0  0  0  0  0  0  0  0  0  0
  138.3130   76.6630  220.9340 C   0  0  0  0  0  0  0  0  0  0  0  0
  139.3810   77.5830  221.4520 C   0  0  0  0  0  0  0  0  0  0  0  0
  139.3880   77.9700  222.8010 C   0  0  0  0  0  0  0  0  0  0  0  0
  140.3590   78.8550  223.2770 C   0  0  0  0  0  0  0  0  0  0  0  0
  141.3470   79.3600  222.4140 C   0  0  0  0  0  0  0  0  0  0  0  0
  142.3630   80.3550  222.9160 C   0  0  0  0  0  0  0  0  0  0  0  0
  142.3650   81.4910  222.1260 F   0  0  0  0  0  0  0  0  0  0  0  0
  143.6340   79.8090  222.8920 F   0  0  0  0  0  0  0  0  0  0  0  0
  142.0500   80.7100  224.2140 F   0  0  0  0  0  0  0  0  0  0  0  0
  141.3140   79.0020  221.0560 C   0  0  0  0  0  0  0  0  0  0  0  0
  140.3420   78.1160  220.5800 C   0  0  0  0  0  0  0  0  0  0  0  0
  138.8330   73.8870  220.2910 N   0  0  0  0  0  0  0  0  0  0  0  0
  137.6360   73.0410  220.0390 C   0  0  0  0  0  0  0  0  0  0  0  0
  137.6490   71.6460  220.7380 C   0  0  0  0  0  0  0  0  0  0  0  0
  138.6360   71.5590  221.8770 C   0  0  0  0  0  0  0  0  0  0  0  0
  138.3460   70.8040  223.0220 C   0  0  0  0  0  0  0  0  0  0  0  0
  139.2280   70.8080  224.1040 C   0  0  0  0  0  0  0  0  0  0  0  0
  140.3900   71.5810  224.0570 C   0  0  0  0  0  0  0  0  0  0  0  0
  140.6940   72.3230  222.9130 C   0  0  0  0  0  0  0  0  0  0  0  0
  139.8520   72.2620  221.7840 C   0  0  0  0  0  0  0  0  0  0  0  0
  140.0430   73.0620  220.5060 C   0  0  2  0  0  0  0  0  0  0  0  0
  141.3460   73.8340  220.3430 C   0  0  0  0  0  0  0  0  0  0  0  0
  141.4770   75.2210  220.4590 C   0  0  0  0  0  0  0  0  0  0  0  0
  142.7750   75.5920  220.4550 N   0  0  0  0  0  0  0  0  0  0  0  0
  143.4840   74.4560  220.4050 C   0  0  0  0  0  0  0  0  0  0  0  0
  144.8720   74.3390  220.4620 C   0  0  0  0  0  0  0  0  0  0  0  0
  145.4240   73.0480  220.4990 C   0  0  0  0  0  0  0  0  0  0  0  0
  144.5840   71.9160  220.5040 C   0  0  0  0  0  0  0  0  0  0  0  0
  143.1870   72.0630  220.4580 C   0  0  0  0  0  0  0  0  0  0  0  0
  142.6570   73.3570  220.3750 C   0  0  0  0  0  0  0  0  0  0  0  0
  138.3751   76.6172  219.8367 H   0  0  0  0  0  0  0  0  0  0  0  0
  137.3299   77.0491  221.2413 H   0  0  0  0  0  0  0  0  0  0  0  0
  138.6249   77.5745  223.4874 H   0  0  0  0  0  0  0  0  0  0  0  0
  140.3501   79.1586  224.3342 H   0  0  0  0  0  0  0  0  0  0  0  0
  142.0576   79.4213  220.3623 H   0  0  0  0  0  0  0  0  0  0  0  0
  140.3311   77.8357  219.5164 H   0  0  0  0  0  0  0  0  0  0  0  0
  136.7507   73.5902  220.3920 H   0  0  0  0  0  0  0  0  0  0  0  0
  137.6264   72.8403  218.9575 H   0  0  0  0  0  0  0  0  0  0  0  0
  136.6422   71.4433  221.1320 H   0  0  0  0  0  0  0  0  0  0  0  0
  137.9552   70.9061  219.9838 H   0  0  0  0  0  0  0  0  0  0  0  0
  137.4226   70.2079  223.0679 H   0  0  0  0  0  0  0  0  0  0  0  0
  139.0074   70.2015  224.9948 H   0  0  0  0  0  0  0  0  0  0  0  0
  141.0678   71.6058  224.9230 H   0  0  0  0  0  0  0  0  0  0  0  0
  141.5929   72.9566  222.8931 H   0  0  0  0  0  0  0  0  0  0  0  0
  140.1633   72.3245  219.6988 H   0  0  0  0  0  0  0  0  0  0  0  0
  140.6316   75.9198  220.5427 H   0  0  0  0  0  0  0  0  0  0  0  0
  143.1460   76.5640  220.5420 H   0  0  0  0  0  0  0  0  0  0  0  0
  145.5155   75.2310  220.4776 H   0  0  0  0  0  0  0  0  0  0  0  0
  146.5162   72.9198  220.5242 H   0  0  0  0  0  0  0  0  0  0  0  0
  145.0255   70.9093  220.5442 H   0  0  0  0  0  0  0  0  0  0  0  0
  142.5264   71.1839  220.4864 H   0  0  0  0  0  0  0  0  0  0  0  0
  1  2  2  0
  2  3  2  0
  2  4  1  0
  4  5  1  0
  5  6  2  0
  6  7  1  0
  7  8  2  0
  8  9  1  0
  9 10  1  0
  9 11  1  0
  9 12  1  0
  8 13  1  0
 13 14  2  0
  2 15  1  0
 15 16  1  0
 16 17  1  0
 17 18  1  0
 18 19  2  0
 19 20  1  0
 20 21  2  0
 21 22  1  0
 22 23  2  0
 23 24  1  0
 24 25  1  0
 25 26  2  0
 26 27  1  0
 27 28  1  0
 28 29  2  0
 29 30  1  0
 30 31  2  0
 31 32  1  0
 32 33  2  0
 14  5  1  0
 24 15  1  0
 33 25  1  0
 23 18  1  0
 33 28  1  0
  4 34  1  0
  4 35  1  0
  6 36  1  0
  7 37  1  0
 13 38  1  0
 14 39  1  0
 16 40  1  0
 16 41  1  0
 17 42  1  0
 17 43  1  0
 19 44  1  0
 20 45  1  0
 21 46  1  0
 22 47  1  0
 24 48  1  6
 26 49  1  0
 27 50  1  0
 29 51  1  0
 30 52  1  0
 31 53  1  0
 32 54  1  0
M  END
>  <UniqueID>  (50) 
191

>  <SMILES>  (50) 
O=S(=O)(Cc1ccc(C(F)(F)F)cc1)N1CCc2ccccc2[C@@H]1c1c[nH]c2ccccc12

>  <Energy>  (50) 
98.23277094046774

>  <Genealogy>  (50) 
O=S(=O)(Cc1ccc(C(F)(F)F)cc1)N1CCc2ccccc2[C@@H]1c1c[nH]c2ccccc12 (3D coordinates assigned)
O=S(=O)(Cc1ccc(C(F)(F)F)cc1)N1CCc2ccccc2[C@@H]1c1c[nH]c2ccccc12 (nonaromatic ring conformer: 98.23277094046774 kcal/mol)

>  <smiles>  (50) 
O=S(=O)(Cc1ccc(C(F)(F)F)cc1)N1CCc2ccccc2[C@@H]1c1c[nH]c2ccccc12

>  <score_type>  (50) 
oracle

>  <origin>  (50) 
autodockgpu

>  <m_score__min__energy>  (50) 
-7.4100000000000001

>  <m_primary>  (50) 
energy

>  <meeko>  (50) 
{"free_energy": -7.3, "intermolecular_energy": -8.79, "internal_energy": -2.01, "cluster_size": 9, "cluster_id": 1, "rank_in_cluster": 9}

>  <energy>  (50) 
-7.12

>  <cluster_rmsd>  (50) 
0.0

>  <rmsd>  (50) 
271.06

>  <cluster>  (50) 
2

$$$$
MHMHNRBLDMQEKR-XMMPIXPANA-N
     RDKit          3D

 54 58  0  0  0  0  0  0  0  0999 V2000
  142.1730   75.2830  221.5880 O   0  0  0  0  0  0  0  0  0  0  0  0
  140.8060   74.8630  221.1220 S   0  0  0  0  0  0  0  0  0  0  0  0
  140.3150   73.7470  222.0040 O   0  0  0  0  0  0  0  0  0  0  0  0
  139.6920   76.2510  221.2820 C   0  0  0  0  0  0  0  0  0  0  0  0
  140.4330   77.4640  221.7670 C   0  0  0  0  0  0  0  0  0  0  0  0
  141.0500   77.4570  223.0280 C   0  0  0  0  0  0  0  0  0  0  0  0
  141.7090   78.5970  223.4980 C   0  0  0  0  0  0  0  0  0  0  0  0
  141.7700   79.7590  222.7110 C   0  0  0  0  0  0  0  0  0  0  0  0
  142.4350   81.0050  223.2400 C   0  0  0  0  0  0  0  0  0  0  0  0
  143.8030   80.8220  223.3450 F   0  0  0  0  0  0  0  0  0  0  0  0
  141.9440   81.3260  224.4930 F   0  0  0  0  0  0  0  0  0  0  0  0
  142.1870   82.0550  222.3760 F   0  0  0  0  0  0  0  0  0  0  0  0
  141.1170   79.7760  221.4660 C   0  0  0  0  0  0  0  0  0  0  0  0
  140.4590   78.6350  220.9960 C   0  0  0  0  0  0  0  0  0  0  0  0
  140.8580   74.3450  219.4390 N   0  0  0  0  0  0  0  0  0  0  0  0
  140.6380   72.8770  219.3350 C   0  0  0  0  0  0  0  0  0  0  0  0
  141.9360   72.0160  219.2450 C   0  0  0  0  0  0  0  0  0  0  0  0
  143.1710   72.7480  219.7090 C   0  0  0  0  0  0  0  0  0  0  0  0
  144.1950   72.0710  220.3890 C   0  0  0  0  0  0  0  0  0  0  0  0
  145.2880   72.7790  220.8910 C   0  0  0  0  0  0  0  0  0  0  0  0
  145.3540   74.1660  220.7380 C   0  0  0  0  0  0  0  0  0  0  0  0
  144.3460   74.8450  220.0490 C   0  0  0  0  0  0  0  0  0  0  0  0
  143.2800   74.1300  219.4670 C   0  0  0  0  0  0  0  0  0  0  0  0
  142.0990   74.7560  218.7440 C   0  0  2  0  0  0  0  0  0  0  0  0
  142.1640   76.2480  218.4420 C   0  0  0  0  0  0  0  0  0  0  0  0
  143.3200   76.9420  218.0740 C   0  0  0  0  0  0  0  0  0  0  0  0
  143.0320   78.2020  217.6860 N   0  0  0  0  0  0  0  0  0  0  0  0
  141.6970   78.3080  217.7360 C   0  0  0  0  0  0  0  0  0  0  0  0
  140.9350   79.4080  217.3450 C   0  0  0  0  0  0  0  0  0  0  0  0
  139.5360   79.2860  217.3780 C   0  0  0  0  0  0  0  0  0  0  0  0
  138.9380   78.0720  217.7700 C   0  0  0  0  0  0  0  0  0  0  0  0
  139.7300   76.9740  218.1470 C   0  0  0  0  0  0  0  0  0  0  0  0
  141.1220   77.1300  218.1540 C   0  0  0  0  0  0  0  0  0  0  0  0
  139.2416   76.4691  220.3024 H   0  0  0  0  0  0  0  0  0  0  0  0
  138.9079   75.9970  222.0105 H   0  0  0  0  0  0  0  0  0  0  0  0
  141.0148   76.5500  223.6494 H   0  0  0  0  0  0  0  0  0  0  0  0
  142.1828   78.5839  224.4906 H   0  0  0  0  0  0  0  0  0  0  0  0
  141.1237   80.6925  220.8578 H   0  0  0  0  0  0  0  0  0  0  0  0
  139.9592   78.6562  220.0163 H   0  0  0  0  0  0  0  0  0  0  0  0
  140.0757   72.5533  220.2233 H   0  0  0  0  0  0  0  0  0  0  0  0
  140.0980   72.7152  218.3904 H   0  0  0  0  0  0  0  0  0  0  0  0
  141.8051   71.1206  219.8705 H   0  0  0  0  0  0  0  0  0  0  0  0
  142.0862   71.7628  218.1851 H   0  0  0  0  0  0  0  0  0  0  0  0
  144.1362   70.9812  220.5265 H   0  0  0  0  0  0  0  0  0  0  0  0
  146.0985   72.2442  221.4078 H   0  0  0  0  0  0  0  0  0  0  0  0
  146.2017   74.7249  221.1611 H   0  0  0  0  0  0  0  0  0  0  0  0
  144.3844   75.9408  219.9605 H   0  0  0  0  0  0  0  0  0  0  0  0
  142.1242   74.3584  217.7187 H   0  0  0  0  0  0  0  0  0  0  0  0
  144.3339   76.5160  218.0976 H   0  0  0  0  0  0  0  0  0  0  0  0
  143.7100   78.9220  217.3510 H   0  0  0  0  0  0  0  0  0  0  0  0
  141.4148   80.3432  217.0205 H   0  0  0  0  0  0  0  0  0  0  0  0
  138.9048   80.1418  217.0967 H   0  0  0  0  0  0  0  0  0  0  0  0
  137.8417   77.9828  217.7811 H   0  0  0  0  0  0  0  0  0  0  0  0
  139.2684   76.0163  218.4294 H   0  0  0  0  0  0  0  0  0  0  0  0
  1  2  2  0
  2  3  2  0
  2  4  1  0
  4  5  1  0
  5  6  2  0
  6  7  1  0
  7  8  2  0
  8  9  1  0
  9 10  1  0
  9 11  1  0
  9 12  1  0
  8 13  1  0
 13 14  2  0
  2 15  1  0
 15 16  1  0
 16 17  1  0
 17 18  1  0
 18 19  2  0
 19 20  1  0
 20 21  2  0
 21 22  1  0
 22 23  2  0
 23 24  1  0
 24 25  1  0
 25 26  2  0
 26 27  1  0
 27 28  1  0
 28 29  2  0
 29 30  1  0
 30 31  2  0
 31 32  1  0
 32 33  2  0
 14  5  1  0
 24 15  1  0
 33 25  1  0
 23 18  1  0
 33 28  1  0
  4 34  1  0
  4 35  1  0
  6 36  1  0
  7 37  1  0
 13 38  1  0
 14 39  1  0
 16 40  1  0
 16 41  1  0
 17 42  1  0
 17 43  1  0
 19 44  1  0
 20 45  1  0
 21 46  1  0
 22 47  1  0
 24 48  1  6
 26 49  1  0
 27 50  1  0
 29 51  1  0
 30 52  1  0
 31 53  1  0
 32 54  1  0
M  END
>  <UniqueID>  (51) 
191

>  <SMILES>  (51) 
O=S(=O)(Cc1ccc(C(F)(F)F)cc1)N1CCc2ccccc2[C@@H]1c1c[nH]c2ccccc12

>  <Energy>  (51) 
98.23277094046774

>  <Genealogy>  (51) 
O=S(=O)(Cc1ccc(C(F)(F)F)cc1)N1CCc2ccccc2[C@@H]1c1c[nH]c2ccccc12 (3D coordinates assigned)
O=S(=O)(Cc1ccc(C(F)(F)F)cc1)N1CCc2ccccc2[C@@H]1c1c[nH]c2ccccc12 (nonaromatic ring conformer: 98.23277094046774 kcal/mol)

>  <smiles>  (51) 
O=S(=O)(Cc1ccc(C(F)(F)F)cc1)N1CCc2ccccc2[C@@H]1c1c[nH]c2ccccc12

>  <score_type>  (51) 
oracle

>  <origin>  (51) 
autodockgpu

>  <m_score__min__energy>  (51) 
-7.4100000000000001

>  <m_primary>  (51) 
energy

>  <meeko>  (51) 
{"free_energy": -7.09, "intermolecular_energy": -8.58, "internal_energy": -2.24, "cluster_size": 4, "cluster_id": 2, "rank_in_cluster": 2}

>  <energy>  (51) 
-7.09

>  <cluster_rmsd>  (51) 
0.05

>  <rmsd>  (51) 
271.05

>  <cluster>  (51) 
2

$$$$
MHMHNRBLDMQEKR-XMMPIXPANA-N
     RDKit          3D

 54 58  0  0  0  0  0  0  0  0999 V2000
  142.1430   75.2720  221.5940 O   0  0  0  0  0  0  0  0  0  0  0  0
  140.7860   74.8200  221.1290 S   0  0  0  0  0  0  0  0  0  0  0  0
  140.3290   73.6810  221.9990 O   0  0  0  0  0  0  0  0  0  0  0  0
  139.6350   76.1760  221.3100 C   0  0  0  0  0  0  0  0  0  0  0  0
  140.3560   77.4170  221.7560 C   0  0  0  0  0  0  0  0  0  0  0  0
  141.0330   77.4370  222.9850 C   0  0  0  0  0  0  0  0  0  0  0  0
  141.6720   78.6020  223.4200 C   0  0  0  0  0  0  0  0  0  0  0  0
  141.6530   79.7630  222.6280 C   0  0  0  0  0  0  0  0  0  0  0  0
  142.2980   81.0330  223.1210 C   0  0  0  0  0  0  0  0  0  0  0  0
  143.6430   80.8320  223.3770 F   0  0  0  0  0  0  0  0  0  0  0  0
  141.6950   81.4650  224.2890 F   0  0  0  0  0  0  0  0  0  0  0  0
  142.1650   82.0150  222.1560 F   0  0  0  0  0  0  0  0  0  0  0  0
  140.9400   79.7500  221.4170 C   0  0  0  0  0  0  0  0  0  0  0  0
  140.3010   78.5850  220.9820 C   0  0  0  0  0  0  0  0  0  0  0  0
  140.8430   74.3240  219.4400 N   0  0  0  0  0  0  0  0  0  0  0  0
  140.6240   72.8570  219.3160 C   0  0  0  0  0  0  0  0  0  0  0  0
  141.9220   71.9970  219.2190 C   0  0  0  0  0  0  0  0  0  0  0  0
  143.1560   72.7240  219.6960 C   0  0  0  0  0  0  0  0  0  0  0  0
  144.1770   72.0390  220.3700 C   0  0  0  0  0  0  0  0  0  0  0  0
  145.2690   72.7400  220.8850 C   0  0  0  0  0  0  0  0  0  0  0  0
  145.3350   74.1290  220.7500 C   0  0  0  0  0  0  0  0  0  0  0  0
  144.3290   74.8170  220.0660 C   0  0  0  0  0  0  0  0  0  0  0  0
  143.2650   74.1090  219.4720 C   0  0  0  0  0  0  0  0  0  0  0  0
  142.0860   74.7440  218.7540 C   0  0  2  0  0  0  0  0  0  0  0  0
  142.1520   76.2390  218.4700 C   0  0  0  0  0  0  0  0  0  0  0  0
  143.3130   76.9420  218.1380 C   0  0  0  0  0  0  0  0  0  0  0  0
  143.0290   78.2060  217.7580 N   0  0  0  0  0  0  0  0  0  0  0  0
  141.6920   78.3060  217.7780 C   0  0  0  0  0  0  0  0  0  0  0  0
  140.9350   79.4080  217.3830 C   0  0  0  0  0  0  0  0  0  0  0  0
  139.5360   79.2800  217.3820 C   0  0  0  0  0  0  0  0  0  0  0  0
  138.9340   78.0590  217.7460 C   0  0  0  0  0  0  0  0  0  0  0  0
  139.7220   76.9600  218.1280 C   0  0  0  0  0  0  0  0  0  0  0  0
  141.1130   77.1210  218.1690 C   0  0  0  0  0  0  0  0  0  0  0  0
  139.1459   76.3681  220.3436 H   0  0  0  0  0  0  0  0  0  0  0  0
  138.8829   75.9080  222.0667 H   0  0  0  0  0  0  0  0  0  0  0  0
  141.0611   76.5317  223.6092 H   0  0  0  0  0  0  0  0  0  0  0  0
  142.1932   78.6100  224.3887 H   0  0  0  0  0  0  0  0  0  0  0  0
  140.8842   80.6635  220.8067 H   0  0  0  0  0  0  0  0  0  0  0  0
  139.7527   78.5847  220.0284 H   0  0  0  0  0  0  0  0  0  0  0  0
  140.0588   72.5216  220.1981 H   0  0  0  0  0  0  0  0  0  0  0  0
  140.0876   72.7078  218.3673 H   0  0  0  0  0  0  0  0  0  0  0  0
  141.7894   71.0940  219.8329 H   0  0  0  0  0  0  0  0  0  0  0  0
  142.0753   71.7566  218.1566 H   0  0  0  0  0  0  0  0  0  0  0  0
  144.1175   70.9475  220.4932 H   0  0  0  0  0  0  0  0  0  0  0  0
  146.0778   72.1984  221.3973 H   0  0  0  0  0  0  0  0  0  0  0  0
  146.1811   74.6826  221.1832 H   0  0  0  0  0  0  0  0  0  0  0  0
  144.3678   75.9138  219.9911 H   0  0  0  0  0  0  0  0  0  0  0  0
  142.1139   74.3592  217.7239 H   0  0  0  0  0  0  0  0  0  0  0  0
  144.3279   76.5199  218.1807 H   0  0  0  0  0  0  0  0  0  0  0  0
  143.7110   78.9330  217.4470 H   0  0  0  0  0  0  0  0  0  0  0  0
  141.4183   80.3490  217.0813 H   0  0  0  0  0  0  0  0  0  0  0  0
  138.9079   80.1365  217.0959 H   0  0  0  0  0  0  0  0  0  0  0  0
  137.8381   77.9654  217.7310 H   0  0  0  0  0  0  0  0  0  0  0  0
  139.2581   75.9972  218.3884 H   0  0  0  0  0  0  0  0  0  0  0  0
  1  2  2  0
  2  3  2  0
  2  4  1  0
  4  5  1  0
  5  6  2  0
  6  7  1  0
  7  8  2  0
  8  9  1  0
  9 10  1  0
  9 11  1  0
  9 12  1  0
  8 13  1  0
 13 14  2  0
  2 15  1  0
 15 16  1  0
 16 17  1  0
 17 18  1  0
 18 19  2  0
 19 20  1  0
 20 21  2  0
 21 22  1  0
 22 23  2  0
 23 24  1  0
 24 25  1  0
 25 26  2  0
 26 27  1  0
 27 28  1  0
 28 29  2  0
 29 30  1  0
 30 31  2  0
 31 32  1  0
 32 33  2  0
 14  5  1  0
 24 15  1  0
 33 25  1  0
 23 18  1  0
 33 28  1  0
  4 34  1  0
  4 35  1  0
  6 36  1  0
  7 37  1  0
 13 38  1  0
 14 39  1  0
 16 40  1  0
 16 41  1  0
 17 42  1  0
 17 43  1  0
 19 44  1  0
 20 45  1  0
 21 46  1  0
 22 47  1  0
 24 48  1  6
 26 49  1  0
 27 50  1  0
 29 51  1  0
 30 52  1  0
 31 53  1  0
 32 54  1  0
M  END
>  <UniqueID>  (52) 
191

>  <SMILES>  (52) 
O=S(=O)(Cc1ccc(C(F)(F)F)cc1)N1CCc2ccccc2[C@@H]1c1c[nH]c2ccccc12

>  <Energy>  (52) 
98.23277094046774

>  <Genealogy>  (52) 
O=S(=O)(Cc1ccc(C(F)(F)F)cc1)N1CCc2ccccc2[C@@H]1c1c[nH]c2ccccc12 (3D coordinates assigned)
O=S(=O)(Cc1ccc(C(F)(F)F)cc1)N1CCc2ccccc2[C@@H]1c1c[nH]c2ccccc12 (nonaromatic ring conformer: 98.23277094046774 kcal/mol)

>  <smiles>  (52) 
O=S(=O)(Cc1ccc(C(F)(F)F)cc1)N1CCc2ccccc2[C@@H]1c1c[nH]c2ccccc12

>  <score_type>  (52) 
oracle

>  <origin>  (52) 
autodockgpu

>  <m_score__min__energy>  (52) 
-7.4100000000000001

>  <m_primary>  (52) 
energy

>  <meeko>  (52) 
{"free_energy": -7.09, "intermolecular_energy": -8.58, "internal_energy": -2.26, "cluster_size": 4, "cluster_id": 2, "rank_in_cluster": 3}

>  <energy>  (52) 
-7.09

>  <cluster_rmsd>  (52) 
0.12

>  <rmsd>  (52) 
271.01

>  <cluster>  (52) 
2

$$$$
MHMHNRBLDMQEKR-XMMPIXPANA-N
     RDKit          3D

 54 58  0  0  0  0  0  0  0  0999 V2000
  139.8220   75.1880  222.5400 O   0  0  0  0  0  0  0  0  0  0  0  0
  138.6520   75.2450  221.5960 S   0  0  0  0  0  0  0  0  0  0  0  0
  137.4020   74.8850  222.3510 O   0  0  0  0  0  0  0  0  0  0  0  0
  138.4890   76.9150  220.9820 C   0  0  0  0  0  0  0  0  0  0  0  0
  139.5600   77.7930  221.5640 C   0  0  0  0  0  0  0  0  0  0  0  0
  139.4960   78.1890  222.9080 C   0  0  0  0  0  0  0  0  0  0  0  0
  140.4710   79.0360  223.4420 C   0  0  0  0  0  0  0  0  0  0  0  0
  141.5320   79.4940  222.6430 C   0  0  0  0  0  0  0  0  0  0  0  0
  142.5550   80.4500  223.2040 C   0  0  0  0  0  0  0  0  0  0  0  0
  143.8150   80.1610  222.7130 F   0  0  0  0  0  0  0  0  0  0  0  0
  142.5980   80.3620  224.5850 F   0  0  0  0  0  0  0  0  0  0  0  0
  142.2160   81.7410  222.8460 F   0  0  0  0  0  0  0  0  0  0  0  0
  141.5710   79.1280  221.2860 C   0  0  0  0  0  0  0  0  0  0  0  0
  140.5960   78.2800  220.7530 C   0  0  0  0  0  0  0  0  0  0  0  0
  138.8960   74.1450  220.2410 N   0  0  0  0  0  0  0  0  0  0  0  0
  137.6570   73.3670  219.9690 C   0  0  0  0  0  0  0  0  0  0  0  0
  137.6060   71.9500  220.6180 C   0  0  0  0  0  0  0  0  0  0  0  0
  138.5940   71.7750  221.7470 C   0  0  0  0  0  0  0  0  0  0  0  0
  138.2720   70.9960  222.8680 C   0  0  0  0  0  0  0  0  0  0  0  0
  139.1590   70.9180  223.9430 C   0  0  0  0  0  0  0  0  0  0  0  0
  140.3580   71.6350  223.9150 C   0  0  0  0  0  0  0  0  0  0  0  0
  140.6920   72.4010  222.7950 C   0  0  0  0  0  0  0  0  0  0  0  0
  139.8420   72.4200  221.6710 C   0  0  0  0  0  0  0  0  0  0  0  0
  140.0650   73.2550  220.4200 C   0  0  2  0  0  0  0  0  0  0  0  0
  141.4040   73.9670  220.2750 C   0  0  0  0  0  0  0  0  0  0  0  0
  141.5930   75.3480  220.3840 C   0  0  0  0  0  0  0  0  0  0  0  0
  142.9060   75.6610  220.4000 N   0  0  0  0  0  0  0  0  0  0  0  0
  143.5650   74.4950  220.3700 C   0  0  0  0  0  0  0  0  0  0  0  0
  144.9460   74.3170  220.4520 C   0  0  0  0  0  0  0  0  0  0  0  0
  145.4390   73.0030  220.5070 C   0  0  0  0  0  0  0  0  0  0  0  0
  144.5500   71.9100  220.5050 C   0  0  0  0  0  0  0  0  0  0  0  0
  143.1620   72.1180  220.4330 C   0  0  0  0  0  0  0  0  0  0  0  0
  142.6910   73.4330  220.3320 C   0  0  0  0  0  0  0  0  0  0  0  0
  138.5811   76.9089  219.8859 H   0  0  0  0  0  0  0  0  0  0  0  0
  137.5051   77.3092  221.2761 H   0  0  0  0  0  0  0  0  0  0  0  0
  138.6739   77.8310  223.5452 H   0  0  0  0  0  0  0  0  0  0  0  0
  140.4072   79.3463  224.4954 H   0  0  0  0  0  0  0  0  0  0  0  0
  142.3741   79.5115  220.6395 H   0  0  0  0  0  0  0  0  0  0  0  0
  140.6413   77.9930  219.6921 H   0  0  0  0  0  0  0  0  0  0  0  0
  136.8018   73.9457  220.3481 H   0  0  0  0  0  0  0  0  0  0  0  0
  137.6311   73.2053  218.8813 H   0  0  0  0  0  0  0  0  0  0  0  0
  136.5926   71.7823  221.0115 H   0  0  0  0  0  0  0  0  0  0  0  0
  137.8720   71.2234  219.8362 H   0  0  0  0  0  0  0  0  0  0  0  0
  137.3198   70.4461  222.9001 H   0  0  0  0  0  0  0  0  0  0  0  0
  138.9138   70.2914  224.8132 H   0  0  0  0  0  0  0  0  0  0  0  0
  141.0406   71.5964  224.7767 H   0  0  0  0  0  0  0  0  0  0  0  0
  141.6206   72.9906  222.7906 H   0  0  0  0  0  0  0  0  0  0  0  0
  140.1441   72.5413  219.5867 H   0  0  0  0  0  0  0  0  0  0  0  0
  140.7778   76.0837  220.4484 H   0  0  0  0  0  0  0  0  0  0  0  0
  143.3180   76.6170  220.4880 H   0  0  0  0  0  0  0  0  0  0  0  0
  145.6283   75.1796  220.4729 H   0  0  0  0  0  0  0  0  0  0  0  0
  146.5238   72.8265  220.5518 H   0  0  0  0  0  0  0  0  0  0  0  0
  144.9457   70.8851  220.5603 H   0  0  0  0  0  0  0  0  0  0  0  0
  142.4629   71.2690  220.4554 H   0  0  0  0  0  0  0  0  0  0  0  0
  1  2  2  0
  2  3  2  0
  2  4  1  0
  4  5  1  0
  5  6  2  0
  6  7  1  0
  7  8  2  0
  8  9  1  0
  9 10  1  0
  9 11  1  0
  9 12  1  0
  8 13  1  0
 13 14  2  0
  2 15  1  0
 15 16  1  0
 16 17  1  0
 17 18  1  0
 18 19  2  0
 19 20  1  0
 20 21  2  0
 21 22  1  0
 22 23  2  0
 23 24  1  0
 24 25  1  0
 25 26  2  0
 26 27  1  0
 27 28  1  0
 28 29  2  0
 29 30  1  0
 30 31  2  0
 31 32  1  0
 32 33  2  0
 14  5  1  0
 24 15  1  0
 33 25  1  0
 23 18  1  0
 33 28  1  0
  4 34  1  0
  4 35  1  0
  6 36  1  0
  7 37  1  0
 13 38  1  0
 14 39  1  0
 16 40  1  0
 16 41  1  0
 17 42  1  0
 17 43  1  0
 19 44  1  0
 20 45  1  0
 21 46  1  0
 22 47  1  0
 24 48  1  6
 26 49  1  0
 27 50  1  0
 29 51  1  0
 30 52  1  0
 31 53  1  0
 32 54  1  0
M  END
>  <UniqueID>  (53) 
191

>  <SMILES>  (53) 
O=S(=O)(Cc1ccc(C(F)(F)F)cc1)N1CCc2ccccc2[C@@H]1c1c[nH]c2ccccc12

>  <Energy>  (53) 
98.23277094046774

>  <Genealogy>  (53) 
O=S(=O)(Cc1ccc(C(F)(F)F)cc1)N1CCc2ccccc2[C@@H]1c1c[nH]c2ccccc12 (3D coordinates assigned)
O=S(=O)(Cc1ccc(C(F)(F)F)cc1)N1CCc2ccccc2[C@@H]1c1c[nH]c2ccccc12 (nonaromatic ring conformer: 98.23277094046774 kcal/mol)

>  <smiles>  (53) 
O=S(=O)(Cc1ccc(C(F)(F)F)cc1)N1CCc2ccccc2[C@@H]1c1c[nH]c2ccccc12

>  <score_type>  (53) 
oracle

>  <origin>  (53) 
autodockgpu

>  <m_score__min__energy>  (53) 
-7.4100000000000001

>  <m_primary>  (53) 
energy

>  <meeko>  (53) 
{"free_energy": -7.4, "intermolecular_energy": -8.9, "internal_energy": -2.01, "cluster_size": 9, "cluster_id": 1, "rank_in_cluster": 3}

>  <energy>  (53) 
-7.08

>  <cluster_rmsd>  (53) 
0.14

>  <rmsd>  (53) 
271.0

>  <cluster>  (53) 
2

$$$$
MHMHNRBLDMQEKR-XMMPIXPANA-N
     RDKit          3D

 54 58  0  0  0  0  0  0  0  0999 V2000
  139.8380   75.2730  222.6660 O   0  0  0  0  0  0  0  0  0  0  0  0
  138.6300   75.3390  221.7730 S   0  0  0  0  0  0  0  0  0  0  0  0
  137.4100   74.9920  222.5820 O   0  0  0  0  0  0  0  0  0  0  0  0
  138.4570   77.0090  221.1620 C   0  0  0  0  0  0  0  0  0  0  0  0
  139.5380   77.8870  221.7250 C   0  0  0  0  0  0  0  0  0  0  0  0
  139.4320   78.3900  223.0300 C   0  0  0  0  0  0  0  0  0  0  0  0
  140.4190   79.2370  223.5430 C   0  0  0  0  0  0  0  0  0  0  0  0
  141.5330   79.5870  222.7610 C   0  0  0  0  0  0  0  0  0  0  0  0
  142.5710   80.5420  223.2960 C   0  0  0  0  0  0  0  0  0  0  0  0
  143.7130   80.5080  222.5160 F   0  0  0  0  0  0  0  0  0  0  0  0
  142.9210   80.2070  224.5920 F   0  0  0  0  0  0  0  0  0  0  0  0
  142.0560   81.8250  223.2860 F   0  0  0  0  0  0  0  0  0  0  0  0
  141.6160   79.1130  221.4410 C   0  0  0  0  0  0  0  0  0  0  0  0
  140.6290   78.2660  220.9290 C   0  0  0  0  0  0  0  0  0  0  0  0
  138.8050   74.2330  220.4130 N   0  0  0  0  0  0  0  0  0  0  0  0
  137.5440   73.4780  220.1860 C   0  0  0  0  0  0  0  0  0  0  0  0
  137.4900   72.0620  220.8390 C   0  0  0  0  0  0  0  0  0  0  0  0
  138.5140   71.8710  221.9320 C   0  0  0  0  0  0  0  0  0  0  0  0
  138.2190   71.0980  223.0650 C   0  0  0  0  0  0  0  0  0  0  0  0
  139.1420   71.0060  224.1080 C   0  0  0  0  0  0  0  0  0  0  0  0
  140.3510   71.7000  224.0360 C   0  0  0  0  0  0  0  0  0  0  0  0
  140.6590   72.4590  222.9040 C   0  0  0  0  0  0  0  0  0  0  0  0
  139.7700   72.4930  221.8100 C   0  0  0  0  0  0  0  0  0  0  0  0
  139.9630   73.3220  220.5510 C   0  0  2  0  0  0  0  0  0  0  0  0
  141.3090   74.0100  220.3570 C   0  0  0  0  0  0  0  0  0  0  0  0
  141.5220   75.3890  220.4280 C   0  0  0  0  0  0  0  0  0  0  0  0
  142.8390   75.6830  220.4050 N   0  0  0  0  0  0  0  0  0  0  0  0
  143.4800   74.5060  220.3880 C   0  0  0  0  0  0  0  0  0  0  0  0
  144.8590   74.3090  220.4430 C   0  0  0  0  0  0  0  0  0  0  0  0
  145.3340   72.9890  220.5180 C   0  0  0  0  0  0  0  0  0  0  0  0
  144.4290   71.9100  220.5640 C   0  0  0  0  0  0  0  0  0  0  0  0
  143.0430   72.1380  220.5200 C   0  0  0  0  0  0  0  0  0  0  0  0
  142.5900   73.4570  220.3970 C   0  0  0  0  0  0  0  0  0  0  0  0
  138.5300   77.0028  220.0644 H   0  0  0  0  0  0  0  0  0  0  0  0
  137.4785   77.4034  221.4735 H   0  0  0  0  0  0  0  0  0  0  0  0
  138.5677   78.1166  223.6532 H   0  0  0  0  0  0  0  0  0  0  0  0
  140.3230   79.6319  224.5652 H   0  0  0  0  0  0  0  0  0  0  0  0
  142.4636   79.4105  220.8061 H   0  0  0  0  0  0  0  0  0  0  0  0
  140.7082   77.8947  219.8966 H   0  0  0  0  0  0  0  0  0  0  0  0
  136.7134   74.0726  220.5940 H   0  0  0  0  0  0  0  0  0  0  0  0
  137.4770   73.3158  219.1001 H   0  0  0  0  0  0  0  0  0  0  0  0
  136.4884   71.9132  221.2686 H   0  0  0  0  0  0  0  0  0  0  0  0
  137.7143   71.3295  220.0496 H   0  0  0  0  0  0  0  0  0  0  0  0
  137.2596   70.5640  223.1314 H   0  0  0  0  0  0  0  0  0  0  0  0
  138.9164   70.3857  224.9880 H   0  0  0  0  0  0  0  0  0  0  0  0
  141.0632   71.6492  224.8727 H   0  0  0  0  0  0  0  0  0  0  0  0
  141.5975   73.0315  222.8662 H   0  0  0  0  0  0  0  0  0  0  0  0
  139.9991   72.6061  219.7166 H   0  0  0  0  0  0  0  0  0  0  0  0
  140.7196   76.1385  220.4941 H   0  0  0  0  0  0  0  0  0  0  0  0
  143.2670   76.6340  220.4590 H   0  0  0  0  0  0  0  0  0  0  0  0
  145.5542   75.1614  220.4281 H   0  0  0  0  0  0  0  0  0  0  0  0
  146.4169   72.7970  220.5409 H   0  0  0  0  0  0  0  0  0  0  0  0
  144.8105   70.8807  220.6349 H   0  0  0  0  0  0  0  0  0  0  0  0
  142.3318   71.3010  220.5807 H   0  0  0  0  0  0  0  0  0  0  0  0
  1  2  2  0
  2  3  2  0
  2  4  1  0
  4  5  1  0
  5  6  2  0
  6  7  1  0
  7  8  2  0
  8  9  1  0
  9 10  1  0
  9 11  1  0
  9 12  1  0
  8 13  1  0
 13 14  2  0
  2 15  1  0
 15 16  1  0
 16 17  1  0
 17 18  1  0
 18 19  2  0
 19 20  1  0
 20 21  2  0
 21 22  1  0
 22 23  2  0
 23 24  1  0
 24 25  1  0
 25 26  2  0
 26 27  1  0
 27 28  1  0
 28 29  2  0
 29 30  1  0
 30 31  2  0
 31 32  1  0
 32 33  2  0
 14  5  1  0
 24 15  1  0
 33 25  1  0
 23 18  1  0
 33 28  1  0
  4 34  1  0
  4 35  1  0
  6 36  1  0
  7 37  1  0
 13 38  1  0
 14 39  1  0
 16 40  1  0
 16 41  1  0
 17 42  1  0
 17 43  1  0
 19 44  1  0
 20 45  1  0
 21 46  1  0
 22 47  1  0
 24 48  1  6
 26 49  1  0
 27 50  1  0
 29 51  1  0
 30 52  1  0
 31 53  1  0
 32 54  1  0
M  END
>  <UniqueID>  (54) 
191

>  <SMILES>  (54) 
O=S(=O)(Cc1ccc(C(F)(F)F)cc1)N1CCc2ccccc2[C@@H]1c1c[nH]c2ccccc12

>  <Energy>  (54) 
98.23277094046774

>  <Genealogy>  (54) 
O=S(=O)(Cc1ccc(C(F)(F)F)cc1)N1CCc2ccccc2[C@@H]1c1c[nH]c2ccccc12 (3D coordinates assigned)
O=S(=O)(Cc1ccc(C(F)(F)F)cc1)N1CCc2ccccc2[C@@H]1c1c[nH]c2ccccc12 (nonaromatic ring conformer: 98.23277094046774 kcal/mol)

>  <smiles>  (54) 
O=S(=O)(Cc1ccc(C(F)(F)F)cc1)N1CCc2ccccc2[C@@H]1c1c[nH]c2ccccc12

>  <score_type>  (54) 
oracle

>  <origin>  (54) 
autodockgpu

>  <m_score__min__energy>  (54) 
-7.4100000000000001

>  <m_primary>  (54) 
energy

>  <meeko>  (54) 
{"free_energy": -7.4, "intermolecular_energy": -8.9, "internal_energy": -1.99, "cluster_size": 9, "cluster_id": 1, "rank_in_cluster": 4}

>  <energy>  (54) 
-6.46

>  <cluster_rmsd>  (54) 
0.0

>  <rmsd>  (54) 
271.72

>  <cluster>  (54) 
3

$$$$
MHMHNRBLDMQEKR-XMMPIXPANA-N
     RDKit          3D

 54 58  0  0  0  0  0  0  0  0999 V2000
  139.8160   75.2190  222.6630 O   0  0  0  0  0  0  0  0  0  0  0  0
  138.6050   75.2670  221.7720 S   0  0  0  0  0  0  0  0  0  0  0  0
  137.3930   74.8950  222.5800 O   0  0  0  0  0  0  0  0  0  0  0  0
  138.4010   76.9370  221.1690 C   0  0  0  0  0  0  0  0  0  0  0  0
  139.4880   77.8230  221.7060 C   0  0  0  0  0  0  0  0  0  0  0  0
  139.4490   78.2610  223.0380 C   0  0  0  0  0  0  0  0  0  0  0  0
  140.4390   79.1170  223.5300 C   0  0  0  0  0  0  0  0  0  0  0  0
  141.4910   79.5400  222.7000 C   0  0  0  0  0  0  0  0  0  0  0  0
  142.5300   80.5040  223.2150 C   0  0  0  0  0  0  0  0  0  0  0  0
  142.5850   80.4700  224.5970 F   0  0  0  0  0  0  0  0  0  0  0  0
  142.2300   81.7980  222.8260 F   0  0  0  0  0  0  0  0  0  0  0  0
  143.7660   80.1550  222.7050 F   0  0  0  0  0  0  0  0  0  0  0  0
  141.5050   79.1320  221.3550 C   0  0  0  0  0  0  0  0  0  0  0  0
  140.5140   78.2760  220.8640 C   0  0  0  0  0  0  0  0  0  0  0  0
  138.7990   74.1710  220.4060 N   0  0  0  0  0  0  0  0  0  0  0  0
  137.5460   73.4050  220.1660 C   0  0  0  0  0  0  0  0  0  0  0  0
  137.5010   71.9860  220.8110 C   0  0  0  0  0  0  0  0  0  0  0  0
  138.5200   71.7970  221.9090 C   0  0  0  0  0  0  0  0  0  0  0  0
  138.2250   71.0150  223.0350 C   0  0  0  0  0  0  0  0  0  0  0  0
  139.1430   70.9250  224.0830 C   0  0  0  0  0  0  0  0  0  0  0  0
  140.3460   71.6310  224.0220 C   0  0  0  0  0  0  0  0  0  0  0  0
  140.6540   72.3990  222.8970 C   0  0  0  0  0  0  0  0  0  0  0  0
  139.7710   72.4320  221.7980 C   0  0  0  0  0  0  0  0  0  0  0  0
  139.9640   73.2700  220.5450 C   0  0  2  0  0  0  0  0  0  0  0  0
  141.3040   73.9710  220.3630 C   0  0  0  0  0  0  0  0  0  0  0  0
  141.5060   75.3510  220.4520 C   0  0  0  0  0  0  0  0  0  0  0  0
  142.8210   75.6560  220.4370 N   0  0  0  0  0  0  0  0  0  0  0  0
  143.4710   74.4840  220.4070 C   0  0  0  0  0  0  0  0  0  0  0  0
  144.8520   74.2980  220.4620 C   0  0  0  0  0  0  0  0  0  0  0  0
  145.3370   72.9810  220.5220 C   0  0  0  0  0  0  0  0  0  0  0  0
  144.4410   71.8940  220.5520 C   0  0  0  0  0  0  0  0  0  0  0  0
  143.0530   72.1110  220.5070 C   0  0  0  0  0  0  0  0  0  0  0  0
  142.5900   73.4280  220.4000 C   0  0  0  0  0  0  0  0  0  0  0  0
  138.4458   76.9337  220.0699 H   0  0  0  0  0  0  0  0  0  0  0  0
  137.4273   77.3220  221.5061 H   0  0  0  0  0  0  0  0  0  0  0  0
  138.6350   77.9292  223.6992 H   0  0  0  0  0  0  0  0  0  0  0  0
  140.3940   79.4616  224.5737 H   0  0  0  0  0  0  0  0  0  0  0  0
  142.3007   79.4883  220.6842 H   0  0  0  0  0  0  0  0  0  0  0  0
  140.5394   77.9563  219.8118 H   0  0  0  0  0  0  0  0  0  0  0  0
  136.7069   73.9896  220.5711 H   0  0  0  0  0  0  0  0  0  0  0  0
  137.4879   73.2479  219.0788 H   0  0  0  0  0  0  0  0  0  0  0  0
  136.4982   71.8263  221.2339 H   0  0  0  0  0  0  0  0  0  0  0  0
  137.7369   71.2602  220.0188 H   0  0  0  0  0  0  0  0  0  0  0  0
  137.2699   70.4723  223.0926 H   0  0  0  0  0  0  0  0  0  0  0  0
  138.9183   70.2971  224.9578 H   0  0  0  0  0  0  0  0  0  0  0  0
  141.0535   71.5821  224.8629 H   0  0  0  0  0  0  0  0  0  0  0  0
  141.5878   72.9797  222.8681 H   0  0  0  0  0  0  0  0  0  0  0  0
  140.0118   72.5595  219.7066 H   0  0  0  0  0  0  0  0  0  0  0  0
  140.6974   76.0932  220.5249 H   0  0  0  0  0  0  0  0  0  0  0  0
  143.2410   76.6090  220.5040 H   0  0  0  0  0  0  0  0  0  0  0  0
  145.5403   75.1561  220.4585 H   0  0  0  0  0  0  0  0  0  0  0  0
  146.4213   72.7975  220.5457 H   0  0  0  0  0  0  0  0  0  0  0  0
  144.8309   70.8671  220.6111 H   0  0  0  0  0  0  0  0  0  0  0  0
  142.3484   71.2676  220.5546 H   0  0  0  0  0  0  0  0  0  0  0  0
  1  2  2  0
  2  3  2  0
  2  4  1  0
  4  5  1  0
  5  6  2  0
  6  7  1  0
  7  8  2  0
  8  9  1  0
  9 10  1  0
  9 11  1  0
  9 12  1  0
  8 13  1  0
 13 14  2  0
  2 15  1  0
 15 16  1  0
 16 17  1  0
 17 18  1  0
 18 19  2  0
 19 20  1  0
 20 21  2  0
 21 22  1  0
 22 23  2  0
 23 24  1  0
 24 25  1  0
 25 26  2  0
 26 27  1  0
 27 28  1  0
 28 29  2  0
 29 30  1  0
 30 31  2  0
 31 32  1  0
 32 33  2  0
 14  5  1  0
 24 15  1  0
 33 25  1  0
 23 18  1  0
 33 28  1  0
  4 34  1  0
  4 35  1  0
  6 36  1  0
  7 37  1  0
 13 38  1  0
 14 39  1  0
 16 40  1  0
 16 41  1  0
 17 42  1  0
 17 43  1  0
 19 44  1  0
 20 45  1  0
 21 46  1  0
 22 47  1  0
 24 48  1  6
 26 49  1  0
 27 50  1  0
 29 51  1  0
 30 52  1  0
 31 53  1  0
 32 54  1  0
M  END
>  <UniqueID>  (55) 
191

>  <SMILES>  (55) 
O=S(=O)(Cc1ccc(C(F)(F)F)cc1)N1CCc2ccccc2[C@@H]1c1c[nH]c2ccccc12

>  <Energy>  (55) 
98.23277094046774

>  <Genealogy>  (55) 
O=S(=O)(Cc1ccc(C(F)(F)F)cc1)N1CCc2ccccc2[C@@H]1c1c[nH]c2ccccc12 (3D coordinates assigned)
O=S(=O)(Cc1ccc(C(F)(F)F)cc1)N1CCc2ccccc2[C@@H]1c1c[nH]c2ccccc12 (nonaromatic ring conformer: 98.23277094046774 kcal/mol)

>  <smiles>  (55) 
O=S(=O)(Cc1ccc(C(F)(F)F)cc1)N1CCc2ccccc2[C@@H]1c1c[nH]c2ccccc12

>  <score_type>  (55) 
oracle

>  <origin>  (55) 
autodockgpu

>  <m_score__min__energy>  (55) 
-7.4100000000000001

>  <m_primary>  (55) 
energy

>  <meeko>  (55) 
{"free_energy": -7.38, "intermolecular_energy": -8.87, "internal_energy": -2.02, "cluster_size": 9, "cluster_id": 1, "rank_in_cluster": 6}

>  <energy>  (55) 
-6.44

>  <cluster_rmsd>  (55) 
0.63

>  <rmsd>  (55) 
271.56

>  <cluster>  (55) 
3

$$$$
MHMHNRBLDMQEKR-XMMPIXPANA-N
     RDKit          3D

 54 58  0  0  0  0  0  0  0  0999 V2000
  138.9430   77.2570  219.9670 O   0  0  0  0  0  0  0  0  0  0  0  0
  140.2890   76.7290  219.5540 S   0  0  0  0  0  0  0  0  0  0  0  0
  140.0890   75.4960  218.7160 O   0  0  0  0  0  0  0  0  0  0  0  0
  141.1130   77.9680  218.5630 C   0  0  0  0  0  0  0  0  0  0  0  0
  140.9100   79.3320  219.1570 C   0  0  0  0  0  0  0  0  0  0  0  0
  141.9930   80.0270  219.7170 C   0  0  0  0  0  0  0  0  0  0  0  0
  141.8000   81.2820  220.3040 C   0  0  0  0  0  0  0  0  0  0  0  0
  140.5220   81.8660  220.3310 C   0  0  0  0  0  0  0  0  0  0  0  0
  140.3040   83.1940  221.0100 C   0  0  0  0  0  0  0  0  0  0  0  0
  139.2760   83.1100  221.9310 F   0  0  0  0  0  0  0  0  0  0  0  0
  139.9760   84.1680  220.0830 F   0  0  0  0  0  0  0  0  0  0  0  0
  141.4640   83.5670  221.6630 F   0  0  0  0  0  0  0  0  0  0  0  0
  139.4330   81.1490  219.8050 C   0  0  0  0  0  0  0  0  0  0  0  0
  139.6270   79.8950  219.2180 C   0  0  0  0  0  0  0  0  0  0  0  0
  141.2720   76.3630  220.9700 N   0  0  0  0  0  0  0  0  0  0  0  0
  141.8750   75.0080  220.8530 C   0  0  0  0  0  0  0  0  0  0  0  0
  141.0910   73.8680  221.5720 C   0  0  0  0  0  0  0  0  0  0  0  0
  139.6610   74.2330  221.8860 C   0  0  0  0  0  0  0  0  0  0  0  0
  138.6430   73.2700  221.8210 C   0  0  0  0  0  0  0  0  0  0  0  0
  137.3130   73.6430  222.0250 C   0  0  0  0  0  0  0  0  0  0  0  0
  136.9910   74.9800  222.2710 C   0  0  0  0  0  0  0  0  0  0  0  0
  138.0000   75.9420  222.3520 C   0  0  0  0  0  0  0  0  0  0  0  0
  139.3530   75.5620  222.2290 C   0  0  0  0  0  0  0  0  0  0  0  0
  140.5340   76.5180  222.2430 C   0  0  2  0  0  0  0  0  0  0  0  0
  140.2650   77.9700  222.6210 C   0  0  0  0  0  0  0  0  0  0  0  0
  139.0350   78.4710  223.0550 C   0  0  0  0  0  0  0  0  0  0  0  0
  139.1520   79.7410  223.4970 N   0  0  0  0  0  0  0  0  0  0  0  0
  140.4550   80.0420  223.4150 C   0  0  0  0  0  0  0  0  0  0  0  0
  141.0640   81.2220  223.8390 C   0  0  0  0  0  0  0  0  0  0  0  0
  142.4640   81.3060  223.7620 C   0  0  0  0  0  0  0  0  0  0  0  0
  143.2170   80.2110  223.2930 C   0  0  0  0  0  0  0  0  0  0  0  0
  142.5780   79.0280  222.8840 C   0  0  0  0  0  0  0  0  0  0  0  0
  141.1790   78.9800  222.9240 C   0  0  0  0  0  0  0  0  0  0  0  0
  142.1896   77.7453  218.5256 H   0  0  0  0  0  0  0  0  0  0  0  0
  140.6890   77.9536  217.5481 H   0  0  0  0  0  0  0  0  0  0  0  0
  142.9989   79.5825  219.6942 H   0  0  0  0  0  0  0  0  0  0  0  0
  142.6540   81.8151  220.7473 H   0  0  0  0  0  0  0  0  0  0  0  0
  138.4212   81.5777  219.8556 H   0  0  0  0  0  0  0  0  0  0  0  0
  138.7688   79.3471  218.8018 H   0  0  0  0  0  0  0  0  0  0  0  0
  141.9392   74.7553  219.7844 H   0  0  0  0  0  0  0  0  0  0  0  0
  142.8543   75.0658  221.3506 H   0  0  0  0  0  0  0  0  0  0  0  0
  141.0901   72.9809  220.9216 H   0  0  0  0  0  0  0  0  0  0  0  0
  141.5969   73.6789  222.5303 H   0  0  0  0  0  0  0  0  0  0  0  0
  138.8928   72.2199  221.6091 H   0  0  0  0  0  0  0  0  0  0  0  0
  136.5180   72.8834  221.9920 H   0  0  0  0  0  0  0  0  0  0  0  0
  135.9396   75.2758  222.4013 H   0  0  0  0  0  0  0  0  0  0  0  0
  137.7392   76.9986  222.5121 H   0  0  0  0  0  0  0  0  0  0  0  0
  141.1589   76.2176  223.0969 H   0  0  0  0  0  0  0  0  0  0  0  0
  138.0928   77.9036  223.0386 H   0  0  0  0  0  0  0  0  0  0  0  0
  138.3890   80.3390  223.8860 H   0  0  0  0  0  0  0  0  0  0  0  0
  140.4662   82.0621  224.2224 H   0  0  0  0  0  0  0  0  0  0  0  0
  142.9748   82.2305  224.0691 H   0  0  0  0  0  0  0  0  0  0  0  0
  144.3137   80.2828  223.2467 H   0  0  0  0  0  0  0  0  0  0  0  0
  143.1622   78.1614  222.5410 H   0  0  0  0  0  0  0  0  0  0  0  0
  1  2  2  0
  2  3  2  0
  2  4  1  0
  4  5  1  0
  5  6  2  0
  6  7  1  0
  7  8  2  0
  8  9  1  0
  9 10  1  0
  9 11  1  0
  9 12  1  0
  8 13  1  0
 13 14  2  0
  2 15  1  0
 15 16  1  0
 16 17  1  0
 17 18  1  0
 18 19  2  0
 19 20  1  0
 20 21  2  0
 21 22  1  0
 22 23  2  0
 23 24  1  0
 24 25  1  0
 25 26  2  0
 26 27  1  0
 27 28  1  0
 28 29  2  0
 29 30  1  0
 30 31  2  0
 31 32  1  0
 32 33  2  0
 14  5  1  0
 24 15  1  0
 33 25  1  0
 23 18  1  0
 33 28  1  0
  4 34  1  0
  4 35  1  0
  6 36  1  0
  7 37  1  0
 13 38  1  0
 14 39  1  0
 16 40  1  0
 16 41  1  0
 17 42  1  0
 17 43  1  0
 19 44  1  0
 20 45  1  0
 21 46  1  0
 22 47  1  0
 24 48  1  1
 26 49  1  0
 27 50  1  0
 29 51  1  0
 30 52  1  0
 31 53  1  0
 32 54  1  0
M  END
>  <UniqueID>  (56) 
191

>  <SMILES>  (56) 
O=S(=O)(Cc1ccc(C(F)(F)F)cc1)N1CCc2ccccc2[C@@H]1c1c[nH]c2ccccc12

>  <Energy>  (56) 
98.23277094046774

>  <Genealogy>  (56) 
O=S(=O)(Cc1ccc(C(F)(F)F)cc1)N1CCc2ccccc2[C@@H]1c1c[nH]c2ccccc12 (3D coordinates assigned)
O=S(=O)(Cc1ccc(C(F)(F)F)cc1)N1CCc2ccccc2[C@@H]1c1c[nH]c2ccccc12 (nonaromatic ring conformer: 98.23277094046774 kcal/mol)

>  <smiles>  (56) 
O=S(=O)(Cc1ccc(C(F)(F)F)cc1)N1CCc2ccccc2[C@@H]1c1c[nH]c2ccccc12

>  <score_type>  (56) 
oracle

>  <origin>  (56) 
autodockgpu

>  <m_score__min__energy>  (56) 
-7.4100000000000001

>  <m_primary>  (56) 
energy

>  <meeko>  (56) 
{"free_energy": -6.46, "intermolecular_energy": -7.95, "internal_energy": -2.83, "cluster_size": 7, "cluster_id": 3, "rank_in_cluster": 1}

>  <energy>  (56) 
-6.44

>  <cluster_rmsd>  (56) 
0.63

>  <rmsd>  (56) 
271.56

>  <cluster>  (56) 
3

$$$$
MHMHNRBLDMQEKR-XMMPIXPANA-N
     RDKit          3D

 54 58  0  0  0  0  0  0  0  0999 V2000
  139.8160   75.1970  222.5760 O   0  0  0  0  0  0  0  0  0  0  0  0
  138.6310   75.2510  221.6510 S   0  0  0  0  0  0  0  0  0  0  0  0
  137.3950   74.8810  222.4230 O   0  0  0  0  0  0  0  0  0  0  0  0
  138.4500   76.9230  221.0470 C   0  0  0  0  0  0  0  0  0  0  0  0
  139.5250   77.8050  221.6150 C   0  0  0  0  0  0  0  0  0  0  0  0
  139.4610   78.2260  222.9520 C   0  0  0  0  0  0  0  0  0  0  0  0
  140.4410   79.0760  223.4720 C   0  0  0  0  0  0  0  0  0  0  0  0
  141.5070   79.5110  222.6670 C   0  0  0  0  0  0  0  0  0  0  0  0
  142.5350   80.4700  223.2140 C   0  0  0  0  0  0  0  0  0  0  0  0
  143.7910   80.1780  222.7120 F   0  0  0  0  0  0  0  0  0  0  0  0
  142.5910   80.3900  224.5940 F   0  0  0  0  0  0  0  0  0  0  0  0
  142.1930   81.7590  222.8500 F   0  0  0  0  0  0  0  0  0  0  0  0
  141.5470   79.1190  221.3180 C   0  0  0  0  0  0  0  0  0  0  0  0
  140.5670   78.2690  220.7980 C   0  0  0  0  0  0  0  0  0  0  0  0
  138.8610   74.1580  220.2880 N   0  0  0  0  0  0  0  0  0  0  0  0
  137.6170   73.3870  220.0190 C   0  0  0  0  0  0  0  0  0  0  0  0
  137.5650   71.9660  220.6610 C   0  0  0  0  0  0  0  0  0  0  0  0
  138.5600   71.7810  221.7810 C   0  0  0  0  0  0  0  0  0  0  0  0
  138.2440   70.9960  222.9000 C   0  0  0  0  0  0  0  0  0  0  0  0
  139.1380   70.9080  223.9680 C   0  0  0  0  0  0  0  0  0  0  0  0
  140.3390   71.6200  223.9340 C   0  0  0  0  0  0  0  0  0  0  0  0
  140.6690   72.3910  222.8170 C   0  0  0  0  0  0  0  0  0  0  0  0
  139.8100   72.4210  221.6990 C   0  0  0  0  0  0  0  0  0  0  0  0
  140.0270   73.2620  220.4520 C   0  0  2  0  0  0  0  0  0  0  0  0
  141.3680   73.9700  220.3010 C   0  0  0  0  0  0  0  0  0  0  0  0
  141.5630   75.3500  220.4130 C   0  0  0  0  0  0  0  0  0  0  0  0
  142.8770   75.6590  220.4220 N   0  0  0  0  0  0  0  0  0  0  0  0
  143.5320   74.4900  220.3850 C   0  0  0  0  0  0  0  0  0  0  0  0
  144.9120   74.3070  220.4600 C   0  0  0  0  0  0  0  0  0  0  0  0
  145.4010   72.9910  220.5080 C   0  0  0  0  0  0  0  0  0  0  0  0
  144.5080   71.9010  220.5080 C   0  0  0  0  0  0  0  0  0  0  0  0
  143.1200   72.1140  220.4450 C   0  0  0  0  0  0  0  0  0  0  0  0
  142.6540   73.4310  220.3500 C   0  0  0  0  0  0  0  0  0  0  0  0
  138.5246   76.9218  219.9495 H   0  0  0  0  0  0  0  0  0  0  0  0
  137.4690   77.3105  221.3591 H   0  0  0  0  0  0  0  0  0  0  0  0
  138.6354   77.8853  223.5941 H   0  0  0  0  0  0  0  0  0  0  0  0
  140.3772   79.4068  224.5191 H   0  0  0  0  0  0  0  0  0  0  0  0
  142.3551   79.4837  220.6669 H   0  0  0  0  0  0  0  0  0  0  0  0
  140.6129   77.9622  219.7427 H   0  0  0  0  0  0  0  0  0  0  0  0
  136.7665   73.9670  220.4066 H   0  0  0  0  0  0  0  0  0  0  0  0
  137.5830   73.2319  218.9305 H   0  0  0  0  0  0  0  0  0  0  0  0
  136.5538   71.8003  221.0611 H   0  0  0  0  0  0  0  0  0  0  0  0
  137.8223   71.2426  219.8733 H   0  0  0  0  0  0  0  0  0  0  0  0
  137.2903   70.4491  222.9356 H   0  0  0  0  0  0  0  0  0  0  0  0
  138.8967   70.2778  224.8367 H   0  0  0  0  0  0  0  0  0  0  0  0
  141.0278   71.5734  224.7904 H   0  0  0  0  0  0  0  0  0  0  0  0
  141.6006   72.9758  222.8094 H   0  0  0  0  0  0  0  0  0  0  0  0
  140.0968   72.5529  219.6140 H   0  0  0  0  0  0  0  0  0  0  0  0
  140.7508   76.0883  220.4845 H   0  0  0  0  0  0  0  0  0  0  0  0
  143.2930   76.6130  220.5100 H   0  0  0  0  0  0  0  0  0  0  0  0
  145.5973   75.1672  220.4810 H   0  0  0  0  0  0  0  0  0  0  0  0
  146.4855   72.8106  220.5457 H   0  0  0  0  0  0  0  0  0  0  0  0
  144.9004   70.8746  220.5577 H   0  0  0  0  0  0  0  0  0  0  0  0
  142.4178   71.2677  220.4697 H   0  0  0  0  0  0  0  0  0  0  0  0
  1  2  2  0
  2  3  2  0
  2  4  1  0
  4  5  1  0
  5  6  2  0
  6  7  1  0
  7  8  2  0
  8  9  1  0
  9 10  1  0
  9 11  1  0
  9 12  1  0
  8 13  1  0
 13 14  2  0
  2 15  1  0
 15 16  1  0
 16 17  1  0
 17 18  1  0
 18 19  2  0
 19 20  1  0
 20 21  2  0
 21 22  1  0
 22 23  2  0
 23 24  1  0
 24 25  1  0
 25 26  2  0
 26 27  1  0
 27 28  1  0
 28 29  2  0
 29 30  1  0
 30 31  2  0
 31 32  1  0
 32 33  2  0
 14  5  1  0
 24 15  1  0
 33 25  1  0
 23 18  1  0
 33 28  1  0
  4 34  1  0
  4 35  1  0
  6 36  1  0
  7 37  1  0
 13 38  1  0
 14 39  1  0
 16 40  1  0
 16 41  1  0
 17 42  1  0
 17 43  1  0
 19 44  1  0
 20 45  1  0
 21 46  1  0
 22 47  1  0
 24 48  1  6
 26 49  1  0
 27 50  1  0
 29 51  1  0
 30 52  1  0
 31 53  1  0
 32 54  1  0
M  END
>  <UniqueID>  (57) 
191

>  <SMILES>  (57) 
O=S(=O)(Cc1ccc(C(F)(F)F)cc1)N1CCc2ccccc2[C@@H]1c1c[nH]c2ccccc12

>  <Energy>  (57) 
98.23277094046774

>  <Genealogy>  (57) 
O=S(=O)(Cc1ccc(C(F)(F)F)cc1)N1CCc2ccccc2[C@@H]1c1c[nH]c2ccccc12 (3D coordinates assigned)
O=S(=O)(Cc1ccc(C(F)(F)F)cc1)N1CCc2ccccc2[C@@H]1c1c[nH]c2ccccc12 (nonaromatic ring conformer: 98.23277094046774 kcal/mol)

>  <smiles>  (57) 
O=S(=O)(Cc1ccc(C(F)(F)F)cc1)N1CCc2ccccc2[C@@H]1c1c[nH]c2ccccc12

>  <score_type>  (57) 
oracle

>  <origin>  (57) 
autodockgpu

>  <m_score__min__energy>  (57) 
-7.4100000000000001

>  <m_primary>  (57) 
energy

>  <meeko>  (57) 
{"free_energy": -7.41, "intermolecular_energy": -8.9, "internal_energy": -2.01, "cluster_size": 9, "cluster_id": 1, "rank_in_cluster": 1}

>  <energy>  (57) 
-6.43

>  <cluster_rmsd>  (57) 
0.88

>  <rmsd>  (57) 
271.56

>  <cluster>  (57) 
3

$$$$
MHMHNRBLDMQEKR-XMMPIXPANA-N
     RDKit          3D

 54 58  0  0  0  0  0  0  0  0999 V2000
  142.1610   75.2500  221.5980 O   0  0  0  0  0  0  0  0  0  0  0  0
  140.7960   74.8380  221.1180 S   0  0  0  0  0  0  0  0  0  0  0  0
  140.3000   73.7080  221.9780 O   0  0  0  0  0  0  0  0  0  0  0  0
  139.6810   76.2240  221.2950 C   0  0  0  0  0  0  0  0  0  0  0  0
  140.4240   77.4330  221.7890 C   0  0  0  0  0  0  0  0  0  0  0  0
  141.0620   77.4080  223.0390 C   0  0  0  0  0  0  0  0  0  0  0  0
  141.7220   78.5430  223.5170 C   0  0  0  0  0  0  0  0  0  0  0  0
  141.7630   79.7200  222.7500 C   0  0  0  0  0  0  0  0  0  0  0  0
  142.4300   80.9600  223.2880 C   0  0  0  0  0  0  0  0  0  0  0  0
  143.7960   80.7710  223.4010 F   0  0  0  0  0  0  0  0  0  0  0  0
  141.9320   81.2770  224.5400 F   0  0  0  0  0  0  0  0  0  0  0  0
  142.1910   82.0150  222.4280 F   0  0  0  0  0  0  0  0  0  0  0  0
  141.0890   79.7530  221.5170 C   0  0  0  0  0  0  0  0  0  0  0  0
  140.4300   78.6170  221.0380 C   0  0  0  0  0  0  0  0  0  0  0  0
  140.8570   74.3490  219.4270 N   0  0  0  0  0  0  0  0  0  0  0  0
  140.6420   72.8820  219.2970 C   0  0  0  0  0  0  0  0  0  0  0  0
  141.9420   72.0260  219.1980 C   0  0  0  0  0  0  0  0  0  0  0  0
  143.1740   72.7540  219.6800 C   0  0  0  0  0  0  0  0  0  0  0  0
  144.1960   72.0690  220.3520 C   0  0  0  0  0  0  0  0  0  0  0  0
  145.2850   72.7710  220.8710 C   0  0  0  0  0  0  0  0  0  0  0  0
  145.3480   74.1600  220.7420 C   0  0  0  0  0  0  0  0  0  0  0  0
  144.3410   74.8490  220.0600 C   0  0  0  0  0  0  0  0  0  0  0  0
  143.2790   74.1400  219.4610 C   0  0  0  0  0  0  0  0  0  0  0  0
  142.0990   74.7750  218.7440 C   0  0  2  0  0  0  0  0  0  0  0  0
  142.1620   76.2720  218.4670 C   0  0  0  0  0  0  0  0  0  0  0  0
  143.3190   76.9770  218.1260 C   0  0  0  0  0  0  0  0  0  0  0  0
  143.0300   78.2420  217.7550 N   0  0  0  0  0  0  0  0  0  0  0  0
  141.6940   78.3410  217.7900 C   0  0  0  0  0  0  0  0  0  0  0  0
  140.9320   79.4450  217.4070 C   0  0  0  0  0  0  0  0  0  0  0  0
  139.5340   79.3160  217.4190 C   0  0  0  0  0  0  0  0  0  0  0  0
  138.9360   78.0930  217.7830 C   0  0  0  0  0  0  0  0  0  0  0  0
  139.7280   76.9920  218.1530 C   0  0  0  0  0  0  0  0  0  0  0  0
  141.1190   77.1540  218.1800 C   0  0  0  0  0  0  0  0  0  0  0  0
  139.2270   76.4511  220.3191 H   0  0  0  0  0  0  0  0  0  0  0  0
  138.8993   75.9628  222.0235 H   0  0  0  0  0  0  0  0  0  0  0  0
  141.0423   76.4904  223.6453 H   0  0  0  0  0  0  0  0  0  0  0  0
  142.2131   78.5151  224.5009 H   0  0  0  0  0  0  0  0  0  0  0  0
  141.0800   80.6797  220.9245 H   0  0  0  0  0  0  0  0  0  0  0  0
  139.9137   78.6522  220.0673 H   0  0  0  0  0  0  0  0  0  0  0  0
  140.0768   72.5417  220.1772 H   0  0  0  0  0  0  0  0  0  0  0  0
  140.1070   72.7351  218.3472 H   0  0  0  0  0  0  0  0  0  0  0  0
  141.8108   71.1199  219.8077 H   0  0  0  0  0  0  0  0  0  0  0  0
  142.0973   71.7908  218.1347 H   0  0  0  0  0  0  0  0  0  0  0  0
  144.1396   70.9768  220.4704 H   0  0  0  0  0  0  0  0  0  0  0  0
  146.0946   72.2295  221.3822 H   0  0  0  0  0  0  0  0  0  0  0  0
  146.1925   74.7136  221.1783 H   0  0  0  0  0  0  0  0  0  0  0  0
  144.3769   75.9462  219.9903 H   0  0  0  0  0  0  0  0  0  0  0  0
  142.1284   74.3949  217.7122 H   0  0  0  0  0  0  0  0  0  0  0  0
  144.3345   76.5554  218.1561 H   0  0  0  0  0  0  0  0  0  0  0  0
  143.7100   78.9710  217.4410 H   0  0  0  0  0  0  0  0  0  0  0  0
  141.4117   80.3876  217.1049 H   0  0  0  0  0  0  0  0  0  0  0  0
  138.9026   80.1735  217.1430 H   0  0  0  0  0  0  0  0  0  0  0  0
  137.8400   77.9990  217.7776 H   0  0  0  0  0  0  0  0  0  0  0  0
  139.2671   76.0281  218.4146 H   0  0  0  0  0  0  0  0  0  0  0  0
  1  2  2  0
  2  3  2  0
  2  4  1  0
  4  5  1  0
  5  6  2  0
  6  7  1  0
  7  8  2  0
  8  9  1  0
  9 10  1  0
  9 11  1  0
  9 12  1  0
  8 13  1  0
 13 14  2  0
  2 15  1  0
 15 16  1  0
 16 17  1  0
 17 18  1  0
 18 19  2  0
 19 20  1  0
 20 21  2  0
 21 22  1  0
 22 23  2  0
 23 24  1  0
 24 25  1  0
 25 26  2  0
 26 27  1  0
 27 28  1  0
 28 29  2  0
 29 30  1  0
 30 31  2  0
 31 32  1  0
 32 33  2  0
 14  5  1  0
 24 15  1  0
 33 25  1  0
 23 18  1  0
 33 28  1  0
  4 34  1  0
  4 35  1  0
  6 36  1  0
  7 37  1  0
 13 38  1  0
 14 39  1  0
 16 40  1  0
 16 41  1  0
 17 42  1  0
 17 43  1  0
 19 44  1  0
 20 45  1  0
 21 46  1  0
 22 47  1  0
 24 48  1  6
 26 49  1  0
 27 50  1  0
 29 51  1  0
 30 52  1  0
 31 53  1  0
 32 54  1  0
M  END
>  <UniqueID>  (58) 
191

>  <SMILES>  (58) 
O=S(=O)(Cc1ccc(C(F)(F)F)cc1)N1CCc2ccccc2[C@@H]1c1c[nH]c2ccccc12

>  <Energy>  (58) 
98.23277094046774

>  <Genealogy>  (58) 
O=S(=O)(Cc1ccc(C(F)(F)F)cc1)N1CCc2ccccc2[C@@H]1c1c[nH]c2ccccc12 (3D coordinates assigned)
O=S(=O)(Cc1ccc(C(F)(F)F)cc1)N1CCc2ccccc2[C@@H]1c1c[nH]c2ccccc12 (nonaromatic ring conformer: 98.23277094046774 kcal/mol)

>  <smiles>  (58) 
O=S(=O)(Cc1ccc(C(F)(F)F)cc1)N1CCc2ccccc2[C@@H]1c1c[nH]c2ccccc12

>  <score_type>  (58) 
oracle

>  <origin>  (58) 
autodockgpu

>  <m_score__min__energy>  (58) 
-7.4100000000000001

>  <m_primary>  (58) 
energy

>  <meeko>  (58) 
{"free_energy": -7.12, "intermolecular_energy": -8.61, "internal_energy": -2.23, "cluster_size": 4, "cluster_id": 2, "rank_in_cluster": 1}

>  <energy>  (58) 
-6.43

>  <cluster_rmsd>  (58) 
0.88

>  <rmsd>  (58) 
271.57

>  <cluster>  (58) 
3

$$$$
MHMHNRBLDMQEKR-XMMPIXPANA-N
     RDKit          3D

 54 58  0  0  0  0  0  0  0  0999 V2000
  139.1880   77.0060  219.6650 O   0  0  0  0  0  0  0  0  0  0  0  0
  140.5590   76.7110  219.1200 S   0  0  0  0  0  0  0  0  0  0  0  0
  140.4860   75.4750  218.2670 O   0  0  0  0  0  0  0  0  0  0  0  0
  141.0790   78.0820  218.0980 C   0  0  0  0  0  0  0  0  0  0  0  0
  140.8770   79.3820  218.8240 C   0  0  0  0  0  0  0  0  0  0  0  0
  141.9800   80.0920  219.3210 C   0  0  0  0  0  0  0  0  0  0  0  0
  141.7920   81.2830  220.0300 C   0  0  0  0  0  0  0  0  0  0  0  0
  140.4980   81.7880  220.2440 C   0  0  0  0  0  0  0  0  0  0  0  0
  140.2930   83.0440  221.0520 C   0  0  0  0  0  0  0  0  0  0  0  0
  139.2680   82.8740  221.9670 F   0  0  0  0  0  0  0  0  0  0  0  0
  139.9660   84.1070  220.2280 F   0  0  0  0  0  0  0  0  0  0  0  0
  141.4580   83.3430  221.7320 F   0  0  0  0  0  0  0  0  0  0  0  0
  139.3940   81.0530  219.7790 C   0  0  0  0  0  0  0  0  0  0  0  0
  139.5820   79.8630  219.0700 C   0  0  0  0  0  0  0  0  0  0  0  0
  141.7120   76.4910  220.4340 N   0  0  0  0  0  0  0  0  0  0  0  0
  142.5860   75.3150  220.1720 C   0  0  0  0  0  0  0  0  0  0  0  0
  142.1340   73.9860  220.8530 C   0  0  0  0  0  0  0  0  0  0  0  0
  140.6890   74.0020  221.2900 C   0  0  0  0  0  0  0  0  0  0  0  0
  139.9050   72.8410  221.2200 C   0  0  0  0  0  0  0  0  0  0  0  0
  138.5480   72.8930  221.5420 C   0  0  0  0  0  0  0  0  0  0  0  0
  137.9630   74.1070  221.9110 C   0  0  0  0  0  0  0  0  0  0  0  0
  138.7400   75.2640  221.9980 C   0  0  0  0  0  0  0  0  0  0  0  0
  140.1270   75.2050  221.7550 C   0  0  0  0  0  0  0  0  0  0  0  0
  141.0680   76.4000  221.7630 C   0  0  2  0  0  0  0  0  0  0  0  0
  140.5200   77.7280  222.2690 C   0  0  0  0  0  0  0  0  0  0  0  0
  139.2070   77.9440  222.6960 C   0  0  0  0  0  0  0  0  0  0  0  0
  139.0710   79.1600  223.2650 N   0  0  0  0  0  0  0  0  0  0  0  0
  140.2950   79.7050  223.2690 C   0  0  0  0  0  0  0  0  0  0  0  0
  140.6590   80.9280  223.8320 C   0  0  0  0  0  0  0  0  0  0  0  0
  142.0190   81.2780  223.8230 C   0  0  0  0  0  0  0  0  0  0  0  0
  142.9770   80.3970  223.2830 C   0  0  0  0  0  0  0  0  0  0  0  0
  142.5840   79.1650  222.7330 C   0  0  0  0  0  0  0  0  0  0  0  0
  141.2180   78.8540  222.7070 C   0  0  0  0  0  0  0  0  0  0  0  0
  142.1447   77.9664  217.8511 H   0  0  0  0  0  0  0  0  0  0  0  0
  140.4767   78.0898  217.1776 H   0  0  0  0  0  0  0  0  0  0  0  0
  142.9978   79.7103  219.1523 H   0  0  0  0  0  0  0  0  0  0  0  0
  142.6630   81.8281  220.4228 H   0  0  0  0  0  0  0  0  0  0  0  0
  138.3745   81.4168  219.9744 H   0  0  0  0  0  0  0  0  0  0  0  0
  138.7105   79.3009  218.7032 H   0  0  0  0  0  0  0  0  0  0  0  0
  142.6146   75.1478  219.0852 H   0  0  0  0  0  0  0  0  0  0  0  0
  143.5668   75.5614  220.6049 H   0  0  0  0  0  0  0  0  0  0  0  0
  142.2737   73.1619  220.1379 H   0  0  0  0  0  0  0  0  0  0  0  0
  142.7471   73.8576  221.7572 H   0  0  0  0  0  0  0  0  0  0  0  0
  140.3602   71.8885  220.9110 H   0  0  0  0  0  0  0  0  0  0  0  0
  137.9388   71.9778  221.5053 H   0  0  0  0  0  0  0  0  0  0  0  0
  136.8867   74.1515  222.1337 H   0  0  0  0  0  0  0  0  0  0  0  0
  138.2685   76.2235  222.2568 H   0  0  0  0  0  0  0  0  0  0  0  0
  141.8130   76.1974  222.5465 H   0  0  0  0  0  0  0  0  0  0  0  0
  138.3897   77.2165  222.5829 H   0  0  0  0  0  0  0  0  0  0  0  0
  138.1990   79.5620  223.6770 H   0  0  0  0  0  0  0  0  0  0  0  0
  139.9041   81.5978  224.2696 H   0  0  0  0  0  0  0  0  0  0  0  0
  142.3380   82.2448  224.2396 H   0  0  0  0  0  0  0  0  0  0  0  0
  144.0410   80.6759  223.2921 H   0  0  0  0  0  0  0  0  0  0  0  0
  143.3299   78.4625  222.3330 H   0  0  0  0  0  0  0  0  0  0  0  0
  1  2  2  0
  2  3  2  0
  2  4  1  0
  4  5  1  0
  5  6  2  0
  6  7  1  0
  7  8  2  0
  8  9  1  0
  9 10  1  0
  9 11  1  0
  9 12  1  0
  8 13  1  0
 13 14  2  0
  2 15  1  0
 15 16  1  0
 16 17  1  0
 17 18  1  0
 18 19  2  0
 19 20  1  0
 20 21  2  0
 21 22  1  0
 22 23  2  0
 23 24  1  0
 24 25  1  0
 25 26  2  0
 26 27  1  0
 27 28  1  0
 28 29  2  0
 29 30  1  0
 30 31  2  0
 31 32  1  0
 32 33  2  0
 14  5  1  0
 24 15  1  0
 33 25  1  0
 23 18  1  0
 33 28  1  0
  4 34  1  0
  4 35  1  0
  6 36  1  0
  7 37  1  0
 13 38  1  0
 14 39  1  0
 16 40  1  0
 16 41  1  0
 17 42  1  0
 17 43  1  0
 19 44  1  0
 20 45  1  0
 21 46  1  0
 22 47  1  0
 24 48  1  1
 26 49  1  0
 27 50  1  0
 29 51  1  0
 30 52  1  0
 31 53  1  0
 32 54  1  0
M  END
>  <UniqueID>  (59) 
191

>  <SMILES>  (59) 
O=S(=O)(Cc1ccc(C(F)(F)F)cc1)N1CCc2ccccc2[C@@H]1c1c[nH]c2ccccc12

>  <Energy>  (59) 
98.23277094046774

>  <Genealogy>  (59) 
O=S(=O)(Cc1ccc(C(F)(F)F)cc1)N1CCc2ccccc2[C@@H]1c1c[nH]c2ccccc12 (3D coordinates assigned)
O=S(=O)(Cc1ccc(C(F)(F)F)cc1)N1CCc2ccccc2[C@@H]1c1c[nH]c2ccccc12 (nonaromatic ring conformer: 98.23277094046774 kcal/mol)

>  <smiles>  (59) 
O=S(=O)(Cc1ccc(C(F)(F)F)cc1)N1CCc2ccccc2[C@@H]1c1c[nH]c2ccccc12

>  <score_type>  (59) 
oracle

>  <origin>  (59) 
autodockgpu

>  <m_score__min__energy>  (59) 
-7.4100000000000001

>  <m_primary>  (59) 
energy

>  <meeko>  (59) 
{"free_energy": -6.44, "intermolecular_energy": -7.93, "internal_energy": -2.87, "cluster_size": 7, "cluster_id": 3, "rank_in_cluster": 2}

>  <energy>  (59) 
-6.43

>  <cluster_rmsd>  (59) 
0.88

>  <rmsd>  (59) 
271.56

>  <cluster>  (59) 
3

$$$$
MHMHNRBLDMQEKR-XMMPIXPANA-N
     RDKit          3D

 54 58  0  0  0  0  0  0  0  0999 V2000
  139.8500   75.2530  222.5140 O   0  0  0  0  0  0  0  0  0  0  0  0
  138.6560   75.2610  221.5980 S   0  0  0  0  0  0  0  0  0  0  0  0
  137.4350   74.8840  222.3900 O   0  0  0  0  0  0  0  0  0  0  0  0
  138.4350   76.9150  220.9570 C   0  0  0  0  0  0  0  0  0  0  0  0
  139.4650   77.8430  221.5370 C   0  0  0  0  0  0  0  0  0  0  0  0
  140.5460   78.2760  220.7550 C   0  0  0  0  0  0  0  0  0  0  0  0
  141.5250   79.1090  221.3030 C   0  0  0  0  0  0  0  0  0  0  0  0
  141.4340   79.5310  222.6400 C   0  0  0  0  0  0  0  0  0  0  0  0
  142.5180   80.3870  223.2460 C   0  0  0  0  0  0  0  0  0  0  0  0
  143.7310   80.1520  222.6250 F   0  0  0  0  0  0  0  0  0  0  0  0
  142.6610   80.1110  224.5950 F   0  0  0  0  0  0  0  0  0  0  0  0
  142.1840   81.7200  223.0920 F   0  0  0  0  0  0  0  0  0  0  0  0
  140.3720   79.0630  223.4320 C   0  0  0  0  0  0  0  0  0  0  0  0
  139.3920   78.2300  222.8830 C   0  0  0  0  0  0  0  0  0  0  0  0
  138.8970   74.1420  220.2590 N   0  0  0  0  0  0  0  0  0  0  0  0
  137.6590   73.3580  220.0030 C   0  0  0  0  0  0  0  0  0  0  0  0
  137.6130   71.9500  220.6740 C   0  0  0  0  0  0  0  0  0  0  0  0
  138.6060   71.7940  221.8000 C   0  0  0  0  0  0  0  0  0  0  0  0
  138.2910   71.0300  222.9340 C   0  0  0  0  0  0  0  0  0  0  0  0
  139.1830   70.9700  224.0060 C   0  0  0  0  0  0  0  0  0  0  0  0
  140.3790   71.6890  223.9620 C   0  0  0  0  0  0  0  0  0  0  0  0
  140.7080   72.4390  222.8300 C   0  0  0  0  0  0  0  0  0  0  0  0
  139.8520   72.4410  221.7100 C   0  0  0  0  0  0  0  0  0  0  0  0
  140.0690   73.2570  220.4460 C   0  0  2  0  0  0  0  0  0  0  0  0
  141.4050   73.9700  220.2840 C   0  0  0  0  0  0  0  0  0  0  0  0
  141.5950   75.3510  220.3850 C   0  0  0  0  0  0  0  0  0  0  0  0
  142.9070   75.6660  220.3870 N   0  0  0  0  0  0  0  0  0  0  0  0
  143.5670   74.5000  220.3570 C   0  0  0  0  0  0  0  0  0  0  0  0
  144.9490   74.3240  220.4270 C   0  0  0  0  0  0  0  0  0  0  0  0
  145.4440   73.0110  220.4840 C   0  0  0  0  0  0  0  0  0  0  0  0
  144.5560   71.9170  220.4960 C   0  0  0  0  0  0  0  0  0  0  0  0
  143.1670   72.1230  220.4360 C   0  0  0  0  0  0  0  0  0  0  0  0
  142.6940   73.4370  220.3330 C   0  0  0  0  0  0  0  0  0  0  0  0
  138.5393   76.8964  219.8621 H   0  0  0  0  0  0  0  0  0  0  0  0
  137.4334   77.2748  221.2350 H   0  0  0  0  0  0  0  0  0  0  0  0
  140.6235   77.9581  219.7048 H   0  0  0  0  0  0  0  0  0  0  0  0
  142.3727   79.4366  220.6833 H   0  0  0  0  0  0  0  0  0  0  0  0
  140.3110   79.3538  224.4911 H   0  0  0  0  0  0  0  0  0  0  0  0
  138.5600   77.8767  223.5098 H   0  0  0  0  0  0  0  0  0  0  0  0
  136.8040   73.9408  220.3762 H   0  0  0  0  0  0  0  0  0  0  0  0
  137.6296   73.1799  218.9179 H   0  0  0  0  0  0  0  0  0  0  0  0
  136.6017   71.7868  221.0749 H   0  0  0  0  0  0  0  0  0  0  0  0
  137.8762   71.2118  219.9021 H   0  0  0  0  0  0  0  0  0  0  0  0
  137.3405   70.4780  222.9782 H   0  0  0  0  0  0  0  0  0  0  0  0
  138.9434   70.3556  224.8864 H   0  0  0  0  0  0  0  0  0  0  0  0
  141.0648   71.6649  224.8217 H   0  0  0  0  0  0  0  0  0  0  0  0
  141.6364   73.0288  222.8127 H   0  0  0  0  0  0  0  0  0  0  0  0
  140.1475   72.5305  219.6238 H   0  0  0  0  0  0  0  0  0  0  0  0
  140.7799   76.0864  220.4540 H   0  0  0  0  0  0  0  0  0  0  0  0
  143.3190   76.6230  220.4660 H   0  0  0  0  0  0  0  0  0  0  0  0
  145.6304   75.1875  220.4373 H   0  0  0  0  0  0  0  0  0  0  0  0
  146.5294   72.8359  220.5194 H   0  0  0  0  0  0  0  0  0  0  0  0
  144.9533   70.8928  220.5528 H   0  0  0  0  0  0  0  0  0  0  0  0
  142.4690   71.2734  220.4691 H   0  0  0  0  0  0  0  0  0  0  0  0
  1  2  2  0
  2  3  2  0
  2  4  1  0
  4  5  1  0
  5  6  2  0
  6  7  1  0
  7  8  2  0
  8  9  1  0
  9 10  1  0
  9 11  1  0
  9 12  1  0
  8 13  1  0
 13 14  2  0
  2 15  1  0
 15 16  1  0
 16 17  1  0
 17 18  1  0
 18 19  2  0
 19 20  1  0
 20 21  2  0
 21 22  1  0
 22 23  2  0
 23 24  1  0
 24 25  1  0
 25 26  2  0
 26 27  1  0
 27 28  1  0
 28 29  2  0
 29 30  1  0
 30 31  2  0
 31 32  1  0
 32 33  2  0
 14  5  1  0
 24 15  1  0
 33 25  1  0
 23 18  1  0
 33 28  1  0
  4 34  1  0
  4 35  1  0
  6 36  1  0
  7 37  1  0
 13 38  1  0
 14 39  1  0
 16 40  1  0
 16 41  1  0
 17 42  1  0
 17 43  1  0
 19 44  1  0
 20 45  1  0
 21 46  1  0
 22 47  1  0
 24 48  1  6
 26 49  1  0
 27 50  1  0
 29 51  1  0
 30 52  1  0
 31 53  1  0
 32 54  1  0
M  END
>  <UniqueID>  (60) 
191

>  <SMILES>  (60) 
O=S(=O)(Cc1ccc(C(F)(F)F)cc1)N1CCc2ccccc2[C@@H]1c1c[nH]c2ccccc12

>  <Energy>  (60) 
98.23277094046774

>  <Genealogy>  (60) 
O=S(=O)(Cc1ccc(C(F)(F)F)cc1)N1CCc2ccccc2[C@@H]1c1c[nH]c2ccccc12 (3D coordinates assigned)
O=S(=O)(Cc1ccc(C(F)(F)F)cc1)N1CCc2ccccc2[C@@H]1c1c[nH]c2ccccc12 (nonaromatic ring conformer: 98.23277094046774 kcal/mol)

>  <smiles>  (60) 
O=S(=O)(Cc1ccc(C(F)(F)F)cc1)N1CCc2ccccc2[C@@H]1c1c[nH]c2ccccc12

>  <score_type>  (60) 
oracle

>  <origin>  (60) 
autodockgpu

>  <m_score__min__energy>  (60) 
-7.4100000000000001

>  <m_primary>  (60) 
energy

>  <meeko>  (60) 
{"free_energy": -7.34, "intermolecular_energy": -8.83, "internal_energy": -2.02, "cluster_size": 9, "cluster_id": 1, "rank_in_cluster": 7}

>  <energy>  (60) 
-6.42

>  <cluster_rmsd>  (60) 
0.88

>  <rmsd>  (60) 
271.56

>  <cluster>  (60) 
3

$$$$
MHMHNRBLDMQEKR-XMMPIXPANA-N
     RDKit          3D

 54 58  0  0  0  0  0  0  0  0999 V2000
  142.1590   75.2610  221.5820 O   0  0  0  0  0  0  0  0  0  0  0  0
  140.8040   74.8010  221.1180 S   0  0  0  0  0  0  0  0  0  0  0  0
  140.3420   73.6790  222.0070 O   0  0  0  0  0  0  0  0  0  0  0  0
  139.6530   76.1600  221.2670 C   0  0  0  0  0  0  0  0  0  0  0  0
  140.3660   77.4020  221.7200 C   0  0  0  0  0  0  0  0  0  0  0  0
  141.0420   77.4210  222.9490 C   0  0  0  0  0  0  0  0  0  0  0  0
  141.6750   78.5870  223.3900 C   0  0  0  0  0  0  0  0  0  0  0  0
  141.6510   79.7510  222.6030 C   0  0  0  0  0  0  0  0  0  0  0  0
  142.2890   81.0230  223.1020 C   0  0  0  0  0  0  0  0  0  0  0  0
  141.6770   81.4530  224.2660 F   0  0  0  0  0  0  0  0  0  0  0  0
  142.1770   82.0280  222.1580 F   0  0  0  0  0  0  0  0  0  0  0  0
  143.6280   80.7910  223.3560 F   0  0  0  0  0  0  0  0  0  0  0  0
  140.9390   79.7400  221.3910 C   0  0  0  0  0  0  0  0  0  0  0  0
  140.3070   78.5740  220.9510 C   0  0  0  0  0  0  0  0  0  0  0  0
  140.8710   74.2730  219.4380 N   0  0  0  0  0  0  0  0  0  0  0  0
  140.6660   72.8020  219.3430 C   0  0  0  0  0  0  0  0  0  0  0  0
  141.9720   71.9530  219.2660 C   0  0  0  0  0  0  0  0  0  0  0  0
  143.1980   72.7010  219.7320 C   0  0  0  0  0  0  0  0  0  0  0  0
  144.2240   72.0380  220.4220 C   0  0  0  0  0  0  0  0  0  0  0  0
  145.3070   72.7600  220.9260 C   0  0  0  0  0  0  0  0  0  0  0  0
  145.3600   74.1460  220.7640 C   0  0  0  0  0  0  0  0  0  0  0  0
  144.3500   74.8110  220.0650 C   0  0  0  0  0  0  0  0  0  0  0  0
  143.2940   74.0820  219.4820 C   0  0  0  0  0  0  0  0  0  0  0  0
  142.1110   74.6920  218.7480 C   0  0  2  0  0  0  0  0  0  0  0  0
  142.1640   76.1820  218.4360 C   0  0  0  0  0  0  0  0  0  0  0  0
  143.3160   76.8850  218.0740 C   0  0  0  0  0  0  0  0  0  0  0  0
  143.0180   78.1400  217.6750 N   0  0  0  0  0  0  0  0  0  0  0  0
  141.6820   78.2330  217.7130 C   0  0  0  0  0  0  0  0  0  0  0  0
  140.9110   79.3220  217.3090 C   0  0  0  0  0  0  0  0  0  0  0  0
  139.5140   79.1860  217.3300 C   0  0  0  0  0  0  0  0  0  0  0  0
  138.9250   77.9680  217.7250 C   0  0  0  0  0  0  0  0  0  0  0  0
  139.7250   76.8810  218.1160 C   0  0  0  0  0  0  0  0  0  0  0  0
  141.1150   77.0520  218.1340 C   0  0  0  0  0  0  0  0  0  0  0  0
  139.1844   76.3471  220.2895 H   0  0  0  0  0  0  0  0  0  0  0  0
  138.8853   75.8979  222.0099 H   0  0  0  0  0  0  0  0  0  0  0  0
  141.0743   76.5132  223.5694 H   0  0  0  0  0  0  0  0  0  0  0  0
  142.1952   78.5933  224.3592 H   0  0  0  0  0  0  0  0  0  0  0  0
  140.8789   80.6558  220.7846 H   0  0  0  0  0  0  0  0  0  0  0  0
  139.7603   78.5750  219.9965 H   0  0  0  0  0  0  0  0  0  0  0  0
  140.1020   72.4790  220.2305 H   0  0  0  0  0  0  0  0  0  0  0  0
  140.1330   72.6286  218.3965 H   0  0  0  0  0  0  0  0  0  0  0  0
  141.8463   71.0608  219.8970 H   0  0  0  0  0  0  0  0  0  0  0  0
  142.1305   71.6935  218.2089 H   0  0  0  0  0  0  0  0  0  0  0  0
  144.1749   70.9486  220.5659 H   0  0  0  0  0  0  0  0  0  0  0  0
  146.1196   72.2367  221.4513 H   0  0  0  0  0  0  0  0  0  0  0  0
  146.1998   74.7159  221.1882 H   0  0  0  0  0  0  0  0  0  0  0  0
  144.3788   75.9064  219.9693 H   0  0  0  0  0  0  0  0  0  0  0  0
  142.1453   74.2885  217.7252 H   0  0  0  0  0  0  0  0  0  0  0  0
  144.3340   76.4697  218.1095 H   0  0  0  0  0  0  0  0  0  0  0  0
  143.6920   78.8650  217.3410 H   0  0  0  0  0  0  0  0  0  0  0  0
  141.3835   80.2604  216.9833 H   0  0  0  0  0  0  0  0  0  0  0  0
  138.8766   80.0333  217.0371 H   0  0  0  0  0  0  0  0  0  0  0  0
  137.8296   77.8675  217.7272 H   0  0  0  0  0  0  0  0  0  0  0  0
  139.2712   75.9203  218.4007 H   0  0  0  0  0  0  0  0  0  0  0  0
  1  2  2  0
  2  3  2  0
  2  4  1  0
  4  5  1  0
  5  6  2  0
  6  7  1  0
  7  8  2  0
  8  9  1  0
  9 10  1  0
  9 11  1  0
  9 12  1  0
  8 13  1  0
 13 14  2  0
  2 15  1  0
 15 16  1  0
 16 17  1  0
 17 18  1  0
 18 19  2  0
 19 20  1  0
 20 21  2  0
 21 22  1  0
 22 23  2  0
 23 24  1  0
 24 25  1  0
 25 26  2  0
 26 27  1  0
 27 28  1  0
 28 29  2  0
 29 30  1  0
 30 31  2  0
 31 32  1  0
 32 33  2  0
 14  5  1  0
 24 15  1  0
 33 25  1  0
 23 18  1  0
 33 28  1  0
  4 34  1  0
  4 35  1  0
  6 36  1  0
  7 37  1  0
 13 38  1  0
 14 39  1  0
 16 40  1  0
 16 41  1  0
 17 42  1  0
 17 43  1  0
 19 44  1  0
 20 45  1  0
 21 46  1  0
 22 47  1  0
 24 48  1  6
 26 49  1  0
 27 50  1  0
 29 51  1  0
 30 52  1  0
 31 53  1  0
 32 54  1  0
M  END
>  <UniqueID>  (61) 
192

>  <SMILES>  (61) 
O=S(=O)(Cc1ccc(C(F)(F)F)cc1)N1CCc2ccccc2[C@@H]1c1c[nH]c2ccccc12

>  <Energy>  (61) 
109.23778234269453

>  <Genealogy>  (61) 
O=S(=O)(Cc1ccc(C(F)(F)F)cc1)N1CCc2ccccc2[C@@H]1c1c[nH]c2ccccc12 (3D coordinates assigned)
O=S(=O)(Cc1ccc(C(F)(F)F)cc1)N1CCc2ccccc2[C@@H]1c1c[nH]c2ccccc12 (nonaromatic ring conformer: 109.23778234269453 kcal/mol)

>  <smiles>  (61) 
O=S(=O)(Cc1ccc(C(F)(F)F)cc1)N1CCc2ccccc2[C@@H]1c1c[nH]c2ccccc12

>  <score_type>  (61) 
oracle

>  <origin>  (61) 
autodockgpu

>  <m_score__min__energy>  (61) 
-7.4100000000000001

>  <m_primary>  (61) 
energy

>  <meeko>  (61) 
{"free_energy": -7.08, "intermolecular_energy": -8.57, "internal_energy": -2.24, "cluster_size": 4, "cluster_id": 2, "rank_in_cluster": 4}

>  <energy>  (61) 
-7.41

>  <cluster_rmsd>  (61) 
0.0

>  <rmsd>  (61) 
271.29

>  <cluster>  (61) 
1

$$$$
MHMHNRBLDMQEKR-XMMPIXPANA-N
     RDKit          3D

 54 58  0  0  0  0  0  0  0  0999 V2000
  139.3220   76.8240  219.5750 O   0  0  0  0  0  0  0  0  0  0  0  0
  140.6640   76.7100  218.9060 S   0  0  0  0  0  0  0  0  0  0  0  0
  140.6800   75.4680  218.0600 O   0  0  0  0  0  0  0  0  0  0  0  0
  140.9000   78.1290  217.8460 C   0  0  0  0  0  0  0  0  0  0  0  0
  140.7840   79.4000  218.6380 C   0  0  0  0  0  0  0  0  0  0  0  0
  141.9360   80.0500  219.1050 C   0  0  0  0  0  0  0  0  0  0  0  0
  141.8290   81.2120  219.8750 C   0  0  0  0  0  0  0  0  0  0  0  0
  140.5680   81.7490  220.1820 C   0  0  0  0  0  0  0  0  0  0  0  0
  140.4510   82.9730  221.0550 C   0  0  0  0  0  0  0  0  0  0  0  0
  140.2500   84.1050  220.2850 F   0  0  0  0  0  0  0  0  0  0  0  0
  141.6040   83.1540  221.7980 F   0  0  0  0  0  0  0  0  0  0  0  0
  139.3800   82.8170  221.9150 F   0  0  0  0  0  0  0  0  0  0  0  0
  139.4140   81.0740  219.7460 C   0  0  0  0  0  0  0  0  0  0  0  0
  139.5220   79.9120  218.9760 C   0  0  0  0  0  0  0  0  0  0  0  0
  141.9520   76.6580  220.1080 N   0  0  0  0  0  0  0  0  0  0  0  0
  142.9420   75.6010  219.7690 C   0  0  0  0  0  0  0  0  0  0  0  0
  142.7300   74.2340  220.4910 C   0  0  0  0  0  0  0  0  0  0  0  0
  141.3410   74.0700  221.0600 C   0  0  0  0  0  0  0  0  0  0  0  0
  140.7110   72.8170  221.0640 C   0  0  0  0  0  0  0  0  0  0  0  0
  139.3930   72.6990  221.5100 C   0  0  0  0  0  0  0  0  0  0  0  0
  138.6920   73.8320  221.9300 C   0  0  0  0  0  0  0  0  0  0  0  0
  139.3180   75.0800  221.9430 C   0  0  0  0  0  0  0  0  0  0  0  0
  140.6730   75.1970  221.5730 C   0  0  0  0  0  0  0  0  0  0  0  0
  141.4480   76.5020  221.4910 C   0  0  2  0  0  0  0  0  0  0  0  0
  140.7820   77.7560  222.0440 C   0  0  0  0  0  0  0  0  0  0  0  0
  139.4350   77.8570  222.4020 C   0  0  0  0  0  0  0  0  0  0  0  0
  139.1820   79.0220  223.0350 N   0  0  0  0  0  0  0  0  0  0  0  0
  140.3640   79.6450  223.1480 C   0  0  0  0  0  0  0  0  0  0  0  0
  140.6100   80.8490  223.8060 C   0  0  0  0  0  0  0  0  0  0  0  0
  141.9410   81.2880  223.9030 C   0  0  0  0  0  0  0  0  0  0  0  0
  142.9860   80.5080  223.3690 C   0  0  0  0  0  0  0  0  0  0  0  0
  142.7110   79.2920  222.7210 C   0  0  0  0  0  0  0  0  0  0  0  0
  141.3750   78.8940  222.5930 C   0  0  0  0  0  0  0  0  0  0  0  0
  141.8989   78.0772  217.3882 H   0  0  0  0  0  0  0  0  0  0  0  0
  140.1253   78.1235  217.0651 H   0  0  0  0  0  0  0  0  0  0  0  0
  142.9292   79.6432  218.8640 H   0  0  0  0  0  0  0  0  0  0  0  0
  142.7387   81.7091  220.2429 H   0  0  0  0  0  0  0  0  0  0  0  0
  138.4200   81.4626  220.0124 H   0  0  0  0  0  0  0  0  0  0  0  0
  138.6128   79.3964  218.6333 H   0  0  0  0  0  0  0  0  0  0  0  0
  142.8925   75.4240  218.6845 H   0  0  0  0  0  0  0  0  0  0  0  0
  143.9180   75.9772  220.1095 H   0  0  0  0  0  0  0  0  0  0  0  0
  142.9089   73.4251  219.7673 H   0  0  0  0  0  0  0  0  0  0  0  0
  143.4349   74.1976  221.3347 H   0  0  0  0  0  0  0  0  0  0  0  0
  141.2553   71.9268  220.7157 H   0  0  0  0  0  0  0  0  0  0  0  0
  138.9062   71.7128  221.5306 H   0  0  0  0  0  0  0  0  0  0  0  0
  137.6440   73.7407  222.2514 H   0  0  0  0  0  0  0  0  0  0  0  0
  138.7521   75.9744  222.2428 H   0  0  0  0  0  0  0  0  0  0  0  0
  142.2816   76.4061  222.2023 H   0  0  0  0  0  0  0  0  0  0  0  0
  138.6781   77.0862  222.1946 H   0  0  0  0  0  0  0  0  0  0  0  0
  138.2630   79.3380  223.4170 H   0  0  0  0  0  0  0  0  0  0  0  0
  139.7866   81.4378  224.2364 H   0  0  0  0  0  0  0  0  0  0  0  0
  142.1682   82.2440  224.3975 H   0  0  0  0  0  0  0  0  0  0  0  0
  144.0261   80.8541  223.4603 H   0  0  0  0  0  0  0  0  0  0  0  0
  143.5254   78.6682  222.3240 H   0  0  0  0  0  0  0  0  0  0  0  0
  1  2  2  0
  2  3  2  0
  2  4  1  0
  4  5  1  0
  5  6  2  0
  6  7  1  0
  7  8  2  0
  8  9  1  0
  9 10  1  0
  9 11  1  0
  9 12  1  0
  8 13  1  0
 13 14  2  0
  2 15  1  0
 15 16  1  0
 16 17  1  0
 17 18  1  0
 18 19  2  0
 19 20  1  0
 20 21  2  0
 21 22  1  0
 22 23  2  0
 23 24  1  0
 24 25  1  0
 25 26  2  0
 26 27  1  0
 27 28  1  0
 28 29  2  0
 29 30  1  0
 30 31  2  0
 31 32  1  0
 32 33  2  0
 14  5  1  0
 24 15  1  0
 33 25  1  0
 23 18  1  0
 33 28  1  0
  4 34  1  0
  4 35  1  0
  6 36  1  0
  7 37  1  0
 13 38  1  0
 14 39  1  0
 16 40  1  0
 16 41  1  0
 17 42  1  0
 17 43  1  0
 19 44  1  0
 20 45  1  0
 21 46  1  0
 22 47  1  0
 24 48  1  1
 26 49  1  0
 27 50  1  0
 29 51  1  0
 30 52  1  0
 31 53  1  0
 32 54  1  0
M  END
>  <UniqueID>  (62) 
192

>  <SMILES>  (62) 
O=S(=O)(Cc1ccc(C(F)(F)F)cc1)N1CCc2ccccc2[C@@H]1c1c[nH]c2ccccc12

>  <Energy>  (62) 
109.23778234269453

>  <Genealogy>  (62) 
O=S(=O)(Cc1ccc(C(F)(F)F)cc1)N1CCc2ccccc2[C@@H]1c1c[nH]c2ccccc12 (3D coordinates assigned)
O=S(=O)(Cc1ccc(C(F)(F)F)cc1)N1CCc2ccccc2[C@@H]1c1c[nH]c2ccccc12 (nonaromatic ring conformer: 109.23778234269453 kcal/mol)

>  <smiles>  (62) 
O=S(=O)(Cc1ccc(C(F)(F)F)cc1)N1CCc2ccccc2[C@@H]1c1c[nH]c2ccccc12

>  <score_type>  (62) 
oracle

>  <origin>  (62) 
autodockgpu

>  <m_score__min__energy>  (62) 
-7.4100000000000001

>  <m_primary>  (62) 
energy

>  <meeko>  (62) 
{"free_energy": -6.42, "intermolecular_energy": -7.91, "internal_energy": -2.88, "cluster_size": 7, "cluster_id": 3, "rank_in_cluster": 7}

>  <energy>  (62) 
-7.41

>  <cluster_rmsd>  (62) 
0.05

>  <rmsd>  (62) 
271.28

>  <cluster>  (62) 
1

$$$$
MHMHNRBLDMQEKR-XMMPIXPANA-N
     RDKit          3D

 54 58  0  0  0  0  0  0  0  0999 V2000
  139.3110   76.8110  219.5960 O   0  0  0  0  0  0  0  0  0  0  0  0
  140.6520   76.6980  218.9230 S   0  0  0  0  0  0  0  0  0  0  0  0
  140.6700   75.4490  218.0850 O   0  0  0  0  0  0  0  0  0  0  0  0
  140.8780   78.1100  217.8510 C   0  0  0  0  0  0  0  0  0  0  0  0
  140.7680   79.3860  218.6370 C   0  0  0  0  0  0  0  0  0  0  0  0
  141.9240   80.0390  219.0890 C   0  0  0  0  0  0  0  0  0  0  0  0
  141.8240   81.2060  219.8520 C   0  0  0  0  0  0  0  0  0  0  0  0
  140.5650   81.7450  220.1670 C   0  0  0  0  0  0  0  0  0  0  0  0
  140.4550   82.9740  221.0330 C   0  0  0  0  0  0  0  0  0  0  0  0
  141.6100   83.1540  221.7750 F   0  0  0  0  0  0  0  0  0  0  0  0
  139.3910   82.8590  221.9110 F   0  0  0  0  0  0  0  0  0  0  0  0
  140.2590   84.0810  220.2300 F   0  0  0  0  0  0  0  0  0  0  0  0
  139.4080   81.0660  219.7460 C   0  0  0  0  0  0  0  0  0  0  0  0
  139.5090   79.9000  218.9830 C   0  0  0  0  0  0  0  0  0  0  0  0
  141.9440   76.6600  220.1210 N   0  0  0  0  0  0  0  0  0  0  0  0
  142.9410   75.6090  219.7820 C   0  0  0  0  0  0  0  0  0  0  0  0
  142.7410   74.2440  220.5100 C   0  0  0  0  0  0  0  0  0  0  0  0
  141.3560   74.0710  221.0840 C   0  0  0  0  0  0  0  0  0  0  0  0
  140.7350   72.8140  221.0960 C   0  0  0  0  0  0  0  0  0  0  0  0
  139.4200   72.6870  221.5460 C   0  0  0  0  0  0  0  0  0  0  0  0
  138.7120   73.8160  221.9650 C   0  0  0  0  0  0  0  0  0  0  0  0
  139.3280   75.0700  221.9700 C   0  0  0  0  0  0  0  0  0  0  0  0
  140.6810   75.1960  221.5950 C   0  0  0  0  0  0  0  0  0  0  0  0
  141.4460   76.5060  221.5060 C   0  0  2  0  0  0  0  0  0  0  0  0
  140.7720   77.7570  222.0560 C   0  0  0  0  0  0  0  0  0  0  0  0
  139.4260   77.8490  222.4190 C   0  0  0  0  0  0  0  0  0  0  0  0
  139.1670   79.0150  223.0480 N   0  0  0  0  0  0  0  0  0  0  0  0
  140.3440   79.6470  223.1540 C   0  0  0  0  0  0  0  0  0  0  0  0
  140.5840   80.8550  223.8070 C   0  0  0  0  0  0  0  0  0  0  0  0
  141.9110   81.3050  223.8960 C   0  0  0  0  0  0  0  0  0  0  0  0
  142.9610   80.5310  223.3610 C   0  0  0  0  0  0  0  0  0  0  0  0
  142.6930   79.3100  222.7190 C   0  0  0  0  0  0  0  0  0  0  0  0
  141.3590   78.9020  222.5980 C   0  0  0  0  0  0  0  0  0  0  0  0
  141.8729   78.0558  217.3848 H   0  0  0  0  0  0  0  0  0  0  0  0
  140.0971   78.0991  217.0764 H   0  0  0  0  0  0  0  0  0  0  0  0
  142.9149   79.6305  218.8417 H   0  0  0  0  0  0  0  0  0  0  0  0
  142.7369   81.7057  220.2082 H   0  0  0  0  0  0  0  0  0  0  0  0
  138.4163   81.4556  220.0193 H   0  0  0  0  0  0  0  0  0  0  0  0
  138.5968   79.3822  218.6518 H   0  0  0  0  0  0  0  0  0  0  0  0
  142.8889   75.4275  218.6983 H   0  0  0  0  0  0  0  0  0  0  0  0
  143.9156   75.9936  220.1169 H   0  0  0  0  0  0  0  0  0  0  0  0
  142.9239   73.4337  219.7890 H   0  0  0  0  0  0  0  0  0  0  0  0
  143.4484   74.2170  221.3520 H   0  0  0  0  0  0  0  0  0  0  0  0
  141.2851   71.9265  220.7501 H   0  0  0  0  0  0  0  0  0  0  0  0
  138.9407   71.6972  221.5708 H   0  0  0  0  0  0  0  0  0  0  0  0
  137.6664   73.7174  222.2920 H   0  0  0  0  0  0  0  0  0  0  0  0
  138.7558   75.9612  222.2673 H   0  0  0  0  0  0  0  0  0  0  0  0
  142.2825   76.4195  222.2150 H   0  0  0  0  0  0  0  0  0  0  0  0
  138.6742   77.0715  222.2182 H   0  0  0  0  0  0  0  0  0  0  0  0
  138.2470   79.3250  223.4330 H   0  0  0  0  0  0  0  0  0  0  0  0
  139.7580   81.4385  224.2398 H   0  0  0  0  0  0  0  0  0  0  0  0
  142.1323   82.2652  224.3850 H   0  0  0  0  0  0  0  0  0  0  0  0
  143.9987   80.8858  223.4468 H   0  0  0  0  0  0  0  0  0  0  0  0
  143.5105   78.6905  222.3216 H   0  0  0  0  0  0  0  0  0  0  0  0
  1  2  2  0
  2  3  2  0
  2  4  1  0
  4  5  1  0
  5  6  2  0
  6  7  1  0
  7  8  2  0
  8  9  1  0
  9 10  1  0
  9 11  1  0
  9 12  1  0
  8 13  1  0
 13 14  2  0
  2 15  1  0
 15 16  1  0
 16 17  1  0
 17 18  1  0
 18 19  2  0
 19 20  1  0
 20 21  2  0
 21 22  1  0
 22 23  2  0
 23 24  1  0
 24 25  1  0
 25 26  2  0
 26 27  1  0
 27 28  1  0
 28 29  2  0
 29 30  1  0
 30 31  2  0
 31 32  1  0
 32 33  2  0
 14  5  1  0
 24 15  1  0
 33 25  1  0
 23 18  1  0
 33 28  1  0
  4 34  1  0
  4 35  1  0
  6 36  1  0
  7 37  1  0
 13 38  1  0
 14 39  1  0
 16 40  1  0
 16 41  1  0
 17 42  1  0
 17 43  1  0
 19 44  1  0
 20 45  1  0
 21 46  1  0
 22 47  1  0
 24 48  1  1
 26 49  1  0
 27 50  1  0
 29 51  1  0
 30 52  1  0
 31 53  1  0
 32 54  1  0
M  END
>  <UniqueID>  (63) 
192

>  <SMILES>  (63) 
O=S(=O)(Cc1ccc(C(F)(F)F)cc1)N1CCc2ccccc2[C@@H]1c1c[nH]c2ccccc12

>  <Energy>  (63) 
109.23778234269453

>  <Genealogy>  (63) 
O=S(=O)(Cc1ccc(C(F)(F)F)cc1)N1CCc2ccccc2[C@@H]1c1c[nH]c2ccccc12 (3D coordinates assigned)
O=S(=O)(Cc1ccc(C(F)(F)F)cc1)N1CCc2ccccc2[C@@H]1c1c[nH]c2ccccc12 (nonaromatic ring conformer: 109.23778234269453 kcal/mol)

>  <smiles>  (63) 
O=S(=O)(Cc1ccc(C(F)(F)F)cc1)N1CCc2ccccc2[C@@H]1c1c[nH]c2ccccc12

>  <score_type>  (63) 
oracle

>  <origin>  (63) 
autodockgpu

>  <m_score__min__energy>  (63) 
-7.4100000000000001

>  <m_primary>  (63) 
energy

>  <meeko>  (63) 
{"free_energy": -6.43, "intermolecular_energy": -7.92, "internal_energy": -2.88, "cluster_size": 7, "cluster_id": 3, "rank_in_cluster": 6}

>  <energy>  (63) 
-7.4

>  <cluster_rmsd>  (63) 
0.05

>  <rmsd>  (63) 
271.28

>  <cluster>  (63) 
1

$$$$
MHMHNRBLDMQEKR-XMMPIXPANA-N
     RDKit          3D

 54 58  0  0  0  0  0  0  0  0999 V2000
  139.8380   75.2320  222.5020 O   0  0  0  0  0  0  0  0  0  0  0  0
  138.6500   75.2350  221.5800 S   0  0  0  0  0  0  0  0  0  0  0  0
  137.4260   74.8470  222.3640 O   0  0  0  0  0  0  0  0  0  0  0  0
  138.4210   76.8890  220.9430 C   0  0  0  0  0  0  0  0  0  0  0  0
  139.4440   77.8210  221.5270 C   0  0  0  0  0  0  0  0  0  0  0  0
  140.5100   78.2830  220.7410 C   0  0  0  0  0  0  0  0  0  0  0  0
  141.4840   79.1210  221.2930 C   0  0  0  0  0  0  0  0  0  0  0  0
  141.4020   79.5180  222.6390 C   0  0  0  0  0  0  0  0  0  0  0  0
  142.4800   80.3780  223.2480 C   0  0  0  0  0  0  0  0  0  0  0  0
  142.1630   81.7190  223.1240 F   0  0  0  0  0  0  0  0  0  0  0  0
  143.6930   80.1600  222.6180 F   0  0  0  0  0  0  0  0  0  0  0  0
  142.6070   80.0670  224.5890 F   0  0  0  0  0  0  0  0  0  0  0  0
  140.3550   79.0210  223.4340 C   0  0  0  0  0  0  0  0  0  0  0  0
  139.3810   78.1840  222.8810 C   0  0  0  0  0  0  0  0  0  0  0  0
  138.9050   74.1210  220.2390 N   0  0  0  0  0  0  0  0  0  0  0  0
  137.6700   73.3370  219.9670 C   0  0  0  0  0  0  0  0  0  0  0  0
  137.6190   71.9270  220.6310 C   0  0  0  0  0  0  0  0  0  0  0  0
  138.6010   71.7670  221.7670 C   0  0  0  0  0  0  0  0  0  0  0  0
  138.2750   70.9990  222.8950 C   0  0  0  0  0  0  0  0  0  0  0  0
  139.1560   70.9350  223.9760 C   0  0  0  0  0  0  0  0  0  0  0  0
  140.3520   71.6550  223.9470 C   0  0  0  0  0  0  0  0  0  0  0  0
  140.6910   72.4100  222.8210 C   0  0  0  0  0  0  0  0  0  0  0  0
  139.8470   72.4150  221.6920 C   0  0  0  0  0  0  0  0  0  0  0  0
  140.0750   73.2370  220.4340 C   0  0  2  0  0  0  0  0  0  0  0  0
  141.4130   73.9520  220.2880 C   0  0  0  0  0  0  0  0  0  0  0  0
  141.5990   75.3330  220.3890 C   0  0  0  0  0  0  0  0  0  0  0  0
  142.9110   75.6510  220.4080 N   0  0  0  0  0  0  0  0  0  0  0  0
  143.5730   74.4860  220.3880 C   0  0  0  0  0  0  0  0  0  0  0  0
  144.9530   74.3120  220.4770 C   0  0  0  0  0  0  0  0  0  0  0  0
  145.4500   73.0000  220.5420 C   0  0  0  0  0  0  0  0  0  0  0  0
  144.5640   71.9040  220.5440 C   0  0  0  0  0  0  0  0  0  0  0  0
  143.1750   72.1080  220.4660 C   0  0  0  0  0  0  0  0  0  0  0  0
  142.7020   73.4210  220.3540 C   0  0  0  0  0  0  0  0  0  0  0  0
  138.5275   76.8738  219.8483 H   0  0  0  0  0  0  0  0  0  0  0  0
  137.4168   77.2424  221.2200 H   0  0  0  0  0  0  0  0  0  0  0  0
  140.5802   77.9845  219.6846 H   0  0  0  0  0  0  0  0  0  0  0  0
  142.3198   79.4718  220.6698 H   0  0  0  0  0  0  0  0  0  0  0  0
  140.3014   79.2924  224.4987 H   0  0  0  0  0  0  0  0  0  0  0  0
  138.5611   77.8081  223.5106 H   0  0  0  0  0  0  0  0  0  0  0  0
  136.8107   73.9173  220.3342 H   0  0  0  0  0  0  0  0  0  0  0  0
  137.6514   73.1638  218.8809 H   0  0  0  0  0  0  0  0  0  0  0  0
  136.6039   71.7609  221.0207 H   0  0  0  0  0  0  0  0  0  0  0  0
  137.8912   71.1926  219.8586 H   0  0  0  0  0  0  0  0  0  0  0  0
  137.3242   70.4467  222.9276 H   0  0  0  0  0  0  0  0  0  0  0  0
  138.9078   70.3168  224.8514 H   0  0  0  0  0  0  0  0  0  0  0  0
  141.0295   71.6278  224.8132 H   0  0  0  0  0  0  0  0  0  0  0  0
  141.6183   73.0016  222.8157 H   0  0  0  0  0  0  0  0  0  0  0  0
  140.1616   72.5142  219.6093 H   0  0  0  0  0  0  0  0  0  0  0  0
  140.7816   76.0669  220.4458 H   0  0  0  0  0  0  0  0  0  0  0  0
  143.3200   76.6080  220.4910 H   0  0  0  0  0  0  0  0  0  0  0  0
  145.6328   75.1766  220.4958 H   0  0  0  0  0  0  0  0  0  0  0  0
  146.5352   72.8272  220.5916 H   0  0  0  0  0  0  0  0  0  0  0  0
  144.9624   70.8806  220.6071 H   0  0  0  0  0  0  0  0  0  0  0  0
  142.4777   71.2576  220.4923 H   0  0  0  0  0  0  0  0  0  0  0  0
  1  2  2  0
  2  3  2  0
  2  4  1  0
  4  5  1  0
  5  6  2  0
  6  7  1  0
  7  8  2  0
  8  9  1  0
  9 10  1  0
  9 11  1  0
  9 12  1  0
  8 13  1  0
 13 14  2  0
  2 15  1  0
 15 16  1  0
 16 17  1  0
 17 18  1  0
 18 19  2  0
 19 20  1  0
 20 21  2  0
 21 22  1  0
 22 23  2  0
 23 24  1  0
 24 25  1  0
 25 26  2  0
 26 27  1  0
 27 28  1  0
 28 29  2  0
 29 30  1  0
 30 31  2  0
 31 32  1  0
 32 33  2  0
 14  5  1  0
 24 15  1  0
 33 25  1  0
 23 18  1  0
 33 28  1  0
  4 34  1  0
  4 35  1  0
  6 36  1  0
  7 37  1  0
 13 38  1  0
 14 39  1  0
 16 40  1  0
 16 41  1  0
 17 42  1  0
 17 43  1  0
 19 44  1  0
 20 45  1  0
 21 46  1  0
 22 47  1  0
 24 48  1  6
 26 49  1  0
 27 50  1  0
 29 51  1  0
 30 52  1  0
 31 53  1  0
 32 54  1  0
M  END
>  <UniqueID>  (64) 
192

>  <SMILES>  (64) 
O=S(=O)(Cc1ccc(C(F)(F)F)cc1)N1CCc2ccccc2[C@@H]1c1c[nH]c2ccccc12

>  <Energy>  (64) 
109.23778234269453

>  <Genealogy>  (64) 
O=S(=O)(Cc1ccc(C(F)(F)F)cc1)N1CCc2ccccc2[C@@H]1c1c[nH]c2ccccc12 (3D coordinates assigned)
O=S(=O)(Cc1ccc(C(F)(F)F)cc1)N1CCc2ccccc2[C@@H]1c1c[nH]c2ccccc12 (nonaromatic ring conformer: 109.23778234269453 kcal/mol)

>  <smiles>  (64) 
O=S(=O)(Cc1ccc(C(F)(F)F)cc1)N1CCc2ccccc2[C@@H]1c1c[nH]c2ccccc12

>  <score_type>  (64) 
oracle

>  <origin>  (64) 
autodockgpu

>  <m_score__min__energy>  (64) 
-7.4100000000000001

>  <m_primary>  (64) 
energy

>  <meeko>  (64) 
{"free_energy": -7.32, "intermolecular_energy": -8.81, "internal_energy": -2.02, "cluster_size": 9, "cluster_id": 1, "rank_in_cluster": 8}

>  <energy>  (64) 
-7.4

>  <cluster_rmsd>  (64) 
0.18

>  <rmsd>  (64) 
271.37

>  <cluster>  (64) 
1

$$$$
MHMHNRBLDMQEKR-XMMPIXPANA-N
     RDKit          3D

 54 58  0  0  0  0  0  0  0  0999 V2000
  139.2950   76.8270  219.5860 O   0  0  0  0  0  0  0  0  0  0  0  0
  140.6330   76.7200  218.9070 S   0  0  0  0  0  0  0  0  0  0  0  0
  140.6500   75.4770  218.0610 O   0  0  0  0  0  0  0  0  0  0  0  0
  140.8540   78.1400  217.8440 C   0  0  0  0  0  0  0  0  0  0  0  0
  140.7540   79.4100  218.6400 C   0  0  0  0  0  0  0  0  0  0  0  0
  141.9160   80.0900  219.0360 C   0  0  0  0  0  0  0  0  0  0  0  0
  141.8260   81.2520  219.8080 C   0  0  0  0  0  0  0  0  0  0  0  0
  140.5720   81.7580  220.1890 C   0  0  0  0  0  0  0  0  0  0  0  0
  140.4770   82.9820  221.0650 C   0  0  0  0  0  0  0  0  0  0  0  0
  139.4100   82.8750  221.9400 F   0  0  0  0  0  0  0  0  0  0  0  0
  140.2940   84.1190  220.2980 F   0  0  0  0  0  0  0  0  0  0  0  0
  141.6440   83.1120  221.7930 F   0  0  0  0  0  0  0  0  0  0  0  0
  139.4120   81.0530  219.8240 C   0  0  0  0  0  0  0  0  0  0  0  0
  139.5020   79.8910  219.0520 C   0  0  0  0  0  0  0  0  0  0  0  0
  141.9290   76.6750  220.1000 N   0  0  0  0  0  0  0  0  0  0  0  0
  142.9240   75.6250  219.7540 C   0  0  0  0  0  0  0  0  0  0  0  0
  142.7250   74.2570  220.4770 C   0  0  0  0  0  0  0  0  0  0  0  0
  141.3420   74.0840  221.0550 C   0  0  0  0  0  0  0  0  0  0  0  0
  140.7200   72.8270  221.0630 C   0  0  0  0  0  0  0  0  0  0  0  0
  139.4060   72.7000  221.5180 C   0  0  0  0  0  0  0  0  0  0  0  0
  138.7000   73.8280  221.9430 C   0  0  0  0  0  0  0  0  0  0  0  0
  139.3180   75.0810  221.9520 C   0  0  0  0  0  0  0  0  0  0  0  0
  140.6700   75.2060  221.5730 C   0  0  0  0  0  0  0  0  0  0  0  0
  141.4360   76.5160  221.4870 C   0  0  2  0  0  0  0  0  0  0  0  0
  140.7660   77.7660  222.0440 C   0  0  0  0  0  0  0  0  0  0  0  0
  139.4190   77.8600  222.4050 C   0  0  0  0  0  0  0  0  0  0  0  0
  139.1630   79.0220  223.0420 N   0  0  0  0  0  0  0  0  0  0  0  0
  140.3420   79.6490  223.1550 C   0  0  0  0  0  0  0  0  0  0  0  0
  140.5840   80.8520  223.8170 C   0  0  0  0  0  0  0  0  0  0  0  0
  141.9130   81.2960  223.9130 C   0  0  0  0  0  0  0  0  0  0  0  0
  142.9610   80.5220  223.3750 C   0  0  0  0  0  0  0  0  0  0  0  0
  142.6900   79.3070  222.7240 C   0  0  0  0  0  0  0  0  0  0  0  0
  141.3550   78.9040  222.5960 C   0  0  0  0  0  0  0  0  0  0  0  0
  141.8449   78.0868  217.3693 H   0  0  0  0  0  0  0  0  0  0  0  0
  140.0665   78.1371  217.0760 H   0  0  0  0  0  0  0  0  0  0  0  0
  142.9028   79.7066  218.7374 H   0  0  0  0  0  0  0  0  0  0  0  0
  142.7431   81.7736  220.1192 H   0  0  0  0  0  0  0  0  0  0  0  0
  138.4263   81.4182  220.1482 H   0  0  0  0  0  0  0  0  0  0  0  0
  138.5871   79.3513  218.7663 H   0  0  0  0  0  0  0  0  0  0  0  0
  142.8688   75.4480  218.6697 H   0  0  0  0  0  0  0  0  0  0  0  0
  143.8999   76.0075  220.0878 H   0  0  0  0  0  0  0  0  0  0  0  0
  142.9041   73.4494  219.7519 H   0  0  0  0  0  0  0  0  0  0  0  0
  143.4355   74.2252  221.3161 H   0  0  0  0  0  0  0  0  0  0  0  0
  141.2677   71.9405  220.7106 H   0  0  0  0  0  0  0  0  0  0  0  0
  138.9262   71.7104  221.5418 H   0  0  0  0  0  0  0  0  0  0  0  0
  137.6548   73.7295  222.2714 H   0  0  0  0  0  0  0  0  0  0  0  0
  138.7484   75.9718  222.2554 H   0  0  0  0  0  0  0  0  0  0  0  0
  142.2743   76.4255  222.1935 H   0  0  0  0  0  0  0  0  0  0  0  0
  138.6649   77.0867  222.1968 H   0  0  0  0  0  0  0  0  0  0  0  0
  138.2430   79.3330  223.4270 H   0  0  0  0  0  0  0  0  0  0  0  0
  139.7589   81.4358  224.2510 H   0  0  0  0  0  0  0  0  0  0  0  0
  142.1369   82.2515  224.4099 H   0  0  0  0  0  0  0  0  0  0  0  0
  143.9998   80.8723  223.4657 H   0  0  0  0  0  0  0  0  0  0  0  0
  143.5064   78.6874  222.3246 H   0  0  0  0  0  0  0  0  0  0  0  0
  1  2  2  0
  2  3  2  0
  2  4  1  0
  4  5  1  0
  5  6  2  0
  6  7  1  0
  7  8  2  0
  8  9  1  0
  9 10  1  0
  9 11  1  0
  9 12  1  0
  8 13  1  0
 13 14  2  0
  2 15  1  0
 15 16  1  0
 16 17  1  0
 17 18  1  0
 18 19  2  0
 19 20  1  0
 20 21  2  0
 21 22  1  0
 22 23  2  0
 23 24  1  0
 24 25  1  0
 25 26  2  0
 26 27  1  0
 27 28  1  0
 28 29  2  0
 29 30  1  0
 30 31  2  0
 31 32  1  0
 32 33  2  0
 14  5  1  0
 24 15  1  0
 33 25  1  0
 23 18  1  0
 33 28  1  0
  4 34  1  0
  4 35  1  0
  6 36  1  0
  7 37  1  0
 13 38  1  0
 14 39  1  0
 16 40  1  0
 16 41  1  0
 17 42  1  0
 17 43  1  0
 19 44  1  0
 20 45  1  0
 21 46  1  0
 22 47  1  0
 24 48  1  1
 26 49  1  0
 27 50  1  0
 29 51  1  0
 30 52  1  0
 31 53  1  0
 32 54  1  0
M  END
>  <UniqueID>  (65) 
192

>  <SMILES>  (65) 
O=S(=O)(Cc1ccc(C(F)(F)F)cc1)N1CCc2ccccc2[C@@H]1c1c[nH]c2ccccc12

>  <Energy>  (65) 
109.23778234269453

>  <Genealogy>  (65) 
O=S(=O)(Cc1ccc(C(F)(F)F)cc1)N1CCc2ccccc2[C@@H]1c1c[nH]c2ccccc12 (3D coordinates assigned)
O=S(=O)(Cc1ccc(C(F)(F)F)cc1)N1CCc2ccccc2[C@@H]1c1c[nH]c2ccccc12 (nonaromatic ring conformer: 109.23778234269453 kcal/mol)

>  <smiles>  (65) 
O=S(=O)(Cc1ccc(C(F)(F)F)cc1)N1CCc2ccccc2[C@@H]1c1c[nH]c2ccccc12

>  <score_type>  (65) 
oracle

>  <origin>  (65) 
autodockgpu

>  <m_score__min__energy>  (65) 
-7.4100000000000001

>  <m_primary>  (65) 
energy

>  <meeko>  (65) 
{"free_energy": -6.43, "intermolecular_energy": -7.92, "internal_energy": -2.88, "cluster_size": 7, "cluster_id": 3, "rank_in_cluster": 4}

>  <energy>  (65) 
-7.38

>  <cluster_rmsd>  (65) 
0.15

>  <rmsd>  (65) 
271.37

>  <cluster>  (65) 
1

$$$$
MHMHNRBLDMQEKR-XMMPIXPANA-N
     RDKit          3D

 54 58  0  0  0  0  0  0  0  0999 V2000
  139.3040   76.8580  219.5760 O   0  0  0  0  0  0  0  0  0  0  0  0
  140.6420   76.7570  218.8980 S   0  0  0  0  0  0  0  0  0  0  0  0
  140.6650   75.5160  218.0490 O   0  0  0  0  0  0  0  0  0  0  0  0
  140.8580   78.1800  217.8370 C   0  0  0  0  0  0  0  0  0  0  0  0
  140.7550   79.4480  218.6350 C   0  0  0  0  0  0  0  0  0  0  0  0
  141.9140   80.0820  219.1070 C   0  0  0  0  0  0  0  0  0  0  0  0
  141.8200   81.2420  219.8820 C   0  0  0  0  0  0  0  0  0  0  0  0
  140.5640   81.7930  220.1890 C   0  0  0  0  0  0  0  0  0  0  0  0
  140.4600   83.0130  221.0670 C   0  0  0  0  0  0  0  0  0  0  0  0
  140.2800   84.1520  220.3030 F   0  0  0  0  0  0  0  0  0  0  0  0
  141.6130   83.1740  221.8170 F   0  0  0  0  0  0  0  0  0  0  0  0
  139.3840   82.8690  221.9220 F   0  0  0  0  0  0  0  0  0  0  0  0
  139.4040   81.1330  219.7480 C   0  0  0  0  0  0  0  0  0  0  0  0
  139.4990   79.9730  218.9730 C   0  0  0  0  0  0  0  0  0  0  0  0
  141.9390   76.7160  220.0910 N   0  0  0  0  0  0  0  0  0  0  0  0
  142.9350   75.6670  219.7450 C   0  0  0  0  0  0  0  0  0  0  0  0
  142.7390   74.3000  220.4690 C   0  0  0  0  0  0  0  0  0  0  0  0
  141.3560   74.1240  221.0480 C   0  0  0  0  0  0  0  0  0  0  0  0
  140.7360   72.8660  221.0580 C   0  0  0  0  0  0  0  0  0  0  0  0
  139.4220   72.7370  221.5130 C   0  0  0  0  0  0  0  0  0  0  0  0
  138.7150   73.8650  221.9370 C   0  0  0  0  0  0  0  0  0  0  0  0
  139.3310   75.1190  221.9440 C   0  0  0  0  0  0  0  0  0  0  0  0
  140.6830   75.2460  221.5650 C   0  0  0  0  0  0  0  0  0  0  0  0
  141.4460   76.5580  221.4770 C   0  0  2  0  0  0  0  0  0  0  0  0
  140.7730   77.8070  222.0330 C   0  0  0  0  0  0  0  0  0  0  0  0
  139.4240   77.9010  222.3850 C   0  0  0  0  0  0  0  0  0  0  0  0
  139.1650   79.0620  223.0240 N   0  0  0  0  0  0  0  0  0  0  0  0
  140.3440   79.6870  223.1470 C   0  0  0  0  0  0  0  0  0  0  0  0
  140.5830   80.8880  223.8140 C   0  0  0  0  0  0  0  0  0  0  0  0
  141.9120   81.3290  223.9210 C   0  0  0  0  0  0  0  0  0  0  0  0
  142.9630   80.5560  223.3880 C   0  0  0  0  0  0  0  0  0  0  0  0
  142.6950   79.3430  222.7310 C   0  0  0  0  0  0  0  0  0  0  0  0
  141.3600   78.9430  222.5930 C   0  0  0  0  0  0  0  0  0  0  0  0
  141.8486   78.1305  217.3613 H   0  0  0  0  0  0  0  0  0  0  0  0
  140.0698   78.1761  217.0697 H   0  0  0  0  0  0  0  0  0  0  0  0
  142.9026   79.6641  218.8660 H   0  0  0  0  0  0  0  0  0  0  0  0
  142.7349   81.7264  220.2538 H   0  0  0  0  0  0  0  0  0  0  0  0
  138.4142   81.5320  220.0145 H   0  0  0  0  0  0  0  0  0  0  0  0
  138.5842   79.4697  218.6267 H   0  0  0  0  0  0  0  0  0  0  0  0
  142.8789   75.4889  218.6610 H   0  0  0  0  0  0  0  0  0  0  0  0
  143.9106   76.0512  220.0776 H   0  0  0  0  0  0  0  0  0  0  0  0
  142.9197   73.4922  219.7446 H   0  0  0  0  0  0  0  0  0  0  0  0
  143.4497   74.2708  221.3081 H   0  0  0  0  0  0  0  0  0  0  0  0
  141.2853   71.9800  220.7071 H   0  0  0  0  0  0  0  0  0  0  0  0
  138.9434   71.7469  221.5376 H   0  0  0  0  0  0  0  0  0  0  0  0
  137.6702   73.7655  222.2663 H   0  0  0  0  0  0  0  0  0  0  0  0
  138.7598   76.0093  222.2459 H   0  0  0  0  0  0  0  0  0  0  0  0
  142.2847   76.4708  222.1834 H   0  0  0  0  0  0  0  0  0  0  0  0
  138.6705   77.1291  222.1694 H   0  0  0  0  0  0  0  0  0  0  0  0
  138.2430   79.3730  223.4020 H   0  0  0  0  0  0  0  0  0  0  0  0
  139.7557   81.4722  224.2433 H   0  0  0  0  0  0  0  0  0  0  0  0
  142.1337   82.2822  224.4232 H   0  0  0  0  0  0  0  0  0  0  0  0
  144.0015   80.9050  223.4871 H   0  0  0  0  0  0  0  0  0  0  0  0
  143.5131   78.7234  222.3351 H   0  0  0  0  0  0  0  0  0  0  0  0
  1  2  2  0
  2  3  2  0
  2  4  1  0
  4  5  1  0
  5  6  2  0
  6  7  1  0
  7  8  2  0
  8  9  1  0
  9 10  1  0
  9 11  1  0
  9 12  1  0
  8 13  1  0
 13 14  2  0
  2 15  1  0
 15 16  1  0
 16 17  1  0
 17 18  1  0
 18 19  2  0
 19 20  1  0
 20 21  2  0
 21 22  1  0
 22 23  2  0
 23 24  1  0
 24 25  1  0
 25 26  2  0
 26 27  1  0
 27 28  1  0
 28 29  2  0
 29 30  1  0
 30 31  2  0
 31 32  1  0
 32 33  2  0
 14  5  1  0
 24 15  1  0
 33 25  1  0
 23 18  1  0
 33 28  1  0
  4 34  1  0
  4 35  1  0
  6 36  1  0
  7 37  1  0
 13 38  1  0
 14 39  1  0
 16 40  1  0
 16 41  1  0
 17 42  1  0
 17 43  1  0
 19 44  1  0
 20 45  1  0
 21 46  1  0
 22 47  1  0
 24 48  1  1
 26 49  1  0
 27 50  1  0
 29 51  1  0
 30 52  1  0
 31 53  1  0
 32 54  1  0
M  END
>  <UniqueID>  (66) 
192

>  <SMILES>  (66) 
O=S(=O)(Cc1ccc(C(F)(F)F)cc1)N1CCc2ccccc2[C@@H]1c1c[nH]c2ccccc12

>  <Energy>  (66) 
109.23778234269453

>  <Genealogy>  (66) 
O=S(=O)(Cc1ccc(C(F)(F)F)cc1)N1CCc2ccccc2[C@@H]1c1c[nH]c2ccccc12 (3D coordinates assigned)
O=S(=O)(Cc1ccc(C(F)(F)F)cc1)N1CCc2ccccc2[C@@H]1c1c[nH]c2ccccc12 (nonaromatic ring conformer: 109.23778234269453 kcal/mol)

>  <smiles>  (66) 
O=S(=O)(Cc1ccc(C(F)(F)F)cc1)N1CCc2ccccc2[C@@H]1c1c[nH]c2ccccc12

>  <score_type>  (66) 
oracle

>  <origin>  (66) 
autodockgpu

>  <m_score__min__energy>  (66) 
-7.4100000000000001

>  <m_primary>  (66) 
energy

>  <meeko>  (66) 
{"free_energy": -6.43, "intermolecular_energy": -7.92, "internal_energy": -2.88, "cluster_size": 7, "cluster_id": 3, "rank_in_cluster": 5}

>  <energy>  (66) 
-7.38

>  <cluster_rmsd>  (66) 
0.1

>  <rmsd>  (66) 
271.33

>  <cluster>  (66) 
1

$$$$
MHMHNRBLDMQEKR-XMMPIXPANA-N
     RDKit          3D

 54 58  0  0  0  0  0  0  0  0999 V2000
  139.8140   75.1720  222.5520 O   0  0  0  0  0  0  0  0  0  0  0  0
  138.6450   75.2250  221.6060 S   0  0  0  0  0  0  0  0  0  0  0  0
  137.3940   74.8700  222.3610 O   0  0  0  0  0  0  0  0  0  0  0  0
  138.4840   76.8930  220.9840 C   0  0  0  0  0  0  0  0  0  0  0  0
  139.5550   77.7730  221.5640 C   0  0  0  0  0  0  0  0  0  0  0  0
  139.4930   78.1670  222.9090 C   0  0  0  0  0  0  0  0  0  0  0  0
  140.4680   79.0170  223.4420 C   0  0  0  0  0  0  0  0  0  0  0  0
  141.5250   79.4780  222.6400 C   0  0  0  0  0  0  0  0  0  0  0  0
  142.5470   80.4350  223.2000 C   0  0  0  0  0  0  0  0  0  0  0  0
  143.8090   80.1440  222.7130 F   0  0  0  0  0  0  0  0  0  0  0  0
  142.5870   80.3530  224.5810 F   0  0  0  0  0  0  0  0  0  0  0  0
  142.2100   81.7250  222.8350 F   0  0  0  0  0  0  0  0  0  0  0  0
  141.5620   79.1130  221.2830 C   0  0  0  0  0  0  0  0  0  0  0  0
  140.5870   78.2640  220.7510 C   0  0  0  0  0  0  0  0  0  0  0  0
  138.8900   74.1190  220.2570 N   0  0  0  0  0  0  0  0  0  0  0  0
  137.6550   73.3340  219.9920 C   0  0  0  0  0  0  0  0  0  0  0  0
  137.6120   71.9200  220.6500 C   0  0  0  0  0  0  0  0  0  0  0  0
  138.6030   71.7560  221.7770 C   0  0  0  0  0  0  0  0  0  0  0  0
  138.2890   70.9820  222.9030 C   0  0  0  0  0  0  0  0  0  0  0  0
  139.1790   70.9150  223.9760 C   0  0  0  0  0  0  0  0  0  0  0  0
  140.3740   71.6370  223.9400 C   0  0  0  0  0  0  0  0  0  0  0  0
  140.7020   72.3980  222.8150 C   0  0  0  0  0  0  0  0  0  0  0  0
  139.8480   72.4070  221.6930 C   0  0  0  0  0  0  0  0  0  0  0  0
  140.0640   73.2350  220.4370 C   0  0  2  0  0  0  0  0  0  0  0  0
  141.3990   73.9530  220.2840 C   0  0  0  0  0  0  0  0  0  0  0  0
  141.5840   75.3340  220.3950 C   0  0  0  0  0  0  0  0  0  0  0  0
  142.8960   75.6530  220.4030 N   0  0  0  0  0  0  0  0  0  0  0  0
  143.5590   74.4890  220.3640 C   0  0  0  0  0  0  0  0  0  0  0  0
  144.9410   74.3160  220.4360 C   0  0  0  0  0  0  0  0  0  0  0  0
  145.4400   73.0040  220.4830 C   0  0  0  0  0  0  0  0  0  0  0  0
  144.5550   71.9070  220.4850 C   0  0  0  0  0  0  0  0  0  0  0  0
  143.1660   72.1100  220.4250 C   0  0  0  0  0  0  0  0  0  0  0  0
  142.6890   73.4230  220.3300 C   0  0  0  0  0  0  0  0  0  0  0  0
  138.5778   76.8820  219.8881 H   0  0  0  0  0  0  0  0  0  0  0  0
  137.4999   77.2892  221.2747 H   0  0  0  0  0  0  0  0  0  0  0  0
  138.6736   77.8058  223.5478 H   0  0  0  0  0  0  0  0  0  0  0  0
  140.4065   79.3263  224.4958 H   0  0  0  0  0  0  0  0  0  0  0  0
  142.3635   79.4980  220.6354 H   0  0  0  0  0  0  0  0  0  0  0  0
  140.6295   77.9796  219.6893 H   0  0  0  0  0  0  0  0  0  0  0  0
  136.7977   73.9109  220.3691 H   0  0  0  0  0  0  0  0  0  0  0  0
  137.6279   73.1657  218.9053 H   0  0  0  0  0  0  0  0  0  0  0  0
  136.6003   71.7502  221.0471 H   0  0  0  0  0  0  0  0  0  0  0  0
  137.8795   71.1900  219.8718 H   0  0  0  0  0  0  0  0  0  0  0  0
  137.3401   70.4269  222.9408 H   0  0  0  0  0  0  0  0  0  0  0  0
  138.9390   70.2929  224.8509 H   0  0  0  0  0  0  0  0  0  0  0  0
  141.0591   71.6065  224.8000 H   0  0  0  0  0  0  0  0  0  0  0  0
  141.6282   72.9913  222.8046 H   0  0  0  0  0  0  0  0  0  0  0  0
  140.1447   72.5168  219.6078 H   0  0  0  0  0  0  0  0  0  0  0  0
  140.7664   76.0663  220.4666 H   0  0  0  0  0  0  0  0  0  0  0  0
  143.3050   76.6090  220.4900 H   0  0  0  0  0  0  0  0  0  0  0  0
  145.6199   75.1813  220.4554 H   0  0  0  0  0  0  0  0  0  0  0  0
  146.5259   72.8319  220.5184 H   0  0  0  0  0  0  0  0  0  0  0  0
  144.9551   70.8835  220.5339 H   0  0  0  0  0  0  0  0  0  0  0  0
  142.4704   71.2583  220.4520 H   0  0  0  0  0  0  0  0  0  0  0  0
  1  2  2  0
  2  3  2  0
  2  4  1  0
  4  5  1  0
  5  6  2  0
  6  7  1  0
  7  8  2  0
  8  9  1  0
  9 10  1  0
  9 11  1  0
  9 12  1  0
  8 13  1  0
 13 14  2  0
  2 15  1  0
 15 16  1  0
 16 17  1  0
 17 18  1  0
 18 19  2  0
 19 20  1  0
 20 21  2  0
 21 22  1  0
 22 23  2  0
 23 24  1  0
 24 25  1  0
 25 26  2  0
 26 27  1  0
 27 28  1  0
 28 29  2  0
 29 30  1  0
 30 31  2  0
 31 32  1  0
 32 33  2  0
 14  5  1  0
 24 15  1  0
 33 25  1  0
 23 18  1  0
 33 28  1  0
  4 34  1  0
  4 35  1  0
  6 36  1  0
  7 37  1  0
 13 38  1  0
 14 39  1  0
 16 40  1  0
 16 41  1  0
 17 42  1  0
 17 43  1  0
 19 44  1  0
 20 45  1  0
 21 46  1  0
 22 47  1  0
 24 48  1  6
 26 49  1  0
 27 50  1  0
 29 51  1  0
 30 52  1  0
 31 53  1  0
 32 54  1  0
M  END
>  <UniqueID>  (67) 
192

>  <SMILES>  (67) 
O=S(=O)(Cc1ccc(C(F)(F)F)cc1)N1CCc2ccccc2[C@@H]1c1c[nH]c2ccccc12

>  <Energy>  (67) 
109.23778234269453

>  <Genealogy>  (67) 
O=S(=O)(Cc1ccc(C(F)(F)F)cc1)N1CCc2ccccc2[C@@H]1c1c[nH]c2ccccc12 (3D coordinates assigned)
O=S(=O)(Cc1ccc(C(F)(F)F)cc1)N1CCc2ccccc2[C@@H]1c1c[nH]c2ccccc12 (nonaromatic ring conformer: 109.23778234269453 kcal/mol)

>  <smiles>  (67) 
O=S(=O)(Cc1ccc(C(F)(F)F)cc1)N1CCc2ccccc2[C@@H]1c1c[nH]c2ccccc12

>  <score_type>  (67) 
oracle

>  <origin>  (67) 
autodockgpu

>  <m_score__min__energy>  (67) 
-7.4100000000000001

>  <m_primary>  (67) 
energy

>  <meeko>  (67) 
{"free_energy": -7.41, "intermolecular_energy": -8.9, "internal_energy": -2.01, "cluster_size": 9, "cluster_id": 1, "rank_in_cluster": 2}

>  <energy>  (67) 
-7.34

>  <cluster_rmsd>  (67) 
0.09

>  <rmsd>  (67) 
271.29

>  <cluster>  (67) 
1

$$$$
MHMHNRBLDMQEKR-XMMPIXPANA-N
     RDKit          3D

 54 58  0  0  0  0  0  0  0  0999 V2000
  139.8460   75.2380  222.6540 O   0  0  0  0  0  0  0  0  0  0  0  0
  138.6470   75.2960  221.7480 S   0  0  0  0  0  0  0  0  0  0  0  0
  137.4210   74.9410  222.5430 O   0  0  0  0  0  0  0  0  0  0  0  0
  138.4680   76.9660  221.1370 C   0  0  0  0  0  0  0  0  0  0  0  0
  139.5420   77.8490  221.7060 C   0  0  0  0  0  0  0  0  0  0  0  0
  139.4650   78.2850  223.0380 C   0  0  0  0  0  0  0  0  0  0  0  0
  140.4430   79.1380  223.5600 C   0  0  0  0  0  0  0  0  0  0  0  0
  141.5190   79.5590  222.7610 C   0  0  0  0  0  0  0  0  0  0  0  0
  142.5450   80.5200  223.3080 C   0  0  0  0  0  0  0  0  0  0  0  0
  142.8920   80.1790  224.6030 F   0  0  0  0  0  0  0  0  0  0  0  0
  142.0470   81.8110  223.3180 F   0  0  0  0  0  0  0  0  0  0  0  0
  143.6750   80.4790  222.5130 F   0  0  0  0  0  0  0  0  0  0  0  0
  141.5720   79.1520  221.4170 C   0  0  0  0  0  0  0  0  0  0  0  0
  140.5940   78.3000  220.8960 C   0  0  0  0  0  0  0  0  0  0  0  0
  138.8440   74.1930  220.3880 N   0  0  0  0  0  0  0  0  0  0  0  0
  137.5900   73.4310  220.1450 C   0  0  0  0  0  0  0  0  0  0  0  0
  137.5360   72.0140  220.7970 C   0  0  0  0  0  0  0  0  0  0  0  0
  138.5480   71.8270  221.9010 C   0  0  0  0  0  0  0  0  0  0  0  0
  138.2440   71.0520  223.0300 C   0  0  0  0  0  0  0  0  0  0  0  0
  139.1550   70.9630  224.0840 C   0  0  0  0  0  0  0  0  0  0  0  0
  140.3620   71.6650  224.0260 C   0  0  0  0  0  0  0  0  0  0  0  0
  140.6790   72.4260  222.8990 C   0  0  0  0  0  0  0  0  0  0  0  0
  139.8020   72.4570  221.7950 C   0  0  0  0  0  0  0  0  0  0  0  0
  140.0060   73.2880  220.5390 C   0  0  2  0  0  0  0  0  0  0  0  0
  141.3500   73.9840  220.3620 C   0  0  0  0  0  0  0  0  0  0  0  0
  141.5570   75.3630  220.4530 C   0  0  0  0  0  0  0  0  0  0  0  0
  142.8730   75.6620  220.4420 N   0  0  0  0  0  0  0  0  0  0  0  0
  143.5180   74.4880  220.4120 C   0  0  0  0  0  0  0  0  0  0  0  0
  144.8980   74.2950  220.4710 C   0  0  0  0  0  0  0  0  0  0  0  0
  145.3780   72.9760  220.5310 C   0  0  0  0  0  0  0  0  0  0  0  0
  144.4770   71.8930  220.5570 C   0  0  0  0  0  0  0  0  0  0  0  0
  143.0900   72.1160  220.5090 C   0  0  0  0  0  0  0  0  0  0  0  0
  142.6320   73.4350  220.4020 C   0  0  0  0  0  0  0  0  0  0  0  0
  138.5462   76.9610  220.0398 H   0  0  0  0  0  0  0  0  0  0  0  0
  137.4860   77.3552  221.4438 H   0  0  0  0  0  0  0  0  0  0  0  0
  138.6312   77.9542  223.6747 H   0  0  0  0  0  0  0  0  0  0  0  0
  140.3691   79.4812  224.6025 H   0  0  0  0  0  0  0  0  0  0  0  0
  142.3886   79.5062  220.7707 H   0  0  0  0  0  0  0  0  0  0  0  0
  140.6499   77.9815  219.8446 H   0  0  0  0  0  0  0  0  0  0  0  0
  136.7510   74.0208  220.5429 H   0  0  0  0  0  0  0  0  0  0  0  0
  137.5372   73.2690  219.0583 H   0  0  0  0  0  0  0  0  0  0  0  0
  136.5303   71.8600  221.2152 H   0  0  0  0  0  0  0  0  0  0  0  0
  137.7733   71.2833  220.0097 H   0  0  0  0  0  0  0  0  0  0  0  0
  137.2863   70.5136  223.0849 H   0  0  0  0  0  0  0  0  0  0  0  0
  138.9227   70.3401  224.9604 H   0  0  0  0  0  0  0  0  0  0  0  0
  141.0647   71.6179  224.8710 H   0  0  0  0  0  0  0  0  0  0  0  0
  141.6152   73.0028  222.8722 H   0  0  0  0  0  0  0  0  0  0  0  0
  140.0569   72.5731  219.7046 H   0  0  0  0  0  0  0  0  0  0  0  0
  140.7513   76.1085  220.5244 H   0  0  0  0  0  0  0  0  0  0  0  0
  143.2970   76.6140  220.5110 H   0  0  0  0  0  0  0  0  0  0  0  0
  145.5900   75.1501  220.4705 H   0  0  0  0  0  0  0  0  0  0  0  0
  146.4615   72.7880  220.5578 H   0  0  0  0  0  0  0  0  0  0  0  0
  144.8623   70.8643  220.6154 H   0  0  0  0  0  0  0  0  0  0  0  0
  142.3820   71.2754  220.5544 H   0  0  0  0  0  0  0  0  0  0  0  0
  1  2  2  0
  2  3  2  0
  2  4  1  0
  4  5  1  0
  5  6  2  0
  6  7  1  0
  7  8  2  0
  8  9  1  0
  9 10  1  0
  9 11  1  0
  9 12  1  0
  8 13  1  0
 13 14  2  0
  2 15  1  0
 15 16  1  0
 16 17  1  0
 17 18  1  0
 18 19  2  0
 19 20  1  0
 20 21  2  0
 21 22  1  0
 22 23  2  0
 23 24  1  0
 24 25  1  0
 25 26  2  0
 26 27  1  0
 27 28  1  0
 28 29  2  0
 29 30  1  0
 30 31  2  0
 31 32  1  0
 32 33  2  0
 14  5  1  0
 24 15  1  0
 33 25  1  0
 23 18  1  0
 33 28  1  0
  4 34  1  0
  4 35  1  0
  6 36  1  0
  7 37  1  0
 13 38  1  0
 14 39  1  0
 16 40  1  0
 16 41  1  0
 17 42  1  0
 17 43  1  0
 19 44  1  0
 20 45  1  0
 21 46  1  0
 22 47  1  0
 24 48  1  6
 26 49  1  0
 27 50  1  0
 29 51  1  0
 30 52  1  0
 31 53  1  0
 32 54  1  0
M  END
>  <UniqueID>  (68) 
192

>  <SMILES>  (68) 
O=S(=O)(Cc1ccc(C(F)(F)F)cc1)N1CCc2ccccc2[C@@H]1c1c[nH]c2ccccc12

>  <Energy>  (68) 
109.23778234269453

>  <Genealogy>  (68) 
O=S(=O)(Cc1ccc(C(F)(F)F)cc1)N1CCc2ccccc2[C@@H]1c1c[nH]c2ccccc12 (3D coordinates assigned)
O=S(=O)(Cc1ccc(C(F)(F)F)cc1)N1CCc2ccccc2[C@@H]1c1c[nH]c2ccccc12 (nonaromatic ring conformer: 109.23778234269453 kcal/mol)

>  <smiles>  (68) 
O=S(=O)(Cc1ccc(C(F)(F)F)cc1)N1CCc2ccccc2[C@@H]1c1c[nH]c2ccccc12

>  <score_type>  (68) 
oracle

>  <origin>  (68) 
autodockgpu

>  <m_score__min__energy>  (68) 
-7.4100000000000001

>  <m_primary>  (68) 
energy

>  <meeko>  (68) 
{"free_energy": -7.38, "intermolecular_energy": -8.87, "internal_energy": -2.01, "cluster_size": 9, "cluster_id": 1, "rank_in_cluster": 5}

>  <energy>  (68) 
-7.32

>  <cluster_rmsd>  (68) 
0.1

>  <rmsd>  (68) 
271.28

>  <cluster>  (68) 
1

$$$$
MHMHNRBLDMQEKR-XMMPIXPANA-N
     RDKit          3D

 54 58  0  0  0  0  0  0  0  0999 V2000
  139.2160   76.9990  219.6540 O   0  0  0  0  0  0  0  0  0  0  0  0
  140.5880   76.6950  219.1190 S   0  0  0  0  0  0  0  0  0  0  0  0
  140.5130   75.4620  218.2620 O   0  0  0  0  0  0  0  0  0  0  0  0
  141.1270   78.0650  218.1050 C   0  0  0  0  0  0  0  0  0  0  0  0
  140.9120   79.3660  218.8260 C   0  0  0  0  0  0  0  0  0  0  0  0
  142.0050   80.0740  219.3460 C   0  0  0  0  0  0  0  0  0  0  0  0
  141.8050   81.2650  220.0500 C   0  0  0  0  0  0  0  0  0  0  0  0
  140.5080   81.7730  220.2360 C   0  0  0  0  0  0  0  0  0  0  0  0
  140.2880   83.0300  221.0390 C   0  0  0  0  0  0  0  0  0  0  0  0
  141.4440   83.3910  221.7080 F   0  0  0  0  0  0  0  0  0  0  0  0
  139.2870   82.8420  221.9760 F   0  0  0  0  0  0  0  0  0  0  0  0
  139.9220   84.0560  220.1880 F   0  0  0  0  0  0  0  0  0  0  0  0
  139.4130   81.0410  219.7470 C   0  0  0  0  0  0  0  0  0  0  0  0
  139.6130   79.8500  219.0430 C   0  0  0  0  0  0  0  0  0  0  0  0
  141.7300   76.4620  220.4410 N   0  0  0  0  0  0  0  0  0  0  0  0
  142.5970   75.2810  220.1830 C   0  0  0  0  0  0  0  0  0  0  0  0
  142.1300   73.9540  220.8560 C   0  0  0  0  0  0  0  0  0  0  0  0
  140.6820   73.9790  221.2820 C   0  0  0  0  0  0  0  0  0  0  0  0
  139.8900   72.8230  221.2020 C   0  0  0  0  0  0  0  0  0  0  0  0
  138.5310   72.8850  221.5130 C   0  0  0  0  0  0  0  0  0  0  0  0
  137.9510   74.1010  221.8820 C   0  0  0  0  0  0  0  0  0  0  0  0
  138.7360   75.2520  221.9790 C   0  0  0  0  0  0  0  0  0  0  0  0
  140.1250   75.1840  221.7460 C   0  0  0  0  0  0  0  0  0  0  0  0
  141.0740   76.3720  221.7650 C   0  0  2  0  0  0  0  0  0  0  0  0
  140.5320   77.7030  222.2710 C   0  0  0  0  0  0  0  0  0  0  0  0
  139.2210   77.9220  222.7040 C   0  0  0  0  0  0  0  0  0  0  0  0
  139.0910   79.1400  223.2710 N   0  0  0  0  0  0  0  0  0  0  0  0
  140.3160   79.6820  223.2680 C   0  0  0  0  0  0  0  0  0  0  0  0
  140.6860   80.9050  223.8260 C   0  0  0  0  0  0  0  0  0  0  0  0
  142.0470   81.2530  223.8100 C   0  0  0  0  0  0  0  0  0  0  0  0
  143.0000   80.3680  223.2670 C   0  0  0  0  0  0  0  0  0  0  0  0
  142.6010   79.1360  222.7210 C   0  0  0  0  0  0  0  0  0  0  0  0
  141.2350   78.8280  222.7040 C   0  0  0  0  0  0  0  0  0  0  0  0
  142.1970   77.9489  217.8778 H   0  0  0  0  0  0  0  0  0  0  0  0
  140.5417   78.0719  217.1737 H   0  0  0  0  0  0  0  0  0  0  0  0
  143.0253   79.6901  219.1991 H   0  0  0  0  0  0  0  0  0  0  0  0
  142.6686   81.8082  220.4612 H   0  0  0  0  0  0  0  0  0  0  0  0
  138.3904   81.4079  219.9194 H   0  0  0  0  0  0  0  0  0  0  0  0
  138.7483   79.2899  218.6575 H   0  0  0  0  0  0  0  0  0  0  0  0
  142.6334   75.1167  219.0960 H   0  0  0  0  0  0  0  0  0  0  0  0
  143.5759   75.5190  220.6248 H   0  0  0  0  0  0  0  0  0  0  0  0
  142.2692   73.1311  220.1394 H   0  0  0  0  0  0  0  0  0  0  0  0
  142.7351   73.8185  221.7646 H   0  0  0  0  0  0  0  0  0  0  0  0
  140.3406   71.8679  220.8941 H   0  0  0  0  0  0  0  0  0  0  0  0
  137.9154   71.9746  221.4675 H   0  0  0  0  0  0  0  0  0  0  0  0
  136.8734   74.1521  222.0967 H   0  0  0  0  0  0  0  0  0  0  0  0
  138.2695   76.2140  222.2378 H   0  0  0  0  0  0  0  0  0  0  0  0
  141.8109   76.1618  222.5542 H   0  0  0  0  0  0  0  0  0  0  0  0
  138.4017   77.1959  222.5966 H   0  0  0  0  0  0  0  0  0  0  0  0
  138.2230   79.5450  223.6870 H   0  0  0  0  0  0  0  0  0  0  0  0
  139.9346   81.5774  224.2657 H   0  0  0  0  0  0  0  0  0  0  0  0
  142.3701   82.2200  224.2229 H   0  0  0  0  0  0  0  0  0  0  0  0
  144.0649   80.6438  223.2706 H   0  0  0  0  0  0  0  0  0  0  0  0
  143.3430   78.4314  222.3172 H   0  0  0  0  0  0  0  0  0  0  0  0
  1  2  2  0
  2  3  2  0
  2  4  1  0
  4  5  1  0
  5  6  2  0
  6  7  1  0
  7  8  2  0
  8  9  1  0
  9 10  1  0
  9 11  1  0
  9 12  1  0
  8 13  1  0
 13 14  2  0
  2 15  1  0
 15 16  1  0
 16 17  1  0
 17 18  1  0
 18 19  2  0
 19 20  1  0
 20 21  2  0
 21 22  1  0
 22 23  2  0
 23 24  1  0
 24 25  1  0
 25 26  2  0
 26 27  1  0
 27 28  1  0
 28 29  2  0
 29 30  1  0
 30 31  2  0
 31 32  1  0
 32 33  2  0
 14  5  1  0
 24 15  1  0
 33 25  1  0
 23 18  1  0
 33 28  1  0
  4 34  1  0
  4 35  1  0
  6 36  1  0
  7 37  1  0
 13 38  1  0
 14 39  1  0
 16 40  1  0
 16 41  1  0
 17 42  1  0
 17 43  1  0
 19 44  1  0
 20 45  1  0
 21 46  1  0
 22 47  1  0
 24 48  1  1
 26 49  1  0
 27 50  1  0
 29 51  1  0
 30 52  1  0
 31 53  1  0
 32 54  1  0
M  END
>  <UniqueID>  (69) 
192

>  <SMILES>  (69) 
O=S(=O)(Cc1ccc(C(F)(F)F)cc1)N1CCc2ccccc2[C@@H]1c1c[nH]c2ccccc12

>  <Energy>  (69) 
109.23778234269453

>  <Genealogy>  (69) 
O=S(=O)(Cc1ccc(C(F)(F)F)cc1)N1CCc2ccccc2[C@@H]1c1c[nH]c2ccccc12 (3D coordinates assigned)
O=S(=O)(Cc1ccc(C(F)(F)F)cc1)N1CCc2ccccc2[C@@H]1c1c[nH]c2ccccc12 (nonaromatic ring conformer: 109.23778234269453 kcal/mol)

>  <smiles>  (69) 
O=S(=O)(Cc1ccc(C(F)(F)F)cc1)N1CCc2ccccc2[C@@H]1c1c[nH]c2ccccc12

>  <score_type>  (69) 
oracle

>  <origin>  (69) 
autodockgpu

>  <m_score__min__energy>  (69) 
-7.4100000000000001

>  <m_primary>  (69) 
energy

>  <meeko>  (69) 
{"free_energy": -6.44, "intermolecular_energy": -7.93, "internal_energy": -2.86, "cluster_size": 7, "cluster_id": 3, "rank_in_cluster": 3}

>  <energy>  (69) 
-7.3

>  <cluster_rmsd>  (69) 
0.3

>  <rmsd>  (69) 
271.19

>  <cluster>  (69) 
1

$$$$
MHMHNRBLDMQEKR-XMMPIXPANA-N
     RDKit          3D

 54 58  0  0  0  0  0  0  0  0999 V2000
  139.6820   75.0370  222.5680 O   0  0  0  0  0  0  0  0  0  0  0  0
  138.5260   75.0200  221.6050 S   0  0  0  0  0  0  0  0  0  0  0  0
  137.2780   74.6390  222.3520 O   0  0  0  0  0  0  0  0  0  0  0  0
  138.3130   76.6630  220.9340 C   0  0  0  0  0  0  0  0  0  0  0  0
  139.3810   77.5830  221.4520 C   0  0  0  0  0  0  0  0  0  0  0  0
  139.3880   77.9700  222.8010 C   0  0  0  0  0  0  0  0  0  0  0  0
  140.3590   78.8550  223.2770 C   0  0  0  0  0  0  0  0  0  0  0  0
  141.3470   79.3600  222.4140 C   0  0  0  0  0  0  0  0  0  0  0  0
  142.3630   80.3550  222.9160 C   0  0  0  0  0  0  0  0  0  0  0  0
  142.3650   81.4910  222.1260 F   0  0  0  0  0  0  0  0  0  0  0  0
  143.6340   79.8090  222.8920 F   0  0  0  0  0  0  0  0  0  0  0  0
  142.0500   80.7100  224.2140 F   0  0  0  0  0  0  0  0  0  0  0  0
  141.3140   79.0020  221.0560 C   0  0  0  0  0  0  0  0  0  0  0  0
  140.3420   78.1160  220.5800 C   0  0  0  0  0  0  0  0  0  0  0  0
  138.8330   73.8870  220.2910 N   0  0  0  0  0  0  0  0  0  0  0  0
  137.6360   73.0410  220.0390 C   0  0  0  0  0  0  0  0  0  0  0  0
  137.6490   71.6460  220.7380 C   0  0  0  0  0  0  0  0  0  0  0  0
  138.6360   71.5590  221.8770 C   0  0  0  0  0  0  0  0  0  0  0  0
  138.3460   70.8040  223.0220 C   0  0  0  0  0  0  0  0  0  0  0  0
  139.2280   70.8080  224.1040 C   0  0  0  0  0  0  0  0  0  0  0  0
  140.3900   71.5810  224.0570 C   0  0  0  0  0  0  0  0  0  0  0  0
  140.6940   72.3230  222.9130 C   0  0  0  0  0  0  0  0  0  0  0  0
  139.8520   72.2620  221.7840 C   0  0  0  0  0  0  0  0  0  0  0  0
  140.0430   73.0620  220.5060 C   0  0  2  0  0  0  0  0  0  0  0  0
  141.3460   73.8340  220.3430 C   0  0  0  0  0  0  0  0  0  0  0  0
  141.4770   75.2210  220.4590 C   0  0  0  0  0  0  0  0  0  0  0  0
  142.7750   75.5920  220.4550 N   0  0  0  0  0  0  0  0  0  0  0  0
  143.4840   74.4560  220.4050 C   0  0  0  0  0  0  0  0  0  0  0  0
  144.8720   74.3390  220.4620 C   0  0  0  0  0  0  0  0  0  0  0  0
  145.4240   73.0480  220.4990 C   0  0  0  0  0  0  0  0  0  0  0  0
  144.5840   71.9160  220.5040 C   0  0  0  0  0  0  0  0  0  0  0  0
  143.1870   72.0630  220.4580 C   0  0  0  0  0  0  0  0  0  0  0  0
  142.6570   73.3570  220.3750 C   0  0  0  0  0  0  0  0  0  0  0  0
  138.3751   76.6172  219.8367 H   0  0  0  0  0  0  0  0  0  0  0  0
  137.3299   77.0491  221.2413 H   0  0  0  0  0  0  0  0  0  0  0  0
  138.6249   77.5745  223.4874 H   0  0  0  0  0  0  0  0  0  0  0  0
  140.3501   79.1586  224.3342 H   0  0  0  0  0  0  0  0  0  0  0  0
  142.0576   79.4213  220.3623 H   0  0  0  0  0  0  0  0  0  0  0  0
  140.3311   77.8357  219.5164 H   0  0  0  0  0  0  0  0  0  0  0  0
  136.7507   73.5902  220.3920 H   0  0  0  0  0  0  0  0  0  0  0  0
  137.6264   72.8403  218.9575 H   0  0  0  0  0  0  0  0  0  0  0  0
  136.6422   71.4433  221.1320 H   0  0  0  0  0  0  0  0  0  0  0  0
  137.9552   70.9061  219.9838 H   0  0  0  0  0  0  0  0  0  0  0  0
  137.4226   70.2079  223.0679 H   0  0  0  0  0  0  0  0  0  0  0  0
  139.0074   70.2015  224.9948 H   0  0  0  0  0  0  0  0  0  0  0  0
  141.0678   71.6058  224.9230 H   0  0  0  0  0  0  0  0  0  0  0  0
  141.5929   72.9566  222.8931 H   0  0  0  0  0  0  0  0  0  0  0  0
  140.1633   72.3245  219.6988 H   0  0  0  0  0  0  0  0  0  0  0  0
  140.6316   75.9198  220.5427 H   0  0  0  0  0  0  0  0  0  0  0  0
  143.1460   76.5640  220.5420 H   0  0  0  0  0  0  0  0  0  0  0  0
  145.5155   75.2310  220.4776 H   0  0  0  0  0  0  0  0  0  0  0  0
  146.5162   72.9198  220.5242 H   0  0  0  0  0  0  0  0  0  0  0  0
  145.0255   70.9093  220.5442 H   0  0  0  0  0  0  0  0  0  0  0  0
  142.5264   71.1839  220.4864 H   0  0  0  0  0  0  0  0  0  0  0  0
  1  2  2  0
  2  3  2  0
  2  4  1  0
  4  5  1  0
  5  6  2  0
  6  7  1  0
  7  8  2  0
  8  9  1  0
  9 10  1  0
  9 11  1  0
  9 12  1  0
  8 13  1  0
 13 14  2  0
  2 15  1  0
 15 16  1  0
 16 17  1  0
 17 18  1  0
 18 19  2  0
 19 20  1  0
 20 21  2  0
 21 22  1  0
 22 23  2  0
 23 24  1  0
 24 25  1  0
 25 26  2  0
 26 27  1  0
 27 28  1  0
 28 29  2  0
 29 30  1  0
 30 31  2  0
 31 32  1  0
 32 33  2  0
 14  5  1  0
 24 15  1  0
 33 25  1  0
 23 18  1  0
 33 28  1  0
  4 34  1  0
  4 35  1  0
  6 36  1  0
  7 37  1  0
 13 38  1  0
 14 39  1  0
 16 40  1  0
 16 41  1  0
 17 42  1  0
 17 43  1  0
 19 44  1  0
 20 45  1  0
 21 46  1  0
 22 47  1  0
 24 48  1  6
 26 49  1  0
 27 50  1  0
 29 51  1  0
 30 52  1  0
 31 53  1  0
 32 54  1  0
M  END
>  <UniqueID>  (70) 
192

>  <SMILES>  (70) 
O=S(=O)(Cc1ccc(C(F)(F)F)cc1)N1CCc2ccccc2[C@@H]1c1c[nH]c2ccccc12

>  <Energy>  (70) 
109.23778234269453

>  <Genealogy>  (70) 
O=S(=O)(Cc1ccc(C(F)(F)F)cc1)N1CCc2ccccc2[C@@H]1c1c[nH]c2ccccc12 (3D coordinates assigned)
O=S(=O)(Cc1ccc(C(F)(F)F)cc1)N1CCc2ccccc2[C@@H]1c1c[nH]c2ccccc12 (nonaromatic ring conformer: 109.23778234269453 kcal/mol)

>  <smiles>  (70) 
O=S(=O)(Cc1ccc(C(F)(F)F)cc1)N1CCc2ccccc2[C@@H]1c1c[nH]c2ccccc12

>  <score_type>  (70) 
oracle

>  <origin>  (70) 
autodockgpu

>  <m_score__min__energy>  (70) 
-7.4100000000000001

>  <m_primary>  (70) 
energy

>  <meeko>  (70) 
{"free_energy": -7.3, "intermolecular_energy": -8.79, "internal_energy": -2.01, "cluster_size": 9, "cluster_id": 1, "rank_in_cluster": 9}

>  <energy>  (70) 
-7.12

>  <cluster_rmsd>  (70) 
0.0

>  <rmsd>  (70) 
271.06

>  <cluster>  (70) 
2

$$$$
MHMHNRBLDMQEKR-XMMPIXPANA-N
     RDKit          3D

 54 58  0  0  0  0  0  0  0  0999 V2000
  142.1730   75.2830  221.5880 O   0  0  0  0  0  0  0  0  0  0  0  0
  140.8060   74.8630  221.1220 S   0  0  0  0  0  0  0  0  0  0  0  0
  140.3150   73.7470  222.0040 O   0  0  0  0  0  0  0  0  0  0  0  0
  139.6920   76.2510  221.2820 C   0  0  0  0  0  0  0  0  0  0  0  0
  140.4330   77.4640  221.7670 C   0  0  0  0  0  0  0  0  0  0  0  0
  141.0500   77.4570  223.0280 C   0  0  0  0  0  0  0  0  0  0  0  0
  141.7090   78.5970  223.4980 C   0  0  0  0  0  0  0  0  0  0  0  0
  141.7700   79.7590  222.7110 C   0  0  0  0  0  0  0  0  0  0  0  0
  142.4350   81.0050  223.2400 C   0  0  0  0  0  0  0  0  0  0  0  0
  143.8030   80.8220  223.3450 F   0  0  0  0  0  0  0  0  0  0  0  0
  141.9440   81.3260  224.4930 F   0  0  0  0  0  0  0  0  0  0  0  0
  142.1870   82.0550  222.3760 F   0  0  0  0  0  0  0  0  0  0  0  0
  141.1170   79.7760  221.4660 C   0  0  0  0  0  0  0  0  0  0  0  0
  140.4590   78.6350  220.9960 C   0  0  0  0  0  0  0  0  0  0  0  0
  140.8580   74.3450  219.4390 N   0  0  0  0  0  0  0  0  0  0  0  0
  140.6380   72.8770  219.3350 C   0  0  0  0  0  0  0  0  0  0  0  0
  141.9360   72.0160  219.2450 C   0  0  0  0  0  0  0  0  0  0  0  0
  143.1710   72.7480  219.7090 C   0  0  0  0  0  0  0  0  0  0  0  0
  144.1950   72.0710  220.3890 C   0  0  0  0  0  0  0  0  0  0  0  0
  145.2880   72.7790  220.8910 C   0  0  0  0  0  0  0  0  0  0  0  0
  145.3540   74.1660  220.7380 C   0  0  0  0  0  0  0  0  0  0  0  0
  144.3460   74.8450  220.0490 C   0  0  0  0  0  0  0  0  0  0  0  0
  143.2800   74.1300  219.4670 C   0  0  0  0  0  0  0  0  0  0  0  0
  142.0990   74.7560  218.7440 C   0  0  2  0  0  0  0  0  0  0  0  0
  142.1640   76.2480  218.4420 C   0  0  0  0  0  0  0  0  0  0  0  0
  143.3200   76.9420  218.0740 C   0  0  0  0  0  0  0  0  0  0  0  0
  143.0320   78.2020  217.6860 N   0  0  0  0  0  0  0  0  0  0  0  0
  141.6970   78.3080  217.7360 C   0  0  0  0  0  0  0  0  0  0  0  0
  140.9350   79.4080  217.3450 C   0  0  0  0  0  0  0  0  0  0  0  0
  139.5360   79.2860  217.3780 C   0  0  0  0  0  0  0  0  0  0  0  0
  138.9380   78.0720  217.7700 C   0  0  0  0  0  0  0  0  0  0  0  0
  139.7300   76.9740  218.1470 C   0  0  0  0  0  0  0  0  0  0  0  0
  141.1220   77.1300  218.1540 C   0  0  0  0  0  0  0  0  0  0  0  0
  139.2416   76.4691  220.3024 H   0  0  0  0  0  0  0  0  0  0  0  0
  138.9079   75.9970  222.0105 H   0  0  0  0  0  0  0  0  0  0  0  0
  141.0148   76.5500  223.6494 H   0  0  0  0  0  0  0  0  0  0  0  0
  142.1828   78.5839  224.4906 H   0  0  0  0  0  0  0  0  0  0  0  0
  141.1237   80.6925  220.8578 H   0  0  0  0  0  0  0  0  0  0  0  0
  139.9592   78.6562  220.0163 H   0  0  0  0  0  0  0  0  0  0  0  0
  140.0757   72.5533  220.2233 H   0  0  0  0  0  0  0  0  0  0  0  0
  140.0980   72.7152  218.3904 H   0  0  0  0  0  0  0  0  0  0  0  0
  141.8051   71.1206  219.8705 H   0  0  0  0  0  0  0  0  0  0  0  0
  142.0862   71.7628  218.1851 H   0  0  0  0  0  0  0  0  0  0  0  0
  144.1362   70.9812  220.5265 H   0  0  0  0  0  0  0  0  0  0  0  0
  146.0985   72.2442  221.4078 H   0  0  0  0  0  0  0  0  0  0  0  0
  146.2017   74.7249  221.1611 H   0  0  0  0  0  0  0  0  0  0  0  0
  144.3844   75.9408  219.9605 H   0  0  0  0  0  0  0  0  0  0  0  0
  142.1242   74.3584  217.7187 H   0  0  0  0  0  0  0  0  0  0  0  0
  144.3339   76.5160  218.0976 H   0  0  0  0  0  0  0  0  0  0  0  0
  143.7100   78.9220  217.3510 H   0  0  0  0  0  0  0  0  0  0  0  0
  141.4148   80.3432  217.0205 H   0  0  0  0  0  0  0  0  0  0  0  0
  138.9048   80.1418  217.0967 H   0  0  0  0  0  0  0  0  0  0  0  0
  137.8417   77.9828  217.7811 H   0  0  0  0  0  0  0  0  0  0  0  0
  139.2684   76.0163  218.4294 H   0  0  0  0  0  0  0  0  0  0  0  0
  1  2  2  0
  2  3  2  0
  2  4  1  0
  4  5  1  0
  5  6  2  0
  6  7  1  0
  7  8  2  0
  8  9  1  0
  9 10  1  0
  9 11  1  0
  9 12  1  0
  8 13  1  0
 13 14  2  0
  2 15  1  0
 15 16  1  0
 16 17  1  0
 17 18  1  0
 18 19  2  0
 19 20  1  0
 20 21  2  0
 21 22  1  0
 22 23  2  0
 23 24  1  0
 24 25  1  0
 25 26  2  0
 26 27  1  0
 27 28  1  0
 28 29  2  0
 29 30  1  0
 30 31  2  0
 31 32  1  0
 32 33  2  0
 14  5  1  0
 24 15  1  0
 33 25  1  0
 23 18  1  0
 33 28  1  0
  4 34  1  0
  4 35  1  0
  6 36  1  0
  7 37  1  0
 13 38  1  0
 14 39  1  0
 16 40  1  0
 16 41  1  0
 17 42  1  0
 17 43  1  0
 19 44  1  0
 20 45  1  0
 21 46  1  0
 22 47  1  0
 24 48  1  6
 26 49  1  0
 27 50  1  0
 29 51  1  0
 30 52  1  0
 31 53  1  0
 32 54  1  0
M  END
>  <UniqueID>  (71) 
192

>  <SMILES>  (71) 
O=S(=O)(Cc1ccc(C(F)(F)F)cc1)N1CCc2ccccc2[C@@H]1c1c[nH]c2ccccc12

>  <Energy>  (71) 
109.23778234269453

>  <Genealogy>  (71) 
O=S(=O)(Cc1ccc(C(F)(F)F)cc1)N1CCc2ccccc2[C@@H]1c1c[nH]c2ccccc12 (3D coordinates assigned)
O=S(=O)(Cc1ccc(C(F)(F)F)cc1)N1CCc2ccccc2[C@@H]1c1c[nH]c2ccccc12 (nonaromatic ring conformer: 109.23778234269453 kcal/mol)

>  <smiles>  (71) 
O=S(=O)(Cc1ccc(C(F)(F)F)cc1)N1CCc2ccccc2[C@@H]1c1c[nH]c2ccccc12

>  <score_type>  (71) 
oracle

>  <origin>  (71) 
autodockgpu

>  <m_score__min__energy>  (71) 
-7.4100000000000001

>  <m_primary>  (71) 
energy

>  <meeko>  (71) 
{"free_energy": -7.09, "intermolecular_energy": -8.58, "internal_energy": -2.24, "cluster_size": 4, "cluster_id": 2, "rank_in_cluster": 2}

>  <energy>  (71) 
-7.09

>  <cluster_rmsd>  (71) 
0.05

>  <rmsd>  (71) 
271.05

>  <cluster>  (71) 
2

$$$$
MHMHNRBLDMQEKR-XMMPIXPANA-N
     RDKit          3D

 54 58  0  0  0  0  0  0  0  0999 V2000
  142.1430   75.2720  221.5940 O   0  0  0  0  0  0  0  0  0  0  0  0
  140.7860   74.8200  221.1290 S   0  0  0  0  0  0  0  0  0  0  0  0
  140.3290   73.6810  221.9990 O   0  0  0  0  0  0  0  0  0  0  0  0
  139.6350   76.1760  221.3100 C   0  0  0  0  0  0  0  0  0  0  0  0
  140.3560   77.4170  221.7560 C   0  0  0  0  0  0  0  0  0  0  0  0
  141.0330   77.4370  222.9850 C   0  0  0  0  0  0  0  0  0  0  0  0
  141.6720   78.6020  223.4200 C   0  0  0  0  0  0  0  0  0  0  0  0
  141.6530   79.7630  222.6280 C   0  0  0  0  0  0  0  0  0  0  0  0
  142.2980   81.0330  223.1210 C   0  0  0  0  0  0  0  0  0  0  0  0
  143.6430   80.8320  223.3770 F   0  0  0  0  0  0  0  0  0  0  0  0
  141.6950   81.4650  224.2890 F   0  0  0  0  0  0  0  0  0  0  0  0
  142.1650   82.0150  222.1560 F   0  0  0  0  0  0  0  0  0  0  0  0
  140.9400   79.7500  221.4170 C   0  0  0  0  0  0  0  0  0  0  0  0
  140.3010   78.5850  220.9820 C   0  0  0  0  0  0  0  0  0  0  0  0
  140.8430   74.3240  219.4400 N   0  0  0  0  0  0  0  0  0  0  0  0
  140.6240   72.8570  219.3160 C   0  0  0  0  0  0  0  0  0  0  0  0
  141.9220   71.9970  219.2190 C   0  0  0  0  0  0  0  0  0  0  0  0
  143.1560   72.7240  219.6960 C   0  0  0  0  0  0  0  0  0  0  0  0
  144.1770   72.0390  220.3700 C   0  0  0  0  0  0  0  0  0  0  0  0
  145.2690   72.7400  220.8850 C   0  0  0  0  0  0  0  0  0  0  0  0
  145.3350   74.1290  220.7500 C   0  0  0  0  0  0  0  0  0  0  0  0
  144.3290   74.8170  220.0660 C   0  0  0  0  0  0  0  0  0  0  0  0
  143.2650   74.1090  219.4720 C   0  0  0  0  0  0  0  0  0  0  0  0
  142.0860   74.7440  218.7540 C   0  0  2  0  0  0  0  0  0  0  0  0
  142.1520   76.2390  218.4700 C   0  0  0  0  0  0  0  0  0  0  0  0
  143.3130   76.9420  218.1380 C   0  0  0  0  0  0  0  0  0  0  0  0
  143.0290   78.2060  217.7580 N   0  0  0  0  0  0  0  0  0  0  0  0
  141.6920   78.3060  217.7780 C   0  0  0  0  0  0  0  0  0  0  0  0
  140.9350   79.4080  217.3830 C   0  0  0  0  0  0  0  0  0  0  0  0
  139.5360   79.2800  217.3820 C   0  0  0  0  0  0  0  0  0  0  0  0
  138.9340   78.0590  217.7460 C   0  0  0  0  0  0  0  0  0  0  0  0
  139.7220   76.9600  218.1280 C   0  0  0  0  0  0  0  0  0  0  0  0
  141.1130   77.1210  218.1690 C   0  0  0  0  0  0  0  0  0  0  0  0
  139.1459   76.3681  220.3436 H   0  0  0  0  0  0  0  0  0  0  0  0
  138.8829   75.9080  222.0667 H   0  0  0  0  0  0  0  0  0  0  0  0
  141.0611   76.5317  223.6092 H   0  0  0  0  0  0  0  0  0  0  0  0
  142.1932   78.6100  224.3887 H   0  0  0  0  0  0  0  0  0  0  0  0
  140.8842   80.6635  220.8067 H   0  0  0  0  0  0  0  0  0  0  0  0
  139.7527   78.5847  220.0284 H   0  0  0  0  0  0  0  0  0  0  0  0
  140.0588   72.5216  220.1981 H   0  0  0  0  0  0  0  0  0  0  0  0
  140.0876   72.7078  218.3673 H   0  0  0  0  0  0  0  0  0  0  0  0
  141.7894   71.0940  219.8329 H   0  0  0  0  0  0  0  0  0  0  0  0
  142.0753   71.7566  218.1566 H   0  0  0  0  0  0  0  0  0  0  0  0
  144.1175   70.9475  220.4932 H   0  0  0  0  0  0  0  0  0  0  0  0
  146.0778   72.1984  221.3973 H   0  0  0  0  0  0  0  0  0  0  0  0
  146.1811   74.6826  221.1832 H   0  0  0  0  0  0  0  0  0  0  0  0
  144.3678   75.9138  219.9911 H   0  0  0  0  0  0  0  0  0  0  0  0
  142.1139   74.3592  217.7239 H   0  0  0  0  0  0  0  0  0  0  0  0
  144.3279   76.5199  218.1807 H   0  0  0  0  0  0  0  0  0  0  0  0
  143.7110   78.9330  217.4470 H   0  0  0  0  0  0  0  0  0  0  0  0
  141.4183   80.3490  217.0813 H   0  0  0  0  0  0  0  0  0  0  0  0
  138.9079   80.1365  217.0959 H   0  0  0  0  0  0  0  0  0  0  0  0
  137.8381   77.9654  217.7310 H   0  0  0  0  0  0  0  0  0  0  0  0
  139.2581   75.9972  218.3884 H   0  0  0  0  0  0  0  0  0  0  0  0
  1  2  2  0
  2  3  2  0
  2  4  1  0
  4  5  1  0
  5  6  2  0
  6  7  1  0
  7  8  2  0
  8  9  1  0
  9 10  1  0
  9 11  1  0
  9 12  1  0
  8 13  1  0
 13 14  2  0
  2 15  1  0
 15 16  1  0
 16 17  1  0
 17 18  1  0
 18 19  2  0
 19 20  1  0
 20 21  2  0
 21 22  1  0
 22 23  2  0
 23 24  1  0
 24 25  1  0
 25 26  2  0
 26 27  1  0
 27 28  1  0
 28 29  2  0
 29 30  1  0
 30 31  2  0
 31 32  1  0
 32 33  2  0
 14  5  1  0
 24 15  1  0
 33 25  1  0
 23 18  1  0
 33 28  1  0
  4 34  1  0
  4 35  1  0
  6 36  1  0
  7 37  1  0
 13 38  1  0
 14 39  1  0
 16 40  1  0
 16 41  1  0
 17 42  1  0
 17 43  1  0
 19 44  1  0
 20 45  1  0
 21 46  1  0
 22 47  1  0
 24 48  1  6
 26 49  1  0
 27 50  1  0
 29 51  1  0
 30 52  1  0
 31 53  1  0
 32 54  1  0
M  END
>  <UniqueID>  (72) 
192

>  <SMILES>  (72) 
O=S(=O)(Cc1ccc(C(F)(F)F)cc1)N1CCc2ccccc2[C@@H]1c1c[nH]c2ccccc12

>  <Energy>  (72) 
109.23778234269453

>  <Genealogy>  (72) 
O=S(=O)(Cc1ccc(C(F)(F)F)cc1)N1CCc2ccccc2[C@@H]1c1c[nH]c2ccccc12 (3D coordinates assigned)
O=S(=O)(Cc1ccc(C(F)(F)F)cc1)N1CCc2ccccc2[C@@H]1c1c[nH]c2ccccc12 (nonaromatic ring conformer: 109.23778234269453 kcal/mol)

>  <smiles>  (72) 
O=S(=O)(Cc1ccc(C(F)(F)F)cc1)N1CCc2ccccc2[C@@H]1c1c[nH]c2ccccc12

>  <score_type>  (72) 
oracle

>  <origin>  (72) 
autodockgpu

>  <m_score__min__energy>  (72) 
-7.4100000000000001

>  <m_primary>  (72) 
energy

>  <meeko>  (72) 
{"free_energy": -7.09, "intermolecular_energy": -8.58, "internal_energy": -2.26, "cluster_size": 4, "cluster_id": 2, "rank_in_cluster": 3}

>  <energy>  (72) 
-7.09

>  <cluster_rmsd>  (72) 
0.12

>  <rmsd>  (72) 
271.01

>  <cluster>  (72) 
2

$$$$
MHMHNRBLDMQEKR-XMMPIXPANA-N
     RDKit          3D

 54 58  0  0  0  0  0  0  0  0999 V2000
  139.8220   75.1880  222.5400 O   0  0  0  0  0  0  0  0  0  0  0  0
  138.6520   75.2450  221.5960 S   0  0  0  0  0  0  0  0  0  0  0  0
  137.4020   74.8850  222.3510 O   0  0  0  0  0  0  0  0  0  0  0  0
  138.4890   76.9150  220.9820 C   0  0  0  0  0  0  0  0  0  0  0  0
  139.5600   77.7930  221.5640 C   0  0  0  0  0  0  0  0  0  0  0  0
  139.4960   78.1890  222.9080 C   0  0  0  0  0  0  0  0  0  0  0  0
  140.4710   79.0360  223.4420 C   0  0  0  0  0  0  0  0  0  0  0  0
  141.5320   79.4940  222.6430 C   0  0  0  0  0  0  0  0  0  0  0  0
  142.5550   80.4500  223.2040 C   0  0  0  0  0  0  0  0  0  0  0  0
  143.8150   80.1610  222.7130 F   0  0  0  0  0  0  0  0  0  0  0  0
  142.5980   80.3620  224.5850 F   0  0  0  0  0  0  0  0  0  0  0  0
  142.2160   81.7410  222.8460 F   0  0  0  0  0  0  0  0  0  0  0  0
  141.5710   79.1280  221.2860 C   0  0  0  0  0  0  0  0  0  0  0  0
  140.5960   78.2800  220.7530 C   0  0  0  0  0  0  0  0  0  0  0  0
  138.8960   74.1450  220.2410 N   0  0  0  0  0  0  0  0  0  0  0  0
  137.6570   73.3670  219.9690 C   0  0  0  0  0  0  0  0  0  0  0  0
  137.6060   71.9500  220.6180 C   0  0  0  0  0  0  0  0  0  0  0  0
  138.5940   71.7750  221.7470 C   0  0  0  0  0  0  0  0  0  0  0  0
  138.2720   70.9960  222.8680 C   0  0  0  0  0  0  0  0  0  0  0  0
  139.1590   70.9180  223.9430 C   0  0  0  0  0  0  0  0  0  0  0  0
  140.3580   71.6350  223.9150 C   0  0  0  0  0  0  0  0  0  0  0  0
  140.6920   72.4010  222.7950 C   0  0  0  0  0  0  0  0  0  0  0  0
  139.8420   72.4200  221.6710 C   0  0  0  0  0  0  0  0  0  0  0  0
  140.0650   73.2550  220.4200 C   0  0  2  0  0  0  0  0  0  0  0  0
  141.4040   73.9670  220.2750 C   0  0  0  0  0  0  0  0  0  0  0  0
  141.5930   75.3480  220.3840 C   0  0  0  0  0  0  0  0  0  0  0  0
  142.9060   75.6610  220.4000 N   0  0  0  0  0  0  0  0  0  0  0  0
  143.5650   74.4950  220.3700 C   0  0  0  0  0  0  0  0  0  0  0  0
  144.9460   74.3170  220.4520 C   0  0  0  0  0  0  0  0  0  0  0  0
  145.4390   73.0030  220.5070 C   0  0  0  0  0  0  0  0  0  0  0  0
  144.5500   71.9100  220.5050 C   0  0  0  0  0  0  0  0  0  0  0  0
  143.1620   72.1180  220.4330 C   0  0  0  0  0  0  0  0  0  0  0  0
  142.6910   73.4330  220.3320 C   0  0  0  0  0  0  0  0  0  0  0  0
  138.5811   76.9089  219.8859 H   0  0  0  0  0  0  0  0  0  0  0  0
  137.5051   77.3092  221.2761 H   0  0  0  0  0  0  0  0  0  0  0  0
  138.6739   77.8310  223.5452 H   0  0  0  0  0  0  0  0  0  0  0  0
  140.4072   79.3463  224.4954 H   0  0  0  0  0  0  0  0  0  0  0  0
  142.3741   79.5115  220.6395 H   0  0  0  0  0  0  0  0  0  0  0  0
  140.6413   77.9930  219.6921 H   0  0  0  0  0  0  0  0  0  0  0  0
  136.8018   73.9457  220.3481 H   0  0  0  0  0  0  0  0  0  0  0  0
  137.6311   73.2053  218.8813 H   0  0  0  0  0  0  0  0  0  0  0  0
  136.5926   71.7823  221.0115 H   0  0  0  0  0  0  0  0  0  0  0  0
  137.8720   71.2234  219.8362 H   0  0  0  0  0  0  0  0  0  0  0  0
  137.3198   70.4461  222.9001 H   0  0  0  0  0  0  0  0  0  0  0  0
  138.9138   70.2914  224.8132 H   0  0  0  0  0  0  0  0  0  0  0  0
  141.0406   71.5964  224.7767 H   0  0  0  0  0  0  0  0  0  0  0  0
  141.6206   72.9906  222.7906 H   0  0  0  0  0  0  0  0  0  0  0  0
  140.1441   72.5413  219.5867 H   0  0  0  0  0  0  0  0  0  0  0  0
  140.7778   76.0837  220.4484 H   0  0  0  0  0  0  0  0  0  0  0  0
  143.3180   76.6170  220.4880 H   0  0  0  0  0  0  0  0  0  0  0  0
  145.6283   75.1796  220.4729 H   0  0  0  0  0  0  0  0  0  0  0  0
  146.5238   72.8265  220.5518 H   0  0  0  0  0  0  0  0  0  0  0  0
  144.9457   70.8851  220.5603 H   0  0  0  0  0  0  0  0  0  0  0  0
  142.4629   71.2690  220.4554 H   0  0  0  0  0  0  0  0  0  0  0  0
  1  2  2  0
  2  3  2  0
  2  4  1  0
  4  5  1  0
  5  6  2  0
  6  7  1  0
  7  8  2  0
  8  9  1  0
  9 10  1  0
  9 11  1  0
  9 12  1  0
  8 13  1  0
 13 14  2  0
  2 15  1  0
 15 16  1  0
 16 17  1  0
 17 18  1  0
 18 19  2  0
 19 20  1  0
 20 21  2  0
 21 22  1  0
 22 23  2  0
 23 24  1  0
 24 25  1  0
 25 26  2  0
 26 27  1  0
 27 28  1  0
 28 29  2  0
 29 30  1  0
 30 31  2  0
 31 32  1  0
 32 33  2  0
 14  5  1  0
 24 15  1  0
 33 25  1  0
 23 18  1  0
 33 28  1  0
  4 34  1  0
  4 35  1  0
  6 36  1  0
  7 37  1  0
 13 38  1  0
 14 39  1  0
 16 40  1  0
 16 41  1  0
 17 42  1  0
 17 43  1  0
 19 44  1  0
 20 45  1  0
 21 46  1  0
 22 47  1  0
 24 48  1  6
 26 49  1  0
 27 50  1  0
 29 51  1  0
 30 52  1  0
 31 53  1  0
 32 54  1  0
M  END
>  <UniqueID>  (73) 
192

>  <SMILES>  (73) 
O=S(=O)(Cc1ccc(C(F)(F)F)cc1)N1CCc2ccccc2[C@@H]1c1c[nH]c2ccccc12

>  <Energy>  (73) 
109.23778234269453

>  <Genealogy>  (73) 
O=S(=O)(Cc1ccc(C(F)(F)F)cc1)N1CCc2ccccc2[C@@H]1c1c[nH]c2ccccc12 (3D coordinates assigned)
O=S(=O)(Cc1ccc(C(F)(F)F)cc1)N1CCc2ccccc2[C@@H]1c1c[nH]c2ccccc12 (nonaromatic ring conformer: 109.23778234269453 kcal/mol)

>  <smiles>  (73) 
O=S(=O)(Cc1ccc(C(F)(F)F)cc1)N1CCc2ccccc2[C@@H]1c1c[nH]c2ccccc12

>  <score_type>  (73) 
oracle

>  <origin>  (73) 
autodockgpu

>  <m_score__min__energy>  (73) 
-7.4100000000000001

>  <m_primary>  (73) 
energy

>  <meeko>  (73) 
{"free_energy": -7.4, "intermolecular_energy": -8.9, "internal_energy": -2.01, "cluster_size": 9, "cluster_id": 1, "rank_in_cluster": 3}

>  <energy>  (73) 
-7.08

>  <cluster_rmsd>  (73) 
0.14

>  <rmsd>  (73) 
271.0

>  <cluster>  (73) 
2

$$$$
MHMHNRBLDMQEKR-XMMPIXPANA-N
     RDKit          3D

 54 58  0  0  0  0  0  0  0  0999 V2000
  139.8380   75.2730  222.6660 O   0  0  0  0  0  0  0  0  0  0  0  0
  138.6300   75.3390  221.7730 S   0  0  0  0  0  0  0  0  0  0  0  0
  137.4100   74.9920  222.5820 O   0  0  0  0  0  0  0  0  0  0  0  0
  138.4570   77.0090  221.1620 C   0  0  0  0  0  0  0  0  0  0  0  0
  139.5380   77.8870  221.7250 C   0  0  0  0  0  0  0  0  0  0  0  0
  139.4320   78.3900  223.0300 C   0  0  0  0  0  0  0  0  0  0  0  0
  140.4190   79.2370  223.5430 C   0  0  0  0  0  0  0  0  0  0  0  0
  141.5330   79.5870  222.7610 C   0  0  0  0  0  0  0  0  0  0  0  0
  142.5710   80.5420  223.2960 C   0  0  0  0  0  0  0  0  0  0  0  0
  143.7130   80.5080  222.5160 F   0  0  0  0  0  0  0  0  0  0  0  0
  142.9210   80.2070  224.5920 F   0  0  0  0  0  0  0  0  0  0  0  0
  142.0560   81.8250  223.2860 F   0  0  0  0  0  0  0  0  0  0  0  0
  141.6160   79.1130  221.4410 C   0  0  0  0  0  0  0  0  0  0  0  0
  140.6290   78.2660  220.9290 C   0  0  0  0  0  0  0  0  0  0  0  0
  138.8050   74.2330  220.4130 N   0  0  0  0  0  0  0  0  0  0  0  0
  137.5440   73.4780  220.1860 C   0  0  0  0  0  0  0  0  0  0  0  0
  137.4900   72.0620  220.8390 C   0  0  0  0  0  0  0  0  0  0  0  0
  138.5140   71.8710  221.9320 C   0  0  0  0  0  0  0  0  0  0  0  0
  138.2190   71.0980  223.0650 C   0  0  0  0  0  0  0  0  0  0  0  0
  139.1420   71.0060  224.1080 C   0  0  0  0  0  0  0  0  0  0  0  0
  140.3510   71.7000  224.0360 C   0  0  0  0  0  0  0  0  0  0  0  0
  140.6590   72.4590  222.9040 C   0  0  0  0  0  0  0  0  0  0  0  0
  139.7700   72.4930  221.8100 C   0  0  0  0  0  0  0  0  0  0  0  0
  139.9630   73.3220  220.5510 C   0  0  2  0  0  0  0  0  0  0  0  0
  141.3090   74.0100  220.3570 C   0  0  0  0  0  0  0  0  0  0  0  0
  141.5220   75.3890  220.4280 C   0  0  0  0  0  0  0  0  0  0  0  0
  142.8390   75.6830  220.4050 N   0  0  0  0  0  0  0  0  0  0  0  0
  143.4800   74.5060  220.3880 C   0  0  0  0  0  0  0  0  0  0  0  0
  144.8590   74.3090  220.4430 C   0  0  0  0  0  0  0  0  0  0  0  0
  145.3340   72.9890  220.5180 C   0  0  0  0  0  0  0  0  0  0  0  0
  144.4290   71.9100  220.5640 C   0  0  0  0  0  0  0  0  0  0  0  0
  143.0430   72.1380  220.5200 C   0  0  0  0  0  0  0  0  0  0  0  0
  142.5900   73.4570  220.3970 C   0  0  0  0  0  0  0  0  0  0  0  0
  138.5300   77.0028  220.0644 H   0  0  0  0  0  0  0  0  0  0  0  0
  137.4785   77.4034  221.4735 H   0  0  0  0  0  0  0  0  0  0  0  0
  138.5677   78.1166  223.6532 H   0  0  0  0  0  0  0  0  0  0  0  0
  140.3230   79.6319  224.5652 H   0  0  0  0  0  0  0  0  0  0  0  0
  142.4636   79.4105  220.8061 H   0  0  0  0  0  0  0  0  0  0  0  0
  140.7082   77.8947  219.8966 H   0  0  0  0  0  0  0  0  0  0  0  0
  136.7134   74.0726  220.5940 H   0  0  0  0  0  0  0  0  0  0  0  0
  137.4770   73.3158  219.1001 H   0  0  0  0  0  0  0  0  0  0  0  0
  136.4884   71.9132  221.2686 H   0  0  0  0  0  0  0  0  0  0  0  0
  137.7143   71.3295  220.0496 H   0  0  0  0  0  0  0  0  0  0  0  0
  137.2596   70.5640  223.1314 H   0  0  0  0  0  0  0  0  0  0  0  0
  138.9164   70.3857  224.9880 H   0  0  0  0  0  0  0  0  0  0  0  0
  141.0632   71.6492  224.8727 H   0  0  0  0  0  0  0  0  0  0  0  0
  141.5975   73.0315  222.8662 H   0  0  0  0  0  0  0  0  0  0  0  0
  139.9991   72.6061  219.7166 H   0  0  0  0  0  0  0  0  0  0  0  0
  140.7196   76.1385  220.4941 H   0  0  0  0  0  0  0  0  0  0  0  0
  143.2670   76.6340  220.4590 H   0  0  0  0  0  0  0  0  0  0  0  0
  145.5542   75.1614  220.4281 H   0  0  0  0  0  0  0  0  0  0  0  0
  146.4169   72.7970  220.5409 H   0  0  0  0  0  0  0  0  0  0  0  0
  144.8105   70.8807  220.6349 H   0  0  0  0  0  0  0  0  0  0  0  0
  142.3318   71.3010  220.5807 H   0  0  0  0  0  0  0  0  0  0  0  0
  1  2  2  0
  2  3  2  0
  2  4  1  0
  4  5  1  0
  5  6  2  0
  6  7  1  0
  7  8  2  0
  8  9  1  0
  9 10  1  0
  9 11  1  0
  9 12  1  0
  8 13  1  0
 13 14  2  0
  2 15  1  0
 15 16  1  0
 16 17  1  0
 17 18  1  0
 18 19  2  0
 19 20  1  0
 20 21  2  0
 21 22  1  0
 22 23  2  0
 23 24  1  0
 24 25  1  0
 25 26  2  0
 26 27  1  0
 27 28  1  0
 28 29  2  0
 29 30  1  0
 30 31  2  0
 31 32  1  0
 32 33  2  0
 14  5  1  0
 24 15  1  0
 33 25  1  0
 23 18  1  0
 33 28  1  0
  4 34  1  0
  4 35  1  0
  6 36  1  0
  7 37  1  0
 13 38  1  0
 14 39  1  0
 16 40  1  0
 16 41  1  0
 17 42  1  0
 17 43  1  0
 19 44  1  0
 20 45  1  0
 21 46  1  0
 22 47  1  0
 24 48  1  6
 26 49  1  0
 27 50  1  0
 29 51  1  0
 30 52  1  0
 31 53  1  0
 32 54  1  0
M  END
>  <UniqueID>  (74) 
192

>  <SMILES>  (74) 
O=S(=O)(Cc1ccc(C(F)(F)F)cc1)N1CCc2ccccc2[C@@H]1c1c[nH]c2ccccc12

>  <Energy>  (74) 
109.23778234269453

>  <Genealogy>  (74) 
O=S(=O)(Cc1ccc(C(F)(F)F)cc1)N1CCc2ccccc2[C@@H]1c1c[nH]c2ccccc12 (3D coordinates assigned)
O=S(=O)(Cc1ccc(C(F)(F)F)cc1)N1CCc2ccccc2[C@@H]1c1c[nH]c2ccccc12 (nonaromatic ring conformer: 109.23778234269453 kcal/mol)

>  <smiles>  (74) 
O=S(=O)(Cc1ccc(C(F)(F)F)cc1)N1CCc2ccccc2[C@@H]1c1c[nH]c2ccccc12

>  <score_type>  (74) 
oracle

>  <origin>  (74) 
autodockgpu

>  <m_score__min__energy>  (74) 
-7.4100000000000001

>  <m_primary>  (74) 
energy

>  <meeko>  (74) 
{"free_energy": -7.4, "intermolecular_energy": -8.9, "internal_energy": -1.99, "cluster_size": 9, "cluster_id": 1, "rank_in_cluster": 4}

>  <energy>  (74) 
-6.46

>  <cluster_rmsd>  (74) 
0.0

>  <rmsd>  (74) 
271.72

>  <cluster>  (74) 
3

$$$$
MHMHNRBLDMQEKR-XMMPIXPANA-N
     RDKit          3D

 54 58  0  0  0  0  0  0  0  0999 V2000
  139.8160   75.2190  222.6630 O   0  0  0  0  0  0  0  0  0  0  0  0
  138.6050   75.2670  221.7720 S   0  0  0  0  0  0  0  0  0  0  0  0
  137.3930   74.8950  222.5800 O   0  0  0  0  0  0  0  0  0  0  0  0
  138.4010   76.9370  221.1690 C   0  0  0  0  0  0  0  0  0  0  0  0
  139.4880   77.8230  221.7060 C   0  0  0  0  0  0  0  0  0  0  0  0
  139.4490   78.2610  223.0380 C   0  0  0  0  0  0  0  0  0  0  0  0
  140.4390   79.1170  223.5300 C   0  0  0  0  0  0  0  0  0  0  0  0
  141.4910   79.5400  222.7000 C   0  0  0  0  0  0  0  0  0  0  0  0
  142.5300   80.5040  223.2150 C   0  0  0  0  0  0  0  0  0  0  0  0
  142.5850   80.4700  224.5970 F   0  0  0  0  0  0  0  0  0  0  0  0
  142.2300   81.7980  222.8260 F   0  0  0  0  0  0  0  0  0  0  0  0
  143.7660   80.1550  222.7050 F   0  0  0  0  0  0  0  0  0  0  0  0
  141.5050   79.1320  221.3550 C   0  0  0  0  0  0  0  0  0  0  0  0
  140.5140   78.2760  220.8640 C   0  0  0  0  0  0  0  0  0  0  0  0
  138.7990   74.1710  220.4060 N   0  0  0  0  0  0  0  0  0  0  0  0
  137.5460   73.4050  220.1660 C   0  0  0  0  0  0  0  0  0  0  0  0
  137.5010   71.9860  220.8110 C   0  0  0  0  0  0  0  0  0  0  0  0
  138.5200   71.7970  221.9090 C   0  0  0  0  0  0  0  0  0  0  0  0
  138.2250   71.0150  223.0350 C   0  0  0  0  0  0  0  0  0  0  0  0
  139.1430   70.9250  224.0830 C   0  0  0  0  0  0  0  0  0  0  0  0
  140.3460   71.6310  224.0220 C   0  0  0  0  0  0  0  0  0  0  0  0
  140.6540   72.3990  222.8970 C   0  0  0  0  0  0  0  0  0  0  0  0
  139.7710   72.4320  221.7980 C   0  0  0  0  0  0  0  0  0  0  0  0
  139.9640   73.2700  220.5450 C   0  0  2  0  0  0  0  0  0  0  0  0
  141.3040   73.9710  220.3630 C   0  0  0  0  0  0  0  0  0  0  0  0
  141.5060   75.3510  220.4520 C   0  0  0  0  0  0  0  0  0  0  0  0
  142.8210   75.6560  220.4370 N   0  0  0  0  0  0  0  0  0  0  0  0
  143.4710   74.4840  220.4070 C   0  0  0  0  0  0  0  0  0  0  0  0
  144.8520   74.2980  220.4620 C   0  0  0  0  0  0  0  0  0  0  0  0
  145.3370   72.9810  220.5220 C   0  0  0  0  0  0  0  0  0  0  0  0
  144.4410   71.8940  220.5520 C   0  0  0  0  0  0  0  0  0  0  0  0
  143.0530   72.1110  220.5070 C   0  0  0  0  0  0  0  0  0  0  0  0
  142.5900   73.4280  220.4000 C   0  0  0  0  0  0  0  0  0  0  0  0
  138.4458   76.9337  220.0699 H   0  0  0  0  0  0  0  0  0  0  0  0
  137.4273   77.3220  221.5061 H   0  0  0  0  0  0  0  0  0  0  0  0
  138.6350   77.9292  223.6992 H   0  0  0  0  0  0  0  0  0  0  0  0
  140.3940   79.4616  224.5737 H   0  0  0  0  0  0  0  0  0  0  0  0
  142.3007   79.4883  220.6842 H   0  0  0  0  0  0  0  0  0  0  0  0
  140.5394   77.9563  219.8118 H   0  0  0  0  0  0  0  0  0  0  0  0
  136.7069   73.9896  220.5711 H   0  0  0  0  0  0  0  0  0  0  0  0
  137.4879   73.2479  219.0788 H   0  0  0  0  0  0  0  0  0  0  0  0
  136.4982   71.8263  221.2339 H   0  0  0  0  0  0  0  0  0  0  0  0
  137.7369   71.2602  220.0188 H   0  0  0  0  0  0  0  0  0  0  0  0
  137.2699   70.4723  223.0926 H   0  0  0  0  0  0  0  0  0  0  0  0
  138.9183   70.2971  224.9578 H   0  0  0  0  0  0  0  0  0  0  0  0
  141.0535   71.5821  224.8629 H   0  0  0  0  0  0  0  0  0  0  0  0
  141.5878   72.9797  222.8681 H   0  0  0  0  0  0  0  0  0  0  0  0
  140.0118   72.5595  219.7066 H   0  0  0  0  0  0  0  0  0  0  0  0
  140.6974   76.0932  220.5249 H   0  0  0  0  0  0  0  0  0  0  0  0
  143.2410   76.6090  220.5040 H   0  0  0  0  0  0  0  0  0  0  0  0
  145.5403   75.1561  220.4585 H   0  0  0  0  0  0  0  0  0  0  0  0
  146.4213   72.7975  220.5457 H   0  0  0  0  0  0  0  0  0  0  0  0
  144.8309   70.8671  220.6111 H   0  0  0  0  0  0  0  0  0  0  0  0
  142.3484   71.2676  220.5546 H   0  0  0  0  0  0  0  0  0  0  0  0
  1  2  2  0
  2  3  2  0
  2  4  1  0
  4  5  1  0
  5  6  2  0
  6  7  1  0
  7  8  2  0
  8  9  1  0
  9 10  1  0
  9 11  1  0
  9 12  1  0
  8 13  1  0
 13 14  2  0
  2 15  1  0
 15 16  1  0
 16 17  1  0
 17 18  1  0
 18 19  2  0
 19 20  1  0
 20 21  2  0
 21 22  1  0
 22 23  2  0
 23 24  1  0
 24 25  1  0
 25 26  2  0
 26 27  1  0
 27 28  1  0
 28 29  2  0
 29 30  1  0
 30 31  2  0
 31 32  1  0
 32 33  2  0
 14  5  1  0
 24 15  1  0
 33 25  1  0
 23 18  1  0
 33 28  1  0
  4 34  1  0
  4 35  1  0
  6 36  1  0
  7 37  1  0
 13 38  1  0
 14 39  1  0
 16 40  1  0
 16 41  1  0
 17 42  1  0
 17 43  1  0
 19 44  1  0
 20 45  1  0
 21 46  1  0
 22 47  1  0
 24 48  1  6
 26 49  1  0
 27 50  1  0
 29 51  1  0
 30 52  1  0
 31 53  1  0
 32 54  1  0
M  END
>  <UniqueID>  (75) 
192

>  <SMILES>  (75) 
O=S(=O)(Cc1ccc(C(F)(F)F)cc1)N1CCc2ccccc2[C@@H]1c1c[nH]c2ccccc12

>  <Energy>  (75) 
109.23778234269453

>  <Genealogy>  (75) 
O=S(=O)(Cc1ccc(C(F)(F)F)cc1)N1CCc2ccccc2[C@@H]1c1c[nH]c2ccccc12 (3D coordinates assigned)
O=S(=O)(Cc1ccc(C(F)(F)F)cc1)N1CCc2ccccc2[C@@H]1c1c[nH]c2ccccc12 (nonaromatic ring conformer: 109.23778234269453 kcal/mol)

>  <smiles>  (75) 
O=S(=O)(Cc1ccc(C(F)(F)F)cc1)N1CCc2ccccc2[C@@H]1c1c[nH]c2ccccc12

>  <score_type>  (75) 
oracle

>  <origin>  (75) 
autodockgpu

>  <m_score__min__energy>  (75) 
-7.4100000000000001

>  <m_primary>  (75) 
energy

>  <meeko>  (75) 
{"free_energy": -7.38, "intermolecular_energy": -8.87, "internal_energy": -2.02, "cluster_size": 9, "cluster_id": 1, "rank_in_cluster": 6}

>  <energy>  (75) 
-6.44

>  <cluster_rmsd>  (75) 
0.63

>  <rmsd>  (75) 
271.56

>  <cluster>  (75) 
3

$$$$
MHMHNRBLDMQEKR-XMMPIXPANA-N
     RDKit          3D

 54 58  0  0  0  0  0  0  0  0999 V2000
  138.9430   77.2570  219.9670 O   0  0  0  0  0  0  0  0  0  0  0  0
  140.2890   76.7290  219.5540 S   0  0  0  0  0  0  0  0  0  0  0  0
  140.0890   75.4960  218.7160 O   0  0  0  0  0  0  0  0  0  0  0  0
  141.1130   77.9680  218.5630 C   0  0  0  0  0  0  0  0  0  0  0  0
  140.9100   79.3320  219.1570 C   0  0  0  0  0  0  0  0  0  0  0  0
  141.9930   80.0270  219.7170 C   0  0  0  0  0  0  0  0  0  0  0  0
  141.8000   81.2820  220.3040 C   0  0  0  0  0  0  0  0  0  0  0  0
  140.5220   81.8660  220.3310 C   0  0  0  0  0  0  0  0  0  0  0  0
  140.3040   83.1940  221.0100 C   0  0  0  0  0  0  0  0  0  0  0  0
  139.2760   83.1100  221.9310 F   0  0  0  0  0  0  0  0  0  0  0  0
  139.9760   84.1680  220.0830 F   0  0  0  0  0  0  0  0  0  0  0  0
  141.4640   83.5670  221.6630 F   0  0  0  0  0  0  0  0  0  0  0  0
  139.4330   81.1490  219.8050 C   0  0  0  0  0  0  0  0  0  0  0  0
  139.6270   79.8950  219.2180 C   0  0  0  0  0  0  0  0  0  0  0  0
  141.2720   76.3630  220.9700 N   0  0  0  0  0  0  0  0  0  0  0  0
  141.8750   75.0080  220.8530 C   0  0  0  0  0  0  0  0  0  0  0  0
  141.0910   73.8680  221.5720 C   0  0  0  0  0  0  0  0  0  0  0  0
  139.6610   74.2330  221.8860 C   0  0  0  0  0  0  0  0  0  0  0  0
  138.6430   73.2700  221.8210 C   0  0  0  0  0  0  0  0  0  0  0  0
  137.3130   73.6430  222.0250 C   0  0  0  0  0  0  0  0  0  0  0  0
  136.9910   74.9800  222.2710 C   0  0  0  0  0  0  0  0  0  0  0  0
  138.0000   75.9420  222.3520 C   0  0  0  0  0  0  0  0  0  0  0  0
  139.3530   75.5620  222.2290 C   0  0  0  0  0  0  0  0  0  0  0  0
  140.5340   76.5180  222.2430 C   0  0  2  0  0  0  0  0  0  0  0  0
  140.2650   77.9700  222.6210 C   0  0  0  0  0  0  0  0  0  0  0  0
  139.0350   78.4710  223.0550 C   0  0  0  0  0  0  0  0  0  0  0  0
  139.1520   79.7410  223.4970 N   0  0  0  0  0  0  0  0  0  0  0  0
  140.4550   80.0420  223.4150 C   0  0  0  0  0  0  0  0  0  0  0  0
  141.0640   81.2220  223.8390 C   0  0  0  0  0  0  0  0  0  0  0  0
  142.4640   81.3060  223.7620 C   0  0  0  0  0  0  0  0  0  0  0  0
  143.2170   80.2110  223.2930 C   0  0  0  0  0  0  0  0  0  0  0  0
  142.5780   79.0280  222.8840 C   0  0  0  0  0  0  0  0  0  0  0  0
  141.1790   78.9800  222.9240 C   0  0  0  0  0  0  0  0  0  0  0  0
  142.1896   77.7453  218.5256 H   0  0  0  0  0  0  0  0  0  0  0  0
  140.6890   77.9536  217.5481 H   0  0  0  0  0  0  0  0  0  0  0  0
  142.9989   79.5825  219.6942 H   0  0  0  0  0  0  0  0  0  0  0  0
  142.6540   81.8151  220.7473 H   0  0  0  0  0  0  0  0  0  0  0  0
  138.4212   81.5777  219.8556 H   0  0  0  0  0  0  0  0  0  0  0  0
  138.7688   79.3471  218.8018 H   0  0  0  0  0  0  0  0  0  0  0  0
  141.9392   74.7553  219.7844 H   0  0  0  0  0  0  0  0  0  0  0  0
  142.8543   75.0658  221.3506 H   0  0  0  0  0  0  0  0  0  0  0  0
  141.0901   72.9809  220.9216 H   0  0  0  0  0  0  0  0  0  0  0  0
  141.5969   73.6789  222.5303 H   0  0  0  0  0  0  0  0  0  0  0  0
  138.8928   72.2199  221.6091 H   0  0  0  0  0  0  0  0  0  0  0  0
  136.5180   72.8834  221.9920 H   0  0  0  0  0  0  0  0  0  0  0  0
  135.9396   75.2758  222.4013 H   0  0  0  0  0  0  0  0  0  0  0  0
  137.7392   76.9986  222.5121 H   0  0  0  0  0  0  0  0  0  0  0  0
  141.1589   76.2176  223.0969 H   0  0  0  0  0  0  0  0  0  0  0  0
  138.0928   77.9036  223.0386 H   0  0  0  0  0  0  0  0  0  0  0  0
  138.3890   80.3390  223.8860 H   0  0  0  0  0  0  0  0  0  0  0  0
  140.4662   82.0621  224.2224 H   0  0  0  0  0  0  0  0  0  0  0  0
  142.9748   82.2305  224.0691 H   0  0  0  0  0  0  0  0  0  0  0  0
  144.3137   80.2828  223.2467 H   0  0  0  0  0  0  0  0  0  0  0  0
  143.1622   78.1614  222.5410 H   0  0  0  0  0  0  0  0  0  0  0  0
  1  2  2  0
  2  3  2  0
  2  4  1  0
  4  5  1  0
  5  6  2  0
  6  7  1  0
  7  8  2  0
  8  9  1  0
  9 10  1  0
  9 11  1  0
  9 12  1  0
  8 13  1  0
 13 14  2  0
  2 15  1  0
 15 16  1  0
 16 17  1  0
 17 18  1  0
 18 19  2  0
 19 20  1  0
 20 21  2  0
 21 22  1  0
 22 23  2  0
 23 24  1  0
 24 25  1  0
 25 26  2  0
 26 27  1  0
 27 28  1  0
 28 29  2  0
 29 30  1  0
 30 31  2  0
 31 32  1  0
 32 33  2  0
 14  5  1  0
 24 15  1  0
 33 25  1  0
 23 18  1  0
 33 28  1  0
  4 34  1  0
  4 35  1  0
  6 36  1  0
  7 37  1  0
 13 38  1  0
 14 39  1  0
 16 40  1  0
 16 41  1  0
 17 42  1  0
 17 43  1  0
 19 44  1  0
 20 45  1  0
 21 46  1  0
 22 47  1  0
 24 48  1  1
 26 49  1  0
 27 50  1  0
 29 51  1  0
 30 52  1  0
 31 53  1  0
 32 54  1  0
M  END
>  <UniqueID>  (76) 
192

>  <SMILES>  (76) 
O=S(=O)(Cc1ccc(C(F)(F)F)cc1)N1CCc2ccccc2[C@@H]1c1c[nH]c2ccccc12

>  <Energy>  (76) 
109.23778234269453

>  <Genealogy>  (76) 
O=S(=O)(Cc1ccc(C(F)(F)F)cc1)N1CCc2ccccc2[C@@H]1c1c[nH]c2ccccc12 (3D coordinates assigned)
O=S(=O)(Cc1ccc(C(F)(F)F)cc1)N1CCc2ccccc2[C@@H]1c1c[nH]c2ccccc12 (nonaromatic ring conformer: 109.23778234269453 kcal/mol)

>  <smiles>  (76) 
O=S(=O)(Cc1ccc(C(F)(F)F)cc1)N1CCc2ccccc2[C@@H]1c1c[nH]c2ccccc12

>  <score_type>  (76) 
oracle

>  <origin>  (76) 
autodockgpu

>  <m_score__min__energy>  (76) 
-7.4100000000000001

>  <m_primary>  (76) 
energy

>  <meeko>  (76) 
{"free_energy": -6.46, "intermolecular_energy": -7.95, "internal_energy": -2.83, "cluster_size": 7, "cluster_id": 3, "rank_in_cluster": 1}

>  <energy>  (76) 
-6.44

>  <cluster_rmsd>  (76) 
0.63

>  <rmsd>  (76) 
271.56

>  <cluster>  (76) 
3

$$$$
MHMHNRBLDMQEKR-XMMPIXPANA-N
     RDKit          3D

 54 58  0  0  0  0  0  0  0  0999 V2000
  139.8160   75.1970  222.5760 O   0  0  0  0  0  0  0  0  0  0  0  0
  138.6310   75.2510  221.6510 S   0  0  0  0  0  0  0  0  0  0  0  0
  137.3950   74.8810  222.4230 O   0  0  0  0  0  0  0  0  0  0  0  0
  138.4500   76.9230  221.0470 C   0  0  0  0  0  0  0  0  0  0  0  0
  139.5250   77.8050  221.6150 C   0  0  0  0  0  0  0  0  0  0  0  0
  139.4610   78.2260  222.9520 C   0  0  0  0  0  0  0  0  0  0  0  0
  140.4410   79.0760  223.4720 C   0  0  0  0  0  0  0  0  0  0  0  0
  141.5070   79.5110  222.6670 C   0  0  0  0  0  0  0  0  0  0  0  0
  142.5350   80.4700  223.2140 C   0  0  0  0  0  0  0  0  0  0  0  0
  143.7910   80.1780  222.7120 F   0  0  0  0  0  0  0  0  0  0  0  0
  142.5910   80.3900  224.5940 F   0  0  0  0  0  0  0  0  0  0  0  0
  142.1930   81.7590  222.8500 F   0  0  0  0  0  0  0  0  0  0  0  0
  141.5470   79.1190  221.3180 C   0  0  0  0  0  0  0  0  0  0  0  0
  140.5670   78.2690  220.7980 C   0  0  0  0  0  0  0  0  0  0  0  0
  138.8610   74.1580  220.2880 N   0  0  0  0  0  0  0  0  0  0  0  0
  137.6170   73.3870  220.0190 C   0  0  0  0  0  0  0  0  0  0  0  0
  137.5650   71.9660  220.6610 C   0  0  0  0  0  0  0  0  0  0  0  0
  138.5600   71.7810  221.7810 C   0  0  0  0  0  0  0  0  0  0  0  0
  138.2440   70.9960  222.9000 C   0  0  0  0  0  0  0  0  0  0  0  0
  139.1380   70.9080  223.9680 C   0  0  0  0  0  0  0  0  0  0  0  0
  140.3390   71.6200  223.9340 C   0  0  0  0  0  0  0  0  0  0  0  0
  140.6690   72.3910  222.8170 C   0  0  0  0  0  0  0  0  0  0  0  0
  139.8100   72.4210  221.6990 C   0  0  0  0  0  0  0  0  0  0  0  0
  140.0270   73.2620  220.4520 C   0  0  2  0  0  0  0  0  0  0  0  0
  141.3680   73.9700  220.3010 C   0  0  0  0  0  0  0  0  0  0  0  0
  141.5630   75.3500  220.4130 C   0  0  0  0  0  0  0  0  0  0  0  0
  142.8770   75.6590  220.4220 N   0  0  0  0  0  0  0  0  0  0  0  0
  143.5320   74.4900  220.3850 C   0  0  0  0  0  0  0  0  0  0  0  0
  144.9120   74.3070  220.4600 C   0  0  0  0  0  0  0  0  0  0  0  0
  145.4010   72.9910  220.5080 C   0  0  0  0  0  0  0  0  0  0  0  0
  144.5080   71.9010  220.5080 C   0  0  0  0  0  0  0  0  0  0  0  0
  143.1200   72.1140  220.4450 C   0  0  0  0  0  0  0  0  0  0  0  0
  142.6540   73.4310  220.3500 C   0  0  0  0  0  0  0  0  0  0  0  0
  138.5246   76.9218  219.9495 H   0  0  0  0  0  0  0  0  0  0  0  0
  137.4690   77.3105  221.3591 H   0  0  0  0  0  0  0  0  0  0  0  0
  138.6354   77.8853  223.5941 H   0  0  0  0  0  0  0  0  0  0  0  0
  140.3772   79.4068  224.5191 H   0  0  0  0  0  0  0  0  0  0  0  0
  142.3551   79.4837  220.6669 H   0  0  0  0  0  0  0  0  0  0  0  0
  140.6129   77.9622  219.7427 H   0  0  0  0  0  0  0  0  0  0  0  0
  136.7665   73.9670  220.4066 H   0  0  0  0  0  0  0  0  0  0  0  0
  137.5830   73.2319  218.9305 H   0  0  0  0  0  0  0  0  0  0  0  0
  136.5538   71.8003  221.0611 H   0  0  0  0  0  0  0  0  0  0  0  0
  137.8223   71.2426  219.8733 H   0  0  0  0  0  0  0  0  0  0  0  0
  137.2903   70.4491  222.9356 H   0  0  0  0  0  0  0  0  0  0  0  0
  138.8967   70.2778  224.8367 H   0  0  0  0  0  0  0  0  0  0  0  0
  141.0278   71.5734  224.7904 H   0  0  0  0  0  0  0  0  0  0  0  0
  141.6006   72.9758  222.8094 H   0  0  0  0  0  0  0  0  0  0  0  0
  140.0968   72.5529  219.6140 H   0  0  0  0  0  0  0  0  0  0  0  0
  140.7508   76.0883  220.4845 H   0  0  0  0  0  0  0  0  0  0  0  0
  143.2930   76.6130  220.5100 H   0  0  0  0  0  0  0  0  0  0  0  0
  145.5973   75.1672  220.4810 H   0  0  0  0  0  0  0  0  0  0  0  0
  146.4855   72.8106  220.5457 H   0  0  0  0  0  0  0  0  0  0  0  0
  144.9004   70.8746  220.5577 H   0  0  0  0  0  0  0  0  0  0  0  0
  142.4178   71.2677  220.4697 H   0  0  0  0  0  0  0  0  0  0  0  0
  1  2  2  0
  2  3  2  0
  2  4  1  0
  4  5  1  0
  5  6  2  0
  6  7  1  0
  7  8  2  0
  8  9  1  0
  9 10  1  0
  9 11  1  0
  9 12  1  0
  8 13  1  0
 13 14  2  0
  2 15  1  0
 15 16  1  0
 16 17  1  0
 17 18  1  0
 18 19  2  0
 19 20  1  0
 20 21  2  0
 21 22  1  0
 22 23  2  0
 23 24  1  0
 24 25  1  0
 25 26  2  0
 26 27  1  0
 27 28  1  0
 28 29  2  0
 29 30  1  0
 30 31  2  0
 31 32  1  0
 32 33  2  0
 14  5  1  0
 24 15  1  0
 33 25  1  0
 23 18  1  0
 33 28  1  0
  4 34  1  0
  4 35  1  0
  6 36  1  0
  7 37  1  0
 13 38  1  0
 14 39  1  0
 16 40  1  0
 16 41  1  0
 17 42  1  0
 17 43  1  0
 19 44  1  0
 20 45  1  0
 21 46  1  0
 22 47  1  0
 24 48  1  6
 26 49  1  0
 27 50  1  0
 29 51  1  0
 30 52  1  0
 31 53  1  0
 32 54  1  0
M  END
>  <UniqueID>  (77) 
192

>  <SMILES>  (77) 
O=S(=O)(Cc1ccc(C(F)(F)F)cc1)N1CCc2ccccc2[C@@H]1c1c[nH]c2ccccc12

>  <Energy>  (77) 
109.23778234269453

>  <Genealogy>  (77) 
O=S(=O)(Cc1ccc(C(F)(F)F)cc1)N1CCc2ccccc2[C@@H]1c1c[nH]c2ccccc12 (3D coordinates assigned)
O=S(=O)(Cc1ccc(C(F)(F)F)cc1)N1CCc2ccccc2[C@@H]1c1c[nH]c2ccccc12 (nonaromatic ring conformer: 109.23778234269453 kcal/mol)

>  <smiles>  (77) 
O=S(=O)(Cc1ccc(C(F)(F)F)cc1)N1CCc2ccccc2[C@@H]1c1c[nH]c2ccccc12

>  <score_type>  (77) 
oracle

>  <origin>  (77) 
autodockgpu

>  <m_score__min__energy>  (77) 
-7.4100000000000001

>  <m_primary>  (77) 
energy

>  <meeko>  (77) 
{"free_energy": -7.41, "intermolecular_energy": -8.9, "internal_energy": -2.01, "cluster_size": 9, "cluster_id": 1, "rank_in_cluster": 1}

>  <energy>  (77) 
-6.43

>  <cluster_rmsd>  (77) 
0.88

>  <rmsd>  (77) 
271.56

>  <cluster>  (77) 
3

$$$$
MHMHNRBLDMQEKR-XMMPIXPANA-N
     RDKit          3D

 54 58  0  0  0  0  0  0  0  0999 V2000
  142.1610   75.2500  221.5980 O   0  0  0  0  0  0  0  0  0  0  0  0
  140.7960   74.8380  221.1180 S   0  0  0  0  0  0  0  0  0  0  0  0
  140.3000   73.7080  221.9780 O   0  0  0  0  0  0  0  0  0  0  0  0
  139.6810   76.2240  221.2950 C   0  0  0  0  0  0  0  0  0  0  0  0
  140.4240   77.4330  221.7890 C   0  0  0  0  0  0  0  0  0  0  0  0
  141.0620   77.4080  223.0390 C   0  0  0  0  0  0  0  0  0  0  0  0
  141.7220   78.5430  223.5170 C   0  0  0  0  0  0  0  0  0  0  0  0
  141.7630   79.7200  222.7500 C   0  0  0  0  0  0  0  0  0  0  0  0
  142.4300   80.9600  223.2880 C   0  0  0  0  0  0  0  0  0  0  0  0
  143.7960   80.7710  223.4010 F   0  0  0  0  0  0  0  0  0  0  0  0
  141.9320   81.2770  224.5400 F   0  0  0  0  0  0  0  0  0  0  0  0
  142.1910   82.0150  222.4280 F   0  0  0  0  0  0  0  0  0  0  0  0
  141.0890   79.7530  221.5170 C   0  0  0  0  0  0  0  0  0  0  0  0
  140.4300   78.6170  221.0380 C   0  0  0  0  0  0  0  0  0  0  0  0
  140.8570   74.3490  219.4270 N   0  0  0  0  0  0  0  0  0  0  0  0
  140.6420   72.8820  219.2970 C   0  0  0  0  0  0  0  0  0  0  0  0
  141.9420   72.0260  219.1980 C   0  0  0  0  0  0  0  0  0  0  0  0
  143.1740   72.7540  219.6800 C   0  0  0  0  0  0  0  0  0  0  0  0
  144.1960   72.0690  220.3520 C   0  0  0  0  0  0  0  0  0  0  0  0
  145.2850   72.7710  220.8710 C   0  0  0  0  0  0  0  0  0  0  0  0
  145.3480   74.1600  220.7420 C   0  0  0  0  0  0  0  0  0  0  0  0
  144.3410   74.8490  220.0600 C   0  0  0  0  0  0  0  0  0  0  0  0
  143.2790   74.1400  219.4610 C   0  0  0  0  0  0  0  0  0  0  0  0
  142.0990   74.7750  218.7440 C   0  0  2  0  0  0  0  0  0  0  0  0
  142.1620   76.2720  218.4670 C   0  0  0  0  0  0  0  0  0  0  0  0
  143.3190   76.9770  218.1260 C   0  0  0  0  0  0  0  0  0  0  0  0
  143.0300   78.2420  217.7550 N   0  0  0  0  0  0  0  0  0  0  0  0
  141.6940   78.3410  217.7900 C   0  0  0  0  0  0  0  0  0  0  0  0
  140.9320   79.4450  217.4070 C   0  0  0  0  0  0  0  0  0  0  0  0
  139.5340   79.3160  217.4190 C   0  0  0  0  0  0  0  0  0  0  0  0
  138.9360   78.0930  217.7830 C   0  0  0  0  0  0  0  0  0  0  0  0
  139.7280   76.9920  218.1530 C   0  0  0  0  0  0  0  0  0  0  0  0
  141.1190   77.1540  218.1800 C   0  0  0  0  0  0  0  0  0  0  0  0
  139.2270   76.4511  220.3191 H   0  0  0  0  0  0  0  0  0  0  0  0
  138.8993   75.9628  222.0235 H   0  0  0  0  0  0  0  0  0  0  0  0
  141.0423   76.4904  223.6453 H   0  0  0  0  0  0  0  0  0  0  0  0
  142.2131   78.5151  224.5009 H   0  0  0  0  0  0  0  0  0  0  0  0
  141.0800   80.6797  220.9245 H   0  0  0  0  0  0  0  0  0  0  0  0
  139.9137   78.6522  220.0673 H   0  0  0  0  0  0  0  0  0  0  0  0
  140.0768   72.5417  220.1772 H   0  0  0  0  0  0  0  0  0  0  0  0
  140.1070   72.7351  218.3472 H   0  0  0  0  0  0  0  0  0  0  0  0
  141.8108   71.1199  219.8077 H   0  0  0  0  0  0  0  0  0  0  0  0
  142.0973   71.7908  218.1347 H   0  0  0  0  0  0  0  0  0  0  0  0
  144.1396   70.9768  220.4704 H   0  0  0  0  0  0  0  0  0  0  0  0
  146.0946   72.2295  221.3822 H   0  0  0  0  0  0  0  0  0  0  0  0
  146.1925   74.7136  221.1783 H   0  0  0  0  0  0  0  0  0  0  0  0
  144.3769   75.9462  219.9903 H   0  0  0  0  0  0  0  0  0  0  0  0
  142.1284   74.3949  217.7122 H   0  0  0  0  0  0  0  0  0  0  0  0
  144.3345   76.5554  218.1561 H   0  0  0  0  0  0  0  0  0  0  0  0
  143.7100   78.9710  217.4410 H   0  0  0  0  0  0  0  0  0  0  0  0
  141.4117   80.3876  217.1049 H   0  0  0  0  0  0  0  0  0  0  0  0
  138.9026   80.1735  217.1430 H   0  0  0  0  0  0  0  0  0  0  0  0
  137.8400   77.9990  217.7776 H   0  0  0  0  0  0  0  0  0  0  0  0
  139.2671   76.0281  218.4146 H   0  0  0  0  0  0  0  0  0  0  0  0
  1  2  2  0
  2  3  2  0
  2  4  1  0
  4  5  1  0
  5  6  2  0
  6  7  1  0
  7  8  2  0
  8  9  1  0
  9 10  1  0
  9 11  1  0
  9 12  1  0
  8 13  1  0
 13 14  2  0
  2 15  1  0
 15 16  1  0
 16 17  1  0
 17 18  1  0
 18 19  2  0
 19 20  1  0
 20 21  2  0
 21 22  1  0
 22 23  2  0
 23 24  1  0
 24 25  1  0
 25 26  2  0
 26 27  1  0
 27 28  1  0
 28 29  2  0
 29 30  1  0
 30 31  2  0
 31 32  1  0
 32 33  2  0
 14  5  1  0
 24 15  1  0
 33 25  1  0
 23 18  1  0
 33 28  1  0
  4 34  1  0
  4 35  1  0
  6 36  1  0
  7 37  1  0
 13 38  1  0
 14 39  1  0
 16 40  1  0
 16 41  1  0
 17 42  1  0
 17 43  1  0
 19 44  1  0
 20 45  1  0
 21 46  1  0
 22 47  1  0
 24 48  1  6
 26 49  1  0
 27 50  1  0
 29 51  1  0
 30 52  1  0
 31 53  1  0
 32 54  1  0
M  END
>  <UniqueID>  (78) 
192

>  <SMILES>  (78) 
O=S(=O)(Cc1ccc(C(F)(F)F)cc1)N1CCc2ccccc2[C@@H]1c1c[nH]c2ccccc12

>  <Energy>  (78) 
109.23778234269453

>  <Genealogy>  (78) 
O=S(=O)(Cc1ccc(C(F)(F)F)cc1)N1CCc2ccccc2[C@@H]1c1c[nH]c2ccccc12 (3D coordinates assigned)
O=S(=O)(Cc1ccc(C(F)(F)F)cc1)N1CCc2ccccc2[C@@H]1c1c[nH]c2ccccc12 (nonaromatic ring conformer: 109.23778234269453 kcal/mol)

>  <smiles>  (78) 
O=S(=O)(Cc1ccc(C(F)(F)F)cc1)N1CCc2ccccc2[C@@H]1c1c[nH]c2ccccc12

>  <score_type>  (78) 
oracle

>  <origin>  (78) 
autodockgpu

>  <m_score__min__energy>  (78) 
-7.4100000000000001

>  <m_primary>  (78) 
energy

>  <meeko>  (78) 
{"free_energy": -7.12, "intermolecular_energy": -8.61, "internal_energy": -2.23, "cluster_size": 4, "cluster_id": 2, "rank_in_cluster": 1}

>  <energy>  (78) 
-6.43

>  <cluster_rmsd>  (78) 
0.88

>  <rmsd>  (78) 
271.57

>  <cluster>  (78) 
3

$$$$
MHMHNRBLDMQEKR-XMMPIXPANA-N
     RDKit          3D

 54 58  0  0  0  0  0  0  0  0999 V2000
  139.1880   77.0060  219.6650 O   0  0  0  0  0  0  0  0  0  0  0  0
  140.5590   76.7110  219.1200 S   0  0  0  0  0  0  0  0  0  0  0  0
  140.4860   75.4750  218.2670 O   0  0  0  0  0  0  0  0  0  0  0  0
  141.0790   78.0820  218.0980 C   0  0  0  0  0  0  0  0  0  0  0  0
  140.8770   79.3820  218.8240 C   0  0  0  0  0  0  0  0  0  0  0  0
  141.9800   80.0920  219.3210 C   0  0  0  0  0  0  0  0  0  0  0  0
  141.7920   81.2830  220.0300 C   0  0  0  0  0  0  0  0  0  0  0  0
  140.4980   81.7880  220.2440 C   0  0  0  0  0  0  0  0  0  0  0  0
  140.2930   83.0440  221.0520 C   0  0  0  0  0  0  0  0  0  0  0  0
  139.2680   82.8740  221.9670 F   0  0  0  0  0  0  0  0  0  0  0  0
  139.9660   84.1070  220.2280 F   0  0  0  0  0  0  0  0  0  0  0  0
  141.4580   83.3430  221.7320 F   0  0  0  0  0  0  0  0  0  0  0  0
  139.3940   81.0530  219.7790 C   0  0  0  0  0  0  0  0  0  0  0  0
  139.5820   79.8630  219.0700 C   0  0  0  0  0  0  0  0  0  0  0  0
  141.7120   76.4910  220.4340 N   0  0  0  0  0  0  0  0  0  0  0  0
  142.5860   75.3150  220.1720 C   0  0  0  0  0  0  0  0  0  0  0  0
  142.1340   73.9860  220.8530 C   0  0  0  0  0  0  0  0  0  0  0  0
  140.6890   74.0020  221.2900 C   0  0  0  0  0  0  0  0  0  0  0  0
  139.9050   72.8410  221.2200 C   0  0  0  0  0  0  0  0  0  0  0  0
  138.5480   72.8930  221.5420 C   0  0  0  0  0  0  0  0  0  0  0  0
  137.9630   74.1070  221.9110 C   0  0  0  0  0  0  0  0  0  0  0  0
  138.7400   75.2640  221.9980 C   0  0  0  0  0  0  0  0  0  0  0  0
  140.1270   75.2050  221.7550 C   0  0  0  0  0  0  0  0  0  0  0  0
  141.0680   76.4000  221.7630 C   0  0  2  0  0  0  0  0  0  0  0  0
  140.5200   77.7280  222.2690 C   0  0  0  0  0  0  0  0  0  0  0  0
  139.2070   77.9440  222.6960 C   0  0  0  0  0  0  0  0  0  0  0  0
  139.0710   79.1600  223.2650 N   0  0  0  0  0  0  0  0  0  0  0  0
  140.2950   79.7050  223.2690 C   0  0  0  0  0  0  0  0  0  0  0  0
  140.6590   80.9280  223.8320 C   0  0  0  0  0  0  0  0  0  0  0  0
  142.0190   81.2780  223.8230 C   0  0  0  0  0  0  0  0  0  0  0  0
  142.9770   80.3970  223.2830 C   0  0  0  0  0  0  0  0  0  0  0  0
  142.5840   79.1650  222.7330 C   0  0  0  0  0  0  0  0  0  0  0  0
  141.2180   78.8540  222.7070 C   0  0  0  0  0  0  0  0  0  0  0  0
  142.1447   77.9664  217.8511 H   0  0  0  0  0  0  0  0  0  0  0  0
  140.4767   78.0898  217.1776 H   0  0  0  0  0  0  0  0  0  0  0  0
  142.9978   79.7103  219.1523 H   0  0  0  0  0  0  0  0  0  0  0  0
  142.6630   81.8281  220.4228 H   0  0  0  0  0  0  0  0  0  0  0  0
  138.3745   81.4168  219.9744 H   0  0  0  0  0  0  0  0  0  0  0  0
  138.7105   79.3009  218.7032 H   0  0  0  0  0  0  0  0  0  0  0  0
  142.6146   75.1478  219.0852 H   0  0  0  0  0  0  0  0  0  0  0  0
  143.5668   75.5614  220.6049 H   0  0  0  0  0  0  0  0  0  0  0  0
  142.2737   73.1619  220.1379 H   0  0  0  0  0  0  0  0  0  0  0  0
  142.7471   73.8576  221.7572 H   0  0  0  0  0  0  0  0  0  0  0  0
  140.3602   71.8885  220.9110 H   0  0  0  0  0  0  0  0  0  0  0  0
  137.9388   71.9778  221.5053 H   0  0  0  0  0  0  0  0  0  0  0  0
  136.8867   74.1515  222.1337 H   0  0  0  0  0  0  0  0  0  0  0  0
  138.2685   76.2235  222.2568 H   0  0  0  0  0  0  0  0  0  0  0  0
  141.8130   76.1974  222.5465 H   0  0  0  0  0  0  0  0  0  0  0  0
  138.3897   77.2165  222.5829 H   0  0  0  0  0  0  0  0  0  0  0  0
  138.1990   79.5620  223.6770 H   0  0  0  0  0  0  0  0  0  0  0  0
  139.9041   81.5978  224.2696 H   0  0  0  0  0  0  0  0  0  0  0  0
  142.3380   82.2448  224.2396 H   0  0  0  0  0  0  0  0  0  0  0  0
  144.0410   80.6759  223.2921 H   0  0  0  0  0  0  0  0  0  0  0  0
  143.3299   78.4625  222.3330 H   0  0  0  0  0  0  0  0  0  0  0  0
  1  2  2  0
  2  3  2  0
  2  4  1  0
  4  5  1  0
  5  6  2  0
  6  7  1  0
  7  8  2  0
  8  9  1  0
  9 10  1  0
  9 11  1  0
  9 12  1  0
  8 13  1  0
 13 14  2  0
  2 15  1  0
 15 16  1  0
 16 17  1  0
 17 18  1  0
 18 19  2  0
 19 20  1  0
 20 21  2  0
 21 22  1  0
 22 23  2  0
 23 24  1  0
 24 25  1  0
 25 26  2  0
 26 27  1  0
 27 28  1  0
 28 29  2  0
 29 30  1  0
 30 31  2  0
 31 32  1  0
 32 33  2  0
 14  5  1  0
 24 15  1  0
 33 25  1  0
 23 18  1  0
 33 28  1  0
  4 34  1  0
  4 35  1  0
  6 36  1  0
  7 37  1  0
 13 38  1  0
 14 39  1  0
 16 40  1  0
 16 41  1  0
 17 42  1  0
 17 43  1  0
 19 44  1  0
 20 45  1  0
 21 46  1  0
 22 47  1  0
 24 48  1  1
 26 49  1  0
 27 50  1  0
 29 51  1  0
 30 52  1  0
 31 53  1  0
 32 54  1  0
M  END
>  <UniqueID>  (79) 
192

>  <SMILES>  (79) 
O=S(=O)(Cc1ccc(C(F)(F)F)cc1)N1CCc2ccccc2[C@@H]1c1c[nH]c2ccccc12

>  <Energy>  (79) 
109.23778234269453

>  <Genealogy>  (79) 
O=S(=O)(Cc1ccc(C(F)(F)F)cc1)N1CCc2ccccc2[C@@H]1c1c[nH]c2ccccc12 (3D coordinates assigned)
O=S(=O)(Cc1ccc(C(F)(F)F)cc1)N1CCc2ccccc2[C@@H]1c1c[nH]c2ccccc12 (nonaromatic ring conformer: 109.23778234269453 kcal/mol)

>  <smiles>  (79) 
O=S(=O)(Cc1ccc(C(F)(F)F)cc1)N1CCc2ccccc2[C@@H]1c1c[nH]c2ccccc12

>  <score_type>  (79) 
oracle

>  <origin>  (79) 
autodockgpu

>  <m_score__min__energy>  (79) 
-7.4100000000000001

>  <m_primary>  (79) 
energy

>  <meeko>  (79) 
{"free_energy": -6.44, "intermolecular_energy": -7.93, "internal_energy": -2.87, "cluster_size": 7, "cluster_id": 3, "rank_in_cluster": 2}

>  <energy>  (79) 
-6.43

>  <cluster_rmsd>  (79) 
0.88

>  <rmsd>  (79) 
271.56

>  <cluster>  (79) 
3

$$$$
MHMHNRBLDMQEKR-XMMPIXPANA-N
     RDKit          3D

 54 58  0  0  0  0  0  0  0  0999 V2000
  139.8500   75.2530  222.5140 O   0  0  0  0  0  0  0  0  0  0  0  0
  138.6560   75.2610  221.5980 S   0  0  0  0  0  0  0  0  0  0  0  0
  137.4350   74.8840  222.3900 O   0  0  0  0  0  0  0  0  0  0  0  0
  138.4350   76.9150  220.9570 C   0  0  0  0  0  0  0  0  0  0  0  0
  139.4650   77.8430  221.5370 C   0  0  0  0  0  0  0  0  0  0  0  0
  140.5460   78.2760  220.7550 C   0  0  0  0  0  0  0  0  0  0  0  0
  141.5250   79.1090  221.3030 C   0  0  0  0  0  0  0  0  0  0  0  0
  141.4340   79.5310  222.6400 C   0  0  0  0  0  0  0  0  0  0  0  0
  142.5180   80.3870  223.2460 C   0  0  0  0  0  0  0  0  0  0  0  0
  143.7310   80.1520  222.6250 F   0  0  0  0  0  0  0  0  0  0  0  0
  142.6610   80.1110  224.5950 F   0  0  0  0  0  0  0  0  0  0  0  0
  142.1840   81.7200  223.0920 F   0  0  0  0  0  0  0  0  0  0  0  0
  140.3720   79.0630  223.4320 C   0  0  0  0  0  0  0  0  0  0  0  0
  139.3920   78.2300  222.8830 C   0  0  0  0  0  0  0  0  0  0  0  0
  138.8970   74.1420  220.2590 N   0  0  0  0  0  0  0  0  0  0  0  0
  137.6590   73.3580  220.0030 C   0  0  0  0  0  0  0  0  0  0  0  0
  137.6130   71.9500  220.6740 C   0  0  0  0  0  0  0  0  0  0  0  0
  138.6060   71.7940  221.8000 C   0  0  0  0  0  0  0  0  0  0  0  0
  138.2910   71.0300  222.9340 C   0  0  0  0  0  0  0  0  0  0  0  0
  139.1830   70.9700  224.0060 C   0  0  0  0  0  0  0  0  0  0  0  0
  140.3790   71.6890  223.9620 C   0  0  0  0  0  0  0  0  0  0  0  0
  140.7080   72.4390  222.8300 C   0  0  0  0  0  0  0  0  0  0  0  0
  139.8520   72.4410  221.7100 C   0  0  0  0  0  0  0  0  0  0  0  0
  140.0690   73.2570  220.4460 C   0  0  2  0  0  0  0  0  0  0  0  0
  141.4050   73.9700  220.2840 C   0  0  0  0  0  0  0  0  0  0  0  0
  141.5950   75.3510  220.3850 C   0  0  0  0  0  0  0  0  0  0  0  0
  142.9070   75.6660  220.3870 N   0  0  0  0  0  0  0  0  0  0  0  0
  143.5670   74.5000  220.3570 C   0  0  0  0  0  0  0  0  0  0  0  0
  144.9490   74.3240  220.4270 C   0  0  0  0  0  0  0  0  0  0  0  0
  145.4440   73.0110  220.4840 C   0  0  0  0  0  0  0  0  0  0  0  0
  144.5560   71.9170  220.4960 C   0  0  0  0  0  0  0  0  0  0  0  0
  143.1670   72.1230  220.4360 C   0  0  0  0  0  0  0  0  0  0  0  0
  142.6940   73.4370  220.3330 C   0  0  0  0  0  0  0  0  0  0  0  0
  138.5393   76.8964  219.8621 H   0  0  0  0  0  0  0  0  0  0  0  0
  137.4334   77.2748  221.2350 H   0  0  0  0  0  0  0  0  0  0  0  0
  140.6235   77.9581  219.7048 H   0  0  0  0  0  0  0  0  0  0  0  0
  142.3727   79.4366  220.6833 H   0  0  0  0  0  0  0  0  0  0  0  0
  140.3110   79.3538  224.4911 H   0  0  0  0  0  0  0  0  0  0  0  0
  138.5600   77.8767  223.5098 H   0  0  0  0  0  0  0  0  0  0  0  0
  136.8040   73.9408  220.3762 H   0  0  0  0  0  0  0  0  0  0  0  0
  137.6296   73.1799  218.9179 H   0  0  0  0  0  0  0  0  0  0  0  0
  136.6017   71.7868  221.0749 H   0  0  0  0  0  0  0  0  0  0  0  0
  137.8762   71.2118  219.9021 H   0  0  0  0  0  0  0  0  0  0  0  0
  137.3405   70.4780  222.9782 H   0  0  0  0  0  0  0  0  0  0  0  0
  138.9434   70.3556  224.8864 H   0  0  0  0  0  0  0  0  0  0  0  0
  141.0648   71.6649  224.8217 H   0  0  0  0  0  0  0  0  0  0  0  0
  141.6364   73.0288  222.8127 H   0  0  0  0  0  0  0  0  0  0  0  0
  140.1475   72.5305  219.6238 H   0  0  0  0  0  0  0  0  0  0  0  0
  140.7799   76.0864  220.4540 H   0  0  0  0  0  0  0  0  0  0  0  0
  143.3190   76.6230  220.4660 H   0  0  0  0  0  0  0  0  0  0  0  0
  145.6304   75.1875  220.4373 H   0  0  0  0  0  0  0  0  0  0  0  0
  146.5294   72.8359  220.5194 H   0  0  0  0  0  0  0  0  0  0  0  0
  144.9533   70.8928  220.5528 H   0  0  0  0  0  0  0  0  0  0  0  0
  142.4690   71.2734  220.4691 H   0  0  0  0  0  0  0  0  0  0  0  0
  1  2  2  0
  2  3  2  0
  2  4  1  0
  4  5  1  0
  5  6  2  0
  6  7  1  0
  7  8  2  0
  8  9  1  0
  9 10  1  0
  9 11  1  0
  9 12  1  0
  8 13  1  0
 13 14  2  0
  2 15  1  0
 15 16  1  0
 16 17  1  0
 17 18  1  0
 18 19  2  0
 19 20  1  0
 20 21  2  0
 21 22  1  0
 22 23  2  0
 23 24  1  0
 24 25  1  0
 25 26  2  0
 26 27  1  0
 27 28  1  0
 28 29  2  0
 29 30  1  0
 30 31  2  0
 31 32  1  0
 32 33  2  0
 14  5  1  0
 24 15  1  0
 33 25  1  0
 23 18  1  0
 33 28  1  0
  4 34  1  0
  4 35  1  0
  6 36  1  0
  7 37  1  0
 13 38  1  0
 14 39  1  0
 16 40  1  0
 16 41  1  0
 17 42  1  0
 17 43  1  0
 19 44  1  0
 20 45  1  0
 21 46  1  0
 22 47  1  0
 24 48  1  6
 26 49  1  0
 27 50  1  0
 29 51  1  0
 30 52  1  0
 31 53  1  0
 32 54  1  0
M  END
>  <UniqueID>  (80) 
192

>  <SMILES>  (80) 
O=S(=O)(Cc1ccc(C(F)(F)F)cc1)N1CCc2ccccc2[C@@H]1c1c[nH]c2ccccc12

>  <Energy>  (80) 
109.23778234269453

>  <Genealogy>  (80) 
O=S(=O)(Cc1ccc(C(F)(F)F)cc1)N1CCc2ccccc2[C@@H]1c1c[nH]c2ccccc12 (3D coordinates assigned)
O=S(=O)(Cc1ccc(C(F)(F)F)cc1)N1CCc2ccccc2[C@@H]1c1c[nH]c2ccccc12 (nonaromatic ring conformer: 109.23778234269453 kcal/mol)

>  <smiles>  (80) 
O=S(=O)(Cc1ccc(C(F)(F)F)cc1)N1CCc2ccccc2[C@@H]1c1c[nH]c2ccccc12

>  <score_type>  (80) 
oracle

>  <origin>  (80) 
autodockgpu

>  <m_score__min__energy>  (80) 
-7.4100000000000001

>  <m_primary>  (80) 
energy

>  <meeko>  (80) 
{"free_energy": -7.34, "intermolecular_energy": -8.83, "internal_energy": -2.02, "cluster_size": 9, "cluster_id": 1, "rank_in_cluster": 7}

>  <energy>  (80) 
-6.42

>  <cluster_rmsd>  (80) 
0.88

>  <rmsd>  (80) 
271.56

>  <cluster>  (80) 
3

$$$$
