NNKZOUMTYASKLJ-WHFSYHSSNA-M
     RDKit          3D

 66 68  0  0  0  0  0  0  0  0999 V2000
  138.9140   74.2860  222.7700 H   0  0  0  0  0  0  0  0  0  0  0  0
  139.8030   74.4990  222.3370 O   0  0  0  0  0  0  0  0  0  0  0  0
  140.0360   75.6550  221.5820 C   0  0  0  0  0  0  0  0  0  0  0  0
  139.0580   76.3950  221.1440 N   0  0  0  0  0  0  0  0  0  0  0  0
  137.9810   76.9820  221.9460 C   0  0  1  0  0  0  0  0  0  0  0  0
  137.3774   77.6458  221.3097 H   0  0  0  0  0  0  0  0  0  0  0  0
  137.0350   75.9180  222.4610 C   0  0  0  0  0  0  0  0  0  0  0  0
  137.1700   74.7210  222.0860 O   0  0  0  0  0  0  0  0  0  0  0  0
  135.9530   76.2540  223.4020 C   0  0  0  0  0  0  0  0  0  0  0  0
  135.8240   75.6100  224.4780 O   0  0  0  0  0  0  0  0  0  0  0  0
  135.0430   77.3110  223.0810 N   0  0  0  0  0  0  0  0  0  0  0  0
  135.1940   78.6810  223.5630 C   0  0  0  0  0  0  0  0  0  0  0  0
  134.5719   78.8195  224.4595 H   0  0  0  0  0  0  0  0  0  0  0  0
  136.2527   78.8577  223.8037 H   0  0  0  0  0  0  0  0  0  0  0  0
  134.7600   79.6770  222.4930 C   0  0  0  0  0  0  0  0  0  0  0  0
  134.3649   80.5836  222.9746 H   0  0  0  0  0  0  0  0  0  0  0  0
  135.6244   79.9417  221.8663 H   0  0  0  0  0  0  0  0  0  0  0  0
  133.9776   79.2241  221.8663 H   0  0  0  0  0  0  0  0  0  0  0  0
  138.5870   77.8330  223.0840 C   0  0  0  0  0  0  0  0  0  0  0  0
  137.9283   77.7450  223.9606 H   0  0  0  0  0  0  0  0  0  0  0  0
  139.6004   77.4384  223.2494 H   0  0  0  0  0  0  0  0  0  0  0  0
  138.7640   79.3440  222.7680 C   0  0  0  0  0  0  0  0  0  0  0  0
  139.8402   79.5352  222.6443 H   0  0  0  0  0  0  0  0  0  0  0  0
  138.2750   80.2510  223.9350 C   0  0  0  0  0  0  0  0  0  0  0  0
  137.4803   79.7185  224.4780 H   0  0  0  0  0  0  0  0  0  0  0  0
  139.1513   80.4592  224.5665 H   0  0  0  0  0  0  0  0  0  0  0  0
  137.7200   81.6140  223.4760 C   0  0  0  0  0  0  0  0  0  0  0  0
  136.6499   81.5057  223.2452 H   0  0  0  0  0  0  0  0  0  0  0  0
  137.8720   82.3413  224.2871 H   0  0  0  0  0  0  0  0  0  0  0  0
  138.4490   82.1210  222.2310 C   0  0  0  0  0  0  0  0  0  0  0  0
  138.0457   83.1075  221.9585 H   0  0  0  0  0  0  0  0  0  0  0  0
  139.5222   82.1850  222.4638 H   0  0  0  0  0  0  0  0  0  0  0  0
  138.2720   81.1620  221.0380 C   0  0  0  0  0  0  0  0  0  0  0  0
  137.4113   81.5014  220.4431 H   0  0  0  0  0  0  0  0  0  0  0  0
  139.2100   81.1830  220.4638 H   0  0  0  0  0  0  0  0  0  0  0  0
  138.0290   79.6980  221.4570 C   0  0  0  0  0  0  0  0  0  0  0  0
  136.9495   79.5442  221.6020 H   0  0  0  0  0  0  0  0  0  0  0  0
  138.4193   79.0467  220.6611 H   0  0  0  0  0  0  0  0  0  0  0  0
  141.4520   76.0720  221.2670 C   0  0  2  0  0  0  0  0  0  0  0  0
  142.0660   75.8704  222.1572 H   0  0  0  0  0  0  0  0  0  0  0  0
  141.5060   77.5530  220.9720 C   0  0  0  0  0  0  0  0  0  0  0  0
  141.3520   78.0680  219.7300 N   0  0  0  0  0  0  0  0  0  0  0  0
  141.4320   79.3920  219.8300 N   0  0  0  0  0  0  0  0  0  0  0  0
  141.6290   79.6570  221.1330 C   0  0  0  0  0  0  0  0  0  0  0  0
  141.7690   80.9150  221.7140 C   0  0  0  0  0  0  0  0  0  0  0  0
  141.7270   81.8321  221.1081 H   0  0  0  0  0  0  0  0  0  0  0  0
  141.9660   80.9670  223.1040 C   0  0  0  0  0  0  0  0  0  0  0  0
  142.0804   81.9402  223.6038 H   0  0  0  0  0  0  0  0  0  0  0  0
  142.0180   79.7800  223.8620 C   0  0  0  0  0  0  0  0  0  0  0  0
  142.1728   79.8240  224.9502 H   0  0  0  0  0  0  0  0  0  0  0  0
  141.8710   78.5420  223.2190 C   0  0  0  0  0  0  0  0  0  0  0  0
  141.9099   77.6007  223.7869 H   0  0  0  0  0  0  0  0  0  0  0  0
  141.6790   78.5400  221.8730 N   0  0  0  0  0  0  0  0  0  0  0  0
  142.0720   75.2380  220.1210 C   0  0  0  0  0  0  0  0  0  0  0  0
  141.6861   75.6243  219.1661 H   0  0  0  0  0  0  0  0  0  0  0  0
  141.7887   74.1911  220.3046 H   0  0  0  0  0  0  0  0  0  0  0  0
  143.6120   75.2760  220.0700 C   0  0  0  0  0  0  0  0  0  0  0  0
  143.9792   75.8285  220.9474 H   0  0  0  0  0  0  0  0  0  0  0  0
  143.9002   75.7669  219.1288 H   0  0  0  0  0  0  0  0  0  0  0  0
  144.2420   73.8760  220.0730 C   0  0  0  0  0  0  0  0  0  0  0  0
  144.4336   73.5657  219.0352 H   0  0  0  0  0  0  0  0  0  0  0  0
  143.5448   73.1794  220.5615 H   0  0  0  0  0  0  0  0  0  0  0  0
  145.5580   73.8690  220.8470 C   0  0  0  0  0  0  0  0  0  0  0  0
  145.3483   73.8701  221.9268 H   0  0  0  0  0  0  0  0  0  0  0  0
  146.1322   72.9678  220.5859 H   0  0  0  0  0  0  0  0  0  0  0  0
  146.1417   74.7641  220.5859 H   0  0  0  0  0  0  0  0  0  0  0  0
  1  2  1  0
  2  3  1  0
  3  4  2  0
  4  5  1  0
  5  6  1  6
  5  7  1  0
  7  8  2  0
  7  9  1  0
  9 10  2  0
  9 11  1  0
 11 12  1  0
 12 13  1  0
 12 14  1  0
 12 15  1  0
 15 16  1  0
 15 17  1  0
 15 18  1  0
  5 19  1  0
 19 20  1  0
 19 21  1  0
 19 22  1  0
 22 23  1  0
 22 24  1  0
 24 25  1  0
 24 26  1  0
 24 27  1  0
 27 28  1  0
 27 29  1  0
 27 30  1  0
 30 31  1  0
 30 32  1  0
 30 33  1  0
 33 34  1  0
 33 35  1  0
 33 36  1  0
 36 37  1  0
 36 38  1  0
  3 39  1  0
 39 40  1  1
 39 41  1  0
 41 42  2  0
 42 43  1  0
 43 44  2  0
 44 45  1  0
 45 46  1  0
 45 47  2  0
 47 48  1  0
 47 49  1  0
 49 50  1  0
 49 51  2  0
 51 52  1  0
 51 53  1  0
 39 54  1  0
 54 55  1  0
 54 56  1  0
 54 57  1  0
 57 58  1  0
 57 59  1  0
 57 60  1  0
 60 61  1  0
 60 62  1  0
 60 63  1  0
 63 64  1  0
 63 65  1  0
 63 66  1  0
 36 22  1  0
 53 41  1  0
 53 44  1  0
M  CHG  1  11  -1
M  END
>  <UniqueID>  (1) 
1

>  <SMILES>  (1) 
CCCC[C@H](/C(O)=N/[C@H](CC1CCCCC1)C(=O)C(=O)[N-]CC)c1nnc2ccccn12

>  <Energy>  (1) 
90.49375174549255

>  <Genealogy>  (1) 
CCCCC(C(=O)NC(CC1CCCCC1)C(=O)C(=O)[N-]CC)c1nnc2ccccn12 (protonated)
CCCCC(C(O)=NC(CC1CCCCC1)C(=O)C(=O)[N-]CC)c1nnc2ccccn12 (tautomer)
CCCC[C@H](C(O)=N[C@H](CC1CCCCC1)C(=O)C(=O)[N-]CC)c1nnc2ccccn12 (chirality)
CCCC[C@H](/C(O)=N/[C@H](CC1CCCCC1)C(=O)C(=O)[N-]CC)c1nnc2ccccn12 (cis-trans isomerization)
CCCC[C@H](/C(O)=N/[C@H](CC1CCCCC1)C(=O)C(=O)[N-]CC)c1nnc2ccccn12 (3D coordinates assigned)
CCCC[C@H](/C(O)=N/[C@H](CC1CCCCC1)C(=O)C(=O)[N-]CC)c1nnc2ccccn12 (nonaromatic ring conformer: 90.49375174549255 kcal/mol)

>  <smiles>  (1) 
CCCCC(C(=O)NC(CC1CCCCC1)C(=O)C(=O)NCC)c1nnc2ccccn12

>  <score_type>  (1) 
oracle

>  <origin>  (1) 
autodockgpu

>  <m_score__min__energy>  (1) 
-6.2599999999999998

>  <m_primary>  (1) 
energy

>  <meeko>  (1) 
{"free_energy": -4.9, "intermolecular_energy": -9.07, "internal_energy": -3.85, "cluster_size": 3, "cluster_id": 9, "rank_in_cluster": 2}

>  <energy>  (1) 
-6.26

>  <cluster_rmsd>  (1) 
0.0

>  <rmsd>  (1) 
269.07

>  <cluster>  (1) 
1

$$$$
NNKZOUMTYASKLJ-WHFSYHSSNA-M
     RDKit          3D

 66 68  0  0  0  0  0  0  0  0999 V2000
  138.9630   72.5760  220.5600 H   0  0  0  0  0  0  0  0  0  0  0  0
  139.8140   73.1040  220.4210 O   0  0  0  0  0  0  0  0  0  0  0  0
  140.5400   73.6880  221.4650 C   0  0  0  0  0  0  0  0  0  0  0  0
  140.7990   73.0390  222.5650 N   0  0  0  0  0  0  0  0  0  0  0  0
  139.9070   72.1050  223.2580 C   0  0  1  0  0  0  0  0  0  0  0  0
  139.2686   72.6655  223.9568 H   0  0  0  0  0  0  0  0  0  0  0  0
  138.9680   71.4190  222.2890 C   0  0  0  0  0  0  0  0  0  0  0  0
  139.4250   70.6080  221.4380 O   0  0  0  0  0  0  0  0  0  0  0  0
  137.5180   71.6780  222.3220 C   0  0  0  0  0  0  0  0  0  0  0  0
  136.9880   72.4300  221.4590 O   0  0  0  0  0  0  0  0  0  0  0  0
  136.7180   71.0770  223.3440 N   0  0  0  0  0  0  0  0  0  0  0  0
  136.6590   69.6390  223.5830 C   0  0  0  0  0  0  0  0  0  0  0  0
  135.6088   69.3124  223.5645 H   0  0  0  0  0  0  0  0  0  0  0  0
  137.2316   69.1254  222.7966 H   0  0  0  0  0  0  0  0  0  0  0  0
  137.2670   69.2940  224.9380 C   0  0  0  0  0  0  0  0  0  0  0  0
  136.6116   69.6659  225.7394 H   0  0  0  0  0  0  0  0  0  0  0  0
  137.3708   68.2025  225.0261 H   0  0  0  0  0  0  0  0  0  0  0  0
  138.2573   69.7648  225.0261 H   0  0  0  0  0  0  0  0  0  0  0  0
  140.7450   71.1010  224.0790 C   0  0  0  0  0  0  0  0  0  0  0  0
  140.7402   70.1394  223.5449 H   0  0  0  0  0  0  0  0  0  0  0  0
  141.7444   71.5502  224.1755 H   0  0  0  0  0  0  0  0  0  0  0  0
  140.2510   70.8450  225.5300 C   0  0  0  0  0  0  0  0  0  0  0  0
  139.1609   70.9916  225.5422 H   0  0  0  0  0  0  0  0  0  0  0  0
  140.8550   71.8590  226.5450 C   0  0  0  0  0  0  0  0  0  0  0  0
  141.8344   72.1866  226.1663 H   0  0  0  0  0  0  0  0  0  0  0  0
  140.1378   72.6884  226.6333 H   0  0  0  0  0  0  0  0  0  0  0  0
  141.0500   71.2830  227.9610 C   0  0  0  0  0  0  0  0  0  0  0  0
  142.0338   70.7940  228.0164 H   0  0  0  0  0  0  0  0  0  0  0  0
  140.9845   72.1097  228.6837 H   0  0  0  0  0  0  0  0  0  0  0  0
  139.9650   70.2590  228.3000 C   0  0  0  0  0  0  0  0  0  0  0  0
  140.1219   69.8999  229.3278 H   0  0  0  0  0  0  0  0  0  0  0  0
  138.9858   70.7500  228.2002 H   0  0  0  0  0  0  0  0  0  0  0  0
  140.0000   69.0550  227.3390 C   0  0  0  0  0  0  0  0  0  0  0  0
  140.6215   68.2674  227.7899 H   0  0  0  0  0  0  0  0  0  0  0  0
  138.9599   68.7302  227.1887 H   0  0  0  0  0  0  0  0  0  0  0  0
  140.5750   69.3950  225.9490 C   0  0  0  0  0  0  0  0  0  0  0  0
  141.6674   69.2683  225.9755 H   0  0  0  0  0  0  0  0  0  0  0  0
  140.1144   68.7174  225.2150 H   0  0  0  0  0  0  0  0  0  0  0  0
  141.0500   75.1010  221.3270 C   0  0  2  0  0  0  0  0  0  0  0  0
  141.9735   75.1815  221.9192 H   0  0  0  0  0  0  0  0  0  0  0  0
  140.0390   76.0780  221.8800 C   0  0  0  0  0  0  0  0  0  0  0  0
  138.7230   75.7910  222.0070 N   0  0  0  0  0  0  0  0  0  0  0  0
  138.1290   76.8530  222.5450 N   0  0  0  0  0  0  0  0  0  0  0  0
  139.0970   77.7650  222.7380 C   0  0  0  0  0  0  0  0  0  0  0  0
  138.9450   79.0360  223.2850 C   0  0  0  0  0  0  0  0  0  0  0  0
  137.9613   79.4023  223.6138 H   0  0  0  0  0  0  0  0  0  0  0  0
  140.0960   79.8330  223.4010 C   0  0  0  0  0  0  0  0  0  0  0  0
  140.0204   80.8438  223.8283 H   0  0  0  0  0  0  0  0  0  0  0  0
  141.3470   79.3450  222.9730 C   0  0  0  0  0  0  0  0  0  0  0  0
  142.2468   79.9710  223.0646 H   0  0  0  0  0  0  0  0  0  0  0  0
  141.4360   78.0540  222.4290 C   0  0  0  0  0  0  0  0  0  0  0  0
  142.3997   77.6498  222.0855 H   0  0  0  0  0  0  0  0  0  0  0  0
  140.2970   77.3180  222.3390 N   0  0  0  0  0  0  0  0  0  0  0  0
  141.4420   75.4480  219.8710 C   0  0  0  0  0  0  0  0  0  0  0  0
  140.7748   76.2473  219.5161 H   0  0  0  0  0  0  0  0  0  0  0  0
  141.3449   74.5194  219.2894 H   0  0  0  0  0  0  0  0  0  0  0  0
  142.8980   75.9240  219.7010 C   0  0  0  0  0  0  0  0  0  0  0  0
  143.0542   76.8100  220.3340 H   0  0  0  0  0  0  0  0  0  0  0  0
  143.0496   76.1516  218.6355 H   0  0  0  0  0  0  0  0  0  0  0  0
  143.9240   74.8530  220.0950 C   0  0  0  0  0  0  0  0  0  0  0  0
  144.0187   74.8320  221.1907 H   0  0  0  0  0  0  0  0  0  0  0  0
  144.8879   75.1042  219.6284 H   0  0  0  0  0  0  0  0  0  0  0  0
  143.4930   73.4720  219.6050 C   0  0  0  0  0  0  0  0  0  0  0  0
  143.2904   72.8229  220.4696 H   0  0  0  0  0  0  0  0  0  0  0  0
  142.5817   73.5669  218.9962 H   0  0  0  0  0  0  0  0  0  0  0  0
  144.2965   73.0317  218.9962 H   0  0  0  0  0  0  0  0  0  0  0  0
  1  2  1  0
  2  3  1  0
  3  4  2  0
  4  5  1  0
  5  6  1  1
  5  7  1  0
  7  8  2  0
  7  9  1  0
  9 10  2  0
  9 11  1  0
 11 12  1  0
 12 13  1  0
 12 14  1  0
 12 15  1  0
 15 16  1  0
 15 17  1  0
 15 18  1  0
  5 19  1  0
 19 20  1  0
 19 21  1  0
 19 22  1  0
 22 23  1  0
 22 24  1  0
 24 25  1  0
 24 26  1  0
 24 27  1  0
 27 28  1  0
 27 29  1  0
 27 30  1  0
 30 31  1  0
 30 32  1  0
 30 33  1  0
 33 34  1  0
 33 35  1  0
 33 36  1  0
 36 37  1  0
 36 38  1  0
  3 39  1  0
 39 40  1  1
 39 41  1  0
 41 42  2  0
 42 43  1  0
 43 44  2  0
 44 45  1  0
 45 46  1  0
 45 47  2  0
 47 48  1  0
 47 49  1  0
 49 50  1  0
 49 51  2  0
 51 52  1  0
 51 53  1  0
 39 54  1  0
 54 55  1  0
 54 56  1  0
 54 57  1  0
 57 58  1  0
 57 59  1  0
 57 60  1  0
 60 61  1  0
 60 62  1  0
 60 63  1  0
 63 64  1  0
 63 65  1  0
 63 66  1  0
 36 22  1  0
 53 41  1  0
 53 44  1  0
M  CHG  1  11  -1
M  END
>  <UniqueID>  (2) 
1

>  <SMILES>  (2) 
CCCC[C@H](/C(O)=N/[C@H](CC1CCCCC1)C(=O)C(=O)[N-]CC)c1nnc2ccccn12

>  <Energy>  (2) 
90.49375174549255

>  <Genealogy>  (2) 
CCCCC(C(=O)NC(CC1CCCCC1)C(=O)C(=O)[N-]CC)c1nnc2ccccn12 (protonated)
CCCCC(C(O)=NC(CC1CCCCC1)C(=O)C(=O)[N-]CC)c1nnc2ccccn12 (tautomer)
CCCC[C@H](C(O)=N[C@H](CC1CCCCC1)C(=O)C(=O)[N-]CC)c1nnc2ccccn12 (chirality)
CCCC[C@H](/C(O)=N/[C@H](CC1CCCCC1)C(=O)C(=O)[N-]CC)c1nnc2ccccn12 (cis-trans isomerization)
CCCC[C@H](/C(O)=N/[C@H](CC1CCCCC1)C(=O)C(=O)[N-]CC)c1nnc2ccccn12 (3D coordinates assigned)
CCCC[C@H](/C(O)=N/[C@H](CC1CCCCC1)C(=O)C(=O)[N-]CC)c1nnc2ccccn12 (nonaromatic ring conformer: 90.49375174549255 kcal/mol)

>  <smiles>  (2) 
CCCCC(C(=O)NC(CC1CCCCC1)C(=O)C(=O)NCC)c1nnc2ccccn12

>  <score_type>  (2) 
oracle

>  <origin>  (2) 
autodockgpu

>  <m_score__min__energy>  (2) 
-6.2599999999999998

>  <m_primary>  (2) 
energy

>  <meeko>  (2) 
{"free_energy": -5.8, "intermolecular_energy": -9.97, "internal_energy": -2.83, "cluster_size": 3, "cluster_id": 3, "rank_in_cluster": 2}

>  <energy>  (2) 
-6.14

>  <cluster_rmsd>  (2) 
0.0

>  <rmsd>  (2) 
268.88

>  <cluster>  (2) 
2

$$$$
NNKZOUMTYASKLJ-WHFSYHSSNA-M
     RDKit          3D

 66 68  0  0  0  0  0  0  0  0999 V2000
  143.4850   77.6140  220.3980 H   0  0  0  0  0  0  0  0  0  0  0  0
  142.5600   77.9430  220.1590 O   0  0  0  0  0  0  0  0  0  0  0  0
  141.4650   77.0930  219.9630 C   0  0  0  0  0  0  0  0  0  0  0  0
  140.2840   77.3780  220.4340 N   0  0  0  0  0  0  0  0  0  0  0  0
  139.8110   77.1440  221.8010 C   0  0  1  0  0  0  0  0  0  0  0  0
  139.0920   77.9306  222.0737 H   0  0  0  0  0  0  0  0  0  0  0  0
  139.0610   75.8340  221.9080 C   0  0  0  0  0  0  0  0  0  0  0  0
  137.8010   75.8320  221.9610 O   0  0  0  0  0  0  0  0  0  0  0  0
  139.7800   74.5480  221.9500 C   0  0  0  0  0  0  0  0  0  0  0  0
  141.0400   74.5260  221.9800 O   0  0  0  0  0  0  0  0  0  0  0  0
  139.0370   73.3250  221.9480 N   0  0  0  0  0  0  0  0  0  0  0  0
  139.6500   72.0080  222.0880 C   0  0  0  0  0  0  0  0  0  0  0  0
  138.8782   71.2346  221.9608 H   0  0  0  0  0  0  0  0  0  0  0  0
  140.4303   71.8966  221.3207 H   0  0  0  0  0  0  0  0  0  0  0  0
  140.2890   71.8570  223.4650 C   0  0  0  0  0  0  0  0  0  0  0  0
  139.5316   72.0360  224.2423 H   0  0  0  0  0  0  0  0  0  0  0  0
  140.6916   70.8390  223.5728 H   0  0  0  0  0  0  0  0  0  0  0  0
  141.1046   72.5871  223.5728 H   0  0  0  0  0  0  0  0  0  0  0  0
  141.0010   77.2250  222.7830 C   0  0  0  0  0  0  0  0  0  0  0  0
  140.7937   76.5459  223.6231 H   0  0  0  0  0  0  0  0  0  0  0  0
  141.8924   76.9505  222.1999 H   0  0  0  0  0  0  0  0  0  0  0  0
  141.2920   78.6350  223.3680 C   0  0  0  0  0  0  0  0  0  0  0  0
  141.4154   78.5260  224.4556 H   0  0  0  0  0  0  0  0  0  0  0  0
  140.1090   79.6210  223.1430 C   0  0  0  0  0  0  0  0  0  0  0  0
  139.5737   79.3174  222.2313 H   0  0  0  0  0  0  0  0  0  0  0  0
  139.4759   79.5704  224.0411 H   0  0  0  0  0  0  0  0  0  0  0  0
  140.5430   81.0910  222.9840 C   0  0  0  0  0  0  0  0  0  0  0  0
  140.7736   81.2838  221.9259 H   0  0  0  0  0  0  0  0  0  0  0  0
  139.7195   81.7346  223.3271 H   0  0  0  0  0  0  0  0  0  0  0  0
  141.7810   81.4010  223.8280 C   0  0  0  0  0  0  0  0  0  0  0  0
  142.0355   82.4647  223.7111 H   0  0  0  0  0  0  0  0  0  0  0  0
  141.5499   81.1654  224.8773 H   0  0  0  0  0  0  0  0  0  0  0  0
  142.9900   80.5470  223.3970 C   0  0  0  0  0  0  0  0  0  0  0  0
  143.5770   81.1192  222.6635 H   0  0  0  0  0  0  0  0  0  0  0  0
  143.5666   80.3196  224.3058 H   0  0  0  0  0  0  0  0  0  0  0  0
  142.5940   79.1990  222.7610 C   0  0  0  0  0  0  0  0  0  0  0  0
  142.4482   79.3451  221.6805 H   0  0  0  0  0  0  0  0  0  0  0  0
  143.4016   78.4789  222.9592 H   0  0  0  0  0  0  0  0  0  0  0  0
  141.6380   75.8130  219.1820 C   0  0  2  0  0  0  0  0  0  0  0  0
  140.7417   75.1971  219.3475 H   0  0  0  0  0  0  0  0  0  0  0  0
  142.8410   75.0520  219.6860 C   0  0  0  0  0  0  0  0  0  0  0  0
  144.0030   75.6500  220.0380 N   0  0  0  0  0  0  0  0  0  0  0  0
  144.8350   74.7000  220.4550 N   0  0  0  0  0  0  0  0  0  0  0  0
  144.1620   73.5410  220.3520 C   0  0  0  0  0  0  0  0  0  0  0  0
  144.6320   72.2730  220.6810 C   0  0  0  0  0  0  0  0  0  0  0  0
  145.6504   72.1245  221.0694 H   0  0  0  0  0  0  0  0  0  0  0  0
  143.7560   71.1900  220.4980 C   0  0  0  0  0  0  0  0  0  0  0  0
  144.0873   70.1710  220.7467 H   0  0  0  0  0  0  0  0  0  0  0  0
  142.4560   71.4010  219.9980 C   0  0  0  0  0  0  0  0  0  0  0  0
  141.7726   70.5509  219.8556 H   0  0  0  0  0  0  0  0  0  0  0  0
  142.0390   72.7030  219.6830 C   0  0  0  0  0  0  0  0  0  0  0  0
  141.0303   72.8947  219.2884 H   0  0  0  0  0  0  0  0  0  0  0  0
  142.9190   73.7210  219.8800 N   0  0  0  0  0  0  0  0  0  0  0  0
  141.7140   76.0580  217.6560 C   0  0  0  0  0  0  0  0  0  0  0  0
  141.0132   75.3692  217.1616 H   0  0  0  0  0  0  0  0  0  0  0  0
  142.7605   75.8886  217.3625 H   0  0  0  0  0  0  0  0  0  0  0  0
  141.3630   77.4950  217.2240 C   0  0  0  0  0  0  0  0  0  0  0  0
  140.6764   77.9273  217.9668 H   0  0  0  0  0  0  0  0  0  0  0  0
  140.9025   77.4373  216.2267 H   0  0  0  0  0  0  0  0  0  0  0  0
  142.5960   78.4010  217.1110 C   0  0  0  0  0  0  0  0  0  0  0  0
  142.8164   78.5771  216.0478 H   0  0  0  0  0  0  0  0  0  0  0  0
  143.4434   77.9016  217.6034 H   0  0  0  0  0  0  0  0  0  0  0  0
  142.3560   79.7430  217.8000 C   0  0  0  0  0  0  0  0  0  0  0  0
  142.3807   79.6046  218.8910 H   0  0  0  0  0  0  0  0  0  0  0  0
  143.1413   80.4535  217.5026 H   0  0  0  0  0  0  0  0  0  0  0  0
  141.3731   80.1373  217.5026 H   0  0  0  0  0  0  0  0  0  0  0  0
  1  2  1  0
  2  3  1  0
  3  4  2  0
  4  5  1  0
  5  6  1  1
  5  7  1  0
  7  8  2  0
  7  9  1  0
  9 10  2  0
  9 11  1  0
 11 12  1  0
 12 13  1  0
 12 14  1  0
 12 15  1  0
 15 16  1  0
 15 17  1  0
 15 18  1  0
  5 19  1  0
 19 20  1  0
 19 21  1  0
 19 22  1  0
 22 23  1  0
 22 24  1  0
 24 25  1  0
 24 26  1  0
 24 27  1  0
 27 28  1  0
 27 29  1  0
 27 30  1  0
 30 31  1  0
 30 32  1  0
 30 33  1  0
 33 34  1  0
 33 35  1  0
 33 36  1  0
 36 37  1  0
 36 38  1  0
  3 39  1  0
 39 40  1  6
 39 41  1  0
 41 42  2  0
 42 43  1  0
 43 44  2  0
 44 45  1  0
 45 46  1  0
 45 47  2  0
 47 48  1  0
 47 49  1  0
 49 50  1  0
 49 51  2  0
 51 52  1  0
 51 53  1  0
 39 54  1  0
 54 55  1  0
 54 56  1  0
 54 57  1  0
 57 58  1  0
 57 59  1  0
 57 60  1  0
 60 61  1  0
 60 62  1  0
 60 63  1  0
 63 64  1  0
 63 65  1  0
 63 66  1  0
 36 22  1  0
 53 41  1  0
 53 44  1  0
M  CHG  1  11  -1
M  END
>  <UniqueID>  (3) 
1

>  <SMILES>  (3) 
CCCC[C@H](/C(O)=N/[C@H](CC1CCCCC1)C(=O)C(=O)[N-]CC)c1nnc2ccccn12

>  <Energy>  (3) 
90.49375174549255

>  <Genealogy>  (3) 
CCCCC(C(=O)NC(CC1CCCCC1)C(=O)C(=O)[N-]CC)c1nnc2ccccn12 (protonated)
CCCCC(C(O)=NC(CC1CCCCC1)C(=O)C(=O)[N-]CC)c1nnc2ccccn12 (tautomer)
CCCC[C@H](C(O)=N[C@H](CC1CCCCC1)C(=O)C(=O)[N-]CC)c1nnc2ccccn12 (chirality)
CCCC[C@H](/C(O)=N/[C@H](CC1CCCCC1)C(=O)C(=O)[N-]CC)c1nnc2ccccn12 (cis-trans isomerization)
CCCC[C@H](/C(O)=N/[C@H](CC1CCCCC1)C(=O)C(=O)[N-]CC)c1nnc2ccccn12 (3D coordinates assigned)
CCCC[C@H](/C(O)=N/[C@H](CC1CCCCC1)C(=O)C(=O)[N-]CC)c1nnc2ccccn12 (nonaromatic ring conformer: 90.49375174549255 kcal/mol)

>  <smiles>  (3) 
CCCCC(C(=O)NC(CC1CCCCC1)C(=O)C(=O)NCC)c1nnc2ccccn12

>  <score_type>  (3) 
oracle

>  <origin>  (3) 
autodockgpu

>  <m_score__min__energy>  (3) 
-6.2599999999999998

>  <m_primary>  (3) 
energy

>  <meeko>  (3) 
{"free_energy": -4.96, "intermolecular_energy": -9.14, "internal_energy": -3.23, "cluster_size": 1, "cluster_id": 10, "rank_in_cluster": 1}

>  <energy>  (3) 
-5.65

>  <cluster_rmsd>  (3) 
1.15

>  <rmsd>  (3) 
268.8

>  <cluster>  (3) 
2

$$$$
NNKZOUMTYASKLJ-WHFSYHSSNA-M
     RDKit          3D

 66 68  0  0  0  0  0  0  0  0999 V2000
  139.3590   68.1200  222.6220 H   0  0  0  0  0  0  0  0  0  0  0  0
  139.1450   68.9400  222.0690 O   0  0  0  0  0  0  0  0  0  0  0  0
  138.7150   70.1520  222.6200 C   0  0  0  0  0  0  0  0  0  0  0  0
  138.8220   71.2760  221.9690 N   0  0  0  0  0  0  0  0  0  0  0  0
  138.0940   72.5170  222.2460 C   0  0  1  0  0  0  0  0  0  0  0  0
  138.2287   72.7868  223.3039 H   0  0  0  0  0  0  0  0  0  0  0  0
  138.6510   73.6730  221.4430 C   0  0  0  0  0  0  0  0  0  0  0  0
  138.1770   73.9330  220.3030 O   0  0  0  0  0  0  0  0  0  0  0  0
  139.7420   74.5100  221.9700 C   0  0  0  0  0  0  0  0  0  0  0  0
  139.5000   75.6650  222.4130 O   0  0  0  0  0  0  0  0  0  0  0  0
  141.0820   74.0050  221.9690 N   0  0  0  0  0  0  0  0  0  0  0  0
  141.6940   73.3430  220.8210 C   0  0  0  0  0  0  0  0  0  0  0  0
  141.0361   73.4543  219.9465 H   0  0  0  0  0  0  0  0  0  0  0  0
  142.6715   73.8073  220.6236 H   0  0  0  0  0  0  0  0  0  0  0  0
  141.9030   71.8600  221.1050 C   0  0  0  0  0  0  0  0  0  0  0  0
  141.9263   71.6946  222.1922 H   0  0  0  0  0  0  0  0  0  0  0  0
  141.0774   71.2823  220.6638 H   0  0  0  0  0  0  0  0  0  0  0  0
  142.8561   71.5330  220.6638 H   0  0  0  0  0  0  0  0  0  0  0  0
  136.5850   72.2990  221.9980 C   0  0  0  0  0  0  0  0  0  0  0  0
  136.3929   72.4482  220.9252 H   0  0  0  0  0  0  0  0  0  0  0  0
  136.3652   71.2805  222.3505 H   0  0  0  0  0  0  0  0  0  0  0  0
  135.6340   73.2390  222.7900 C   0  0  0  0  0  0  0  0  0  0  0  0
  134.6208   73.1086  222.3819 H   0  0  0  0  0  0  0  0  0  0  0  0
  136.0040   74.7400  222.6100 C   0  0  0  0  0  0  0  0  0  0  0  0
  137.0842   74.8092  222.4143 H   0  0  0  0  0  0  0  0  0  0  0  0
  135.3977   75.1198  221.7745 H   0  0  0  0  0  0  0  0  0  0  0  0
  135.6760   75.6160  223.8340 C   0  0  0  0  0  0  0  0  0  0  0  0
  136.5276   75.5926  224.5299 H   0  0  0  0  0  0  0  0  0  0  0  0
  135.4860   76.6419  223.4857 H   0  0  0  0  0  0  0  0  0  0  0  0
  134.4260   75.1130  224.5590 C   0  0  0  0  0  0  0  0  0  0  0  0
  134.2085   75.7842  225.4029 H   0  0  0  0  0  0  0  0  0  0  0  0
  133.5928   75.1020  223.8409 H   0  0  0  0  0  0  0  0  0  0  0  0
  134.6190   73.6800  225.0960 C   0  0  0  0  0  0  0  0  0  0  0  0
  134.9705   73.7421  226.1365 H   0  0  0  0  0  0  0  0  0  0  0  0
  133.6480   73.1696  225.0144 H   0  0  0  0  0  0  0  0  0  0  0  0
  135.6370   72.8530  224.2850 C   0  0  0  0  0  0  0  0  0  0  0  0
  136.6429   73.0267  224.6948 H   0  0  0  0  0  0  0  0  0  0  0  0
  135.3537   71.7930  224.3633 H   0  0  0  0  0  0  0  0  0  0  0  0
  138.1010   70.1750  223.9980 C   0  0  2  0  0  0  0  0  0  0  0  0
  138.2294   71.1897  224.4030 H   0  0  0  0  0  0  0  0  0  0  0  0
  138.8170   69.2010  224.9050 C   0  0  0  0  0  0  0  0  0  0  0  0
  138.8080   67.8620  224.7110 N   0  0  0  0  0  0  0  0  0  0  0  0
  139.5490   67.3110  225.6680 N   0  0  0  0  0  0  0  0  0  0  0  0
  139.9980   68.3270  226.4240 C   0  0  0  0  0  0  0  0  0  0  0  0
  140.8200   68.2290  227.5440 C   0  0  0  0  0  0  0  0  0  0  0  0
  141.1760   67.2540  227.9081 H   0  0  0  0  0  0  0  0  0  0  0  0
  141.1770   69.4250  228.1910 C   0  0  0  0  0  0  0  0  0  0  0  0
  141.8256   69.3936  229.0789 H   0  0  0  0  0  0  0  0  0  0  0  0
  140.7090   70.6640  227.7090 C   0  0  0  0  0  0  0  0  0  0  0  0
  140.9891   71.5981  228.2179 H   0  0  0  0  0  0  0  0  0  0  0  0
  139.8830   70.6970  226.5750 C   0  0  0  0  0  0  0  0  0  0  0  0
  139.5024   71.6502  226.1792 H   0  0  0  0  0  0  0  0  0  0  0  0
  139.5670   69.5160  225.9800 N   0  0  0  0  0  0  0  0  0  0  0  0
  136.5760   69.9140  223.9710 C   0  0  0  0  0  0  0  0  0  0  0  0
  136.3757   69.1200  223.2365 H   0  0  0  0  0  0  0  0  0  0  0  0
  136.0983   70.8699  223.7099 H   0  0  0  0  0  0  0  0  0  0  0  0
  135.9810   69.4800  225.3240 C   0  0  0  0  0  0  0  0  0  0  0  0
  136.5479   69.9686  226.1301 H   0  0  0  0  0  0  0  0  0  0  0  0
  136.0528   68.3838  225.3809 H   0  0  0  0  0  0  0  0  0  0  0  0
  134.5000   69.8540  225.4700 C   0  0  0  0  0  0  0  0  0  0  0  0
  133.8910   68.9398  225.4115 H   0  0  0  0  0  0  0  0  0  0  0  0
  134.2332   70.5484  224.6597 H   0  0  0  0  0  0  0  0  0  0  0  0
  134.2370   70.5440  226.8070 C   0  0  0  0  0  0  0  0  0  0  0  0
  134.4972   69.8613  227.6294 H   0  0  0  0  0  0  0  0  0  0  0  0
  134.8514   71.4537  226.8773 H   0  0  0  0  0  0  0  0  0  0  0  0
  133.1729   70.8139  226.8773 H   0  0  0  0  0  0  0  0  0  0  0  0
  1  2  1  0
  2  3  1  0
  3  4  2  0
  4  5  1  0
  5  6  1  1
  5  7  1  0
  7  8  2  0
  7  9  1  0
  9 10  2  0
  9 11  1  0
 11 12  1  0
 12 13  1  0
 12 14  1  0
 12 15  1  0
 15 16  1  0
 15 17  1  0
 15 18  1  0
  5 19  1  0
 19 20  1  0
 19 21  1  0
 19 22  1  0
 22 23  1  0
 22 24  1  0
 24 25  1  0
 24 26  1  0
 24 27  1  0
 27 28  1  0
 27 29  1  0
 27 30  1  0
 30 31  1  0
 30 32  1  0
 30 33  1  0
 33 34  1  0
 33 35  1  0
 33 36  1  0
 36 37  1  0
 36 38  1  0
  3 39  1  0
 39 40  1  1
 39 41  1  0
 41 42  2  0
 42 43  1  0
 43 44  2  0
 44 45  1  0
 45 46  1  0
 45 47  2  0
 47 48  1  0
 47 49  1  0
 49 50  1  0
 49 51  2  0
 51 52  1  0
 51 53  1  0
 39 54  1  0
 54 55  1  0
 54 56  1  0
 54 57  1  0
 57 58  1  0
 57 59  1  0
 57 60  1  0
 60 61  1  0
 60 62  1  0
 60 63  1  0
 63 64  1  0
 63 65  1  0
 63 66  1  0
 36 22  1  0
 53 41  1  0
 53 44  1  0
M  CHG  1  11  -1
M  END
>  <UniqueID>  (4) 
1

>  <SMILES>  (4) 
CCCC[C@H](/C(O)=N/[C@H](CC1CCCCC1)C(=O)C(=O)[N-]CC)c1nnc2ccccn12

>  <Energy>  (4) 
90.49375174549255

>  <Genealogy>  (4) 
CCCCC(C(=O)NC(CC1CCCCC1)C(=O)C(=O)[N-]CC)c1nnc2ccccn12 (protonated)
CCCCC(C(O)=NC(CC1CCCCC1)C(=O)C(=O)[N-]CC)c1nnc2ccccn12 (tautomer)
CCCC[C@H](C(O)=N[C@H](CC1CCCCC1)C(=O)C(=O)[N-]CC)c1nnc2ccccn12 (chirality)
CCCC[C@H](/C(O)=N/[C@H](CC1CCCCC1)C(=O)C(=O)[N-]CC)c1nnc2ccccn12 (cis-trans isomerization)
CCCC[C@H](/C(O)=N/[C@H](CC1CCCCC1)C(=O)C(=O)[N-]CC)c1nnc2ccccn12 (3D coordinates assigned)
CCCC[C@H](/C(O)=N/[C@H](CC1CCCCC1)C(=O)C(=O)[N-]CC)c1nnc2ccccn12 (nonaromatic ring conformer: 90.49375174549255 kcal/mol)

>  <smiles>  (4) 
CCCCC(C(=O)NC(CC1CCCCC1)C(=O)C(=O)NCC)c1nnc2ccccn12

>  <score_type>  (4) 
oracle

>  <origin>  (4) 
autodockgpu

>  <m_score__min__energy>  (4) 
-6.2599999999999998

>  <m_primary>  (4) 
energy

>  <meeko>  (4) 
{"free_energy": -5.22, "intermolecular_energy": -9.4, "internal_energy": -2.74, "cluster_size": 1, "cluster_id": 8, "rank_in_cluster": 1}

>  <energy>  (4) 
-5.95

>  <cluster_rmsd>  (4) 
0.0

>  <rmsd>  (4) 
269.94

>  <cluster>  (4) 
3

$$$$
NNKZOUMTYASKLJ-WHFSYHSSNA-M
     RDKit          3D

 66 68  0  0  0  0  0  0  0  0999 V2000
  140.4760   74.0060  220.1280 H   0  0  0  0  0  0  0  0  0  0  0  0
  140.9290   74.6950  219.5430 O   0  0  0  0  0  0  0  0  0  0  0  0
  141.1680   76.0140  219.9470 C   0  0  0  0  0  0  0  0  0  0  0  0
  140.2370   76.7390  220.4980 N   0  0  0  0  0  0  0  0  0  0  0  0
  139.1720   76.2650  221.3860 C   0  0  1  0  0  0  0  0  0  0  0  0
  138.2035   76.3655  220.8743 H   0  0  0  0  0  0  0  0  0  0  0  0
  139.3310   74.7930  221.7000 C   0  0  0  0  0  0  0  0  0  0  0  0
  140.3400   74.3920  222.3420 O   0  0  0  0  0  0  0  0  0  0  0  0
  138.3220   73.8100  221.2680 C   0  0  0  0  0  0  0  0  0  0  0  0
  137.1270   73.9140  221.6570 O   0  0  0  0  0  0  0  0  0  0  0  0
  138.7100   72.7320  220.4110 N   0  0  0  0  0  0  0  0  0  0  0  0
  139.3820   71.5260  220.8840 C   0  0  0  0  0  0  0  0  0  0  0  0
  139.0255   71.2870  221.8968 H   0  0  0  0  0  0  0  0  0  0  0  0
  139.1534   70.6992  220.1955 H   0  0  0  0  0  0  0  0  0  0  0  0
  140.8930   71.7330  220.9200 C   0  0  0  0  0  0  0  0  0  0  0  0
  141.2319   71.7794  221.9655 H   0  0  0  0  0  0  0  0  0  0  0  0
  141.3902   70.8946  220.4102 H   0  0  0  0  0  0  0  0  0  0  0  0
  141.1464   72.6742  220.4102 H   0  0  0  0  0  0  0  0  0  0  0  0
  139.1320   77.1390  222.6600 C   0  0  0  0  0  0  0  0  0  0  0  0
  138.0892   77.4464  222.8274 H   0  0  0  0  0  0  0  0  0  0  0  0
  139.5459   76.5159  223.4665 H   0  0  0  0  0  0  0  0  0  0  0  0
  140.0080   78.4210  222.6200 C   0  0  0  0  0  0  0  0  0  0  0  0
  140.0936   78.7334  221.5688 H   0  0  0  0  0  0  0  0  0  0  0  0
  141.4550   78.1630  223.1340 C   0  0  0  0  0  0  0  0  0  0  0  0
  141.4227   77.3369  223.8597 H   0  0  0  0  0  0  0  0  0  0  0  0
  142.0696   77.9271  222.2528 H   0  0  0  0  0  0  0  0  0  0  0  0
  142.1020   79.3840  223.8170 C   0  0  0  0  0  0  0  0  0  0  0  0
  141.8298   79.3843  224.8828 H   0  0  0  0  0  0  0  0  0  0  0  0
  143.1928   79.3130  223.6936 H   0  0  0  0  0  0  0  0  0  0  0  0
  141.6290   80.6920  223.1820 C   0  0  0  0  0  0  0  0  0  0  0  0
  142.1393   81.5327  223.6747 H   0  0  0  0  0  0  0  0  0  0  0  0
  141.8697   80.6597  222.1092 H   0  0  0  0  0  0  0  0  0  0  0  0
  140.1060   80.8770  223.3280 C   0  0  0  0  0  0  0  0  0  0  0  0
  139.9121   81.4658  224.2367 H   0  0  0  0  0  0  0  0  0  0  0  0
  139.7527   81.3855  222.4188 H   0  0  0  0  0  0  0  0  0  0  0  0
  139.3330   79.5460  223.4340 C   0  0  0  0  0  0  0  0  0  0  0  0
  139.2896   79.2433  224.4906 H   0  0  0  0  0  0  0  0  0  0  0  0
  138.3243   79.7044  223.0247 H   0  0  0  0  0  0  0  0  0  0  0  0
  142.5350   76.6230  219.7530 C   0  0  2  0  0  0  0  0  0  0  0  0
  142.8406   77.0684  220.7113 H   0  0  0  0  0  0  0  0  0  0  0  0
  142.4770   77.7170  218.7130 C   0  0  0  0  0  0  0  0  0  0  0  0
  142.7230   77.5050  217.3990 N   0  0  0  0  0  0  0  0  0  0  0  0
  142.5640   78.6650  216.7670 N   0  0  0  0  0  0  0  0  0  0  0  0
  142.2200   79.5600  217.7090 C   0  0  0  0  0  0  0  0  0  0  0  0
  141.9460   80.9100  217.5130 C   0  0  0  0  0  0  0  0  0  0  0  0
  141.9982   81.3637  216.5123 H   0  0  0  0  0  0  0  0  0  0  0  0
  141.6000   81.6720  218.6420 C   0  0  0  0  0  0  0  0  0  0  0  0
  141.3756   82.7431  218.5312 H   0  0  0  0  0  0  0  0  0  0  0  0
  141.5390   81.0710  219.9160 C   0  0  0  0  0  0  0  0  0  0  0  0
  141.2677   81.6692  220.7984 H   0  0  0  0  0  0  0  0  0  0  0  0
  141.8270   79.7040  220.0500 C   0  0  0  0  0  0  0  0  0  0  0  0
  141.7901   79.2111  221.0327 H   0  0  0  0  0  0  0  0  0  0  0  0
  142.1530   79.0070  218.9290 N   0  0  0  0  0  0  0  0  0  0  0  0
  143.6100   75.5650  219.4100 C   0  0  0  0  0  0  0  0  0  0  0  0
  144.5731   76.0813  219.2835 H   0  0  0  0  0  0  0  0  0  0  0  0
  143.2719   75.0588  218.4938 H   0  0  0  0  0  0  0  0  0  0  0  0
  143.7870   74.4690  220.4790 C   0  0  0  0  0  0  0  0  0  0  0  0
  142.8397   73.9188  220.5783 H   0  0  0  0  0  0  0  0  0  0  0  0
  144.0712   74.9659  221.4184 H   0  0  0  0  0  0  0  0  0  0  0  0
  144.8990   73.4710  220.1300 C   0  0  0  0  0  0  0  0  0  0  0  0
  145.3778   73.7811  219.1895 H   0  0  0  0  0  0  0  0  0  0  0  0
  144.4512   72.4718  220.0249 H   0  0  0  0  0  0  0  0  0  0  0  0
  145.9540   73.4160  221.2320 C   0  0  0  0  0  0  0  0  0  0  0  0
  145.4598   73.4418  222.2144 H   0  0  0  0  0  0  0  0  0  0  0  0
  146.5345   72.4864  221.1378 H   0  0  0  0  0  0  0  0  0  0  0  0
  146.6280   74.2802  221.1378 H   0  0  0  0  0  0  0  0  0  0  0  0
  1  2  1  0
  2  3  1  0
  3  4  2  0
  4  5  1  0
  5  6  1  6
  5  7  1  0
  7  8  2  0
  7  9  1  0
  9 10  2  0
  9 11  1  0
 11 12  1  0
 12 13  1  0
 12 14  1  0
 12 15  1  0
 15 16  1  0
 15 17  1  0
 15 18  1  0
  5 19  1  0
 19 20  1  0
 19 21  1  0
 19 22  1  0
 22 23  1  0
 22 24  1  0
 24 25  1  0
 24 26  1  0
 24 27  1  0
 27 28  1  0
 27 29  1  0
 27 30  1  0
 30 31  1  0
 30 32  1  0
 30 33  1  0
 33 34  1  0
 33 35  1  0
 33 36  1  0
 36 37  1  0
 36 38  1  0
  3 39  1  0
 39 40  1  1
 39 41  1  0
 41 42  2  0
 42 43  1  0
 43 44  2  0
 44 45  1  0
 45 46  1  0
 45 47  2  0
 47 48  1  0
 47 49  1  0
 49 50  1  0
 49 51  2  0
 51 52  1  0
 51 53  1  0
 39 54  1  0
 54 55  1  0
 54 56  1  0
 54 57  1  0
 57 58  1  0
 57 59  1  0
 57 60  1  0
 60 61  1  0
 60 62  1  0
 60 63  1  0
 63 64  1  0
 63 65  1  0
 63 66  1  0
 36 22  1  0
 53 41  1  0
 53 44  1  0
M  CHG  1  11  -1
M  END
>  <UniqueID>  (5) 
1

>  <SMILES>  (5) 
CCCC[C@H](/C(O)=N/[C@H](CC1CCCCC1)C(=O)C(=O)[N-]CC)c1nnc2ccccn12

>  <Energy>  (5) 
90.49375174549255

>  <Genealogy>  (5) 
CCCCC(C(=O)NC(CC1CCCCC1)C(=O)C(=O)[N-]CC)c1nnc2ccccn12 (protonated)
CCCCC(C(O)=NC(CC1CCCCC1)C(=O)C(=O)[N-]CC)c1nnc2ccccn12 (tautomer)
CCCC[C@H](C(O)=N[C@H](CC1CCCCC1)C(=O)C(=O)[N-]CC)c1nnc2ccccn12 (chirality)
CCCC[C@H](/C(O)=N/[C@H](CC1CCCCC1)C(=O)C(=O)[N-]CC)c1nnc2ccccn12 (cis-trans isomerization)
CCCC[C@H](/C(O)=N/[C@H](CC1CCCCC1)C(=O)C(=O)[N-]CC)c1nnc2ccccn12 (3D coordinates assigned)
CCCC[C@H](/C(O)=N/[C@H](CC1CCCCC1)C(=O)C(=O)[N-]CC)c1nnc2ccccn12 (nonaromatic ring conformer: 90.49375174549255 kcal/mol)

>  <smiles>  (5) 
CCCCC(C(=O)NC(CC1CCCCC1)C(=O)C(=O)NCC)c1nnc2ccccn12

>  <score_type>  (5) 
oracle

>  <origin>  (5) 
autodockgpu

>  <m_score__min__energy>  (5) 
-6.2599999999999998

>  <m_primary>  (5) 
energy

>  <meeko>  (5) 
{"free_energy": -4.85, "intermolecular_energy": -9.03, "internal_energy": -3.47, "cluster_size": 1, "cluster_id": 11, "rank_in_cluster": 1}

>  <energy>  (5) 
-5.8

>  <cluster_rmsd>  (5) 
1.75

>  <rmsd>  (5) 
269.74

>  <cluster>  (5) 
3

$$$$
NNKZOUMTYASKLJ-WHFSYHSSNA-M
     RDKit          3D

 66 68  0  0  0  0  0  0  0  0999 V2000
  139.1920   74.1600  222.7690 H   0  0  0  0  0  0  0  0  0  0  0  0
  140.0250   73.9810  222.2240 O   0  0  0  0  0  0  0  0  0  0  0  0
  140.5630   74.8990  221.3140 C   0  0  0  0  0  0  0  0  0  0  0  0
  139.8870   75.9350  220.9060 N   0  0  0  0  0  0  0  0  0  0  0  0
  139.5650   77.1310  221.6900 C   0  0  1  0  0  0  0  0  0  0  0  0
  139.4549   77.9896  221.0113 H   0  0  0  0  0  0  0  0  0  0  0  0
  138.2360   76.9850  222.3990 C   0  0  0  0  0  0  0  0  0  0  0  0
  137.9950   75.9480  223.0760 O   0  0  0  0  0  0  0  0  0  0  0  0
  137.2110   78.0380  222.3170 C   0  0  0  0  0  0  0  0  0  0  0  0
  136.0160   77.7420  222.0430 O   0  0  0  0  0  0  0  0  0  0  0  0
  137.5810   79.4020  222.5410 N   0  0  0  0  0  0  0  0  0  0  0  0
  137.2160   80.1520  223.7390 C   0  0  0  0  0  0  0  0  0  0  0  0
  136.4435   80.8914  223.4811 H   0  0  0  0  0  0  0  0  0  0  0  0
  136.8338   79.4494  224.4941 H   0  0  0  0  0  0  0  0  0  0  0  0
  138.4300   80.8750  224.3110 C   0  0  0  0  0  0  0  0  0  0  0  0
  138.3876   80.8498  225.4099 H   0  0  0  0  0  0  0  0  0  0  0  0
  139.3488   80.3768  223.9679 H   0  0  0  0  0  0  0  0  0  0  0  0
  138.4296   81.9201  223.9679 H   0  0  0  0  0  0  0  0  0  0  0  0
  140.7240   77.4370  222.6650 C   0  0  0  0  0  0  0  0  0  0  0  0
  140.5139   76.9213  223.6136 H   0  0  0  0  0  0  0  0  0  0  0  0
  141.6396   77.0890  222.1643 H   0  0  0  0  0  0  0  0  0  0  0  0
  140.9550   78.9420  222.9790 C   0  0  0  0  0  0  0  0  0  0  0  0
  140.2792   79.2189  223.8015 H   0  0  0  0  0  0  0  0  0  0  0  0
  140.5970   79.8570  221.7710 C   0  0  0  0  0  0  0  0  0  0  0  0
  140.7500   79.2837  220.8448 H   0  0  0  0  0  0  0  0  0  0  0  0
  139.5510   80.1697  221.9057 H   0  0  0  0  0  0  0  0  0  0  0  0
  141.4420   81.1430  221.6910 C   0  0  0  0  0  0  0  0  0  0  0  0
  142.3642   80.9313  221.1299 H   0  0  0  0  0  0  0  0  0  0  0  0
  140.8473   81.9179  221.1851 H   0  0  0  0  0  0  0  0  0  0  0  0
  141.8130   81.6530  223.0850 C   0  0  0  0  0  0  0  0  0  0  0  0
  142.3843   82.5874  222.9829 H   0  0  0  0  0  0  0  0  0  0  0  0
  140.8834   81.8205  223.6487 H   0  0  0  0  0  0  0  0  0  0  0  0
  142.6660   80.6270  223.8560 C   0  0  0  0  0  0  0  0  0  0  0  0
  143.7277   80.8629  223.6913 H   0  0  0  0  0  0  0  0  0  0  0  0
  142.3817   80.7013  224.9160 H   0  0  0  0  0  0  0  0  0  0  0  0
  142.4170   79.1700  223.4210 C   0  0  0  0  0  0  0  0  0  0  0  0
  143.0841   78.9313  222.5796 H   0  0  0  0  0  0  0  0  0  0  0  0
  142.6175   78.5179  224.2839 H   0  0  0  0  0  0  0  0  0  0  0  0
  141.9640   74.7020  220.7890 C   0  0  2  0  0  0  0  0  0  0  0  0
  142.6462   75.2731  221.4359 H   0  0  0  0  0  0  0  0  0  0  0  0
  142.0750   75.2400  219.3820 C   0  0  0  0  0  0  0  0  0  0  0  0
  142.0730   74.4500  218.2830 N   0  0  0  0  0  0  0  0  0  0  0  0
  142.1610   75.2410  217.2180 N   0  0  0  0  0  0  0  0  0  0  0  0
  142.2110   76.4990  217.6890 C   0  0  0  0  0  0  0  0  0  0  0  0
  142.3030   77.6660  216.9360 C   0  0  0  0  0  0  0  0  0  0  0  0
  142.3458   77.6352  215.8373 H   0  0  0  0  0  0  0  0  0  0  0  0
  142.3390   78.8850  217.6340 C   0  0  0  0  0  0  0  0  0  0  0  0
  142.4098   79.8313  217.0777 H   0  0  0  0  0  0  0  0  0  0  0  0
  142.2850   78.9030  219.0420 C   0  0  0  0  0  0  0  0  0  0  0  0
  142.3140   79.8588  219.5857 H   0  0  0  0  0  0  0  0  0  0  0  0
  142.1940   77.6920  219.7450 C   0  0  0  0  0  0  0  0  0  0  0  0
  142.1530   77.6771  220.8441 H   0  0  0  0  0  0  0  0  0  0  0  0
  142.1580   76.5380  219.0280 N   0  0  0  0  0  0  0  0  0  0  0  0
  142.4250   73.2280  220.8750 C   0  0  0  0  0  0  0  0  0  0  0  0
  141.7093   72.6101  220.3129 H   0  0  0  0  0  0  0  0  0  0  0  0
  142.4639   72.9726  221.9442 H   0  0  0  0  0  0  0  0  0  0  0  0
  143.8340   72.9690  220.3090 C   0  0  0  0  0  0  0  0  0  0  0  0
  143.7746   72.9582  219.2107 H   0  0  0  0  0  0  0  0  0  0  0  0
  144.1787   72.0043  220.7096 H   0  0  0  0  0  0  0  0  0  0  0  0
  144.8530   74.0350  220.7340 C   0  0  0  0  0  0  0  0  0  0  0  0
  144.4081   74.6648  221.5185 H   0  0  0  0  0  0  0  0  0  0  0  0
  145.1130   74.6406  219.8533 H   0  0  0  0  0  0  0  0  0  0  0  0
  146.1280   73.3920  221.2740 C   0  0  0  0  0  0  0  0  0  0  0  0
  146.1067   73.4028  222.3737 H   0  0  0  0  0  0  0  0  0  0  0  0
  146.1936   72.3530  220.9187 H   0  0  0  0  0  0  0  0  0  0  0  0
  147.0024   73.9569  220.9187 H   0  0  0  0  0  0  0  0  0  0  0  0
  1  2  1  0
  2  3  1  0
  3  4  2  0
  4  5  1  0
  5  6  1  6
  5  7  1  0
  7  8  2  0
  7  9  1  0
  9 10  2  0
  9 11  1  0
 11 12  1  0
 12 13  1  0
 12 14  1  0
 12 15  1  0
 15 16  1  0
 15 17  1  0
 15 18  1  0
  5 19  1  0
 19 20  1  0
 19 21  1  0
 19 22  1  0
 22 23  1  0
 22 24  1  0
 24 25  1  0
 24 26  1  0
 24 27  1  0
 27 28  1  0
 27 29  1  0
 27 30  1  0
 30 31  1  0
 30 32  1  0
 30 33  1  0
 33 34  1  0
 33 35  1  0
 33 36  1  0
 36 37  1  0
 36 38  1  0
  3 39  1  0
 39 40  1  1
 39 41  1  0
 41 42  2  0
 42 43  1  0
 43 44  2  0
 44 45  1  0
 45 46  1  0
 45 47  2  0
 47 48  1  0
 47 49  1  0
 49 50  1  0
 49 51  2  0
 51 52  1  0
 51 53  1  0
 39 54  1  0
 54 55  1  0
 54 56  1  0
 54 57  1  0
 57 58  1  0
 57 59  1  0
 57 60  1  0
 60 61  1  0
 60 62  1  0
 60 63  1  0
 63 64  1  0
 63 65  1  0
 63 66  1  0
 36 22  1  0
 53 41  1  0
 53 44  1  0
M  CHG  1  11  -1
M  END
>  <UniqueID>  (6) 
1

>  <SMILES>  (6) 
CCCC[C@H](/C(O)=N/[C@H](CC1CCCCC1)C(=O)C(=O)[N-]CC)c1nnc2ccccn12

>  <Energy>  (6) 
90.49375174549255

>  <Genealogy>  (6) 
CCCCC(C(=O)NC(CC1CCCCC1)C(=O)C(=O)[N-]CC)c1nnc2ccccn12 (protonated)
CCCCC(C(O)=NC(CC1CCCCC1)C(=O)C(=O)[N-]CC)c1nnc2ccccn12 (tautomer)
CCCC[C@H](C(O)=N[C@H](CC1CCCCC1)C(=O)C(=O)[N-]CC)c1nnc2ccccn12 (chirality)
CCCC[C@H](/C(O)=N/[C@H](CC1CCCCC1)C(=O)C(=O)[N-]CC)c1nnc2ccccn12 (cis-trans isomerization)
CCCC[C@H](/C(O)=N/[C@H](CC1CCCCC1)C(=O)C(=O)[N-]CC)c1nnc2ccccn12 (3D coordinates assigned)
CCCC[C@H](/C(O)=N/[C@H](CC1CCCCC1)C(=O)C(=O)[N-]CC)c1nnc2ccccn12 (nonaromatic ring conformer: 90.49375174549255 kcal/mol)

>  <smiles>  (6) 
CCCCC(C(=O)NC(CC1CCCCC1)C(=O)C(=O)NCC)c1nnc2ccccn12

>  <score_type>  (6) 
oracle

>  <origin>  (6) 
autodockgpu

>  <m_score__min__energy>  (6) 
-6.2599999999999998

>  <m_primary>  (6) 
energy

>  <meeko>  (6) 
{"free_energy": -5.66, "intermolecular_energy": -9.83, "internal_energy": -3.18, "cluster_size": 1, "cluster_id": 6, "rank_in_cluster": 1}

>  <energy>  (6) 
-5.79

>  <cluster_rmsd>  (6) 
1.61

>  <rmsd>  (6) 
269.89

>  <cluster>  (6) 
3

$$$$
NNKZOUMTYASKLJ-WHFSYHSSNA-M
     RDKit          3D

 66 68  0  0  0  0  0  0  0  0999 V2000
  139.5200   74.6250  222.7200 H   0  0  0  0  0  0  0  0  0  0  0  0
  140.3120   74.1500  222.3090 O   0  0  0  0  0  0  0  0  0  0  0  0
  140.9710   74.5990  221.1590 C   0  0  0  0  0  0  0  0  0  0  0  0
  141.9180   73.9030  220.5960 N   0  0  0  0  0  0  0  0  0  0  0  0
  143.3570   74.0350  220.8360 C   0  0  1  0  0  0  0  0  0  0  0  0
  143.5315   74.1860  221.9115 H   0  0  0  0  0  0  0  0  0  0  0  0
  144.0960   72.7680  220.4640 C   0  0  0  0  0  0  0  0  0  0  0  0
  143.4860   71.6630  220.4550 O   0  0  0  0  0  0  0  0  0  0  0  0
  145.5240   72.7980  220.1050 C   0  0  0  0  0  0  0  0  0  0  0  0
  146.3700   73.2820  220.9060 O   0  0  0  0  0  0  0  0  0  0  0  0
  145.9450   72.2820  218.8390 N   0  0  0  0  0  0  0  0  0  0  0  0
  145.4060   71.0620  218.2450 C   0  0  0  0  0  0  0  0  0  0  0  0
  144.3112   71.0608  218.3520 H   0  0  0  0  0  0  0  0  0  0  0  0
  145.6840   71.0323  217.1811 H   0  0  0  0  0  0  0  0  0  0  0  0
  145.9790   69.8300  218.9380 C   0  0  0  0  0  0  0  0  0  0  0  0
  145.9180   69.9611  220.0285 H   0  0  0  0  0  0  0  0  0  0  0  0
  145.4017   68.9414  218.6427 H   0  0  0  0  0  0  0  0  0  0  0  0
  147.0305   69.6990  218.6427 H   0  0  0  0  0  0  0  0  0  0  0  0
  143.8960   75.2740  220.0860 C   0  0  0  0  0  0  0  0  0  0  0  0
  143.8629   76.1293  220.7770 H   0  0  0  0  0  0  0  0  0  0  0  0
  144.9114   75.0091  219.7563 H   0  0  0  0  0  0  0  0  0  0  0  0
  143.1190   75.6680  218.7990 C   0  0  0  0  0  0  0  0  0  0  0  0
  142.1178   75.2168  218.8623 H   0  0  0  0  0  0  0  0  0  0  0  0
  143.7890   75.1050  217.5120 C   0  0  0  0  0  0  0  0  0  0  0  0
  144.8685   75.0059  217.6985 H   0  0  0  0  0  0  0  0  0  0  0  0
  143.3072   74.1397  217.2973 H   0  0  0  0  0  0  0  0  0  0  0  0
  143.5910   75.9910  216.2660 C   0  0  0  0  0  0  0  0  0  0  0  0
  144.3910   76.7452  216.2318 H   0  0  0  0  0  0  0  0  0  0  0  0
  143.6239   75.3481  215.3741 H   0  0  0  0  0  0  0  0  0  0  0  0
  142.2370   76.7020  216.2990 C   0  0  0  0  0  0  0  0  0  0  0  0
  142.1226   77.2945  215.3793 H   0  0  0  0  0  0  0  0  0  0  0  0
  141.4494   75.9379  216.3752 H   0  0  0  0  0  0  0  0  0  0  0  0
  142.1170   77.6400  217.5160 C   0  0  0  0  0  0  0  0  0  0  0  0
  142.4297   78.6493  217.2102 H   0  0  0  0  0  0  0  0  0  0  0  0
  141.0679   77.6110  217.8455 H   0  0  0  0  0  0  0  0  0  0  0  0
  142.9820   77.2030  218.7150 C   0  0  0  0  0  0  0  0  0  0  0  0
  143.9842   77.6439  218.6095 H   0  0  0  0  0  0  0  0  0  0  0  0
  142.4893   77.5514  219.6347 H   0  0  0  0  0  0  0  0  0  0  0  0
  140.5800   75.9170  220.5360 C   0  0  2  0  0  0  0  0  0  0  0  0
  141.4882   76.3654  220.1070 H   0  0  0  0  0  0  0  0  0  0  0  0
  140.0350   76.8520  221.5910 C   0  0  0  0  0  0  0  0  0  0  0  0
  138.8530   76.6530  222.2180 N   0  0  0  0  0  0  0  0  0  0  0  0
  138.6910   77.6400  223.0950 N   0  0  0  0  0  0  0  0  0  0  0  0
  139.7800   78.4190  222.9870 C   0  0  0  0  0  0  0  0  0  0  0  0
  140.0530   79.5740  223.7150 C   0  0  0  0  0  0  0  0  0  0  0  0
  139.3505   79.9509  224.4730 H   0  0  0  0  0  0  0  0  0  0  0  0
  141.2610   80.2400  223.4440 C   0  0  0  0  0  0  0  0  0  0  0  0
  141.5167   81.1558  223.9971 H   0  0  0  0  0  0  0  0  0  0  0  0
  142.1460   79.7410  222.4680 C   0  0  0  0  0  0  0  0  0  0  0  0
  143.0903   80.2644  222.2576 H   0  0  0  0  0  0  0  0  0  0  0  0
  141.8150   78.5720  221.7660 C   0  0  0  0  0  0  0  0  0  0  0  0
  142.4875   78.1632  220.9974 H   0  0  0  0  0  0  0  0  0  0  0  0
  140.6390   77.9600  222.0640 N   0  0  0  0  0  0  0  0  0  0  0  0
  139.5910   75.7450  219.3590 C   0  0  0  0  0  0  0  0  0  0  0  0
  139.9301   76.3819  218.5287 H   0  0  0  0  0  0  0  0  0  0  0  0
  138.5983   76.0285  219.7387 H   0  0  0  0  0  0  0  0  0  0  0  0
  139.4670   74.3010  218.8390 C   0  0  0  0  0  0  0  0  0  0  0  0
  138.4118   74.1035  218.5993 H   0  0  0  0  0  0  0  0  0  0  0  0
  139.8389   73.6321  219.6291 H   0  0  0  0  0  0  0  0  0  0  0  0
  140.3110   74.0450  217.5830 C   0  0  0  0  0  0  0  0  0  0  0  0
  140.9982   74.8908  217.4334 H   0  0  0  0  0  0  0  0  0  0  0  0
  139.6340   73.9402  216.7223 H   0  0  0  0  0  0  0  0  0  0  0  0
  141.1240   72.7600  217.7200 C   0  0  0  0  0  0  0  0  0  0  0  0
  141.2695   72.5300  218.7858 H   0  0  0  0  0  0  0  0  0  0  0  0
  140.5851   71.9319  217.2365 H   0  0  0  0  0  0  0  0  0  0  0  0
  142.1031   72.8923  217.2365 H   0  0  0  0  0  0  0  0  0  0  0  0
  1  2  1  0
  2  3  1  0
  3  4  2  0
  4  5  1  0
  5  6  1  1
  5  7  1  0
  7  8  2  0
  7  9  1  0
  9 10  2  0
  9 11  1  0
 11 12  1  0
 12 13  1  0
 12 14  1  0
 12 15  1  0
 15 16  1  0
 15 17  1  0
 15 18  1  0
  5 19  1  0
 19 20  1  0
 19 21  1  0
 19 22  1  0
 22 23  1  0
 22 24  1  0
 24 25  1  0
 24 26  1  0
 24 27  1  0
 27 28  1  0
 27 29  1  0
 27 30  1  0
 30 31  1  0
 30 32  1  0
 30 33  1  0
 33 34  1  0
 33 35  1  0
 33 36  1  0
 36 37  1  0
 36 38  1  0
  3 39  1  0
 39 40  1  6
 39 41  1  0
 41 42  2  0
 42 43  1  0
 43 44  2  0
 44 45  1  0
 45 46  1  0
 45 47  2  0
 47 48  1  0
 47 49  1  0
 49 50  1  0
 49 51  2  0
 51 52  1  0
 51 53  1  0
 39 54  1  0
 54 55  1  0
 54 56  1  0
 54 57  1  0
 57 58  1  0
 57 59  1  0
 57 60  1  0
 60 61  1  0
 60 62  1  0
 60 63  1  0
 63 64  1  0
 63 65  1  0
 63 66  1  0
 36 22  1  0
 53 41  1  0
 53 44  1  0
M  CHG  1  11  -1
M  END
>  <UniqueID>  (7) 
1

>  <SMILES>  (7) 
CCCC[C@H](/C(O)=N/[C@H](CC1CCCCC1)C(=O)C(=O)[N-]CC)c1nnc2ccccn12

>  <Energy>  (7) 
90.49375174549255

>  <Genealogy>  (7) 
CCCCC(C(=O)NC(CC1CCCCC1)C(=O)C(=O)[N-]CC)c1nnc2ccccn12 (protonated)
CCCCC(C(O)=NC(CC1CCCCC1)C(=O)C(=O)[N-]CC)c1nnc2ccccn12 (tautomer)
CCCC[C@H](C(O)=N[C@H](CC1CCCCC1)C(=O)C(=O)[N-]CC)c1nnc2ccccn12 (chirality)
CCCC[C@H](/C(O)=N/[C@H](CC1CCCCC1)C(=O)C(=O)[N-]CC)c1nnc2ccccn12 (cis-trans isomerization)
CCCC[C@H](/C(O)=N/[C@H](CC1CCCCC1)C(=O)C(=O)[N-]CC)c1nnc2ccccn12 (3D coordinates assigned)
CCCC[C@H](/C(O)=N/[C@H](CC1CCCCC1)C(=O)C(=O)[N-]CC)c1nnc2ccccn12 (nonaromatic ring conformer: 90.49375174549255 kcal/mol)

>  <smiles>  (7) 
CCCCC(C(=O)NC(CC1CCCCC1)C(=O)C(=O)NCC)c1nnc2ccccn12

>  <score_type>  (7) 
oracle

>  <origin>  (7) 
autodockgpu

>  <m_score__min__energy>  (7) 
-6.2599999999999998

>  <m_primary>  (7) 
energy

>  <meeko>  (7) 
{"free_energy": -5.5, "intermolecular_energy": -9.68, "internal_energy": -3.46, "cluster_size": 3, "cluster_id": 7, "rank_in_cluster": 1}

>  <energy>  (7) 
-5.86

>  <cluster_rmsd>  (7) 
0.0

>  <rmsd>  (7) 
269.48

>  <cluster>  (7) 
4

$$$$
NNKZOUMTYASKLJ-WHFSYHSSNA-M
     RDKit          3D

 66 68  0  0  0  0  0  0  0  0999 V2000
  138.9010   74.1270  223.0330 H   0  0  0  0  0  0  0  0  0  0  0  0
  139.2560   74.9820  222.6270 O   0  0  0  0  0  0  0  0  0  0  0  0
  140.2350   75.0130  221.6270 C   0  0  0  0  0  0  0  0  0  0  0  0
  140.4800   73.9760  220.8770 N   0  0  0  0  0  0  0  0  0  0  0  0
  141.0140   72.6860  221.3200 C   0  0  1  0  0  0  0  0  0  0  0  0
  141.5290   72.8197  222.2828 H   0  0  0  0  0  0  0  0  0  0  0  0
  139.9050   71.6870  221.5720 C   0  0  0  0  0  0  0  0  0  0  0  0
  139.7410   70.7170  220.7840 O   0  0  0  0  0  0  0  0  0  0  0  0
  139.0080   71.8250  222.7320 C   0  0  0  0  0  0  0  0  0  0  0  0
  137.9260   72.4660  222.6260 O   0  0  0  0  0  0  0  0  0  0  0  0
  139.3750   71.2340  223.9820 N   0  0  0  0  0  0  0  0  0  0  0  0
  140.6410   71.4960  224.6590 C   0  0  0  0  0  0  0  0  0  0  0  0
  141.4312   70.8866  224.1962 H   0  0  0  0  0  0  0  0  0  0  0  0
  140.8795   72.5655  224.5630 H   0  0  0  0  0  0  0  0  0  0  0  0
  140.5410   71.1460  226.1400 C   0  0  0  0  0  0  0  0  0  0  0  0
  140.7936   72.0302  226.7436 H   0  0  0  0  0  0  0  0  0  0  0  0
  139.5150   70.8244  226.3723 H   0  0  0  0  0  0  0  0  0  0  0  0
  141.2422   70.3309  226.3723 H   0  0  0  0  0  0  0  0  0  0  0  0
  142.0470   72.1730  220.2920 C   0  0  0  0  0  0  0  0  0  0  0  0
  141.9401   71.0805  220.2207 H   0  0  0  0  0  0  0  0  0  0  0  0
  141.8271   72.7028  219.3534 H   0  0  0  0  0  0  0  0  0  0  0  0
  143.5330   72.4880  220.6210 C   0  0  0  0  0  0  0  0  0  0  0  0
  143.7828   71.9739  221.5609 H   0  0  0  0  0  0  0  0  0  0  0  0
  143.7740   74.0080  220.8580 C   0  0  0  0  0  0  0  0  0  0  0  0
  143.0315   74.5717  220.2741 H   0  0  0  0  0  0  0  0  0  0  0  0
  143.6799   74.1816  221.9401 H   0  0  0  0  0  0  0  0  0  0  0  0
  145.1800   74.4880  220.4480 C   0  0  0  0  0  0  0  0  0  0  0  0
  145.1698   74.7569  219.3814 H   0  0  0  0  0  0  0  0  0  0  0  0
  145.4435   75.3585  221.0667 H   0  0  0  0  0  0  0  0  0  0  0  0
  146.2290   73.3980  220.6770 C   0  0  0  0  0  0  0  0  0  0  0  0
  147.2190   73.7927  220.4050 H   0  0  0  0  0  0  0  0  0  0  0  0
  146.1988   73.1093  221.7380 H   0  0  0  0  0  0  0  0  0  0  0  0
  145.9400   72.1440  219.8280 C   0  0  0  0  0  0  0  0  0  0  0  0
  146.5012   72.2244  218.8854 H   0  0  0  0  0  0  0  0  0  0  0  0
  146.2482   71.2715  220.4229 H   0  0  0  0  0  0  0  0  0  0  0  0
  144.4460   71.9610  219.4930 C   0  0  0  0  0  0  0  0  0  0  0  0
  144.2196   72.5098  218.5669 H   0  0  0  0  0  0  0  0  0  0  0  0
  144.2532   70.8846  219.3740 H   0  0  0  0  0  0  0  0  0  0  0  0
  141.0300   76.2740  221.3930 C   0  0  2  0  0  0  0  0  0  0  0  0
  142.0314   76.1213  221.8219 H   0  0  0  0  0  0  0  0  0  0  0  0
  140.3790   77.4410  222.0990 C   0  0  0  0  0  0  0  0  0  0  0  0
  139.0650   77.4730  222.4210 N   0  0  0  0  0  0  0  0  0  0  0  0
  138.8330   78.6220  223.0480 N   0  0  0  0  0  0  0  0  0  0  0  0
  140.0110   79.2660  223.0980 C   0  0  0  0  0  0  0  0  0  0  0  0
  140.2550   80.5130  223.6690 C   0  0  0  0  0  0  0  0  0  0  0  0
  139.4487   81.0911  224.1440 H   0  0  0  0  0  0  0  0  0  0  0  0
  141.5700   81.0040  223.6150 C   0  0  0  0  0  0  0  0  0  0  0  0
  141.8063   81.9838  224.0556 H   0  0  0  0  0  0  0  0  0  0  0  0
  142.5880   80.2490  223.0000 C   0  0  0  0  0  0  0  0  0  0  0  0
  143.6166   80.6365  222.9579 H   0  0  0  0  0  0  0  0  0  0  0  0
  142.2800   78.9980  222.4410 C   0  0  0  0  0  0  0  0  0  0  0  0
  143.0554   78.3894  221.9529 H   0  0  0  0  0  0  0  0  0  0  0  0
  140.9960   78.5620  222.5210 N   0  0  0  0  0  0  0  0  0  0  0  0
  141.2480   76.5650  219.8890 C   0  0  0  0  0  0  0  0  0  0  0  0
  140.6407   77.4407  219.6163 H   0  0  0  0  0  0  0  0  0  0  0  0
  140.9540   75.6541  219.3469 H   0  0  0  0  0  0  0  0  0  0  0  0
  142.7110   76.8540  219.5030 C   0  0  0  0  0  0  0  0  0  0  0  0
  143.1983   75.9042  219.2375 H   0  0  0  0  0  0  0  0  0  0  0  0
  143.1927   77.3328  220.3683 H   0  0  0  0  0  0  0  0  0  0  0  0
  142.8350   77.8170  218.3150 C   0  0  0  0  0  0  0  0  0  0  0  0
  142.3252   77.3804  217.4436 H   0  0  0  0  0  0  0  0  0  0  0  0
  143.9026   77.9718  218.1001 H   0  0  0  0  0  0  0  0  0  0  0  0
  142.2030   79.1700  218.6370 C   0  0  0  0  0  0  0  0  0  0  0  0
  142.1438   79.2967  219.7281 H   0  0  0  0  0  0  0  0  0  0  0  0
  142.8188   79.9739  218.2074 H   0  0  0  0  0  0  0  0  0  0  0  0
  141.1913   79.2137  218.2074 H   0  0  0  0  0  0  0  0  0  0  0  0
  1  2  1  0
  2  3  1  0
  3  4  2  0
  4  5  1  0
  5  6  1  1
  5  7  1  0
  7  8  2  0
  7  9  1  0
  9 10  2  0
  9 11  1  0
 11 12  1  0
 12 13  1  0
 12 14  1  0
 12 15  1  0
 15 16  1  0
 15 17  1  0
 15 18  1  0
  5 19  1  0
 19 20  1  0
 19 21  1  0
 19 22  1  0
 22 23  1  0
 22 24  1  0
 24 25  1  0
 24 26  1  0
 24 27  1  0
 27 28  1  0
 27 29  1  0
 27 30  1  0
 30 31  1  0
 30 32  1  0
 30 33  1  0
 33 34  1  0
 33 35  1  0
 33 36  1  0
 36 37  1  0
 36 38  1  0
  3 39  1  0
 39 40  1  1
 39 41  1  0
 41 42  2  0
 42 43  1  0
 43 44  2  0
 44 45  1  0
 45 46  1  0
 45 47  2  0
 47 48  1  0
 47 49  1  0
 49 50  1  0
 49 51  2  0
 51 52  1  0
 51 53  1  0
 39 54  1  0
 54 55  1  0
 54 56  1  0
 54 57  1  0
 57 58  1  0
 57 59  1  0
 57 60  1  0
 60 61  1  0
 60 62  1  0
 60 63  1  0
 63 64  1  0
 63 65  1  0
 63 66  1  0
 36 22  1  0
 53 41  1  0
 53 44  1  0
M  CHG  1  11  -1
M  END
>  <UniqueID>  (8) 
1

>  <SMILES>  (8) 
CCCC[C@H](/C(O)=N/[C@H](CC1CCCCC1)C(=O)C(=O)[N-]CC)c1nnc2ccccn12

>  <Energy>  (8) 
90.49375174549255

>  <Genealogy>  (8) 
CCCCC(C(=O)NC(CC1CCCCC1)C(=O)C(=O)[N-]CC)c1nnc2ccccn12 (protonated)
CCCCC(C(O)=NC(CC1CCCCC1)C(=O)C(=O)[N-]CC)c1nnc2ccccn12 (tautomer)
CCCC[C@H](C(O)=N[C@H](CC1CCCCC1)C(=O)C(=O)[N-]CC)c1nnc2ccccn12 (chirality)
CCCC[C@H](/C(O)=N/[C@H](CC1CCCCC1)C(=O)C(=O)[N-]CC)c1nnc2ccccn12 (cis-trans isomerization)
CCCC[C@H](/C(O)=N/[C@H](CC1CCCCC1)C(=O)C(=O)[N-]CC)c1nnc2ccccn12 (3D coordinates assigned)
CCCC[C@H](/C(O)=N/[C@H](CC1CCCCC1)C(=O)C(=O)[N-]CC)c1nnc2ccccn12 (nonaromatic ring conformer: 90.49375174549255 kcal/mol)

>  <smiles>  (8) 
CCCCC(C(=O)NC(CC1CCCCC1)C(=O)C(=O)NCC)c1nnc2ccccn12

>  <score_type>  (8) 
oracle

>  <origin>  (8) 
autodockgpu

>  <m_score__min__energy>  (8) 
-6.2599999999999998

>  <m_primary>  (8) 
energy

>  <meeko>  (8) 
{"free_energy": -5.95, "intermolecular_energy": -10.12, "internal_energy": -2.59, "cluster_size": 3, "cluster_id": 3, "rank_in_cluster": 1}

>  <energy>  (8) 
-5.81

>  <cluster_rmsd>  (8) 
0.0

>  <rmsd>  (8) 
269.91

>  <cluster>  (8) 
5

$$$$
NNKZOUMTYASKLJ-WHFSYHSSNA-M
     RDKit          3D

 66 68  0  0  0  0  0  0  0  0999 V2000
  139.8100   70.4430  220.5840 H   0  0  0  0  0  0  0  0  0  0  0  0
  140.7580   70.7820  220.6820 O   0  0  0  0  0  0  0  0  0  0  0  0
  141.1470   71.7180  221.6480 C   0  0  0  0  0  0  0  0  0  0  0  0
  140.8840   71.5450  222.9130 N   0  0  0  0  0  0  0  0  0  0  0  0
  139.6410   71.0160  223.4810 C   0  0  1  0  0  0  0  0  0  0  0  0
  139.1420   71.8083  224.0583 H   0  0  0  0  0  0  0  0  0  0  0  0
  138.6670   70.6110  222.3960 C   0  0  0  0  0  0  0  0  0  0  0  0
  138.1120   71.4950  221.6870 O   0  0  0  0  0  0  0  0  0  0  0  0
  138.3540   69.1940  222.1460 C   0  0  0  0  0  0  0  0  0  0  0  0
  139.0240   68.5330  221.3070 O   0  0  0  0  0  0  0  0  0  0  0  0
  137.2770   68.5740  222.8560 N   0  0  0  0  0  0  0  0  0  0  0  0
  136.2400   69.3200  223.5620 C   0  0  0  0  0  0  0  0  0  0  0  0
  136.0907   70.2900  223.0653 H   0  0  0  0  0  0  0  0  0  0  0  0
  135.3080   68.7360  223.5438 H   0  0  0  0  0  0  0  0  0  0  0  0
  136.6440   69.5570  225.0140 C   0  0  0  0  0  0  0  0  0  0  0  0
  135.8898   69.1145  225.6813 H   0  0  0  0  0  0  0  0  0  0  0  0
  137.6212   69.0890  225.2038 H   0  0  0  0  0  0  0  0  0  0  0  0
  136.7123   70.6384  225.2038 H   0  0  0  0  0  0  0  0  0  0  0  0
  139.9660   69.8540  224.4460 C   0  0  0  0  0  0  0  0  0  0  0  0
  139.0262   69.3294  224.6733 H   0  0  0  0  0  0  0  0  0  0  0  0
  140.7084   69.2296  223.9273 H   0  0  0  0  0  0  0  0  0  0  0  0
  140.6220   70.2660  225.7930 C   0  0  0  0  0  0  0  0  0  0  0  0
  141.6412   69.8526  225.8084 H   0  0  0  0  0  0  0  0  0  0  0  0
  139.8730   69.6680  227.0190 C   0  0  0  0  0  0  0  0  0  0  0  0
  138.8162   69.5309  226.7462 H   0  0  0  0  0  0  0  0  0  0  0  0
  140.3716   68.7192  227.2663 H   0  0  0  0  0  0  0  0  0  0  0  0
  139.9380   70.5500  228.2810 C   0  0  0  0  0  0  0  0  0  0  0  0
  139.1102   71.2739  228.2550 H   0  0  0  0  0  0  0  0  0  0  0  0
  139.8584   69.8986  229.1638 H   0  0  0  0  0  0  0  0  0  0  0  0
  141.2630   71.3110  228.3610 C   0  0  0  0  0  0  0  0  0  0  0  0
  141.2811   71.8996  229.2901 H   0  0  0  0  0  0  0  0  0  0  0  0
  142.0826   70.5775  228.3446 H   0  0  0  0  0  0  0  0  0  0  0  0
  141.4440   72.2630  227.1620 C   0  0  0  0  0  0  0  0  0  0  0  0
  141.0696   73.2573  227.4470 H   0  0  0  0  0  0  0  0  0  0  0  0
  142.5164   72.2759  226.9176 H   0  0  0  0  0  0  0  0  0  0  0  0
  140.6950   71.8040  225.8950 C   0  0  0  0  0  0  0  0  0  0  0  0
  139.6719   72.2073  225.9213 H   0  0  0  0  0  0  0  0  0  0  0  0
  141.2469   72.1771  225.0197 H   0  0  0  0  0  0  0  0  0  0  0  0
  141.8970   72.9590  221.2320 C   0  0  2  0  0  0  0  0  0  0  0  0
  142.8229   73.0035  221.8242 H   0  0  0  0  0  0  0  0  0  0  0  0
  141.0760   74.1910  221.5330 C   0  0  0  0  0  0  0  0  0  0  0  0
  139.9870   74.1790  222.3370 N   0  0  0  0  0  0  0  0  0  0  0  0
  139.5220   75.4230  222.4040 N   0  0  0  0  0  0  0  0  0  0  0  0
  140.3380   76.1690  221.6410 C   0  0  0  0  0  0  0  0  0  0  0  0
  140.2430   77.5400  221.4130 C   0  0  0  0  0  0  0  0  0  0  0  0
  139.4420   78.1406  221.8688 H   0  0  0  0  0  0  0  0  0  0  0  0
  141.2090   78.1260  220.5790 C   0  0  0  0  0  0  0  0  0  0  0  0
  141.1708   79.2060  220.3739 H   0  0  0  0  0  0  0  0  0  0  0  0
  142.2270   77.3400  220.0030 C   0  0  0  0  0  0  0  0  0  0  0  0
  142.9817   77.8021  219.3496 H   0  0  0  0  0  0  0  0  0  0  0  0
  142.2700   75.9620  220.2700 C   0  0  0  0  0  0  0  0  0  0  0  0
  143.0526   75.3246  219.8326 H   0  0  0  0  0  0  0  0  0  0  0  0
  141.3160   75.4390  221.0850 N   0  0  0  0  0  0  0  0  0  0  0  0
  142.3390   72.9140  219.7500 C   0  0  0  0  0  0  0  0  0  0  0  0
  141.9387   73.8050  219.2441 H   0  0  0  0  0  0  0  0  0  0  0  0
  141.9485   71.9736  219.3338 H   0  0  0  0  0  0  0  0  0  0  0  0
  143.8650   72.8870  219.5430 C   0  0  0  0  0  0  0  0  0  0  0  0
  144.0856   73.2079  218.5142 H   0  0  0  0  0  0  0  0  0  0  0  0
  144.2061   71.8585  219.7325 H   0  0  0  0  0  0  0  0  0  0  0  0
  144.6150   73.8080  220.5150 C   0  0  0  0  0  0  0  0  0  0  0  0
  143.9765   74.0046  221.3889 H   0  0  0  0  0  0  0  0  0  0  0  0
  144.8550   74.7461  219.9932 H   0  0  0  0  0  0  0  0  0  0  0  0
  145.9190   73.1660  220.9840 C   0  0  0  0  0  0  0  0  0  0  0  0
  145.9463   73.1525  222.0836 H   0  0  0  0  0  0  0  0  0  0  0  0
  145.9782   72.1358  220.6031 H   0  0  0  0  0  0  0  0  0  0  0  0
  146.7716   73.7473  220.6031 H   0  0  0  0  0  0  0  0  0  0  0  0
  1  2  1  0
  2  3  1  0
  3  4  2  0
  4  5  1  0
  5  6  1  1
  5  7  1  0
  7  8  2  0
  7  9  1  0
  9 10  2  0
  9 11  1  0
 11 12  1  0
 12 13  1  0
 12 14  1  0
 12 15  1  0
 15 16  1  0
 15 17  1  0
 15 18  1  0
  5 19  1  0
 19 20  1  0
 19 21  1  0
 19 22  1  0
 22 23  1  0
 22 24  1  0
 24 25  1  0
 24 26  1  0
 24 27  1  0
 27 28  1  0
 27 29  1  0
 27 30  1  0
 30 31  1  0
 30 32  1  0
 30 33  1  0
 33 34  1  0
 33 35  1  0
 33 36  1  0
 36 37  1  0
 36 38  1  0
  3 39  1  0
 39 40  1  1
 39 41  1  0
 41 42  2  0
 42 43  1  0
 43 44  2  0
 44 45  1  0
 45 46  1  0
 45 47  2  0
 47 48  1  0
 47 49  1  0
 49 50  1  0
 49 51  2  0
 51 52  1  0
 51 53  1  0
 39 54  1  0
 54 55  1  0
 54 56  1  0
 54 57  1  0
 57 58  1  0
 57 59  1  0
 57 60  1  0
 60 61  1  0
 60 62  1  0
 60 63  1  0
 63 64  1  0
 63 65  1  0
 63 66  1  0
 36 22  1  0
 53 41  1  0
 53 44  1  0
M  CHG  1  11  -1
M  END
>  <UniqueID>  (9) 
1

>  <SMILES>  (9) 
CCCC[C@H](/C(O)=N/[C@H](CC1CCCCC1)C(=O)C(=O)[N-]CC)c1nnc2ccccn12

>  <Energy>  (9) 
90.49375174549255

>  <Genealogy>  (9) 
CCCCC(C(=O)NC(CC1CCCCC1)C(=O)C(=O)[N-]CC)c1nnc2ccccn12 (protonated)
CCCCC(C(O)=NC(CC1CCCCC1)C(=O)C(=O)[N-]CC)c1nnc2ccccn12 (tautomer)
CCCC[C@H](C(O)=N[C@H](CC1CCCCC1)C(=O)C(=O)[N-]CC)c1nnc2ccccn12 (chirality)
CCCC[C@H](/C(O)=N/[C@H](CC1CCCCC1)C(=O)C(=O)[N-]CC)c1nnc2ccccn12 (cis-trans isomerization)
CCCC[C@H](/C(O)=N/[C@H](CC1CCCCC1)C(=O)C(=O)[N-]CC)c1nnc2ccccn12 (3D coordinates assigned)
CCCC[C@H](/C(O)=N/[C@H](CC1CCCCC1)C(=O)C(=O)[N-]CC)c1nnc2ccccn12 (nonaromatic ring conformer: 90.49375174549255 kcal/mol)

>  <smiles>  (9) 
CCCCC(C(=O)NC(CC1CCCCC1)C(=O)C(=O)NCC)c1nnc2ccccn12

>  <score_type>  (9) 
oracle

>  <origin>  (9) 
autodockgpu

>  <m_score__min__energy>  (9) 
-6.2599999999999998

>  <m_primary>  (9) 
energy

>  <meeko>  (9) 
{"free_energy": -5.86, "intermolecular_energy": -10.03, "internal_energy": -2.88, "cluster_size": 1, "cluster_id": 4, "rank_in_cluster": 1}

>  <energy>  (9) 
-5.42

>  <cluster_rmsd>  (9) 
1.28

>  <rmsd>  (9) 
269.88

>  <cluster>  (9) 
5

$$$$
NNKZOUMTYASKLJ-WHFSYHSSNA-M
     RDKit          3D

 66 68  0  0  0  0  0  0  0  0999 V2000
  138.0360   74.6230  221.3170 H   0  0  0  0  0  0  0  0  0  0  0  0
  138.8950   74.1940  220.9990 O   0  0  0  0  0  0  0  0  0  0  0  0
  140.0820   74.1990  221.7420 C   0  0  0  0  0  0  0  0  0  0  0  0
  140.5160   73.1280  222.3450 N   0  0  0  0  0  0  0  0  0  0  0  0
  139.7450   72.2560  223.2350 C   0  0  1  0  0  0  0  0  0  0  0  0
  139.2162   72.8722  223.9770 H   0  0  0  0  0  0  0  0  0  0  0  0
  138.6740   71.5030  222.4770 C   0  0  0  0  0  0  0  0  0  0  0  0
  138.9920   70.5330  221.7350 O   0  0  0  0  0  0  0  0  0  0  0  0
  137.2550   71.8800  222.5910 C   0  0  0  0  0  0  0  0  0  0  0  0
  136.8590   72.9990  222.1650 O   0  0  0  0  0  0  0  0  0  0  0  0
  136.3300   70.9700  223.1950 N   0  0  0  0  0  0  0  0  0  0  0  0
  136.6490   69.5800  223.5030 C   0  0  0  0  0  0  0  0  0  0  0  0
  135.7400   68.9691  223.4002 H   0  0  0  0  0  0  0  0  0  0  0  0
  137.4233   69.2306  222.8042 H   0  0  0  0  0  0  0  0  0  0  0  0
  137.1790   69.4540  224.9270 C   0  0  0  0  0  0  0  0  0  0  0  0
  136.3641   69.6477  225.6400 H   0  0  0  0  0  0  0  0  0  0  0  0
  137.5699   68.4379  225.0842 H   0  0  0  0  0  0  0  0  0  0  0  0
  137.9854   70.1855  225.0842 H   0  0  0  0  0  0  0  0  0  0  0  0
  140.7060   71.3130  223.9940 C   0  0  0  0  0  0  0  0  0  0  0  0
  140.8149   70.3923  223.4021 H   0  0  0  0  0  0  0  0  0  0  0  0
  141.6439   71.8742  224.1182 H   0  0  0  0  0  0  0  0  0  0  0  0
  140.2570   70.9110  225.4260 C   0  0  0  0  0  0  0  0  0  0  0  0
  139.1593   70.9726  225.4613 H   0  0  0  0  0  0  0  0  0  0  0  0
  140.8000   71.8880  226.5090 C   0  0  0  0  0  0  0  0  0  0  0  0
  141.7455   72.3170  226.1455 H   0  0  0  0  0  0  0  0  0  0  0  0
  140.0236   72.6507  226.6687 H   0  0  0  0  0  0  0  0  0  0  0  0
  141.0620   71.2240  227.8750 C   0  0  0  0  0  0  0  0  0  0  0  0
  142.0810   70.8097  227.8824 H   0  0  0  0  0  0  0  0  0  0  0  0
  140.9460   71.9864  228.6594 H   0  0  0  0  0  0  0  0  0  0  0  0
  140.0640   70.0970  228.1460 C   0  0  0  0  0  0  0  0  0  0  0  0
  140.2653   69.6741  229.1413 H   0  0  0  0  0  0  0  0  0  0  0  0
  139.0489   70.5178  228.0948 H   0  0  0  0  0  0  0  0  0  0  0  0
  140.1730   68.9750  227.0950 C   0  0  0  0  0  0  0  0  0  0  0  0
  140.8596   68.2052  227.4772 H   0  0  0  0  0  0  0  0  0  0  0  0
  139.1578   68.5840  226.9319 H   0  0  0  0  0  0  0  0  0  0  0  0
  140.6970   69.4620  225.7290 C   0  0  0  0  0  0  0  0  0  0  0  0
  141.7961   69.4178  225.7336 H   0  0  0  0  0  0  0  0  0  0  0  0
  140.2768   68.8085  224.9503 H   0  0  0  0  0  0  0  0  0  0  0  0
  140.8950   75.4650  221.8500 C   0  0  2  0  0  0  0  0  0  0  0  0
  141.6432   75.3139  222.6421 H   0  0  0  0  0  0  0  0  0  0  0  0
  140.0070   76.6240  222.2420 C   0  0  0  0  0  0  0  0  0  0  0  0
  138.6560   76.5750  222.1870 N   0  0  0  0  0  0  0  0  0  0  0  0
  138.1920   77.7440  222.6190 N   0  0  0  0  0  0  0  0  0  0  0  0
  139.2710   78.4810  222.9330 C   0  0  0  0  0  0  0  0  0  0  0  0
  139.2740   79.7800  223.4340 C   0  0  0  0  0  0  0  0  0  0  0  0
  138.3355   80.3243  223.6154 H   0  0  0  0  0  0  0  0  0  0  0  0
  140.5220   80.3690  223.6990 C   0  0  0  0  0  0  0  0  0  0  0  0
  140.5696   81.3937  224.0962 H   0  0  0  0  0  0  0  0  0  0  0  0
  141.7130   79.6550  223.4590 C   0  0  0  0  0  0  0  0  0  0  0  0
  142.6886   80.1185  223.6674 H   0  0  0  0  0  0  0  0  0  0  0  0
  141.6450   78.3480  222.9520 C   0  0  0  0  0  0  0  0  0  0  0  0
  142.5593   77.7696  222.7531 H   0  0  0  0  0  0  0  0  0  0  0  0
  140.4160   77.8180  222.7140 N   0  0  0  0  0  0  0  0  0  0  0  0
  141.6930   75.7680  220.5600 C   0  0  0  0  0  0  0  0  0  0  0  0
  141.8195   74.8269  220.0046 H   0  0  0  0  0  0  0  0  0  0  0  0
  142.6488   76.2097  220.8785 H   0  0  0  0  0  0  0  0  0  0  0  0
  141.0250   76.7930  219.6250 C   0  0  0  0  0  0  0  0  0  0  0  0
  140.0011   76.9787  219.9815 H   0  0  0  0  0  0  0  0  0  0  0  0
  141.0333   76.3697  218.6098 H   0  0  0  0  0  0  0  0  0  0  0  0
  141.7770   78.1310  219.5740 C   0  0  0  0  0  0  0  0  0  0  0  0
  142.5167   78.1588  220.3877 H   0  0  0  0  0  0  0  0  0  0  0  0
  141.0478   78.9467  219.6871 H   0  0  0  0  0  0  0  0  0  0  0  0
  142.4970   78.3050  218.2390 C   0  0  0  0  0  0  0  0  0  0  0  0
  143.5514   78.5598  218.4215 H   0  0  0  0  0  0  0  0  0  0  0  0
  142.4402   77.3673  217.6668 H   0  0  0  0  0  0  0  0  0  0  0  0
  142.0182   79.1133  217.6668 H   0  0  0  0  0  0  0  0  0  0  0  0
  1  2  1  0
  2  3  1  0
  3  4  2  0
  4  5  1  0
  5  6  1  1
  5  7  1  0
  7  8  2  0
  7  9  1  0
  9 10  2  0
  9 11  1  0
 11 12  1  0
 12 13  1  0
 12 14  1  0
 12 15  1  0
 15 16  1  0
 15 17  1  0
 15 18  1  0
  5 19  1  0
 19 20  1  0
 19 21  1  0
 19 22  1  0
 22 23  1  0
 22 24  1  0
 24 25  1  0
 24 26  1  0
 24 27  1  0
 27 28  1  0
 27 29  1  0
 27 30  1  0
 30 31  1  0
 30 32  1  0
 30 33  1  0
 33 34  1  0
 33 35  1  0
 33 36  1  0
 36 37  1  0
 36 38  1  0
  3 39  1  0
 39 40  1  1
 39 41  1  0
 41 42  2  0
 42 43  1  0
 43 44  2  0
 44 45  1  0
 45 46  1  0
 45 47  2  0
 47 48  1  0
 47 49  1  0
 49 50  1  0
 49 51  2  0
 51 52  1  0
 51 53  1  0
 39 54  1  0
 54 55  1  0
 54 56  1  0
 54 57  1  0
 57 58  1  0
 57 59  1  0
 57 60  1  0
 60 61  1  0
 60 62  1  0
 60 63  1  0
 63 64  1  0
 63 65  1  0
 63 66  1  0
 36 22  1  0
 53 41  1  0
 53 44  1  0
M  CHG  1  11  -1
M  END
>  <UniqueID>  (10) 
1

>  <SMILES>  (10) 
CCCC[C@H](/C(O)=N/[C@H](CC1CCCCC1)C(=O)C(=O)[N-]CC)c1nnc2ccccn12

>  <Energy>  (10) 
90.49375174549255

>  <Genealogy>  (10) 
CCCCC(C(=O)NC(CC1CCCCC1)C(=O)C(=O)[N-]CC)c1nnc2ccccn12 (protonated)
CCCCC(C(O)=NC(CC1CCCCC1)C(=O)C(=O)[N-]CC)c1nnc2ccccn12 (tautomer)
CCCC[C@H](C(O)=N[C@H](CC1CCCCC1)C(=O)C(=O)[N-]CC)c1nnc2ccccn12 (chirality)
CCCC[C@H](/C(O)=N/[C@H](CC1CCCCC1)C(=O)C(=O)[N-]CC)c1nnc2ccccn12 (cis-trans isomerization)
CCCC[C@H](/C(O)=N/[C@H](CC1CCCCC1)C(=O)C(=O)[N-]CC)c1nnc2ccccn12 (3D coordinates assigned)
CCCC[C@H](/C(O)=N/[C@H](CC1CCCCC1)C(=O)C(=O)[N-]CC)c1nnc2ccccn12 (nonaromatic ring conformer: 90.49375174549255 kcal/mol)

>  <smiles>  (10) 
CCCCC(C(=O)NC(CC1CCCCC1)C(=O)C(=O)NCC)c1nnc2ccccn12

>  <score_type>  (10) 
oracle

>  <origin>  (10) 
autodockgpu

>  <m_score__min__energy>  (10) 
-6.2599999999999998

>  <m_primary>  (10) 
energy

>  <meeko>  (10) 
{"free_energy": -5.79, "intermolecular_energy": -9.97, "internal_energy": -2.98, "cluster_size": 3, "cluster_id": 3, "rank_in_cluster": 3}

>  <energy>  (10) 
-5.66

>  <cluster_rmsd>  (10) 
0.0

>  <rmsd>  (10) 
269.79

>  <cluster>  (10) 
6

$$$$
NNKZOUMTYASKLJ-WHFSYHSSNA-M
     RDKit          3D

 66 68  0  0  0  0  0  0  0  0999 V2000
  139.9430   75.1290  222.9690 H   0  0  0  0  0  0  0  0  0  0  0  0
  140.2430   74.5390  222.2040 O   0  0  0  0  0  0  0  0  0  0  0  0
  140.9250   75.0200  221.0800 C   0  0  0  0  0  0  0  0  0  0  0  0
  141.6660   74.2410  220.3440 N   0  0  0  0  0  0  0  0  0  0  0  0
  143.0640   74.4660  219.9690 C   0  0  1  0  0  0  0  0  0  0  0  0
  143.4211   75.3911  220.4451 H   0  0  0  0  0  0  0  0  0  0  0  0
  143.9580   73.3580  220.4820 C   0  0  0  0  0  0  0  0  0  0  0  0
  143.4600   72.3960  221.1280 O   0  0  0  0  0  0  0  0  0  0  0  0
  145.4110   73.3790  220.2390 C   0  0  0  0  0  0  0  0  0  0  0  0
  146.1620   74.1090  220.9400 O   0  0  0  0  0  0  0  0  0  0  0  0
  145.9620   72.5690  219.1950 N   0  0  0  0  0  0  0  0  0  0  0  0
  145.2030   72.1250  218.0310 C   0  0  0  0  0  0  0  0  0  0  0  0
  145.4792   71.0871  217.7935 H   0  0  0  0  0  0  0  0  0  0  0  0
  144.1294   72.1893  218.2616 H   0  0  0  0  0  0  0  0  0  0  0  0
  145.5020   73.0120  216.8260 C   0  0  0  0  0  0  0  0  0  0  0  0
  145.8355   74.0013  217.1727 H   0  0  0  0  0  0  0  0  0  0  0  0
  146.2941   72.5502  216.2183 H   0  0  0  0  0  0  0  0  0  0  0  0
  144.5919   73.1240  216.2183 H   0  0  0  0  0  0  0  0  0  0  0  0
  143.1670   74.6460  218.4380 C   0  0  0  0  0  0  0  0  0  0  0  0
  144.2315   74.6075  218.1633 H   0  0  0  0  0  0  0  0  0  0  0  0
  142.5655   73.8369  217.9981 H   0  0  0  0  0  0  0  0  0  0  0  0
  142.5760   75.9690  217.8780 C   0  0  0  0  0  0  0  0  0  0  0  0
  141.4967   75.9685  218.0904 H   0  0  0  0  0  0  0  0  0  0  0  0
  142.7340   76.0770  216.3330 C   0  0  0  0  0  0  0  0  0  0  0  0
  143.6244   75.5040  216.0350 H   0  0  0  0  0  0  0  0  0  0  0  0
  141.8088   75.6809  215.8890 H   0  0  0  0  0  0  0  0  0  0  0  0
  142.8930   77.5220  215.8210 C   0  0  0  0  0  0  0  0  0  0  0  0
  143.9578   77.7966  215.8486 H   0  0  0  0  0  0  0  0  0  0  0  0
  142.5046   77.5703  214.7930 H   0  0  0  0  0  0  0  0  0  0  0  0
  142.1020   78.5080  216.6820 C   0  0  0  0  0  0  0  0  0  0  0  0
  142.2154   79.5187  216.2628 H   0  0  0  0  0  0  0  0  0  0  0  0
  141.0467   78.1975  216.6791 H   0  0  0  0  0  0  0  0  0  0  0  0
  142.5990   78.5130  218.1410 C   0  0  0  0  0  0  0  0  0  0  0  0
  143.3503   79.3090  218.2503 H   0  0  0  0  0  0  0  0  0  0  0  0
  141.7204   78.6782  218.7819 H   0  0  0  0  0  0  0  0  0  0  0  0
  143.2350   77.1780  218.5780 C   0  0  0  0  0  0  0  0  0  0  0  0
  144.3055   77.1948  218.3257 H   0  0  0  0  0  0  0  0  0  0  0  0
  143.0845   77.0677  219.6621 H   0  0  0  0  0  0  0  0  0  0  0  0
  140.8030   76.4730  220.6920 C   0  0  2  0  0  0  0  0  0  0  0  0
  141.4796   76.6488  219.8427 H   0  0  0  0  0  0  0  0  0  0  0  0
  141.2320   77.3580  221.8400 C   0  0  0  0  0  0  0  0  0  0  0  0
  141.4260   76.8990  223.0980 N   0  0  0  0  0  0  0  0  0  0  0  0
  141.8180   77.9260  223.8460 N   0  0  0  0  0  0  0  0  0  0  0  0
  141.8590   78.9910  223.0260 C   0  0  0  0  0  0  0  0  0  0  0  0
  142.2220   80.2910  223.3690 C   0  0  0  0  0  0  0  0  0  0  0  0
  142.5153   80.5499  224.3971 H   0  0  0  0  0  0  0  0  0  0  0  0
  142.1990   81.2590  222.3510 C   0  0  0  0  0  0  0  0  0  0  0  0
  142.4793   82.2981  222.5784 H   0  0  0  0  0  0  0  0  0  0  0  0
  141.8190   80.9070  221.0400 C   0  0  0  0  0  0  0  0  0  0  0  0
  141.8008   81.6671  220.2451 H   0  0  0  0  0  0  0  0  0  0  0  0
  141.4640   79.5790  220.7570 C   0  0  0  0  0  0  0  0  0  0  0  0
  141.1621   79.2777  219.7431 H   0  0  0  0  0  0  0  0  0  0  0  0
  141.5040   78.6760  221.7720 N   0  0  0  0  0  0  0  0  0  0  0  0
  139.3850   76.8350  220.1920 C   0  0  0  0  0  0  0  0  0  0  0  0
  139.0043   75.9918  219.5970 H   0  0  0  0  0  0  0  0  0  0  0  0
  139.4853   77.7616  219.6077 H   0  0  0  0  0  0  0  0  0  0  0  0
  138.3710   77.1300  221.3130 C   0  0  0  0  0  0  0  0  0  0  0  0
  138.7429   76.6869  222.2486 H   0  0  0  0  0  0  0  0  0  0  0  0
  137.4071   76.6952  221.0100 H   0  0  0  0  0  0  0  0  0  0  0  0
  138.1500   78.6320  221.5360 C   0  0  0  0  0  0  0  0  0  0  0  0
  137.1122   78.8854  221.2737 H   0  0  0  0  0  0  0  0  0  0  0  0
  138.8556   79.1874  220.9007 H   0  0  0  0  0  0  0  0  0  0  0  0
  138.4040   79.0140  222.9930 C   0  0  0  0  0  0  0  0  0  0  0  0
  137.9172   78.2820  223.6542 H   0  0  0  0  0  0  0  0  0  0  0  0
  139.4867   79.0202  223.1870 H   0  0  0  0  0  0  0  0  0  0  0  0
  137.9910   80.0149  223.1870 H   0  0  0  0  0  0  0  0  0  0  0  0
  1  2  1  0
  2  3  1  0
  3  4  2  0
  4  5  1  0
  5  6  1  1
  5  7  1  0
  7  8  2  0
  7  9  1  0
  9 10  2  0
  9 11  1  0
 11 12  1  0
 12 13  1  0
 12 14  1  0
 12 15  1  0
 15 16  1  0
 15 17  1  0
 15 18  1  0
  5 19  1  0
 19 20  1  0
 19 21  1  0
 19 22  1  0
 22 23  1  0
 22 24  1  0
 24 25  1  0
 24 26  1  0
 24 27  1  0
 27 28  1  0
 27 29  1  0
 27 30  1  0
 30 31  1  0
 30 32  1  0
 30 33  1  0
 33 34  1  0
 33 35  1  0
 33 36  1  0
 36 37  1  0
 36 38  1  0
  3 39  1  0
 39 40  1  6
 39 41  1  0
 41 42  2  0
 42 43  1  0
 43 44  2  0
 44 45  1  0
 45 46  1  0
 45 47  2  0
 47 48  1  0
 47 49  1  0
 49 50  1  0
 49 51  2  0
 51 52  1  0
 51 53  1  0
 39 54  1  0
 54 55  1  0
 54 56  1  0
 54 57  1  0
 57 58  1  0
 57 59  1  0
 57 60  1  0
 60 61  1  0
 60 62  1  0
 60 63  1  0
 63 64  1  0
 63 65  1  0
 63 66  1  0
 36 22  1  0
 53 41  1  0
 53 44  1  0
M  CHG  1  11  -1
M  END
>  <UniqueID>  (11) 
1

>  <SMILES>  (11) 
CCCC[C@H](/C(O)=N/[C@H](CC1CCCCC1)C(=O)C(=O)[N-]CC)c1nnc2ccccn12

>  <Energy>  (11) 
90.49375174549255

>  <Genealogy>  (11) 
CCCCC(C(=O)NC(CC1CCCCC1)C(=O)C(=O)[N-]CC)c1nnc2ccccn12 (protonated)
CCCCC(C(O)=NC(CC1CCCCC1)C(=O)C(=O)[N-]CC)c1nnc2ccccn12 (tautomer)
CCCC[C@H](C(O)=N[C@H](CC1CCCCC1)C(=O)C(=O)[N-]CC)c1nnc2ccccn12 (chirality)
CCCC[C@H](/C(O)=N/[C@H](CC1CCCCC1)C(=O)C(=O)[N-]CC)c1nnc2ccccn12 (cis-trans isomerization)
CCCC[C@H](/C(O)=N/[C@H](CC1CCCCC1)C(=O)C(=O)[N-]CC)c1nnc2ccccn12 (3D coordinates assigned)
CCCC[C@H](/C(O)=N/[C@H](CC1CCCCC1)C(=O)C(=O)[N-]CC)c1nnc2ccccn12 (nonaromatic ring conformer: 90.49375174549255 kcal/mol)

>  <smiles>  (11) 
CCCCC(C(=O)NC(CC1CCCCC1)C(=O)C(=O)NCC)c1nnc2ccccn12

>  <score_type>  (11) 
oracle

>  <origin>  (11) 
autodockgpu

>  <m_score__min__energy>  (11) 
-6.2599999999999998

>  <m_primary>  (11) 
energy

>  <meeko>  (11) 
{"free_energy": -5.38, "intermolecular_energy": -9.56, "internal_energy": -3.13, "cluster_size": 3, "cluster_id": 7, "rank_in_cluster": 2}

>  <energy>  (11) 
-5.5

>  <cluster_rmsd>  (11) 
0.0

>  <rmsd>  (11) 
269.18

>  <cluster>  (11) 
7

$$$$
NNKZOUMTYASKLJ-WHFSYHSSNA-M
     RDKit          3D

 66 68  0  0  0  0  0  0  0  0999 V2000
  144.6180   71.4320  221.0320 H   0  0  0  0  0  0  0  0  0  0  0  0
  143.6080   71.4210  221.0860 O   0  0  0  0  0  0  0  0  0  0  0  0
  142.8110   72.5510  220.8660 C   0  0  0  0  0  0  0  0  0  0  0  0
  143.2580   73.7550  221.0810 N   0  0  0  0  0  0  0  0  0  0  0  0
  144.2530   74.4720  220.2780 C   0  0  1  0  0  0  0  0  0  0  0  0
  144.4541   75.4496  220.7404 H   0  0  0  0  0  0  0  0  0  0  0  0
  145.5760   73.7390  220.2560 C   0  0  0  0  0  0  0  0  0  0  0  0
  146.3980   73.8960  221.2000 O   0  0  0  0  0  0  0  0  0  0  0  0
  145.9270   72.8350  219.1470 C   0  0  0  0  0  0  0  0  0  0  0  0
  146.1600   73.3000  217.9990 O   0  0  0  0  0  0  0  0  0  0  0  0
  145.9930   71.4240  219.3810 N   0  0  0  0  0  0  0  0  0  0  0  0
  145.5910   70.4230  218.3980 C   0  0  0  0  0  0  0  0  0  0  0  0
  144.5692   70.6428  218.0552 H   0  0  0  0  0  0  0  0  0  0  0  0
  146.2917   70.4562  217.5507 H   0  0  0  0  0  0  0  0  0  0  0  0
  145.6250   69.0270  219.0100 C   0  0  0  0  0  0  0  0  0  0  0  0
  145.6230   69.1074  220.1070 H   0  0  0  0  0  0  0  0  0  0  0  0
  144.7404   68.4613  218.6822 H   0  0  0  0  0  0  0  0  0  0  0  0
  146.5361   68.5050  218.6822 H   0  0  0  0  0  0  0  0  0  0  0  0
  143.6920   74.7200  218.8600 C   0  0  0  0  0  0  0  0  0  0  0  0
  144.5385   74.9499  218.1963 H   0  0  0  0  0  0  0  0  0  0  0  0
  143.1492   73.8034  218.5859 H   0  0  0  0  0  0  0  0  0  0  0  0
  142.6620   75.8770  218.7400 C   0  0  0  0  0  0  0  0  0  0  0  0
  141.6804   75.4287  218.5268 H   0  0  0  0  0  0  0  0  0  0  0  0
  142.9890   76.8360  217.5580 C   0  0  0  0  0  0  0  0  0  0  0  0
  144.0760   76.8206  217.3899 H   0  0  0  0  0  0  0  0  0  0  0  0
  142.4221   76.4748  216.6873 H   0  0  0  0  0  0  0  0  0  0  0  0
  142.5560   78.2950  217.8000 C   0  0  0  0  0  0  0  0  0  0  0  0
  143.3645   78.8264  218.3234 H   0  0  0  0  0  0  0  0  0  0  0  0
  142.3499   78.7618  216.8255 H   0  0  0  0  0  0  0  0  0  0  0  0
  141.2840   78.3650  218.6470 C   0  0  0  0  0  0  0  0  0  0  0  0
  140.9923   79.4189  218.7663 H   0  0  0  0  0  0  0  0  0  0  0  0
  140.4966   77.7948  218.1324 H   0  0  0  0  0  0  0  0  0  0  0  0
  141.4950   77.7440  220.0410 C   0  0  0  0  0  0  0  0  0  0  0  0
  141.7801   78.5445  220.7395 H   0  0  0  0  0  0  0  0  0  0  0  0
  140.5496   77.2594  220.3263 H   0  0  0  0  0  0  0  0  0  0  0  0
  142.5890   76.6580  220.0700 C   0  0  0  0  0  0  0  0  0  0  0  0
  143.5615   77.1380  220.2542 H   0  0  0  0  0  0  0  0  0  0  0  0
  142.3401   75.9453  220.8701 H   0  0  0  0  0  0  0  0  0  0  0  0
  141.3990   72.3860  220.3610 C   0  0  2  0  0  0  0  0  0  0  0  0
  141.4261   72.4685  219.2644 H   0  0  0  0  0  0  0  0  0  0  0  0
  140.5180   73.4870  220.9040 C   0  0  0  0  0  0  0  0  0  0  0  0
  140.3620   73.7280  222.2260 N   0  0  0  0  0  0  0  0  0  0  0  0
  139.5470   74.7710  222.3530 N   0  0  0  0  0  0  0  0  0  0  0  0
  139.2250   75.1480  221.1030 C   0  0  0  0  0  0  0  0  0  0  0  0
  138.3950   76.2050  220.7410 C   0  0  0  0  0  0  0  0  0  0  0  0
  137.9150   76.8403  221.4999 H   0  0  0  0  0  0  0  0  0  0  0  0
  138.1940   76.4290  219.3690 C   0  0  0  0  0  0  0  0  0  0  0  0
  137.5461   77.2545  219.0393 H   0  0  0  0  0  0  0  0  0  0  0  0
  138.8170   75.6030  218.4120 C   0  0  0  0  0  0  0  0  0  0  0  0
  138.6567   75.7802  217.3383 H   0  0  0  0  0  0  0  0  0  0  0  0
  139.6440   74.5520  218.8400 C   0  0  0  0  0  0  0  0  0  0  0  0
  140.1412   73.8914  218.1145 H   0  0  0  0  0  0  0  0  0  0  0  0
  139.8120   74.3750  220.1770 N   0  0  0  0  0  0  0  0  0  0  0  0
  140.8190   70.9860  220.6700 C   0  0  0  0  0  0  0  0  0  0  0  0
  139.7727   71.1091  220.9864 H   0  0  0  0  0  0  0  0  0  0  0  0
  141.4548   70.5483  221.4537 H   0  0  0  0  0  0  0  0  0  0  0  0
  140.8510   70.0080  219.4800 C   0  0  0  0  0  0  0  0  0  0  0  0
  140.0404   70.2735  218.7853 H   0  0  0  0  0  0  0  0  0  0  0  0
  140.7272   68.9922  219.8835 H   0  0  0  0  0  0  0  0  0  0  0  0
  142.1820   70.0420  218.7160 C   0  0  0  0  0  0  0  0  0  0  0  0
  142.4274   69.0249  218.3764 H   0  0  0  0  0  0  0  0  0  0  0  0
  142.9627   70.4231  219.3908 H   0  0  0  0  0  0  0  0  0  0  0  0
  142.0960   70.9650  217.5040 C   0  0  0  0  0  0  0  0  0  0  0  0
  141.9989   72.0070  217.8428 H   0  0  0  0  0  0  0  0  0  0  0  0
  143.0078   70.8600  216.8977 H   0  0  0  0  0  0  0  0  0  0  0  0
  141.2193   70.6934  216.8977 H   0  0  0  0  0  0  0  0  0  0  0  0
  1  2  1  0
  2  3  1  0
  3  4  2  0
  4  5  1  0
  5  6  1  1
  5  7  1  0
  7  8  2  0
  7  9  1  0
  9 10  2  0
  9 11  1  0
 11 12  1  0
 12 13  1  0
 12 14  1  0
 12 15  1  0
 15 16  1  0
 15 17  1  0
 15 18  1  0
  5 19  1  0
 19 20  1  0
 19 21  1  0
 19 22  1  0
 22 23  1  0
 22 24  1  0
 24 25  1  0
 24 26  1  0
 24 27  1  0
 27 28  1  0
 27 29  1  0
 27 30  1  0
 30 31  1  0
 30 32  1  0
 30 33  1  0
 33 34  1  0
 33 35  1  0
 33 36  1  0
 36 37  1  0
 36 38  1  0
  3 39  1  0
 39 40  1  6
 39 41  1  0
 41 42  2  0
 42 43  1  0
 43 44  2  0
 44 45  1  0
 45 46  1  0
 45 47  2  0
 47 48  1  0
 47 49  1  0
 49 50  1  0
 49 51  2  0
 51 52  1  0
 51 53  1  0
 39 54  1  0
 54 55  1  0
 54 56  1  0
 54 57  1  0
 57 58  1  0
 57 59  1  0
 57 60  1  0
 60 61  1  0
 60 62  1  0
 60 63  1  0
 63 64  1  0
 63 65  1  0
 63 66  1  0
 36 22  1  0
 53 41  1  0
 53 44  1  0
M  CHG  1  11  -1
M  END
>  <UniqueID>  (12) 
1

>  <SMILES>  (12) 
CCCC[C@H](/C(O)=N/[C@H](CC1CCCCC1)C(=O)C(=O)[N-]CC)c1nnc2ccccn12

>  <Energy>  (12) 
90.49375174549255

>  <Genealogy>  (12) 
CCCCC(C(=O)NC(CC1CCCCC1)C(=O)C(=O)[N-]CC)c1nnc2ccccn12 (protonated)
CCCCC(C(O)=NC(CC1CCCCC1)C(=O)C(=O)[N-]CC)c1nnc2ccccn12 (tautomer)
CCCC[C@H](C(O)=N[C@H](CC1CCCCC1)C(=O)C(=O)[N-]CC)c1nnc2ccccn12 (chirality)
CCCC[C@H](/C(O)=N/[C@H](CC1CCCCC1)C(=O)C(=O)[N-]CC)c1nnc2ccccn12 (cis-trans isomerization)
CCCC[C@H](/C(O)=N/[C@H](CC1CCCCC1)C(=O)C(=O)[N-]CC)c1nnc2ccccn12 (3D coordinates assigned)
CCCC[C@H](/C(O)=N/[C@H](CC1CCCCC1)C(=O)C(=O)[N-]CC)c1nnc2ccccn12 (nonaromatic ring conformer: 90.49375174549255 kcal/mol)

>  <smiles>  (12) 
CCCCC(C(=O)NC(CC1CCCCC1)C(=O)C(=O)NCC)c1nnc2ccccn12

>  <score_type>  (12) 
oracle

>  <origin>  (12) 
autodockgpu

>  <m_score__min__energy>  (12) 
-6.2599999999999998

>  <m_primary>  (12) 
energy

>  <meeko>  (12) 
{"free_energy": -4.33, "intermolecular_energy": -8.51, "internal_energy": -4.11, "cluster_size": 1, "cluster_id": 12, "rank_in_cluster": 1}

>  <energy>  (12) 
-5.38

>  <cluster_rmsd>  (12) 
1.69

>  <rmsd>  (12) 
269.65

>  <cluster>  (12) 
7

$$$$
NNKZOUMTYASKLJ-WHFSYHSSNA-M
     RDKit          3D

 66 68  0  0  0  0  0  0  0  0999 V2000
  137.6980   72.8770  223.0270 H   0  0  0  0  0  0  0  0  0  0  0  0
  137.0630   72.2420  223.4920 O   0  0  0  0  0  0  0  0  0  0  0  0
  137.2420   70.8540  223.5210 C   0  0  0  0  0  0  0  0  0  0  0  0
  138.4130   70.3190  223.7170 N   0  0  0  0  0  0  0  0  0  0  0  0
  139.7050   70.8730  223.3050 C   0  0  1  0  0  0  0  0  0  0  0  0
  140.2533   70.1159  222.7252 H   0  0  0  0  0  0  0  0  0  0  0  0
  139.5270   72.0610  222.3840 C   0  0  0  0  0  0  0  0  0  0  0  0
  139.9300   73.2010  222.7430 O   0  0  0  0  0  0  0  0  0  0  0  0
  138.8890   71.9110  221.0650 C   0  0  0  0  0  0  0  0  0  0  0  0
  137.7330   72.3730  220.8620 O   0  0  0  0  0  0  0  0  0  0  0  0
  139.5870   71.2310  220.0170 N   0  0  0  0  0  0  0  0  0  0  0  0
  140.8210   70.4800  220.2240 C   0  0  0  0  0  0  0  0  0  0  0  0
  140.7550   69.9315  221.1752 H   0  0  0  0  0  0  0  0  0  0  0  0
  140.9529   69.7777  219.3877 H   0  0  0  0  0  0  0  0  0  0  0  0
  142.0210   71.4200  220.2700 C   0  0  0  0  0  0  0  0  0  0  0  0
  142.2849   71.6267  221.3177 H   0  0  0  0  0  0  0  0  0  0  0  0
  142.8757   70.9486  219.7628 H   0  0  0  0  0  0  0  0  0  0  0  0
  141.7680   72.3627  219.7628 H   0  0  0  0  0  0  0  0  0  0  0  0
  140.5450   71.2170  224.5550 C   0  0  0  0  0  0  0  0  0  0  0  0
  141.5910   70.9494  224.3445 H   0  0  0  0  0  0  0  0  0  0  0  0
  140.3899   72.2907  224.7368 H   0  0  0  0  0  0  0  0  0  0  0  0
  140.1210   70.4970  225.8650 C   0  0  0  0  0  0  0  0  0  0  0  0
  139.0325   70.6140  225.9720 H   0  0  0  0  0  0  0  0  0  0  0  0
  140.7710   71.1370  227.1260 C   0  0  0  0  0  0  0  0  0  0  0  0
  141.7309   71.5858  226.8308 H   0  0  0  0  0  0  0  0  0  0  0  0
  140.0574   71.8807  227.5104 H   0  0  0  0  0  0  0  0  0  0  0  0
  141.0340   70.1370  228.2690 C   0  0  0  0  0  0  0  0  0  0  0  0
  142.0202   69.6733  228.1195 H   0  0  0  0  0  0  0  0  0  0  0  0
  141.0013   70.6839  229.2228 H   0  0  0  0  0  0  0  0  0  0  0  0
  139.9680   69.0400  228.3050 C   0  0  0  0  0  0  0  0  0  0  0  0
  140.1739   68.3701  229.1528 H   0  0  0  0  0  0  0  0  0  0  0  0
  138.9842   69.5201  228.4130 H   0  0  0  0  0  0  0  0  0  0  0  0
  139.9600   68.2130  227.0050 C   0  0  0  0  0  0  0  0  0  0  0  0
  140.6043   67.3330  227.1480 H   0  0  0  0  0  0  0  0  0  0  0  0
  138.9147   67.9357  226.8037 H   0  0  0  0  0  0  0  0  0  0  0  0
  140.4670   68.9950  225.7770 C   0  0  0  0  0  0  0  0  0  0  0  0
  141.5596   68.8854  225.7124 H   0  0  0  0  0  0  0  0  0  0  0  0
  139.9726   68.5840  224.8844 H   0  0  0  0  0  0  0  0  0  0  0  0
  136.0560   69.9400  223.3290 C   0  0  2  0  0  0  0  0  0  0  0  0
  135.4340   70.3644  222.5271 H   0  0  0  0  0  0  0  0  0  0  0  0
  135.2330   69.8800  224.5940 C   0  0  0  0  0  0  0  0  0  0  0  0
  134.9850   68.7310  225.2650 N   0  0  0  0  0  0  0  0  0  0  0  0
  134.2570   69.0380  226.3350 N   0  0  0  0  0  0  0  0  0  0  0  0
  134.0790   70.3690  226.2970 C   0  0  0  0  0  0  0  0  0  0  0  0
  133.3790   71.1420  227.2190 C   0  0  0  0  0  0  0  0  0  0  0  0
  132.8927   70.6858  228.0939 H   0  0  0  0  0  0  0  0  0  0  0  0
  133.3170   72.5270  226.9900 C   0  0  0  0  0  0  0  0  0  0  0  0
  132.7752   73.1743  227.6953 H   0  0  0  0  0  0  0  0  0  0  0  0
  133.9450   73.0910  225.8620 C   0  0  0  0  0  0  0  0  0  0  0  0
  133.8940   74.1753  225.6841 H   0  0  0  0  0  0  0  0  0  0  0  0
  134.6360   72.2600  224.9670 C   0  0  0  0  0  0  0  0  0  0  0  0
  135.1338   72.6749  224.0781 H   0  0  0  0  0  0  0  0  0  0  0  0
  134.6720   70.9270  225.2310 N   0  0  0  0  0  0  0  0  0  0  0  0
  136.4700   68.5280  222.8500 C   0  0  0  0  0  0  0  0  0  0  0  0
  135.5661   67.9033  222.7980 H   0  0  0  0  0  0  0  0  0  0  0  0
  137.2079   68.1537  223.5749 H   0  0  0  0  0  0  0  0  0  0  0  0
  137.1550   68.5010  221.4700 C   0  0  0  0  0  0  0  0  0  0  0  0
  137.2355   69.5328  221.0974 H   0  0  0  0  0  0  0  0  0  0  0  0
  136.5399   67.8745  220.8073 H   0  0  0  0  0  0  0  0  0  0  0  0
  138.5600   67.8850  221.5150 C   0  0  0  0  0  0  0  0  0  0  0  0
  139.3046   68.6754  221.3393 H   0  0  0  0  0  0  0  0  0  0  0  0
  138.6272   67.1107  220.7366 H   0  0  0  0  0  0  0  0  0  0  0  0
  138.8320   67.2360  222.8690 C   0  0  0  0  0  0  0  0  0  0  0  0
  138.5417   67.9288  223.6726 H   0  0  0  0  0  0  0  0  0  0  0  0
  138.2469   66.3085  222.9552 H   0  0  0  0  0  0  0  0  0  0  0  0
  139.9035   67.0029  222.9552 H   0  0  0  0  0  0  0  0  0  0  0  0
  1  2  1  0
  2  3  1  0
  3  4  2  0
  4  5  1  0
  5  6  1  6
  5  7  1  0
  7  8  2  0
  7  9  1  0
  9 10  2  0
  9 11  1  0
 11 12  1  0
 12 13  1  0
 12 14  1  0
 12 15  1  0
 15 16  1  0
 15 17  1  0
 15 18  1  0
  5 19  1  0
 19 20  1  0
 19 21  1  0
 19 22  1  0
 22 23  1  0
 22 24  1  0
 24 25  1  0
 24 26  1  0
 24 27  1  0
 27 28  1  0
 27 29  1  0
 27 30  1  0
 30 31  1  0
 30 32  1  0
 30 33  1  0
 33 34  1  0
 33 35  1  0
 33 36  1  0
 36 37  1  0
 36 38  1  0
  3 39  1  0
 39 40  1  6
 39 41  1  0
 41 42  2  0
 42 43  1  0
 43 44  2  0
 44 45  1  0
 45 46  1  0
 45 47  2  0
 47 48  1  0
 47 49  1  0
 49 50  1  0
 49 51  2  0
 51 52  1  0
 51 53  1  0
 39 54  1  0
 54 55  1  0
 54 56  1  0
 54 57  1  0
 57 58  1  0
 57 59  1  0
 57 60  1  0
 60 61  1  0
 60 62  1  0
 60 63  1  0
 63 64  1  0
 63 65  1  0
 63 66  1  0
 36 22  1  0
 53 41  1  0
 53 44  1  0
M  CHG  1  11  -1
M  END
>  <UniqueID>  (13) 
1

>  <SMILES>  (13) 
CCCC[C@H](/C(O)=N/[C@H](CC1CCCCC1)C(=O)C(=O)[N-]CC)c1nnc2ccccn12

>  <Energy>  (13) 
90.49375174549255

>  <Genealogy>  (13) 
CCCCC(C(=O)NC(CC1CCCCC1)C(=O)C(=O)[N-]CC)c1nnc2ccccn12 (protonated)
CCCCC(C(O)=NC(CC1CCCCC1)C(=O)C(=O)[N-]CC)c1nnc2ccccn12 (tautomer)
CCCC[C@H](C(O)=N[C@H](CC1CCCCC1)C(=O)C(=O)[N-]CC)c1nnc2ccccn12 (chirality)
CCCC[C@H](/C(O)=N/[C@H](CC1CCCCC1)C(=O)C(=O)[N-]CC)c1nnc2ccccn12 (cis-trans isomerization)
CCCC[C@H](/C(O)=N/[C@H](CC1CCCCC1)C(=O)C(=O)[N-]CC)c1nnc2ccccn12 (3D coordinates assigned)
CCCC[C@H](/C(O)=N/[C@H](CC1CCCCC1)C(=O)C(=O)[N-]CC)c1nnc2ccccn12 (nonaromatic ring conformer: 90.49375174549255 kcal/mol)

>  <smiles>  (13) 
CCCCC(C(=O)NC(CC1CCCCC1)C(=O)C(=O)NCC)c1nnc2ccccn12

>  <score_type>  (13) 
oracle

>  <origin>  (13) 
autodockgpu

>  <m_score__min__energy>  (13) 
-6.2599999999999998

>  <m_primary>  (13) 
energy

>  <meeko>  (13) 
{"free_energy": -5.65, "intermolecular_energy": -9.83, "internal_energy": -3.28, "cluster_size": 2, "cluster_id": 2, "rank_in_cluster": 2}

>  <energy>  (13) 
-5.28

>  <cluster_rmsd>  (13) 
0.44

>  <rmsd>  (13) 
269.09

>  <cluster>  (13) 
7

$$$$
NNKZOUMTYASKLJ-WHFSYHSSNA-M
     RDKit          3D

 66 68  0  0  0  0  0  0  0  0999 V2000
  138.9760   74.0410  222.9270 H   0  0  0  0  0  0  0  0  0  0  0  0
  139.7350   73.6760  222.3690 O   0  0  0  0  0  0  0  0  0  0  0  0
  140.5550   74.4750  221.5630 C   0  0  0  0  0  0  0  0  0  0  0  0
  141.1460   75.5380  222.0290 N   0  0  0  0  0  0  0  0  0  0  0  0
  140.6050   76.9000  222.0470 C   0  0  1  0  0  0  0  0  0  0  0  0
  140.7583   77.3628  221.0609 H   0  0  0  0  0  0  0  0  0  0  0  0
  139.1100   76.8960  222.2810 C   0  0  0  0  0  0  0  0  0  0  0  0
  138.5950   76.0380  223.0500 O   0  0  0  0  0  0  0  0  0  0  0  0
  138.2350   77.8840  221.6260 C   0  0  0  0  0  0  0  0  0  0  0  0
  138.1990   77.9650  220.3680 O   0  0  0  0  0  0  0  0  0  0  0  0
  137.4330   78.7570  222.4280 N   0  0  0  0  0  0  0  0  0  0  0  0
  137.9790   79.6400  223.4540 C   0  0  0  0  0  0  0  0  0  0  0  0
  137.2794   79.6855  224.3016 H   0  0  0  0  0  0  0  0  0  0  0  0
  138.9504   79.2429  223.7837 H   0  0  0  0  0  0  0  0  0  0  0  0
  138.1850   81.0450  222.8980 C   0  0  0  0  0  0  0  0  0  0  0  0
  138.2894   81.7569  223.7300 H   0  0  0  0  0  0  0  0  0  0  0  0
  139.0957   81.0655  222.2815 H   0  0  0  0  0  0  0  0  0  0  0  0
  137.3185   81.3260  222.2815 H   0  0  0  0  0  0  0  0  0  0  0  0
  141.3640   77.7450  223.0940 C   0  0  0  0  0  0  0  0  0  0  0  0
  140.9880   77.4680  224.0899 H   0  0  0  0  0  0  0  0  0  0  0  0
  142.4309   77.5229  222.9447 H   0  0  0  0  0  0  0  0  0  0  0  0
  141.2240   79.2850  222.9410 C   0  0  0  0  0  0  0  0  0  0  0  0
  140.2529   79.5759  223.3680 H   0  0  0  0  0  0  0  0  0  0  0  0
  141.2140   79.7300  221.4490 C   0  0  0  0  0  0  0  0  0  0  0  0
  141.7930   78.9990  220.8656 H   0  0  0  0  0  0  0  0  0  0  0  0
  140.1603   79.7792  221.1372 H   0  0  0  0  0  0  0  0  0  0  0  0
  141.8170   81.1280  221.2110 C   0  0  0  0  0  0  0  0  0  0  0  0
  142.9038   81.0304  221.0717 H   0  0  0  0  0  0  0  0  0  0  0  0
  141.3469   81.5607  220.3156 H   0  0  0  0  0  0  0  0  0  0  0  0
  141.5480   82.0590  222.3950 C   0  0  0  0  0  0  0  0  0  0  0  0
  141.9631   83.0524  222.1694 H   0  0  0  0  0  0  0  0  0  0  0  0
  140.4603   82.1134  222.5495 H   0  0  0  0  0  0  0  0  0  0  0  0
  142.1930   81.5300  223.6910 C   0  0  0  0  0  0  0  0  0  0  0  0
  143.1879   81.9871  223.7969 H   0  0  0  0  0  0  0  0  0  0  0  0
  141.5215   81.7977  224.5201 H   0  0  0  0  0  0  0  0  0  0  0  0
  142.3550   79.9960  223.7140 C   0  0  0  0  0  0  0  0  0  0  0  0
  143.3192   79.7335  223.2543 H   0  0  0  0  0  0  0  0  0  0  0  0
  142.3114   79.6648  224.7620 H   0  0  0  0  0  0  0  0  0  0  0  0
  140.7760   74.1050  220.1160 C   0  0  2  0  0  0  0  0  0  0  0  0
  139.8650   73.6046  219.7558 H   0  0  0  0  0  0  0  0  0  0  0  0
  141.9320   73.1400  219.9950 C   0  0  0  0  0  0  0  0  0  0  0  0
  141.7870   71.8560  219.5930 N   0  0  0  0  0  0  0  0  0  0  0  0
  142.9950   71.3000  219.5750 N   0  0  0  0  0  0  0  0  0  0  0  0
  143.8530   72.2590  219.9630 C   0  0  0  0  0  0  0  0  0  0  0  0
  145.2340   72.1380  220.0900 C   0  0  0  0  0  0  0  0  0  0  0  0
  145.7468   71.1902  219.8693 H   0  0  0  0  0  0  0  0  0  0  0  0
  145.9480   73.2730  220.5110 C   0  0  0  0  0  0  0  0  0  0  0  0
  147.0409   73.2205  220.6242 H   0  0  0  0  0  0  0  0  0  0  0  0
  145.2720   74.4780  220.7890 C   0  0  0  0  0  0  0  0  0  0  0  0
  145.8333   75.3650  221.1180 H   0  0  0  0  0  0  0  0  0  0  0  0
  143.8770   74.5380  220.6430 C   0  0  0  0  0  0  0  0  0  0  0  0
  143.3246   75.4650  220.8563 H   0  0  0  0  0  0  0  0  0  0  0  0
  143.2290   73.4160  220.2300 N   0  0  0  0  0  0  0  0  0  0  0  0
  140.9680   75.3450  219.2120 C   0  0  0  0  0  0  0  0  0  0  0  0
  141.2634   76.1924  219.8481 H   0  0  0  0  0  0  0  0  0  0  0  0
  140.0103   75.5102  218.6968 H   0  0  0  0  0  0  0  0  0  0  0  0
  142.0350   75.1710  218.1140 C   0  0  0  0  0  0  0  0  0  0  0  0
  141.5262   75.0132  217.1516 H   0  0  0  0  0  0  0  0  0  0  0  0
  142.6588   74.3088  218.3926 H   0  0  0  0  0  0  0  0  0  0  0  0
  142.9610   76.3880  217.9850 C   0  0  0  0  0  0  0  0  0  0  0  0
  142.8963   76.7819  216.9600 H   0  0  0  0  0  0  0  0  0  0  0  0
  143.9894   76.0708  218.2125 H   0  0  0  0  0  0  0  0  0  0  0  0
  142.5630   77.4870  218.9680 C   0  0  0  0  0  0  0  0  0  0  0  0
  142.6947   77.1232  219.9977 H   0  0  0  0  0  0  0  0  0  0  0  0
  143.1983   78.3705  218.8071 H   0  0  0  0  0  0  0  0  0  0  0  0
  141.5093   77.7588  218.8071 H   0  0  0  0  0  0  0  0  0  0  0  0
  1  2  1  0
  2  3  1  0
  3  4  2  0
  4  5  1  0
  5  6  1  6
  5  7  1  0
  7  8  2  0
  7  9  1  0
  9 10  2  0
  9 11  1  0
 11 12  1  0
 12 13  1  0
 12 14  1  0
 12 15  1  0
 15 16  1  0
 15 17  1  0
 15 18  1  0
  5 19  1  0
 19 20  1  0
 19 21  1  0
 19 22  1  0
 22 23  1  0
 22 24  1  0
 24 25  1  0
 24 26  1  0
 24 27  1  0
 27 28  1  0
 27 29  1  0
 27 30  1  0
 30 31  1  0
 30 32  1  0
 30 33  1  0
 33 34  1  0
 33 35  1  0
 33 36  1  0
 36 37  1  0
 36 38  1  0
  3 39  1  0
 39 40  1  6
 39 41  1  0
 41 42  2  0
 42 43  1  0
 43 44  2  0
 44 45  1  0
 45 46  1  0
 45 47  2  0
 47 48  1  0
 47 49  1  0
 49 50  1  0
 49 51  2  0
 51 52  1  0
 51 53  1  0
 39 54  1  0
 54 55  1  0
 54 56  1  0
 54 57  1  0
 57 58  1  0
 57 59  1  0
 57 60  1  0
 60 61  1  0
 60 62  1  0
 60 63  1  0
 63 64  1  0
 63 65  1  0
 63 66  1  0
 36 22  1  0
 53 41  1  0
 53 44  1  0
M  CHG  1  11  -1
M  END
>  <UniqueID>  (14) 
1

>  <SMILES>  (14) 
CCCC[C@H](/C(O)=N/[C@H](CC1CCCCC1)C(=O)C(=O)[N-]CC)c1nnc2ccccn12

>  <Energy>  (14) 
90.49375174549255

>  <Genealogy>  (14) 
CCCCC(C(=O)NC(CC1CCCCC1)C(=O)C(=O)[N-]CC)c1nnc2ccccn12 (protonated)
CCCCC(C(O)=NC(CC1CCCCC1)C(=O)C(=O)[N-]CC)c1nnc2ccccn12 (tautomer)
CCCC[C@H](C(O)=N[C@H](CC1CCCCC1)C(=O)C(=O)[N-]CC)c1nnc2ccccn12 (chirality)
CCCC[C@H](/C(O)=N/[C@H](CC1CCCCC1)C(=O)C(=O)[N-]CC)c1nnc2ccccn12 (cis-trans isomerization)
CCCC[C@H](/C(O)=N/[C@H](CC1CCCCC1)C(=O)C(=O)[N-]CC)c1nnc2ccccn12 (3D coordinates assigned)
CCCC[C@H](/C(O)=N/[C@H](CC1CCCCC1)C(=O)C(=O)[N-]CC)c1nnc2ccccn12 (nonaromatic ring conformer: 90.49375174549255 kcal/mol)

>  <smiles>  (14) 
CCCCC(C(=O)NC(CC1CCCCC1)C(=O)C(=O)NCC)c1nnc2ccccn12

>  <score_type>  (14) 
oracle

>  <origin>  (14) 
autodockgpu

>  <m_score__min__energy>  (14) 
-6.2599999999999998

>  <m_primary>  (14) 
energy

>  <meeko>  (14) 
{"free_energy": -5.42, "intermolecular_energy": -9.6, "internal_energy": -3.29, "cluster_size": 2, "cluster_id": 5, "rank_in_cluster": 2}

>  <energy>  (14) 
-5.22

>  <cluster_rmsd>  (14) 
0.0

>  <rmsd>  (14) 
269.13

>  <cluster>  (14) 
8

$$$$
NNKZOUMTYASKLJ-WHFSYHSSNA-M
     RDKit          3D

 66 68  0  0  0  0  0  0  0  0999 V2000
  137.8230   73.5870  222.8050 H   0  0  0  0  0  0  0  0  0  0  0  0
  137.2250   72.7830  222.6710 O   0  0  0  0  0  0  0  0  0  0  0  0
  137.5370   71.5020  223.1410 C   0  0  0  0  0  0  0  0  0  0  0  0
  138.5110   71.3000  223.9810 N   0  0  0  0  0  0  0  0  0  0  0  0
  139.9420   71.2760  223.6680 C   0  0  1  0  0  0  0  0  0  0  0  0
  140.2105   70.2818  223.2814 H   0  0  0  0  0  0  0  0  0  0  0  0
  140.2820   72.2610  222.5700 C   0  0  0  0  0  0  0  0  0  0  0  0
  139.9110   73.4620  222.6650 O   0  0  0  0  0  0  0  0  0  0  0  0
  141.0470   71.8410  221.3830 C   0  0  0  0  0  0  0  0  0  0  0  0
  140.5230   71.0770  220.5270 O   0  0  0  0  0  0  0  0  0  0  0  0
  142.3910   72.3010  221.2110 N   0  0  0  0  0  0  0  0  0  0  0  0
  143.4090   71.5630  220.4690 C   0  0  0  0  0  0  0  0  0  0  0  0
  143.6937   70.6667  221.0396 H   0  0  0  0  0  0  0  0  0  0  0  0
  142.9965   71.2758  219.4905 H   0  0  0  0  0  0  0  0  0  0  0  0
  144.6440   72.4290  220.2470 C   0  0  0  0  0  0  0  0  0  0  0  0
  145.0647   72.7240  221.2196 H   0  0  0  0  0  0  0  0  0  0  0  0
  145.3948   71.8586  219.6806 H   0  0  0  0  0  0  0  0  0  0  0  0
  144.3635   73.3293  219.6806 H   0  0  0  0  0  0  0  0  0  0  0  0
  140.7590   71.5240  224.9560 C   0  0  0  0  0  0  0  0  0  0  0  0
  141.7734   71.8297  224.6602 H   0  0  0  0  0  0  0  0  0  0  0  0
  140.2100   72.2937  225.5182 H   0  0  0  0  0  0  0  0  0  0  0  0
  140.8860   70.3060  225.9130 C   0  0  0  0  0  0  0  0  0  0  0  0
  141.9470   70.0180  225.9488 H   0  0  0  0  0  0  0  0  0  0  0  0
  140.0990   69.0670  225.3960 C   0  0  0  0  0  0  0  0  0  0  0  0
  139.2504   69.4225  224.7930 H   0  0  0  0  0  0  0  0  0  0  0  0
  140.8066   68.4599  224.8123 H   0  0  0  0  0  0  0  0  0  0  0  0
  139.5520   68.1620  226.5180 C   0  0  0  0  0  0  0  0  0  0  0  0
  138.5647   68.5341  226.8292 H   0  0  0  0  0  0  0  0  0  0  0  0
  139.4765   67.1354  226.1302 H   0  0  0  0  0  0  0  0  0  0  0  0
  140.4860   68.1530  227.7300 C   0  0  0  0  0  0  0  0  0  0  0  0
  140.0772   67.4714  228.4904 H   0  0  0  0  0  0  0  0  0  0  0  0
  141.4794   67.8192  227.3959 H   0  0  0  0  0  0  0  0  0  0  0  0
  140.6320   69.5580  228.3450 C   0  0  0  0  0  0  0  0  0  0  0  0
  139.8910   69.6640  229.1510 H   0  0  0  0  0  0  0  0  0  0  0  0
  141.6647   69.6441  228.7139 H   0  0  0  0  0  0  0  0  0  0  0  0
  140.4160   70.6990  227.3300 C   0  0  0  0  0  0  0  0  0  0  0  0
  139.3444   70.9446  227.2938 H   0  0  0  0  0  0  0  0  0  0  0  0
  141.0104   71.5643  227.6584 H   0  0  0  0  0  0  0  0  0  0  0  0
  136.7270   70.3150  222.6780 C   0  0  2  0  0  0  0  0  0  0  0  0
  136.1234   70.6383  221.8171 H   0  0  0  0  0  0  0  0  0  0  0  0
  135.7930   69.8600  223.7750 C   0  0  0  0  0  0  0  0  0  0  0  0
  135.5440   68.5580  224.0440 N   0  0  0  0  0  0  0  0  0  0  0  0
  134.7040   68.5120  225.0740 N   0  0  0  0  0  0  0  0  0  0  0  0
  134.4620   69.7900  225.4150 C   0  0  0  0  0  0  0  0  0  0  0  0
  133.6400   70.2330  226.4470 C   0  0  0  0  0  0  0  0  0  0  0  0
  133.0988   69.5239  227.0907 H   0  0  0  0  0  0  0  0  0  0  0  0
  133.5280   71.6220  226.6350 C   0  0  0  0  0  0  0  0  0  0  0  0
  132.8896   72.0153  227.4399 H   0  0  0  0  0  0  0  0  0  0  0  0
  134.2290   72.5130  225.7980 C   0  0  0  0  0  0  0  0  0  0  0  0
  134.1395   73.5993  225.9463 H   0  0  0  0  0  0  0  0  0  0  0  0
  135.0420   72.0040  224.7740 C   0  0  0  0  0  0  0  0  0  0  0  0
  135.5985   72.6774  224.1056 H   0  0  0  0  0  0  0  0  0  0  0  0
  135.1220   70.6550  224.6320 N   0  0  0  0  0  0  0  0  0  0  0  0
  137.6160   69.1560  222.1680 C   0  0  0  0  0  0  0  0  0  0  0  0
  138.1245   68.7058  223.0333 H   0  0  0  0  0  0  0  0  0  0  0  0
  138.3152   69.5931  221.4399 H   0  0  0  0  0  0  0  0  0  0  0  0
  136.8480   68.0440  221.4280 C   0  0  0  0  0  0  0  0  0  0  0  0
  136.8849   68.2501  220.3481 H   0  0  0  0  0  0  0  0  0  0  0  0
  135.8159   68.0446  221.8084 H   0  0  0  0  0  0  0  0  0  0  0  0
  137.4330   66.6480  221.6810 C   0  0  0  0  0  0  0  0  0  0  0  0
  137.5861   66.1423  220.7162 H   0  0  0  0  0  0  0  0  0  0  0  0
  136.7275   66.0815  222.3066 H   0  0  0  0  0  0  0  0  0  0  0  0
  138.7690   66.7370  222.4150 C   0  0  0  0  0  0  0  0  0  0  0  0
  138.5924   66.7252  223.5007 H   0  0  0  0  0  0  0  0  0  0  0  0
  139.3982   65.8788  222.1365 H   0  0  0  0  0  0  0  0  0  0  0  0
  139.2788   67.6711  222.1365 H   0  0  0  0  0  0  0  0  0  0  0  0
  1  2  1  0
  2  3  1  0
  3  4  2  0
  4  5  1  0
  5  6  1  6
  5  7  1  0
  7  8  2  0
  7  9  1  0
  9 10  2  0
  9 11  1  0
 11 12  1  0
 12 13  1  0
 12 14  1  0
 12 15  1  0
 15 16  1  0
 15 17  1  0
 15 18  1  0
  5 19  1  0
 19 20  1  0
 19 21  1  0
 19 22  1  0
 22 23  1  0
 22 24  1  0
 24 25  1  0
 24 26  1  0
 24 27  1  0
 27 28  1  0
 27 29  1  0
 27 30  1  0
 30 31  1  0
 30 32  1  0
 30 33  1  0
 33 34  1  0
 33 35  1  0
 33 36  1  0
 36 37  1  0
 36 38  1  0
  3 39  1  0
 39 40  1  6
 39 41  1  0
 41 42  2  0
 42 43  1  0
 43 44  2  0
 44 45  1  0
 45 46  1  0
 45 47  2  0
 47 48  1  0
 47 49  1  0
 49 50  1  0
 49 51  2  0
 51 52  1  0
 51 53  1  0
 39 54  1  0
 54 55  1  0
 54 56  1  0
 54 57  1  0
 57 58  1  0
 57 59  1  0
 57 60  1  0
 60 61  1  0
 60 62  1  0
 60 63  1  0
 63 64  1  0
 63 65  1  0
 63 66  1  0
 36 22  1  0
 53 41  1  0
 53 44  1  0
M  CHG  1  11  -1
M  END
>  <UniqueID>  (15) 
1

>  <SMILES>  (15) 
CCCC[C@H](/C(O)=N/[C@H](CC1CCCCC1)C(=O)C(=O)[N-]CC)c1nnc2ccccn12

>  <Energy>  (15) 
90.49375174549255

>  <Genealogy>  (15) 
CCCCC(C(=O)NC(CC1CCCCC1)C(=O)C(=O)[N-]CC)c1nnc2ccccn12 (protonated)
CCCCC(C(O)=NC(CC1CCCCC1)C(=O)C(=O)[N-]CC)c1nnc2ccccn12 (tautomer)
CCCC[C@H](C(O)=N[C@H](CC1CCCCC1)C(=O)C(=O)[N-]CC)c1nnc2ccccn12 (chirality)
CCCC[C@H](/C(O)=N/[C@H](CC1CCCCC1)C(=O)C(=O)[N-]CC)c1nnc2ccccn12 (cis-trans isomerization)
CCCC[C@H](/C(O)=N/[C@H](CC1CCCCC1)C(=O)C(=O)[N-]CC)c1nnc2ccccn12 (3D coordinates assigned)
CCCC[C@H](/C(O)=N/[C@H](CC1CCCCC1)C(=O)C(=O)[N-]CC)c1nnc2ccccn12 (nonaromatic ring conformer: 90.49375174549255 kcal/mol)

>  <smiles>  (15) 
CCCCC(C(=O)NC(CC1CCCCC1)C(=O)C(=O)NCC)c1nnc2ccccn12

>  <score_type>  (15) 
oracle

>  <origin>  (15) 
autodockgpu

>  <m_score__min__energy>  (15) 
-6.2599999999999998

>  <m_primary>  (15) 
energy

>  <meeko>  (15) 
{"free_energy": -6.14, "intermolecular_energy": -10.32, "internal_energy": -2.72, "cluster_size": 2, "cluster_id": 2, "rank_in_cluster": 1}

>  <energy>  (15) 
-5.14

>  <cluster_rmsd>  (15) 
0.0

>  <rmsd>  (15) 
270.12

>  <cluster>  (15) 
9

$$$$
NNKZOUMTYASKLJ-WHFSYHSSNA-M
     RDKit          3D

 66 68  0  0  0  0  0  0  0  0999 V2000
  139.5830   74.4740  222.7200 H   0  0  0  0  0  0  0  0  0  0  0  0
  140.3540   73.9990  222.2710 O   0  0  0  0  0  0  0  0  0  0  0  0
  140.9480   74.4440  221.0840 C   0  0  0  0  0  0  0  0  0  0  0  0
  141.8930   73.7670  220.4960 N   0  0  0  0  0  0  0  0  0  0  0  0
  143.3310   73.8620  220.7640 C   0  0  1  0  0  0  0  0  0  0  0  0
  143.4929   73.9246  221.8502 H   0  0  0  0  0  0  0  0  0  0  0  0
  144.0610   72.6200  220.3020 C   0  0  0  0  0  0  0  0  0  0  0  0
  143.4380   71.5290  220.1890 O   0  0  0  0  0  0  0  0  0  0  0  0
  145.4970   72.6590  219.9760 C   0  0  0  0  0  0  0  0  0  0  0  0
  146.3340   73.0410  220.8390 O   0  0  0  0  0  0  0  0  0  0  0  0
  145.9340   72.2680  218.6710 N   0  0  0  0  0  0  0  0  0  0  0  0
  145.5680   71.0030  218.0410 C   0  0  0  0  0  0  0  0  0  0  0  0
  144.4810   70.9837  217.8734 H   0  0  0  0  0  0  0  0  0  0  0  0
  146.1020   70.9159  217.0833 H   0  0  0  0  0  0  0  0  0  0  0  0
  145.9590   69.8280  218.9310 C   0  0  0  0  0  0  0  0  0  0  0  0
  145.8619   70.1198  219.9871 H   0  0  0  0  0  0  0  0  0  0  0  0
  145.2964   68.9748  218.7239 H   0  0  0  0  0  0  0  0  0  0  0  0
  147.0008   69.5419  218.7239 H   0  0  0  0  0  0  0  0  0  0  0  0
  143.8930   75.1500  220.1220 C   0  0  0  0  0  0  0  0  0  0  0  0
  143.7472   75.9752  220.8345 H   0  0  0  0  0  0  0  0  0  0  0  0
  144.9490   74.9393  219.8973 H   0  0  0  0  0  0  0  0  0  0  0  0
  143.2440   75.5630  218.7720 C   0  0  0  0  0  0  0  0  0  0  0  0
  142.1966   75.2273  218.7890 H   0  0  0  0  0  0  0  0  0  0  0  0
  143.9230   74.8680  217.5550 C   0  0  0  0  0  0  0  0  0  0  0  0
  144.9714   74.6602  217.8153 H   0  0  0  0  0  0  0  0  0  0  0  0
  143.3496   73.9520  217.3494 H   0  0  0  0  0  0  0  0  0  0  0  0
  143.9010   75.7090  216.2640 C   0  0  0  0  0  0  0  0  0  0  0  0
  144.7812   76.3686  216.2513 H   0  0  0  0  0  0  0  0  0  0  0  0
  143.9149   75.0237  215.4037 H   0  0  0  0  0  0  0  0  0  0  0  0
  142.6360   76.5650  216.1780 C   0  0  0  0  0  0  0  0  0  0  0  0
  142.6453   77.1214  215.2291 H   0  0  0  0  0  0  0  0  0  0  0  0
  141.7640   75.8967  216.2331 H   0  0  0  0  0  0  0  0  0  0  0  0
  142.5490   77.5680  217.3450 C   0  0  0  0  0  0  0  0  0  0  0  0
  142.9901   78.5213  217.0184 H   0  0  0  0  0  0  0  0  0  0  0  0
  141.4853   77.6685  217.6067 H   0  0  0  0  0  0  0  0  0  0  0  0
  143.2860   77.0990  218.6150 C   0  0  0  0  0  0  0  0  0  0  0  0
  144.3359   77.4218  218.5564 H   0  0  0  0  0  0  0  0  0  0  0  0
  142.7819   77.5443  219.4854 H   0  0  0  0  0  0  0  0  0  0  0  0
  140.4880   75.7350  220.4520 C   0  0  2  0  0  0  0  0  0  0  0  0
  141.3481   76.1740  219.9253 H   0  0  0  0  0  0  0  0  0  0  0  0
  140.0330   76.7050  221.5170 C   0  0  0  0  0  0  0  0  0  0  0  0
  138.9050   76.5310  222.2450 N   0  0  0  0  0  0  0  0  0  0  0  0
  138.8180   77.5470  223.1000 N   0  0  0  0  0  0  0  0  0  0  0  0
  139.8960   78.3170  222.8780 C   0  0  0  0  0  0  0  0  0  0  0  0
  140.2300   79.4930  223.5430 C   0  0  0  0  0  0  0  0  0  0  0  0
  139.5922   79.8975  224.3427 H   0  0  0  0  0  0  0  0  0  0  0  0
  141.4130   80.1440  223.1540 C   0  0  0  0  0  0  0  0  0  0  0  0
  141.7149   81.0752  223.6557 H   0  0  0  0  0  0  0  0  0  0  0  0
  142.2150   79.6110  222.1250 C   0  0  0  0  0  0  0  0  0  0  0  0
  143.1395   80.1236  221.8210 H   0  0  0  0  0  0  0  0  0  0  0  0
  141.8250   78.4210  221.4910 C   0  0  0  0  0  0  0  0  0  0  0  0
  142.4321   77.9837  220.6846 H   0  0  0  0  0  0  0  0  0  0  0  0
  140.6750   77.8250  221.9030 N   0  0  0  0  0  0  0  0  0  0  0  0
  139.3970   75.5110  219.3780 C   0  0  0  0  0  0  0  0  0  0  0  0
  138.6876   76.3502  219.4278 H   0  0  0  0  0  0  0  0  0  0  0  0
  138.9296   74.5409  219.6026 H   0  0  0  0  0  0  0  0  0  0  0  0
  139.9330   75.4180  217.9370 C   0  0  0  0  0  0  0  0  0  0  0  0
  140.7654   76.1284  217.8251 H   0  0  0  0  0  0  0  0  0  0  0  0
  139.1005   75.6546  217.2581 H   0  0  0  0  0  0  0  0  0  0  0  0
  140.4360   74.0130  217.5790 C   0  0  0  0  0  0  0  0  0  0  0  0
  141.4925   73.9241  217.8722 H   0  0  0  0  0  0  0  0  0  0  0  0
  140.3222   73.8668  216.4947 H   0  0  0  0  0  0  0  0  0  0  0  0
  139.6260   72.9390  218.3010 C   0  0  0  0  0  0  0  0  0  0  0  0
  139.7268   73.0726  219.3882 H   0  0  0  0  0  0  0  0  0  0  0  0
  138.5667   73.0261  218.0175 H   0  0  0  0  0  0  0  0  0  0  0  0
  140.0009   71.9445  218.0175 H   0  0  0  0  0  0  0  0  0  0  0  0
  1  2  1  0
  2  3  1  0
  3  4  2  0
  4  5  1  0
  5  6  1  1
  5  7  1  0
  7  8  2  0
  7  9  1  0
  9 10  2  0
  9 11  1  0
 11 12  1  0
 12 13  1  0
 12 14  1  0
 12 15  1  0
 15 16  1  0
 15 17  1  0
 15 18  1  0
  5 19  1  0
 19 20  1  0
 19 21  1  0
 19 22  1  0
 22 23  1  0
 22 24  1  0
 24 25  1  0
 24 26  1  0
 24 27  1  0
 27 28  1  0
 27 29  1  0
 27 30  1  0
 30 31  1  0
 30 32  1  0
 30 33  1  0
 33 34  1  0
 33 35  1  0
 33 36  1  0
 36 37  1  0
 36 38  1  0
  3 39  1  0
 39 40  1  6
 39 41  1  0
 41 42  2  0
 42 43  1  0
 43 44  2  0
 44 45  1  0
 45 46  1  0
 45 47  2  0
 47 48  1  0
 47 49  1  0
 49 50  1  0
 49 51  2  0
 51 52  1  0
 51 53  1  0
 39 54  1  0
 54 55  1  0
 54 56  1  0
 54 57  1  0
 57 58  1  0
 57 59  1  0
 57 60  1  0
 60 61  1  0
 60 62  1  0
 60 63  1  0
 63 64  1  0
 63 65  1  0
 63 66  1  0
 36 22  1  0
 53 41  1  0
 53 44  1  0
M  CHG  1  11  -1
M  END
>  <UniqueID>  (16) 
1

>  <SMILES>  (16) 
CCCC[C@H](/C(O)=N/[C@H](CC1CCCCC1)C(=O)C(=O)[N-]CC)c1nnc2ccccn12

>  <Energy>  (16) 
90.49375174549255

>  <Genealogy>  (16) 
CCCCC(C(=O)NC(CC1CCCCC1)C(=O)C(=O)[N-]CC)c1nnc2ccccn12 (protonated)
CCCCC(C(O)=NC(CC1CCCCC1)C(=O)C(=O)[N-]CC)c1nnc2ccccn12 (tautomer)
CCCC[C@H](C(O)=N[C@H](CC1CCCCC1)C(=O)C(=O)[N-]CC)c1nnc2ccccn12 (chirality)
CCCC[C@H](/C(O)=N/[C@H](CC1CCCCC1)C(=O)C(=O)[N-]CC)c1nnc2ccccn12 (cis-trans isomerization)
CCCC[C@H](/C(O)=N/[C@H](CC1CCCCC1)C(=O)C(=O)[N-]CC)c1nnc2ccccn12 (3D coordinates assigned)
CCCC[C@H](/C(O)=N/[C@H](CC1CCCCC1)C(=O)C(=O)[N-]CC)c1nnc2ccccn12 (nonaromatic ring conformer: 90.49375174549255 kcal/mol)

>  <smiles>  (16) 
CCCCC(C(=O)NC(CC1CCCCC1)C(=O)C(=O)NCC)c1nnc2ccccn12

>  <score_type>  (16) 
oracle

>  <origin>  (16) 
autodockgpu

>  <m_score__min__energy>  (16) 
-6.2599999999999998

>  <m_primary>  (16) 
energy

>  <meeko>  (16) 
{"free_energy": -5.28, "intermolecular_energy": -9.45, "internal_energy": -3.46, "cluster_size": 3, "cluster_id": 7, "rank_in_cluster": 3}

>  <energy>  (16) 
-4.9

>  <cluster_rmsd>  (16) 
1.69

>  <rmsd>  (16) 
270.02

>  <cluster>  (16) 
9

$$$$
NNKZOUMTYASKLJ-WHFSYHSSNA-M
     RDKit          3D

 66 68  0  0  0  0  0  0  0  0999 V2000
  135.7440   68.8300  225.6590 H   0  0  0  0  0  0  0  0  0  0  0  0
  136.4860   69.5090  225.5590 O   0  0  0  0  0  0  0  0  0  0  0  0
  136.9630   69.9550  224.3210 C   0  0  0  0  0  0  0  0  0  0  0  0
  136.1790   70.5280  223.4520 N   0  0  0  0  0  0  0  0  0  0  0  0
  134.8910   71.1690  223.7290 C   0  0  1  0  0  0  0  0  0  0  0  0
  134.6028   71.7886  222.8670 H   0  0  0  0  0  0  0  0  0  0  0  0
  133.7900   70.1440  223.8960 C   0  0  0  0  0  0  0  0  0  0  0  0
  132.6260   70.3990  223.4820 O   0  0  0  0  0  0  0  0  0  0  0  0
  134.0520   68.8440  224.5350 C   0  0  0  0  0  0  0  0  0  0  0  0
  134.6800   67.9450  223.9120 O   0  0  0  0  0  0  0  0  0  0  0  0
  133.5820   68.6040  225.8660 N   0  0  0  0  0  0  0  0  0  0  0  0
  133.5640   67.2860  226.4910 C   0  0  0  0  0  0  0  0  0  0  0  0
  134.5551   66.8212  226.3832 H   0  0  0  0  0  0  0  0  0  0  0  0
  133.3117   67.4017  227.5554 H   0  0  0  0  0  0  0  0  0  0  0  0
  132.5180   66.3940  225.8320 C   0  0  0  0  0  0  0  0  0  0  0  0
  131.9253   65.8886  226.6087 H   0  0  0  0  0  0  0  0  0  0  0  0
  131.8542   67.0083  225.2059 H   0  0  0  0  0  0  0  0  0  0  0  0
  133.0198   65.6415  225.2059 H   0  0  0  0  0  0  0  0  0  0  0  0
  135.0270   72.0950  224.9580 C   0  0  0  0  0  0  0  0  0  0  0  0
  135.6003   71.5559  225.7266 H   0  0  0  0  0  0  0  0  0  0  0  0
  135.5214   73.0080  224.5947 H   0  0  0  0  0  0  0  0  0  0  0  0
  133.6890   72.5600  225.5970 C   0  0  0  0  0  0  0  0  0  0  0  0
  132.8797   72.3119  224.8946 H   0  0  0  0  0  0  0  0  0  0  0  0
  133.6450   74.1010  225.8140 C   0  0  0  0  0  0  0  0  0  0  0  0
  134.6746   74.4598  225.9595 H   0  0  0  0  0  0  0  0  0  0  0  0
  133.1683   74.5353  224.9229 H   0  0  0  0  0  0  0  0  0  0  0  0
  132.8030   74.5370  227.0290 C   0  0  0  0  0  0  0  0  0  0  0  0
  133.4389   74.5302  227.9265 H   0  0  0  0  0  0  0  0  0  0  0  0
  132.4125   75.5471  226.8361 H   0  0  0  0  0  0  0  0  0  0  0  0
  131.6180   73.5960  227.2510 C   0  0  0  0  0  0  0  0  0  0  0  0
  131.0268   73.9617  228.1035 H   0  0  0  0  0  0  0  0  0  0  0  0
  131.0145   73.5806  226.3315 H   0  0  0  0  0  0  0  0  0  0  0  0
  132.0830   72.1560  227.5460 C   0  0  0  0  0  0  0  0  0  0  0  0
  132.1492   72.0277  228.6365 H   0  0  0  0  0  0  0  0  0  0  0  0
  131.3462   71.4777  227.0909 H   0  0  0  0  0  0  0  0  0  0  0  0
  133.4550   71.8160  226.9300 C   0  0  0  0  0  0  0  0  0  0  0  0
  134.2445   72.1026  227.6404 H   0  0  0  0  0  0  0  0  0  0  0  0
  133.4781   70.7354  226.7255 H   0  0  0  0  0  0  0  0  0  0  0  0
  138.4210   69.7840  223.9710 C   0  0  2  0  0  0  0  0  0  0  0  0
  138.4730   69.3025  222.9834 H   0  0  0  0  0  0  0  0  0  0  0  0
  139.0980   68.8850  224.9800 C   0  0  0  0  0  0  0  0  0  0  0  0
  139.1480   67.5380  224.8570 N   0  0  0  0  0  0  0  0  0  0  0  0
  139.8310   67.0640  225.8940 N   0  0  0  0  0  0  0  0  0  0  0  0
  140.1870   68.1330  226.6270 C   0  0  0  0  0  0  0  0  0  0  0  0
  140.9230   68.1230  227.8090 C   0  0  0  0  0  0  0  0  0  0  0  0
  141.2822   67.1817  228.2504 H   0  0  0  0  0  0  0  0  0  0  0  0
  141.1890   69.3620  228.4160 C   0  0  0  0  0  0  0  0  0  0  0  0
  141.7683   69.3998  229.3503 H   0  0  0  0  0  0  0  0  0  0  0  0
  140.7180   70.5570  227.8350 C   0  0  0  0  0  0  0  0  0  0  0  0
  140.9265   71.5256  228.3129 H   0  0  0  0  0  0  0  0  0  0  0  0
  139.9810   70.5010  226.6420 C   0  0  0  0  0  0  0  0  0  0  0  0
  139.6005   71.4179  226.1682 H   0  0  0  0  0  0  0  0  0  0  0  0
  139.7510   69.2810  226.0890 N   0  0  0  0  0  0  0  0  0  0  0  0
  139.1570   71.1370  223.8270 C   0  0  0  0  0  0  0  0  0  0  0  0
  140.2379   70.9521  223.9137 H   0  0  0  0  0  0  0  0  0  0  0  0
  138.7700   71.7920  224.6215 H   0  0  0  0  0  0  0  0  0  0  0  0
  138.8970   71.8620  222.4920 C   0  0  0  0  0  0  0  0  0  0  0  0
  137.9299   72.3822  222.5570 H   0  0  0  0  0  0  0  0  0  0  0  0
  138.8989   71.1022  221.6965 H   0  0  0  0  0  0  0  0  0  0  0  0
  139.9850   72.8900  222.1520 C   0  0  0  0  0  0  0  0  0  0  0  0
  140.2397   73.4570  223.0595 H   0  0  0  0  0  0  0  0  0  0  0  0
  139.5988   73.5623  221.3717 H   0  0  0  0  0  0  0  0  0  0  0  0
  141.2420   72.2050  221.6230 C   0  0  0  0  0  0  0  0  0  0  0  0
  141.8597   71.8684  222.4687 H   0  0  0  0  0  0  0  0  0  0  0  0
  140.9564   71.3378  221.0095 H   0  0  0  0  0  0  0  0  0  0  0  0
  141.8160   72.9151  221.0095 H   0  0  0  0  0  0  0  0  0  0  0  0
  1  2  1  0
  2  3  1  0
  3  4  2  0
  4  5  1  0
  5  6  1  6
  5  7  1  0
  7  8  2  0
  7  9  1  0
  9 10  2  0
  9 11  1  0
 11 12  1  0
 12 13  1  0
 12 14  1  0
 12 15  1  0
 15 16  1  0
 15 17  1  0
 15 18  1  0
  5 19  1  0
 19 20  1  0
 19 21  1  0
 19 22  1  0
 22 23  1  0
 22 24  1  0
 24 25  1  0
 24 26  1  0
 24 27  1  0
 27 28  1  0
 27 29  1  0
 27 30  1  0
 30 31  1  0
 30 32  1  0
 30 33  1  0
 33 34  1  0
 33 35  1  0
 33 36  1  0
 36 37  1  0
 36 38  1  0
  3 39  1  0
 39 40  1  6
 39 41  1  0
 41 42  2  0
 42 43  1  0
 43 44  2  0
 44 45  1  0
 45 46  1  0
 45 47  2  0
 47 48  1  0
 47 49  1  0
 49 50  1  0
 49 51  2  0
 51 52  1  0
 51 53  1  0
 39 54  1  0
 54 55  1  0
 54 56  1  0
 54 57  1  0
 57 58  1  0
 57 59  1  0
 57 60  1  0
 60 61  1  0
 60 62  1  0
 60 63  1  0
 63 64  1  0
 63 65  1  0
 63 66  1  0
 36 22  1  0
 53 41  1  0
 53 44  1  0
M  CHG  1  11  -1
M  END
>  <UniqueID>  (17) 
1

>  <SMILES>  (17) 
CCCC[C@H](/C(O)=N/[C@H](CC1CCCCC1)C(=O)C(=O)[N-]CC)c1nnc2ccccn12

>  <Energy>  (17) 
90.49375174549255

>  <Genealogy>  (17) 
CCCCC(C(=O)NC(CC1CCCCC1)C(=O)C(=O)[N-]CC)c1nnc2ccccn12 (protonated)
CCCCC(C(O)=NC(CC1CCCCC1)C(=O)C(=O)[N-]CC)c1nnc2ccccn12 (tautomer)
CCCC[C@H](C(O)=N[C@H](CC1CCCCC1)C(=O)C(=O)[N-]CC)c1nnc2ccccn12 (chirality)
CCCC[C@H](/C(O)=N/[C@H](CC1CCCCC1)C(=O)C(=O)[N-]CC)c1nnc2ccccn12 (cis-trans isomerization)
CCCC[C@H](/C(O)=N/[C@H](CC1CCCCC1)C(=O)C(=O)[N-]CC)c1nnc2ccccn12 (3D coordinates assigned)
CCCC[C@H](/C(O)=N/[C@H](CC1CCCCC1)C(=O)C(=O)[N-]CC)c1nnc2ccccn12 (nonaromatic ring conformer: 90.49375174549255 kcal/mol)

>  <smiles>  (17) 
CCCCC(C(=O)NC(CC1CCCCC1)C(=O)C(=O)NCC)c1nnc2ccccn12

>  <score_type>  (17) 
oracle

>  <origin>  (17) 
autodockgpu

>  <m_score__min__energy>  (17) 
-6.2599999999999998

>  <m_primary>  (17) 
energy

>  <meeko>  (17) 
{"free_energy": -6.26, "intermolecular_energy": -10.43, "internal_energy": -2.66, "cluster_size": 1, "cluster_id": 1, "rank_in_cluster": 1}

>  <energy>  (17) 
-4.18

>  <cluster_rmsd>  (17) 
1.74

>  <rmsd>  (17) 
269.61

>  <cluster>  (17) 
9

$$$$
NNKZOUMTYASKLJ-WHFSYHSSNA-M
     RDKit          3D

 66 68  0  0  0  0  0  0  0  0999 V2000
  138.7730   74.2480  222.7730 H   0  0  0  0  0  0  0  0  0  0  0  0
  139.6030   74.6830  222.3930 O   0  0  0  0  0  0  0  0  0  0  0  0
  139.7610   76.0680  222.2690 C   0  0  0  0  0  0  0  0  0  0  0  0
  138.7930   76.8950  222.5470 N   0  0  0  0  0  0  0  0  0  0  0  0
  137.4420   76.8780  221.9800 C   0  0  1  0  0  0  0  0  0  0  0  0
  137.4842   76.4765  220.9568 H   0  0  0  0  0  0  0  0  0  0  0  0
  136.5300   75.9530  222.7570 C   0  0  0  0  0  0  0  0  0  0  0  0
  135.9070   76.3850  223.7660 O   0  0  0  0  0  0  0  0  0  0  0  0
  136.3500   74.5480  222.3550 C   0  0  0  0  0  0  0  0  0  0  0  0
  137.1240   74.0260  221.5060 O   0  0  0  0  0  0  0  0  0  0  0  0
  135.2860   73.7810  222.9270 N   0  0  0  0  0  0  0  0  0  0  0  0
  135.3180   73.2440  224.2840 C   0  0  0  0  0  0  0  0  0  0  0  0
  134.9159   72.2201  224.2773 H   0  0  0  0  0  0  0  0  0  0  0  0
  136.3587   73.2416  224.6401 H   0  0  0  0  0  0  0  0  0  0  0  0
  134.4790   74.1060  225.2220 C   0  0  0  0  0  0  0  0  0  0  0  0
  134.7221   73.8562  226.2653 H   0  0  0  0  0  0  0  0  0  0  0  0
  134.6985   75.1681  225.0386 H   0  0  0  0  0  0  0  0  0  0  0  0
  133.4113   73.9153  225.0386 H   0  0  0  0  0  0  0  0  0  0  0  0
  136.8940   78.3210  221.9050 C   0  0  0  0  0  0  0  0  0  0  0  0
  137.3876   78.8275  221.0625 H   0  0  0  0  0  0  0  0  0  0  0  0
  135.8045   78.2245  221.7878 H   0  0  0  0  0  0  0  0  0  0  0  0
  137.1110   79.1860  223.1770 C   0  0  0  0  0  0  0  0  0  0  0  0
  137.2864   78.5015  224.0201 H   0  0  0  0  0  0  0  0  0  0  0  0
  135.8540   80.0330  223.5340 C   0  0  0  0  0  0  0  0  0  0  0  0
  135.3033   80.2442  222.6055 H   0  0  0  0  0  0  0  0  0  0  0  0
  135.2633   79.4424  224.2497 H   0  0  0  0  0  0  0  0  0  0  0  0
  136.1800   81.3740  224.2210 C   0  0  0  0  0  0  0  0  0  0  0  0
  136.3538   82.1386  223.4495 H   0  0  0  0  0  0  0  0  0  0  0  0
  135.3291   81.6518  224.8604 H   0  0  0  0  0  0  0  0  0  0  0  0
  137.4270   81.2610  225.1000 C   0  0  0  0  0  0  0  0  0  0  0  0
  137.6027   82.2269  225.5962 H   0  0  0  0  0  0  0  0  0  0  0  0
  137.2557   80.4649  225.8395 H   0  0  0  0  0  0  0  0  0  0  0  0
  138.6730   80.8900  224.2720 C   0  0  0  0  0  0  0  0  0  0  0  0
  139.1885   81.8179  223.9834 H   0  0  0  0  0  0  0  0  0  0  0  0
  139.3008   80.2437  224.9030 H   0  0  0  0  0  0  0  0  0  0  0  0
  138.3450   80.0950  222.9920 C   0  0  0  0  0  0  0  0  0  0  0  0
  138.1448   80.8038  222.1750 H   0  0  0  0  0  0  0  0  0  0  0  0
  139.2080   79.4538  222.7594 H   0  0  0  0  0  0  0  0  0  0  0  0
  141.0820   76.6350  221.8100 C   0  0  2  0  0  0  0  0  0  0  0  0
  141.8600   75.8898  222.0322 H   0  0  0  0  0  0  0  0  0  0  0  0
  141.3990   77.9020  222.5710 C   0  0  0  0  0  0  0  0  0  0  0  0
  141.8170   77.9090  223.8580 N   0  0  0  0  0  0  0  0  0  0  0  0
  142.0260   79.1750  224.2070 N   0  0  0  0  0  0  0  0  0  0  0  0
  141.7330   79.9140  223.1230 C   0  0  0  0  0  0  0  0  0  0  0  0
  141.8090   81.3000  223.0170 C   0  0  0  0  0  0  0  0  0  0  0  0
  142.1305   81.9211  223.8660 H   0  0  0  0  0  0  0  0  0  0  0  0
  141.4590   81.8750  221.7830 C   0  0  0  0  0  0  0  0  0  0  0  0
  141.5070   82.9665  221.6550 H   0  0  0  0  0  0  0  0  0  0  0  0
  141.0470   81.0610  220.7090 C   0  0  0  0  0  0  0  0  0  0  0  0
  140.7713   81.5135  219.7450 H   0  0  0  0  0  0  0  0  0  0  0  0
  140.9910   79.6690  220.8780 C   0  0  0  0  0  0  0  0  0  0  0  0
  140.6724   79.0111  220.0560 H   0  0  0  0  0  0  0  0  0  0  0  0
  141.3420   79.1580  222.0870 N   0  0  0  0  0  0  0  0  0  0  0  0
  141.1300   76.8600  220.2800 C   0  0  0  0  0  0  0  0  0  0  0  0
  140.5086   77.7357  220.0412 H   0  0  0  0  0  0  0  0  0  0  0  0
  140.7620   75.9339  219.8143 H   0  0  0  0  0  0  0  0  0  0  0  0
  142.5430   77.1040  219.7180 C   0  0  0  0  0  0  0  0  0  0  0  0
  143.2009   77.4127  220.5437 H   0  0  0  0  0  0  0  0  0  0  0  0
  142.4619   77.8840  218.9466 H   0  0  0  0  0  0  0  0  0  0  0  0
  143.1430   75.8580  219.0530 C   0  0  0  0  0  0  0  0  0  0  0  0
  143.9574   76.1663  218.3809 H   0  0  0  0  0  0  0  0  0  0  0  0
  142.3492   75.3463  218.4890 H   0  0  0  0  0  0  0  0  0  0  0  0
  143.6970   74.8910  220.0970 C   0  0  0  0  0  0  0  0  0  0  0  0
  143.4776   75.2740  221.1045 H   0  0  0  0  0  0  0  0  0  0  0  0
  143.2269   73.9047  219.9692 H   0  0  0  0  0  0  0  0  0  0  0  0
  144.7856   74.7977  219.9692 H   0  0  0  0  0  0  0  0  0  0  0  0
  1  2  1  0
  2  3  1  0
  3  4  2  0
  4  5  1  0
  5  6  1  6
  5  7  1  0
  7  8  2  0
  7  9  1  0
  9 10  2  0
  9 11  1  0
 11 12  1  0
 12 13  1  0
 12 14  1  0
 12 15  1  0
 15 16  1  0
 15 17  1  0
 15 18  1  0
  5 19  1  0
 19 20  1  0
 19 21  1  0
 19 22  1  0
 22 23  1  0
 22 24  1  0
 24 25  1  0
 24 26  1  0
 24 27  1  0
 27 28  1  0
 27 29  1  0
 27 30  1  0
 30 31  1  0
 30 32  1  0
 30 33  1  0
 33 34  1  0
 33 35  1  0
 33 36  1  0
 36 37  1  0
 36 38  1  0
  3 39  1  0
 39 40  1  6
 39 41  1  0
 41 42  2  0
 42 43  1  0
 43 44  2  0
 44 45  1  0
 45 46  1  0
 45 47  2  0
 47 48  1  0
 47 49  1  0
 49 50  1  0
 49 51  2  0
 51 52  1  0
 51 53  1  0
 39 54  1  0
 54 55  1  0
 54 56  1  0
 54 57  1  0
 57 58  1  0
 57 59  1  0
 57 60  1  0
 60 61  1  0
 60 62  1  0
 60 63  1  0
 63 64  1  0
 63 65  1  0
 63 66  1  0
 36 22  1  0
 53 41  1  0
 53 44  1  0
M  CHG  1  11  -1
M  END
>  <UniqueID>  (18) 
1

>  <SMILES>  (18) 
CCCC[C@H](/C(O)=N/[C@H](CC1CCCCC1)C(=O)C(=O)[N-]CC)c1nnc2ccccn12

>  <Energy>  (18) 
90.49375174549255

>  <Genealogy>  (18) 
CCCCC(C(=O)NC(CC1CCCCC1)C(=O)C(=O)[N-]CC)c1nnc2ccccn12 (protonated)
CCCCC(C(O)=NC(CC1CCCCC1)C(=O)C(=O)[N-]CC)c1nnc2ccccn12 (tautomer)
CCCC[C@H](C(O)=N[C@H](CC1CCCCC1)C(=O)C(=O)[N-]CC)c1nnc2ccccn12 (chirality)
CCCC[C@H](/C(O)=N/[C@H](CC1CCCCC1)C(=O)C(=O)[N-]CC)c1nnc2ccccn12 (cis-trans isomerization)
CCCC[C@H](/C(O)=N/[C@H](CC1CCCCC1)C(=O)C(=O)[N-]CC)c1nnc2ccccn12 (3D coordinates assigned)
CCCC[C@H](/C(O)=N/[C@H](CC1CCCCC1)C(=O)C(=O)[N-]CC)c1nnc2ccccn12 (nonaromatic ring conformer: 90.49375174549255 kcal/mol)

>  <smiles>  (18) 
CCCCC(C(=O)NC(CC1CCCCC1)C(=O)C(=O)NCC)c1nnc2ccccn12

>  <score_type>  (18) 
oracle

>  <origin>  (18) 
autodockgpu

>  <m_score__min__energy>  (18) 
-6.2599999999999998

>  <m_primary>  (18) 
energy

>  <meeko>  (18) 
{"free_energy": -5.14, "intermolecular_energy": -9.32, "internal_energy": -2.94, "cluster_size": 3, "cluster_id": 9, "rank_in_cluster": 1}

>  <energy>  (18) 
-4.96

>  <cluster_rmsd>  (18) 
0.0

>  <rmsd>  (18) 
269.73

>  <cluster>  (18) 
10

$$$$
NNKZOUMTYASKLJ-WHFSYHSSNA-M
     RDKit          3D

 66 68  0  0  0  0  0  0  0  0999 V2000
  138.6020   74.2540  222.7330 H   0  0  0  0  0  0  0  0  0  0  0  0
  139.5370   74.4890  222.4250 O   0  0  0  0  0  0  0  0  0  0  0  0
  139.8630   75.7010  221.8050 C   0  0  0  0  0  0  0  0  0  0  0  0
  138.9770   76.6410  221.6310 N   0  0  0  0  0  0  0  0  0  0  0  0
  138.3830   77.0550  220.3570 C   0  0  1  0  0  0  0  0  0  0  0  0
  139.1558   77.0387  219.5743 H   0  0  0  0  0  0  0  0  0  0  0  0
  137.3110   76.0850  219.9090 C   0  0  0  0  0  0  0  0  0  0  0  0
  137.2760   75.6980  218.7090 O   0  0  0  0  0  0  0  0  0  0  0  0
  136.3010   75.5790  220.8530 C   0  0  0  0  0  0  0  0  0  0  0  0
  135.1130   76.0000  220.7990 O   0  0  0  0  0  0  0  0  0  0  0  0
  136.6780   74.6100  221.8370 N   0  0  0  0  0  0  0  0  0  0  0  0
  135.9420   74.3910  223.0780 C   0  0  0  0  0  0  0  0  0  0  0  0
  134.9360   74.0150  222.8402 H   0  0  0  0  0  0  0  0  0  0  0  0
  136.4877   73.6572  223.6893 H   0  0  0  0  0  0  0  0  0  0  0  0
  135.8180   75.6920  223.8650 C   0  0  0  0  0  0  0  0  0  0  0  0
  135.8390   75.4721  224.9426 H   0  0  0  0  0  0  0  0  0  0  0  0
  136.6569   76.3562  223.6099 H   0  0  0  0  0  0  0  0  0  0  0  0
  134.8687   76.1858  223.6099 H   0  0  0  0  0  0  0  0  0  0  0  0
  137.8570   78.5020  220.4780 C   0  0  0  0  0  0  0  0  0  0  0  0
  138.2530   79.0782  219.6288 H   0  0  0  0  0  0  0  0  0  0  0  0
  136.7598   78.4236  220.4890 H   0  0  0  0  0  0  0  0  0  0  0  0
  138.2430   79.2490  221.7840 C   0  0  0  0  0  0  0  0  0  0  0  0
  139.2250   78.8718  222.1054 H   0  0  0  0  0  0  0  0  0  0  0  0
  137.2460   78.9610  222.9440 C   0  0  0  0  0  0  0  0  0  0  0  0
  136.2612   78.7389  222.5072 H   0  0  0  0  0  0  0  0  0  0  0  0
  137.6557   78.1143  223.5143 H   0  0  0  0  0  0  0  0  0  0  0  0
  137.0850   80.1310  223.9340 C   0  0  0  0  0  0  0  0  0  0  0  0
  136.3025   80.8091  223.5628 H   0  0  0  0  0  0  0  0  0  0  0  0
  136.8098   79.7190  224.9161 H   0  0  0  0  0  0  0  0  0  0  0  0
  138.3910   80.9140  224.0880 C   0  0  0  0  0  0  0  0  0  0  0  0
  138.2415   81.7159  224.8259 H   0  0  0  0  0  0  0  0  0  0  0  0
  139.1736   80.2158  224.4196 H   0  0  0  0  0  0  0  0  0  0  0  0
  138.8380   81.5400  222.7530 C   0  0  0  0  0  0  0  0  0  0  0  0
  138.4464   82.5666  222.7014 H   0  0  0  0  0  0  0  0  0  0  0  0
  139.9375   81.5116  222.7342 H   0  0  0  0  0  0  0  0  0  0  0  0
  138.3430   80.7660  221.5150 C   0  0  0  0  0  0  0  0  0  0  0  0
  137.3486   81.1433  221.2343 H   0  0  0  0  0  0  0  0  0  0  0  0
  139.0702   80.9204  220.7043 H   0  0  0  0  0  0  0  0  0  0  0  0
  141.2730   75.9440  221.3270 C   0  0  2  0  0  0  0  0  0  0  0  0
  141.9570   75.5847  222.1100 H   0  0  0  0  0  0  0  0  0  0  0  0
  141.5090   77.4230  221.1260 C   0  0  0  0  0  0  0  0  0  0  0  0
  141.5800   78.0030  219.9050 N   0  0  0  0  0  0  0  0  0  0  0  0
  141.7700   79.3060  220.0890 N   0  0  0  0  0  0  0  0  0  0  0  0
  141.8090   79.4950  221.4190 C   0  0  0  0  0  0  0  0  0  0  0  0
  141.9860   80.7050  222.0830 C   0  0  0  0  0  0  0  0  0  0  0  0
  142.1170   81.6465  221.5294 H   0  0  0  0  0  0  0  0  0  0  0  0
  141.9910   80.6780  223.4880 C   0  0  0  0  0  0  0  0  0  0  0  0
  142.1262   81.6127  224.0519 H   0  0  0  0  0  0  0  0  0  0  0  0
  141.8240   79.4620  224.1790 C   0  0  0  0  0  0  0  0  0  0  0  0
  141.8299   79.4441  225.2788 H   0  0  0  0  0  0  0  0  0  0  0  0
  141.6500   78.2730  223.4530 C   0  0  0  0  0  0  0  0  0  0  0  0
  141.5192   77.3094  223.9672 H   0  0  0  0  0  0  0  0  0  0  0  0
  141.6480   78.3480  222.0960 N   0  0  0  0  0  0  0  0  0  0  0  0
  141.6150   75.1320  220.0550 C   0  0  0  0  0  0  0  0  0  0  0  0
  141.9238   75.8372  219.2693 H   0  0  0  0  0  0  0  0  0  0  0  0
  140.7097   74.5657  219.7911 H   0  0  0  0  0  0  0  0  0  0  0  0
  142.7410   74.0980  220.2440 C   0  0  0  0  0  0  0  0  0  0  0  0
  142.6251   73.3096  219.4857 H   0  0  0  0  0  0  0  0  0  0  0  0
  142.6552   73.6979  221.2651 H   0  0  0  0  0  0  0  0  0  0  0  0
  144.1410   74.7110  220.1040 C   0  0  0  0  0  0  0  0  0  0  0  0
  144.1622   75.6808  220.6227 H   0  0  0  0  0  0  0  0  0  0  0  0
  144.3607   74.8404  219.0340 H   0  0  0  0  0  0  0  0  0  0  0  0
  145.2040   73.7970  220.7110 C   0  0  0  0  0  0  0  0  0  0  0  0
  145.1467   73.8463  221.8084 H   0  0  0  0  0  0  0  0  0  0  0  0
  145.0298   72.7623  220.3808 H   0  0  0  0  0  0  0  0  0  0  0  0
  146.2009   74.1243  220.3808 H   0  0  0  0  0  0  0  0  0  0  0  0
  1  2  1  0
  2  3  1  0
  3  4  2  0
  4  5  1  0
  5  6  1  6
  5  7  1  0
  7  8  2  0
  7  9  1  0
  9 10  2  0
  9 11  1  0
 11 12  1  0
 12 13  1  0
 12 14  1  0
 12 15  1  0
 15 16  1  0
 15 17  1  0
 15 18  1  0
  5 19  1  0
 19 20  1  0
 19 21  1  0
 19 22  1  0
 22 23  1  0
 22 24  1  0
 24 25  1  0
 24 26  1  0
 24 27  1  0
 27 28  1  0
 27 29  1  0
 27 30  1  0
 30 31  1  0
 30 32  1  0
 30 33  1  0
 33 34  1  0
 33 35  1  0
 33 36  1  0
 36 37  1  0
 36 38  1  0
  3 39  1  0
 39 40  1  1
 39 41  1  0
 41 42  2  0
 42 43  1  0
 43 44  2  0
 44 45  1  0
 45 46  1  0
 45 47  2  0
 47 48  1  0
 47 49  1  0
 49 50  1  0
 49 51  2  0
 51 52  1  0
 51 53  1  0
 39 54  1  0
 54 55  1  0
 54 56  1  0
 54 57  1  0
 57 58  1  0
 57 59  1  0
 57 60  1  0
 60 61  1  0
 60 62  1  0
 60 63  1  0
 63 64  1  0
 63 65  1  0
 63 66  1  0
 36 22  1  0
 53 41  1  0
 53 44  1  0
M  CHG  1  11  -1
M  END
>  <UniqueID>  (19) 
1

>  <SMILES>  (19) 
CCCC[C@H](/C(O)=N/[C@H](CC1CCCCC1)C(=O)C(=O)[N-]CC)c1nnc2ccccn12

>  <Energy>  (19) 
90.49375174549255

>  <Genealogy>  (19) 
CCCCC(C(=O)NC(CC1CCCCC1)C(=O)C(=O)[N-]CC)c1nnc2ccccn12 (protonated)
CCCCC(C(O)=NC(CC1CCCCC1)C(=O)C(=O)[N-]CC)c1nnc2ccccn12 (tautomer)
CCCC[C@H](C(O)=N[C@H](CC1CCCCC1)C(=O)C(=O)[N-]CC)c1nnc2ccccn12 (chirality)
CCCC[C@H](/C(O)=N/[C@H](CC1CCCCC1)C(=O)C(=O)[N-]CC)c1nnc2ccccn12 (cis-trans isomerization)
CCCC[C@H](/C(O)=N/[C@H](CC1CCCCC1)C(=O)C(=O)[N-]CC)c1nnc2ccccn12 (3D coordinates assigned)
CCCC[C@H](/C(O)=N/[C@H](CC1CCCCC1)C(=O)C(=O)[N-]CC)c1nnc2ccccn12 (nonaromatic ring conformer: 90.49375174549255 kcal/mol)

>  <smiles>  (19) 
CCCCC(C(=O)NC(CC1CCCCC1)C(=O)C(=O)NCC)c1nnc2ccccn12

>  <score_type>  (19) 
oracle

>  <origin>  (19) 
autodockgpu

>  <m_score__min__energy>  (19) 
-6.2599999999999998

>  <m_primary>  (19) 
energy

>  <meeko>  (19) 
{"free_energy": -4.18, "intermolecular_energy": -8.36, "internal_energy": -3.9, "cluster_size": 3, "cluster_id": 9, "rank_in_cluster": 3}

>  <energy>  (19) 
-4.85

>  <cluster_rmsd>  (19) 
0.0

>  <rmsd>  (19) 
269.38

>  <cluster>  (19) 
11

$$$$
NNKZOUMTYASKLJ-WHFSYHSSNA-M
     RDKit          3D

 66 68  0  0  0  0  0  0  0  0999 V2000
  139.1740   73.7130  222.7750 H   0  0  0  0  0  0  0  0  0  0  0  0
  140.0350   73.8370  222.2590 O   0  0  0  0  0  0  0  0  0  0  0  0
  140.4430   75.0630  221.7200 C   0  0  0  0  0  0  0  0  0  0  0  0
  140.1640   76.1940  222.3040 N   0  0  0  0  0  0  0  0  0  0  0  0
  138.9460   76.9900  222.1280 C   0  0  1  0  0  0  0  0  0  0  0  0
  138.8336   77.2481  221.0646 H   0  0  0  0  0  0  0  0  0  0  0  0
  137.7110   76.1980  222.5000 C   0  0  0  0  0  0  0  0  0  0  0  0
  137.6880   74.9490  222.3260 O   0  0  0  0  0  0  0  0  0  0  0  0
  136.5260   76.8610  223.0700 C   0  0  0  0  0  0  0  0  0  0  0  0
  135.8400   76.2840  223.9570 O   0  0  0  0  0  0  0  0  0  0  0  0
  136.1540   78.1630  222.6050 N   0  0  0  0  0  0  0  0  0  0  0  0
  135.5380   79.1780  223.4530 C   0  0  0  0  0  0  0  0  0  0  0  0
  134.7042   79.6462  222.9092 H   0  0  0  0  0  0  0  0  0  0  0  0
  135.1705   78.6976  224.3718 H   0  0  0  0  0  0  0  0  0  0  0  0
  136.5550   80.2500  223.8310 C   0  0  0  0  0  0  0  0  0  0  0  0
  136.6226   80.3212  224.9266 H   0  0  0  0  0  0  0  0  0  0  0  0
  137.5395   79.9828  223.4195 H   0  0  0  0  0  0  0  0  0  0  0  0
  136.2363   81.2191  223.4195 H   0  0  0  0  0  0  0  0  0  0  0  0
  139.0670   78.3060  222.9280 C   0  0  0  0  0  0  0  0  0  0  0  0
  138.1842   78.9221  222.7020 H   0  0  0  0  0  0  0  0  0  0  0  0
  139.1436   78.0104  223.9848 H   0  0  0  0  0  0  0  0  0  0  0  0
  140.3330   79.1570  222.6310 C   0  0  0  0  0  0  0  0  0  0  0  0
  140.5957   79.0060  221.5736 H   0  0  0  0  0  0  0  0  0  0  0  0
  141.5610   78.7000  223.4710 C   0  0  0  0  0  0  0  0  0  0  0  0
  141.1940   78.2611  224.4105 H   0  0  0  0  0  0  0  0  0  0  0  0
  142.1173   77.9770  222.8563 H   0  0  0  0  0  0  0  0  0  0  0  0
  142.5390   79.8390  223.8170 C   0  0  0  0  0  0  0  0  0  0  0  0
  142.2082   80.3250  224.7467 H   0  0  0  0  0  0  0  0  0  0  0  0
  143.5438   79.4083  223.9386 H   0  0  0  0  0  0  0  0  0  0  0  0
  142.5940   80.8840  222.7010 C   0  0  0  0  0  0  0  0  0  0  0  0
  143.3270   81.6580  222.9724 H   0  0  0  0  0  0  0  0  0  0  0  0
  142.8848   80.3773  221.7690 H   0  0  0  0  0  0  0  0  0  0  0  0
  141.2220   81.5500  222.4800 C   0  0  0  0  0  0  0  0  0  0  0  0
  141.1794   82.4686  223.0836 H   0  0  0  0  0  0  0  0  0  0  0  0
  141.1309   81.7544  221.4030 H   0  0  0  0  0  0  0  0  0  0  0  0
  140.0320   80.6510  222.8740 C   0  0  0  0  0  0  0  0  0  0  0  0
  139.8119   80.8002  223.9414 H   0  0  0  0  0  0  0  0  0  0  0  0
  139.1718   80.9312  222.2483 H   0  0  0  0  0  0  0  0  0  0  0  0
  141.2330   75.0930  220.4350 C   0  0  2  0  0  0  0  0  0  0  0  0
  140.5157   75.1595  219.6037 H   0  0  0  0  0  0  0  0  0  0  0  0
  142.0280   73.8180  220.2810 C   0  0  0  0  0  0  0  0  0  0  0  0
  141.4590   72.6130  220.0460 N   0  0  0  0  0  0  0  0  0  0  0  0
  142.4380   71.7180  219.9420 N   0  0  0  0  0  0  0  0  0  0  0  0
  143.5850   72.3980  220.1130 C   0  0  0  0  0  0  0  0  0  0  0  0
  144.8750   71.8740  220.0830 C   0  0  0  0  0  0  0  0  0  0  0  0
  145.0524   70.8024  219.9094 H   0  0  0  0  0  0  0  0  0  0  0  0
  145.9410   72.7670  220.2830 C   0  0  0  0  0  0  0  0  0  0  0  0
  146.9762   72.3954  220.2654 H   0  0  0  0  0  0  0  0  0  0  0  0
  145.6920   74.1360  220.5060 C   0  0  0  0  0  0  0  0  0  0  0  0
  146.5285   74.8328  220.6632 H   0  0  0  0  0  0  0  0  0  0  0  0
  144.3690   74.6040  220.5260 C   0  0  0  0  0  0  0  0  0  0  0  0
  144.1472   75.6672  220.7001 H   0  0  0  0  0  0  0  0  0  0  0  0
  143.3700   73.7050  220.3240 N   0  0  0  0  0  0  0  0  0  0  0  0
  142.1340   76.3460  220.3240 C   0  0  0  0  0  0  0  0  0  0  0  0
  143.1771   76.0119  220.2230 H   0  0  0  0  0  0  0  0  0  0  0  0
  141.9602   76.9394  221.2338 H   0  0  0  0  0  0  0  0  0  0  0  0
  141.8040   77.2630  219.1310 C   0  0  0  0  0  0  0  0  0  0  0  0
  140.9112   76.8702  218.6225 H   0  0  0  0  0  0  0  0  0  0  0  0
  142.6815   77.2714  218.4677 H   0  0  0  0  0  0  0  0  0  0  0  0
  141.5300   78.7130  219.5520 C   0  0  0  0  0  0  0  0  0  0  0  0
  141.9407   78.8786  220.5589 H   0  0  0  0  0  0  0  0  0  0  0  0
  140.4427   78.8794  219.5463 H   0  0  0  0  0  0  0  0  0  0  0  0
  142.1770   79.6980  218.5810 C   0  0  0  0  0  0  0  0  0  0  0  0
  142.6944   80.4857  219.1482 H   0  0  0  0  0  0  0  0  0  0  0  0
  142.9020   79.1658  217.9476 H   0  0  0  0  0  0  0  0  0  0  0  0
  141.4006   80.1520  217.9476 H   0  0  0  0  0  0  0  0  0  0  0  0
  1  2  1  0
  2  3  1  0
  3  4  2  0
  4  5  1  0
  5  6  1  6
  5  7  1  0
  7  8  2  0
  7  9  1  0
  9 10  2  0
  9 11  1  0
 11 12  1  0
 12 13  1  0
 12 14  1  0
 12 15  1  0
 15 16  1  0
 15 17  1  0
 15 18  1  0
  5 19  1  0
 19 20  1  0
 19 21  1  0
 19 22  1  0
 22 23  1  0
 22 24  1  0
 24 25  1  0
 24 26  1  0
 24 27  1  0
 27 28  1  0
 27 29  1  0
 27 30  1  0
 30 31  1  0
 30 32  1  0
 30 33  1  0
 33 34  1  0
 33 35  1  0
 33 36  1  0
 36 37  1  0
 36 38  1  0
  3 39  1  0
 39 40  1  6
 39 41  1  0
 41 42  2  0
 42 43  1  0
 43 44  2  0
 44 45  1  0
 45 46  1  0
 45 47  2  0
 47 48  1  0
 47 49  1  0
 49 50  1  0
 49 51  2  0
 51 52  1  0
 51 53  1  0
 39 54  1  0
 54 55  1  0
 54 56  1  0
 54 57  1  0
 57 58  1  0
 57 59  1  0
 57 60  1  0
 60 61  1  0
 60 62  1  0
 60 63  1  0
 63 64  1  0
 63 65  1  0
 63 66  1  0
 36 22  1  0
 53 41  1  0
 53 44  1  0
M  CHG  1  11  -1
M  END
>  <UniqueID>  (20) 
1

>  <SMILES>  (20) 
CCCC[C@H](/C(O)=N/[C@H](CC1CCCCC1)C(=O)C(=O)[N-]CC)c1nnc2ccccn12

>  <Energy>  (20) 
90.49375174549255

>  <Genealogy>  (20) 
CCCCC(C(=O)NC(CC1CCCCC1)C(=O)C(=O)[N-]CC)c1nnc2ccccn12 (protonated)
CCCCC(C(O)=NC(CC1CCCCC1)C(=O)C(=O)[N-]CC)c1nnc2ccccn12 (tautomer)
CCCC[C@H](C(O)=N[C@H](CC1CCCCC1)C(=O)C(=O)[N-]CC)c1nnc2ccccn12 (chirality)
CCCC[C@H](/C(O)=N/[C@H](CC1CCCCC1)C(=O)C(=O)[N-]CC)c1nnc2ccccn12 (cis-trans isomerization)
CCCC[C@H](/C(O)=N/[C@H](CC1CCCCC1)C(=O)C(=O)[N-]CC)c1nnc2ccccn12 (3D coordinates assigned)
CCCC[C@H](/C(O)=N/[C@H](CC1CCCCC1)C(=O)C(=O)[N-]CC)c1nnc2ccccn12 (nonaromatic ring conformer: 90.49375174549255 kcal/mol)

>  <smiles>  (20) 
CCCCC(C(=O)NC(CC1CCCCC1)C(=O)C(=O)NCC)c1nnc2ccccn12

>  <score_type>  (20) 
oracle

>  <origin>  (20) 
autodockgpu

>  <m_score__min__energy>  (20) 
-6.2599999999999998

>  <m_primary>  (20) 
energy

>  <meeko>  (20) 
{"free_energy": -5.81, "intermolecular_energy": -9.98, "internal_energy": -2.4, "cluster_size": 2, "cluster_id": 5, "rank_in_cluster": 1}

>  <energy>  (20) 
-4.33

>  <cluster_rmsd>  (20) 
0.0

>  <rmsd>  (20) 
268.51

>  <cluster>  (20) 
12

$$$$
NNKZOUMTYASKLJ-JYRSORQKNA-M
     RDKit          3D

 66 68  0  0  0  0  0  0  0  0999 V2000
  139.8250   74.4550  221.6210 C   0  0  0  0  0  0  0  0  0  0  0  0
  141.0570   73.5570  221.5870 C   0  0  0  0  0  0  0  0  0  0  0  0
  140.6690   72.0810  221.7460 C   0  0  0  0  0  0  0  0  0  0  0  0
  140.3030   71.7050  223.1940 C   0  0  0  0  0  0  0  0  0  0  0  0
  139.0980   70.7370  223.3020 C   0  0  2  0  0  0  0  0  0  0  0  0
  137.7660   71.4460  223.2510 C   0  0  0  0  0  0  0  0  0  0  0  0
  137.6500   72.4730  222.5280 O   0  0  0  0  0  0  0  0  0  0  0  0
  136.6300   70.9480  223.9750 N   0  0  0  0  0  0  0  0  0  0  0  0
  135.3130   71.5850  223.8830 C   0  0  2  0  0  0  0  0  0  0  0  0
  135.1730   72.7380  224.9110 C   0  0  0  0  0  0  0  0  0  0  0  0
  134.8610   74.1350  224.3140 C   0  0  0  0  0  0  0  0  0  0  0  0
  134.7240   75.2360  225.3820 C   0  0  0  0  0  0  0  0  0  0  0  0
  134.2200   76.5550  224.7690 C   0  0  0  0  0  0  0  0  0  0  0  0
  134.7820   76.8340  223.3600 C   0  0  0  0  0  0  0  0  0  0  0  0
  136.0750   76.0590  223.0850 C   0  0  0  0  0  0  0  0  0  0  0  0
  135.8530   74.5370  223.1860 C   0  0  0  0  0  0  0  0  0  0  0  0
  134.2490   70.5460  224.1350 C   0  0  0  0  0  0  0  0  0  0  0  0
  133.2230   70.5350  223.4020 O   0  0  0  0  0  0  0  0  0  0  0  0
  134.4230   69.5180  225.1870 C   0  0  0  0  0  0  0  0  0  0  0  0
  135.1290   68.5040  224.9440 O   0  0  0  0  0  0  0  0  0  0  0  0
  133.8310   69.6340  226.4880 N   0  0  0  0  0  0  0  0  0  0  0  0
  134.0050   70.7550  227.4040 C   0  0  0  0  0  0  0  0  0  0  0  0
  132.9250   71.7950  227.1530 C   0  0  0  0  0  0  0  0  0  0  0  0
  139.1420   69.8150  224.5030 C   0  0  0  0  0  0  0  0  0  0  0  0
  138.4490   68.6530  224.5300 N   0  0  0  0  0  0  0  0  0  0  0  0
  138.6190   68.1010  225.7260 N   0  0  0  0  0  0  0  0  0  0  0  0
  139.4070   68.9430  226.4150 C   0  0  0  0  0  0  0  0  0  0  0  0
  139.8460   68.7710  227.7250 C   0  0  0  0  0  0  0  0  0  0  0  0
  140.6640   69.7700  228.2710 C   0  0  0  0  0  0  0  0  0  0  0  0
  141.0120   70.8990  227.5050 C   0  0  0  0  0  0  0  0  0  0  0  0
  140.5380   71.0180  226.1900 C   0  0  0  0  0  0  0  0  0  0  0  0
  139.7490   70.0240  225.6950 N   0  0  0  0  0  0  0  0  0  0  0  0
  139.5474   74.6573  222.6660 H   0  0  0  0  0  0  0  0  0  0  0  0
  140.0485   75.4035  221.1108 H   0  0  0  0  0  0  0  0  0  0  0  0
  138.9904   73.9519  221.1108 H   0  0  0  0  0  0  0  0  0  0  0  0
  141.5730   73.6912  220.6249 H   0  0  0  0  0  0  0  0  0  0  0  0
  141.7166   73.8368  222.4217 H   0  0  0  0  0  0  0  0  0  0  0  0
  139.8019   71.8756  221.1011 H   0  0  0  0  0  0  0  0  0  0  0  0
  141.5450   71.4792  221.4624 H   0  0  0  0  0  0  0  0  0  0  0  0
  141.1765   71.2249  223.6593 H   0  0  0  0  0  0  0  0  0  0  0  0
  140.0135   72.6358  223.7038 H   0  0  0  0  0  0  0  0  0  0  0  0
  139.1961   70.1060  222.4063 H   0  0  0  0  0  0  0  0  0  0  0  0
  136.7130   70.0420  224.4830 H   0  0  0  0  0  0  0  0  0  0  0  0
  135.1971   72.0135  222.8765 H   0  0  0  0  0  0  0  0  0  0  0  0
  134.3594   72.4767  225.6036 H   0  0  0  0  0  0  0  0  0  0  0  0
  136.1567   72.8307  225.3945 H   0  0  0  0  0  0  0  0  0  0  0  0
  133.8695   74.0389  223.8474 H   0  0  0  0  0  0  0  0  0  0  0  0
  134.0103   74.9027  226.1498 H   0  0  0  0  0  0  0  0  0  0  0  0
  135.7159   75.4161  225.8221 H   0  0  0  0  0  0  0  0  0  0  0  0
  133.1228   76.5115  224.7037 H   0  0  0  0  0  0  0  0  0  0  0  0
  134.5676   77.3687  225.4225 H   0  0  0  0  0  0  0  0  0  0  0  0
  134.0285   76.5406  222.6143 H   0  0  0  0  0  0  0  0  0  0  0  0
  135.0135   77.9075  223.2968 H   0  0  0  0  0  0  0  0  0  0  0  0
  136.4292   76.3022  222.0724 H   0  0  0  0  0  0  0  0  0  0  0  0
  136.8196   76.3503  223.8405 H   0  0  0  0  0  0  0  0  0  0  0  0
  135.4545   74.1776  222.2258 H   0  0  0  0  0  0  0  0  0  0  0  0
  136.8243   74.0808  223.4277 H   0  0  0  0  0  0  0  0  0  0  0  0
  133.9316   70.3947  228.4407 H   0  0  0  0  0  0  0  0  0  0  0  0
  134.9932   71.2094  227.2396 H   0  0  0  0  0  0  0  0  0  0  0  0
  132.5412   72.1646  228.1153 H   0  0  0  0  0  0  0  0  0  0  0  0
  133.3492   72.6334  226.5810 H   0  0  0  0  0  0  0  0  0  0  0  0
  132.1032   71.3395  226.5810 H   0  0  0  0  0  0  0  0  0  0  0  0
  139.5615   67.8840  228.3100 H   0  0  0  0  0  0  0  0  0  0  0  0
  141.0354   69.6715  229.3017 H   0  0  0  0  0  0  0  0  0  0  0  0
  141.6520   71.6834  227.9353 H   0  0  0  0  0  0  0  0  0  0  0  0
  140.7969   71.8919  225.5742 H   0  0  0  0  0  0  0  0  0  0  0  0
  1  2  1  0
  2  3  1  0
  3  4  1  0
  4  5  1  0
  5  6  1  0
  6  7  2  0
  6  8  1  0
  8  9  1  0
  9 10  1  0
 10 11  1  0
 11 12  1  0
 12 13  1  0
 13 14  1  0
 14 15  1  0
 15 16  1  0
  9 17  1  0
 17 18  2  0
 17 19  1  0
 19 20  2  0
 19 21  1  0
 21 22  1  0
 22 23  1  0
  5 24  1  0
 24 25  2  0
 25 26  1  0
 26 27  2  0
 27 28  1  0
 28 29  2  0
 29 30  1  0
 30 31  2  0
 31 32  1  0
 16 11  1  0
 32 24  1  0
 32 27  1  0
  1 33  1  0
  1 34  1  0
  1 35  1  0
  2 36  1  0
  2 37  1  0
  3 38  1  0
  3 39  1  0
  4 40  1  0
  4 41  1  0
  5 42  1  6
  8 43  1  0
  9 44  1  6
 10 45  1  0
 10 46  1  0
 11 47  1  0
 12 48  1  0
 12 49  1  0
 13 50  1  0
 13 51  1  0
 14 52  1  0
 14 53  1  0
 15 54  1  0
 15 55  1  0
 16 56  1  0
 16 57  1  0
 22 58  1  0
 22 59  1  0
 23 60  1  0
 23 61  1  0
 23 62  1  0
 28 63  1  0
 29 64  1  0
 30 65  1  0
 31 66  1  0
M  CHG  1  21  -1
M  END
>  <UniqueID>  (21) 
2

>  <SMILES>  (21) 
CCCC[C@H](C(=O)N[C@H](CC1CCCCC1)C(=O)C(=O)[N-]CC)c1nnc2ccccn12

>  <Energy>  (21) 
94.28438007694615

>  <Genealogy>  (21) 
CCCCC(C(=O)NC(CC1CCCCC1)C(=O)C(=O)[N-]CC)c1nnc2ccccn12 (protonated)
CCCC[C@H](C(=O)N[C@H](CC1CCCCC1)C(=O)C(=O)[N-]CC)c1nnc2ccccn12 (chirality)
CCCC[C@H](C(=O)N[C@H](CC1CCCCC1)C(=O)C(=O)[N-]CC)c1nnc2ccccn12 (3D coordinates assigned)
CCCC[C@H](C(=O)N[C@H](CC1CCCCC1)C(=O)C(=O)[N-]CC)c1nnc2ccccn12 (nonaromatic ring conformer: 94.28438007694615 kcal/mol)

>  <smiles>  (21) 
CCCCC(C(=O)NC(CC1CCCCC1)C(=O)C(=O)NCC)c1nnc2ccccn12

>  <score_type>  (21) 
oracle

>  <origin>  (21) 
autodockgpu

>  <m_score__min__energy>  (21) 
-7.4000000000000004

>  <m_primary>  (21) 
energy

>  <meeko>  (21) 
{"free_energy": -6.21, "intermolecular_energy": -9.79, "internal_energy": -3.31, "cluster_size": 5, "cluster_id": 1, "rank_in_cluster": 4}

>  <energy>  (21) 
-7.4

>  <cluster_rmsd>  (21) 
0.0

>  <rmsd>  (21) 
270.3

>  <cluster>  (21) 
1

$$$$
NNKZOUMTYASKLJ-JYRSORQKNA-M
     RDKit          3D

 66 68  0  0  0  0  0  0  0  0999 V2000
  142.9680   80.3230  223.3420 C   0  0  0  0  0  0  0  0  0  0  0  0
  141.6020   79.8750  222.8310 C   0  0  0  0  0  0  0  0  0  0  0  0
  141.4140   80.2520  221.3560 C   0  0  0  0  0  0  0  0  0  0  0  0
  141.1730   79.0330  220.4460 C   0  0  0  0  0  0  0  0  0  0  0  0
  141.7590   77.7120  221.0050 C   0  0  2  0  0  0  0  0  0  0  0  0
  142.5890   76.9610  219.9920 C   0  0  0  0  0  0  0  0  0  0  0  0
  142.8860   77.5280  218.9050 O   0  0  0  0  0  0  0  0  0  0  0  0
  143.0750   75.6370  220.2640 N   0  0  0  0  0  0  0  0  0  0  0  0
  143.9390   74.9200  219.3210 C   0  0  2  0  0  0  0  0  0  0  0  0
  143.1120   74.2840  218.1730 C   0  0  0  0  0  0  0  0  0  0  0  0
  141.6940   73.7890  218.5630 C   0  0  0  0  0  0  0  0  0  0  0  0
  141.6240   73.2060  219.9860 C   0  0  0  0  0  0  0  0  0  0  0  0
  140.2600   72.5490  220.2590 C   0  0  0  0  0  0  0  0  0  0  0  0
  139.0750   73.2960  219.6120 C   0  0  0  0  0  0  0  0  0  0  0  0
  139.4110   74.7580  219.2970 C   0  0  0  0  0  0  0  0  0  0  0  0
  140.5990   74.8660  218.3200 C   0  0  0  0  0  0  0  0  0  0  0  0
  144.6880   73.8430  220.0660 C   0  0  0  0  0  0  0  0  0  0  0  0
  144.2250   73.4270  221.1620 O   0  0  0  0  0  0  0  0  0  0  0  0
  145.9170   73.2400  219.4990 C   0  0  0  0  0  0  0  0  0  0  0  0
  147.0340   73.7530  219.7720 O   0  0  0  0  0  0  0  0  0  0  0  0
  145.8920   72.0780  218.6590 N   0  0  0  0  0  0  0  0  0  0  0  0
  145.1300   70.8610  218.9140 C   0  0  0  0  0  0  0  0  0  0  0  0
  146.0690   69.6660  218.9500 C   0  0  0  0  0  0  0  0  0  0  0  0
  140.7310   76.7820  221.6160 C   0  0  0  0  0  0  0  0  0  0  0  0
  141.0220   75.4900  221.8970 N   0  0  0  0  0  0  0  0  0  0  0  0
  139.9170   74.9100  222.3490 N   0  0  0  0  0  0  0  0  0  0  0  0
  138.9640   75.8560  222.3270 C   0  0  0  0  0  0  0  0  0  0  0  0
  137.6360   75.6940  222.7140 C   0  0  0  0  0  0  0  0  0  0  0  0
  136.7920   76.8080  222.6120 C   0  0  0  0  0  0  0  0  0  0  0  0
  137.2880   78.0330  222.1300 C   0  0  0  0  0  0  0  0  0  0  0  0
  138.6360   78.1360  221.7540 C   0  0  0  0  0  0  0  0  0  0  0  0
  139.4250   77.0320  221.8710 N   0  0  0  0  0  0  0  0  0  0  0  0
  142.9662   80.3224  224.4420 H   0  0  0  0  0  0  0  0  0  0  0  0
  143.7412   79.6314  222.9762 H   0  0  0  0  0  0  0  0  0  0  0  0
  143.1814   81.3382  222.9762 H   0  0  0  0  0  0  0  0  0  0  0  0
  141.5193   78.7832  222.9362 H   0  0  0  0  0  0  0  0  0  0  0  0
  140.8244   80.3801  223.4228 H   0  0  0  0  0  0  0  0  0  0  0  0
  140.5485   80.9260  221.2747 H   0  0  0  0  0  0  0  0  0  0  0  0
  142.3442   80.7332  221.0197 H   0  0  0  0  0  0  0  0  0  0  0  0
  140.0881   78.9046  220.3177 H   0  0  0  0  0  0  0  0  0  0  0  0
  141.6874   79.2355  219.4950 H   0  0  0  0  0  0  0  0  0  0  0  0
  142.4167   78.0478  221.8203 H   0  0  0  0  0  0  0  0  0  0  0  0
  142.9110   75.2230  221.2050 H   0  0  0  0  0  0  0  0  0  0  0  0
  144.6445   75.6356  218.8736 H   0  0  0  0  0  0  0  0  0  0  0  0
  143.0011   75.0367  217.3785 H   0  0  0  0  0  0  0  0  0  0  0  0
  143.6687   73.3877  217.8618 H   0  0  0  0  0  0  0  0  0  0  0  0
  141.4773   72.9537  217.8809 H   0  0  0  0  0  0  0  0  0  0  0  0
  142.4146   72.4500  220.1019 H   0  0  0  0  0  0  0  0  0  0  0  0
  141.7609   74.0286  220.7034 H   0  0  0  0  0  0  0  0  0  0  0  0
  140.2825   71.5230  219.8630 H   0  0  0  0  0  0  0  0  0  0  0  0
  140.1018   72.5735  221.3473 H   0  0  0  0  0  0  0  0  0  0  0  0
  138.8039   72.7858  218.6760 H   0  0  0  0  0  0  0  0  0  0  0  0
  138.2411   73.2894  220.3293 H   0  0  0  0  0  0  0  0  0  0  0  0
  138.5308   75.2376  218.8441 H   0  0  0  0  0  0  0  0  0  0  0  0
  139.6893   75.2586  220.2361 H   0  0  0  0  0  0  0  0  0  0  0  0
  140.2189   74.7524  217.2940 H   0  0  0  0  0  0  0  0  0  0  0  0
  141.0663   75.8485  218.4821 H   0  0  0  0  0  0  0  0  0  0  0  0
  144.6133   70.9491  219.8811 H   0  0  0  0  0  0  0  0  0  0  0  0
  144.3910   70.7193  218.1116 H   0  0  0  0  0  0  0  0  0  0  0  0
  146.2803   69.3971  219.9955 H   0  0  0  0  0  0  0  0  0  0  0  0
  145.5969   68.8132  218.4403 H   0  0  0  0  0  0  0  0  0  0  0  0
  147.0093   69.9230  218.4403 H   0  0  0  0  0  0  0  0  0  0  0  0
  137.2636   74.7280  223.0857 H   0  0  0  0  0  0  0  0  0  0  0  0
  135.7365   76.7242  222.9103 H   0  0  0  0  0  0  0  0  0  0  0  0
  136.6228   78.9053  222.0483 H   0  0  0  0  0  0  0  0  0  0  0  0
  139.0450   79.0840  221.3745 H   0  0  0  0  0  0  0  0  0  0  0  0
  1  2  1  0
  2  3  1  0
  3  4  1  0
  4  5  1  0
  5  6  1  0
  6  7  2  0
  6  8  1  0
  8  9  1  0
  9 10  1  0
 10 11  1  0
 11 12  1  0
 12 13  1  0
 13 14  1  0
 14 15  1  0
 15 16  1  0
  9 17  1  0
 17 18  2  0
 17 19  1  0
 19 20  2  0
 19 21  1  0
 21 22  1  0
 22 23  1  0
  5 24  1  0
 24 25  2  0
 25 26  1  0
 26 27  2  0
 27 28  1  0
 28 29  2  0
 29 30  1  0
 30 31  2  0
 31 32  1  0
 16 11  1  0
 32 24  1  0
 32 27  1  0
  1 33  1  0
  1 34  1  0
  1 35  1  0
  2 36  1  0
  2 37  1  0
  3 38  1  0
  3 39  1  0
  4 40  1  0
  4 41  1  0
  5 42  1  1
  8 43  1  0
  9 44  1  6
 10 45  1  0
 10 46  1  0
 11 47  1  0
 12 48  1  0
 12 49  1  0
 13 50  1  0
 13 51  1  0
 14 52  1  0
 14 53  1  0
 15 54  1  0
 15 55  1  0
 16 56  1  0
 16 57  1  0
 22 58  1  0
 22 59  1  0
 23 60  1  0
 23 61  1  0
 23 62  1  0
 28 63  1  0
 29 64  1  0
 30 65  1  0
 31 66  1  0
M  CHG  1  21  -1
M  END
>  <UniqueID>  (22) 
2

>  <SMILES>  (22) 
CCCC[C@H](C(=O)N[C@H](CC1CCCCC1)C(=O)C(=O)[N-]CC)c1nnc2ccccn12

>  <Energy>  (22) 
94.28438007694615

>  <Genealogy>  (22) 
CCCCC(C(=O)NC(CC1CCCCC1)C(=O)C(=O)[N-]CC)c1nnc2ccccn12 (protonated)
CCCC[C@H](C(=O)N[C@H](CC1CCCCC1)C(=O)C(=O)[N-]CC)c1nnc2ccccn12 (chirality)
CCCC[C@H](C(=O)N[C@H](CC1CCCCC1)C(=O)C(=O)[N-]CC)c1nnc2ccccn12 (3D coordinates assigned)
CCCC[C@H](C(=O)N[C@H](CC1CCCCC1)C(=O)C(=O)[N-]CC)c1nnc2ccccn12 (nonaromatic ring conformer: 94.28438007694615 kcal/mol)

>  <smiles>  (22) 
CCCCC(C(=O)NC(CC1CCCCC1)C(=O)C(=O)NCC)c1nnc2ccccn12

>  <score_type>  (22) 
oracle

>  <origin>  (22) 
autodockgpu

>  <m_score__min__energy>  (22) 
-7.4000000000000004

>  <m_primary>  (22) 
energy

>  <meeko>  (22) 
{"free_energy": -6.0, "intermolecular_energy": -9.58, "internal_energy": -3.88, "cluster_size": 5, "cluster_id": 6, "rank_in_cluster": 2}

>  <energy>  (22) 
-6.76

>  <cluster_rmsd>  (22) 
1.49

>  <rmsd>  (22) 
270.12

>  <cluster>  (22) 
1

$$$$
NNKZOUMTYASKLJ-JYRSORQKNA-M
     RDKit          3D

 66 68  0  0  0  0  0  0  0  0999 V2000
  141.4500   79.4730  223.8490 C   0  0  0  0  0  0  0  0  0  0  0  0
  142.3160   79.9230  222.6770 C   0  0  0  0  0  0  0  0  0  0  0  0
  141.4540   80.2700  221.4550 C   0  0  0  0  0  0  0  0  0  0  0  0
  141.1450   79.0510  220.5670 C   0  0  0  0  0  0  0  0  0  0  0  0
  141.7340   77.7210  221.1050 C   0  0  2  0  0  0  0  0  0  0  0  0
  142.5840   77.0000  220.0880 C   0  0  0  0  0  0  0  0  0  0  0  0
  142.9350   77.6120  219.0420 O   0  0  0  0  0  0  0  0  0  0  0  0
  143.0310   75.6530  220.3130 N   0  0  0  0  0  0  0  0  0  0  0  0
  143.9130   74.9620  219.3670 C   0  0  2  0  0  0  0  0  0  0  0  0
  143.1030   74.3140  218.2140 C   0  0  0  0  0  0  0  0  0  0  0  0
  141.6870   73.8070  218.5920 C   0  0  0  0  0  0  0  0  0  0  0  0
  141.6130   73.2110  220.0100 C   0  0  0  0  0  0  0  0  0  0  0  0
  140.2510   72.5430  220.2690 C   0  0  0  0  0  0  0  0  0  0  0  0
  139.0650   73.2890  219.6220 C   0  0  0  0  0  0  0  0  0  0  0  0
  139.3940   74.7560  219.3230 C   0  0  0  0  0  0  0  0  0  0  0  0
  140.5860   74.8790  218.3530 C   0  0  0  0  0  0  0  0  0  0  0  0
  144.6850   73.8980  220.1080 C   0  0  0  0  0  0  0  0  0  0  0  0
  144.2450   73.4870  221.2160 O   0  0  0  0  0  0  0  0  0  0  0  0
  145.9100   73.3020  219.5260 C   0  0  0  0  0  0  0  0  0  0  0  0
  147.0330   73.7680  219.8510 O   0  0  0  0  0  0  0  0  0  0  0  0
  145.8730   72.1970  218.6130 N   0  0  0  0  0  0  0  0  0  0  0  0
  145.6130   70.8070  218.9690 C   0  0  0  0  0  0  0  0  0  0  0  0
  144.1730   70.6580  219.4330 C   0  0  0  0  0  0  0  0  0  0  0  0
  140.7060   76.7700  221.6810 C   0  0  0  0  0  0  0  0  0  0  0  0
  141.0000   75.4710  221.9250 N   0  0  0  0  0  0  0  0  0  0  0  0
  139.8940   74.8740  222.3520 N   0  0  0  0  0  0  0  0  0  0  0  0
  138.9370   75.8170  222.3520 C   0  0  0  0  0  0  0  0  0  0  0  0
  137.6080   75.6390  222.7250 C   0  0  0  0  0  0  0  0  0  0  0  0
  136.7600   76.7520  222.6520 C   0  0  0  0  0  0  0  0  0  0  0  0
  137.2550   77.9940  222.2110 C   0  0  0  0  0  0  0  0  0  0  0  0
  138.6050   78.1120  221.8470 C   0  0  0  0  0  0  0  0  0  0  0  0
  139.3980   77.0080  221.9360 N   0  0  0  0  0  0  0  0  0  0  0  0
  141.9490   79.7323  224.7944 H   0  0  0  0  0  0  0  0  0  0  0  0
  140.4741   79.9780  223.7989 H   0  0  0  0  0  0  0  0  0  0  0  0
  141.3023   78.3841  223.7989 H   0  0  0  0  0  0  0  0  0  0  0  0
  142.8908   80.8121  222.9755 H   0  0  0  0  0  0  0  0  0  0  0  0
  142.9922   79.0991  222.4053 H   0  0  0  0  0  0  0  0  0  0  0  0
  140.5031   80.6963  221.8072 H   0  0  0  0  0  0  0  0  0  0  0  0
  142.0248   80.9844  220.8436 H   0  0  0  0  0  0  0  0  0  0  0  0
  140.0528   78.9426  220.4942 H   0  0  0  0  0  0  0  0  0  0  0  0
  141.6148   79.2382  219.5902 H   0  0  0  0  0  0  0  0  0  0  0  0
  142.3773   78.0435  221.9369 H   0  0  0  0  0  0  0  0  0  0  0  0
  142.8220   75.1980  221.2260 H   0  0  0  0  0  0  0  0  0  0  0  0
  144.6025   75.6961  218.9246 H   0  0  0  0  0  0  0  0  0  0  0  0
  142.9924   75.0627  217.4158 H   0  0  0  0  0  0  0  0  0  0  0  0
  143.6711   73.4219  217.9117 H   0  0  0  0  0  0  0  0  0  0  0  0
  141.4797   72.9765  217.9012 H   0  0  0  0  0  0  0  0  0  0  0  0
  142.4077   72.4590  220.1239 H   0  0  0  0  0  0  0  0  0  0  0  0
  141.7411   74.0278  220.7355 H   0  0  0  0  0  0  0  0  0  0  0  0
  140.2821   71.5209  219.8635 H   0  0  0  0  0  0  0  0  0  0  0  0
  140.0864   72.5563  221.3565 H   0  0  0  0  0  0  0  0  0  0  0  0
  138.8025   72.7861  218.6795 H   0  0  0  0  0  0  0  0  0  0  0  0
  138.2269   73.2704  220.3342 H   0  0  0  0  0  0  0  0  0  0  0  0
  138.5134   75.2352  218.8703 H   0  0  0  0  0  0  0  0  0  0  0  0
  139.6645   75.2496  220.2681 H   0  0  0  0  0  0  0  0  0  0  0  0
  140.2115   74.7715  217.3243 H   0  0  0  0  0  0  0  0  0  0  0  0
  141.0464   75.8629  218.5259 H   0  0  0  0  0  0  0  0  0  0  0  0
  145.7823   70.1667  218.0907 H   0  0  0  0  0  0  0  0  0  0  0  0
  146.2907   70.5060  219.7815 H   0  0  0  0  0  0  0  0  0  0  0  0
  144.1406   70.6546  220.5325 H   0  0  0  0  0  0  0  0  0  0  0  0
  143.5758   71.4991  219.0511 H   0  0  0  0  0  0  0  0  0  0  0  0
  143.7607   69.7124  219.0511 H   0  0  0  0  0  0  0  0  0  0  0  0
  137.2371   74.6607  223.0646 H   0  0  0  0  0  0  0  0  0  0  0  0
  135.7029   76.6550  222.9405 H   0  0  0  0  0  0  0  0  0  0  0  0
  136.5876   78.8664  222.1522 H   0  0  0  0  0  0  0  0  0  0  0  0
  139.0129   79.0723  221.4984 H   0  0  0  0  0  0  0  0  0  0  0  0
  1  2  1  0
  2  3  1  0
  3  4  1  0
  4  5  1  0
  5  6  1  0
  6  7  2  0
  6  8  1  0
  8  9  1  0
  9 10  1  0
 10 11  1  0
 11 12  1  0
 12 13  1  0
 13 14  1  0
 14 15  1  0
 15 16  1  0
  9 17  1  0
 17 18  2  0
 17 19  1  0
 19 20  2  0
 19 21  1  0
 21 22  1  0
 22 23  1  0
  5 24  1  0
 24 25  2  0
 25 26  1  0
 26 27  2  0
 27 28  1  0
 28 29  2  0
 29 30  1  0
 30 31  2  0
 31 32  1  0
 16 11  1  0
 32 24  1  0
 32 27  1  0
  1 33  1  0
  1 34  1  0
  1 35  1  0
  2 36  1  0
  2 37  1  0
  3 38  1  0
  3 39  1  0
  4 40  1  0
  4 41  1  0
  5 42  1  1
  8 43  1  0
  9 44  1  6
 10 45  1  0
 10 46  1  0
 11 47  1  0
 12 48  1  0
 12 49  1  0
 13 50  1  0
 13 51  1  0
 14 52  1  0
 14 53  1  0
 15 54  1  0
 15 55  1  0
 16 56  1  0
 16 57  1  0
 22 58  1  0
 22 59  1  0
 23 60  1  0
 23 61  1  0
 23 62  1  0
 28 63  1  0
 29 64  1  0
 30 65  1  0
 31 66  1  0
M  CHG  1  21  -1
M  END
>  <UniqueID>  (23) 
2

>  <SMILES>  (23) 
CCCC[C@H](C(=O)N[C@H](CC1CCCCC1)C(=O)C(=O)[N-]CC)c1nnc2ccccn12

>  <Energy>  (23) 
94.28438007694615

>  <Genealogy>  (23) 
CCCCC(C(=O)NC(CC1CCCCC1)C(=O)C(=O)[N-]CC)c1nnc2ccccn12 (protonated)
CCCC[C@H](C(=O)N[C@H](CC1CCCCC1)C(=O)C(=O)[N-]CC)c1nnc2ccccn12 (chirality)
CCCC[C@H](C(=O)N[C@H](CC1CCCCC1)C(=O)C(=O)[N-]CC)c1nnc2ccccn12 (3D coordinates assigned)
CCCC[C@H](C(=O)N[C@H](CC1CCCCC1)C(=O)C(=O)[N-]CC)c1nnc2ccccn12 (nonaromatic ring conformer: 94.28438007694615 kcal/mol)

>  <smiles>  (23) 
CCCCC(C(=O)NC(CC1CCCCC1)C(=O)C(=O)NCC)c1nnc2ccccn12

>  <score_type>  (23) 
oracle

>  <origin>  (23) 
autodockgpu

>  <m_score__min__energy>  (23) 
-7.4000000000000004

>  <m_primary>  (23) 
energy

>  <meeko>  (23) 
{"free_energy": -5.89, "intermolecular_energy": -9.47, "internal_energy": -4.06, "cluster_size": 5, "cluster_id": 6, "rank_in_cluster": 5}

>  <energy>  (23) 
-6.72

>  <cluster_rmsd>  (23) 
1.52

>  <rmsd>  (23) 
270.12

>  <cluster>  (23) 
1

$$$$
NNKZOUMTYASKLJ-JYRSORQKNA-M
     RDKit          3D

 66 68  0  0  0  0  0  0  0  0999 V2000
  138.9180   73.7170  221.5340 C   0  0  0  0  0  0  0  0  0  0  0  0
  140.3930   73.4950  221.8560 C   0  0  0  0  0  0  0  0  0  0  0  0
  140.6330   72.0780  222.3920 C   0  0  0  0  0  0  0  0  0  0  0  0
  139.5810   71.6360  223.4270 C   0  0  0  0  0  0  0  0  0  0  0  0
  139.1830   70.1420  223.3150 C   0  0  2  0  0  0  0  0  0  0  0  0
  137.7910   69.9430  222.7680 C   0  0  0  0  0  0  0  0  0  0  0  0
  137.5800   70.1560  221.5430 O   0  0  0  0  0  0  0  0  0  0  0  0
  136.7210   69.4800  223.6080 N   0  0  0  0  0  0  0  0  0  0  0  0
  135.3800   69.2160  223.0780 C   0  0  2  0  0  0  0  0  0  0  0  0
  134.6960   70.5250  222.6030 C   0  0  0  0  0  0  0  0  0  0  0  0
  135.1440   71.8180  223.3330 C   0  0  0  0  0  0  0  0  0  0  0  0
  135.3820   73.0030  222.3770 C   0  0  0  0  0  0  0  0  0  0  0  0
  136.0140   74.2000  223.1110 C   0  0  0  0  0  0  0  0  0  0  0  0
  135.4870   74.3890  224.5500 C   0  0  0  0  0  0  0  0  0  0  0  0
  134.1260   73.7170  224.7640 C   0  0  0  0  0  0  0  0  0  0  0  0
  134.2000   72.1990  224.5080 C   0  0  0  0  0  0  0  0  0  0  0  0
  134.5470   68.5690  224.1580 C   0  0  0  0  0  0  0  0  0  0  0  0
  133.9940   67.4620  223.9170 O   0  0  0  0  0  0  0  0  0  0  0  0
  134.4210   69.1900  225.4970 C   0  0  0  0  0  0  0  0  0  0  0  0
  135.4030   69.8130  225.9780 O   0  0  0  0  0  0  0  0  0  0  0  0
  133.2150   69.1250  226.2690 N   0  0  0  0  0  0  0  0  0  0  0  0
  132.0430   69.9740  226.0880 C   0  0  0  0  0  0  0  0  0  0  0  0
  132.2260   71.2720  226.8560 C   0  0  0  0  0  0  0  0  0  0  0  0
  139.3480   69.3540  224.5980 C   0  0  0  0  0  0  0  0  0  0  0  0
  138.8240   68.1140  224.7400 N   0  0  0  0  0  0  0  0  0  0  0  0
  139.0620   67.7080  225.9820 N   0  0  0  0  0  0  0  0  0  0  0  0
  139.7200   68.7130  226.5820 C   0  0  0  0  0  0  0  0  0  0  0  0
  140.1700   68.7300  227.8990 C   0  0  0  0  0  0  0  0  0  0  0  0
  140.8360   69.8800  228.3420 C   0  0  0  0  0  0  0  0  0  0  0  0
  141.0280   70.9690  227.4710 C   0  0  0  0  0  0  0  0  0  0  0  0
  140.5510   70.8950  226.1540 C   0  0  0  0  0  0  0  0  0  0  0  0
  139.9120   69.7590  225.7600 N   0  0  0  0  0  0  0  0  0  0  0  0
  138.3472   73.8029  222.4704 H   0  0  0  0  0  0  0  0  0  0  0  0
  138.8055   74.6422  220.9498 H   0  0  0  0  0  0  0  0  0  0  0  0
  138.5381   72.8659  220.9498 H   0  0  0  0  0  0  0  0  0  0  0  0
  140.9862   73.6384  220.9408 H   0  0  0  0  0  0  0  0  0  0  0  0
  140.6948   74.2171  222.6289 H   0  0  0  0  0  0  0  0  0  0  0  0
  140.6085   71.3752  221.5462 H   0  0  0  0  0  0  0  0  0  0  0  0
  141.6096   72.0803  222.8981 H   0  0  0  0  0  0  0  0  0  0  0  0
  139.9891   71.8118  224.4332 H   0  0  0  0  0  0  0  0  0  0  0  0
  138.6727   72.2252  223.2325 H   0  0  0  0  0  0  0  0  0  0  0  0
  139.9063   69.7372  222.5919 H   0  0  0  0  0  0  0  0  0  0  0  0
  136.9330   69.2080  224.5910 H   0  0  0  0  0  0  0  0  0  0  0  0
  135.4677   68.5458  222.2102 H   0  0  0  0  0  0  0  0  0  0  0  0
  134.9109   70.6496  221.5314 H   0  0  0  0  0  0  0  0  0  0  0  0
  133.6265   70.4057  222.8311 H   0  0  0  0  0  0  0  0  0  0  0  0
  136.1226   71.5800  223.7754 H   0  0  0  0  0  0  0  0  0  0  0  0
  136.0567   72.6815  221.5699 H   0  0  0  0  0  0  0  0  0  0  0  0
  134.4102   73.3203  221.9709 H   0  0  0  0  0  0  0  0  0  0  0  0
  137.1021   74.0454  223.1563 H   0  0  0  0  0  0  0  0  0  0  0  0
  135.7440   75.1046  222.5464 H   0  0  0  0  0  0  0  0  0  0  0  0
  136.2118   73.9517  225.2525 H   0  0  0  0  0  0  0  0  0  0  0  0
  135.3605   75.4679  224.7231 H   0  0  0  0  0  0  0  0  0  0  0  0
  133.8012   73.8894  225.8007 H   0  0  0  0  0  0  0  0  0  0  0  0
  133.4097   74.1529  224.0520 H   0  0  0  0  0  0  0  0  0  0  0  0
  134.5652   71.7083  225.4222 H   0  0  0  0  0  0  0  0  0  0  0  0
  133.1882   71.8655  224.2339 H   0  0  0  0  0  0  0  0  0  0  0  0
  131.9150   70.1971  225.0185 H   0  0  0  0  0  0  0  0  0  0  0  0
  131.1525   69.4502  226.4658 H   0  0  0  0  0  0  0  0  0  0  0  0
  132.1970   71.0661  227.9362 H   0  0  0  0  0  0  0  0  0  0  0  0
  133.1961   71.7195  226.5939 H   0  0  0  0  0  0  0  0  0  0  0  0
  131.4174   71.9702  226.5939 H   0  0  0  0  0  0  0  0  0  0  0  0
  140.0085   67.8716  228.5677 H   0  0  0  0  0  0  0  0  0  0  0  0
  141.2105   69.9323  229.3749 H   0  0  0  0  0  0  0  0  0  0  0  0
  141.5489   71.8724  227.8210 H   0  0  0  0  0  0  0  0  0  0  0  0
  140.6897   71.7342  225.4565 H   0  0  0  0  0  0  0  0  0  0  0  0
  1  2  1  0
  2  3  1  0
  3  4  1  0
  4  5  1  0
  5  6  1  0
  6  7  2  0
  6  8  1  0
  8  9  1  0
  9 10  1  0
 10 11  1  0
 11 12  1  0
 12 13  1  0
 13 14  1  0
 14 15  1  0
 15 16  1  0
  9 17  1  0
 17 18  2  0
 17 19  1  0
 19 20  2  0
 19 21  1  0
 21 22  1  0
 22 23  1  0
  5 24  1  0
 24 25  2  0
 25 26  1  0
 26 27  2  0
 27 28  1  0
 28 29  2  0
 29 30  1  0
 30 31  2  0
 31 32  1  0
 16 11  1  0
 32 24  1  0
 32 27  1  0
  1 33  1  0
  1 34  1  0
  1 35  1  0
  2 36  1  0
  2 37  1  0
  3 38  1  0
  3 39  1  0
  4 40  1  0
  4 41  1  0
  5 42  1  6
  8 43  1  0
  9 44  1  6
 10 45  1  0
 10 46  1  0
 11 47  1  0
 12 48  1  0
 12 49  1  0
 13 50  1  0
 13 51  1  0
 14 52  1  0
 14 53  1  0
 15 54  1  0
 15 55  1  0
 16 56  1  0
 16 57  1  0
 22 58  1  0
 22 59  1  0
 23 60  1  0
 23 61  1  0
 23 62  1  0
 28 63  1  0
 29 64  1  0
 30 65  1  0
 31 66  1  0
M  CHG  1  21  -1
M  END
>  <UniqueID>  (24) 
2

>  <SMILES>  (24) 
CCCC[C@H](C(=O)N[C@H](CC1CCCCC1)C(=O)C(=O)[N-]CC)c1nnc2ccccn12

>  <Energy>  (24) 
94.28438007694615

>  <Genealogy>  (24) 
CCCCC(C(=O)NC(CC1CCCCC1)C(=O)C(=O)[N-]CC)c1nnc2ccccn12 (protonated)
CCCC[C@H](C(=O)N[C@H](CC1CCCCC1)C(=O)C(=O)[N-]CC)c1nnc2ccccn12 (chirality)
CCCC[C@H](C(=O)N[C@H](CC1CCCCC1)C(=O)C(=O)[N-]CC)c1nnc2ccccn12 (3D coordinates assigned)
CCCC[C@H](C(=O)N[C@H](CC1CCCCC1)C(=O)C(=O)[N-]CC)c1nnc2ccccn12 (nonaromatic ring conformer: 94.28438007694615 kcal/mol)

>  <smiles>  (24) 
CCCCC(C(=O)NC(CC1CCCCC1)C(=O)C(=O)NCC)c1nnc2ccccn12

>  <score_type>  (24) 
oracle

>  <origin>  (24) 
autodockgpu

>  <m_score__min__energy>  (24) 
-7.4000000000000004

>  <m_primary>  (24) 
energy

>  <meeko>  (24) 
{"free_energy": -5.91, "intermolecular_energy": -9.49, "internal_energy": -3.76, "cluster_size": 5, "cluster_id": 1, "rank_in_cluster": 5}

>  <energy>  (24) 
-6.21

>  <cluster_rmsd>  (24) 
1.62

>  <rmsd>  (24) 
270.36

>  <cluster>  (24) 
1

$$$$
NNKZOUMTYASKLJ-JYRSORQKNA-M
     RDKit          3D

 66 68  0  0  0  0  0  0  0  0999 V2000
  133.9170   67.4060  226.1160 C   0  0  0  0  0  0  0  0  0  0  0  0
  132.7120   68.0950  225.4850 C   0  0  0  0  0  0  0  0  0  0  0  0
  133.0740   69.5030  224.9960 C   0  0  0  0  0  0  0  0  0  0  0  0
  134.4580   69.9750  225.4820 C   0  0  0  0  0  0  0  0  0  0  0  0
  135.2410   70.8010  224.4300 C   0  0  2  0  0  0  0  0  0  0  0  0
  136.7000   70.4230  224.3520 C   0  0  0  0  0  0  0  0  0  0  0  0
  137.0300   69.2190  224.5360 O   0  0  0  0  0  0  0  0  0  0  0  0
  137.7050   71.3990  224.0340 N   0  0  0  0  0  0  0  0  0  0  0  0
  139.1190   71.0360  223.8880 C   0  0  2  0  0  0  0  0  0  0  0  0
  139.9460   71.4920  225.1180 C   0  0  0  0  0  0  0  0  0  0  0  0
  140.5040   70.3520  226.0100 C   0  0  0  0  0  0  0  0  0  0  0  0
  140.3270   70.6180  227.5170 C   0  0  0  0  0  0  0  0  0  0  0  0
  141.0660   69.5670  228.3650 C   0  0  0  0  0  0  0  0  0  0  0  0
  141.0210   68.1470  227.7640 C   0  0  0  0  0  0  0  0  0  0  0  0
  139.8590   67.9680  226.7800 C   0  0  0  0  0  0  0  0  0  0  0  0
  139.9640   68.9530  225.5990 C   0  0  0  0  0  0  0  0  0  0  0  0
  139.6630   71.6840  222.6390 C   0  0  0  0  0  0  0  0  0  0  0  0
  140.4170   71.0130  221.8840 O   0  0  0  0  0  0  0  0  0  0  0  0
  139.2790   73.0660  222.2700 C   0  0  0  0  0  0  0  0  0  0  0  0
  140.1660   73.9580  222.2230 O   0  0  0  0  0  0  0  0  0  0  0  0
  137.9310   73.4350  221.9460 N   0  0  0  0  0  0  0  0  0  0  0  0
  137.1930   73.0030  220.7650 C   0  0  0  0  0  0  0  0  0  0  0  0
  136.5390   71.6580  221.0320 C   0  0  0  0  0  0  0  0  0  0  0  0
  135.1080   72.3010  224.5880 C   0  0  0  0  0  0  0  0  0  0  0  0
  135.8700   73.1600  223.8710 N   0  0  0  0  0  0  0  0  0  0  0  0
  135.5870   74.3930  224.2740 N   0  0  0  0  0  0  0  0  0  0  0  0
  134.6620   74.2670  225.2380 C   0  0  0  0  0  0  0  0  0  0  0  0
  134.0720   75.3060  225.9530 C   0  0  0  0  0  0  0  0  0  0  0  0
  133.1250   74.9660  226.9280 C   0  0  0  0  0  0  0  0  0  0  0  0
  132.8000   73.6170  227.1620 C   0  0  0  0  0  0  0  0  0  0  0  0
  133.4280   72.6120  226.4120 C   0  0  0  0  0  0  0  0  0  0  0  0
  134.3400   72.9830  225.4700 N   0  0  0  0  0  0  0  0  0  0  0  0
  133.8342   67.4533  227.2119 H   0  0  0  0  0  0  0  0  0  0  0  0
  133.9473   66.3541  225.7957 H   0  0  0  0  0  0  0  0  0  0  0  0
  134.8389   67.9135  225.7957 H   0  0  0  0  0  0  0  0  0  0  0  0
  132.3628   67.4967  224.6305 H   0  0  0  0  0  0  0  0  0  0  0  0
  131.9217   68.1818  226.2451 H   0  0  0  0  0  0  0  0  0  0  0  0
  133.0706   69.5031  223.8960 H   0  0  0  0  0  0  0  0  0  0  0  0
  132.3271   70.1961  225.4106 H   0  0  0  0  0  0  0  0  0  0  0  0
  134.3174   70.5979  226.3777 H   0  0  0  0  0  0  0  0  0  0  0  0
  135.0513   69.0717  225.6870 H   0  0  0  0  0  0  0  0  0  0  0  0
  134.7557   70.5319  223.4802 H   0  0  0  0  0  0  0  0  0  0  0  0
  137.4090   72.3650  223.7820 H   0  0  0  0  0  0  0  0  0  0  0  0
  139.1978   69.9413  223.8150 H   0  0  0  0  0  0  0  0  0  0  0  0
  140.7982   72.0837  224.7524 H   0  0  0  0  0  0  0  0  0  0  0  0
  139.2511   72.0596  225.7544 H   0  0  0  0  0  0  0  0  0  0  0  0
  141.5886   70.3417  225.8266 H   0  0  0  0  0  0  0  0  0  0  0  0
  140.7278   71.6146  227.7537 H   0  0  0  0  0  0  0  0  0  0  0  0
  139.2544   70.5614  227.7542 H   0  0  0  0  0  0  0  0  0  0  0  0
  142.1187   69.8724  228.4576 H   0  0  0  0  0  0  0  0  0  0  0  0
  140.5567   69.5217  229.3389 H   0  0  0  0  0  0  0  0  0  0  0  0
  141.9659   67.9572  227.2338 H   0  0  0  0  0  0  0  0  0  0  0  0
  140.8743   67.4363  228.5907 H   0  0  0  0  0  0  0  0  0  0  0  0
  139.8753   66.9394  226.3905 H   0  0  0  0  0  0  0  0  0  0  0  0
  138.9189   68.1685  227.3149 H   0  0  0  0  0  0  0  0  0  0  0  0
  140.6422   68.5245  224.8464 H   0  0  0  0  0  0  0  0  0  0  0  0
  138.9471   69.0993  225.2058 H   0  0  0  0  0  0  0  0  0  0  0  0
  136.4173   73.7457  220.5269 H   0  0  0  0  0  0  0  0  0  0  0  0
  137.8870   72.9081  219.9169 H   0  0  0  0  0  0  0  0  0  0  0  0
  136.4609   71.4973  222.1174 H   0  0  0  0  0  0  0  0  0  0  0  0
  135.5336   71.6442  220.5860 H   0  0  0  0  0  0  0  0  0  0  0  0
  137.1490   70.8587  220.5860 H   0  0  0  0  0  0  0  0  0  0  0  0
  134.3396   76.3553  225.7595 H   0  0  0  0  0  0  0  0  0  0  0  0
  132.6333   75.7571  227.5132 H   0  0  0  0  0  0  0  0  0  0  0  0
  132.0574   73.3522  227.9291 H   0  0  0  0  0  0  0  0  0  0  0  0
  133.1904   71.5512  226.5799 H   0  0  0  0  0  0  0  0  0  0  0  0
  1  2  1  0
  2  3  1  0
  3  4  1  0
  4  5  1  0
  5  6  1  0
  6  7  2  0
  6  8  1  0
  8  9  1  0
  9 10  1  0
 10 11  1  0
 11 12  1  0
 12 13  1  0
 13 14  1  0
 14 15  1  0
 15 16  1  0
  9 17  1  0
 17 18  2  0
 17 19  1  0
 19 20  2  0
 19 21  1  0
 21 22  1  0
 22 23  1  0
  5 24  1  0
 24 25  2  0
 25 26  1  0
 26 27  2  0
 27 28  1  0
 28 29  2  0
 29 30  1  0
 30 31  2  0
 31 32  1  0
 16 11  1  0
 32 24  1  0
 32 27  1  0
  1 33  1  0
  1 34  1  0
  1 35  1  0
  2 36  1  0
  2 37  1  0
  3 38  1  0
  3 39  1  0
  4 40  1  0
  4 41  1  0
  5 42  1  6
  8 43  1  0
  9 44  1  6
 10 45  1  0
 10 46  1  0
 11 47  1  0
 12 48  1  0
 12 49  1  0
 13 50  1  0
 13 51  1  0
 14 52  1  0
 14 53  1  0
 15 54  1  0
 15 55  1  0
 16 56  1  0
 16 57  1  0
 22 58  1  0
 22 59  1  0
 23 60  1  0
 23 61  1  0
 23 62  1  0
 28 63  1  0
 29 64  1  0
 30 65  1  0
 31 66  1  0
M  CHG  1  21  -1
M  END
>  <UniqueID>  (25) 
2

>  <SMILES>  (25) 
CCCC[C@H](C(=O)N[C@H](CC1CCCCC1)C(=O)C(=O)[N-]CC)c1nnc2ccccn12

>  <Energy>  (25) 
94.28438007694615

>  <Genealogy>  (25) 
CCCCC(C(=O)NC(CC1CCCCC1)C(=O)C(=O)[N-]CC)c1nnc2ccccn12 (protonated)
CCCC[C@H](C(=O)N[C@H](CC1CCCCC1)C(=O)C(=O)[N-]CC)c1nnc2ccccn12 (chirality)
CCCC[C@H](C(=O)N[C@H](CC1CCCCC1)C(=O)C(=O)[N-]CC)c1nnc2ccccn12 (3D coordinates assigned)
CCCC[C@H](C(=O)N[C@H](CC1CCCCC1)C(=O)C(=O)[N-]CC)c1nnc2ccccn12 (nonaromatic ring conformer: 94.28438007694615 kcal/mol)

>  <smiles>  (25) 
CCCCC(C(=O)NC(CC1CCCCC1)C(=O)C(=O)NCC)c1nnc2ccccn12

>  <score_type>  (25) 
oracle

>  <origin>  (25) 
autodockgpu

>  <m_score__min__energy>  (25) 
-7.4000000000000004

>  <m_primary>  (25) 
energy

>  <meeko>  (25) 
{"free_energy": -6.25, "intermolecular_energy": -9.83, "internal_energy": -3.29, "cluster_size": 2, "cluster_id": 4, "rank_in_cluster": 1}

>  <energy>  (25) 
-5.91

>  <cluster_rmsd>  (25) 
1.41

>  <rmsd>  (25) 
269.95

>  <cluster>  (25) 
1

$$$$
NNKZOUMTYASKLJ-JYRSORQKNA-M
     RDKit          3D

 66 68  0  0  0  0  0  0  0  0999 V2000
  141.5780   79.5170  223.6440 C   0  0  0  0  0  0  0  0  0  0  0  0
  142.4890   79.6780  222.4310 C   0  0  0  0  0  0  0  0  0  0  0  0
  141.6810   80.0480  221.1800 C   0  0  0  0  0  0  0  0  0  0  0  0
  141.3680   78.8360  220.2820 C   0  0  0  0  0  0  0  0  0  0  0  0
  141.8260   77.4810  220.8800 C   0  0  2  0  0  0  0  0  0  0  0  0
  142.5400   76.6070  219.8780 C   0  0  0  0  0  0  0  0  0  0  0  0
  142.7350   77.0480  218.7120 O   0  0  0  0  0  0  0  0  0  0  0  0
  143.0310   75.3070  220.2420 N   0  0  0  0  0  0  0  0  0  0  0  0
  143.7850   74.4720  219.3010 C   0  0  2  0  0  0  0  0  0  0  0  0
  142.8990   73.3410  218.7180 C   0  0  0  0  0  0  0  0  0  0  0  0
  141.6070   73.0230  219.5150 C   0  0  0  0  0  0  0  0  0  0  0  0
  140.6450   72.0830  218.7640 C   0  0  0  0  0  0  0  0  0  0  0  0
  139.2980   71.9540  219.4980 C   0  0  0  0  0  0  0  0  0  0  0  0
  139.4310   71.9460  221.0350 C   0  0  0  0  0  0  0  0  0  0  0  0
  140.8380   71.5460  221.4950 C   0  0  0  0  0  0  0  0  0  0  0  0
  141.9050   72.5200  220.9560 C   0  0  0  0  0  0  0  0  0  0  0  0
  144.9690   73.8730  220.0190 C   0  0  0  0  0  0  0  0  0  0  0  0
  145.1360   74.1360  221.2410 O   0  0  0  0  0  0  0  0  0  0  0  0
  145.8920   72.9470  219.3240 C   0  0  0  0  0  0  0  0  0  0  0  0
  146.3140   71.9300  219.9330 O   0  0  0  0  0  0  0  0  0  0  0  0
  146.3180   73.1520  217.9700 N   0  0  0  0  0  0  0  0  0  0  0  0
  145.5320   72.8600  216.7780 C   0  0  0  0  0  0  0  0  0  0  0  0
  145.1380   74.1580  216.0920 C   0  0  0  0  0  0  0  0  0  0  0  0
  140.7250   76.6920  221.5570 C   0  0  0  0  0  0  0  0  0  0  0  0
  140.8620   75.3730  221.8290 N   0  0  0  0  0  0  0  0  0  0  0  0
  139.7200   74.9410  222.3490 N   0  0  0  0  0  0  0  0  0  0  0  0
  138.8980   76.0030  222.3780 C   0  0  0  0  0  0  0  0  0  0  0  0
  137.5860   76.0140  222.8430 C   0  0  0  0  0  0  0  0  0  0  0  0
  136.8890   77.2280  222.7840 C   0  0  0  0  0  0  0  0  0  0  0  0
  137.5100   78.3800  222.2660 C   0  0  0  0  0  0  0  0  0  0  0  0
  138.8350   78.3070  221.8100 C   0  0  0  0  0  0  0  0  0  0  0  0
  139.4810   77.1100  221.8880 N   0  0  0  0  0  0  0  0  0  0  0  0
  142.1711   79.6218  224.5645 H   0  0  0  0  0  0  0  0  0  0  0  0
  140.7967   80.2910  223.6211 H   0  0  0  0  0  0  0  0  0  0  0  0
  141.1093   78.5221  223.6211 H   0  0  0  0  0  0  0  0  0  0  0  0
  143.2211   80.4734  222.6343 H   0  0  0  0  0  0  0  0  0  0  0  0
  142.9996   78.7211  222.2474 H   0  0  0  0  0  0  0  0  0  0  0  0
  140.7311   80.5022  221.4985 H   0  0  0  0  0  0  0  0  0  0  0  0
  142.2931   80.7448  220.5886 H   0  0  0  0  0  0  0  0  0  0  0  0
  140.2806   78.7946  220.1215 H   0  0  0  0  0  0  0  0  0  0  0  0
  141.9261   78.9783  219.3448 H   0  0  0  0  0  0  0  0  0  0  0  0
  142.5402   77.7749  221.6633 H   0  0  0  0  0  0  0  0  0  0  0  0
  142.9560   74.9990  221.2340 H   0  0  0  0  0  0  0  0  0  0  0  0
  144.1243   75.1006  218.4645 H   0  0  0  0  0  0  0  0  0  0  0  0
  142.6048   73.6329  217.6991 H   0  0  0  0  0  0  0  0  0  0  0  0
  143.5108   72.4278  218.7601 H   0  0  0  0  0  0  0  0  0  0  0  0
  141.0796   73.9833  219.6135 H   0  0  0  0  0  0  0  0  0  0  0  0
  140.4661   72.4851  217.7559 H   0  0  0  0  0  0  0  0  0  0  0  0
  141.1068   71.0861  218.7105 H   0  0  0  0  0  0  0  0  0  0  0  0
  138.6613   72.8030  219.2084 H   0  0  0  0  0  0  0  0  0  0  0  0
  138.8630   70.9866  219.2066 H   0  0  0  0  0  0  0  0  0  0  0  0
  139.2079   72.9540  221.4147 H   0  0  0  0  0  0  0  0  0  0  0  0
  138.7235   71.2023  221.4303 H   0  0  0  0  0  0  0  0  0  0  0  0
  140.8703   71.5526  222.5945 H   0  0  0  0  0  0  0  0  0  0  0  0
  141.0573   70.5416  221.1038 H   0  0  0  0  0  0  0  0  0  0  0  0
  141.9536   73.3906  221.6266 H   0  0  0  0  0  0  0  0  0  0  0  0
  142.8578   71.9715  220.9190 H   0  0  0  0  0  0  0  0  0  0  0  0
  146.1302   72.2482  216.0867 H   0  0  0  0  0  0  0  0  0  0  0  0
  144.6237   72.3108  217.0667 H   0  0  0  0  0  0  0  0  0  0  0  0
  144.9070   74.9189  216.8520 H   0  0  0  0  0  0  0  0  0  0  0  0
  145.9704   74.5080  215.4638 H   0  0  0  0  0  0  0  0  0  0  0  0
  144.2515   73.9863  215.4638 H   0  0  0  0  0  0  0  0  0  0  0  0
  137.1142   75.1038  223.2418 H   0  0  0  0  0  0  0  0  0  0  0  0
  135.8511   77.2811  223.1444 H   0  0  0  0  0  0  0  0  0  0  0  0
  136.9601   79.3315  222.2190 H   0  0  0  0  0  0  0  0  0  0  0  0
  139.3396   79.1942  221.3997 H   0  0  0  0  0  0  0  0  0  0  0  0
  1  2  1  0
  2  3  1  0
  3  4  1  0
  4  5  1  0
  5  6  1  0
  6  7  2  0
  6  8  1  0
  8  9  1  0
  9 10  1  0
 10 11  1  0
 11 12  1  0
 12 13  1  0
 13 14  1  0
 14 15  1  0
 15 16  1  0
  9 17  1  0
 17 18  2  0
 17 19  1  0
 19 20  2  0
 19 21  1  0
 21 22  1  0
 22 23  1  0
  5 24  1  0
 24 25  2  0
 25 26  1  0
 26 27  2  0
 27 28  1  0
 28 29  2  0
 29 30  1  0
 30 31  2  0
 31 32  1  0
 16 11  1  0
 32 24  1  0
 32 27  1  0
  1 33  1  0
  1 34  1  0
  1 35  1  0
  2 36  1  0
  2 37  1  0
  3 38  1  0
  3 39  1  0
  4 40  1  0
  4 41  1  0
  5 42  1  1
  8 43  1  0
  9 44  1  6
 10 45  1  0
 10 46  1  0
 11 47  1  0
 12 48  1  0
 12 49  1  0
 13 50  1  0
 13 51  1  0
 14 52  1  0
 14 53  1  0
 15 54  1  0
 15 55  1  0
 16 56  1  0
 16 57  1  0
 22 58  1  0
 22 59  1  0
 23 60  1  0
 23 61  1  0
 23 62  1  0
 28 63  1  0
 29 64  1  0
 30 65  1  0
 31 66  1  0
M  CHG  1  21  -1
M  END
>  <UniqueID>  (26) 
2

>  <SMILES>  (26) 
CCCC[C@H](C(=O)N[C@H](CC1CCCCC1)C(=O)C(=O)[N-]CC)c1nnc2ccccn12

>  <Energy>  (26) 
94.28438007694615

>  <Genealogy>  (26) 
CCCCC(C(=O)NC(CC1CCCCC1)C(=O)C(=O)[N-]CC)c1nnc2ccccn12 (protonated)
CCCC[C@H](C(=O)N[C@H](CC1CCCCC1)C(=O)C(=O)[N-]CC)c1nnc2ccccn12 (chirality)
CCCC[C@H](C(=O)N[C@H](CC1CCCCC1)C(=O)C(=O)[N-]CC)c1nnc2ccccn12 (3D coordinates assigned)
CCCC[C@H](C(=O)N[C@H](CC1CCCCC1)C(=O)C(=O)[N-]CC)c1nnc2ccccn12 (nonaromatic ring conformer: 94.28438007694615 kcal/mol)

>  <smiles>  (26) 
CCCCC(C(=O)NC(CC1CCCCC1)C(=O)C(=O)NCC)c1nnc2ccccn12

>  <score_type>  (26) 
oracle

>  <origin>  (26) 
autodockgpu

>  <m_score__min__energy>  (26) 
-7.4000000000000004

>  <m_primary>  (26) 
energy

>  <meeko>  (26) 
{"free_energy": -6.06, "intermolecular_energy": -9.64, "internal_energy": -3.58, "cluster_size": 5, "cluster_id": 6, "rank_in_cluster": 1}

>  <energy>  (26) 
-6.67

>  <cluster_rmsd>  (26) 
0.0

>  <rmsd>  (26) 
270.96

>  <cluster>  (26) 
2

$$$$
NNKZOUMTYASKLJ-JYRSORQKNA-M
     RDKit          3D

 66 68  0  0  0  0  0  0  0  0999 V2000
  141.4890   79.4370  223.8400 C   0  0  0  0  0  0  0  0  0  0  0  0
  142.3240   79.9020  222.6500 C   0  0  0  0  0  0  0  0  0  0  0  0
  141.4320   80.2430  221.4500 C   0  0  0  0  0  0  0  0  0  0  0  0
  141.1910   79.0430  220.5160 C   0  0  0  0  0  0  0  0  0  0  0  0
  141.7660   77.7080  221.0530 C   0  0  2  0  0  0  0  0  0  0  0  0
  142.5940   76.9690  220.0290 C   0  0  0  0  0  0  0  0  0  0  0  0
  142.8830   77.5480  218.9460 O   0  0  0  0  0  0  0  0  0  0  0  0
  143.0870   75.6450  220.2870 N   0  0  0  0  0  0  0  0  0  0  0  0
  143.9480   74.9400  219.3330 C   0  0  2  0  0  0  0  0  0  0  0  0
  143.1150   74.2900  218.1970 C   0  0  0  0  0  0  0  0  0  0  0  0
  141.7160   73.7630  218.6100 C   0  0  0  0  0  0  0  0  0  0  0  0
  141.6740   73.2110  220.0470 C   0  0  0  0  0  0  0  0  0  0  0  0
  140.3310   72.5200  220.3460 C   0  0  0  0  0  0  0  0  0  0  0  0
  139.1200   73.2170  219.6910 C   0  0  0  0  0  0  0  0  0  0  0  0
  139.4110   74.6810  219.3400 C   0  0  0  0  0  0  0  0  0  0  0  0
  140.5880   74.8010  218.3510 C   0  0  0  0  0  0  0  0  0  0  0  0
  144.7240   73.8750  220.0690 C   0  0  0  0  0  0  0  0  0  0  0  0
  144.2910   73.4660  221.1800 O   0  0  0  0  0  0  0  0  0  0  0  0
  145.9440   73.2770  219.4780 C   0  0  0  0  0  0  0  0  0  0  0  0
  147.0680   73.7610  219.7720 O   0  0  0  0  0  0  0  0  0  0  0  0
  145.9020   72.1510  218.5920 N   0  0  0  0  0  0  0  0  0  0  0  0
  145.6510   70.7690  218.9840 C   0  0  0  0  0  0  0  0  0  0  0  0
  144.2050   70.6160  219.4260 C   0  0  0  0  0  0  0  0  0  0  0  0
  140.7310   76.7740  221.6460 C   0  0  0  0  0  0  0  0  0  0  0  0
  141.0130   75.4770  221.9060 N   0  0  0  0  0  0  0  0  0  0  0  0
  139.9030   74.8950  222.3450 N   0  0  0  0  0  0  0  0  0  0  0  0
  138.9560   75.8470  222.3360 C   0  0  0  0  0  0  0  0  0  0  0  0
  137.6260   75.6880  222.7150 C   0  0  0  0  0  0  0  0  0  0  0  0
  136.7890   76.8080  222.6300 C   0  0  0  0  0  0  0  0  0  0  0  0
  137.2940   78.0380  222.1700 C   0  0  0  0  0  0  0  0  0  0  0  0
  138.6440   78.1390  221.8000 C   0  0  0  0  0  0  0  0  0  0  0  0
  139.4260   77.0290  221.9010 N   0  0  0  0  0  0  0  0  0  0  0  0
  141.9948   79.7187  224.7753 H   0  0  0  0  0  0  0  0  0  0  0  0
  140.4982   79.9133  223.8012 H   0  0  0  0  0  0  0  0  0  0  0  0
  141.3722   78.3439  223.8012 H   0  0  0  0  0  0  0  0  0  0  0  0
  142.8948   80.7967  222.9392 H   0  0  0  0  0  0  0  0  0  0  0  0
  143.0037   79.0872  222.3601 H   0  0  0  0  0  0  0  0  0  0  0  0
  140.4599   80.5952  221.8254 H   0  0  0  0  0  0  0  0  0  0  0  0
  141.9518   81.0154  220.8641 H   0  0  0  0  0  0  0  0  0  0  0  0
  140.1063   78.9230  220.3782 H   0  0  0  0  0  0  0  0  0  0  0  0
  141.7134   79.2608  219.5728 H   0  0  0  0  0  0  0  0  0  0  0  0
  142.4234   78.0255  221.8758 H   0  0  0  0  0  0  0  0  0  0  0  0
  142.9290   75.2210  221.2250 H   0  0  0  0  0  0  0  0  0  0  0  0
  144.6361   75.6657  218.8749 H   0  0  0  0  0  0  0  0  0  0  0  0
  142.9737   75.0428  217.4075 H   0  0  0  0  0  0  0  0  0  0  0  0
  143.6856   73.4073  217.8724 H   0  0  0  0  0  0  0  0  0  0  0  0
  141.5190   72.9059  217.9493 H   0  0  0  0  0  0  0  0  0  0  0  0
  142.4875   72.4815  220.1738 H   0  0  0  0  0  0  0  0  0  0  0  0
  141.7919   74.0535  220.7444 H   0  0  0  0  0  0  0  0  0  0  0  0
  140.3810   71.4862  219.9735 H   0  0  0  0  0  0  0  0  0  0  0  0
  140.1798   72.5647  221.4346 H   0  0  0  0  0  0  0  0  0  0  0  0
  138.8575   72.6776  218.7690 H   0  0  0  0  0  0  0  0  0  0  0  0
  138.2916   73.2027  220.4145 H   0  0  0  0  0  0  0  0  0  0  0  0
  138.5138   75.1244  218.8835 H   0  0  0  0  0  0  0  0  0  0  0  0
  139.6818   75.2108  220.2652 H   0  0  0  0  0  0  0  0  0  0  0  0
  140.2038   74.6521  217.3311 H   0  0  0  0  0  0  0  0  0  0  0  0
  141.0271   75.8004  218.4863 H   0  0  0  0  0  0  0  0  0  0  0  0
  145.8438   70.1055  218.1281 H   0  0  0  0  0  0  0  0  0  0  0  0
  146.3168   70.5003  219.8173 H   0  0  0  0  0  0  0  0  0  0  0  0
  144.1561   70.6108  220.5249 H   0  0  0  0  0  0  0  0  0  0  0  0
  143.6117   71.4564  219.0365 H   0  0  0  0  0  0  0  0  0  0  0  0
  143.8007   69.6701  219.0365 H   0  0  0  0  0  0  0  0  0  0  0  0
  137.2461   74.7181  223.0684 H   0  0  0  0  0  0  0  0  0  0  0  0
  135.7323   76.7255  222.9242 H   0  0  0  0  0  0  0  0  0  0  0  0
  136.6344   78.9156  222.1007 H   0  0  0  0  0  0  0  0  0  0  0  0
  139.0598   79.0907  221.4376 H   0  0  0  0  0  0  0  0  0  0  0  0
  1  2  1  0
  2  3  1  0
  3  4  1  0
  4  5  1  0
  5  6  1  0
  6  7  2  0
  6  8  1  0
  8  9  1  0
  9 10  1  0
 10 11  1  0
 11 12  1  0
 12 13  1  0
 13 14  1  0
 14 15  1  0
 15 16  1  0
  9 17  1  0
 17 18  2  0
 17 19  1  0
 19 20  2  0
 19 21  1  0
 21 22  1  0
 22 23  1  0
  5 24  1  0
 24 25  2  0
 25 26  1  0
 26 27  2  0
 27 28  1  0
 28 29  2  0
 29 30  1  0
 30 31  2  0
 31 32  1  0
 16 11  1  0
 32 24  1  0
 32 27  1  0
  1 33  1  0
  1 34  1  0
  1 35  1  0
  2 36  1  0
  2 37  1  0
  3 38  1  0
  3 39  1  0
  4 40  1  0
  4 41  1  0
  5 42  1  1
  8 43  1  0
  9 44  1  6
 10 45  1  0
 10 46  1  0
 11 47  1  0
 12 48  1  0
 12 49  1  0
 13 50  1  0
 13 51  1  0
 14 52  1  0
 14 53  1  0
 15 54  1  0
 15 55  1  0
 16 56  1  0
 16 57  1  0
 22 58  1  0
 22 59  1  0
 23 60  1  0
 23 61  1  0
 23 62  1  0
 28 63  1  0
 29 64  1  0
 30 65  1  0
 31 66  1  0
M  CHG  1  21  -1
M  END
>  <UniqueID>  (27) 
2

>  <SMILES>  (27) 
CCCC[C@H](C(=O)N[C@H](CC1CCCCC1)C(=O)C(=O)[N-]CC)c1nnc2ccccn12

>  <Energy>  (27) 
94.28438007694615

>  <Genealogy>  (27) 
CCCCC(C(=O)NC(CC1CCCCC1)C(=O)C(=O)[N-]CC)c1nnc2ccccn12 (protonated)
CCCC[C@H](C(=O)N[C@H](CC1CCCCC1)C(=O)C(=O)[N-]CC)c1nnc2ccccn12 (chirality)
CCCC[C@H](C(=O)N[C@H](CC1CCCCC1)C(=O)C(=O)[N-]CC)c1nnc2ccccn12 (3D coordinates assigned)
CCCC[C@H](C(=O)N[C@H](CC1CCCCC1)C(=O)C(=O)[N-]CC)c1nnc2ccccn12 (nonaromatic ring conformer: 94.28438007694615 kcal/mol)

>  <smiles>  (27) 
CCCCC(C(=O)NC(CC1CCCCC1)C(=O)C(=O)NCC)c1nnc2ccccn12

>  <score_type>  (27) 
oracle

>  <origin>  (27) 
autodockgpu

>  <m_score__min__energy>  (27) 
-7.4000000000000004

>  <m_primary>  (27) 
energy

>  <meeko>  (27) 
{"free_energy": -5.97, "intermolecular_energy": -9.55, "internal_energy": -4.03, "cluster_size": 5, "cluster_id": 6, "rank_in_cluster": 3}

>  <energy>  (27) 
-6.61

>  <cluster_rmsd>  (27) 
0.0

>  <rmsd>  (27) 
270.72

>  <cluster>  (27) 
3

$$$$
NNKZOUMTYASKLJ-JYRSORQKNA-M
     RDKit          3D

 66 68  0  0  0  0  0  0  0  0999 V2000
  134.3210   70.7870  227.5320 C   0  0  0  0  0  0  0  0  0  0  0  0
  134.3240   69.7570  226.4060 C   0  0  0  0  0  0  0  0  0  0  0  0
  135.3980   70.0860  225.3610 C   0  0  0  0  0  0  0  0  0  0  0  0
  134.8130   70.6110  224.0370 C   0  0  0  0  0  0  0  0  0  0  0  0
  135.8290   71.4020  223.1740 C   0  0  2  0  0  0  0  0  0  0  0  0
  137.2400   70.8810  223.3020 C   0  0  0  0  0  0  0  0  0  0  0  0
  137.4240   69.6380  223.4150 O   0  0  0  0  0  0  0  0  0  0  0  0
  138.3680   71.7700  223.2560 N   0  0  0  0  0  0  0  0  0  0  0  0
  139.7470   71.2750  223.3110 C   0  0  2  0  0  0  0  0  0  0  0  0
  140.4310   71.6620  224.6480 C   0  0  0  0  0  0  0  0  0  0  0  0
  140.0820   70.7630  225.8640 C   0  0  0  0  0  0  0  0  0  0  0  0
  140.3530   69.2680  225.6120 C   0  0  0  0  0  0  0  0  0  0  0  0
  139.8110   68.3970  226.7590 C   0  0  0  0  0  0  0  0  0  0  0  0
  139.9660   69.0440  228.1520 C   0  0  0  0  0  0  0  0  0  0  0  0
  141.0540   70.1230  228.1740 C   0  0  0  0  0  0  0  0  0  0  0  0
  140.7400   71.2610  227.1820 C   0  0  0  0  0  0  0  0  0  0  0  0
  140.5220   71.8590  222.1550 C   0  0  0  0  0  0  0  0  0  0  0  0
  141.0590   71.0760  221.3260 O   0  0  0  0  0  0  0  0  0  0  0  0
  140.6080   73.3240  221.9600 C   0  0  0  0  0  0  0  0  0  0  0  0
  141.6300   73.8110  221.4100 O   0  0  0  0  0  0  0  0  0  0  0  0
  139.5620   74.2210  222.3580 N   0  0  0  0  0  0  0  0  0  0  0  0
  139.6270   75.6770  222.3140 C   0  0  0  0  0  0  0  0  0  0  0  0
  138.6680   76.2010  221.2580 C   0  0  0  0  0  0  0  0  0  0  0  0
  135.8120   72.8990  223.4030 C   0  0  0  0  0  0  0  0  0  0  0  0
  136.5770   73.7370  222.6660 N   0  0  0  0  0  0  0  0  0  0  0  0
  136.4110   74.9670  223.1390 N   0  0  0  0  0  0  0  0  0  0  0  0
  135.5530   74.8580  224.1660 C   0  0  0  0  0  0  0  0  0  0  0  0
  135.0910   75.8990  224.9650 C   0  0  0  0  0  0  0  0  0  0  0  0
  134.1970   75.5780  225.9960 C   0  0  0  0  0  0  0  0  0  0  0  0
  133.7980   74.2440  226.1990 C   0  0  0  0  0  0  0  0  0  0  0  0
  134.2980   73.2360  225.3620 C   0  0  0  0  0  0  0  0  0  0  0  0
  135.1620   73.5880  224.3690 N   0  0  0  0  0  0  0  0  0  0  0  0
  134.3225   70.2693  228.5025 H   0  0  0  0  0  0  0  0  0  0  0  0
  135.2173   71.4197  227.4526 H   0  0  0  0  0  0  0  0  0  0  0  0
  133.4210   71.4145  227.4526 H   0  0  0  0  0  0  0  0  0  0  0  0
  134.5271   68.7622  226.8293 H   0  0  0  0  0  0  0  0  0  0  0  0
  133.3403   69.7736  225.9140 H   0  0  0  0  0  0  0  0  0  0  0  0
  136.0672   70.8537  225.7767 H   0  0  0  0  0  0  0  0  0  0  0  0
  135.9326   69.1515  225.1352 H   0  0  0  0  0  0  0  0  0  0  0  0
  134.4553   69.7516  223.4510 H   0  0  0  0  0  0  0  0  0  0  0  0
  134.0036   71.3084  224.2987 H   0  0  0  0  0  0  0  0  0  0  0  0
  135.4810   71.2293  222.1449 H   0  0  0  0  0  0  0  0  0  0  0  0
  138.2070   72.7790  223.0580 H   0  0  0  0  0  0  0  0  0  0  0  0
  139.7312   70.1771  223.2449 H   0  0  0  0  0  0  0  0  0  0  0  0
  141.5196   71.6186  224.4963 H   0  0  0  0  0  0  0  0  0  0  0  0
  140.0568   72.6657  224.8983 H   0  0  0  0  0  0  0  0  0  0  0  0
  138.9939   70.8570  225.9955 H   0  0  0  0  0  0  0  0  0  0  0  0
  139.8633   68.9689  224.6735 H   0  0  0  0  0  0  0  0  0  0  0  0
  141.4411   69.1196  225.5496 H   0  0  0  0  0  0  0  0  0  0  0  0
  138.7419   68.2107  226.5790 H   0  0  0  0  0  0  0  0  0  0  0  0
  140.4017   67.4691  226.7665 H   0  0  0  0  0  0  0  0  0  0  0  0
  139.0077   69.5020  228.4380 H   0  0  0  0  0  0  0  0  0  0  0  0
  140.2606   68.2545  228.8590 H   0  0  0  0  0  0  0  0  0  0  0  0
  141.1218   70.5418  229.1889 H   0  0  0  0  0  0  0  0  0  0  0  0
  142.0065   69.6594  227.8778 H   0  0  0  0  0  0  0  0  0  0  0  0
  140.0538   71.9694  227.6690 H   0  0  0  0  0  0  0  0  0  0  0  0
  141.6970   71.7310  226.9114 H   0  0  0  0  0  0  0  0  0  0  0  0
  139.3476   76.0853  223.2965 H   0  0  0  0  0  0  0  0  0  0  0  0
  140.6515   75.9884  222.0622 H   0  0  0  0  0  0  0  0  0  0  0  0
  137.8042   76.6730  221.7490 H   0  0  0  0  0  0  0  0  0  0  0  0
  139.1835   76.9428  220.6303 H   0  0  0  0  0  0  0  0  0  0  0  0
  138.3222   75.3665  220.6303 H   0  0  0  0  0  0  0  0  0  0  0  0
  135.4154   76.9361  224.7940 H   0  0  0  0  0  0  0  0  0  0  0  0
  133.8059   76.3722  226.6489 H   0  0  0  0  0  0  0  0  0  0  0  0
  133.0979   73.9933  227.0096 H   0  0  0  0  0  0  0  0  0  0  0  0
  133.9999   72.1867  225.5037 H   0  0  0  0  0  0  0  0  0  0  0  0
  1  2  1  0
  2  3  1  0
  3  4  1  0
  4  5  1  0
  5  6  1  0
  6  7  2  0
  6  8  1  0
  8  9  1  0
  9 10  1  0
 10 11  1  0
 11 12  1  0
 12 13  1  0
 13 14  1  0
 14 15  1  0
 15 16  1  0
  9 17  1  0
 17 18  2  0
 17 19  1  0
 19 20  2  0
 19 21  1  0
 21 22  1  0
 22 23  1  0
  5 24  1  0
 24 25  2  0
 25 26  1  0
 26 27  2  0
 27 28  1  0
 28 29  2  0
 29 30  1  0
 30 31  2  0
 31 32  1  0
 16 11  1  0
 32 24  1  0
 32 27  1  0
  1 33  1  0
  1 34  1  0
  1 35  1  0
  2 36  1  0
  2 37  1  0
  3 38  1  0
  3 39  1  0
  4 40  1  0
  4 41  1  0
  5 42  1  6
  8 43  1  0
  9 44  1  6
 10 45  1  0
 10 46  1  0
 11 47  1  0
 12 48  1  0
 12 49  1  0
 13 50  1  0
 13 51  1  0
 14 52  1  0
 14 53  1  0
 15 54  1  0
 15 55  1  0
 16 56  1  0
 16 57  1  0
 22 58  1  0
 22 59  1  0
 23 60  1  0
 23 61  1  0
 23 62  1  0
 28 63  1  0
 29 64  1  0
 30 65  1  0
 31 66  1  0
M  CHG  1  21  -1
M  END
>  <UniqueID>  (28) 
2

>  <SMILES>  (28) 
CCCC[C@H](C(=O)N[C@H](CC1CCCCC1)C(=O)C(=O)[N-]CC)c1nnc2ccccn12

>  <Energy>  (28) 
94.28438007694615

>  <Genealogy>  (28) 
CCCCC(C(=O)NC(CC1CCCCC1)C(=O)C(=O)[N-]CC)c1nnc2ccccn12 (protonated)
CCCC[C@H](C(=O)N[C@H](CC1CCCCC1)C(=O)C(=O)[N-]CC)c1nnc2ccccn12 (chirality)
CCCC[C@H](C(=O)N[C@H](CC1CCCCC1)C(=O)C(=O)[N-]CC)c1nnc2ccccn12 (3D coordinates assigned)
CCCC[C@H](C(=O)N[C@H](CC1CCCCC1)C(=O)C(=O)[N-]CC)c1nnc2ccccn12 (nonaromatic ring conformer: 94.28438007694615 kcal/mol)

>  <smiles>  (28) 
CCCCC(C(=O)NC(CC1CCCCC1)C(=O)C(=O)NCC)c1nnc2ccccn12

>  <score_type>  (28) 
oracle

>  <origin>  (28) 
autodockgpu

>  <m_score__min__energy>  (28) 
-7.4000000000000004

>  <m_primary>  (28) 
energy

>  <meeko>  (28) 
{"free_energy": -6.21, "intermolecular_energy": -9.79, "internal_energy": -3.48, "cluster_size": 2, "cluster_id": 4, "rank_in_cluster": 2}

>  <energy>  (28) 
-6.33

>  <cluster_rmsd>  (28) 
0.98

>  <rmsd>  (28) 
270.62

>  <cluster>  (28) 
3

$$$$
NNKZOUMTYASKLJ-JYRSORQKNA-M
     RDKit          3D

 66 68  0  0  0  0  0  0  0  0999 V2000
  142.8800   81.9600  217.4160 C   0  0  0  0  0  0  0  0  0  0  0  0
  142.6570   80.6430  218.1530 C   0  0  0  0  0  0  0  0  0  0  0  0
  141.1940   80.1920  218.0470 C   0  0  0  0  0  0  0  0  0  0  0  0
  141.0040   78.6870  218.3140 C   0  0  0  0  0  0  0  0  0  0  0  0
  142.1270   78.0600  219.1790 C   0  0  2  0  0  0  0  0  0  0  0  0
  142.5700   76.7070  218.6780 C   0  0  0  0  0  0  0  0  0  0  0  0
  142.5090   76.4650  217.4420 O   0  0  0  0  0  0  0  0  0  0  0  0
  143.0930   75.7160  219.5770 N   0  0  0  0  0  0  0  0  0  0  0  0
  143.5900   74.4220  219.0990 C   0  0  2  0  0  0  0  0  0  0  0  0
  142.4720   73.3480  219.1190 C   0  0  0  0  0  0  0  0  0  0  0  0
  141.7350   73.1720  220.4720 C   0  0  0  0  0  0  0  0  0  0  0  0
  140.3830   73.9070  220.5280 C   0  0  0  0  0  0  0  0  0  0  0  0
  139.7820   73.8750  221.9450 C   0  0  0  0  0  0  0  0  0  0  0  0
  140.0350   72.5470  222.6910 C   0  0  0  0  0  0  0  0  0  0  0  0
  140.3460   71.3920  221.7340 C   0  0  0  0  0  0  0  0  0  0  0  0
  141.6050   71.6810  220.8920 C   0  0  0  0  0  0  0  0  0  0  0  0
  144.7350   73.9830  219.9790 C   0  0  0  0  0  0  0  0  0  0  0  0
  144.6470   74.1620  221.2240 O   0  0  0  0  0  0  0  0  0  0  0  0
  145.9190   73.3040  219.4050 C   0  0  0  0  0  0  0  0  0  0  0  0
  147.0670   73.7560  219.6540 O   0  0  0  0  0  0  0  0  0  0  0  0
  145.8160   72.1330  218.5830 N   0  0  0  0  0  0  0  0  0  0  0  0
  145.2210   70.8630  218.9830 C   0  0  0  0  0  0  0  0  0  0  0  0
  146.2770   69.7700  218.9570 C   0  0  0  0  0  0  0  0  0  0  0  0
  141.8070   77.9800  220.6580 C   0  0  0  0  0  0  0  0  0  0  0  0
  141.3330   76.8440  221.2200 N   0  0  0  0  0  0  0  0  0  0  0  0
  141.0770   77.0950  222.4980 N   0  0  0  0  0  0  0  0  0  0  0  0
  141.3880   78.3860  222.6940 C   0  0  0  0  0  0  0  0  0  0  0  0
  141.2740   79.0860  223.8910 C   0  0  0  0  0  0  0  0  0  0  0  0
  141.6490   80.4370  223.8910 C   0  0  0  0  0  0  0  0  0  0  0  0
  142.1170   81.0430  222.7100 C   0  0  0  0  0  0  0  0  0  0  0  0
  142.2090   80.2860  221.5320 C   0  0  0  0  0  0  0  0  0  0  0  0
  141.8390   78.9760  221.5740 N   0  0  0  0  0  0  0  0  0  0  0  0
  143.0172   82.7705  218.1469 H   0  0  0  0  0  0  0  0  0  0  0  0
  143.7773   81.8796  216.7848 H   0  0  0  0  0  0  0  0  0  0  0  0
  142.0062   82.1795  216.7848 H   0  0  0  0  0  0  0  0  0  0  0  0
  143.3040   79.8704  217.7120 H   0  0  0  0  0  0  0  0  0  0  0  0
  142.9010   80.7912  219.2153 H   0  0  0  0  0  0  0  0  0  0  0  0
  140.6000   80.7555  218.7816 H   0  0  0  0  0  0  0  0  0  0  0  0
  140.8653   80.3858  217.0153 H   0  0  0  0  0  0  0  0  0  0  0  0
  140.0451   78.5451  218.8340 H   0  0  0  0  0  0  0  0  0  0  0  0
  141.0311   78.1817  217.3373 H   0  0  0  0  0  0  0  0  0  0  0  0
  142.9615   78.7679  219.0672 H   0  0  0  0  0  0  0  0  0  0  0  0
  143.2350   75.9670  220.5780 H   0  0  0  0  0  0  0  0  0  0  0  0
  143.9300   74.5360  218.0591 H   0  0  0  0  0  0  0  0  0  0  0  0
  141.7248   73.6233  218.3601 H   0  0  0  0  0  0  0  0  0  0  0  0
  142.9732   72.3887  218.9228 H   0  0  0  0  0  0  0  0  0  0  0  0
  142.3779   73.6589  221.2201 H   0  0  0  0  0  0  0  0  0  0  0  0
  140.5327   74.9543  220.2267 H   0  0  0  0  0  0  0  0  0  0  0  0
  139.6855   73.3993  219.8456 H   0  0  0  0  0  0  0  0  0  0  0  0
  140.2265   74.6934  222.5304 H   0  0  0  0  0  0  0  0  0  0  0  0
  138.6927   73.9833  221.8372 H   0  0  0  0  0  0  0  0  0  0  0  0
  140.8881   72.6811  223.3724 H   0  0  0  0  0  0  0  0  0  0  0  0
  139.1176   72.2902  223.2410 H   0  0  0  0  0  0  0  0  0  0  0  0
  140.5104   70.4760  222.3204 H   0  0  0  0  0  0  0  0  0  0  0  0
  139.4931   71.2705  221.0501 H   0  0  0  0  0  0  0  0  0  0  0  0
  142.4910   71.4063  221.4832 H   0  0  0  0  0  0  0  0  0  0  0  0
  141.5226   71.0885  219.9689 H   0  0  0  0  0  0  0  0  0  0  0  0
  144.8148   70.9544  220.0012 H   0  0  0  0  0  0  0  0  0  0  0  0
  144.4123   70.6040  218.2837 H   0  0  0  0  0  0  0  0  0  0  0  0
  146.5440   69.4936  219.9877 H   0  0  0  0  0  0  0  0  0  0  0  0
  145.8796   68.8887  218.4323 H   0  0  0  0  0  0  0  0  0  0  0  0
  147.1715   70.1368  218.4323 H   0  0  0  0  0  0  0  0  0  0  0  0
  140.9032   78.5973  224.8041 H   0  0  0  0  0  0  0  0  0  0  0  0
  141.5772   81.0256  224.8175 H   0  0  0  0  0  0  0  0  0  0  0  0
  142.4089   82.1036  222.7104 H   0  0  0  0  0  0  0  0  0  0  0  0
  142.5711   80.7396  220.5976 H   0  0  0  0  0  0  0  0  0  0  0  0
  1  2  1  0
  2  3  1  0
  3  4  1  0
  4  5  1  0
  5  6  1  0
  6  7  2  0
  6  8  1  0
  8  9  1  0
  9 10  1  0
 10 11  1  0
 11 12  1  0
 12 13  1  0
 13 14  1  0
 14 15  1  0
 15 16  1  0
  9 17  1  0
 17 18  2  0
 17 19  1  0
 19 20  2  0
 19 21  1  0
 21 22  1  0
 22 23  1  0
  5 24  1  0
 24 25  2  0
 25 26  1  0
 26 27  2  0
 27 28  1  0
 28 29  2  0
 29 30  1  0
 30 31  2  0
 31 32  1  0
 16 11  1  0
 32 24  1  0
 32 27  1  0
  1 33  1  0
  1 34  1  0
  1 35  1  0
  2 36  1  0
  2 37  1  0
  3 38  1  0
  3 39  1  0
  4 40  1  0
  4 41  1  0
  5 42  1  1
  8 43  1  0
  9 44  1  6
 10 45  1  0
 10 46  1  0
 11 47  1  0
 12 48  1  0
 12 49  1  0
 13 50  1  0
 13 51  1  0
 14 52  1  0
 14 53  1  0
 15 54  1  0
 15 55  1  0
 16 56  1  0
 16 57  1  0
 22 58  1  0
 22 59  1  0
 23 60  1  0
 23 61  1  0
 23 62  1  0
 28 63  1  0
 29 64  1  0
 30 65  1  0
 31 66  1  0
M  CHG  1  21  -1
M  END
>  <UniqueID>  (29) 
2

>  <SMILES>  (29) 
CCCC[C@H](C(=O)N[C@H](CC1CCCCC1)C(=O)C(=O)[N-]CC)c1nnc2ccccn12

>  <Energy>  (29) 
94.28438007694615

>  <Genealogy>  (29) 
CCCCC(C(=O)NC(CC1CCCCC1)C(=O)C(=O)[N-]CC)c1nnc2ccccn12 (protonated)
CCCC[C@H](C(=O)N[C@H](CC1CCCCC1)C(=O)C(=O)[N-]CC)c1nnc2ccccn12 (chirality)
CCCC[C@H](C(=O)N[C@H](CC1CCCCC1)C(=O)C(=O)[N-]CC)c1nnc2ccccn12 (3D coordinates assigned)
CCCC[C@H](C(=O)N[C@H](CC1CCCCC1)C(=O)C(=O)[N-]CC)c1nnc2ccccn12 (nonaromatic ring conformer: 94.28438007694615 kcal/mol)

>  <smiles>  (29) 
CCCCC(C(=O)NC(CC1CCCCC1)C(=O)C(=O)NCC)c1nnc2ccccn12

>  <score_type>  (29) 
oracle

>  <origin>  (29) 
autodockgpu

>  <m_score__min__energy>  (29) 
-7.4000000000000004

>  <m_primary>  (29) 
energy

>  <meeko>  (29) 
{"free_energy": -6.61, "intermolecular_energy": -10.19, "internal_energy": -3.32, "cluster_size": 3, "cluster_id": 3, "rank_in_cluster": 1}

>  <energy>  (29) 
-5.9

>  <cluster_rmsd>  (29) 
0.85

>  <rmsd>  (29) 
270.62

>  <cluster>  (29) 
3

$$$$
NNKZOUMTYASKLJ-JYRSORQKNA-M
     RDKit          3D

 66 68  0  0  0  0  0  0  0  0999 V2000
  139.5330   74.7270  221.9460 C   0  0  0  0  0  0  0  0  0  0  0  0
  140.0700   73.2990  221.9600 C   0  0  0  0  0  0  0  0  0  0  0  0
  138.9710   72.3000  222.3440 C   0  0  0  0  0  0  0  0  0  0  0  0
  139.3210   71.4650  223.5910 C   0  0  0  0  0  0  0  0  0  0  0  0
  139.0170   69.9530  223.4350 C   0  0  2  0  0  0  0  0  0  0  0  0
  137.6100   69.6820  222.9600 C   0  0  0  0  0  0  0  0  0  0  0  0
  137.4420   69.0940  221.8570 O   0  0  0  0  0  0  0  0  0  0  0  0
  136.4720   70.0450  223.7580 N   0  0  0  0  0  0  0  0  0  0  0  0
  135.1020   69.7280  223.3430 C   0  0  2  0  0  0  0  0  0  0  0  0
  134.2180   71.0020  223.3030 C   0  0  0  0  0  0  0  0  0  0  0  0
  134.9370   72.3280  223.6640 C   0  0  0  0  0  0  0  0  0  0  0  0
  135.2420   73.2080  222.4370 C   0  0  0  0  0  0  0  0  0  0  0  0
  136.1260   74.4100  222.8110 C   0  0  0  0  0  0  0  0  0  0  0  0
  135.8010   75.0070  224.1970 C   0  0  0  0  0  0  0  0  0  0  0  0
  134.3870   74.6480  224.6680 C   0  0  0  0  0  0  0  0  0  0  0  0
  134.2010   73.1220  224.7800 C   0  0  0  0  0  0  0  0  0  0  0  0
  134.5160   68.7320  224.3130 C   0  0  0  0  0  0  0  0  0  0  0  0
  134.3010   67.5540  223.9180 O   0  0  0  0  0  0  0  0  0  0  0  0
  134.2470   69.1070  225.7200 C   0  0  0  0  0  0  0  0  0  0  0  0
  133.5000   68.3740  226.4190 O   0  0  0  0  0  0  0  0  0  0  0  0
  134.8180   70.2710  226.3330 N   0  0  0  0  0  0  0  0  0  0  0  0
  134.2980   70.9530  227.5120 C   0  0  0  0  0  0  0  0  0  0  0  0
  132.9290   71.5360  227.2050 C   0  0  0  0  0  0  0  0  0  0  0  0
  139.3090   69.1270  224.6700 C   0  0  0  0  0  0  0  0  0  0  0  0
  138.8750   67.8500  224.7880 N   0  0  0  0  0  0  0  0  0  0  0  0
  139.2130   67.4120  225.9940 N   0  0  0  0  0  0  0  0  0  0  0  0
  139.8410   68.4330  226.6000 C   0  0  0  0  0  0  0  0  0  0  0  0
  140.3680   68.4270  227.8880 C   0  0  0  0  0  0  0  0  0  0  0  0
  140.9840   69.6000  228.3420 C   0  0  0  0  0  0  0  0  0  0  0  0
  141.0530   70.7330  227.5100 C   0  0  0  0  0  0  0  0  0  0  0  0
  140.5030   70.6810  226.2200 C   0  0  0  0  0  0  0  0  0  0  0  0
  139.9150   69.5210  225.8150 N   0  0  0  0  0  0  0  0  0  0  0  0
  139.4006   75.0791  222.9797 H   0  0  0  0  0  0  0  0  0  0  0  0
  140.2463   75.3819  221.4241 H   0  0  0  0  0  0  0  0  0  0  0  0
  138.5650   74.7496  221.4241 H   0  0  0  0  0  0  0  0  0  0  0  0
  140.4498   73.0481  220.9586 H   0  0  0  0  0  0  0  0  0  0  0  0
  140.8760   73.2359  222.7059 H   0  0  0  0  0  0  0  0  0  0  0  0
  138.0451   72.8587  222.5455 H   0  0  0  0  0  0  0  0  0  0  0  0
  138.8556   71.6005  221.5030 H   0  0  0  0  0  0  0  0  0  0  0  0
  140.3948   71.5836  223.7980 H   0  0  0  0  0  0  0  0  0  0  0  0
  138.6912   71.8360  224.4130 H   0  0  0  0  0  0  0  0  0  0  0  0
  139.7213   69.6283  222.6549 H   0  0  0  0  0  0  0  0  0  0  0  0
  136.6290   70.4340  224.7110 H   0  0  0  0  0  0  0  0  0  0  0  0
  135.1289   69.3028  222.3288 H   0  0  0  0  0  0  0  0  0  0  0  0
  133.8145   71.1022  222.2846 H   0  0  0  0  0  0  0  0  0  0  0  0
  133.4472   70.8579  224.0745 H   0  0  0  0  0  0  0  0  0  0  0  0
  135.9123   72.0284  224.0752 H   0  0  0  0  0  0  0  0  0  0  0  0
  135.7644   72.6011  221.6828 H   0  0  0  0  0  0  0  0  0  0  0  0
  134.2895   73.5901  222.0410 H   0  0  0  0  0  0  0  0  0  0  0  0
  137.1763   74.0831  222.8105 H   0  0  0  0  0  0  0  0  0  0  0  0
  135.9331   75.1969  222.0669 H   0  0  0  0  0  0  0  0  0  0  0  0
  136.5262   74.6198  224.9278 H   0  0  0  0  0  0  0  0  0  0  0  0
  135.8601   76.1023  224.1139 H   0  0  0  0  0  0  0  0  0  0  0  0
  134.2121   75.1030  225.6541 H   0  0  0  0  0  0  0  0  0  0  0  0
  133.6685   75.0305  223.9281 H   0  0  0  0  0  0  0  0  0  0  0  0
  134.5891   72.7939  225.7555 H   0  0  0  0  0  0  0  0  0  0  0  0
  133.1259   72.9164  224.6705 H   0  0  0  0  0  0  0  0  0  0  0  0
  134.2121   70.2354  228.3412 H   0  0  0  0  0  0  0  0  0  0  0  0
  134.9842   71.7648  227.7952 H   0  0  0  0  0  0  0  0  0  0  0  0
  132.4058   71.7588  228.1466 H   0  0  0  0  0  0  0  0  0  0  0  0
  133.0469   72.4620  226.6231 H   0  0  0  0  0  0  0  0  0  0  0  0
  132.3431   70.8093  226.6231 H   0  0  0  0  0  0  0  0  0  0  0  0
  140.3031   67.5335  228.5263 H   0  0  0  0  0  0  0  0  0  0  0  0
  141.4157   69.6359  229.3531 H   0  0  0  0  0  0  0  0  0  0  0  0
  141.5353   71.6542  227.8689 H   0  0  0  0  0  0  0  0  0  0  0  0
  140.5457   71.5546  225.5530 H   0  0  0  0  0  0  0  0  0  0  0  0
  1  2  1  0
  2  3  1  0
  3  4  1  0
  4  5  1  0
  5  6  1  0
  6  7  2  0
  6  8  1  0
  8  9  1  0
  9 10  1  0
 10 11  1  0
 11 12  1  0
 12 13  1  0
 13 14  1  0
 14 15  1  0
 15 16  1  0
  9 17  1  0
 17 18  2  0
 17 19  1  0
 19 20  2  0
 19 21  1  0
 21 22  1  0
 22 23  1  0
  5 24  1  0
 24 25  2  0
 25 26  1  0
 26 27  2  0
 27 28  1  0
 28 29  2  0
 29 30  1  0
 30 31  2  0
 31 32  1  0
 16 11  1  0
 32 24  1  0
 32 27  1  0
  1 33  1  0
  1 34  1  0
  1 35  1  0
  2 36  1  0
  2 37  1  0
  3 38  1  0
  3 39  1  0
  4 40  1  0
  4 41  1  0
  5 42  1  6
  8 43  1  0
  9 44  1  6
 10 45  1  0
 10 46  1  0
 11 47  1  0
 12 48  1  0
 12 49  1  0
 13 50  1  0
 13 51  1  0
 14 52  1  0
 14 53  1  0
 15 54  1  0
 15 55  1  0
 16 56  1  0
 16 57  1  0
 22 58  1  0
 22 59  1  0
 23 60  1  0
 23 61  1  0
 23 62  1  0
 28 63  1  0
 29 64  1  0
 30 65  1  0
 31 66  1  0
M  CHG  1  21  -1
M  END
>  <UniqueID>  (30) 
2

>  <SMILES>  (30) 
CCCC[C@H](C(=O)N[C@H](CC1CCCCC1)C(=O)C(=O)[N-]CC)c1nnc2ccccn12

>  <Energy>  (30) 
94.28438007694615

>  <Genealogy>  (30) 
CCCCC(C(=O)NC(CC1CCCCC1)C(=O)C(=O)[N-]CC)c1nnc2ccccn12 (protonated)
CCCC[C@H](C(=O)N[C@H](CC1CCCCC1)C(=O)C(=O)[N-]CC)c1nnc2ccccn12 (chirality)
CCCC[C@H](C(=O)N[C@H](CC1CCCCC1)C(=O)C(=O)[N-]CC)c1nnc2ccccn12 (3D coordinates assigned)
CCCC[C@H](C(=O)N[C@H](CC1CCCCC1)C(=O)C(=O)[N-]CC)c1nnc2ccccn12 (nonaromatic ring conformer: 94.28438007694615 kcal/mol)

>  <smiles>  (30) 
CCCCC(C(=O)NC(CC1CCCCC1)C(=O)C(=O)NCC)c1nnc2ccccn12

>  <score_type>  (30) 
oracle

>  <origin>  (30) 
autodockgpu

>  <m_score__min__energy>  (30) 
-7.4000000000000004

>  <m_primary>  (30) 
energy

>  <meeko>  (30) 
{"free_energy": -6.76, "intermolecular_energy": -10.34, "internal_energy": -2.76, "cluster_size": 5, "cluster_id": 1, "rank_in_cluster": 2}

>  <energy>  (30) 
-6.25

>  <cluster_rmsd>  (30) 
0.0

>  <rmsd>  (30) 
270.3

>  <cluster>  (30) 
4

$$$$
NNKZOUMTYASKLJ-JYRSORQKNA-M
     RDKit          3D

 66 68  0  0  0  0  0  0  0  0999 V2000
  141.0250   82.4150  221.1450 C   0  0  0  0  0  0  0  0  0  0  0  0
  141.8320   81.1220  221.0750 C   0  0  0  0  0  0  0  0  0  0  0  0
  142.5310   80.8360  222.4100 C   0  0  0  0  0  0  0  0  0  0  0  0
  141.6090   81.0290  223.6290 C   0  0  0  0  0  0  0  0  0  0  0  0
  140.6050   79.8680  223.8420 C   0  0  2  0  0  0  0  0  0  0  0  0
  141.1430   78.5330  223.3880 C   0  0  0  0  0  0  0  0  0  0  0  0
  142.1840   78.0770  223.9350 O   0  0  0  0  0  0  0  0  0  0  0  0
  140.4680   77.7630  222.3800 N   0  0  0  0  0  0  0  0  0  0  0  0
  140.9390   76.4350  221.9760 C   0  0  2  0  0  0  0  0  0  0  0  0
  141.6010   76.4750  220.5740 C   0  0  0  0  0  0  0  0  0  0  0  0
  141.5300   77.8390  219.8390 C   0  0  0  0  0  0  0  0  0  0  0  0
  142.5110   77.9440  218.6560 C   0  0  0  0  0  0  0  0  0  0  0  0
  142.5520   79.3720  218.0830 C   0  0  0  0  0  0  0  0  0  0  0  0
  141.1790   80.0770  218.0850 C   0  0  0  0  0  0  0  0  0  0  0  0
  140.0150   79.0820  218.1510 C   0  0  0  0  0  0  0  0  0  0  0  0
  140.0800   78.2210  219.4280 C   0  0  0  0  0  0  0  0  0  0  0  0
  139.7670   75.4850  221.9590 C   0  0  0  0  0  0  0  0  0  0  0  0
  139.9480   74.2890  222.3140 O   0  0  0  0  0  0  0  0  0  0  0  0
  138.4130   75.9550  221.5860 C   0  0  0  0  0  0  0  0  0  0  0  0
  137.7930   75.3690  220.6600 O   0  0  0  0  0  0  0  0  0  0  0  0
  137.7630   77.0480  222.2490 N   0  0  0  0  0  0  0  0  0  0  0  0
  136.4210   77.0210  222.8180 C   0  0  0  0  0  0  0  0  0  0  0  0
  136.1740   75.6780  223.4860 C   0  0  0  0  0  0  0  0  0  0  0  0
  139.2380   80.1040  223.2330 C   0  0  0  0  0  0  0  0  0  0  0  0
  139.0220   79.9730  221.9040 N   0  0  0  0  0  0  0  0  0  0  0  0
  137.7630   80.3120  221.6570 N   0  0  0  0  0  0  0  0  0  0  0  0
  137.2310   80.6560  222.8410 C   0  0  0  0  0  0  0  0  0  0  0  0
  135.9260   81.0850  223.0620 C   0  0  0  0  0  0  0  0  0  0  0  0
  135.5620   81.4030  224.3780 C   0  0  0  0  0  0  0  0  0  0  0  0
  136.5000   81.2870  225.4210 C   0  0  0  0  0  0  0  0  0  0  0  0
  137.8020   80.8500  225.1370 C   0  0  0  0  0  0  0  0  0  0  0  0
  138.1160   80.5480  223.8470 N   0  0  0  0  0  0  0  0  0  0  0  0
  140.8563   82.6854  222.1978 H   0  0  0  0  0  0  0  0  0  0  0  0
  141.5804   83.2215  220.6438 H   0  0  0  0  0  0  0  0  0  0  0  0
  140.0565   82.2704  220.6438 H   0  0  0  0  0  0  0  0  0  0  0  0
  141.1550   80.2881  220.8378 H   0  0  0  0  0  0  0  0  0  0  0  0
  142.5994   81.2302  220.2943 H   0  0  0  0  0  0  0  0  0  0  0  0
  142.8879   79.7955  222.4024 H   0  0  0  0  0  0  0  0  0  0  0  0
  143.3581   81.5547  222.5075 H   0  0  0  0  0  0  0  0  0  0  0  0
  142.2363   81.1148  224.5285 H   0  0  0  0  0  0  0  0  0  0  0  0
  141.0157   81.9363  223.4423 H   0  0  0  0  0  0  0  0  0  0  0  0
  140.4724   79.8414  224.9336 H   0  0  0  0  0  0  0  0  0  0  0  0
  139.5550   78.1030  222.0130 H   0  0  0  0  0  0  0  0  0  0  0  0
  141.6962   76.0942  222.6975 H   0  0  0  0  0  0  0  0  0  0  0  0
  142.6618   76.2092  220.6927 H   0  0  0  0  0  0  0  0  0  0  0  0
  141.0327   75.7677  219.9521 H   0  0  0  0  0  0  0  0  0  0  0  0
  141.8600   78.5856  220.5763 H   0  0  0  0  0  0  0  0  0  0  0  0
  143.5183   77.6682  219.0013 H   0  0  0  0  0  0  0  0  0  0  0  0
  142.1693   77.2631  217.8625 H   0  0  0  0  0  0  0  0  0  0  0  0
  143.2508   79.9694  218.6870 H   0  0  0  0  0  0  0  0  0  0  0  0
  142.8715   79.2900  217.0336 H   0  0  0  0  0  0  0  0  0  0  0  0
  141.1247   80.7435  218.9584 H   0  0  0  0  0  0  0  0  0  0  0  0
  141.0880   80.6398  217.1443 H   0  0  0  0  0  0  0  0  0  0  0  0
  139.0670   79.6399  218.1438 H   0  0  0  0  0  0  0  0  0  0  0  0
  140.0824   78.4135  217.2800 H   0  0  0  0  0  0  0  0  0  0  0  0
  139.6203   78.7849  220.2531 H   0  0  0  0  0  0  0  0  0  0  0  0
  139.5437   77.2841  219.2169 H   0  0  0  0  0  0  0  0  0  0  0  0
  136.3240   77.8236  223.5639 H   0  0  0  0  0  0  0  0  0  0  0  0
  135.6827   77.1701  222.0164 H   0  0  0  0  0  0  0  0  0  0  0  0
  136.1969   75.8023  224.5787 H   0  0  0  0  0  0  0  0  0  0  0  0
  135.1899   75.2924  223.1813 H   0  0  0  0  0  0  0  0  0  0  0  0
  136.9565   74.9675  223.1813 H   0  0  0  0  0  0  0  0  0  0  0  0
  135.2063   81.1715  222.2346 H   0  0  0  0  0  0  0  0  0  0  0  0
  134.5394   81.7445  224.5963 H   0  0  0  0  0  0  0  0  0  0  0  0
  136.2135   81.5377  226.4530 H   0  0  0  0  0  0  0  0  0  0  0  0
  138.5511   80.7536  225.9367 H   0  0  0  0  0  0  0  0  0  0  0  0
  1  2  1  0
  2  3  1  0
  3  4  1  0
  4  5  1  0
  5  6  1  0
  6  7  2  0
  6  8  1  0
  8  9  1  0
  9 10  1  0
 10 11  1  0
 11 12  1  0
 12 13  1  0
 13 14  1  0
 14 15  1  0
 15 16  1  0
  9 17  1  0
 17 18  2  0
 17 19  1  0
 19 20  2  0
 19 21  1  0
 21 22  1  0
 22 23  1  0
  5 24  1  0
 24 25  2  0
 25 26  1  0
 26 27  2  0
 27 28  1  0
 28 29  2  0
 29 30  1  0
 30 31  2  0
 31 32  1  0
 16 11  1  0
 32 24  1  0
 32 27  1  0
  1 33  1  0
  1 34  1  0
  1 35  1  0
  2 36  1  0
  2 37  1  0
  3 38  1  0
  3 39  1  0
  4 40  1  0
  4 41  1  0
  5 42  1  1
  8 43  1  0
  9 44  1  1
 10 45  1  0
 10 46  1  0
 11 47  1  0
 12 48  1  0
 12 49  1  0
 13 50  1  0
 13 51  1  0
 14 52  1  0
 14 53  1  0
 15 54  1  0
 15 55  1  0
 16 56  1  0
 16 57  1  0
 22 58  1  0
 22 59  1  0
 23 60  1  0
 23 61  1  0
 23 62  1  0
 28 63  1  0
 29 64  1  0
 30 65  1  0
 31 66  1  0
M  CHG  1  21  -1
M  END
>  <UniqueID>  (31) 
2

>  <SMILES>  (31) 
CCCC[C@H](C(=O)N[C@H](CC1CCCCC1)C(=O)C(=O)[N-]CC)c1nnc2ccccn12

>  <Energy>  (31) 
94.28438007694615

>  <Genealogy>  (31) 
CCCCC(C(=O)NC(CC1CCCCC1)C(=O)C(=O)[N-]CC)c1nnc2ccccn12 (protonated)
CCCC[C@H](C(=O)N[C@H](CC1CCCCC1)C(=O)C(=O)[N-]CC)c1nnc2ccccn12 (chirality)
CCCC[C@H](C(=O)N[C@H](CC1CCCCC1)C(=O)C(=O)[N-]CC)c1nnc2ccccn12 (3D coordinates assigned)
CCCC[C@H](C(=O)N[C@H](CC1CCCCC1)C(=O)C(=O)[N-]CC)c1nnc2ccccn12 (nonaromatic ring conformer: 94.28438007694615 kcal/mol)

>  <smiles>  (31) 
CCCCC(C(=O)NC(CC1CCCCC1)C(=O)C(=O)NCC)c1nnc2ccccn12

>  <score_type>  (31) 
oracle

>  <origin>  (31) 
autodockgpu

>  <m_score__min__energy>  (31) 
-7.4000000000000004

>  <m_primary>  (31) 
energy

>  <meeko>  (31) 
{"free_energy": -4.45, "intermolecular_energy": -8.03, "internal_energy": -4.64, "cluster_size": 3, "cluster_id": 7, "rank_in_cluster": 3}

>  <energy>  (31) 
-6.21

>  <cluster_rmsd>  (31) 
1.39

>  <rmsd>  (31) 
270.54

>  <cluster>  (31) 
4

$$$$
NNKZOUMTYASKLJ-JYRSORQKNA-M
     RDKit          3D

 66 68  0  0  0  0  0  0  0  0999 V2000
  141.5280   79.3180  223.8430 C   0  0  0  0  0  0  0  0  0  0  0  0
  142.3930   79.7660  222.6690 C   0  0  0  0  0  0  0  0  0  0  0  0
  141.5270   80.1740  221.4700 C   0  0  0  0  0  0  0  0  0  0  0  0
  141.2470   79.0090  220.5020 C   0  0  0  0  0  0  0  0  0  0  0  0
  141.8090   77.6480  220.9850 C   0  0  2  0  0  0  0  0  0  0  0  0
  142.5730   76.9120  219.9110 C   0  0  0  0  0  0  0  0  0  0  0  0
  142.7570   77.4760  218.7980 O   0  0  0  0  0  0  0  0  0  0  0  0
  143.1220   75.6060  220.1510 N   0  0  0  0  0  0  0  0  0  0  0  0
  143.9240   74.9060  219.1430 C   0  0  2  0  0  0  0  0  0  0  0  0
  143.0240   74.2770  218.0470 C   0  0  0  0  0  0  0  0  0  0  0  0
  141.6910   73.6620  218.5470 C   0  0  0  0  0  0  0  0  0  0  0  0
  141.7680   73.1350  219.9920 C   0  0  0  0  0  0  0  0  0  0  0  0
  140.4960   72.3590  220.3770 C   0  0  0  0  0  0  0  0  0  0  0  0
  139.2040   72.9590  219.7830 C   0  0  0  0  0  0  0  0  0  0  0  0
  139.3720   74.4330  219.3960 C   0  0  0  0  0  0  0  0  0  0  0  0
  140.4800   74.6150  218.3390 C   0  0  0  0  0  0  0  0  0  0  0  0
  144.7300   73.8270  219.8230 C   0  0  0  0  0  0  0  0  0  0  0  0
  144.5790   73.6440  221.0610 O   0  0  0  0  0  0  0  0  0  0  0  0
  145.6440   72.9570  219.0470 C   0  0  0  0  0  0  0  0  0  0  0  0
  146.1830   73.4090  218.0030 O   0  0  0  0  0  0  0  0  0  0  0  0
  145.9580   71.6150  219.4440 N   0  0  0  0  0  0  0  0  0  0  0  0
  145.2570   70.4130  219.0060 C   0  0  0  0  0  0  0  0  0  0  0  0
  146.2310   69.2480  218.9410 C   0  0  0  0  0  0  0  0  0  0  0  0
  140.7760   76.7280  221.6010 C   0  0  0  0  0  0  0  0  0  0  0  0
  141.0550   75.4340  221.8810 N   0  0  0  0  0  0  0  0  0  0  0  0
  139.9470   74.8640  222.3380 N   0  0  0  0  0  0  0  0  0  0  0  0
  139.0030   75.8190  222.3210 C   0  0  0  0  0  0  0  0  0  0  0  0
  137.6760   75.6700  222.7140 C   0  0  0  0  0  0  0  0  0  0  0  0
  136.8410   76.7920  222.6160 C   0  0  0  0  0  0  0  0  0  0  0  0
  137.3470   78.0130  222.1320 C   0  0  0  0  0  0  0  0  0  0  0  0
  138.6940   78.1020  221.7490 C   0  0  0  0  0  0  0  0  0  0  0  0
  139.4740   76.9910  221.8630 N   0  0  0  0  0  0  0  0  0  0  0  0
  142.0288   79.5774  224.7874 H   0  0  0  0  0  0  0  0  0  0  0  0
  140.5527   79.8243  223.7941 H   0  0  0  0  0  0  0  0  0  0  0  0
  141.3788   78.2293  223.7941 H   0  0  0  0  0  0  0  0  0  0  0  0
  143.0040   80.6261  222.9803 H   0  0  0  0  0  0  0  0  0  0  0  0
  143.0350   78.9255  222.3668 H   0  0  0  0  0  0  0  0  0  0  0  0
  140.5661   80.5554  221.8459 H   0  0  0  0  0  0  0  0  0  0  0  0
  142.0833   80.9396  220.9093 H   0  0  0  0  0  0  0  0  0  0  0  0
  140.1579   78.9118  220.3816 H   0  0  0  0  0  0  0  0  0  0  0  0
  141.7545   79.2485  219.5559 H   0  0  0  0  0  0  0  0  0  0  0  0
  142.5088   77.9297  221.7856 H   0  0  0  0  0  0  0  0  0  0  0  0
  143.0530   75.1980  221.1070 H   0  0  0  0  0  0  0  0  0  0  0  0
  144.5926   75.6312  218.6561 H   0  0  0  0  0  0  0  0  0  0  0  0
  142.7814   75.0625  217.3162 H   0  0  0  0  0  0  0  0  0  0  0  0
  143.6020   73.4413  217.6257 H   0  0  0  0  0  0  0  0  0  0  0  0
  141.5184   72.7815  217.9107 H   0  0  0  0  0  0  0  0  0  0  0  0
  142.6363   72.4659  220.0828 H   0  0  0  0  0  0  0  0  0  0  0  0
  141.8655   73.9964  220.6692 H   0  0  0  0  0  0  0  0  0  0  0  0
  140.5970   71.3246  220.0167 H   0  0  0  0  0  0  0  0  0  0  0  0
  140.4036   72.4129  221.4718 H   0  0  0  0  0  0  0  0  0  0  0  0
  138.9283   72.3866  218.8850 H   0  0  0  0  0  0  0  0  0  0  0  0
  138.4205   72.9002  220.5528 H   0  0  0  0  0  0  0  0  0  0  0  0
  138.4217   74.8058  218.9861 H   0  0  0  0  0  0  0  0  0  0  0  0
  139.6569   74.9968  220.2965 H   0  0  0  0  0  0  0  0  0  0  0  0
  140.0498   74.4212  217.3453 H   0  0  0  0  0  0  0  0  0  0  0  0
  140.8554   75.6445  218.4345 H   0  0  0  0  0  0  0  0  0  0  0  0
  144.4529   70.1782  219.7189 H   0  0  0  0  0  0  0  0  0  0  0  0
  144.8269   70.5848  218.0082 H   0  0  0  0  0  0  0  0  0  0  0  0
  146.4944   68.9329  219.9615 H   0  0  0  0  0  0  0  0  0  0  0  0
  145.7627   68.4079  218.4072 H   0  0  0  0  0  0  0  0  0  0  0  0
  147.1408   69.5600  218.4072 H   0  0  0  0  0  0  0  0  0  0  0  0
  137.2965   74.7075  223.0877 H   0  0  0  0  0  0  0  0  0  0  0  0
  135.7861   76.7178  222.9186 H   0  0  0  0  0  0  0  0  0  0  0  0
  136.6905   78.8922  222.0545 H   0  0  0  0  0  0  0  0  0  0  0  0
  139.1098   79.0456  221.3661 H   0  0  0  0  0  0  0  0  0  0  0  0
  1  2  1  0
  2  3  1  0
  3  4  1  0
  4  5  1  0
  5  6  1  0
  6  7  2  0
  6  8  1  0
  8  9  1  0
  9 10  1  0
 10 11  1  0
 11 12  1  0
 12 13  1  0
 13 14  1  0
 14 15  1  0
 15 16  1  0
  9 17  1  0
 17 18  2  0
 17 19  1  0
 19 20  2  0
 19 21  1  0
 21 22  1  0
 22 23  1  0
  5 24  1  0
 24 25  2  0
 25 26  1  0
 26 27  2  0
 27 28  1  0
 28 29  2  0
 29 30  1  0
 30 31  2  0
 31 32  1  0
 16 11  1  0
 32 24  1  0
 32 27  1  0
  1 33  1  0
  1 34  1  0
  1 35  1  0
  2 36  1  0
  2 37  1  0
  3 38  1  0
  3 39  1  0
  4 40  1  0
  4 41  1  0
  5 42  1  1
  8 43  1  0
  9 44  1  6
 10 45  1  0
 10 46  1  0
 11 47  1  0
 12 48  1  0
 12 49  1  0
 13 50  1  0
 13 51  1  0
 14 52  1  0
 14 53  1  0
 15 54  1  0
 15 55  1  0
 16 56  1  0
 16 57  1  0
 22 58  1  0
 22 59  1  0
 23 60  1  0
 23 61  1  0
 23 62  1  0
 28 63  1  0
 29 64  1  0
 30 65  1  0
 31 66  1  0
M  CHG  1  21  -1
M  END
>  <UniqueID>  (32) 
2

>  <SMILES>  (32) 
CCCC[C@H](C(=O)N[C@H](CC1CCCCC1)C(=O)C(=O)[N-]CC)c1nnc2ccccn12

>  <Energy>  (32) 
94.28438007694615

>  <Genealogy>  (32) 
CCCCC(C(=O)NC(CC1CCCCC1)C(=O)C(=O)[N-]CC)c1nnc2ccccn12 (protonated)
CCCC[C@H](C(=O)N[C@H](CC1CCCCC1)C(=O)C(=O)[N-]CC)c1nnc2ccccn12 (chirality)
CCCC[C@H](C(=O)N[C@H](CC1CCCCC1)C(=O)C(=O)[N-]CC)c1nnc2ccccn12 (3D coordinates assigned)
CCCC[C@H](C(=O)N[C@H](CC1CCCCC1)C(=O)C(=O)[N-]CC)c1nnc2ccccn12 (nonaromatic ring conformer: 94.28438007694615 kcal/mol)

>  <smiles>  (32) 
CCCCC(C(=O)NC(CC1CCCCC1)C(=O)C(=O)NCC)c1nnc2ccccn12

>  <score_type>  (32) 
oracle

>  <origin>  (32) 
autodockgpu

>  <m_score__min__energy>  (32) 
-7.4000000000000004

>  <m_primary>  (32) 
energy

>  <meeko>  (32) 
{"free_energy": -5.93, "intermolecular_energy": -9.51, "internal_energy": -3.97, "cluster_size": 5, "cluster_id": 6, "rank_in_cluster": 4}

>  <energy>  (32) 
-6.16

>  <cluster_rmsd>  (32) 
0.0

>  <rmsd>  (32) 
270.59

>  <cluster>  (32) 
5

$$$$
NNKZOUMTYASKLJ-JYRSORQKNA-M
     RDKit          3D

 66 68  0  0  0  0  0  0  0  0999 V2000
  144.9550   73.3690  220.7800 C   0  0  0  0  0  0  0  0  0  0  0  0
  144.0680   74.5620  220.4410 C   0  0  0  0  0  0  0  0  0  0  0  0
  142.8840   74.1380  219.5630 C   0  0  0  0  0  0  0  0  0  0  0  0
  141.5640   74.8290  219.9520 C   0  0  0  0  0  0  0  0  0  0  0  0
  141.2400   74.7490  221.4650 C   0  0  2  0  0  0  0  0  0  0  0  0
  140.9270   73.3460  221.9260 C   0  0  0  0  0  0  0  0  0  0  0  0
  141.7720   72.4330  221.7200 O   0  0  0  0  0  0  0  0  0  0  0  0
  139.7090   73.0480  222.6270 N   0  0  0  0  0  0  0  0  0  0  0  0
  139.4200   71.7060  223.1420 C   0  0  2  0  0  0  0  0  0  0  0  0
  140.5800   71.1810  224.0260 C   0  0  0  0  0  0  0  0  0  0  0  0
  140.2020   70.8270  225.4880 C   0  0  0  0  0  0  0  0  0  0  0  0
  140.5470   69.3750  225.8710 C   0  0  0  0  0  0  0  0  0  0  0  0
  139.9780   69.0070  227.2530 C   0  0  0  0  0  0  0  0  0  0  0  0
  140.0310   70.1660  228.2700 C   0  0  0  0  0  0  0  0  0  0  0  0
  141.0720   71.2250  227.8910 C   0  0  0  0  0  0  0  0  0  0  0  0
  140.7660   71.8490  226.5150 C   0  0  0  0  0  0  0  0  0  0  0  0
  139.2040   70.7720  221.9760 C   0  0  0  0  0  0  0  0  0  0  0  0
  139.0710   71.2610  220.8220 O   0  0  0  0  0  0  0  0  0  0  0  0
  139.2030   69.3040  222.1680 C   0  0  0  0  0  0  0  0  0  0  0  0
  139.8770   68.5830  221.3870 O   0  0  0  0  0  0  0  0  0  0  0  0
  138.4750   68.6610  223.2240 N   0  0  0  0  0  0  0  0  0  0  0  0
  137.0910   68.9360  223.5910 C   0  0  0  0  0  0  0  0  0  0  0  0
  137.0460   69.6050  224.9550 C   0  0  0  0  0  0  0  0  0  0  0  0
  140.1480   75.6950  221.9220 C   0  0  0  0  0  0  0  0  0  0  0  0
  138.8380   75.3910  221.7700 N   0  0  0  0  0  0  0  0  0  0  0  0
  138.1250   76.4300  222.1880 N   0  0  0  0  0  0  0  0  0  0  0  0
  139.0130   77.3570  222.5810 C   0  0  0  0  0  0  0  0  0  0  0  0
  138.7150   78.6170  223.0920 C   0  0  0  0  0  0  0  0  0  0  0  0
  139.7890   79.4460  223.4420 C   0  0  0  0  0  0  0  0  0  0  0  0
  141.1130   79.0010  223.2720 C   0  0  0  0  0  0  0  0  0  0  0  0
  141.3530   77.7210  222.7500 C   0  0  0  0  0  0  0  0  0  0  0  0
  140.2820   76.9440  222.4260 N   0  0  0  0  0  0  0  0  0  0  0  0
  145.0307   73.2672  221.8727 H   0  0  0  0  0  0  0  0  0  0  0  0
  144.5163   72.4537  220.3560 H   0  0  0  0  0  0  0  0  0  0  0  0
  145.9578   73.5255  220.3560 H   0  0  0  0  0  0  0  0  0  0  0  0
  143.6844   75.0010  221.3738 H   0  0  0  0  0  0  0  0  0  0  0  0
  144.6688   75.2975  219.8859 H   0  0  0  0  0  0  0  0  0  0  0  0
  143.1159   74.3898  218.5176 H   0  0  0  0  0  0  0  0  0  0  0  0
  142.7417   73.0565  219.7051 H   0  0  0  0  0  0  0  0  0  0  0  0
  141.6302   75.8893  219.6668 H   0  0  0  0  0  0  0  0  0  0  0  0
  140.7572   74.3009  219.4227 H   0  0  0  0  0  0  0  0  0  0  0  0
  142.1735   75.0781  221.9449 H   0  0  0  0  0  0  0  0  0  0  0  0
  139.0700   73.8300  222.8830 H   0  0  0  0  0  0  0  0  0  0  0  0
  138.5153   71.7535  223.7659 H   0  0  0  0  0  0  0  0  0  0  0  0
  140.9830   70.2740  223.5517 H   0  0  0  0  0  0  0  0  0  0  0  0
  141.3035   72.0067  224.0941 H   0  0  0  0  0  0  0  0  0  0  0  0
  139.1054   70.9020  225.5322 H   0  0  0  0  0  0  0  0  0  0  0  0
  140.1225   68.6958  225.1170 H   0  0  0  0  0  0  0  0  0  0  0  0
  141.6421   69.2791  225.9114 H   0  0  0  0  0  0  0  0  0  0  0  0
  138.9286   68.7021  227.1273 H   0  0  0  0  0  0  0  0  0  0  0  0
  140.6035   68.1960  227.6544 H   0  0  0  0  0  0  0  0  0  0  0  0
  139.0409   70.6432  228.3145 H   0  0  0  0  0  0  0  0  0  0  0  0
  140.3183   69.7454  229.2450 H   0  0  0  0  0  0  0  0  0  0  0  0
  141.0683   72.0188  228.6525 H   0  0  0  0  0  0  0  0  0  0  0  0
  142.0570   70.7382  227.8385 H   0  0  0  0  0  0  0  0  0  0  0  0
  140.0257   72.6509  226.6521 H   0  0  0  0  0  0  0  0  0  0  0  0
  141.7163   72.2271  226.1101 H   0  0  0  0  0  0  0  0  0  0  0  0
  136.6396   69.6028  222.8416 H   0  0  0  0  0  0  0  0  0  0  0  0
  136.5298   67.9907  223.6302 H   0  0  0  0  0  0  0  0  0  0  0  0
  137.0976   68.8378  225.7416 H   0  0  0  0  0  0  0  0  0  0  0  0
  137.9000   70.2910  225.0553 H   0  0  0  0  0  0  0  0  0  0  0  0
  136.1078   70.1704  225.0553 H   0  0  0  0  0  0  0  0  0  0  0  0
  137.6740   78.9499  223.2165 H   0  0  0  0  0  0  0  0  0  0  0  0
  139.5964   80.4487  223.8513 H   0  0  0  0  0  0  0  0  0  0  0  0
  141.9552   79.6530  223.5468 H   0  0  0  0  0  0  0  0  0  0  0  0
  142.3800   77.3542  222.6060 H   0  0  0  0  0  0  0  0  0  0  0  0
  1  2  1  0
  2  3  1  0
  3  4  1  0
  4  5  1  0
  5  6  1  0
  6  7  2  0
  6  8  1  0
  8  9  1  0
  9 10  1  0
 10 11  1  0
 11 12  1  0
 12 13  1  0
 13 14  1  0
 14 15  1  0
 15 16  1  0
  9 17  1  0
 17 18  2  0
 17 19  1  0
 19 20  2  0
 19 21  1  0
 21 22  1  0
 22 23  1  0
  5 24  1  0
 24 25  2  0
 25 26  1  0
 26 27  2  0
 27 28  1  0
 28 29  2  0
 29 30  1  0
 30 31  2  0
 31 32  1  0
 16 11  1  0
 32 24  1  0
 32 27  1  0
  1 33  1  0
  1 34  1  0
  1 35  1  0
  2 36  1  0
  2 37  1  0
  3 38  1  0
  3 39  1  0
  4 40  1  0
  4 41  1  0
  5 42  1  1
  8 43  1  0
  9 44  1  1
 10 45  1  0
 10 46  1  0
 11 47  1  0
 12 48  1  0
 12 49  1  0
 13 50  1  0
 13 51  1  0
 14 52  1  0
 14 53  1  0
 15 54  1  0
 15 55  1  0
 16 56  1  0
 16 57  1  0
 22 58  1  0
 22 59  1  0
 23 60  1  0
 23 61  1  0
 23 62  1  0
 28 63  1  0
 29 64  1  0
 30 65  1  0
 31 66  1  0
M  CHG  1  21  -1
M  END
>  <UniqueID>  (33) 
2

>  <SMILES>  (33) 
CCCC[C@H](C(=O)N[C@H](CC1CCCCC1)C(=O)C(=O)[N-]CC)c1nnc2ccccn12

>  <Energy>  (33) 
94.28438007694615

>  <Genealogy>  (33) 
CCCCC(C(=O)NC(CC1CCCCC1)C(=O)C(=O)[N-]CC)c1nnc2ccccn12 (protonated)
CCCC[C@H](C(=O)N[C@H](CC1CCCCC1)C(=O)C(=O)[N-]CC)c1nnc2ccccn12 (chirality)
CCCC[C@H](C(=O)N[C@H](CC1CCCCC1)C(=O)C(=O)[N-]CC)c1nnc2ccccn12 (3D coordinates assigned)
CCCC[C@H](C(=O)N[C@H](CC1CCCCC1)C(=O)C(=O)[N-]CC)c1nnc2ccccn12 (nonaromatic ring conformer: 94.28438007694615 kcal/mol)

>  <smiles>  (33) 
CCCCC(C(=O)NC(CC1CCCCC1)C(=O)C(=O)NCC)c1nnc2ccccn12

>  <score_type>  (33) 
oracle

>  <origin>  (33) 
autodockgpu

>  <m_score__min__energy>  (33) 
-7.4000000000000004

>  <m_primary>  (33) 
energy

>  <meeko>  (33) 
{"free_energy": -6.67, "intermolecular_energy": -10.25, "internal_energy": -2.67, "cluster_size": 1, "cluster_id": 2, "rank_in_cluster": 1}

>  <energy>  (33) 
-6.06

>  <cluster_rmsd>  (33) 
0.0

>  <rmsd>  (33) 
270.31

>  <cluster>  (33) 
6

$$$$
NNKZOUMTYASKLJ-JYRSORQKNA-M
     RDKit          3D

 66 68  0  0  0  0  0  0  0  0999 V2000
  138.3370   77.3720  220.6800 C   0  0  0  0  0  0  0  0  0  0  0  0
  138.8620   77.5370  219.2570 C   0  0  0  0  0  0  0  0  0  0  0  0
  139.6630   78.8370  219.1110 C   0  0  0  0  0  0  0  0  0  0  0  0
  140.9790   78.6520  218.3330 C   0  0  0  0  0  0  0  0  0  0  0  0
  142.1220   78.0320  219.1780 C   0  0  2  0  0  0  0  0  0  0  0  0
  142.5520   76.6740  218.6790 C   0  0  0  0  0  0  0  0  0  0  0  0
  142.4330   76.4090  217.4510 O   0  0  0  0  0  0  0  0  0  0  0  0
  143.1280   75.7040  219.5670 N   0  0  0  0  0  0  0  0  0  0  0  0
  143.6140   74.4060  219.0870 C   0  0  2  0  0  0  0  0  0  0  0  0
  142.4870   73.3410  219.1090 C   0  0  0  0  0  0  0  0  0  0  0  0
  141.7240   73.2000  220.4530 C   0  0  0  0  0  0  0  0  0  0  0  0
  140.3690   73.9320  220.4610 C   0  0  0  0  0  0  0  0  0  0  0  0
  139.7400   73.9370  221.8660 C   0  0  0  0  0  0  0  0  0  0  0  0
  139.9810   72.6310  222.6540 C   0  0  0  0  0  0  0  0  0  0  0  0
  140.3140   71.4510  221.7350 C   0  0  0  0  0  0  0  0  0  0  0  0
  141.5890   71.7210  220.9100 C   0  0  0  0  0  0  0  0  0  0  0  0
  144.7570   73.9570  219.9650 C   0  0  0  0  0  0  0  0  0  0  0  0
  144.6760   74.1410  221.2090 O   0  0  0  0  0  0  0  0  0  0  0  0
  145.9310   73.2630  219.3880 C   0  0  0  0  0  0  0  0  0  0  0  0
  147.0820   73.7270  219.5980 O   0  0  0  0  0  0  0  0  0  0  0  0
  145.8160   72.0650  218.6080 N   0  0  0  0  0  0  0  0  0  0  0  0
  145.2050   70.8170  219.0510 C   0  0  0  0  0  0  0  0  0  0  0  0
  146.2170   69.6880  218.9520 C   0  0  0  0  0  0  0  0  0  0  0  0
  141.8360   77.9660  220.6640 C   0  0  0  0  0  0  0  0  0  0  0  0
  141.4070   76.8260  221.2520 N   0  0  0  0  0  0  0  0  0  0  0  0
  141.1710   77.0880  222.5320 N   0  0  0  0  0  0  0  0  0  0  0  0
  141.4510   78.3900  222.7030 C   0  0  0  0  0  0  0  0  0  0  0  0
  141.3450   79.1050  223.8920 C   0  0  0  0  0  0  0  0  0  0  0  0
  141.6820   80.4650  223.8640 C   0  0  0  0  0  0  0  0  0  0  0  0
  142.1070   81.0660  222.6640 C   0  0  0  0  0  0  0  0  0  0  0  0
  142.1940   80.2950  221.4950 C   0  0  0  0  0  0  0  0  0  0  0  0
  141.8610   78.9760  221.5650 N   0  0  0  0  0  0  0  0  0  0  0  0
  139.1336   77.6224  221.3960 H   0  0  0  0  0  0  0  0  0  0  0  0
  137.4802   78.0442  220.8349 H   0  0  0  0  0  0  0  0  0  0  0  0
  138.0187   76.3305  220.8349 H   0  0  0  0  0  0  0  0  0  0  0  0
  139.5131   76.6846  219.0132 H   0  0  0  0  0  0  0  0  0  0  0  0
  138.0035   77.5767  218.5704 H   0  0  0  0  0  0  0  0  0  0  0  0
  139.0422   79.5727  218.5787 H   0  0  0  0  0  0  0  0  0  0  0  0
  139.9259   79.1756  220.1240 H   0  0  0  0  0  0  0  0  0  0  0  0
  140.7849   77.9922  217.4745 H   0  0  0  0  0  0  0  0  0  0  0  0
  141.3139   79.6537  218.0258 H   0  0  0  0  0  0  0  0  0  0  0  0
  142.9544   78.7379  219.0409 H   0  0  0  0  0  0  0  0  0  0  0  0
  143.3170   75.9740  220.5550 H   0  0  0  0  0  0  0  0  0  0  0  0
  143.9532   74.5179  218.0466 H   0  0  0  0  0  0  0  0  0  0  0  0
  141.7559   73.6058  218.3309 H   0  0  0  0  0  0  0  0  0  0  0  0
  142.9836   72.3738  218.9419 H   0  0  0  0  0  0  0  0  0  0  0  0
  142.3505   73.7087  221.2005 H   0  0  0  0  0  0  0  0  0  0  0  0
  140.5219   74.9711  220.1339 H   0  0  0  0  0  0  0  0  0  0  0  0
  139.6868   73.4037  219.7788 H   0  0  0  0  0  0  0  0  0  0  0  0
  140.1706   74.7727  222.4372 H   0  0  0  0  0  0  0  0  0  0  0  0
  138.6528   74.0385  221.7331 H   0  0  0  0  0  0  0  0  0  0  0  0
  140.8198   72.7864  223.3484 H   0  0  0  0  0  0  0  0  0  0  0  0
  139.0537   72.3869  223.1929 H   0  0  0  0  0  0  0  0  0  0  0  0
  140.4692   70.5519  222.3494 H   0  0  0  0  0  0  0  0  0  0  0  0
  139.4751   71.3082  221.0380 H   0  0  0  0  0  0  0  0  0  0  0  0
  142.4639   71.4646  221.5255 H   0  0  0  0  0  0  0  0  0  0  0  0
  141.5259   71.1039  220.0016 H   0  0  0  0  0  0  0  0  0  0  0  0
  144.8751   70.9218  220.0951 H   0  0  0  0  0  0  0  0  0  0  0  0
  144.3398   70.5878  218.4115 H   0  0  0  0  0  0  0  0  0  0  0  0
  146.5063   69.3652  219.9630 H   0  0  0  0  0  0  0  0  0  0  0  0
  145.7699   68.8412  218.4107 H   0  0  0  0  0  0  0  0  0  0  0  0
  147.1075   70.0402  218.4107 H   0  0  0  0  0  0  0  0  0  0  0  0
  141.0088   78.6202  224.8204 H   0  0  0  0  0  0  0  0  0  0  0  0
  141.6142   81.0652  224.7833 H   0  0  0  0  0  0  0  0  0  0  0  0
  142.3694   82.1340  222.6430 H   0  0  0  0  0  0  0  0  0  0  0  0
  142.5227   80.7442  220.5462 H   0  0  0  0  0  0  0  0  0  0  0  0
  1  2  1  0
  2  3  1  0
  3  4  1  0
  4  5  1  0
  5  6  1  0
  6  7  2  0
  6  8  1  0
  8  9  1  0
  9 10  1  0
 10 11  1  0
 11 12  1  0
 12 13  1  0
 13 14  1  0
 14 15  1  0
 15 16  1  0
  9 17  1  0
 17 18  2  0
 17 19  1  0
 19 20  2  0
 19 21  1  0
 21 22  1  0
 22 23  1  0
  5 24  1  0
 24 25  2  0
 25 26  1  0
 26 27  2  0
 27 28  1  0
 28 29  2  0
 29 30  1  0
 30 31  2  0
 31 32  1  0
 16 11  1  0
 32 24  1  0
 32 27  1  0
  1 33  1  0
  1 34  1  0
  1 35  1  0
  2 36  1  0
  2 37  1  0
  3 38  1  0
  3 39  1  0
  4 40  1  0
  4 41  1  0
  5 42  1  1
  8 43  1  0
  9 44  1  6
 10 45  1  0
 10 46  1  0
 11 47  1  0
 12 48  1  0
 12 49  1  0
 13 50  1  0
 13 51  1  0
 14 52  1  0
 14 53  1  0
 15 54  1  0
 15 55  1  0
 16 56  1  0
 16 57  1  0
 22 58  1  0
 22 59  1  0
 23 60  1  0
 23 61  1  0
 23 62  1  0
 28 63  1  0
 29 64  1  0
 30 65  1  0
 31 66  1  0
M  CHG  1  21  -1
M  END
>  <UniqueID>  (34) 
2

>  <SMILES>  (34) 
CCCC[C@H](C(=O)N[C@H](CC1CCCCC1)C(=O)C(=O)[N-]CC)c1nnc2ccccn12

>  <Energy>  (34) 
94.28438007694615

>  <Genealogy>  (34) 
CCCCC(C(=O)NC(CC1CCCCC1)C(=O)C(=O)[N-]CC)c1nnc2ccccn12 (protonated)
CCCC[C@H](C(=O)N[C@H](CC1CCCCC1)C(=O)C(=O)[N-]CC)c1nnc2ccccn12 (chirality)
CCCC[C@H](C(=O)N[C@H](CC1CCCCC1)C(=O)C(=O)[N-]CC)c1nnc2ccccn12 (3D coordinates assigned)
CCCC[C@H](C(=O)N[C@H](CC1CCCCC1)C(=O)C(=O)[N-]CC)c1nnc2ccccn12 (nonaromatic ring conformer: 94.28438007694615 kcal/mol)

>  <smiles>  (34) 
CCCCC(C(=O)NC(CC1CCCCC1)C(=O)C(=O)NCC)c1nnc2ccccn12

>  <score_type>  (34) 
oracle

>  <origin>  (34) 
autodockgpu

>  <m_score__min__energy>  (34) 
-7.4000000000000004

>  <m_primary>  (34) 
energy

>  <meeko>  (34) 
{"free_energy": -5.9, "intermolecular_energy": -9.48, "internal_energy": -3.78, "cluster_size": 3, "cluster_id": 3, "rank_in_cluster": 3}

>  <energy>  (34) 
-6.0

>  <cluster_rmsd>  (34) 
1.2

>  <rmsd>  (34) 
270.36

>  <cluster>  (34) 
6

$$$$
NNKZOUMTYASKLJ-JYRSORQKNA-M
     RDKit          3D

 66 68  0  0  0  0  0  0  0  0999 V2000
  138.9410   73.5340  221.9420 C   0  0  0  0  0  0  0  0  0  0  0  0
  140.3500   72.9660  221.7990 C   0  0  0  0  0  0  0  0  0  0  0  0
  140.6300   71.9070  222.8730 C   0  0  0  0  0  0  0  0  0  0  0  0
  139.3630   71.4600  223.6260 C   0  0  0  0  0  0  0  0  0  0  0  0
  139.0380   69.9530  223.4620 C   0  0  2  0  0  0  0  0  0  0  0  0
  137.6280   69.7040  222.9830 C   0  0  0  0  0  0  0  0  0  0  0  0
  137.4520   69.1420  221.8680 O   0  0  0  0  0  0  0  0  0  0  0  0
  136.4950   70.0580  223.7920 N   0  0  0  0  0  0  0  0  0  0  0  0
  135.1210   69.7620  223.3730 C   0  0  2  0  0  0  0  0  0  0  0  0
  134.2510   71.0460  223.3500 C   0  0  0  0  0  0  0  0  0  0  0  0
  135.0330   72.3860  223.3530 C   0  0  0  0  0  0  0  0  0  0  0  0
  134.6320   73.3260  222.2010 C   0  0  0  0  0  0  0  0  0  0  0  0
  135.5630   74.5490  222.1220 C   0  0  0  0  0  0  0  0  0  0  0  0
  136.0100   75.0740  223.5030 C   0  0  0  0  0  0  0  0  0  0  0  0
  135.0630   74.6370  224.6260 C   0  0  0  0  0  0  0  0  0  0  0  0
  134.9860   73.1010  224.7330 C   0  0  0  0  0  0  0  0  0  0  0  0
  134.5240   68.7590  224.3300 C   0  0  0  0  0  0  0  0  0  0  0  0
  134.2850   67.5930  223.9160 O   0  0  0  0  0  0  0  0  0  0  0  0
  134.2720   69.1140  225.7450 C   0  0  0  0  0  0  0  0  0  0  0  0
  133.5690   68.3480  226.4540 O   0  0  0  0  0  0  0  0  0  0  0  0
  134.8130   70.2950  226.3550 N   0  0  0  0  0  0  0  0  0  0  0  0
  134.3000   70.9420  227.5570 C   0  0  0  0  0  0  0  0  0  0  0  0
  133.1110   71.8180  227.2010 C   0  0  0  0  0  0  0  0  0  0  0  0
  139.3170   69.1160  224.6920 C   0  0  0  0  0  0  0  0  0  0  0  0
  138.8840   67.8380  224.7930 N   0  0  0  0  0  0  0  0  0  0  0  0
  139.2090   67.3880  225.9990 N   0  0  0  0  0  0  0  0  0  0  0  0
  139.8290   68.4050  226.6210 C   0  0  0  0  0  0  0  0  0  0  0  0
  140.3420   68.3870  227.9140 C   0  0  0  0  0  0  0  0  0  0  0  0
  140.9530   69.5570  228.3860 C   0  0  0  0  0  0  0  0  0  0  0  0
  141.0290   70.6970  227.5650 C   0  0  0  0  0  0  0  0  0  0  0  0
  140.4930   70.6570  226.2690 C   0  0  0  0  0  0  0  0  0  0  0  0
  139.9110   69.5000  225.8460 N   0  0  0  0  0  0  0  0  0  0  0  0
  138.6926   73.6341  223.0089 H   0  0  0  0  0  0  0  0  0  0  0  0
  138.8931   74.5217  221.4601 H   0  0  0  0  0  0  0  0  0  0  0  0
  138.2215   72.8556  221.4601 H   0  0  0  0  0  0  0  0  0  0  0  0
  140.4527   72.5058  220.8052 H   0  0  0  0  0  0  0  0  0  0  0  0
  141.0718   73.7870  221.9212 H   0  0  0  0  0  0  0  0  0  0  0  0
  141.0780   71.0269  222.3884 H   0  0  0  0  0  0  0  0  0  0  0  0
  141.3076   72.3602  223.6116 H   0  0  0  0  0  0  0  0  0  0  0  0
  139.5033   71.6703  224.6966 H   0  0  0  0  0  0  0  0  0  0  0  0
  138.5194   72.0190  223.1948 H   0  0  0  0  0  0  0  0  0  0  0  0
  139.7392   69.6229  222.6814 H   0  0  0  0  0  0  0  0  0  0  0  0
  136.6560   70.4250  224.7540 H   0  0  0  0  0  0  0  0  0  0  0  0
  135.1431   69.3505  222.3531 H   0  0  0  0  0  0  0  0  0  0  0  0
  133.6307   71.0182  222.4420 H   0  0  0  0  0  0  0  0  0  0  0  0
  133.6717   71.0337  224.2851 H   0  0  0  0  0  0  0  0  0  0  0  0
  136.0830   72.1131  223.1713 H   0  0  0  0  0  0  0  0  0  0  0  0
  134.6874   72.7725  221.2520 H   0  0  0  0  0  0  0  0  0  0  0  0
  133.6081   73.6826  222.3866 H   0  0  0  0  0  0  0  0  0  0  0  0
  136.4594   74.2676  221.5499 H   0  0  0  0  0  0  0  0  0  0  0  0
  134.9949   75.3568  221.6376 H   0  0  0  0  0  0  0  0  0  0  0  0
  137.0170   74.6878  223.7192 H   0  0  0  0  0  0  0  0  0  0  0  0
  136.0010   76.1733  223.4640 H   0  0  0  0  0  0  0  0  0  0  0  0
  135.4282   75.0441  225.5804 H   0  0  0  0  0  0  0  0  0  0  0  0
  134.0568   75.0184  224.3976 H   0  0  0  0  0  0  0  0  0  0  0  0
  135.8354   72.7499  225.3374 H   0  0  0  0  0  0  0  0  0  0  0  0
  134.0188   72.8543  225.1953 H   0  0  0  0  0  0  0  0  0  0  0  0
  133.9850   70.1743  228.2791 H   0  0  0  0  0  0  0  0  0  0  0  0
  135.0908   71.5649  228.0004 H   0  0  0  0  0  0  0  0  0  0  0  0
  132.6284   72.1736  228.1233 H   0  0  0  0  0  0  0  0  0  0  0  0
  133.4546   72.6804  226.6110 H   0  0  0  0  0  0  0  0  0  0  0  0
  132.3891   71.2343  226.6110 H   0  0  0  0  0  0  0  0  0  0  0  0
  140.2708   67.4874  228.5431 H   0  0  0  0  0  0  0  0  0  0  0  0
  141.3745   69.5839  229.4017 H   0  0  0  0  0  0  0  0  0  0  0  0
  141.5064   71.6154  227.9374 H   0  0  0  0  0  0  0  0  0  0  0  0
  140.5414   71.5373  225.6112 H   0  0  0  0  0  0  0  0  0  0  0  0
  1  2  1  0
  2  3  1  0
  3  4  1  0
  4  5  1  0
  5  6  1  0
  6  7  2  0
  6  8  1  0
  8  9  1  0
  9 10  1  0
 10 11  1  0
 11 12  1  0
 12 13  1  0
 13 14  1  0
 14 15  1  0
 15 16  1  0
  9 17  1  0
 17 18  2  0
 17 19  1  0
 19 20  2  0
 19 21  1  0
 21 22  1  0
 22 23  1  0
  5 24  1  0
 24 25  2  0
 25 26  1  0
 26 27  2  0
 27 28  1  0
 28 29  2  0
 29 30  1  0
 30 31  2  0
 31 32  1  0
 16 11  1  0
 32 24  1  0
 32 27  1  0
  1 33  1  0
  1 34  1  0
  1 35  1  0
  2 36  1  0
  2 37  1  0
  3 38  1  0
  3 39  1  0
  4 40  1  0
  4 41  1  0
  5 42  1  6
  8 43  1  0
  9 44  1  6
 10 45  1  0
 10 46  1  0
 11 47  1  0
 12 48  1  0
 12 49  1  0
 13 50  1  0
 13 51  1  0
 14 52  1  0
 14 53  1  0
 15 54  1  0
 15 55  1  0
 16 56  1  0
 16 57  1  0
 22 58  1  0
 22 59  1  0
 23 60  1  0
 23 61  1  0
 23 62  1  0
 28 63  1  0
 29 64  1  0
 30 65  1  0
 31 66  1  0
M  CHG  1  21  -1
M  END
>  <UniqueID>  (35) 
2

>  <SMILES>  (35) 
CCCC[C@H](C(=O)N[C@H](CC1CCCCC1)C(=O)C(=O)[N-]CC)c1nnc2ccccn12

>  <Energy>  (35) 
94.28438007694615

>  <Genealogy>  (35) 
CCCCC(C(=O)NC(CC1CCCCC1)C(=O)C(=O)[N-]CC)c1nnc2ccccn12 (protonated)
CCCC[C@H](C(=O)N[C@H](CC1CCCCC1)C(=O)C(=O)[N-]CC)c1nnc2ccccn12 (chirality)
CCCC[C@H](C(=O)N[C@H](CC1CCCCC1)C(=O)C(=O)[N-]CC)c1nnc2ccccn12 (3D coordinates assigned)
CCCC[C@H](C(=O)N[C@H](CC1CCCCC1)C(=O)C(=O)[N-]CC)c1nnc2ccccn12 (nonaromatic ring conformer: 94.28438007694615 kcal/mol)

>  <smiles>  (35) 
CCCCC(C(=O)NC(CC1CCCCC1)C(=O)C(=O)NCC)c1nnc2ccccn12

>  <score_type>  (35) 
oracle

>  <origin>  (35) 
autodockgpu

>  <m_score__min__energy>  (35) 
-7.4000000000000004

>  <m_primary>  (35) 
energy

>  <meeko>  (35) 
{"free_energy": -6.72, "intermolecular_energy": -10.3, "internal_energy": -2.75, "cluster_size": 5, "cluster_id": 1, "rank_in_cluster": 3}

>  <energy>  (35) 
-5.97

>  <cluster_rmsd>  (35) 
1.12

>  <rmsd>  (35) 
270.37

>  <cluster>  (35) 
6

$$$$
NNKZOUMTYASKLJ-JYRSORQKNA-M
     RDKit          3D

 66 68  0  0  0  0  0  0  0  0999 V2000
  140.5010   82.7710  221.5330 C   0  0  0  0  0  0  0  0  0  0  0  0
  141.4570   81.7160  220.9840 C   0  0  0  0  0  0  0  0  0  0  0  0
  142.1900   80.9920  222.1200 C   0  0  0  0  0  0  0  0  0  0  0  0
  141.4950   81.1480  223.4860 C   0  0  0  0  0  0  0  0  0  0  0  0
  140.5390   79.9790  223.8380 C   0  0  2  0  0  0  0  0  0  0  0  0
  141.0740   78.6340  223.4130 C   0  0  0  0  0  0  0  0  0  0  0  0
  142.1790   78.2420  223.8780 O   0  0  0  0  0  0  0  0  0  0  0  0
  140.3300   77.7840  222.5260 N   0  0  0  0  0  0  0  0  0  0  0  0
  140.8030   76.4460  222.1570 C   0  0  2  0  0  0  0  0  0  0  0  0
  141.5160   76.4620  220.7790 C   0  0  0  0  0  0  0  0  0  0  0  0
  141.4870   77.8170  220.0260 C   0  0  0  0  0  0  0  0  0  0  0  0
  142.4690   77.8740  218.8400 C   0  0  0  0  0  0  0  0  0  0  0  0
  142.5550   79.2920  218.2480 C   0  0  0  0  0  0  0  0  0  0  0  0
  141.2050   80.0400  218.2410 C   0  0  0  0  0  0  0  0  0  0  0  0
  140.0090   79.0840  218.3220 C   0  0  0  0  0  0  0  0  0  0  0  0
  140.0490   78.2390  219.6110 C   0  0  0  0  0  0  0  0  0  0  0  0
  139.6230   75.5060  222.1090 C   0  0  0  0  0  0  0  0  0  0  0  0
  139.8130   74.2790  222.3280 O   0  0  0  0  0  0  0  0  0  0  0  0
  138.2540   76.0160  221.8650 C   0  0  0  0  0  0  0  0  0  0  0  0
  137.6140   75.6020  220.8640 O   0  0  0  0  0  0  0  0  0  0  0  0
  137.6120   76.9580  222.7370 N   0  0  0  0  0  0  0  0  0  0  0  0
  136.1970   76.9640  223.0880 C   0  0  0  0  0  0  0  0  0  0  0  0
  135.8470   75.6820  223.8260 C   0  0  0  0  0  0  0  0  0  0  0  0
  139.1240   80.1530  223.3270 C   0  0  0  0  0  0  0  0  0  0  0  0
  138.8150   79.9750  222.0220 N   0  0  0  0  0  0  0  0  0  0  0  0
  137.5290   80.2660  221.8610 N   0  0  0  0  0  0  0  0  0  0  0  0
  137.0760   80.6280  223.0720 C   0  0  0  0  0  0  0  0  0  0  0  0
  135.7760   81.0220  223.3790 C   0  0  0  0  0  0  0  0  0  0  0  0
  135.5010   81.3670  224.7090 C   0  0  0  0  0  0  0  0  0  0  0  0
  136.5170   81.3130  225.6810 C   0  0  0  0  0  0  0  0  0  0  0  0
  137.8090   80.9100  225.3120 C   0  0  0  0  0  0  0  0  0  0  0  0
  138.0360   80.5790  224.0110 N   0  0  0  0  0  0  0  0  0  0  0  0
  140.5218   82.7480  222.6326 H   0  0  0  0  0  0  0  0  0  0  0  0
  140.8116   83.7659  221.1811 H   0  0  0  0  0  0  0  0  0  0  0  0
  139.4805   82.5597  221.1811 H   0  0  0  0  0  0  0  0  0  0  0  0
  140.8840   80.9808  220.3999 H   0  0  0  0  0  0  0  0  0  0  0  0
  142.2031   82.2164  220.3493 H   0  0  0  0  0  0  0  0  0  0  0  0
  142.2435   79.9209  221.8751 H   0  0  0  0  0  0  0  0  0  0  0  0
  143.1882   81.4459  222.2070 H   0  0  0  0  0  0  0  0  0  0  0  0
  142.2697   81.2091  224.2645 H   0  0  0  0  0  0  0  0  0  0  0  0
  140.8810   82.0591  223.4313 H   0  0  0  0  0  0  0  0  0  0  0  0
  140.4912   80.0085  224.9366 H   0  0  0  0  0  0  0  0  0  0  0  0
  139.3740   78.0740  222.2330 H   0  0  0  0  0  0  0  0  0  0  0  0
  141.5298   76.1078  222.9102 H   0  0  0  0  0  0  0  0  0  0  0  0
  142.5688   76.1863  220.9393 H   0  0  0  0  0  0  0  0  0  0  0  0
  140.9625   75.7534  220.1453 H   0  0  0  0  0  0  0  0  0  0  0  0
  141.8414   78.5629  220.7526 H   0  0  0  0  0  0  0  0  0  0  0  0
  143.4675   77.5704  219.1875 H   0  0  0  0  0  0  0  0  0  0  0  0
  142.1042   77.1938  218.0562 H   0  0  0  0  0  0  0  0  0  0  0  0
  143.2728   79.8749  218.8438 H   0  0  0  0  0  0  0  0  0  0  0  0
  142.8712   79.1860  217.1998 H   0  0  0  0  0  0  0  0  0  0  0  0
  141.1731   80.7203  219.1049 H   0  0  0  0  0  0  0  0  0  0  0  0
  141.1310   80.5915  217.2921 H   0  0  0  0  0  0  0  0  0  0  0  0
  139.0795   79.6721  218.3085 H   0  0  0  0  0  0  0  0  0  0  0  0
  140.0526   78.4020  217.4601 H   0  0  0  0  0  0  0  0  0  0  0  0
  139.6086   78.8285  220.4286 H   0  0  0  0  0  0  0  0  0  0  0  0
  139.4832   77.3166  219.4133 H   0  0  0  0  0  0  0  0  0  0  0  0
  135.9843   77.8280  223.7348 H   0  0  0  0  0  0  0  0  0  0  0  0
  135.5943   77.0324  222.1704 H   0  0  0  0  0  0  0  0  0  0  0  0
  135.8952   75.8585  224.9107 H   0  0  0  0  0  0  0  0  0  0  0  0
  134.8298   75.3664  223.5507 H   0  0  0  0  0  0  0  0  0  0  0  0
  136.5627   74.8933  223.5507 H   0  0  0  0  0  0  0  0  0  0  0  0
  134.9942   81.0609  222.6062 H   0  0  0  0  0  0  0  0  0  0  0  0
  134.4863   81.6814  224.9945 H   0  0  0  0  0  0  0  0  0  0  0  0
  136.2994   81.5853  226.7243 H   0  0  0  0  0  0  0  0  0  0  0  0
  138.6185   80.8626  226.0552 H   0  0  0  0  0  0  0  0  0  0  0  0
  1  2  1  0
  2  3  1  0
  3  4  1  0
  4  5  1  0
  5  6  1  0
  6  7  2  0
  6  8  1  0
  8  9  1  0
  9 10  1  0
 10 11  1  0
 11 12  1  0
 12 13  1  0
 13 14  1  0
 14 15  1  0
 15 16  1  0
  9 17  1  0
 17 18  2  0
 17 19  1  0
 19 20  2  0
 19 21  1  0
 21 22  1  0
 22 23  1  0
  5 24  1  0
 24 25  2  0
 25 26  1  0
 26 27  2  0
 27 28  1  0
 28 29  2  0
 29 30  1  0
 30 31  2  0
 31 32  1  0
 16 11  1  0
 32 24  1  0
 32 27  1  0
  1 33  1  0
  1 34  1  0
  1 35  1  0
  2 36  1  0
  2 37  1  0
  3 38  1  0
  3 39  1  0
  4 40  1  0
  4 41  1  0
  5 42  1  1
  8 43  1  0
  9 44  1  1
 10 45  1  0
 10 46  1  0
 11 47  1  0
 12 48  1  0
 12 49  1  0
 13 50  1  0
 13 51  1  0
 14 52  1  0
 14 53  1  0
 15 54  1  0
 15 55  1  0
 16 56  1  0
 16 57  1  0
 22 58  1  0
 22 59  1  0
 23 60  1  0
 23 61  1  0
 23 62  1  0
 28 63  1  0
 29 64  1  0
 30 65  1  0
 31 66  1  0
M  CHG  1  21  -1
M  END
>  <UniqueID>  (36) 
2

>  <SMILES>  (36) 
CCCC[C@H](C(=O)N[C@H](CC1CCCCC1)C(=O)C(=O)[N-]CC)c1nnc2ccccn12

>  <Energy>  (36) 
94.28438007694615

>  <Genealogy>  (36) 
CCCCC(C(=O)NC(CC1CCCCC1)C(=O)C(=O)[N-]CC)c1nnc2ccccn12 (protonated)
CCCC[C@H](C(=O)N[C@H](CC1CCCCC1)C(=O)C(=O)[N-]CC)c1nnc2ccccn12 (chirality)
CCCC[C@H](C(=O)N[C@H](CC1CCCCC1)C(=O)C(=O)[N-]CC)c1nnc2ccccn12 (3D coordinates assigned)
CCCC[C@H](C(=O)N[C@H](CC1CCCCC1)C(=O)C(=O)[N-]CC)c1nnc2ccccn12 (nonaromatic ring conformer: 94.28438007694615 kcal/mol)

>  <smiles>  (36) 
CCCCC(C(=O)NC(CC1CCCCC1)C(=O)C(=O)NCC)c1nnc2ccccn12

>  <score_type>  (36) 
oracle

>  <origin>  (36) 
autodockgpu

>  <m_score__min__energy>  (36) 
-7.4000000000000004

>  <m_primary>  (36) 
energy

>  <meeko>  (36) 
{"free_energy": -4.5, "intermolecular_energy": -8.08, "internal_energy": -4.62, "cluster_size": 3, "cluster_id": 7, "rank_in_cluster": 2}

>  <energy>  (36) 
-5.93

>  <cluster_rmsd>  (36) 
1.25

>  <rmsd>  (36) 
270.28

>  <cluster>  (36) 
6

$$$$
NNKZOUMTYASKLJ-JYRSORQKNA-M
     RDKit          3D

 66 68  0  0  0  0  0  0  0  0999 V2000
  142.9250   82.0160  217.2840 C   0  0  0  0  0  0  0  0  0  0  0  0
  142.5810   80.8340  218.1850 C   0  0  0  0  0  0  0  0  0  0  0  0
  141.6970   79.8190  217.4490 C   0  0  0  0  0  0  0  0  0  0  0  0
  141.1150   78.7370  218.3790 C   0  0  0  0  0  0  0  0  0  0  0  0
  142.1720   78.0610  219.2880 C   0  0  2  0  0  0  0  0  0  0  0  0
  142.5100   76.6560  218.8540 C   0  0  0  0  0  0  0  0  0  0  0  0
  142.3250   76.3280  217.6490 O   0  0  0  0  0  0  0  0  0  0  0  0
  143.0720   75.7070  219.7750 N   0  0  0  0  0  0  0  0  0  0  0  0
  143.4690   74.3600  219.3530 C   0  0  2  0  0  0  0  0  0  0  0  0
  142.4770   73.2910  219.8810 C   0  0  0  0  0  0  0  0  0  0  0  0
  141.2590   73.8380  220.6700 C   0  0  0  0  0  0  0  0  0  0  0  0
  140.1260   74.3500  219.7610 C   0  0  0  0  0  0  0  0  0  0  0  0
  139.0310   75.0630  220.5740 C   0  0  0  0  0  0  0  0  0  0  0  0
  138.7610   74.4130  221.9480 C   0  0  0  0  0  0  0  0  0  0  0  0
  139.2260   72.9540  222.0030 C   0  0  0  0  0  0  0  0  0  0  0  0
  140.7410   72.8350  221.7380 C   0  0  0  0  0  0  0  0  0  0  0  0
  144.8550   74.0720  219.8770 C   0  0  0  0  0  0  0  0  0  0  0  0
  145.3070   74.7780  220.8190 O   0  0  0  0  0  0  0  0  0  0  0  0
  145.6540   72.9480  219.3380 C   0  0  0  0  0  0  0  0  0  0  0  0
  146.3230   72.2350  220.1310 O   0  0  0  0  0  0  0  0  0  0  0  0
  145.6870   72.6220  217.9420 N   0  0  0  0  0  0  0  0  0  0  0  0
  146.1000   73.5190  216.8690 C   0  0  0  0  0  0  0  0  0  0  0  0
  144.8840   74.2240  216.2920 C   0  0  0  0  0  0  0  0  0  0  0  0
  141.8280   78.0730  220.7630 C   0  0  0  0  0  0  0  0  0  0  0  0
  141.3750   76.9650  221.3940 N   0  0  0  0  0  0  0  0  0  0  0  0
  141.0880   77.2940  222.6480 N   0  0  0  0  0  0  0  0  0  0  0  0
  141.3620   78.6040  222.7600 C   0  0  0  0  0  0  0  0  0  0  0  0
  141.2080   79.3810  223.9040 C   0  0  0  0  0  0  0  0  0  0  0  0
  141.5470   80.7380  223.8170 C   0  0  0  0  0  0  0  0  0  0  0  0
  142.0190   81.2750  222.6050 C   0  0  0  0  0  0  0  0  0  0  0  0
  142.1530   80.4430  221.4830 C   0  0  0  0  0  0  0  0  0  0  0  0
  141.8170   79.1290  221.6100 N   0  0  0  0  0  0  0  0  0  0  0  0
  143.1789   82.8882  217.9043 H   0  0  0  0  0  0  0  0  0  0  0  0
  143.7845   81.7551  216.6490 H   0  0  0  0  0  0  0  0  0  0  0  0
  142.0597   82.2570  216.6490 H   0  0  0  0  0  0  0  0  0  0  0  0
  143.5116   80.3389  218.4994 H   0  0  0  0  0  0  0  0  0  0  0  0
  142.0291   81.2095  219.0593 H   0  0  0  0  0  0  0  0  0  0  0  0
  140.8636   80.3590  216.9758 H   0  0  0  0  0  0  0  0  0  0  0  0
  142.3307   79.3086  216.7087 H   0  0  0  0  0  0  0  0  0  0  0  0
  140.3532   79.2040  219.0206 H   0  0  0  0  0  0  0  0  0  0  0  0
  140.6965   77.9505  217.7338 H   0  0  0  0  0  0  0  0  0  0  0  0
  143.0625   78.6937  219.1587 H   0  0  0  0  0  0  0  0  0  0  0  0
  143.3170   76.0220  220.7370 H   0  0  0  0  0  0  0  0  0  0  0  0
  143.4601   74.3165  218.2539 H   0  0  0  0  0  0  0  0  0  0  0  0
  142.0950   72.7277  219.0168 H   0  0  0  0  0  0  0  0  0  0  0  0
  143.0471   72.6783  220.5948 H   0  0  0  0  0  0  0  0  0  0  0  0
  141.6337   74.7176  221.2140 H   0  0  0  0  0  0  0  0  0  0  0  0
  140.5457   75.0564  219.0297 H   0  0  0  0  0  0  0  0  0  0  0  0
  139.6725   73.4857  219.2538 H   0  0  0  0  0  0  0  0  0  0  0  0
  139.3419   76.1054  220.7373 H   0  0  0  0  0  0  0  0  0  0  0  0
  138.0992   74.9910  219.9938 H   0  0  0  0  0  0  0  0  0  0  0  0
  139.2963   74.9842  222.7208 H   0  0  0  0  0  0  0  0  0  0  0  0
  137.6744   74.4264  222.1187 H   0  0  0  0  0  0  0  0  0  0  0  0
  139.0039   72.5451  222.9997 H   0  0  0  0  0  0  0  0  0  0  0  0
  138.6931   72.3914  221.2223 H   0  0  0  0  0  0  0  0  0  0  0  0
  141.2760   73.0217  222.6808 H   0  0  0  0  0  0  0  0  0  0  0  0
  140.9253   71.8222  221.3502 H   0  0  0  0  0  0  0  0  0  0  0  0
  146.8010   74.2671  217.2677 H   0  0  0  0  0  0  0  0  0  0  0  0
  146.5921   72.9357  216.0767 H   0  0  0  0  0  0  0  0  0  0  0  0
  144.2498   74.5917  217.1122 H   0  0  0  0  0  0  0  0  0  0  0  0
  145.2114   75.0724  215.6731 H   0  0  0  0  0  0  0  0  0  0  0  0
  144.3104   73.5184  215.6731 H   0  0  0  0  0  0  0  0  0  0  0  0
  140.8338   78.9459  224.8425 H   0  0  0  0  0  0  0  0  0  0  0  0
  141.4437   81.3861  224.6998 H   0  0  0  0  0  0  0  0  0  0  0  0
  142.2815   82.3411  222.5375 H   0  0  0  0  0  0  0  0  0  0  0  0
  142.5199   80.8416  220.5256 H   0  0  0  0  0  0  0  0  0  0  0  0
  1  2  1  0
  2  3  1  0
  3  4  1  0
  4  5  1  0
  5  6  1  0
  6  7  2  0
  6  8  1  0
  8  9  1  0
  9 10  1  0
 10 11  1  0
 11 12  1  0
 12 13  1  0
 13 14  1  0
 14 15  1  0
 15 16  1  0
  9 17  1  0
 17 18  2  0
 17 19  1  0
 19 20  2  0
 19 21  1  0
 21 22  1  0
 22 23  1  0
  5 24  1  0
 24 25  2  0
 25 26  1  0
 26 27  2  0
 27 28  1  0
 28 29  2  0
 29 30  1  0
 30 31  2  0
 31 32  1  0
 16 11  1  0
 32 24  1  0
 32 27  1  0
  1 33  1  0
  1 34  1  0
  1 35  1  0
  2 36  1  0
  2 37  1  0
  3 38  1  0
  3 39  1  0
  4 40  1  0
  4 41  1  0
  5 42  1  1
  8 43  1  0
  9 44  1  6
 10 45  1  0
 10 46  1  0
 11 47  1  0
 12 48  1  0
 12 49  1  0
 13 50  1  0
 13 51  1  0
 14 52  1  0
 14 53  1  0
 15 54  1  0
 15 55  1  0
 16 56  1  0
 16 57  1  0
 22 58  1  0
 22 59  1  0
 23 60  1  0
 23 61  1  0
 23 62  1  0
 28 63  1  0
 29 64  1  0
 30 65  1  0
 31 66  1  0
M  CHG  1  21  -1
M  END
>  <UniqueID>  (37) 
2

>  <SMILES>  (37) 
CCCC[C@H](C(=O)N[C@H](CC1CCCCC1)C(=O)C(=O)[N-]CC)c1nnc2ccccn12

>  <Energy>  (37) 
94.28438007694615

>  <Genealogy>  (37) 
CCCCC(C(=O)NC(CC1CCCCC1)C(=O)C(=O)[N-]CC)c1nnc2ccccn12 (protonated)
CCCC[C@H](C(=O)N[C@H](CC1CCCCC1)C(=O)C(=O)[N-]CC)c1nnc2ccccn12 (chirality)
CCCC[C@H](C(=O)N[C@H](CC1CCCCC1)C(=O)C(=O)[N-]CC)c1nnc2ccccn12 (3D coordinates assigned)
CCCC[C@H](C(=O)N[C@H](CC1CCCCC1)C(=O)C(=O)[N-]CC)c1nnc2ccccn12 (nonaromatic ring conformer: 94.28438007694615 kcal/mol)

>  <smiles>  (37) 
CCCCC(C(=O)NC(CC1CCCCC1)C(=O)C(=O)NCC)c1nnc2ccccn12

>  <score_type>  (37) 
oracle

>  <origin>  (37) 
autodockgpu

>  <m_score__min__energy>  (37) 
-7.4000000000000004

>  <m_primary>  (37) 
energy

>  <meeko>  (37) 
{"free_energy": -6.33, "intermolecular_energy": -9.9, "internal_energy": -3.5, "cluster_size": 3, "cluster_id": 3, "rank_in_cluster": 2}

>  <energy>  (37) 
-5.89

>  <cluster_rmsd>  (37) 
1.14

>  <rmsd>  (37) 
270.38

>  <cluster>  (37) 
6

$$$$
NNKZOUMTYASKLJ-JYRSORQKNA-M
     RDKit          3D

 66 68  0  0  0  0  0  0  0  0999 V2000
  140.5270   82.6970  221.4550 C   0  0  0  0  0  0  0  0  0  0  0  0
  141.4750   81.6060  220.9680 C   0  0  0  0  0  0  0  0  0  0  0  0
  142.2040   80.9430  222.1440 C   0  0  0  0  0  0  0  0  0  0  0  0
  141.4690   81.1180  223.4860 C   0  0  0  0  0  0  0  0  0  0  0  0
  140.5170   79.9450  223.8340 C   0  0  2  0  0  0  0  0  0  0  0  0
  141.0590   78.6010  223.4110 C   0  0  0  0  0  0  0  0  0  0  0  0
  142.1380   78.1910  223.9200 O   0  0  0  0  0  0  0  0  0  0  0  0
  140.3480   77.7730  222.4770 N   0  0  0  0  0  0  0  0  0  0  0  0
  140.8260   76.4370  222.1070 C   0  0  2  0  0  0  0  0  0  0  0  0
  141.5010   76.4470  220.7100 C   0  0  0  0  0  0  0  0  0  0  0  0
  141.4850   77.8100  219.9690 C   0  0  0  0  0  0  0  0  0  0  0  0
  142.4810   77.8740  218.7960 C   0  0  0  0  0  0  0  0  0  0  0  0
  142.5780   79.2970  218.2170 C   0  0  0  0  0  0  0  0  0  0  0  0
  141.2310   80.0500  218.2020 C   0  0  0  0  0  0  0  0  0  0  0  0
  140.0320   79.0980  218.2600 C   0  0  0  0  0  0  0  0  0  0  0  0
  140.0540   78.2410  219.5420 C   0  0  0  0  0  0  0  0  0  0  0  0
  139.6550   75.4840  222.1000 C   0  0  0  0  0  0  0  0  0  0  0  0
  139.8630   74.2640  222.3400 O   0  0  0  0  0  0  0  0  0  0  0  0
  138.2770   75.9750  221.8710 C   0  0  0  0  0  0  0  0  0  0  0  0
  137.6110   75.5080  220.9100 O   0  0  0  0  0  0  0  0  0  0  0  0
  137.6540   76.9550  222.7130 N   0  0  0  0  0  0  0  0  0  0  0  0
  136.2370   77.0090  223.0520 C   0  0  0  0  0  0  0  0  0  0  0  0
  135.8400   75.7460  223.7990 C   0  0  0  0  0  0  0  0  0  0  0  0
  139.1030   80.1130  223.3160 C   0  0  0  0  0  0  0  0  0  0  0  0
  138.7980   79.9240  222.0120 N   0  0  0  0  0  0  0  0  0  0  0  0
  137.5130   80.2130  221.8440 N   0  0  0  0  0  0  0  0  0  0  0  0
  137.0550   80.5850  223.0500 C   0  0  0  0  0  0  0  0  0  0  0  0
  135.7550   80.9810  223.3490 C   0  0  0  0  0  0  0  0  0  0  0  0
  135.4740   81.3380  224.6750 C   0  0  0  0  0  0  0  0  0  0  0  0
  136.4870   81.2930  225.6510 C   0  0  0  0  0  0  0  0  0  0  0  0
  137.7810   80.8870  225.2900 C   0  0  0  0  0  0  0  0  0  0  0  0
  138.0120   80.5450  223.9920 N   0  0  0  0  0  0  0  0  0  0  0  0
  140.5163   82.7093  222.5549 H   0  0  0  0  0  0  0  0  0  0  0  0
  140.8684   83.6734  221.0807 H   0  0  0  0  0  0  0  0  0  0  0  0
  139.5125   82.4952  221.0807 H   0  0  0  0  0  0  0  0  0  0  0  0
  140.8966   80.8424  220.4272 H   0  0  0  0  0  0  0  0  0  0  0  0
  142.2243   82.0641  220.3057 H   0  0  0  0  0  0  0  0  0  0  0  0
  142.2999   79.8673  221.9349 H   0  0  0  0  0  0  0  0  0  0  0  0
  143.1843   81.4326  222.2405 H   0  0  0  0  0  0  0  0  0  0  0  0
  142.2205   81.2037  224.2847 H   0  0  0  0  0  0  0  0  0  0  0  0
  140.8467   82.0205  223.3958 H   0  0  0  0  0  0  0  0  0  0  0  0
  140.4652   79.9745  224.9324 H   0  0  0  0  0  0  0  0  0  0  0  0
  139.4090   78.0780  222.1450 H   0  0  0  0  0  0  0  0  0  0  0  0
  141.5773   76.1142  222.8427 H   0  0  0  0  0  0  0  0  0  0  0  0
  142.5505   76.1438  220.8388 H   0  0  0  0  0  0  0  0  0  0  0  0
  140.9131   75.7577  220.0861 H   0  0  0  0  0  0  0  0  0  0  0  0
  141.8329   78.5485  220.7063 H   0  0  0  0  0  0  0  0  0  0  0  0
  143.4744   77.5646  219.1530 H   0  0  0  0  0  0  0  0  0  0  0  0
  142.1239   77.2014  218.0022 H   0  0  0  0  0  0  0  0  0  0  0  0
  143.2915   79.8723  218.8253 H   0  0  0  0  0  0  0  0  0  0  0  0
  142.9047   79.1986  217.1713 H   0  0  0  0  0  0  0  0  0  0  0  0
  141.1916   80.7219  219.0721 H   0  0  0  0  0  0  0  0  0  0  0  0
  141.1697   80.6112  217.2579 H   0  0  0  0  0  0  0  0  0  0  0  0
  139.1046   79.6892  218.2408 H   0  0  0  0  0  0  0  0  0  0  0  0
  140.0837   78.4237  217.3925 H   0  0  0  0  0  0  0  0  0  0  0  0
  139.6066   78.8248  220.3599 H   0  0  0  0  0  0  0  0  0  0  0  0
  139.4869   77.3227  219.3297 H   0  0  0  0  0  0  0  0  0  0  0  0
  136.0466   77.8855  223.6888 H   0  0  0  0  0  0  0  0  0  0  0  0
  135.6444   77.0874  222.1286 H   0  0  0  0  0  0  0  0  0  0  0  0
  135.8971   75.9275  224.8824 H   0  0  0  0  0  0  0  0  0  0  0  0
  134.8110   75.4676  223.5276 H   0  0  0  0  0  0  0  0  0  0  0  0
  136.5246   74.9289  223.5276 H   0  0  0  0  0  0  0  0  0  0  0  0
  134.9761   81.0127  222.5729 H   0  0  0  0  0  0  0  0  0  0  0  0
  134.4581   81.6545  224.9538 H   0  0  0  0  0  0  0  0  0  0  0  0
  136.2657   81.5745  226.6911 H   0  0  0  0  0  0  0  0  0  0  0  0
  138.5881   80.8460  226.0363 H   0  0  0  0  0  0  0  0  0  0  0  0
  1  2  1  0
  2  3  1  0
  3  4  1  0
  4  5  1  0
  5  6  1  0
  6  7  2  0
  6  8  1  0
  8  9  1  0
  9 10  1  0
 10 11  1  0
 11 12  1  0
 12 13  1  0
 13 14  1  0
 14 15  1  0
 15 16  1  0
  9 17  1  0
 17 18  2  0
 17 19  1  0
 19 20  2  0
 19 21  1  0
 21 22  1  0
 22 23  1  0
  5 24  1  0
 24 25  2  0
 25 26  1  0
 26 27  2  0
 27 28  1  0
 28 29  2  0
 29 30  1  0
 30 31  2  0
 31 32  1  0
 16 11  1  0
 32 24  1  0
 32 27  1  0
  1 33  1  0
  1 34  1  0
  1 35  1  0
  2 36  1  0
  2 37  1  0
  3 38  1  0
  3 39  1  0
  4 40  1  0
  4 41  1  0
  5 42  1  1
  8 43  1  0
  9 44  1  1
 10 45  1  0
 10 46  1  0
 11 47  1  0
 12 48  1  0
 12 49  1  0
 13 50  1  0
 13 51  1  0
 14 52  1  0
 14 53  1  0
 15 54  1  0
 15 55  1  0
 16 56  1  0
 16 57  1  0
 22 58  1  0
 22 59  1  0
 23 60  1  0
 23 61  1  0
 23 62  1  0
 28 63  1  0
 29 64  1  0
 30 65  1  0
 31 66  1  0
M  CHG  1  21  -1
M  END
>  <UniqueID>  (38) 
2

>  <SMILES>  (38) 
CCCC[C@H](C(=O)N[C@H](CC1CCCCC1)C(=O)C(=O)[N-]CC)c1nnc2ccccn12

>  <Energy>  (38) 
94.28438007694615

>  <Genealogy>  (38) 
CCCCC(C(=O)NC(CC1CCCCC1)C(=O)C(=O)[N-]CC)c1nnc2ccccn12 (protonated)
CCCC[C@H](C(=O)N[C@H](CC1CCCCC1)C(=O)C(=O)[N-]CC)c1nnc2ccccn12 (chirality)
CCCC[C@H](C(=O)N[C@H](CC1CCCCC1)C(=O)C(=O)[N-]CC)c1nnc2ccccn12 (3D coordinates assigned)
CCCC[C@H](C(=O)N[C@H](CC1CCCCC1)C(=O)C(=O)[N-]CC)c1nnc2ccccn12 (nonaromatic ring conformer: 94.28438007694615 kcal/mol)

>  <smiles>  (38) 
CCCCC(C(=O)NC(CC1CCCCC1)C(=O)C(=O)NCC)c1nnc2ccccn12

>  <score_type>  (38) 
oracle

>  <origin>  (38) 
autodockgpu

>  <m_score__min__energy>  (38) 
-7.4000000000000004

>  <m_primary>  (38) 
energy

>  <meeko>  (38) 
{"free_energy": -4.51, "intermolecular_energy": -8.09, "internal_energy": -4.6, "cluster_size": 3, "cluster_id": 7, "rank_in_cluster": 1}

>  <energy>  (38) 
-4.51

>  <cluster_rmsd>  (38) 
0.0

>  <rmsd>  (38) 
271.34

>  <cluster>  (38) 
7

$$$$
NNKZOUMTYASKLJ-JYRSORQKNA-M
     RDKit          3D

 66 68  0  0  0  0  0  0  0  0999 V2000
  139.2280   73.3410  221.4540 C   0  0  0  0  0  0  0  0  0  0  0  0
  140.6220   72.9610  221.9410 C   0  0  0  0  0  0  0  0  0  0  0  0
  140.6140   71.5850  222.6190 C   0  0  0  0  0  0  0  0  0  0  0  0
  139.6580   71.5100  223.8240 C   0  0  0  0  0  0  0  0  0  0  0  0
  138.8040   70.2170  223.8650 C   0  0  2  0  0  0  0  0  0  0  0  0
  137.3220   70.4930  223.9370 C   0  0  0  0  0  0  0  0  0  0  0  0
  136.8510   71.4710  223.2940 O   0  0  0  0  0  0  0  0  0  0  0  0
  136.4420   69.6400  224.6870 N   0  0  0  0  0  0  0  0  0  0  0  0
  134.9920   69.8540  224.7130 C   0  0  2  0  0  0  0  0  0  0  0  0
  134.5450   70.5220  226.0390 C   0  0  0  0  0  0  0  0  0  0  0  0
  133.7860   71.8660  225.8900 C   0  0  0  0  0  0  0  0  0  0  0  0
  133.1690   72.3650  227.2110 C   0  0  0  0  0  0  0  0  0  0  0  0
  132.2620   73.5880  226.9820 C   0  0  0  0  0  0  0  0  0  0  0  0
  132.7890   74.5510  225.8980 C   0  0  0  0  0  0  0  0  0  0  0  0
  134.2940   74.3910  225.6580 C   0  0  0  0  0  0  0  0  0  0  0  0
  134.6430   72.9620  225.1970 C   0  0  0  0  0  0  0  0  0  0  0  0
  134.2990   68.5230  224.5530 C   0  0  0  0  0  0  0  0  0  0  0  0
  134.6650   67.7540  223.6230 O   0  0  0  0  0  0  0  0  0  0  0  0
  133.2460   68.0950  225.5020 C   0  0  0  0  0  0  0  0  0  0  0  0
  133.5810   67.6330  226.6240 O   0  0  0  0  0  0  0  0  0  0  0  0
  131.8470   68.2000  225.2040 N   0  0  0  0  0  0  0  0  0  0  0  0
  130.8150   68.6720  226.1200 C   0  0  0  0  0  0  0  0  0  0  0  0
  130.7660   70.1910  226.0990 C   0  0  0  0  0  0  0  0  0  0  0  0
  139.1980   69.2420  224.9550 C   0  0  0  0  0  0  0  0  0  0  0  0
  138.8170   67.9440  224.9170 N   0  0  0  0  0  0  0  0  0  0  0  0
  139.2410   67.3590  226.0300 N   0  0  0  0  0  0  0  0  0  0  0  0
  139.8670   68.3140  226.7380 C   0  0  0  0  0  0  0  0  0  0  0  0
  140.4690   68.1530  227.9820 C   0  0  0  0  0  0  0  0  0  0  0  0
  141.0690   69.2790  228.5620 C   0  0  0  0  0  0  0  0  0  0  0  0
  141.0490   70.5170  227.8940 C   0  0  0  0  0  0  0  0  0  0  0  0
  140.4250   70.6190  226.6410 C   0  0  0  0  0  0  0  0  0  0  0  0
  139.8560   69.5010  226.1090 N   0  0  0  0  0  0  0  0  0  0  0  0
  138.5732   73.5195  222.3197 H   0  0  0  0  0  0  0  0  0  0  0  0
  139.2888   74.2554  220.8455 H   0  0  0  0  0  0  0  0  0  0  0  0
  138.8163   72.5223  220.8455 H   0  0  0  0  0  0  0  0  0  0  0  0
  141.3079   72.9340  221.0814 H   0  0  0  0  0  0  0  0  0  0  0  0
  140.9519   73.7105  222.6754 H   0  0  0  0  0  0  0  0  0  0  0  0
  140.3043   70.8321  221.8792 H   0  0  0  0  0  0  0  0  0  0  0  0
  141.6308   71.3992  222.9954 H   0  0  0  0  0  0  0  0  0  0  0  0
  140.2568   71.5596  224.7454 H   0  0  0  0  0  0  0  0  0  0  0  0
  138.9582   72.3536  223.7310 H   0  0  0  0  0  0  0  0  0  0  0  0
  139.0260   69.7323  222.9028 H   0  0  0  0  0  0  0  0  0  0  0  0
  136.8280   68.7780  225.1260 H   0  0  0  0  0  0  0  0  0  0  0  0
  134.7193   70.5280  223.8875 H   0  0  0  0  0  0  0  0  0  0  0  0
  133.8854   69.8177  226.5671 H   0  0  0  0  0  0  0  0  0  0  0  0
  135.4709   70.7583  226.5838 H   0  0  0  0  0  0  0  0  0  0  0  0
  132.9403   71.6518  225.2199 H   0  0  0  0  0  0  0  0  0  0  0  0
  132.5719   71.5550  227.6553 H   0  0  0  0  0  0  0  0  0  0  0  0
  133.9868   72.6622  227.8840 H   0  0  0  0  0  0  0  0  0  0  0  0
  131.2671   73.2313  226.6769 H   0  0  0  0  0  0  0  0  0  0  0  0
  132.2322   74.1500  227.9271 H   0  0  0  0  0  0  0  0  0  0  0  0
  132.2574   74.3485  224.9565 H   0  0  0  0  0  0  0  0  0  0  0  0
  132.6119   75.5790  226.2470 H   0  0  0  0  0  0  0  0  0  0  0  0
  134.6102   75.1042  224.8825 H   0  0  0  0  0  0  0  0  0  0  0  0
  134.8176   74.5858  226.6056 H   0  0  0  0  0  0  0  0  0  0  0  0
  134.4819   72.8964  224.1109 H   0  0  0  0  0  0  0  0  0  0  0  0
  135.6920   72.7779  225.4722 H   0  0  0  0  0  0  0  0  0  0  0  0
  129.8391   68.2705  225.8094 H   0  0  0  0  0  0  0  0  0  0  0  0
  131.0484   68.3295  227.1389 H   0  0  0  0  0  0  0  0  0  0  0  0
  130.7537   70.5718  227.1309 H   0  0  0  0  0  0  0  0  0  0  0  0
  131.6521   70.5792  225.5754 H   0  0  0  0  0  0  0  0  0  0  0  0
  129.8567   70.5213  225.5754 H   0  0  0  0  0  0  0  0  0  0  0  0
  140.4738   67.1781  228.4914 H   0  0  0  0  0  0  0  0  0  0  0  0
  141.5577   69.1944  229.5438 H   0  0  0  0  0  0  0  0  0  0  0  0
  141.5197   71.3999  228.3511 H   0  0  0  0  0  0  0  0  0  0  0  0
  140.3960   71.5774  226.1020 H   0  0  0  0  0  0  0  0  0  0  0  0
  1  2  1  0
  2  3  1  0
  3  4  1  0
  4  5  1  0
  5  6  1  0
  6  7  2  0
  6  8  1  0
  8  9  1  0
  9 10  1  0
 10 11  1  0
 11 12  1  0
 12 13  1  0
 13 14  1  0
 14 15  1  0
 15 16  1  0
  9 17  1  0
 17 18  2  0
 17 19  1  0
 19 20  2  0
 19 21  1  0
 21 22  1  0
 22 23  1  0
  5 24  1  0
 24 25  2  0
 25 26  1  0
 26 27  2  0
 27 28  1  0
 28 29  2  0
 29 30  1  0
 30 31  2  0
 31 32  1  0
 16 11  1  0
 32 24  1  0
 32 27  1  0
  1 33  1  0
  1 34  1  0
  1 35  1  0
  2 36  1  0
  2 37  1  0
  3 38  1  0
  3 39  1  0
  4 40  1  0
  4 41  1  0
  5 42  1  6
  8 43  1  0
  9 44  1  6
 10 45  1  0
 10 46  1  0
 11 47  1  0
 12 48  1  0
 12 49  1  0
 13 50  1  0
 13 51  1  0
 14 52  1  0
 14 53  1  0
 15 54  1  0
 15 55  1  0
 16 56  1  0
 16 57  1  0
 22 58  1  0
 22 59  1  0
 23 60  1  0
 23 61  1  0
 23 62  1  0
 28 63  1  0
 29 64  1  0
 30 65  1  0
 31 66  1  0
M  CHG  1  21  -1
M  END
>  <UniqueID>  (39) 
2

>  <SMILES>  (39) 
CCCC[C@H](C(=O)N[C@H](CC1CCCCC1)C(=O)C(=O)[N-]CC)c1nnc2ccccn12

>  <Energy>  (39) 
94.28438007694615

>  <Genealogy>  (39) 
CCCCC(C(=O)NC(CC1CCCCC1)C(=O)C(=O)[N-]CC)c1nnc2ccccn12 (protonated)
CCCC[C@H](C(=O)N[C@H](CC1CCCCC1)C(=O)C(=O)[N-]CC)c1nnc2ccccn12 (chirality)
CCCC[C@H](C(=O)N[C@H](CC1CCCCC1)C(=O)C(=O)[N-]CC)c1nnc2ccccn12 (3D coordinates assigned)
CCCC[C@H](C(=O)N[C@H](CC1CCCCC1)C(=O)C(=O)[N-]CC)c1nnc2ccccn12 (nonaromatic ring conformer: 94.28438007694615 kcal/mol)

>  <smiles>  (39) 
CCCCC(C(=O)NC(CC1CCCCC1)C(=O)C(=O)NCC)c1nnc2ccccn12

>  <score_type>  (39) 
oracle

>  <origin>  (39) 
autodockgpu

>  <m_score__min__energy>  (39) 
-7.4000000000000004

>  <m_primary>  (39) 
energy

>  <meeko>  (39) 
{"free_energy": -7.4, "intermolecular_energy": -10.98, "internal_energy": -2.77, "cluster_size": 5, "cluster_id": 1, "rank_in_cluster": 1}

>  <energy>  (39) 
-4.5

>  <cluster_rmsd>  (39) 
0.06

>  <rmsd>  (39) 
271.37

>  <cluster>  (39) 
7

$$$$
NNKZOUMTYASKLJ-JYRSORQKNA-M
     RDKit          3D

 66 68  0  0  0  0  0  0  0  0999 V2000
  141.4370   78.5860  222.2490 C   0  0  0  0  0  0  0  0  0  0  0  0
  140.6570   77.2780  222.3330 C   0  0  0  0  0  0  0  0  0  0  0  0
  140.5610   76.6030  220.9580 C   0  0  0  0  0  0  0  0  0  0  0  0
  141.6930   75.5910  220.7020 C   0  0  0  0  0  0  0  0  0  0  0  0
  141.1990   74.1300  220.5400 C   0  0  2  0  0  0  0  0  0  0  0  0
  140.4940   73.6080  221.7680 C   0  0  0  0  0  0  0  0  0  0  0  0
  139.6700   74.3550  222.3620 O   0  0  0  0  0  0  0  0  0  0  0  0
  140.7170   72.2690  222.2400 N   0  0  0  0  0  0  0  0  0  0  0  0
  139.9900   71.7230  223.3910 C   0  0  2  0  0  0  0  0  0  0  0  0
  140.9660   71.1590  224.4560 C   0  0  0  0  0  0  0  0  0  0  0  0
  140.3080   70.6410  225.7610 C   0  0  0  0  0  0  0  0  0  0  0  0
  140.5720   69.1460  226.0230 C   0  0  0  0  0  0  0  0  0  0  0  0
  139.7420   68.6280  227.2120 C   0  0  0  0  0  0  0  0  0  0  0  0
  139.5920   69.6550  228.3540 C   0  0  0  0  0  0  0  0  0  0  0  0
  140.6860   70.7280  228.3180 C   0  0  0  0  0  0  0  0  0  0  0  0
  140.6570   71.5200  226.9950 C   0  0  0  0  0  0  0  0  0  0  0  0
  139.0700   70.6280  222.9120 C   0  0  0  0  0  0  0  0  0  0  0  0
  138.1700   70.2070  223.6870 O   0  0  0  0  0  0  0  0  0  0  0  0
  139.1790   70.0890  221.5360 C   0  0  0  0  0  0  0  0  0  0  0  0
  140.3160   69.7970  221.0800 O   0  0  0  0  0  0  0  0  0  0  0  0
  138.0360   69.8670  220.6990 N   0  0  0  0  0  0  0  0  0  0  0  0
  137.3600   70.8810  219.8980 C   0  0  0  0  0  0  0  0  0  0  0  0
  138.3160   72.0260  219.6050 C   0  0  0  0  0  0  0  0  0  0  0  0
  142.2720   73.1520  220.1090 C   0  0  0  0  0  0  0  0  0  0  0  0
  141.9610   71.9300  219.6180 N   0  0  0  0  0  0  0  0  0  0  0  0
  143.0950   71.2750  219.3990 N   0  0  0  0  0  0  0  0  0  0  0  0
  144.0820   72.1050  219.7710 C   0  0  0  0  0  0  0  0  0  0  0  0
  145.4470   71.8350  219.7200 C   0  0  0  0  0  0  0  0  0  0  0  0
  146.3230   72.8360  220.1600 C   0  0  0  0  0  0  0  0  0  0  0  0
  145.8190   74.0610  220.6360 C   0  0  0  0  0  0  0  0  0  0  0  0
  144.4330   74.2760  220.6650 C   0  0  0  0  0  0  0  0  0  0  0  0
  143.6150   73.2800  220.2250 N   0  0  0  0  0  0  0  0  0  0  0  0
  141.6538   78.9495  223.2643 H   0  0  0  0  0  0  0  0  0  0  0  0
  142.3813   78.4159  221.7110 H   0  0  0  0  0  0  0  0  0  0  0  0
  140.8385   79.3359  221.7110 H   0  0  0  0  0  0  0  0  0  0  0  0
  141.1680   76.5992  223.0316 H   0  0  0  0  0  0  0  0  0  0  0  0
  139.6388   77.5002  222.6851 H   0  0  0  0  0  0  0  0  0  0  0  0
  139.5981   76.0751  220.8935 H   0  0  0  0  0  0  0  0  0  0  0  0
  140.6490   77.3931  220.1977 H   0  0  0  0  0  0  0  0  0  0  0  0
  142.2188   75.8838  219.7812 H   0  0  0  0  0  0  0  0  0  0  0  0
  142.3487   75.6123  221.5850 H   0  0  0  0  0  0  0  0  0  0  0  0
  140.4718   74.1943  219.7171 H   0  0  0  0  0  0  0  0  0  0  0  0
  141.3190   71.6310  221.6800 H   0  0  0  0  0  0  0  0  0  0  0  0
  139.4096   72.5316  223.8593 H   0  0  0  0  0  0  0  0  0  0  0  0
  141.5177   70.3234  224.0005 H   0  0  0  0  0  0  0  0  0  0  0  0
  141.6045   72.0031  224.7557 H   0  0  0  0  0  0  0  0  0  0  0  0
  139.2240   70.7348  225.5996 H   0  0  0  0  0  0  0  0  0  0  0  0
  140.3047   68.5725  225.1232 H   0  0  0  0  0  0  0  0  0  0  0  0
  141.6378   69.0201  226.2643 H   0  0  0  0  0  0  0  0  0  0  0  0
  138.7383   68.3645  226.8471 H   0  0  0  0  0  0  0  0  0  0  0  0
  140.2773   67.7608  227.6260 H   0  0  0  0  0  0  0  0  0  0  0  0
  138.6118   70.1458  228.2621 H   0  0  0  0  0  0  0  0  0  0  0  0
  139.6822   69.1140  229.3075 H   0  0  0  0  0  0  0  0  0  0  0  0
  140.5312   71.4246  229.1551 H   0  0  0  0  0  0  0  0  0  0  0  0
  141.6625   70.2284  228.4000 H   0  0  0  0  0  0  0  0  0  0  0  0
  139.9032   72.3164  227.0810 H   0  0  0  0  0  0  0  0  0  0  0  0
  141.6678   71.9226  226.8335 H   0  0  0  0  0  0  0  0  0  0  0  0
  137.0239   70.4341  218.9507 H   0  0  0  0  0  0  0  0  0  0  0  0
  136.4923   71.2651  220.4544 H   0  0  0  0  0  0  0  0  0  0  0  0
  138.6747   72.4556  220.5520 H   0  0  0  0  0  0  0  0  0  0  0  0
  139.1720   71.6498  219.0255 H   0  0  0  0  0  0  0  0  0  0  0  0
  137.7931   72.8011  219.0255 H   0  0  0  0  0  0  0  0  0  0  0  0
  145.8239   70.8709  219.3478 H   0  0  0  0  0  0  0  0  0  0  0  0
  147.4091   72.6639  220.1334 H   0  0  0  0  0  0  0  0  0  0  0  0
  146.5079   74.8452  220.9832 H   0  0  0  0  0  0  0  0  0  0  0  0
  144.0173   75.2253  221.0339 H   0  0  0  0  0  0  0  0  0  0  0  0
  1  2  1  0
  2  3  1  0
  3  4  1  0
  4  5  1  0
  5  6  1  0
  6  7  2  0
  6  8  1  0
  8  9  1  0
  9 10  1  0
 10 11  1  0
 11 12  1  0
 12 13  1  0
 13 14  1  0
 14 15  1  0
 15 16  1  0
  9 17  1  0
 17 18  2  0
 17 19  1  0
 19 20  2  0
 19 21  1  0
 21 22  1  0
 22 23  1  0
  5 24  1  0
 24 25  2  0
 25 26  1  0
 26 27  2  0
 27 28  1  0
 28 29  2  0
 29 30  1  0
 30 31  2  0
 31 32  1  0
 16 11  1  0
 32 24  1  0
 32 27  1  0
  1 33  1  0
  1 34  1  0
  1 35  1  0
  2 36  1  0
  2 37  1  0
  3 38  1  0
  3 39  1  0
  4 40  1  0
  4 41  1  0
  5 42  1  6
  8 43  1  0
  9 44  1  1
 10 45  1  0
 10 46  1  0
 11 47  1  0
 12 48  1  0
 12 49  1  0
 13 50  1  0
 13 51  1  0
 14 52  1  0
 14 53  1  0
 15 54  1  0
 15 55  1  0
 16 56  1  0
 16 57  1  0
 22 58  1  0
 22 59  1  0
 23 60  1  0
 23 61  1  0
 23 62  1  0
 28 63  1  0
 29 64  1  0
 30 65  1  0
 31 66  1  0
M  CHG  1  21  -1
M  END
>  <UniqueID>  (40) 
2

>  <SMILES>  (40) 
CCCC[C@H](C(=O)N[C@H](CC1CCCCC1)C(=O)C(=O)[N-]CC)c1nnc2ccccn12

>  <Energy>  (40) 
94.28438007694615

>  <Genealogy>  (40) 
CCCCC(C(=O)NC(CC1CCCCC1)C(=O)C(=O)[N-]CC)c1nnc2ccccn12 (protonated)
CCCC[C@H](C(=O)N[C@H](CC1CCCCC1)C(=O)C(=O)[N-]CC)c1nnc2ccccn12 (chirality)
CCCC[C@H](C(=O)N[C@H](CC1CCCCC1)C(=O)C(=O)[N-]CC)c1nnc2ccccn12 (3D coordinates assigned)
CCCC[C@H](C(=O)N[C@H](CC1CCCCC1)C(=O)C(=O)[N-]CC)c1nnc2ccccn12 (nonaromatic ring conformer: 94.28438007694615 kcal/mol)

>  <smiles>  (40) 
CCCCC(C(=O)NC(CC1CCCCC1)C(=O)C(=O)NCC)c1nnc2ccccn12

>  <score_type>  (40) 
oracle

>  <origin>  (40) 
autodockgpu

>  <m_score__min__energy>  (40) 
-7.4000000000000004

>  <m_primary>  (40) 
energy

>  <meeko>  (40) 
{"free_energy": -6.16, "intermolecular_energy": -9.74, "internal_energy": -3.16, "cluster_size": 1, "cluster_id": 5, "rank_in_cluster": 1}

>  <energy>  (40) 
-4.45

>  <cluster_rmsd>  (40) 
0.29

>  <rmsd>  (40) 
271.29

>  <cluster>  (40) 
7

$$$$
NNKZOUMTYASKLJ-WHFSYHSSNA-M
     RDKit          3D

 66 68  0  0  0  0  0  0  0  0999 V2000
  138.9140   74.2860  222.7700 H   0  0  0  0  0  0  0  0  0  0  0  0
  139.8030   74.4990  222.3370 O   0  0  0  0  0  0  0  0  0  0  0  0
  140.0360   75.6550  221.5820 C   0  0  0  0  0  0  0  0  0  0  0  0
  139.0580   76.3950  221.1440 N   0  0  0  0  0  0  0  0  0  0  0  0
  137.9810   76.9820  221.9460 C   0  0  1  0  0  0  0  0  0  0  0  0
  137.3774   77.6458  221.3097 H   0  0  0  0  0  0  0  0  0  0  0  0
  137.0350   75.9180  222.4610 C   0  0  0  0  0  0  0  0  0  0  0  0
  137.1700   74.7210  222.0860 O   0  0  0  0  0  0  0  0  0  0  0  0
  135.9530   76.2540  223.4020 C   0  0  0  0  0  0  0  0  0  0  0  0
  135.8240   75.6100  224.4780 O   0  0  0  0  0  0  0  0  0  0  0  0
  135.0430   77.3110  223.0810 N   0  0  0  0  0  0  0  0  0  0  0  0
  135.1940   78.6810  223.5630 C   0  0  0  0  0  0  0  0  0  0  0  0
  134.5719   78.8195  224.4595 H   0  0  0  0  0  0  0  0  0  0  0  0
  136.2527   78.8577  223.8037 H   0  0  0  0  0  0  0  0  0  0  0  0
  134.7600   79.6770  222.4930 C   0  0  0  0  0  0  0  0  0  0  0  0
  134.3649   80.5836  222.9746 H   0  0  0  0  0  0  0  0  0  0  0  0
  135.6244   79.9417  221.8663 H   0  0  0  0  0  0  0  0  0  0  0  0
  133.9776   79.2241  221.8663 H   0  0  0  0  0  0  0  0  0  0  0  0
  138.5870   77.8330  223.0840 C   0  0  0  0  0  0  0  0  0  0  0  0
  137.9283   77.7450  223.9606 H   0  0  0  0  0  0  0  0  0  0  0  0
  139.6004   77.4384  223.2494 H   0  0  0  0  0  0  0  0  0  0  0  0
  138.7640   79.3440  222.7680 C   0  0  0  0  0  0  0  0  0  0  0  0
  139.8402   79.5352  222.6443 H   0  0  0  0  0  0  0  0  0  0  0  0
  138.2750   80.2510  223.9350 C   0  0  0  0  0  0  0  0  0  0  0  0
  137.4803   79.7185  224.4780 H   0  0  0  0  0  0  0  0  0  0  0  0
  139.1513   80.4592  224.5665 H   0  0  0  0  0  0  0  0  0  0  0  0
  137.7200   81.6140  223.4760 C   0  0  0  0  0  0  0  0  0  0  0  0
  136.6499   81.5057  223.2452 H   0  0  0  0  0  0  0  0  0  0  0  0
  137.8720   82.3413  224.2871 H   0  0  0  0  0  0  0  0  0  0  0  0
  138.4490   82.1210  222.2310 C   0  0  0  0  0  0  0  0  0  0  0  0
  138.0457   83.1075  221.9585 H   0  0  0  0  0  0  0  0  0  0  0  0
  139.5222   82.1850  222.4638 H   0  0  0  0  0  0  0  0  0  0  0  0
  138.2720   81.1620  221.0380 C   0  0  0  0  0  0  0  0  0  0  0  0
  137.4113   81.5014  220.4431 H   0  0  0  0  0  0  0  0  0  0  0  0
  139.2100   81.1830  220.4638 H   0  0  0  0  0  0  0  0  0  0  0  0
  138.0290   79.6980  221.4570 C   0  0  0  0  0  0  0  0  0  0  0  0
  136.9495   79.5442  221.6020 H   0  0  0  0  0  0  0  0  0  0  0  0
  138.4193   79.0467  220.6611 H   0  0  0  0  0  0  0  0  0  0  0  0
  141.4520   76.0720  221.2670 C   0  0  2  0  0  0  0  0  0  0  0  0
  142.0660   75.8704  222.1572 H   0  0  0  0  0  0  0  0  0  0  0  0
  141.5060   77.5530  220.9720 C   0  0  0  0  0  0  0  0  0  0  0  0
  141.3520   78.0680  219.7300 N   0  0  0  0  0  0  0  0  0  0  0  0
  141.4320   79.3920  219.8300 N   0  0  0  0  0  0  0  0  0  0  0  0
  141.6290   79.6570  221.1330 C   0  0  0  0  0  0  0  0  0  0  0  0
  141.7690   80.9150  221.7140 C   0  0  0  0  0  0  0  0  0  0  0  0
  141.7270   81.8321  221.1081 H   0  0  0  0  0  0  0  0  0  0  0  0
  141.9660   80.9670  223.1040 C   0  0  0  0  0  0  0  0  0  0  0  0
  142.0804   81.9402  223.6038 H   0  0  0  0  0  0  0  0  0  0  0  0
  142.0180   79.7800  223.8620 C   0  0  0  0  0  0  0  0  0  0  0  0
  142.1728   79.8240  224.9502 H   0  0  0  0  0  0  0  0  0  0  0  0
  141.8710   78.5420  223.2190 C   0  0  0  0  0  0  0  0  0  0  0  0
  141.9099   77.6007  223.7869 H   0  0  0  0  0  0  0  0  0  0  0  0
  141.6790   78.5400  221.8730 N   0  0  0  0  0  0  0  0  0  0  0  0
  142.0720   75.2380  220.1210 C   0  0  0  0  0  0  0  0  0  0  0  0
  141.6861   75.6243  219.1661 H   0  0  0  0  0  0  0  0  0  0  0  0
  141.7887   74.1911  220.3046 H   0  0  0  0  0  0  0  0  0  0  0  0
  143.6120   75.2760  220.0700 C   0  0  0  0  0  0  0  0  0  0  0  0
  143.9792   75.8285  220.9474 H   0  0  0  0  0  0  0  0  0  0  0  0
  143.9002   75.7669  219.1288 H   0  0  0  0  0  0  0  0  0  0  0  0
  144.2420   73.8760  220.0730 C   0  0  0  0  0  0  0  0  0  0  0  0
  144.4336   73.5657  219.0352 H   0  0  0  0  0  0  0  0  0  0  0  0
  143.5448   73.1794  220.5615 H   0  0  0  0  0  0  0  0  0  0  0  0
  145.5580   73.8690  220.8470 C   0  0  0  0  0  0  0  0  0  0  0  0
  145.3483   73.8701  221.9268 H   0  0  0  0  0  0  0  0  0  0  0  0
  146.1322   72.9678  220.5859 H   0  0  0  0  0  0  0  0  0  0  0  0
  146.1417   74.7641  220.5859 H   0  0  0  0  0  0  0  0  0  0  0  0
  1  2  1  0
  2  3  1  0
  3  4  2  0
  4  5  1  0
  5  6  1  6
  5  7  1  0
  7  8  2  0
  7  9  1  0
  9 10  2  0
  9 11  1  0
 11 12  1  0
 12 13  1  0
 12 14  1  0
 12 15  1  0
 15 16  1  0
 15 17  1  0
 15 18  1  0
  5 19  1  0
 19 20  1  0
 19 21  1  0
 19 22  1  0
 22 23  1  0
 22 24  1  0
 24 25  1  0
 24 26  1  0
 24 27  1  0
 27 28  1  0
 27 29  1  0
 27 30  1  0
 30 31  1  0
 30 32  1  0
 30 33  1  0
 33 34  1  0
 33 35  1  0
 33 36  1  0
 36 37  1  0
 36 38  1  0
  3 39  1  0
 39 40  1  1
 39 41  1  0
 41 42  2  0
 42 43  1  0
 43 44  2  0
 44 45  1  0
 45 46  1  0
 45 47  2  0
 47 48  1  0
 47 49  1  0
 49 50  1  0
 49 51  2  0
 51 52  1  0
 51 53  1  0
 39 54  1  0
 54 55  1  0
 54 56  1  0
 54 57  1  0
 57 58  1  0
 57 59  1  0
 57 60  1  0
 60 61  1  0
 60 62  1  0
 60 63  1  0
 63 64  1  0
 63 65  1  0
 63 66  1  0
 36 22  1  0
 53 41  1  0
 53 44  1  0
M  CHG  1  11  -1
M  END
>  <UniqueID>  (41) 
3

>  <SMILES>  (41) 
CCCC[C@H](/C(O)=N/[C@H](CC1CCCCC1)C(=O)C(=O)[N-]CC)c1nnc2ccccn12

>  <Energy>  (41) 
95.1457366715995

>  <Genealogy>  (41) 
CCCCC(C(=O)NC(CC1CCCCC1)C(=O)C(=O)[N-]CC)c1nnc2ccccn12 (protonated)
CCCCC(C(O)=NC(CC1CCCCC1)C(=O)C(=O)[N-]CC)c1nnc2ccccn12 (tautomer)
CCCC[C@H](C(O)=N[C@H](CC1CCCCC1)C(=O)C(=O)[N-]CC)c1nnc2ccccn12 (chirality)
CCCC[C@H](/C(O)=N/[C@H](CC1CCCCC1)C(=O)C(=O)[N-]CC)c1nnc2ccccn12 (cis-trans isomerization)
CCCC[C@H](/C(O)=N/[C@H](CC1CCCCC1)C(=O)C(=O)[N-]CC)c1nnc2ccccn12 (3D coordinates assigned)
CCCC[C@H](/C(O)=N/[C@H](CC1CCCCC1)C(=O)C(=O)[N-]CC)c1nnc2ccccn12 (nonaromatic ring conformer: 95.1457366715995 kcal/mol)

>  <smiles>  (41) 
CCCCC(C(=O)NC(CC1CCCCC1)C(=O)C(=O)NCC)c1nnc2ccccn12

>  <score_type>  (41) 
oracle

>  <origin>  (41) 
autodockgpu

>  <m_score__min__energy>  (41) 
-6.2599999999999998

>  <m_primary>  (41) 
energy

>  <meeko>  (41) 
{"free_energy": -4.9, "intermolecular_energy": -9.07, "internal_energy": -3.85, "cluster_size": 3, "cluster_id": 9, "rank_in_cluster": 2}

>  <energy>  (41) 
-6.26

>  <cluster_rmsd>  (41) 
0.0

>  <rmsd>  (41) 
269.07

>  <cluster>  (41) 
1

$$$$
NNKZOUMTYASKLJ-WHFSYHSSNA-M
     RDKit          3D

 66 68  0  0  0  0  0  0  0  0999 V2000
  138.9630   72.5760  220.5600 H   0  0  0  0  0  0  0  0  0  0  0  0
  139.8140   73.1040  220.4210 O   0  0  0  0  0  0  0  0  0  0  0  0
  140.5400   73.6880  221.4650 C   0  0  0  0  0  0  0  0  0  0  0  0
  140.7990   73.0390  222.5650 N   0  0  0  0  0  0  0  0  0  0  0  0
  139.9070   72.1050  223.2580 C   0  0  1  0  0  0  0  0  0  0  0  0
  139.2686   72.6655  223.9568 H   0  0  0  0  0  0  0  0  0  0  0  0
  138.9680   71.4190  222.2890 C   0  0  0  0  0  0  0  0  0  0  0  0
  139.4250   70.6080  221.4380 O   0  0  0  0  0  0  0  0  0  0  0  0
  137.5180   71.6780  222.3220 C   0  0  0  0  0  0  0  0  0  0  0  0
  136.9880   72.4300  221.4590 O   0  0  0  0  0  0  0  0  0  0  0  0
  136.7180   71.0770  223.3440 N   0  0  0  0  0  0  0  0  0  0  0  0
  136.6590   69.6390  223.5830 C   0  0  0  0  0  0  0  0  0  0  0  0
  135.6088   69.3124  223.5645 H   0  0  0  0  0  0  0  0  0  0  0  0
  137.2316   69.1254  222.7966 H   0  0  0  0  0  0  0  0  0  0  0  0
  137.2670   69.2940  224.9380 C   0  0  0  0  0  0  0  0  0  0  0  0
  136.6116   69.6659  225.7394 H   0  0  0  0  0  0  0  0  0  0  0  0
  137.3708   68.2025  225.0261 H   0  0  0  0  0  0  0  0  0  0  0  0
  138.2573   69.7648  225.0261 H   0  0  0  0  0  0  0  0  0  0  0  0
  140.7450   71.1010  224.0790 C   0  0  0  0  0  0  0  0  0  0  0  0
  140.7402   70.1394  223.5449 H   0  0  0  0  0  0  0  0  0  0  0  0
  141.7444   71.5502  224.1755 H   0  0  0  0  0  0  0  0  0  0  0  0
  140.2510   70.8450  225.5300 C   0  0  0  0  0  0  0  0  0  0  0  0
  139.1609   70.9916  225.5422 H   0  0  0  0  0  0  0  0  0  0  0  0
  140.8550   71.8590  226.5450 C   0  0  0  0  0  0  0  0  0  0  0  0
  141.8344   72.1866  226.1663 H   0  0  0  0  0  0  0  0  0  0  0  0
  140.1378   72.6884  226.6333 H   0  0  0  0  0  0  0  0  0  0  0  0
  141.0500   71.2830  227.9610 C   0  0  0  0  0  0  0  0  0  0  0  0
  142.0338   70.7940  228.0164 H   0  0  0  0  0  0  0  0  0  0  0  0
  140.9845   72.1097  228.6837 H   0  0  0  0  0  0  0  0  0  0  0  0
  139.9650   70.2590  228.3000 C   0  0  0  0  0  0  0  0  0  0  0  0
  140.1219   69.8999  229.3278 H   0  0  0  0  0  0  0  0  0  0  0  0
  138.9858   70.7500  228.2002 H   0  0  0  0  0  0  0  0  0  0  0  0
  140.0000   69.0550  227.3390 C   0  0  0  0  0  0  0  0  0  0  0  0
  140.6215   68.2674  227.7899 H   0  0  0  0  0  0  0  0  0  0  0  0
  138.9599   68.7302  227.1887 H   0  0  0  0  0  0  0  0  0  0  0  0
  140.5750   69.3950  225.9490 C   0  0  0  0  0  0  0  0  0  0  0  0
  141.6674   69.2683  225.9755 H   0  0  0  0  0  0  0  0  0  0  0  0
  140.1144   68.7174  225.2150 H   0  0  0  0  0  0  0  0  0  0  0  0
  141.0500   75.1010  221.3270 C   0  0  2  0  0  0  0  0  0  0  0  0
  141.9735   75.1815  221.9192 H   0  0  0  0  0  0  0  0  0  0  0  0
  140.0390   76.0780  221.8800 C   0  0  0  0  0  0  0  0  0  0  0  0
  138.7230   75.7910  222.0070 N   0  0  0  0  0  0  0  0  0  0  0  0
  138.1290   76.8530  222.5450 N   0  0  0  0  0  0  0  0  0  0  0  0
  139.0970   77.7650  222.7380 C   0  0  0  0  0  0  0  0  0  0  0  0
  138.9450   79.0360  223.2850 C   0  0  0  0  0  0  0  0  0  0  0  0
  137.9613   79.4023  223.6138 H   0  0  0  0  0  0  0  0  0  0  0  0
  140.0960   79.8330  223.4010 C   0  0  0  0  0  0  0  0  0  0  0  0
  140.0204   80.8438  223.8283 H   0  0  0  0  0  0  0  0  0  0  0  0
  141.3470   79.3450  222.9730 C   0  0  0  0  0  0  0  0  0  0  0  0
  142.2468   79.9710  223.0646 H   0  0  0  0  0  0  0  0  0  0  0  0
  141.4360   78.0540  222.4290 C   0  0  0  0  0  0  0  0  0  0  0  0
  142.3997   77.6498  222.0855 H   0  0  0  0  0  0  0  0  0  0  0  0
  140.2970   77.3180  222.3390 N   0  0  0  0  0  0  0  0  0  0  0  0
  141.4420   75.4480  219.8710 C   0  0  0  0  0  0  0  0  0  0  0  0
  140.7748   76.2473  219.5161 H   0  0  0  0  0  0  0  0  0  0  0  0
  141.3449   74.5194  219.2894 H   0  0  0  0  0  0  0  0  0  0  0  0
  142.8980   75.9240  219.7010 C   0  0  0  0  0  0  0  0  0  0  0  0
  143.0542   76.8100  220.3340 H   0  0  0  0  0  0  0  0  0  0  0  0
  143.0496   76.1516  218.6355 H   0  0  0  0  0  0  0  0  0  0  0  0
  143.9240   74.8530  220.0950 C   0  0  0  0  0  0  0  0  0  0  0  0
  144.0187   74.8320  221.1907 H   0  0  0  0  0  0  0  0  0  0  0  0
  144.8879   75.1042  219.6284 H   0  0  0  0  0  0  0  0  0  0  0  0
  143.4930   73.4720  219.6050 C   0  0  0  0  0  0  0  0  0  0  0  0
  143.2904   72.8229  220.4696 H   0  0  0  0  0  0  0  0  0  0  0  0
  142.5817   73.5669  218.9962 H   0  0  0  0  0  0  0  0  0  0  0  0
  144.2965   73.0317  218.9962 H   0  0  0  0  0  0  0  0  0  0  0  0
  1  2  1  0
  2  3  1  0
  3  4  2  0
  4  5  1  0
  5  6  1  1
  5  7  1  0
  7  8  2  0
  7  9  1  0
  9 10  2  0
  9 11  1  0
 11 12  1  0
 12 13  1  0
 12 14  1  0
 12 15  1  0
 15 16  1  0
 15 17  1  0
 15 18  1  0
  5 19  1  0
 19 20  1  0
 19 21  1  0
 19 22  1  0
 22 23  1  0
 22 24  1  0
 24 25  1  0
 24 26  1  0
 24 27  1  0
 27 28  1  0
 27 29  1  0
 27 30  1  0
 30 31  1  0
 30 32  1  0
 30 33  1  0
 33 34  1  0
 33 35  1  0
 33 36  1  0
 36 37  1  0
 36 38  1  0
  3 39  1  0
 39 40  1  1
 39 41  1  0
 41 42  2  0
 42 43  1  0
 43 44  2  0
 44 45  1  0
 45 46  1  0
 45 47  2  0
 47 48  1  0
 47 49  1  0
 49 50  1  0
 49 51  2  0
 51 52  1  0
 51 53  1  0
 39 54  1  0
 54 55  1  0
 54 56  1  0
 54 57  1  0
 57 58  1  0
 57 59  1  0
 57 60  1  0
 60 61  1  0
 60 62  1  0
 60 63  1  0
 63 64  1  0
 63 65  1  0
 63 66  1  0
 36 22  1  0
 53 41  1  0
 53 44  1  0
M  CHG  1  11  -1
M  END
>  <UniqueID>  (42) 
3

>  <SMILES>  (42) 
CCCC[C@H](/C(O)=N/[C@H](CC1CCCCC1)C(=O)C(=O)[N-]CC)c1nnc2ccccn12

>  <Energy>  (42) 
95.1457366715995

>  <Genealogy>  (42) 
CCCCC(C(=O)NC(CC1CCCCC1)C(=O)C(=O)[N-]CC)c1nnc2ccccn12 (protonated)
CCCCC(C(O)=NC(CC1CCCCC1)C(=O)C(=O)[N-]CC)c1nnc2ccccn12 (tautomer)
CCCC[C@H](C(O)=N[C@H](CC1CCCCC1)C(=O)C(=O)[N-]CC)c1nnc2ccccn12 (chirality)
CCCC[C@H](/C(O)=N/[C@H](CC1CCCCC1)C(=O)C(=O)[N-]CC)c1nnc2ccccn12 (cis-trans isomerization)
CCCC[C@H](/C(O)=N/[C@H](CC1CCCCC1)C(=O)C(=O)[N-]CC)c1nnc2ccccn12 (3D coordinates assigned)
CCCC[C@H](/C(O)=N/[C@H](CC1CCCCC1)C(=O)C(=O)[N-]CC)c1nnc2ccccn12 (nonaromatic ring conformer: 95.1457366715995 kcal/mol)

>  <smiles>  (42) 
CCCCC(C(=O)NC(CC1CCCCC1)C(=O)C(=O)NCC)c1nnc2ccccn12

>  <score_type>  (42) 
oracle

>  <origin>  (42) 
autodockgpu

>  <m_score__min__energy>  (42) 
-6.2599999999999998

>  <m_primary>  (42) 
energy

>  <meeko>  (42) 
{"free_energy": -5.8, "intermolecular_energy": -9.97, "internal_energy": -2.83, "cluster_size": 3, "cluster_id": 3, "rank_in_cluster": 2}

>  <energy>  (42) 
-6.14

>  <cluster_rmsd>  (42) 
0.0

>  <rmsd>  (42) 
268.88

>  <cluster>  (42) 
2

$$$$
NNKZOUMTYASKLJ-WHFSYHSSNA-M
     RDKit          3D

 66 68  0  0  0  0  0  0  0  0999 V2000
  143.4850   77.6140  220.3980 H   0  0  0  0  0  0  0  0  0  0  0  0
  142.5600   77.9430  220.1590 O   0  0  0  0  0  0  0  0  0  0  0  0
  141.4650   77.0930  219.9630 C   0  0  0  0  0  0  0  0  0  0  0  0
  140.2840   77.3780  220.4340 N   0  0  0  0  0  0  0  0  0  0  0  0
  139.8110   77.1440  221.8010 C   0  0  1  0  0  0  0  0  0  0  0  0
  139.0920   77.9306  222.0737 H   0  0  0  0  0  0  0  0  0  0  0  0
  139.0610   75.8340  221.9080 C   0  0  0  0  0  0  0  0  0  0  0  0
  137.8010   75.8320  221.9610 O   0  0  0  0  0  0  0  0  0  0  0  0
  139.7800   74.5480  221.9500 C   0  0  0  0  0  0  0  0  0  0  0  0
  141.0400   74.5260  221.9800 O   0  0  0  0  0  0  0  0  0  0  0  0
  139.0370   73.3250  221.9480 N   0  0  0  0  0  0  0  0  0  0  0  0
  139.6500   72.0080  222.0880 C   0  0  0  0  0  0  0  0  0  0  0  0
  138.8782   71.2346  221.9608 H   0  0  0  0  0  0  0  0  0  0  0  0
  140.4303   71.8966  221.3207 H   0  0  0  0  0  0  0  0  0  0  0  0
  140.2890   71.8570  223.4650 C   0  0  0  0  0  0  0  0  0  0  0  0
  139.5316   72.0360  224.2423 H   0  0  0  0  0  0  0  0  0  0  0  0
  140.6916   70.8390  223.5728 H   0  0  0  0  0  0  0  0  0  0  0  0
  141.1046   72.5871  223.5728 H   0  0  0  0  0  0  0  0  0  0  0  0
  141.0010   77.2250  222.7830 C   0  0  0  0  0  0  0  0  0  0  0  0
  140.7937   76.5459  223.6231 H   0  0  0  0  0  0  0  0  0  0  0  0
  141.8924   76.9505  222.1999 H   0  0  0  0  0  0  0  0  0  0  0  0
  141.2920   78.6350  223.3680 C   0  0  0  0  0  0  0  0  0  0  0  0
  141.4154   78.5260  224.4556 H   0  0  0  0  0  0  0  0  0  0  0  0
  140.1090   79.6210  223.1430 C   0  0  0  0  0  0  0  0  0  0  0  0
  139.5737   79.3174  222.2313 H   0  0  0  0  0  0  0  0  0  0  0  0
  139.4759   79.5704  224.0411 H   0  0  0  0  0  0  0  0  0  0  0  0
  140.5430   81.0910  222.9840 C   0  0  0  0  0  0  0  0  0  0  0  0
  140.7736   81.2838  221.9259 H   0  0  0  0  0  0  0  0  0  0  0  0
  139.7195   81.7346  223.3271 H   0  0  0  0  0  0  0  0  0  0  0  0
  141.7810   81.4010  223.8280 C   0  0  0  0  0  0  0  0  0  0  0  0
  142.0355   82.4647  223.7111 H   0  0  0  0  0  0  0  0  0  0  0  0
  141.5499   81.1654  224.8773 H   0  0  0  0  0  0  0  0  0  0  0  0
  142.9900   80.5470  223.3970 C   0  0  0  0  0  0  0  0  0  0  0  0
  143.5770   81.1192  222.6635 H   0  0  0  0  0  0  0  0  0  0  0  0
  143.5666   80.3196  224.3058 H   0  0  0  0  0  0  0  0  0  0  0  0
  142.5940   79.1990  222.7610 C   0  0  0  0  0  0  0  0  0  0  0  0
  142.4482   79.3451  221.6805 H   0  0  0  0  0  0  0  0  0  0  0  0
  143.4016   78.4789  222.9592 H   0  0  0  0  0  0  0  0  0  0  0  0
  141.6380   75.8130  219.1820 C   0  0  2  0  0  0  0  0  0  0  0  0
  140.7417   75.1971  219.3475 H   0  0  0  0  0  0  0  0  0  0  0  0
  142.8410   75.0520  219.6860 C   0  0  0  0  0  0  0  0  0  0  0  0
  144.0030   75.6500  220.0380 N   0  0  0  0  0  0  0  0  0  0  0  0
  144.8350   74.7000  220.4550 N   0  0  0  0  0  0  0  0  0  0  0  0
  144.1620   73.5410  220.3520 C   0  0  0  0  0  0  0  0  0  0  0  0
  144.6320   72.2730  220.6810 C   0  0  0  0  0  0  0  0  0  0  0  0
  145.6504   72.1245  221.0694 H   0  0  0  0  0  0  0  0  0  0  0  0
  143.7560   71.1900  220.4980 C   0  0  0  0  0  0  0  0  0  0  0  0
  144.0873   70.1710  220.7467 H   0  0  0  0  0  0  0  0  0  0  0  0
  142.4560   71.4010  219.9980 C   0  0  0  0  0  0  0  0  0  0  0  0
  141.7726   70.5509  219.8556 H   0  0  0  0  0  0  0  0  0  0  0  0
  142.0390   72.7030  219.6830 C   0  0  0  0  0  0  0  0  0  0  0  0
  141.0303   72.8947  219.2884 H   0  0  0  0  0  0  0  0  0  0  0  0
  142.9190   73.7210  219.8800 N   0  0  0  0  0  0  0  0  0  0  0  0
  141.7140   76.0580  217.6560 C   0  0  0  0  0  0  0  0  0  0  0  0
  141.0132   75.3692  217.1616 H   0  0  0  0  0  0  0  0  0  0  0  0
  142.7605   75.8886  217.3625 H   0  0  0  0  0  0  0  0  0  0  0  0
  141.3630   77.4950  217.2240 C   0  0  0  0  0  0  0  0  0  0  0  0
  140.6764   77.9273  217.9668 H   0  0  0  0  0  0  0  0  0  0  0  0
  140.9025   77.4373  216.2267 H   0  0  0  0  0  0  0  0  0  0  0  0
  142.5960   78.4010  217.1110 C   0  0  0  0  0  0  0  0  0  0  0  0
  142.8164   78.5771  216.0478 H   0  0  0  0  0  0  0  0  0  0  0  0
  143.4434   77.9016  217.6034 H   0  0  0  0  0  0  0  0  0  0  0  0
  142.3560   79.7430  217.8000 C   0  0  0  0  0  0  0  0  0  0  0  0
  142.3807   79.6046  218.8910 H   0  0  0  0  0  0  0  0  0  0  0  0
  143.1413   80.4535  217.5026 H   0  0  0  0  0  0  0  0  0  0  0  0
  141.3731   80.1373  217.5026 H   0  0  0  0  0  0  0  0  0  0  0  0
  1  2  1  0
  2  3  1  0
  3  4  2  0
  4  5  1  0
  5  6  1  1
  5  7  1  0
  7  8  2  0
  7  9  1  0
  9 10  2  0
  9 11  1  0
 11 12  1  0
 12 13  1  0
 12 14  1  0
 12 15  1  0
 15 16  1  0
 15 17  1  0
 15 18  1  0
  5 19  1  0
 19 20  1  0
 19 21  1  0
 19 22  1  0
 22 23  1  0
 22 24  1  0
 24 25  1  0
 24 26  1  0
 24 27  1  0
 27 28  1  0
 27 29  1  0
 27 30  1  0
 30 31  1  0
 30 32  1  0
 30 33  1  0
 33 34  1  0
 33 35  1  0
 33 36  1  0
 36 37  1  0
 36 38  1  0
  3 39  1  0
 39 40  1  6
 39 41  1  0
 41 42  2  0
 42 43  1  0
 43 44  2  0
 44 45  1  0
 45 46  1  0
 45 47  2  0
 47 48  1  0
 47 49  1  0
 49 50  1  0
 49 51  2  0
 51 52  1  0
 51 53  1  0
 39 54  1  0
 54 55  1  0
 54 56  1  0
 54 57  1  0
 57 58  1  0
 57 59  1  0
 57 60  1  0
 60 61  1  0
 60 62  1  0
 60 63  1  0
 63 64  1  0
 63 65  1  0
 63 66  1  0
 36 22  1  0
 53 41  1  0
 53 44  1  0
M  CHG  1  11  -1
M  END
>  <UniqueID>  (43) 
3

>  <SMILES>  (43) 
CCCC[C@H](/C(O)=N/[C@H](CC1CCCCC1)C(=O)C(=O)[N-]CC)c1nnc2ccccn12

>  <Energy>  (43) 
95.1457366715995

>  <Genealogy>  (43) 
CCCCC(C(=O)NC(CC1CCCCC1)C(=O)C(=O)[N-]CC)c1nnc2ccccn12 (protonated)
CCCCC(C(O)=NC(CC1CCCCC1)C(=O)C(=O)[N-]CC)c1nnc2ccccn12 (tautomer)
CCCC[C@H](C(O)=N[C@H](CC1CCCCC1)C(=O)C(=O)[N-]CC)c1nnc2ccccn12 (chirality)
CCCC[C@H](/C(O)=N/[C@H](CC1CCCCC1)C(=O)C(=O)[N-]CC)c1nnc2ccccn12 (cis-trans isomerization)
CCCC[C@H](/C(O)=N/[C@H](CC1CCCCC1)C(=O)C(=O)[N-]CC)c1nnc2ccccn12 (3D coordinates assigned)
CCCC[C@H](/C(O)=N/[C@H](CC1CCCCC1)C(=O)C(=O)[N-]CC)c1nnc2ccccn12 (nonaromatic ring conformer: 95.1457366715995 kcal/mol)

>  <smiles>  (43) 
CCCCC(C(=O)NC(CC1CCCCC1)C(=O)C(=O)NCC)c1nnc2ccccn12

>  <score_type>  (43) 
oracle

>  <origin>  (43) 
autodockgpu

>  <m_score__min__energy>  (43) 
-6.2599999999999998

>  <m_primary>  (43) 
energy

>  <meeko>  (43) 
{"free_energy": -4.96, "intermolecular_energy": -9.14, "internal_energy": -3.23, "cluster_size": 1, "cluster_id": 10, "rank_in_cluster": 1}

>  <energy>  (43) 
-5.65

>  <cluster_rmsd>  (43) 
1.15

>  <rmsd>  (43) 
268.8

>  <cluster>  (43) 
2

$$$$
NNKZOUMTYASKLJ-WHFSYHSSNA-M
     RDKit          3D

 66 68  0  0  0  0  0  0  0  0999 V2000
  139.3590   68.1200  222.6220 H   0  0  0  0  0  0  0  0  0  0  0  0
  139.1450   68.9400  222.0690 O   0  0  0  0  0  0  0  0  0  0  0  0
  138.7150   70.1520  222.6200 C   0  0  0  0  0  0  0  0  0  0  0  0
  138.8220   71.2760  221.9690 N   0  0  0  0  0  0  0  0  0  0  0  0
  138.0940   72.5170  222.2460 C   0  0  1  0  0  0  0  0  0  0  0  0
  138.2287   72.7868  223.3039 H   0  0  0  0  0  0  0  0  0  0  0  0
  138.6510   73.6730  221.4430 C   0  0  0  0  0  0  0  0  0  0  0  0
  138.1770   73.9330  220.3030 O   0  0  0  0  0  0  0  0  0  0  0  0
  139.7420   74.5100  221.9700 C   0  0  0  0  0  0  0  0  0  0  0  0
  139.5000   75.6650  222.4130 O   0  0  0  0  0  0  0  0  0  0  0  0
  141.0820   74.0050  221.9690 N   0  0  0  0  0  0  0  0  0  0  0  0
  141.6940   73.3430  220.8210 C   0  0  0  0  0  0  0  0  0  0  0  0
  141.0361   73.4543  219.9465 H   0  0  0  0  0  0  0  0  0  0  0  0
  142.6715   73.8073  220.6236 H   0  0  0  0  0  0  0  0  0  0  0  0
  141.9030   71.8600  221.1050 C   0  0  0  0  0  0  0  0  0  0  0  0
  141.9263   71.6946  222.1922 H   0  0  0  0  0  0  0  0  0  0  0  0
  141.0774   71.2823  220.6638 H   0  0  0  0  0  0  0  0  0  0  0  0
  142.8561   71.5330  220.6638 H   0  0  0  0  0  0  0  0  0  0  0  0
  136.5850   72.2990  221.9980 C   0  0  0  0  0  0  0  0  0  0  0  0
  136.3929   72.4482  220.9252 H   0  0  0  0  0  0  0  0  0  0  0  0
  136.3652   71.2805  222.3505 H   0  0  0  0  0  0  0  0  0  0  0  0
  135.6340   73.2390  222.7900 C   0  0  0  0  0  0  0  0  0  0  0  0
  134.6208   73.1086  222.3819 H   0  0  0  0  0  0  0  0  0  0  0  0
  136.0040   74.7400  222.6100 C   0  0  0  0  0  0  0  0  0  0  0  0
  137.0842   74.8092  222.4143 H   0  0  0  0  0  0  0  0  0  0  0  0
  135.3977   75.1198  221.7745 H   0  0  0  0  0  0  0  0  0  0  0  0
  135.6760   75.6160  223.8340 C   0  0  0  0  0  0  0  0  0  0  0  0
  136.5276   75.5926  224.5299 H   0  0  0  0  0  0  0  0  0  0  0  0
  135.4860   76.6419  223.4857 H   0  0  0  0  0  0  0  0  0  0  0  0
  134.4260   75.1130  224.5590 C   0  0  0  0  0  0  0  0  0  0  0  0
  134.2085   75.7842  225.4029 H   0  0  0  0  0  0  0  0  0  0  0  0
  133.5928   75.1020  223.8409 H   0  0  0  0  0  0  0  0  0  0  0  0
  134.6190   73.6800  225.0960 C   0  0  0  0  0  0  0  0  0  0  0  0
  134.9705   73.7421  226.1365 H   0  0  0  0  0  0  0  0  0  0  0  0
  133.6480   73.1696  225.0144 H   0  0  0  0  0  0  0  0  0  0  0  0
  135.6370   72.8530  224.2850 C   0  0  0  0  0  0  0  0  0  0  0  0
  136.6429   73.0267  224.6948 H   0  0  0  0  0  0  0  0  0  0  0  0
  135.3537   71.7930  224.3633 H   0  0  0  0  0  0  0  0  0  0  0  0
  138.1010   70.1750  223.9980 C   0  0  2  0  0  0  0  0  0  0  0  0
  138.2294   71.1897  224.4030 H   0  0  0  0  0  0  0  0  0  0  0  0
  138.8170   69.2010  224.9050 C   0  0  0  0  0  0  0  0  0  0  0  0
  138.8080   67.8620  224.7110 N   0  0  0  0  0  0  0  0  0  0  0  0
  139.5490   67.3110  225.6680 N   0  0  0  0  0  0  0  0  0  0  0  0
  139.9980   68.3270  226.4240 C   0  0  0  0  0  0  0  0  0  0  0  0
  140.8200   68.2290  227.5440 C   0  0  0  0  0  0  0  0  0  0  0  0
  141.1760   67.2540  227.9081 H   0  0  0  0  0  0  0  0  0  0  0  0
  141.1770   69.4250  228.1910 C   0  0  0  0  0  0  0  0  0  0  0  0
  141.8256   69.3936  229.0789 H   0  0  0  0  0  0  0  0  0  0  0  0
  140.7090   70.6640  227.7090 C   0  0  0  0  0  0  0  0  0  0  0  0
  140.9891   71.5981  228.2179 H   0  0  0  0  0  0  0  0  0  0  0  0
  139.8830   70.6970  226.5750 C   0  0  0  0  0  0  0  0  0  0  0  0
  139.5024   71.6502  226.1792 H   0  0  0  0  0  0  0  0  0  0  0  0
  139.5670   69.5160  225.9800 N   0  0  0  0  0  0  0  0  0  0  0  0
  136.5760   69.9140  223.9710 C   0  0  0  0  0  0  0  0  0  0  0  0
  136.3757   69.1200  223.2365 H   0  0  0  0  0  0  0  0  0  0  0  0
  136.0983   70.8699  223.7099 H   0  0  0  0  0  0  0  0  0  0  0  0
  135.9810   69.4800  225.3240 C   0  0  0  0  0  0  0  0  0  0  0  0
  136.5479   69.9686  226.1301 H   0  0  0  0  0  0  0  0  0  0  0  0
  136.0528   68.3838  225.3809 H   0  0  0  0  0  0  0  0  0  0  0  0
  134.5000   69.8540  225.4700 C   0  0  0  0  0  0  0  0  0  0  0  0
  133.8910   68.9398  225.4115 H   0  0  0  0  0  0  0  0  0  0  0  0
  134.2332   70.5484  224.6597 H   0  0  0  0  0  0  0  0  0  0  0  0
  134.2370   70.5440  226.8070 C   0  0  0  0  0  0  0  0  0  0  0  0
  134.4972   69.8613  227.6294 H   0  0  0  0  0  0  0  0  0  0  0  0
  134.8514   71.4537  226.8773 H   0  0  0  0  0  0  0  0  0  0  0  0
  133.1729   70.8139  226.8773 H   0  0  0  0  0  0  0  0  0  0  0  0
  1  2  1  0
  2  3  1  0
  3  4  2  0
  4  5  1  0
  5  6  1  1
  5  7  1  0
  7  8  2  0
  7  9  1  0
  9 10  2  0
  9 11  1  0
 11 12  1  0
 12 13  1  0
 12 14  1  0
 12 15  1  0
 15 16  1  0
 15 17  1  0
 15 18  1  0
  5 19  1  0
 19 20  1  0
 19 21  1  0
 19 22  1  0
 22 23  1  0
 22 24  1  0
 24 25  1  0
 24 26  1  0
 24 27  1  0
 27 28  1  0
 27 29  1  0
 27 30  1  0
 30 31  1  0
 30 32  1  0
 30 33  1  0
 33 34  1  0
 33 35  1  0
 33 36  1  0
 36 37  1  0
 36 38  1  0
  3 39  1  0
 39 40  1  1
 39 41  1  0
 41 42  2  0
 42 43  1  0
 43 44  2  0
 44 45  1  0
 45 46  1  0
 45 47  2  0
 47 48  1  0
 47 49  1  0
 49 50  1  0
 49 51  2  0
 51 52  1  0
 51 53  1  0
 39 54  1  0
 54 55  1  0
 54 56  1  0
 54 57  1  0
 57 58  1  0
 57 59  1  0
 57 60  1  0
 60 61  1  0
 60 62  1  0
 60 63  1  0
 63 64  1  0
 63 65  1  0
 63 66  1  0
 36 22  1  0
 53 41  1  0
 53 44  1  0
M  CHG  1  11  -1
M  END
>  <UniqueID>  (44) 
3

>  <SMILES>  (44) 
CCCC[C@H](/C(O)=N/[C@H](CC1CCCCC1)C(=O)C(=O)[N-]CC)c1nnc2ccccn12

>  <Energy>  (44) 
95.1457366715995

>  <Genealogy>  (44) 
CCCCC(C(=O)NC(CC1CCCCC1)C(=O)C(=O)[N-]CC)c1nnc2ccccn12 (protonated)
CCCCC(C(O)=NC(CC1CCCCC1)C(=O)C(=O)[N-]CC)c1nnc2ccccn12 (tautomer)
CCCC[C@H](C(O)=N[C@H](CC1CCCCC1)C(=O)C(=O)[N-]CC)c1nnc2ccccn12 (chirality)
CCCC[C@H](/C(O)=N/[C@H](CC1CCCCC1)C(=O)C(=O)[N-]CC)c1nnc2ccccn12 (cis-trans isomerization)
CCCC[C@H](/C(O)=N/[C@H](CC1CCCCC1)C(=O)C(=O)[N-]CC)c1nnc2ccccn12 (3D coordinates assigned)
CCCC[C@H](/C(O)=N/[C@H](CC1CCCCC1)C(=O)C(=O)[N-]CC)c1nnc2ccccn12 (nonaromatic ring conformer: 95.1457366715995 kcal/mol)

>  <smiles>  (44) 
CCCCC(C(=O)NC(CC1CCCCC1)C(=O)C(=O)NCC)c1nnc2ccccn12

>  <score_type>  (44) 
oracle

>  <origin>  (44) 
autodockgpu

>  <m_score__min__energy>  (44) 
-6.2599999999999998

>  <m_primary>  (44) 
energy

>  <meeko>  (44) 
{"free_energy": -5.22, "intermolecular_energy": -9.4, "internal_energy": -2.74, "cluster_size": 1, "cluster_id": 8, "rank_in_cluster": 1}

>  <energy>  (44) 
-5.95

>  <cluster_rmsd>  (44) 
0.0

>  <rmsd>  (44) 
269.94

>  <cluster>  (44) 
3

$$$$
NNKZOUMTYASKLJ-WHFSYHSSNA-M
     RDKit          3D

 66 68  0  0  0  0  0  0  0  0999 V2000
  140.4760   74.0060  220.1280 H   0  0  0  0  0  0  0  0  0  0  0  0
  140.9290   74.6950  219.5430 O   0  0  0  0  0  0  0  0  0  0  0  0
  141.1680   76.0140  219.9470 C   0  0  0  0  0  0  0  0  0  0  0  0
  140.2370   76.7390  220.4980 N   0  0  0  0  0  0  0  0  0  0  0  0
  139.1720   76.2650  221.3860 C   0  0  1  0  0  0  0  0  0  0  0  0
  138.2035   76.3655  220.8743 H   0  0  0  0  0  0  0  0  0  0  0  0
  139.3310   74.7930  221.7000 C   0  0  0  0  0  0  0  0  0  0  0  0
  140.3400   74.3920  222.3420 O   0  0  0  0  0  0  0  0  0  0  0  0
  138.3220   73.8100  221.2680 C   0  0  0  0  0  0  0  0  0  0  0  0
  137.1270   73.9140  221.6570 O   0  0  0  0  0  0  0  0  0  0  0  0
  138.7100   72.7320  220.4110 N   0  0  0  0  0  0  0  0  0  0  0  0
  139.3820   71.5260  220.8840 C   0  0  0  0  0  0  0  0  0  0  0  0
  139.0255   71.2870  221.8968 H   0  0  0  0  0  0  0  0  0  0  0  0
  139.1534   70.6992  220.1955 H   0  0  0  0  0  0  0  0  0  0  0  0
  140.8930   71.7330  220.9200 C   0  0  0  0  0  0  0  0  0  0  0  0
  141.2319   71.7794  221.9655 H   0  0  0  0  0  0  0  0  0  0  0  0
  141.3902   70.8946  220.4102 H   0  0  0  0  0  0  0  0  0  0  0  0
  141.1464   72.6742  220.4102 H   0  0  0  0  0  0  0  0  0  0  0  0
  139.1320   77.1390  222.6600 C   0  0  0  0  0  0  0  0  0  0  0  0
  138.0892   77.4464  222.8274 H   0  0  0  0  0  0  0  0  0  0  0  0
  139.5459   76.5159  223.4665 H   0  0  0  0  0  0  0  0  0  0  0  0
  140.0080   78.4210  222.6200 C   0  0  0  0  0  0  0  0  0  0  0  0
  140.0936   78.7334  221.5688 H   0  0  0  0  0  0  0  0  0  0  0  0
  141.4550   78.1630  223.1340 C   0  0  0  0  0  0  0  0  0  0  0  0
  141.4227   77.3369  223.8597 H   0  0  0  0  0  0  0  0  0  0  0  0
  142.0696   77.9271  222.2528 H   0  0  0  0  0  0  0  0  0  0  0  0
  142.1020   79.3840  223.8170 C   0  0  0  0  0  0  0  0  0  0  0  0
  141.8298   79.3843  224.8828 H   0  0  0  0  0  0  0  0  0  0  0  0
  143.1928   79.3130  223.6936 H   0  0  0  0  0  0  0  0  0  0  0  0
  141.6290   80.6920  223.1820 C   0  0  0  0  0  0  0  0  0  0  0  0
  142.1393   81.5327  223.6747 H   0  0  0  0  0  0  0  0  0  0  0  0
  141.8697   80.6597  222.1092 H   0  0  0  0  0  0  0  0  0  0  0  0
  140.1060   80.8770  223.3280 C   0  0  0  0  0  0  0  0  0  0  0  0
  139.9121   81.4658  224.2367 H   0  0  0  0  0  0  0  0  0  0  0  0
  139.7527   81.3855  222.4188 H   0  0  0  0  0  0  0  0  0  0  0  0
  139.3330   79.5460  223.4340 C   0  0  0  0  0  0  0  0  0  0  0  0
  139.2896   79.2433  224.4906 H   0  0  0  0  0  0  0  0  0  0  0  0
  138.3243   79.7044  223.0247 H   0  0  0  0  0  0  0  0  0  0  0  0
  142.5350   76.6230  219.7530 C   0  0  2  0  0  0  0  0  0  0  0  0
  142.8406   77.0684  220.7113 H   0  0  0  0  0  0  0  0  0  0  0  0
  142.4770   77.7170  218.7130 C   0  0  0  0  0  0  0  0  0  0  0  0
  142.7230   77.5050  217.3990 N   0  0  0  0  0  0  0  0  0  0  0  0
  142.5640   78.6650  216.7670 N   0  0  0  0  0  0  0  0  0  0  0  0
  142.2200   79.5600  217.7090 C   0  0  0  0  0  0  0  0  0  0  0  0
  141.9460   80.9100  217.5130 C   0  0  0  0  0  0  0  0  0  0  0  0
  141.9982   81.3637  216.5123 H   0  0  0  0  0  0  0  0  0  0  0  0
  141.6000   81.6720  218.6420 C   0  0  0  0  0  0  0  0  0  0  0  0
  141.3756   82.7431  218.5312 H   0  0  0  0  0  0  0  0  0  0  0  0
  141.5390   81.0710  219.9160 C   0  0  0  0  0  0  0  0  0  0  0  0
  141.2677   81.6692  220.7984 H   0  0  0  0  0  0  0  0  0  0  0  0
  141.8270   79.7040  220.0500 C   0  0  0  0  0  0  0  0  0  0  0  0
  141.7901   79.2111  221.0327 H   0  0  0  0  0  0  0  0  0  0  0  0
  142.1530   79.0070  218.9290 N   0  0  0  0  0  0  0  0  0  0  0  0
  143.6100   75.5650  219.4100 C   0  0  0  0  0  0  0  0  0  0  0  0
  144.5731   76.0813  219.2835 H   0  0  0  0  0  0  0  0  0  0  0  0
  143.2719   75.0588  218.4938 H   0  0  0  0  0  0  0  0  0  0  0  0
  143.7870   74.4690  220.4790 C   0  0  0  0  0  0  0  0  0  0  0  0
  142.8397   73.9188  220.5783 H   0  0  0  0  0  0  0  0  0  0  0  0
  144.0712   74.9659  221.4184 H   0  0  0  0  0  0  0  0  0  0  0  0
  144.8990   73.4710  220.1300 C   0  0  0  0  0  0  0  0  0  0  0  0
  145.3778   73.7811  219.1895 H   0  0  0  0  0  0  0  0  0  0  0  0
  144.4512   72.4718  220.0249 H   0  0  0  0  0  0  0  0  0  0  0  0
  145.9540   73.4160  221.2320 C   0  0  0  0  0  0  0  0  0  0  0  0
  145.4598   73.4418  222.2144 H   0  0  0  0  0  0  0  0  0  0  0  0
  146.5345   72.4864  221.1378 H   0  0  0  0  0  0  0  0  0  0  0  0
  146.6280   74.2802  221.1378 H   0  0  0  0  0  0  0  0  0  0  0  0
  1  2  1  0
  2  3  1  0
  3  4  2  0
  4  5  1  0
  5  6  1  6
  5  7  1  0
  7  8  2  0
  7  9  1  0
  9 10  2  0
  9 11  1  0
 11 12  1  0
 12 13  1  0
 12 14  1  0
 12 15  1  0
 15 16  1  0
 15 17  1  0
 15 18  1  0
  5 19  1  0
 19 20  1  0
 19 21  1  0
 19 22  1  0
 22 23  1  0
 22 24  1  0
 24 25  1  0
 24 26  1  0
 24 27  1  0
 27 28  1  0
 27 29  1  0
 27 30  1  0
 30 31  1  0
 30 32  1  0
 30 33  1  0
 33 34  1  0
 33 35  1  0
 33 36  1  0
 36 37  1  0
 36 38  1  0
  3 39  1  0
 39 40  1  1
 39 41  1  0
 41 42  2  0
 42 43  1  0
 43 44  2  0
 44 45  1  0
 45 46  1  0
 45 47  2  0
 47 48  1  0
 47 49  1  0
 49 50  1  0
 49 51  2  0
 51 52  1  0
 51 53  1  0
 39 54  1  0
 54 55  1  0
 54 56  1  0
 54 57  1  0
 57 58  1  0
 57 59  1  0
 57 60  1  0
 60 61  1  0
 60 62  1  0
 60 63  1  0
 63 64  1  0
 63 65  1  0
 63 66  1  0
 36 22  1  0
 53 41  1  0
 53 44  1  0
M  CHG  1  11  -1
M  END
>  <UniqueID>  (45) 
3

>  <SMILES>  (45) 
CCCC[C@H](/C(O)=N/[C@H](CC1CCCCC1)C(=O)C(=O)[N-]CC)c1nnc2ccccn12

>  <Energy>  (45) 
95.1457366715995

>  <Genealogy>  (45) 
CCCCC(C(=O)NC(CC1CCCCC1)C(=O)C(=O)[N-]CC)c1nnc2ccccn12 (protonated)
CCCCC(C(O)=NC(CC1CCCCC1)C(=O)C(=O)[N-]CC)c1nnc2ccccn12 (tautomer)
CCCC[C@H](C(O)=N[C@H](CC1CCCCC1)C(=O)C(=O)[N-]CC)c1nnc2ccccn12 (chirality)
CCCC[C@H](/C(O)=N/[C@H](CC1CCCCC1)C(=O)C(=O)[N-]CC)c1nnc2ccccn12 (cis-trans isomerization)
CCCC[C@H](/C(O)=N/[C@H](CC1CCCCC1)C(=O)C(=O)[N-]CC)c1nnc2ccccn12 (3D coordinates assigned)
CCCC[C@H](/C(O)=N/[C@H](CC1CCCCC1)C(=O)C(=O)[N-]CC)c1nnc2ccccn12 (nonaromatic ring conformer: 95.1457366715995 kcal/mol)

>  <smiles>  (45) 
CCCCC(C(=O)NC(CC1CCCCC1)C(=O)C(=O)NCC)c1nnc2ccccn12

>  <score_type>  (45) 
oracle

>  <origin>  (45) 
autodockgpu

>  <m_score__min__energy>  (45) 
-6.2599999999999998

>  <m_primary>  (45) 
energy

>  <meeko>  (45) 
{"free_energy": -4.85, "intermolecular_energy": -9.03, "internal_energy": -3.47, "cluster_size": 1, "cluster_id": 11, "rank_in_cluster": 1}

>  <energy>  (45) 
-5.8

>  <cluster_rmsd>  (45) 
1.75

>  <rmsd>  (45) 
269.74

>  <cluster>  (45) 
3

$$$$
NNKZOUMTYASKLJ-WHFSYHSSNA-M
     RDKit          3D

 66 68  0  0  0  0  0  0  0  0999 V2000
  139.1920   74.1600  222.7690 H   0  0  0  0  0  0  0  0  0  0  0  0
  140.0250   73.9810  222.2240 O   0  0  0  0  0  0  0  0  0  0  0  0
  140.5630   74.8990  221.3140 C   0  0  0  0  0  0  0  0  0  0  0  0
  139.8870   75.9350  220.9060 N   0  0  0  0  0  0  0  0  0  0  0  0
  139.5650   77.1310  221.6900 C   0  0  1  0  0  0  0  0  0  0  0  0
  139.4549   77.9896  221.0113 H   0  0  0  0  0  0  0  0  0  0  0  0
  138.2360   76.9850  222.3990 C   0  0  0  0  0  0  0  0  0  0  0  0
  137.9950   75.9480  223.0760 O   0  0  0  0  0  0  0  0  0  0  0  0
  137.2110   78.0380  222.3170 C   0  0  0  0  0  0  0  0  0  0  0  0
  136.0160   77.7420  222.0430 O   0  0  0  0  0  0  0  0  0  0  0  0
  137.5810   79.4020  222.5410 N   0  0  0  0  0  0  0  0  0  0  0  0
  137.2160   80.1520  223.7390 C   0  0  0  0  0  0  0  0  0  0  0  0
  136.4435   80.8914  223.4811 H   0  0  0  0  0  0  0  0  0  0  0  0
  136.8338   79.4494  224.4941 H   0  0  0  0  0  0  0  0  0  0  0  0
  138.4300   80.8750  224.3110 C   0  0  0  0  0  0  0  0  0  0  0  0
  138.3876   80.8498  225.4099 H   0  0  0  0  0  0  0  0  0  0  0  0
  139.3488   80.3768  223.9679 H   0  0  0  0  0  0  0  0  0  0  0  0
  138.4296   81.9201  223.9679 H   0  0  0  0  0  0  0  0  0  0  0  0
  140.7240   77.4370  222.6650 C   0  0  0  0  0  0  0  0  0  0  0  0
  140.5139   76.9213  223.6136 H   0  0  0  0  0  0  0  0  0  0  0  0
  141.6396   77.0890  222.1643 H   0  0  0  0  0  0  0  0  0  0  0  0
  140.9550   78.9420  222.9790 C   0  0  0  0  0  0  0  0  0  0  0  0
  140.2792   79.2189  223.8015 H   0  0  0  0  0  0  0  0  0  0  0  0
  140.5970   79.8570  221.7710 C   0  0  0  0  0  0  0  0  0  0  0  0
  140.7500   79.2837  220.8448 H   0  0  0  0  0  0  0  0  0  0  0  0
  139.5510   80.1697  221.9057 H   0  0  0  0  0  0  0  0  0  0  0  0
  141.4420   81.1430  221.6910 C   0  0  0  0  0  0  0  0  0  0  0  0
  142.3642   80.9313  221.1299 H   0  0  0  0  0  0  0  0  0  0  0  0
  140.8473   81.9179  221.1851 H   0  0  0  0  0  0  0  0  0  0  0  0
  141.8130   81.6530  223.0850 C   0  0  0  0  0  0  0  0  0  0  0  0
  142.3843   82.5874  222.9829 H   0  0  0  0  0  0  0  0  0  0  0  0
  140.8834   81.8205  223.6487 H   0  0  0  0  0  0  0  0  0  0  0  0
  142.6660   80.6270  223.8560 C   0  0  0  0  0  0  0  0  0  0  0  0
  143.7277   80.8629  223.6913 H   0  0  0  0  0  0  0  0  0  0  0  0
  142.3817   80.7013  224.9160 H   0  0  0  0  0  0  0  0  0  0  0  0
  142.4170   79.1700  223.4210 C   0  0  0  0  0  0  0  0  0  0  0  0
  143.0841   78.9313  222.5796 H   0  0  0  0  0  0  0  0  0  0  0  0
  142.6175   78.5179  224.2839 H   0  0  0  0  0  0  0  0  0  0  0  0
  141.9640   74.7020  220.7890 C   0  0  2  0  0  0  0  0  0  0  0  0
  142.6462   75.2731  221.4359 H   0  0  0  0  0  0  0  0  0  0  0  0
  142.0750   75.2400  219.3820 C   0  0  0  0  0  0  0  0  0  0  0  0
  142.0730   74.4500  218.2830 N   0  0  0  0  0  0  0  0  0  0  0  0
  142.1610   75.2410  217.2180 N   0  0  0  0  0  0  0  0  0  0  0  0
  142.2110   76.4990  217.6890 C   0  0  0  0  0  0  0  0  0  0  0  0
  142.3030   77.6660  216.9360 C   0  0  0  0  0  0  0  0  0  0  0  0
  142.3458   77.6352  215.8373 H   0  0  0  0  0  0  0  0  0  0  0  0
  142.3390   78.8850  217.6340 C   0  0  0  0  0  0  0  0  0  0  0  0
  142.4098   79.8313  217.0777 H   0  0  0  0  0  0  0  0  0  0  0  0
  142.2850   78.9030  219.0420 C   0  0  0  0  0  0  0  0  0  0  0  0
  142.3140   79.8588  219.5857 H   0  0  0  0  0  0  0  0  0  0  0  0
  142.1940   77.6920  219.7450 C   0  0  0  0  0  0  0  0  0  0  0  0
  142.1530   77.6771  220.8441 H   0  0  0  0  0  0  0  0  0  0  0  0
  142.1580   76.5380  219.0280 N   0  0  0  0  0  0  0  0  0  0  0  0
  142.4250   73.2280  220.8750 C   0  0  0  0  0  0  0  0  0  0  0  0
  141.7093   72.6101  220.3129 H   0  0  0  0  0  0  0  0  0  0  0  0
  142.4639   72.9726  221.9442 H   0  0  0  0  0  0  0  0  0  0  0  0
  143.8340   72.9690  220.3090 C   0  0  0  0  0  0  0  0  0  0  0  0
  143.7746   72.9582  219.2107 H   0  0  0  0  0  0  0  0  0  0  0  0
  144.1787   72.0043  220.7096 H   0  0  0  0  0  0  0  0  0  0  0  0
  144.8530   74.0350  220.7340 C   0  0  0  0  0  0  0  0  0  0  0  0
  144.4081   74.6648  221.5185 H   0  0  0  0  0  0  0  0  0  0  0  0
  145.1130   74.6406  219.8533 H   0  0  0  0  0  0  0  0  0  0  0  0
  146.1280   73.3920  221.2740 C   0  0  0  0  0  0  0  0  0  0  0  0
  146.1067   73.4028  222.3737 H   0  0  0  0  0  0  0  0  0  0  0  0
  146.1936   72.3530  220.9187 H   0  0  0  0  0  0  0  0  0  0  0  0
  147.0024   73.9569  220.9187 H   0  0  0  0  0  0  0  0  0  0  0  0
  1  2  1  0
  2  3  1  0
  3  4  2  0
  4  5  1  0
  5  6  1  6
  5  7  1  0
  7  8  2  0
  7  9  1  0
  9 10  2  0
  9 11  1  0
 11 12  1  0
 12 13  1  0
 12 14  1  0
 12 15  1  0
 15 16  1  0
 15 17  1  0
 15 18  1  0
  5 19  1  0
 19 20  1  0
 19 21  1  0
 19 22  1  0
 22 23  1  0
 22 24  1  0
 24 25  1  0
 24 26  1  0
 24 27  1  0
 27 28  1  0
 27 29  1  0
 27 30  1  0
 30 31  1  0
 30 32  1  0
 30 33  1  0
 33 34  1  0
 33 35  1  0
 33 36  1  0
 36 37  1  0
 36 38  1  0
  3 39  1  0
 39 40  1  1
 39 41  1  0
 41 42  2  0
 42 43  1  0
 43 44  2  0
 44 45  1  0
 45 46  1  0
 45 47  2  0
 47 48  1  0
 47 49  1  0
 49 50  1  0
 49 51  2  0
 51 52  1  0
 51 53  1  0
 39 54  1  0
 54 55  1  0
 54 56  1  0
 54 57  1  0
 57 58  1  0
 57 59  1  0
 57 60  1  0
 60 61  1  0
 60 62  1  0
 60 63  1  0
 63 64  1  0
 63 65  1  0
 63 66  1  0
 36 22  1  0
 53 41  1  0
 53 44  1  0
M  CHG  1  11  -1
M  END
>  <UniqueID>  (46) 
3

>  <SMILES>  (46) 
CCCC[C@H](/C(O)=N/[C@H](CC1CCCCC1)C(=O)C(=O)[N-]CC)c1nnc2ccccn12

>  <Energy>  (46) 
95.1457366715995

>  <Genealogy>  (46) 
CCCCC(C(=O)NC(CC1CCCCC1)C(=O)C(=O)[N-]CC)c1nnc2ccccn12 (protonated)
CCCCC(C(O)=NC(CC1CCCCC1)C(=O)C(=O)[N-]CC)c1nnc2ccccn12 (tautomer)
CCCC[C@H](C(O)=N[C@H](CC1CCCCC1)C(=O)C(=O)[N-]CC)c1nnc2ccccn12 (chirality)
CCCC[C@H](/C(O)=N/[C@H](CC1CCCCC1)C(=O)C(=O)[N-]CC)c1nnc2ccccn12 (cis-trans isomerization)
CCCC[C@H](/C(O)=N/[C@H](CC1CCCCC1)C(=O)C(=O)[N-]CC)c1nnc2ccccn12 (3D coordinates assigned)
CCCC[C@H](/C(O)=N/[C@H](CC1CCCCC1)C(=O)C(=O)[N-]CC)c1nnc2ccccn12 (nonaromatic ring conformer: 95.1457366715995 kcal/mol)

>  <smiles>  (46) 
CCCCC(C(=O)NC(CC1CCCCC1)C(=O)C(=O)NCC)c1nnc2ccccn12

>  <score_type>  (46) 
oracle

>  <origin>  (46) 
autodockgpu

>  <m_score__min__energy>  (46) 
-6.2599999999999998

>  <m_primary>  (46) 
energy

>  <meeko>  (46) 
{"free_energy": -5.66, "intermolecular_energy": -9.83, "internal_energy": -3.18, "cluster_size": 1, "cluster_id": 6, "rank_in_cluster": 1}

>  <energy>  (46) 
-5.79

>  <cluster_rmsd>  (46) 
1.61

>  <rmsd>  (46) 
269.89

>  <cluster>  (46) 
3

$$$$
NNKZOUMTYASKLJ-WHFSYHSSNA-M
     RDKit          3D

 66 68  0  0  0  0  0  0  0  0999 V2000
  139.5200   74.6250  222.7200 H   0  0  0  0  0  0  0  0  0  0  0  0
  140.3120   74.1500  222.3090 O   0  0  0  0  0  0  0  0  0  0  0  0
  140.9710   74.5990  221.1590 C   0  0  0  0  0  0  0  0  0  0  0  0
  141.9180   73.9030  220.5960 N   0  0  0  0  0  0  0  0  0  0  0  0
  143.3570   74.0350  220.8360 C   0  0  1  0  0  0  0  0  0  0  0  0
  143.5315   74.1860  221.9115 H   0  0  0  0  0  0  0  0  0  0  0  0
  144.0960   72.7680  220.4640 C   0  0  0  0  0  0  0  0  0  0  0  0
  143.4860   71.6630  220.4550 O   0  0  0  0  0  0  0  0  0  0  0  0
  145.5240   72.7980  220.1050 C   0  0  0  0  0  0  0  0  0  0  0  0
  146.3700   73.2820  220.9060 O   0  0  0  0  0  0  0  0  0  0  0  0
  145.9450   72.2820  218.8390 N   0  0  0  0  0  0  0  0  0  0  0  0
  145.4060   71.0620  218.2450 C   0  0  0  0  0  0  0  0  0  0  0  0
  144.3112   71.0608  218.3520 H   0  0  0  0  0  0  0  0  0  0  0  0
  145.6840   71.0323  217.1811 H   0  0  0  0  0  0  0  0  0  0  0  0
  145.9790   69.8300  218.9380 C   0  0  0  0  0  0  0  0  0  0  0  0
  145.9180   69.9611  220.0285 H   0  0  0  0  0  0  0  0  0  0  0  0
  145.4017   68.9414  218.6427 H   0  0  0  0  0  0  0  0  0  0  0  0
  147.0305   69.6990  218.6427 H   0  0  0  0  0  0  0  0  0  0  0  0
  143.8960   75.2740  220.0860 C   0  0  0  0  0  0  0  0  0  0  0  0
  143.8629   76.1293  220.7770 H   0  0  0  0  0  0  0  0  0  0  0  0
  144.9114   75.0091  219.7563 H   0  0  0  0  0  0  0  0  0  0  0  0
  143.1190   75.6680  218.7990 C   0  0  0  0  0  0  0  0  0  0  0  0
  142.1178   75.2168  218.8623 H   0  0  0  0  0  0  0  0  0  0  0  0
  143.7890   75.1050  217.5120 C   0  0  0  0  0  0  0  0  0  0  0  0
  144.8685   75.0059  217.6985 H   0  0  0  0  0  0  0  0  0  0  0  0
  143.3072   74.1397  217.2973 H   0  0  0  0  0  0  0  0  0  0  0  0
  143.5910   75.9910  216.2660 C   0  0  0  0  0  0  0  0  0  0  0  0
  144.3910   76.7452  216.2318 H   0  0  0  0  0  0  0  0  0  0  0  0
  143.6239   75.3481  215.3741 H   0  0  0  0  0  0  0  0  0  0  0  0
  142.2370   76.7020  216.2990 C   0  0  0  0  0  0  0  0  0  0  0  0
  142.1226   77.2945  215.3793 H   0  0  0  0  0  0  0  0  0  0  0  0
  141.4494   75.9379  216.3752 H   0  0  0  0  0  0  0  0  0  0  0  0
  142.1170   77.6400  217.5160 C   0  0  0  0  0  0  0  0  0  0  0  0
  142.4297   78.6493  217.2102 H   0  0  0  0  0  0  0  0  0  0  0  0
  141.0679   77.6110  217.8455 H   0  0  0  0  0  0  0  0  0  0  0  0
  142.9820   77.2030  218.7150 C   0  0  0  0  0  0  0  0  0  0  0  0
  143.9842   77.6439  218.6095 H   0  0  0  0  0  0  0  0  0  0  0  0
  142.4893   77.5514  219.6347 H   0  0  0  0  0  0  0  0  0  0  0  0
  140.5800   75.9170  220.5360 C   0  0  2  0  0  0  0  0  0  0  0  0
  141.4882   76.3654  220.1070 H   0  0  0  0  0  0  0  0  0  0  0  0
  140.0350   76.8520  221.5910 C   0  0  0  0  0  0  0  0  0  0  0  0
  138.8530   76.6530  222.2180 N   0  0  0  0  0  0  0  0  0  0  0  0
  138.6910   77.6400  223.0950 N   0  0  0  0  0  0  0  0  0  0  0  0
  139.7800   78.4190  222.9870 C   0  0  0  0  0  0  0  0  0  0  0  0
  140.0530   79.5740  223.7150 C   0  0  0  0  0  0  0  0  0  0  0  0
  139.3505   79.9509  224.4730 H   0  0  0  0  0  0  0  0  0  0  0  0
  141.2610   80.2400  223.4440 C   0  0  0  0  0  0  0  0  0  0  0  0
  141.5167   81.1558  223.9971 H   0  0  0  0  0  0  0  0  0  0  0  0
  142.1460   79.7410  222.4680 C   0  0  0  0  0  0  0  0  0  0  0  0
  143.0903   80.2644  222.2576 H   0  0  0  0  0  0  0  0  0  0  0  0
  141.8150   78.5720  221.7660 C   0  0  0  0  0  0  0  0  0  0  0  0
  142.4875   78.1632  220.9974 H   0  0  0  0  0  0  0  0  0  0  0  0
  140.6390   77.9600  222.0640 N   0  0  0  0  0  0  0  0  0  0  0  0
  139.5910   75.7450  219.3590 C   0  0  0  0  0  0  0  0  0  0  0  0
  139.9301   76.3819  218.5287 H   0  0  0  0  0  0  0  0  0  0  0  0
  138.5983   76.0285  219.7387 H   0  0  0  0  0  0  0  0  0  0  0  0
  139.4670   74.3010  218.8390 C   0  0  0  0  0  0  0  0  0  0  0  0
  138.4118   74.1035  218.5993 H   0  0  0  0  0  0  0  0  0  0  0  0
  139.8389   73.6321  219.6291 H   0  0  0  0  0  0  0  0  0  0  0  0
  140.3110   74.0450  217.5830 C   0  0  0  0  0  0  0  0  0  0  0  0
  140.9982   74.8908  217.4334 H   0  0  0  0  0  0  0  0  0  0  0  0
  139.6340   73.9402  216.7223 H   0  0  0  0  0  0  0  0  0  0  0  0
  141.1240   72.7600  217.7200 C   0  0  0  0  0  0  0  0  0  0  0  0
  141.2695   72.5300  218.7858 H   0  0  0  0  0  0  0  0  0  0  0  0
  140.5851   71.9319  217.2365 H   0  0  0  0  0  0  0  0  0  0  0  0
  142.1031   72.8923  217.2365 H   0  0  0  0  0  0  0  0  0  0  0  0
  1  2  1  0
  2  3  1  0
  3  4  2  0
  4  5  1  0
  5  6  1  1
  5  7  1  0
  7  8  2  0
  7  9  1  0
  9 10  2  0
  9 11  1  0
 11 12  1  0
 12 13  1  0
 12 14  1  0
 12 15  1  0
 15 16  1  0
 15 17  1  0
 15 18  1  0
  5 19  1  0
 19 20  1  0
 19 21  1  0
 19 22  1  0
 22 23  1  0
 22 24  1  0
 24 25  1  0
 24 26  1  0
 24 27  1  0
 27 28  1  0
 27 29  1  0
 27 30  1  0
 30 31  1  0
 30 32  1  0
 30 33  1  0
 33 34  1  0
 33 35  1  0
 33 36  1  0
 36 37  1  0
 36 38  1  0
  3 39  1  0
 39 40  1  6
 39 41  1  0
 41 42  2  0
 42 43  1  0
 43 44  2  0
 44 45  1  0
 45 46  1  0
 45 47  2  0
 47 48  1  0
 47 49  1  0
 49 50  1  0
 49 51  2  0
 51 52  1  0
 51 53  1  0
 39 54  1  0
 54 55  1  0
 54 56  1  0
 54 57  1  0
 57 58  1  0
 57 59  1  0
 57 60  1  0
 60 61  1  0
 60 62  1  0
 60 63  1  0
 63 64  1  0
 63 65  1  0
 63 66  1  0
 36 22  1  0
 53 41  1  0
 53 44  1  0
M  CHG  1  11  -1
M  END
>  <UniqueID>  (47) 
3

>  <SMILES>  (47) 
CCCC[C@H](/C(O)=N/[C@H](CC1CCCCC1)C(=O)C(=O)[N-]CC)c1nnc2ccccn12

>  <Energy>  (47) 
95.1457366715995

>  <Genealogy>  (47) 
CCCCC(C(=O)NC(CC1CCCCC1)C(=O)C(=O)[N-]CC)c1nnc2ccccn12 (protonated)
CCCCC(C(O)=NC(CC1CCCCC1)C(=O)C(=O)[N-]CC)c1nnc2ccccn12 (tautomer)
CCCC[C@H](C(O)=N[C@H](CC1CCCCC1)C(=O)C(=O)[N-]CC)c1nnc2ccccn12 (chirality)
CCCC[C@H](/C(O)=N/[C@H](CC1CCCCC1)C(=O)C(=O)[N-]CC)c1nnc2ccccn12 (cis-trans isomerization)
CCCC[C@H](/C(O)=N/[C@H](CC1CCCCC1)C(=O)C(=O)[N-]CC)c1nnc2ccccn12 (3D coordinates assigned)
CCCC[C@H](/C(O)=N/[C@H](CC1CCCCC1)C(=O)C(=O)[N-]CC)c1nnc2ccccn12 (nonaromatic ring conformer: 95.1457366715995 kcal/mol)

>  <smiles>  (47) 
CCCCC(C(=O)NC(CC1CCCCC1)C(=O)C(=O)NCC)c1nnc2ccccn12

>  <score_type>  (47) 
oracle

>  <origin>  (47) 
autodockgpu

>  <m_score__min__energy>  (47) 
-6.2599999999999998

>  <m_primary>  (47) 
energy

>  <meeko>  (47) 
{"free_energy": -5.5, "intermolecular_energy": -9.68, "internal_energy": -3.46, "cluster_size": 3, "cluster_id": 7, "rank_in_cluster": 1}

>  <energy>  (47) 
-5.86

>  <cluster_rmsd>  (47) 
0.0

>  <rmsd>  (47) 
269.48

>  <cluster>  (47) 
4

$$$$
NNKZOUMTYASKLJ-WHFSYHSSNA-M
     RDKit          3D

 66 68  0  0  0  0  0  0  0  0999 V2000
  138.9010   74.1270  223.0330 H   0  0  0  0  0  0  0  0  0  0  0  0
  139.2560   74.9820  222.6270 O   0  0  0  0  0  0  0  0  0  0  0  0
  140.2350   75.0130  221.6270 C   0  0  0  0  0  0  0  0  0  0  0  0
  140.4800   73.9760  220.8770 N   0  0  0  0  0  0  0  0  0  0  0  0
  141.0140   72.6860  221.3200 C   0  0  1  0  0  0  0  0  0  0  0  0
  141.5290   72.8197  222.2828 H   0  0  0  0  0  0  0  0  0  0  0  0
  139.9050   71.6870  221.5720 C   0  0  0  0  0  0  0  0  0  0  0  0
  139.7410   70.7170  220.7840 O   0  0  0  0  0  0  0  0  0  0  0  0
  139.0080   71.8250  222.7320 C   0  0  0  0  0  0  0  0  0  0  0  0
  137.9260   72.4660  222.6260 O   0  0  0  0  0  0  0  0  0  0  0  0
  139.3750   71.2340  223.9820 N   0  0  0  0  0  0  0  0  0  0  0  0
  140.6410   71.4960  224.6590 C   0  0  0  0  0  0  0  0  0  0  0  0
  141.4312   70.8866  224.1962 H   0  0  0  0  0  0  0  0  0  0  0  0
  140.8795   72.5655  224.5630 H   0  0  0  0  0  0  0  0  0  0  0  0
  140.5410   71.1460  226.1400 C   0  0  0  0  0  0  0  0  0  0  0  0
  140.7936   72.0302  226.7436 H   0  0  0  0  0  0  0  0  0  0  0  0
  139.5150   70.8244  226.3723 H   0  0  0  0  0  0  0  0  0  0  0  0
  141.2422   70.3309  226.3723 H   0  0  0  0  0  0  0  0  0  0  0  0
  142.0470   72.1730  220.2920 C   0  0  0  0  0  0  0  0  0  0  0  0
  141.9401   71.0805  220.2207 H   0  0  0  0  0  0  0  0  0  0  0  0
  141.8271   72.7028  219.3534 H   0  0  0  0  0  0  0  0  0  0  0  0
  143.5330   72.4880  220.6210 C   0  0  0  0  0  0  0  0  0  0  0  0
  143.7828   71.9739  221.5609 H   0  0  0  0  0  0  0  0  0  0  0  0
  143.7740   74.0080  220.8580 C   0  0  0  0  0  0  0  0  0  0  0  0
  143.0315   74.5717  220.2741 H   0  0  0  0  0  0  0  0  0  0  0  0
  143.6799   74.1816  221.9401 H   0  0  0  0  0  0  0  0  0  0  0  0
  145.1800   74.4880  220.4480 C   0  0  0  0  0  0  0  0  0  0  0  0
  145.1698   74.7569  219.3814 H   0  0  0  0  0  0  0  0  0  0  0  0
  145.4435   75.3585  221.0667 H   0  0  0  0  0  0  0  0  0  0  0  0
  146.2290   73.3980  220.6770 C   0  0  0  0  0  0  0  0  0  0  0  0
  147.2190   73.7927  220.4050 H   0  0  0  0  0  0  0  0  0  0  0  0
  146.1988   73.1093  221.7380 H   0  0  0  0  0  0  0  0  0  0  0  0
  145.9400   72.1440  219.8280 C   0  0  0  0  0  0  0  0  0  0  0  0
  146.5012   72.2244  218.8854 H   0  0  0  0  0  0  0  0  0  0  0  0
  146.2482   71.2715  220.4229 H   0  0  0  0  0  0  0  0  0  0  0  0
  144.4460   71.9610  219.4930 C   0  0  0  0  0  0  0  0  0  0  0  0
  144.2196   72.5098  218.5669 H   0  0  0  0  0  0  0  0  0  0  0  0
  144.2532   70.8846  219.3740 H   0  0  0  0  0  0  0  0  0  0  0  0
  141.0300   76.2740  221.3930 C   0  0  2  0  0  0  0  0  0  0  0  0
  142.0314   76.1213  221.8219 H   0  0  0  0  0  0  0  0  0  0  0  0
  140.3790   77.4410  222.0990 C   0  0  0  0  0  0  0  0  0  0  0  0
  139.0650   77.4730  222.4210 N   0  0  0  0  0  0  0  0  0  0  0  0
  138.8330   78.6220  223.0480 N   0  0  0  0  0  0  0  0  0  0  0  0
  140.0110   79.2660  223.0980 C   0  0  0  0  0  0  0  0  0  0  0  0
  140.2550   80.5130  223.6690 C   0  0  0  0  0  0  0  0  0  0  0  0
  139.4487   81.0911  224.1440 H   0  0  0  0  0  0  0  0  0  0  0  0
  141.5700   81.0040  223.6150 C   0  0  0  0  0  0  0  0  0  0  0  0
  141.8063   81.9838  224.0556 H   0  0  0  0  0  0  0  0  0  0  0  0
  142.5880   80.2490  223.0000 C   0  0  0  0  0  0  0  0  0  0  0  0
  143.6166   80.6365  222.9579 H   0  0  0  0  0  0  0  0  0  0  0  0
  142.2800   78.9980  222.4410 C   0  0  0  0  0  0  0  0  0  0  0  0
  143.0554   78.3894  221.9529 H   0  0  0  0  0  0  0  0  0  0  0  0
  140.9960   78.5620  222.5210 N   0  0  0  0  0  0  0  0  0  0  0  0
  141.2480   76.5650  219.8890 C   0  0  0  0  0  0  0  0  0  0  0  0
  140.6407   77.4407  219.6163 H   0  0  0  0  0  0  0  0  0  0  0  0
  140.9540   75.6541  219.3469 H   0  0  0  0  0  0  0  0  0  0  0  0
  142.7110   76.8540  219.5030 C   0  0  0  0  0  0  0  0  0  0  0  0
  143.1983   75.9042  219.2375 H   0  0  0  0  0  0  0  0  0  0  0  0
  143.1927   77.3328  220.3683 H   0  0  0  0  0  0  0  0  0  0  0  0
  142.8350   77.8170  218.3150 C   0  0  0  0  0  0  0  0  0  0  0  0
  142.3252   77.3804  217.4436 H   0  0  0  0  0  0  0  0  0  0  0  0
  143.9026   77.9718  218.1001 H   0  0  0  0  0  0  0  0  0  0  0  0
  142.2030   79.1700  218.6370 C   0  0  0  0  0  0  0  0  0  0  0  0
  142.1438   79.2967  219.7281 H   0  0  0  0  0  0  0  0  0  0  0  0
  142.8188   79.9739  218.2074 H   0  0  0  0  0  0  0  0  0  0  0  0
  141.1913   79.2137  218.2074 H   0  0  0  0  0  0  0  0  0  0  0  0
  1  2  1  0
  2  3  1  0
  3  4  2  0
  4  5  1  0
  5  6  1  1
  5  7  1  0
  7  8  2  0
  7  9  1  0
  9 10  2  0
  9 11  1  0
 11 12  1  0
 12 13  1  0
 12 14  1  0
 12 15  1  0
 15 16  1  0
 15 17  1  0
 15 18  1  0
  5 19  1  0
 19 20  1  0
 19 21  1  0
 19 22  1  0
 22 23  1  0
 22 24  1  0
 24 25  1  0
 24 26  1  0
 24 27  1  0
 27 28  1  0
 27 29  1  0
 27 30  1  0
 30 31  1  0
 30 32  1  0
 30 33  1  0
 33 34  1  0
 33 35  1  0
 33 36  1  0
 36 37  1  0
 36 38  1  0
  3 39  1  0
 39 40  1  1
 39 41  1  0
 41 42  2  0
 42 43  1  0
 43 44  2  0
 44 45  1  0
 45 46  1  0
 45 47  2  0
 47 48  1  0
 47 49  1  0
 49 50  1  0
 49 51  2  0
 51 52  1  0
 51 53  1  0
 39 54  1  0
 54 55  1  0
 54 56  1  0
 54 57  1  0
 57 58  1  0
 57 59  1  0
 57 60  1  0
 60 61  1  0
 60 62  1  0
 60 63  1  0
 63 64  1  0
 63 65  1  0
 63 66  1  0
 36 22  1  0
 53 41  1  0
 53 44  1  0
M  CHG  1  11  -1
M  END
>  <UniqueID>  (48) 
3

>  <SMILES>  (48) 
CCCC[C@H](/C(O)=N/[C@H](CC1CCCCC1)C(=O)C(=O)[N-]CC)c1nnc2ccccn12

>  <Energy>  (48) 
95.1457366715995

>  <Genealogy>  (48) 
CCCCC(C(=O)NC(CC1CCCCC1)C(=O)C(=O)[N-]CC)c1nnc2ccccn12 (protonated)
CCCCC(C(O)=NC(CC1CCCCC1)C(=O)C(=O)[N-]CC)c1nnc2ccccn12 (tautomer)
CCCC[C@H](C(O)=N[C@H](CC1CCCCC1)C(=O)C(=O)[N-]CC)c1nnc2ccccn12 (chirality)
CCCC[C@H](/C(O)=N/[C@H](CC1CCCCC1)C(=O)C(=O)[N-]CC)c1nnc2ccccn12 (cis-trans isomerization)
CCCC[C@H](/C(O)=N/[C@H](CC1CCCCC1)C(=O)C(=O)[N-]CC)c1nnc2ccccn12 (3D coordinates assigned)
CCCC[C@H](/C(O)=N/[C@H](CC1CCCCC1)C(=O)C(=O)[N-]CC)c1nnc2ccccn12 (nonaromatic ring conformer: 95.1457366715995 kcal/mol)

>  <smiles>  (48) 
CCCCC(C(=O)NC(CC1CCCCC1)C(=O)C(=O)NCC)c1nnc2ccccn12

>  <score_type>  (48) 
oracle

>  <origin>  (48) 
autodockgpu

>  <m_score__min__energy>  (48) 
-6.2599999999999998

>  <m_primary>  (48) 
energy

>  <meeko>  (48) 
{"free_energy": -5.95, "intermolecular_energy": -10.12, "internal_energy": -2.59, "cluster_size": 3, "cluster_id": 3, "rank_in_cluster": 1}

>  <energy>  (48) 
-5.81

>  <cluster_rmsd>  (48) 
0.0

>  <rmsd>  (48) 
269.91

>  <cluster>  (48) 
5

$$$$
NNKZOUMTYASKLJ-WHFSYHSSNA-M
     RDKit          3D

 66 68  0  0  0  0  0  0  0  0999 V2000
  139.8100   70.4430  220.5840 H   0  0  0  0  0  0  0  0  0  0  0  0
  140.7580   70.7820  220.6820 O   0  0  0  0  0  0  0  0  0  0  0  0
  141.1470   71.7180  221.6480 C   0  0  0  0  0  0  0  0  0  0  0  0
  140.8840   71.5450  222.9130 N   0  0  0  0  0  0  0  0  0  0  0  0
  139.6410   71.0160  223.4810 C   0  0  1  0  0  0  0  0  0  0  0  0
  139.1420   71.8083  224.0583 H   0  0  0  0  0  0  0  0  0  0  0  0
  138.6670   70.6110  222.3960 C   0  0  0  0  0  0  0  0  0  0  0  0
  138.1120   71.4950  221.6870 O   0  0  0  0  0  0  0  0  0  0  0  0
  138.3540   69.1940  222.1460 C   0  0  0  0  0  0  0  0  0  0  0  0
  139.0240   68.5330  221.3070 O   0  0  0  0  0  0  0  0  0  0  0  0
  137.2770   68.5740  222.8560 N   0  0  0  0  0  0  0  0  0  0  0  0
  136.2400   69.3200  223.5620 C   0  0  0  0  0  0  0  0  0  0  0  0
  136.0907   70.2900  223.0653 H   0  0  0  0  0  0  0  0  0  0  0  0
  135.3080   68.7360  223.5438 H   0  0  0  0  0  0  0  0  0  0  0  0
  136.6440   69.5570  225.0140 C   0  0  0  0  0  0  0  0  0  0  0  0
  135.8898   69.1145  225.6813 H   0  0  0  0  0  0  0  0  0  0  0  0
  137.6212   69.0890  225.2038 H   0  0  0  0  0  0  0  0  0  0  0  0
  136.7123   70.6384  225.2038 H   0  0  0  0  0  0  0  0  0  0  0  0
  139.9660   69.8540  224.4460 C   0  0  0  0  0  0  0  0  0  0  0  0
  139.0262   69.3294  224.6733 H   0  0  0  0  0  0  0  0  0  0  0  0
  140.7084   69.2296  223.9273 H   0  0  0  0  0  0  0  0  0  0  0  0
  140.6220   70.2660  225.7930 C   0  0  0  0  0  0  0  0  0  0  0  0
  141.6412   69.8526  225.8084 H   0  0  0  0  0  0  0  0  0  0  0  0
  139.8730   69.6680  227.0190 C   0  0  0  0  0  0  0  0  0  0  0  0
  138.8162   69.5309  226.7462 H   0  0  0  0  0  0  0  0  0  0  0  0
  140.3716   68.7192  227.2663 H   0  0  0  0  0  0  0  0  0  0  0  0
  139.9380   70.5500  228.2810 C   0  0  0  0  0  0  0  0  0  0  0  0
  139.1102   71.2739  228.2550 H   0  0  0  0  0  0  0  0  0  0  0  0
  139.8584   69.8986  229.1638 H   0  0  0  0  0  0  0  0  0  0  0  0
  141.2630   71.3110  228.3610 C   0  0  0  0  0  0  0  0  0  0  0  0
  141.2811   71.8996  229.2901 H   0  0  0  0  0  0  0  0  0  0  0  0
  142.0826   70.5775  228.3446 H   0  0  0  0  0  0  0  0  0  0  0  0
  141.4440   72.2630  227.1620 C   0  0  0  0  0  0  0  0  0  0  0  0
  141.0696   73.2573  227.4470 H   0  0  0  0  0  0  0  0  0  0  0  0
  142.5164   72.2759  226.9176 H   0  0  0  0  0  0  0  0  0  0  0  0
  140.6950   71.8040  225.8950 C   0  0  0  0  0  0  0  0  0  0  0  0
  139.6719   72.2073  225.9213 H   0  0  0  0  0  0  0  0  0  0  0  0
  141.2469   72.1771  225.0197 H   0  0  0  0  0  0  0  0  0  0  0  0
  141.8970   72.9590  221.2320 C   0  0  2  0  0  0  0  0  0  0  0  0
  142.8229   73.0035  221.8242 H   0  0  0  0  0  0  0  0  0  0  0  0
  141.0760   74.1910  221.5330 C   0  0  0  0  0  0  0  0  0  0  0  0
  139.9870   74.1790  222.3370 N   0  0  0  0  0  0  0  0  0  0  0  0
  139.5220   75.4230  222.4040 N   0  0  0  0  0  0  0  0  0  0  0  0
  140.3380   76.1690  221.6410 C   0  0  0  0  0  0  0  0  0  0  0  0
  140.2430   77.5400  221.4130 C   0  0  0  0  0  0  0  0  0  0  0  0
  139.4420   78.1406  221.8688 H   0  0  0  0  0  0  0  0  0  0  0  0
  141.2090   78.1260  220.5790 C   0  0  0  0  0  0  0  0  0  0  0  0
  141.1708   79.2060  220.3739 H   0  0  0  0  0  0  0  0  0  0  0  0
  142.2270   77.3400  220.0030 C   0  0  0  0  0  0  0  0  0  0  0  0
  142.9817   77.8021  219.3496 H   0  0  0  0  0  0  0  0  0  0  0  0
  142.2700   75.9620  220.2700 C   0  0  0  0  0  0  0  0  0  0  0  0
  143.0526   75.3246  219.8326 H   0  0  0  0  0  0  0  0  0  0  0  0
  141.3160   75.4390  221.0850 N   0  0  0  0  0  0  0  0  0  0  0  0
  142.3390   72.9140  219.7500 C   0  0  0  0  0  0  0  0  0  0  0  0
  141.9387   73.8050  219.2441 H   0  0  0  0  0  0  0  0  0  0  0  0
  141.9485   71.9736  219.3338 H   0  0  0  0  0  0  0  0  0  0  0  0
  143.8650   72.8870  219.5430 C   0  0  0  0  0  0  0  0  0  0  0  0
  144.0856   73.2079  218.5142 H   0  0  0  0  0  0  0  0  0  0  0  0
  144.2061   71.8585  219.7325 H   0  0  0  0  0  0  0  0  0  0  0  0
  144.6150   73.8080  220.5150 C   0  0  0  0  0  0  0  0  0  0  0  0
  143.9765   74.0046  221.3889 H   0  0  0  0  0  0  0  0  0  0  0  0
  144.8550   74.7461  219.9932 H   0  0  0  0  0  0  0  0  0  0  0  0
  145.9190   73.1660  220.9840 C   0  0  0  0  0  0  0  0  0  0  0  0
  145.9463   73.1525  222.0836 H   0  0  0  0  0  0  0  0  0  0  0  0
  145.9782   72.1358  220.6031 H   0  0  0  0  0  0  0  0  0  0  0  0
  146.7716   73.7473  220.6031 H   0  0  0  0  0  0  0  0  0  0  0  0
  1  2  1  0
  2  3  1  0
  3  4  2  0
  4  5  1  0
  5  6  1  1
  5  7  1  0
  7  8  2  0
  7  9  1  0
  9 10  2  0
  9 11  1  0
 11 12  1  0
 12 13  1  0
 12 14  1  0
 12 15  1  0
 15 16  1  0
 15 17  1  0
 15 18  1  0
  5 19  1  0
 19 20  1  0
 19 21  1  0
 19 22  1  0
 22 23  1  0
 22 24  1  0
 24 25  1  0
 24 26  1  0
 24 27  1  0
 27 28  1  0
 27 29  1  0
 27 30  1  0
 30 31  1  0
 30 32  1  0
 30 33  1  0
 33 34  1  0
 33 35  1  0
 33 36  1  0
 36 37  1  0
 36 38  1  0
  3 39  1  0
 39 40  1  1
 39 41  1  0
 41 42  2  0
 42 43  1  0
 43 44  2  0
 44 45  1  0
 45 46  1  0
 45 47  2  0
 47 48  1  0
 47 49  1  0
 49 50  1  0
 49 51  2  0
 51 52  1  0
 51 53  1  0
 39 54  1  0
 54 55  1  0
 54 56  1  0
 54 57  1  0
 57 58  1  0
 57 59  1  0
 57 60  1  0
 60 61  1  0
 60 62  1  0
 60 63  1  0
 63 64  1  0
 63 65  1  0
 63 66  1  0
 36 22  1  0
 53 41  1  0
 53 44  1  0
M  CHG  1  11  -1
M  END
>  <UniqueID>  (49) 
3

>  <SMILES>  (49) 
CCCC[C@H](/C(O)=N/[C@H](CC1CCCCC1)C(=O)C(=O)[N-]CC)c1nnc2ccccn12

>  <Energy>  (49) 
95.1457366715995

>  <Genealogy>  (49) 
CCCCC(C(=O)NC(CC1CCCCC1)C(=O)C(=O)[N-]CC)c1nnc2ccccn12 (protonated)
CCCCC(C(O)=NC(CC1CCCCC1)C(=O)C(=O)[N-]CC)c1nnc2ccccn12 (tautomer)
CCCC[C@H](C(O)=N[C@H](CC1CCCCC1)C(=O)C(=O)[N-]CC)c1nnc2ccccn12 (chirality)
CCCC[C@H](/C(O)=N/[C@H](CC1CCCCC1)C(=O)C(=O)[N-]CC)c1nnc2ccccn12 (cis-trans isomerization)
CCCC[C@H](/C(O)=N/[C@H](CC1CCCCC1)C(=O)C(=O)[N-]CC)c1nnc2ccccn12 (3D coordinates assigned)
CCCC[C@H](/C(O)=N/[C@H](CC1CCCCC1)C(=O)C(=O)[N-]CC)c1nnc2ccccn12 (nonaromatic ring conformer: 95.1457366715995 kcal/mol)

>  <smiles>  (49) 
CCCCC(C(=O)NC(CC1CCCCC1)C(=O)C(=O)NCC)c1nnc2ccccn12

>  <score_type>  (49) 
oracle

>  <origin>  (49) 
autodockgpu

>  <m_score__min__energy>  (49) 
-6.2599999999999998

>  <m_primary>  (49) 
energy

>  <meeko>  (49) 
{"free_energy": -5.86, "intermolecular_energy": -10.03, "internal_energy": -2.88, "cluster_size": 1, "cluster_id": 4, "rank_in_cluster": 1}

>  <energy>  (49) 
-5.42

>  <cluster_rmsd>  (49) 
1.28

>  <rmsd>  (49) 
269.88

>  <cluster>  (49) 
5

$$$$
NNKZOUMTYASKLJ-WHFSYHSSNA-M
     RDKit          3D

 66 68  0  0  0  0  0  0  0  0999 V2000
  138.0360   74.6230  221.3170 H   0  0  0  0  0  0  0  0  0  0  0  0
  138.8950   74.1940  220.9990 O   0  0  0  0  0  0  0  0  0  0  0  0
  140.0820   74.1990  221.7420 C   0  0  0  0  0  0  0  0  0  0  0  0
  140.5160   73.1280  222.3450 N   0  0  0  0  0  0  0  0  0  0  0  0
  139.7450   72.2560  223.2350 C   0  0  1  0  0  0  0  0  0  0  0  0
  139.2162   72.8722  223.9770 H   0  0  0  0  0  0  0  0  0  0  0  0
  138.6740   71.5030  222.4770 C   0  0  0  0  0  0  0  0  0  0  0  0
  138.9920   70.5330  221.7350 O   0  0  0  0  0  0  0  0  0  0  0  0
  137.2550   71.8800  222.5910 C   0  0  0  0  0  0  0  0  0  0  0  0
  136.8590   72.9990  222.1650 O   0  0  0  0  0  0  0  0  0  0  0  0
  136.3300   70.9700  223.1950 N   0  0  0  0  0  0  0  0  0  0  0  0
  136.6490   69.5800  223.5030 C   0  0  0  0  0  0  0  0  0  0  0  0
  135.7400   68.9691  223.4002 H   0  0  0  0  0  0  0  0  0  0  0  0
  137.4233   69.2306  222.8042 H   0  0  0  0  0  0  0  0  0  0  0  0
  137.1790   69.4540  224.9270 C   0  0  0  0  0  0  0  0  0  0  0  0
  136.3641   69.6477  225.6400 H   0  0  0  0  0  0  0  0  0  0  0  0
  137.5699   68.4379  225.0842 H   0  0  0  0  0  0  0  0  0  0  0  0
  137.9854   70.1855  225.0842 H   0  0  0  0  0  0  0  0  0  0  0  0
  140.7060   71.3130  223.9940 C   0  0  0  0  0  0  0  0  0  0  0  0
  140.8149   70.3923  223.4021 H   0  0  0  0  0  0  0  0  0  0  0  0
  141.6439   71.8742  224.1182 H   0  0  0  0  0  0  0  0  0  0  0  0
  140.2570   70.9110  225.4260 C   0  0  0  0  0  0  0  0  0  0  0  0
  139.1593   70.9726  225.4613 H   0  0  0  0  0  0  0  0  0  0  0  0
  140.8000   71.8880  226.5090 C   0  0  0  0  0  0  0  0  0  0  0  0
  141.7455   72.3170  226.1455 H   0  0  0  0  0  0  0  0  0  0  0  0
  140.0236   72.6507  226.6687 H   0  0  0  0  0  0  0  0  0  0  0  0
  141.0620   71.2240  227.8750 C   0  0  0  0  0  0  0  0  0  0  0  0
  142.0810   70.8097  227.8824 H   0  0  0  0  0  0  0  0  0  0  0  0
  140.9460   71.9864  228.6594 H   0  0  0  0  0  0  0  0  0  0  0  0
  140.0640   70.0970  228.1460 C   0  0  0  0  0  0  0  0  0  0  0  0
  140.2653   69.6741  229.1413 H   0  0  0  0  0  0  0  0  0  0  0  0
  139.0489   70.5178  228.0948 H   0  0  0  0  0  0  0  0  0  0  0  0
  140.1730   68.9750  227.0950 C   0  0  0  0  0  0  0  0  0  0  0  0
  140.8596   68.2052  227.4772 H   0  0  0  0  0  0  0  0  0  0  0  0
  139.1578   68.5840  226.9319 H   0  0  0  0  0  0  0  0  0  0  0  0
  140.6970   69.4620  225.7290 C   0  0  0  0  0  0  0  0  0  0  0  0
  141.7961   69.4178  225.7336 H   0  0  0  0  0  0  0  0  0  0  0  0
  140.2768   68.8085  224.9503 H   0  0  0  0  0  0  0  0  0  0  0  0
  140.8950   75.4650  221.8500 C   0  0  2  0  0  0  0  0  0  0  0  0
  141.6432   75.3139  222.6421 H   0  0  0  0  0  0  0  0  0  0  0  0
  140.0070   76.6240  222.2420 C   0  0  0  0  0  0  0  0  0  0  0  0
  138.6560   76.5750  222.1870 N   0  0  0  0  0  0  0  0  0  0  0  0
  138.1920   77.7440  222.6190 N   0  0  0  0  0  0  0  0  0  0  0  0
  139.2710   78.4810  222.9330 C   0  0  0  0  0  0  0  0  0  0  0  0
  139.2740   79.7800  223.4340 C   0  0  0  0  0  0  0  0  0  0  0  0
  138.3355   80.3243  223.6154 H   0  0  0  0  0  0  0  0  0  0  0  0
  140.5220   80.3690  223.6990 C   0  0  0  0  0  0  0  0  0  0  0  0
  140.5696   81.3937  224.0962 H   0  0  0  0  0  0  0  0  0  0  0  0
  141.7130   79.6550  223.4590 C   0  0  0  0  0  0  0  0  0  0  0  0
  142.6886   80.1185  223.6674 H   0  0  0  0  0  0  0  0  0  0  0  0
  141.6450   78.3480  222.9520 C   0  0  0  0  0  0  0  0  0  0  0  0
  142.5593   77.7696  222.7531 H   0  0  0  0  0  0  0  0  0  0  0  0
  140.4160   77.8180  222.7140 N   0  0  0  0  0  0  0  0  0  0  0  0
  141.6930   75.7680  220.5600 C   0  0  0  0  0  0  0  0  0  0  0  0
  141.8195   74.8269  220.0046 H   0  0  0  0  0  0  0  0  0  0  0  0
  142.6488   76.2097  220.8785 H   0  0  0  0  0  0  0  0  0  0  0  0
  141.0250   76.7930  219.6250 C   0  0  0  0  0  0  0  0  0  0  0  0
  140.0011   76.9787  219.9815 H   0  0  0  0  0  0  0  0  0  0  0  0
  141.0333   76.3697  218.6098 H   0  0  0  0  0  0  0  0  0  0  0  0
  141.7770   78.1310  219.5740 C   0  0  0  0  0  0  0  0  0  0  0  0
  142.5167   78.1588  220.3877 H   0  0  0  0  0  0  0  0  0  0  0  0
  141.0478   78.9467  219.6871 H   0  0  0  0  0  0  0  0  0  0  0  0
  142.4970   78.3050  218.2390 C   0  0  0  0  0  0  0  0  0  0  0  0
  143.5514   78.5598  218.4215 H   0  0  0  0  0  0  0  0  0  0  0  0
  142.4402   77.3673  217.6668 H   0  0  0  0  0  0  0  0  0  0  0  0
  142.0182   79.1133  217.6668 H   0  0  0  0  0  0  0  0  0  0  0  0
  1  2  1  0
  2  3  1  0
  3  4  2  0
  4  5  1  0
  5  6  1  1
  5  7  1  0
  7  8  2  0
  7  9  1  0
  9 10  2  0
  9 11  1  0
 11 12  1  0
 12 13  1  0
 12 14  1  0
 12 15  1  0
 15 16  1  0
 15 17  1  0
 15 18  1  0
  5 19  1  0
 19 20  1  0
 19 21  1  0
 19 22  1  0
 22 23  1  0
 22 24  1  0
 24 25  1  0
 24 26  1  0
 24 27  1  0
 27 28  1  0
 27 29  1  0
 27 30  1  0
 30 31  1  0
 30 32  1  0
 30 33  1  0
 33 34  1  0
 33 35  1  0
 33 36  1  0
 36 37  1  0
 36 38  1  0
  3 39  1  0
 39 40  1  1
 39 41  1  0
 41 42  2  0
 42 43  1  0
 43 44  2  0
 44 45  1  0
 45 46  1  0
 45 47  2  0
 47 48  1  0
 47 49  1  0
 49 50  1  0
 49 51  2  0
 51 52  1  0
 51 53  1  0
 39 54  1  0
 54 55  1  0
 54 56  1  0
 54 57  1  0
 57 58  1  0
 57 59  1  0
 57 60  1  0
 60 61  1  0
 60 62  1  0
 60 63  1  0
 63 64  1  0
 63 65  1  0
 63 66  1  0
 36 22  1  0
 53 41  1  0
 53 44  1  0
M  CHG  1  11  -1
M  END
>  <UniqueID>  (50) 
3

>  <SMILES>  (50) 
CCCC[C@H](/C(O)=N/[C@H](CC1CCCCC1)C(=O)C(=O)[N-]CC)c1nnc2ccccn12

>  <Energy>  (50) 
95.1457366715995

>  <Genealogy>  (50) 
CCCCC(C(=O)NC(CC1CCCCC1)C(=O)C(=O)[N-]CC)c1nnc2ccccn12 (protonated)
CCCCC(C(O)=NC(CC1CCCCC1)C(=O)C(=O)[N-]CC)c1nnc2ccccn12 (tautomer)
CCCC[C@H](C(O)=N[C@H](CC1CCCCC1)C(=O)C(=O)[N-]CC)c1nnc2ccccn12 (chirality)
CCCC[C@H](/C(O)=N/[C@H](CC1CCCCC1)C(=O)C(=O)[N-]CC)c1nnc2ccccn12 (cis-trans isomerization)
CCCC[C@H](/C(O)=N/[C@H](CC1CCCCC1)C(=O)C(=O)[N-]CC)c1nnc2ccccn12 (3D coordinates assigned)
CCCC[C@H](/C(O)=N/[C@H](CC1CCCCC1)C(=O)C(=O)[N-]CC)c1nnc2ccccn12 (nonaromatic ring conformer: 95.1457366715995 kcal/mol)

>  <smiles>  (50) 
CCCCC(C(=O)NC(CC1CCCCC1)C(=O)C(=O)NCC)c1nnc2ccccn12

>  <score_type>  (50) 
oracle

>  <origin>  (50) 
autodockgpu

>  <m_score__min__energy>  (50) 
-6.2599999999999998

>  <m_primary>  (50) 
energy

>  <meeko>  (50) 
{"free_energy": -5.79, "intermolecular_energy": -9.97, "internal_energy": -2.98, "cluster_size": 3, "cluster_id": 3, "rank_in_cluster": 3}

>  <energy>  (50) 
-5.66

>  <cluster_rmsd>  (50) 
0.0

>  <rmsd>  (50) 
269.79

>  <cluster>  (50) 
6

$$$$
NNKZOUMTYASKLJ-WHFSYHSSNA-M
     RDKit          3D

 66 68  0  0  0  0  0  0  0  0999 V2000
  139.9430   75.1290  222.9690 H   0  0  0  0  0  0  0  0  0  0  0  0
  140.2430   74.5390  222.2040 O   0  0  0  0  0  0  0  0  0  0  0  0
  140.9250   75.0200  221.0800 C   0  0  0  0  0  0  0  0  0  0  0  0
  141.6660   74.2410  220.3440 N   0  0  0  0  0  0  0  0  0  0  0  0
  143.0640   74.4660  219.9690 C   0  0  1  0  0  0  0  0  0  0  0  0
  143.4211   75.3911  220.4451 H   0  0  0  0  0  0  0  0  0  0  0  0
  143.9580   73.3580  220.4820 C   0  0  0  0  0  0  0  0  0  0  0  0
  143.4600   72.3960  221.1280 O   0  0  0  0  0  0  0  0  0  0  0  0
  145.4110   73.3790  220.2390 C   0  0  0  0  0  0  0  0  0  0  0  0
  146.1620   74.1090  220.9400 O   0  0  0  0  0  0  0  0  0  0  0  0
  145.9620   72.5690  219.1950 N   0  0  0  0  0  0  0  0  0  0  0  0
  145.2030   72.1250  218.0310 C   0  0  0  0  0  0  0  0  0  0  0  0
  145.4792   71.0871  217.7935 H   0  0  0  0  0  0  0  0  0  0  0  0
  144.1294   72.1893  218.2616 H   0  0  0  0  0  0  0  0  0  0  0  0
  145.5020   73.0120  216.8260 C   0  0  0  0  0  0  0  0  0  0  0  0
  145.8355   74.0013  217.1727 H   0  0  0  0  0  0  0  0  0  0  0  0
  146.2941   72.5502  216.2183 H   0  0  0  0  0  0  0  0  0  0  0  0
  144.5919   73.1240  216.2183 H   0  0  0  0  0  0  0  0  0  0  0  0
  143.1670   74.6460  218.4380 C   0  0  0  0  0  0  0  0  0  0  0  0
  144.2315   74.6075  218.1633 H   0  0  0  0  0  0  0  0  0  0  0  0
  142.5655   73.8369  217.9981 H   0  0  0  0  0  0  0  0  0  0  0  0
  142.5760   75.9690  217.8780 C   0  0  0  0  0  0  0  0  0  0  0  0
  141.4967   75.9685  218.0904 H   0  0  0  0  0  0  0  0  0  0  0  0
  142.7340   76.0770  216.3330 C   0  0  0  0  0  0  0  0  0  0  0  0
  143.6244   75.5040  216.0350 H   0  0  0  0  0  0  0  0  0  0  0  0
  141.8088   75.6809  215.8890 H   0  0  0  0  0  0  0  0  0  0  0  0
  142.8930   77.5220  215.8210 C   0  0  0  0  0  0  0  0  0  0  0  0
  143.9578   77.7966  215.8486 H   0  0  0  0  0  0  0  0  0  0  0  0
  142.5046   77.5703  214.7930 H   0  0  0  0  0  0  0  0  0  0  0  0
  142.1020   78.5080  216.6820 C   0  0  0  0  0  0  0  0  0  0  0  0
  142.2154   79.5187  216.2628 H   0  0  0  0  0  0  0  0  0  0  0  0
  141.0467   78.1975  216.6791 H   0  0  0  0  0  0  0  0  0  0  0  0
  142.5990   78.5130  218.1410 C   0  0  0  0  0  0  0  0  0  0  0  0
  143.3503   79.3090  218.2503 H   0  0  0  0  0  0  0  0  0  0  0  0
  141.7204   78.6782  218.7819 H   0  0  0  0  0  0  0  0  0  0  0  0
  143.2350   77.1780  218.5780 C   0  0  0  0  0  0  0  0  0  0  0  0
  144.3055   77.1948  218.3257 H   0  0  0  0  0  0  0  0  0  0  0  0
  143.0845   77.0677  219.6621 H   0  0  0  0  0  0  0  0  0  0  0  0
  140.8030   76.4730  220.6920 C   0  0  2  0  0  0  0  0  0  0  0  0
  141.4796   76.6488  219.8427 H   0  0  0  0  0  0  0  0  0  0  0  0
  141.2320   77.3580  221.8400 C   0  0  0  0  0  0  0  0  0  0  0  0
  141.4260   76.8990  223.0980 N   0  0  0  0  0  0  0  0  0  0  0  0
  141.8180   77.9260  223.8460 N   0  0  0  0  0  0  0  0  0  0  0  0
  141.8590   78.9910  223.0260 C   0  0  0  0  0  0  0  0  0  0  0  0
  142.2220   80.2910  223.3690 C   0  0  0  0  0  0  0  0  0  0  0  0
  142.5153   80.5499  224.3971 H   0  0  0  0  0  0  0  0  0  0  0  0
  142.1990   81.2590  222.3510 C   0  0  0  0  0  0  0  0  0  0  0  0
  142.4793   82.2981  222.5784 H   0  0  0  0  0  0  0  0  0  0  0  0
  141.8190   80.9070  221.0400 C   0  0  0  0  0  0  0  0  0  0  0  0
  141.8008   81.6671  220.2451 H   0  0  0  0  0  0  0  0  0  0  0  0
  141.4640   79.5790  220.7570 C   0  0  0  0  0  0  0  0  0  0  0  0
  141.1621   79.2777  219.7431 H   0  0  0  0  0  0  0  0  0  0  0  0
  141.5040   78.6760  221.7720 N   0  0  0  0  0  0  0  0  0  0  0  0
  139.3850   76.8350  220.1920 C   0  0  0  0  0  0  0  0  0  0  0  0
  139.0043   75.9918  219.5970 H   0  0  0  0  0  0  0  0  0  0  0  0
  139.4853   77.7616  219.6077 H   0  0  0  0  0  0  0  0  0  0  0  0
  138.3710   77.1300  221.3130 C   0  0  0  0  0  0  0  0  0  0  0  0
  138.7429   76.6869  222.2486 H   0  0  0  0  0  0  0  0  0  0  0  0
  137.4071   76.6952  221.0100 H   0  0  0  0  0  0  0  0  0  0  0  0
  138.1500   78.6320  221.5360 C   0  0  0  0  0  0  0  0  0  0  0  0
  137.1122   78.8854  221.2737 H   0  0  0  0  0  0  0  0  0  0  0  0
  138.8556   79.1874  220.9007 H   0  0  0  0  0  0  0  0  0  0  0  0
  138.4040   79.0140  222.9930 C   0  0  0  0  0  0  0  0  0  0  0  0
  137.9172   78.2820  223.6542 H   0  0  0  0  0  0  0  0  0  0  0  0
  139.4867   79.0202  223.1870 H   0  0  0  0  0  0  0  0  0  0  0  0
  137.9910   80.0149  223.1870 H   0  0  0  0  0  0  0  0  0  0  0  0
  1  2  1  0
  2  3  1  0
  3  4  2  0
  4  5  1  0
  5  6  1  1
  5  7  1  0
  7  8  2  0
  7  9  1  0
  9 10  2  0
  9 11  1  0
 11 12  1  0
 12 13  1  0
 12 14  1  0
 12 15  1  0
 15 16  1  0
 15 17  1  0
 15 18  1  0
  5 19  1  0
 19 20  1  0
 19 21  1  0
 19 22  1  0
 22 23  1  0
 22 24  1  0
 24 25  1  0
 24 26  1  0
 24 27  1  0
 27 28  1  0
 27 29  1  0
 27 30  1  0
 30 31  1  0
 30 32  1  0
 30 33  1  0
 33 34  1  0
 33 35  1  0
 33 36  1  0
 36 37  1  0
 36 38  1  0
  3 39  1  0
 39 40  1  6
 39 41  1  0
 41 42  2  0
 42 43  1  0
 43 44  2  0
 44 45  1  0
 45 46  1  0
 45 47  2  0
 47 48  1  0
 47 49  1  0
 49 50  1  0
 49 51  2  0
 51 52  1  0
 51 53  1  0
 39 54  1  0
 54 55  1  0
 54 56  1  0
 54 57  1  0
 57 58  1  0
 57 59  1  0
 57 60  1  0
 60 61  1  0
 60 62  1  0
 60 63  1  0
 63 64  1  0
 63 65  1  0
 63 66  1  0
 36 22  1  0
 53 41  1  0
 53 44  1  0
M  CHG  1  11  -1
M  END
>  <UniqueID>  (51) 
3

>  <SMILES>  (51) 
CCCC[C@H](/C(O)=N/[C@H](CC1CCCCC1)C(=O)C(=O)[N-]CC)c1nnc2ccccn12

>  <Energy>  (51) 
95.1457366715995

>  <Genealogy>  (51) 
CCCCC(C(=O)NC(CC1CCCCC1)C(=O)C(=O)[N-]CC)c1nnc2ccccn12 (protonated)
CCCCC(C(O)=NC(CC1CCCCC1)C(=O)C(=O)[N-]CC)c1nnc2ccccn12 (tautomer)
CCCC[C@H](C(O)=N[C@H](CC1CCCCC1)C(=O)C(=O)[N-]CC)c1nnc2ccccn12 (chirality)
CCCC[C@H](/C(O)=N/[C@H](CC1CCCCC1)C(=O)C(=O)[N-]CC)c1nnc2ccccn12 (cis-trans isomerization)
CCCC[C@H](/C(O)=N/[C@H](CC1CCCCC1)C(=O)C(=O)[N-]CC)c1nnc2ccccn12 (3D coordinates assigned)
CCCC[C@H](/C(O)=N/[C@H](CC1CCCCC1)C(=O)C(=O)[N-]CC)c1nnc2ccccn12 (nonaromatic ring conformer: 95.1457366715995 kcal/mol)

>  <smiles>  (51) 
CCCCC(C(=O)NC(CC1CCCCC1)C(=O)C(=O)NCC)c1nnc2ccccn12

>  <score_type>  (51) 
oracle

>  <origin>  (51) 
autodockgpu

>  <m_score__min__energy>  (51) 
-6.2599999999999998

>  <m_primary>  (51) 
energy

>  <meeko>  (51) 
{"free_energy": -5.38, "intermolecular_energy": -9.56, "internal_energy": -3.13, "cluster_size": 3, "cluster_id": 7, "rank_in_cluster": 2}

>  <energy>  (51) 
-5.5

>  <cluster_rmsd>  (51) 
0.0

>  <rmsd>  (51) 
269.18

>  <cluster>  (51) 
7

$$$$
NNKZOUMTYASKLJ-WHFSYHSSNA-M
     RDKit          3D

 66 68  0  0  0  0  0  0  0  0999 V2000
  144.6180   71.4320  221.0320 H   0  0  0  0  0  0  0  0  0  0  0  0
  143.6080   71.4210  221.0860 O   0  0  0  0  0  0  0  0  0  0  0  0
  142.8110   72.5510  220.8660 C   0  0  0  0  0  0  0  0  0  0  0  0
  143.2580   73.7550  221.0810 N   0  0  0  0  0  0  0  0  0  0  0  0
  144.2530   74.4720  220.2780 C   0  0  1  0  0  0  0  0  0  0  0  0
  144.4541   75.4496  220.7404 H   0  0  0  0  0  0  0  0  0  0  0  0
  145.5760   73.7390  220.2560 C   0  0  0  0  0  0  0  0  0  0  0  0
  146.3980   73.8960  221.2000 O   0  0  0  0  0  0  0  0  0  0  0  0
  145.9270   72.8350  219.1470 C   0  0  0  0  0  0  0  0  0  0  0  0
  146.1600   73.3000  217.9990 O   0  0  0  0  0  0  0  0  0  0  0  0
  145.9930   71.4240  219.3810 N   0  0  0  0  0  0  0  0  0  0  0  0
  145.5910   70.4230  218.3980 C   0  0  0  0  0  0  0  0  0  0  0  0
  144.5692   70.6428  218.0552 H   0  0  0  0  0  0  0  0  0  0  0  0
  146.2917   70.4562  217.5507 H   0  0  0  0  0  0  0  0  0  0  0  0
  145.6250   69.0270  219.0100 C   0  0  0  0  0  0  0  0  0  0  0  0
  145.6230   69.1074  220.1070 H   0  0  0  0  0  0  0  0  0  0  0  0
  144.7404   68.4613  218.6822 H   0  0  0  0  0  0  0  0  0  0  0  0
  146.5361   68.5050  218.6822 H   0  0  0  0  0  0  0  0  0  0  0  0
  143.6920   74.7200  218.8600 C   0  0  0  0  0  0  0  0  0  0  0  0
  144.5385   74.9499  218.1963 H   0  0  0  0  0  0  0  0  0  0  0  0
  143.1492   73.8034  218.5859 H   0  0  0  0  0  0  0  0  0  0  0  0
  142.6620   75.8770  218.7400 C   0  0  0  0  0  0  0  0  0  0  0  0
  141.6804   75.4287  218.5268 H   0  0  0  0  0  0  0  0  0  0  0  0
  142.9890   76.8360  217.5580 C   0  0  0  0  0  0  0  0  0  0  0  0
  144.0760   76.8206  217.3899 H   0  0  0  0  0  0  0  0  0  0  0  0
  142.4221   76.4748  216.6873 H   0  0  0  0  0  0  0  0  0  0  0  0
  142.5560   78.2950  217.8000 C   0  0  0  0  0  0  0  0  0  0  0  0
  143.3645   78.8264  218.3234 H   0  0  0  0  0  0  0  0  0  0  0  0
  142.3499   78.7618  216.8255 H   0  0  0  0  0  0  0  0  0  0  0  0
  141.2840   78.3650  218.6470 C   0  0  0  0  0  0  0  0  0  0  0  0
  140.9923   79.4189  218.7663 H   0  0  0  0  0  0  0  0  0  0  0  0
  140.4966   77.7948  218.1324 H   0  0  0  0  0  0  0  0  0  0  0  0
  141.4950   77.7440  220.0410 C   0  0  0  0  0  0  0  0  0  0  0  0
  141.7801   78.5445  220.7395 H   0  0  0  0  0  0  0  0  0  0  0  0
  140.5496   77.2594  220.3263 H   0  0  0  0  0  0  0  0  0  0  0  0
  142.5890   76.6580  220.0700 C   0  0  0  0  0  0  0  0  0  0  0  0
  143.5615   77.1380  220.2542 H   0  0  0  0  0  0  0  0  0  0  0  0
  142.3401   75.9453  220.8701 H   0  0  0  0  0  0  0  0  0  0  0  0
  141.3990   72.3860  220.3610 C   0  0  2  0  0  0  0  0  0  0  0  0
  141.4261   72.4685  219.2644 H   0  0  0  0  0  0  0  0  0  0  0  0
  140.5180   73.4870  220.9040 C   0  0  0  0  0  0  0  0  0  0  0  0
  140.3620   73.7280  222.2260 N   0  0  0  0  0  0  0  0  0  0  0  0
  139.5470   74.7710  222.3530 N   0  0  0  0  0  0  0  0  0  0  0  0
  139.2250   75.1480  221.1030 C   0  0  0  0  0  0  0  0  0  0  0  0
  138.3950   76.2050  220.7410 C   0  0  0  0  0  0  0  0  0  0  0  0
  137.9150   76.8403  221.4999 H   0  0  0  0  0  0  0  0  0  0  0  0
  138.1940   76.4290  219.3690 C   0  0  0  0  0  0  0  0  0  0  0  0
  137.5461   77.2545  219.0393 H   0  0  0  0  0  0  0  0  0  0  0  0
  138.8170   75.6030  218.4120 C   0  0  0  0  0  0  0  0  0  0  0  0
  138.6567   75.7802  217.3383 H   0  0  0  0  0  0  0  0  0  0  0  0
  139.6440   74.5520  218.8400 C   0  0  0  0  0  0  0  0  0  0  0  0
  140.1412   73.8914  218.1145 H   0  0  0  0  0  0  0  0  0  0  0  0
  139.8120   74.3750  220.1770 N   0  0  0  0  0  0  0  0  0  0  0  0
  140.8190   70.9860  220.6700 C   0  0  0  0  0  0  0  0  0  0  0  0
  139.7727   71.1091  220.9864 H   0  0  0  0  0  0  0  0  0  0  0  0
  141.4548   70.5483  221.4537 H   0  0  0  0  0  0  0  0  0  0  0  0
  140.8510   70.0080  219.4800 C   0  0  0  0  0  0  0  0  0  0  0  0
  140.0404   70.2735  218.7853 H   0  0  0  0  0  0  0  0  0  0  0  0
  140.7272   68.9922  219.8835 H   0  0  0  0  0  0  0  0  0  0  0  0
  142.1820   70.0420  218.7160 C   0  0  0  0  0  0  0  0  0  0  0  0
  142.4274   69.0249  218.3764 H   0  0  0  0  0  0  0  0  0  0  0  0
  142.9627   70.4231  219.3908 H   0  0  0  0  0  0  0  0  0  0  0  0
  142.0960   70.9650  217.5040 C   0  0  0  0  0  0  0  0  0  0  0  0
  141.9989   72.0070  217.8428 H   0  0  0  0  0  0  0  0  0  0  0  0
  143.0078   70.8600  216.8977 H   0  0  0  0  0  0  0  0  0  0  0  0
  141.2193   70.6934  216.8977 H   0  0  0  0  0  0  0  0  0  0  0  0
  1  2  1  0
  2  3  1  0
  3  4  2  0
  4  5  1  0
  5  6  1  1
  5  7  1  0
  7  8  2  0
  7  9  1  0
  9 10  2  0
  9 11  1  0
 11 12  1  0
 12 13  1  0
 12 14  1  0
 12 15  1  0
 15 16  1  0
 15 17  1  0
 15 18  1  0
  5 19  1  0
 19 20  1  0
 19 21  1  0
 19 22  1  0
 22 23  1  0
 22 24  1  0
 24 25  1  0
 24 26  1  0
 24 27  1  0
 27 28  1  0
 27 29  1  0
 27 30  1  0
 30 31  1  0
 30 32  1  0
 30 33  1  0
 33 34  1  0
 33 35  1  0
 33 36  1  0
 36 37  1  0
 36 38  1  0
  3 39  1  0
 39 40  1  6
 39 41  1  0
 41 42  2  0
 42 43  1  0
 43 44  2  0
 44 45  1  0
 45 46  1  0
 45 47  2  0
 47 48  1  0
 47 49  1  0
 49 50  1  0
 49 51  2  0
 51 52  1  0
 51 53  1  0
 39 54  1  0
 54 55  1  0
 54 56  1  0
 54 57  1  0
 57 58  1  0
 57 59  1  0
 57 60  1  0
 60 61  1  0
 60 62  1  0
 60 63  1  0
 63 64  1  0
 63 65  1  0
 63 66  1  0
 36 22  1  0
 53 41  1  0
 53 44  1  0
M  CHG  1  11  -1
M  END
>  <UniqueID>  (52) 
3

>  <SMILES>  (52) 
CCCC[C@H](/C(O)=N/[C@H](CC1CCCCC1)C(=O)C(=O)[N-]CC)c1nnc2ccccn12

>  <Energy>  (52) 
95.1457366715995

>  <Genealogy>  (52) 
CCCCC(C(=O)NC(CC1CCCCC1)C(=O)C(=O)[N-]CC)c1nnc2ccccn12 (protonated)
CCCCC(C(O)=NC(CC1CCCCC1)C(=O)C(=O)[N-]CC)c1nnc2ccccn12 (tautomer)
CCCC[C@H](C(O)=N[C@H](CC1CCCCC1)C(=O)C(=O)[N-]CC)c1nnc2ccccn12 (chirality)
CCCC[C@H](/C(O)=N/[C@H](CC1CCCCC1)C(=O)C(=O)[N-]CC)c1nnc2ccccn12 (cis-trans isomerization)
CCCC[C@H](/C(O)=N/[C@H](CC1CCCCC1)C(=O)C(=O)[N-]CC)c1nnc2ccccn12 (3D coordinates assigned)
CCCC[C@H](/C(O)=N/[C@H](CC1CCCCC1)C(=O)C(=O)[N-]CC)c1nnc2ccccn12 (nonaromatic ring conformer: 95.1457366715995 kcal/mol)

>  <smiles>  (52) 
CCCCC(C(=O)NC(CC1CCCCC1)C(=O)C(=O)NCC)c1nnc2ccccn12

>  <score_type>  (52) 
oracle

>  <origin>  (52) 
autodockgpu

>  <m_score__min__energy>  (52) 
-6.2599999999999998

>  <m_primary>  (52) 
energy

>  <meeko>  (52) 
{"free_energy": -4.33, "intermolecular_energy": -8.51, "internal_energy": -4.11, "cluster_size": 1, "cluster_id": 12, "rank_in_cluster": 1}

>  <energy>  (52) 
-5.38

>  <cluster_rmsd>  (52) 
1.69

>  <rmsd>  (52) 
269.65

>  <cluster>  (52) 
7

$$$$
NNKZOUMTYASKLJ-WHFSYHSSNA-M
     RDKit          3D

 66 68  0  0  0  0  0  0  0  0999 V2000
  137.6980   72.8770  223.0270 H   0  0  0  0  0  0  0  0  0  0  0  0
  137.0630   72.2420  223.4920 O   0  0  0  0  0  0  0  0  0  0  0  0
  137.2420   70.8540  223.5210 C   0  0  0  0  0  0  0  0  0  0  0  0
  138.4130   70.3190  223.7170 N   0  0  0  0  0  0  0  0  0  0  0  0
  139.7050   70.8730  223.3050 C   0  0  1  0  0  0  0  0  0  0  0  0
  140.2533   70.1159  222.7252 H   0  0  0  0  0  0  0  0  0  0  0  0
  139.5270   72.0610  222.3840 C   0  0  0  0  0  0  0  0  0  0  0  0
  139.9300   73.2010  222.7430 O   0  0  0  0  0  0  0  0  0  0  0  0
  138.8890   71.9110  221.0650 C   0  0  0  0  0  0  0  0  0  0  0  0
  137.7330   72.3730  220.8620 O   0  0  0  0  0  0  0  0  0  0  0  0
  139.5870   71.2310  220.0170 N   0  0  0  0  0  0  0  0  0  0  0  0
  140.8210   70.4800  220.2240 C   0  0  0  0  0  0  0  0  0  0  0  0
  140.7550   69.9315  221.1752 H   0  0  0  0  0  0  0  0  0  0  0  0
  140.9529   69.7777  219.3877 H   0  0  0  0  0  0  0  0  0  0  0  0
  142.0210   71.4200  220.2700 C   0  0  0  0  0  0  0  0  0  0  0  0
  142.2849   71.6267  221.3177 H   0  0  0  0  0  0  0  0  0  0  0  0
  142.8757   70.9486  219.7628 H   0  0  0  0  0  0  0  0  0  0  0  0
  141.7680   72.3627  219.7628 H   0  0  0  0  0  0  0  0  0  0  0  0
  140.5450   71.2170  224.5550 C   0  0  0  0  0  0  0  0  0  0  0  0
  141.5910   70.9494  224.3445 H   0  0  0  0  0  0  0  0  0  0  0  0
  140.3899   72.2907  224.7368 H   0  0  0  0  0  0  0  0  0  0  0  0
  140.1210   70.4970  225.8650 C   0  0  0  0  0  0  0  0  0  0  0  0
  139.0325   70.6140  225.9720 H   0  0  0  0  0  0  0  0  0  0  0  0
  140.7710   71.1370  227.1260 C   0  0  0  0  0  0  0  0  0  0  0  0
  141.7309   71.5858  226.8308 H   0  0  0  0  0  0  0  0  0  0  0  0
  140.0574   71.8807  227.5104 H   0  0  0  0  0  0  0  0  0  0  0  0
  141.0340   70.1370  228.2690 C   0  0  0  0  0  0  0  0  0  0  0  0
  142.0202   69.6733  228.1195 H   0  0  0  0  0  0  0  0  0  0  0  0
  141.0013   70.6839  229.2228 H   0  0  0  0  0  0  0  0  0  0  0  0
  139.9680   69.0400  228.3050 C   0  0  0  0  0  0  0  0  0  0  0  0
  140.1739   68.3701  229.1528 H   0  0  0  0  0  0  0  0  0  0  0  0
  138.9842   69.5201  228.4130 H   0  0  0  0  0  0  0  0  0  0  0  0
  139.9600   68.2130  227.0050 C   0  0  0  0  0  0  0  0  0  0  0  0
  140.6043   67.3330  227.1480 H   0  0  0  0  0  0  0  0  0  0  0  0
  138.9147   67.9357  226.8037 H   0  0  0  0  0  0  0  0  0  0  0  0
  140.4670   68.9950  225.7770 C   0  0  0  0  0  0  0  0  0  0  0  0
  141.5596   68.8854  225.7124 H   0  0  0  0  0  0  0  0  0  0  0  0
  139.9726   68.5840  224.8844 H   0  0  0  0  0  0  0  0  0  0  0  0
  136.0560   69.9400  223.3290 C   0  0  2  0  0  0  0  0  0  0  0  0
  135.4340   70.3644  222.5271 H   0  0  0  0  0  0  0  0  0  0  0  0
  135.2330   69.8800  224.5940 C   0  0  0  0  0  0  0  0  0  0  0  0
  134.9850   68.7310  225.2650 N   0  0  0  0  0  0  0  0  0  0  0  0
  134.2570   69.0380  226.3350 N   0  0  0  0  0  0  0  0  0  0  0  0
  134.0790   70.3690  226.2970 C   0  0  0  0  0  0  0  0  0  0  0  0
  133.3790   71.1420  227.2190 C   0  0  0  0  0  0  0  0  0  0  0  0
  132.8927   70.6858  228.0939 H   0  0  0  0  0  0  0  0  0  0  0  0
  133.3170   72.5270  226.9900 C   0  0  0  0  0  0  0  0  0  0  0  0
  132.7752   73.1743  227.6953 H   0  0  0  0  0  0  0  0  0  0  0  0
  133.9450   73.0910  225.8620 C   0  0  0  0  0  0  0  0  0  0  0  0
  133.8940   74.1753  225.6841 H   0  0  0  0  0  0  0  0  0  0  0  0
  134.6360   72.2600  224.9670 C   0  0  0  0  0  0  0  0  0  0  0  0
  135.1338   72.6749  224.0781 H   0  0  0  0  0  0  0  0  0  0  0  0
  134.6720   70.9270  225.2310 N   0  0  0  0  0  0  0  0  0  0  0  0
  136.4700   68.5280  222.8500 C   0  0  0  0  0  0  0  0  0  0  0  0
  135.5661   67.9033  222.7980 H   0  0  0  0  0  0  0  0  0  0  0  0
  137.2079   68.1537  223.5749 H   0  0  0  0  0  0  0  0  0  0  0  0
  137.1550   68.5010  221.4700 C   0  0  0  0  0  0  0  0  0  0  0  0
  137.2355   69.5328  221.0974 H   0  0  0  0  0  0  0  0  0  0  0  0
  136.5399   67.8745  220.8073 H   0  0  0  0  0  0  0  0  0  0  0  0
  138.5600   67.8850  221.5150 C   0  0  0  0  0  0  0  0  0  0  0  0
  139.3046   68.6754  221.3393 H   0  0  0  0  0  0  0  0  0  0  0  0
  138.6272   67.1107  220.7366 H   0  0  0  0  0  0  0  0  0  0  0  0
  138.8320   67.2360  222.8690 C   0  0  0  0  0  0  0  0  0  0  0  0
  138.5417   67.9288  223.6726 H   0  0  0  0  0  0  0  0  0  0  0  0
  138.2469   66.3085  222.9552 H   0  0  0  0  0  0  0  0  0  0  0  0
  139.9035   67.0029  222.9552 H   0  0  0  0  0  0  0  0  0  0  0  0
  1  2  1  0
  2  3  1  0
  3  4  2  0
  4  5  1  0
  5  6  1  6
  5  7  1  0
  7  8  2  0
  7  9  1  0
  9 10  2  0
  9 11  1  0
 11 12  1  0
 12 13  1  0
 12 14  1  0
 12 15  1  0
 15 16  1  0
 15 17  1  0
 15 18  1  0
  5 19  1  0
 19 20  1  0
 19 21  1  0
 19 22  1  0
 22 23  1  0
 22 24  1  0
 24 25  1  0
 24 26  1  0
 24 27  1  0
 27 28  1  0
 27 29  1  0
 27 30  1  0
 30 31  1  0
 30 32  1  0
 30 33  1  0
 33 34  1  0
 33 35  1  0
 33 36  1  0
 36 37  1  0
 36 38  1  0
  3 39  1  0
 39 40  1  6
 39 41  1  0
 41 42  2  0
 42 43  1  0
 43 44  2  0
 44 45  1  0
 45 46  1  0
 45 47  2  0
 47 48  1  0
 47 49  1  0
 49 50  1  0
 49 51  2  0
 51 52  1  0
 51 53  1  0
 39 54  1  0
 54 55  1  0
 54 56  1  0
 54 57  1  0
 57 58  1  0
 57 59  1  0
 57 60  1  0
 60 61  1  0
 60 62  1  0
 60 63  1  0
 63 64  1  0
 63 65  1  0
 63 66  1  0
 36 22  1  0
 53 41  1  0
 53 44  1  0
M  CHG  1  11  -1
M  END
>  <UniqueID>  (53) 
3

>  <SMILES>  (53) 
CCCC[C@H](/C(O)=N/[C@H](CC1CCCCC1)C(=O)C(=O)[N-]CC)c1nnc2ccccn12

>  <Energy>  (53) 
95.1457366715995

>  <Genealogy>  (53) 
CCCCC(C(=O)NC(CC1CCCCC1)C(=O)C(=O)[N-]CC)c1nnc2ccccn12 (protonated)
CCCCC(C(O)=NC(CC1CCCCC1)C(=O)C(=O)[N-]CC)c1nnc2ccccn12 (tautomer)
CCCC[C@H](C(O)=N[C@H](CC1CCCCC1)C(=O)C(=O)[N-]CC)c1nnc2ccccn12 (chirality)
CCCC[C@H](/C(O)=N/[C@H](CC1CCCCC1)C(=O)C(=O)[N-]CC)c1nnc2ccccn12 (cis-trans isomerization)
CCCC[C@H](/C(O)=N/[C@H](CC1CCCCC1)C(=O)C(=O)[N-]CC)c1nnc2ccccn12 (3D coordinates assigned)
CCCC[C@H](/C(O)=N/[C@H](CC1CCCCC1)C(=O)C(=O)[N-]CC)c1nnc2ccccn12 (nonaromatic ring conformer: 95.1457366715995 kcal/mol)

>  <smiles>  (53) 
CCCCC(C(=O)NC(CC1CCCCC1)C(=O)C(=O)NCC)c1nnc2ccccn12

>  <score_type>  (53) 
oracle

>  <origin>  (53) 
autodockgpu

>  <m_score__min__energy>  (53) 
-6.2599999999999998

>  <m_primary>  (53) 
energy

>  <meeko>  (53) 
{"free_energy": -5.65, "intermolecular_energy": -9.83, "internal_energy": -3.28, "cluster_size": 2, "cluster_id": 2, "rank_in_cluster": 2}

>  <energy>  (53) 
-5.28

>  <cluster_rmsd>  (53) 
0.44

>  <rmsd>  (53) 
269.09

>  <cluster>  (53) 
7

$$$$
NNKZOUMTYASKLJ-WHFSYHSSNA-M
     RDKit          3D

 66 68  0  0  0  0  0  0  0  0999 V2000
  138.9760   74.0410  222.9270 H   0  0  0  0  0  0  0  0  0  0  0  0
  139.7350   73.6760  222.3690 O   0  0  0  0  0  0  0  0  0  0  0  0
  140.5550   74.4750  221.5630 C   0  0  0  0  0  0  0  0  0  0  0  0
  141.1460   75.5380  222.0290 N   0  0  0  0  0  0  0  0  0  0  0  0
  140.6050   76.9000  222.0470 C   0  0  1  0  0  0  0  0  0  0  0  0
  140.7583   77.3628  221.0609 H   0  0  0  0  0  0  0  0  0  0  0  0
  139.1100   76.8960  222.2810 C   0  0  0  0  0  0  0  0  0  0  0  0
  138.5950   76.0380  223.0500 O   0  0  0  0  0  0  0  0  0  0  0  0
  138.2350   77.8840  221.6260 C   0  0  0  0  0  0  0  0  0  0  0  0
  138.1990   77.9650  220.3680 O   0  0  0  0  0  0  0  0  0  0  0  0
  137.4330   78.7570  222.4280 N   0  0  0  0  0  0  0  0  0  0  0  0
  137.9790   79.6400  223.4540 C   0  0  0  0  0  0  0  0  0  0  0  0
  137.2794   79.6855  224.3016 H   0  0  0  0  0  0  0  0  0  0  0  0
  138.9504   79.2429  223.7837 H   0  0  0  0  0  0  0  0  0  0  0  0
  138.1850   81.0450  222.8980 C   0  0  0  0  0  0  0  0  0  0  0  0
  138.2894   81.7569  223.7300 H   0  0  0  0  0  0  0  0  0  0  0  0
  139.0957   81.0655  222.2815 H   0  0  0  0  0  0  0  0  0  0  0  0
  137.3185   81.3260  222.2815 H   0  0  0  0  0  0  0  0  0  0  0  0
  141.3640   77.7450  223.0940 C   0  0  0  0  0  0  0  0  0  0  0  0
  140.9880   77.4680  224.0899 H   0  0  0  0  0  0  0  0  0  0  0  0
  142.4309   77.5229  222.9447 H   0  0  0  0  0  0  0  0  0  0  0  0
  141.2240   79.2850  222.9410 C   0  0  0  0  0  0  0  0  0  0  0  0
  140.2529   79.5759  223.3680 H   0  0  0  0  0  0  0  0  0  0  0  0
  141.2140   79.7300  221.4490 C   0  0  0  0  0  0  0  0  0  0  0  0
  141.7930   78.9990  220.8656 H   0  0  0  0  0  0  0  0  0  0  0  0
  140.1603   79.7792  221.1372 H   0  0  0  0  0  0  0  0  0  0  0  0
  141.8170   81.1280  221.2110 C   0  0  0  0  0  0  0  0  0  0  0  0
  142.9038   81.0304  221.0717 H   0  0  0  0  0  0  0  0  0  0  0  0
  141.3469   81.5607  220.3156 H   0  0  0  0  0  0  0  0  0  0  0  0
  141.5480   82.0590  222.3950 C   0  0  0  0  0  0  0  0  0  0  0  0
  141.9631   83.0524  222.1694 H   0  0  0  0  0  0  0  0  0  0  0  0
  140.4603   82.1134  222.5495 H   0  0  0  0  0  0  0  0  0  0  0  0
  142.1930   81.5300  223.6910 C   0  0  0  0  0  0  0  0  0  0  0  0
  143.1879   81.9871  223.7969 H   0  0  0  0  0  0  0  0  0  0  0  0
  141.5215   81.7977  224.5201 H   0  0  0  0  0  0  0  0  0  0  0  0
  142.3550   79.9960  223.7140 C   0  0  0  0  0  0  0  0  0  0  0  0
  143.3192   79.7335  223.2543 H   0  0  0  0  0  0  0  0  0  0  0  0
  142.3114   79.6648  224.7620 H   0  0  0  0  0  0  0  0  0  0  0  0
  140.7760   74.1050  220.1160 C   0  0  2  0  0  0  0  0  0  0  0  0
  139.8650   73.6046  219.7558 H   0  0  0  0  0  0  0  0  0  0  0  0
  141.9320   73.1400  219.9950 C   0  0  0  0  0  0  0  0  0  0  0  0
  141.7870   71.8560  219.5930 N   0  0  0  0  0  0  0  0  0  0  0  0
  142.9950   71.3000  219.5750 N   0  0  0  0  0  0  0  0  0  0  0  0
  143.8530   72.2590  219.9630 C   0  0  0  0  0  0  0  0  0  0  0  0
  145.2340   72.1380  220.0900 C   0  0  0  0  0  0  0  0  0  0  0  0
  145.7468   71.1902  219.8693 H   0  0  0  0  0  0  0  0  0  0  0  0
  145.9480   73.2730  220.5110 C   0  0  0  0  0  0  0  0  0  0  0  0
  147.0409   73.2205  220.6242 H   0  0  0  0  0  0  0  0  0  0  0  0
  145.2720   74.4780  220.7890 C   0  0  0  0  0  0  0  0  0  0  0  0
  145.8333   75.3650  221.1180 H   0  0  0  0  0  0  0  0  0  0  0  0
  143.8770   74.5380  220.6430 C   0  0  0  0  0  0  0  0  0  0  0  0
  143.3246   75.4650  220.8563 H   0  0  0  0  0  0  0  0  0  0  0  0
  143.2290   73.4160  220.2300 N   0  0  0  0  0  0  0  0  0  0  0  0
  140.9680   75.3450  219.2120 C   0  0  0  0  0  0  0  0  0  0  0  0
  141.2634   76.1924  219.8481 H   0  0  0  0  0  0  0  0  0  0  0  0
  140.0103   75.5102  218.6968 H   0  0  0  0  0  0  0  0  0  0  0  0
  142.0350   75.1710  218.1140 C   0  0  0  0  0  0  0  0  0  0  0  0
  141.5262   75.0132  217.1516 H   0  0  0  0  0  0  0  0  0  0  0  0
  142.6588   74.3088  218.3926 H   0  0  0  0  0  0  0  0  0  0  0  0
  142.9610   76.3880  217.9850 C   0  0  0  0  0  0  0  0  0  0  0  0
  142.8963   76.7819  216.9600 H   0  0  0  0  0  0  0  0  0  0  0  0
  143.9894   76.0708  218.2125 H   0  0  0  0  0  0  0  0  0  0  0  0
  142.5630   77.4870  218.9680 C   0  0  0  0  0  0  0  0  0  0  0  0
  142.6947   77.1232  219.9977 H   0  0  0  0  0  0  0  0  0  0  0  0
  143.1983   78.3705  218.8071 H   0  0  0  0  0  0  0  0  0  0  0  0
  141.5093   77.7588  218.8071 H   0  0  0  0  0  0  0  0  0  0  0  0
  1  2  1  0
  2  3  1  0
  3  4  2  0
  4  5  1  0
  5  6  1  6
  5  7  1  0
  7  8  2  0
  7  9  1  0
  9 10  2  0
  9 11  1  0
 11 12  1  0
 12 13  1  0
 12 14  1  0
 12 15  1  0
 15 16  1  0
 15 17  1  0
 15 18  1  0
  5 19  1  0
 19 20  1  0
 19 21  1  0
 19 22  1  0
 22 23  1  0
 22 24  1  0
 24 25  1  0
 24 26  1  0
 24 27  1  0
 27 28  1  0
 27 29  1  0
 27 30  1  0
 30 31  1  0
 30 32  1  0
 30 33  1  0
 33 34  1  0
 33 35  1  0
 33 36  1  0
 36 37  1  0
 36 38  1  0
  3 39  1  0
 39 40  1  6
 39 41  1  0
 41 42  2  0
 42 43  1  0
 43 44  2  0
 44 45  1  0
 45 46  1  0
 45 47  2  0
 47 48  1  0
 47 49  1  0
 49 50  1  0
 49 51  2  0
 51 52  1  0
 51 53  1  0
 39 54  1  0
 54 55  1  0
 54 56  1  0
 54 57  1  0
 57 58  1  0
 57 59  1  0
 57 60  1  0
 60 61  1  0
 60 62  1  0
 60 63  1  0
 63 64  1  0
 63 65  1  0
 63 66  1  0
 36 22  1  0
 53 41  1  0
 53 44  1  0
M  CHG  1  11  -1
M  END
>  <UniqueID>  (54) 
3

>  <SMILES>  (54) 
CCCC[C@H](/C(O)=N/[C@H](CC1CCCCC1)C(=O)C(=O)[N-]CC)c1nnc2ccccn12

>  <Energy>  (54) 
95.1457366715995

>  <Genealogy>  (54) 
CCCCC(C(=O)NC(CC1CCCCC1)C(=O)C(=O)[N-]CC)c1nnc2ccccn12 (protonated)
CCCCC(C(O)=NC(CC1CCCCC1)C(=O)C(=O)[N-]CC)c1nnc2ccccn12 (tautomer)
CCCC[C@H](C(O)=N[C@H](CC1CCCCC1)C(=O)C(=O)[N-]CC)c1nnc2ccccn12 (chirality)
CCCC[C@H](/C(O)=N/[C@H](CC1CCCCC1)C(=O)C(=O)[N-]CC)c1nnc2ccccn12 (cis-trans isomerization)
CCCC[C@H](/C(O)=N/[C@H](CC1CCCCC1)C(=O)C(=O)[N-]CC)c1nnc2ccccn12 (3D coordinates assigned)
CCCC[C@H](/C(O)=N/[C@H](CC1CCCCC1)C(=O)C(=O)[N-]CC)c1nnc2ccccn12 (nonaromatic ring conformer: 95.1457366715995 kcal/mol)

>  <smiles>  (54) 
CCCCC(C(=O)NC(CC1CCCCC1)C(=O)C(=O)NCC)c1nnc2ccccn12

>  <score_type>  (54) 
oracle

>  <origin>  (54) 
autodockgpu

>  <m_score__min__energy>  (54) 
-6.2599999999999998

>  <m_primary>  (54) 
energy

>  <meeko>  (54) 
{"free_energy": -5.42, "intermolecular_energy": -9.6, "internal_energy": -3.29, "cluster_size": 2, "cluster_id": 5, "rank_in_cluster": 2}

>  <energy>  (54) 
-5.22

>  <cluster_rmsd>  (54) 
0.0

>  <rmsd>  (54) 
269.13

>  <cluster>  (54) 
8

$$$$
NNKZOUMTYASKLJ-WHFSYHSSNA-M
     RDKit          3D

 66 68  0  0  0  0  0  0  0  0999 V2000
  137.8230   73.5870  222.8050 H   0  0  0  0  0  0  0  0  0  0  0  0
  137.2250   72.7830  222.6710 O   0  0  0  0  0  0  0  0  0  0  0  0
  137.5370   71.5020  223.1410 C   0  0  0  0  0  0  0  0  0  0  0  0
  138.5110   71.3000  223.9810 N   0  0  0  0  0  0  0  0  0  0  0  0
  139.9420   71.2760  223.6680 C   0  0  1  0  0  0  0  0  0  0  0  0
  140.2105   70.2818  223.2814 H   0  0  0  0  0  0  0  0  0  0  0  0
  140.2820   72.2610  222.5700 C   0  0  0  0  0  0  0  0  0  0  0  0
  139.9110   73.4620  222.6650 O   0  0  0  0  0  0  0  0  0  0  0  0
  141.0470   71.8410  221.3830 C   0  0  0  0  0  0  0  0  0  0  0  0
  140.5230   71.0770  220.5270 O   0  0  0  0  0  0  0  0  0  0  0  0
  142.3910   72.3010  221.2110 N   0  0  0  0  0  0  0  0  0  0  0  0
  143.4090   71.5630  220.4690 C   0  0  0  0  0  0  0  0  0  0  0  0
  143.6937   70.6667  221.0396 H   0  0  0  0  0  0  0  0  0  0  0  0
  142.9965   71.2758  219.4905 H   0  0  0  0  0  0  0  0  0  0  0  0
  144.6440   72.4290  220.2470 C   0  0  0  0  0  0  0  0  0  0  0  0
  145.0647   72.7240  221.2196 H   0  0  0  0  0  0  0  0  0  0  0  0
  145.3948   71.8586  219.6806 H   0  0  0  0  0  0  0  0  0  0  0  0
  144.3635   73.3293  219.6806 H   0  0  0  0  0  0  0  0  0  0  0  0
  140.7590   71.5240  224.9560 C   0  0  0  0  0  0  0  0  0  0  0  0
  141.7734   71.8297  224.6602 H   0  0  0  0  0  0  0  0  0  0  0  0
  140.2100   72.2937  225.5182 H   0  0  0  0  0  0  0  0  0  0  0  0
  140.8860   70.3060  225.9130 C   0  0  0  0  0  0  0  0  0  0  0  0
  141.9470   70.0180  225.9488 H   0  0  0  0  0  0  0  0  0  0  0  0
  140.0990   69.0670  225.3960 C   0  0  0  0  0  0  0  0  0  0  0  0
  139.2504   69.4225  224.7930 H   0  0  0  0  0  0  0  0  0  0  0  0
  140.8066   68.4599  224.8123 H   0  0  0  0  0  0  0  0  0  0  0  0
  139.5520   68.1620  226.5180 C   0  0  0  0  0  0  0  0  0  0  0  0
  138.5647   68.5341  226.8292 H   0  0  0  0  0  0  0  0  0  0  0  0
  139.4765   67.1354  226.1302 H   0  0  0  0  0  0  0  0  0  0  0  0
  140.4860   68.1530  227.7300 C   0  0  0  0  0  0  0  0  0  0  0  0
  140.0772   67.4714  228.4904 H   0  0  0  0  0  0  0  0  0  0  0  0
  141.4794   67.8192  227.3959 H   0  0  0  0  0  0  0  0  0  0  0  0
  140.6320   69.5580  228.3450 C   0  0  0  0  0  0  0  0  0  0  0  0
  139.8910   69.6640  229.1510 H   0  0  0  0  0  0  0  0  0  0  0  0
  141.6647   69.6441  228.7139 H   0  0  0  0  0  0  0  0  0  0  0  0
  140.4160   70.6990  227.3300 C   0  0  0  0  0  0  0  0  0  0  0  0
  139.3444   70.9446  227.2938 H   0  0  0  0  0  0  0  0  0  0  0  0
  141.0104   71.5643  227.6584 H   0  0  0  0  0  0  0  0  0  0  0  0
  136.7270   70.3150  222.6780 C   0  0  2  0  0  0  0  0  0  0  0  0
  136.1234   70.6383  221.8171 H   0  0  0  0  0  0  0  0  0  0  0  0
  135.7930   69.8600  223.7750 C   0  0  0  0  0  0  0  0  0  0  0  0
  135.5440   68.5580  224.0440 N   0  0  0  0  0  0  0  0  0  0  0  0
  134.7040   68.5120  225.0740 N   0  0  0  0  0  0  0  0  0  0  0  0
  134.4620   69.7900  225.4150 C   0  0  0  0  0  0  0  0  0  0  0  0
  133.6400   70.2330  226.4470 C   0  0  0  0  0  0  0  0  0  0  0  0
  133.0988   69.5239  227.0907 H   0  0  0  0  0  0  0  0  0  0  0  0
  133.5280   71.6220  226.6350 C   0  0  0  0  0  0  0  0  0  0  0  0
  132.8896   72.0153  227.4399 H   0  0  0  0  0  0  0  0  0  0  0  0
  134.2290   72.5130  225.7980 C   0  0  0  0  0  0  0  0  0  0  0  0
  134.1395   73.5993  225.9463 H   0  0  0  0  0  0  0  0  0  0  0  0
  135.0420   72.0040  224.7740 C   0  0  0  0  0  0  0  0  0  0  0  0
  135.5985   72.6774  224.1056 H   0  0  0  0  0  0  0  0  0  0  0  0
  135.1220   70.6550  224.6320 N   0  0  0  0  0  0  0  0  0  0  0  0
  137.6160   69.1560  222.1680 C   0  0  0  0  0  0  0  0  0  0  0  0
  138.1245   68.7058  223.0333 H   0  0  0  0  0  0  0  0  0  0  0  0
  138.3152   69.5931  221.4399 H   0  0  0  0  0  0  0  0  0  0  0  0
  136.8480   68.0440  221.4280 C   0  0  0  0  0  0  0  0  0  0  0  0
  136.8849   68.2501  220.3481 H   0  0  0  0  0  0  0  0  0  0  0  0
  135.8159   68.0446  221.8084 H   0  0  0  0  0  0  0  0  0  0  0  0
  137.4330   66.6480  221.6810 C   0  0  0  0  0  0  0  0  0  0  0  0
  137.5861   66.1423  220.7162 H   0  0  0  0  0  0  0  0  0  0  0  0
  136.7275   66.0815  222.3066 H   0  0  0  0  0  0  0  0  0  0  0  0
  138.7690   66.7370  222.4150 C   0  0  0  0  0  0  0  0  0  0  0  0
  138.5924   66.7252  223.5007 H   0  0  0  0  0  0  0  0  0  0  0  0
  139.3982   65.8788  222.1365 H   0  0  0  0  0  0  0  0  0  0  0  0
  139.2788   67.6711  222.1365 H   0  0  0  0  0  0  0  0  0  0  0  0
  1  2  1  0
  2  3  1  0
  3  4  2  0
  4  5  1  0
  5  6  1  6
  5  7  1  0
  7  8  2  0
  7  9  1  0
  9 10  2  0
  9 11  1  0
 11 12  1  0
 12 13  1  0
 12 14  1  0
 12 15  1  0
 15 16  1  0
 15 17  1  0
 15 18  1  0
  5 19  1  0
 19 20  1  0
 19 21  1  0
 19 22  1  0
 22 23  1  0
 22 24  1  0
 24 25  1  0
 24 26  1  0
 24 27  1  0
 27 28  1  0
 27 29  1  0
 27 30  1  0
 30 31  1  0
 30 32  1  0
 30 33  1  0
 33 34  1  0
 33 35  1  0
 33 36  1  0
 36 37  1  0
 36 38  1  0
  3 39  1  0
 39 40  1  6
 39 41  1  0
 41 42  2  0
 42 43  1  0
 43 44  2  0
 44 45  1  0
 45 46  1  0
 45 47  2  0
 47 48  1  0
 47 49  1  0
 49 50  1  0
 49 51  2  0
 51 52  1  0
 51 53  1  0
 39 54  1  0
 54 55  1  0
 54 56  1  0
 54 57  1  0
 57 58  1  0
 57 59  1  0
 57 60  1  0
 60 61  1  0
 60 62  1  0
 60 63  1  0
 63 64  1  0
 63 65  1  0
 63 66  1  0
 36 22  1  0
 53 41  1  0
 53 44  1  0
M  CHG  1  11  -1
M  END
>  <UniqueID>  (55) 
3

>  <SMILES>  (55) 
CCCC[C@H](/C(O)=N/[C@H](CC1CCCCC1)C(=O)C(=O)[N-]CC)c1nnc2ccccn12

>  <Energy>  (55) 
95.1457366715995

>  <Genealogy>  (55) 
CCCCC(C(=O)NC(CC1CCCCC1)C(=O)C(=O)[N-]CC)c1nnc2ccccn12 (protonated)
CCCCC(C(O)=NC(CC1CCCCC1)C(=O)C(=O)[N-]CC)c1nnc2ccccn12 (tautomer)
CCCC[C@H](C(O)=N[C@H](CC1CCCCC1)C(=O)C(=O)[N-]CC)c1nnc2ccccn12 (chirality)
CCCC[C@H](/C(O)=N/[C@H](CC1CCCCC1)C(=O)C(=O)[N-]CC)c1nnc2ccccn12 (cis-trans isomerization)
CCCC[C@H](/C(O)=N/[C@H](CC1CCCCC1)C(=O)C(=O)[N-]CC)c1nnc2ccccn12 (3D coordinates assigned)
CCCC[C@H](/C(O)=N/[C@H](CC1CCCCC1)C(=O)C(=O)[N-]CC)c1nnc2ccccn12 (nonaromatic ring conformer: 95.1457366715995 kcal/mol)

>  <smiles>  (55) 
CCCCC(C(=O)NC(CC1CCCCC1)C(=O)C(=O)NCC)c1nnc2ccccn12

>  <score_type>  (55) 
oracle

>  <origin>  (55) 
autodockgpu

>  <m_score__min__energy>  (55) 
-6.2599999999999998

>  <m_primary>  (55) 
energy

>  <meeko>  (55) 
{"free_energy": -6.14, "intermolecular_energy": -10.32, "internal_energy": -2.72, "cluster_size": 2, "cluster_id": 2, "rank_in_cluster": 1}

>  <energy>  (55) 
-5.14

>  <cluster_rmsd>  (55) 
0.0

>  <rmsd>  (55) 
270.12

>  <cluster>  (55) 
9

$$$$
NNKZOUMTYASKLJ-WHFSYHSSNA-M
     RDKit          3D

 66 68  0  0  0  0  0  0  0  0999 V2000
  139.5830   74.4740  222.7200 H   0  0  0  0  0  0  0  0  0  0  0  0
  140.3540   73.9990  222.2710 O   0  0  0  0  0  0  0  0  0  0  0  0
  140.9480   74.4440  221.0840 C   0  0  0  0  0  0  0  0  0  0  0  0
  141.8930   73.7670  220.4960 N   0  0  0  0  0  0  0  0  0  0  0  0
  143.3310   73.8620  220.7640 C   0  0  1  0  0  0  0  0  0  0  0  0
  143.4929   73.9246  221.8502 H   0  0  0  0  0  0  0  0  0  0  0  0
  144.0610   72.6200  220.3020 C   0  0  0  0  0  0  0  0  0  0  0  0
  143.4380   71.5290  220.1890 O   0  0  0  0  0  0  0  0  0  0  0  0
  145.4970   72.6590  219.9760 C   0  0  0  0  0  0  0  0  0  0  0  0
  146.3340   73.0410  220.8390 O   0  0  0  0  0  0  0  0  0  0  0  0
  145.9340   72.2680  218.6710 N   0  0  0  0  0  0  0  0  0  0  0  0
  145.5680   71.0030  218.0410 C   0  0  0  0  0  0  0  0  0  0  0  0
  144.4810   70.9837  217.8734 H   0  0  0  0  0  0  0  0  0  0  0  0
  146.1020   70.9159  217.0833 H   0  0  0  0  0  0  0  0  0  0  0  0
  145.9590   69.8280  218.9310 C   0  0  0  0  0  0  0  0  0  0  0  0
  145.8619   70.1198  219.9871 H   0  0  0  0  0  0  0  0  0  0  0  0
  145.2964   68.9748  218.7239 H   0  0  0  0  0  0  0  0  0  0  0  0
  147.0008   69.5419  218.7239 H   0  0  0  0  0  0  0  0  0  0  0  0
  143.8930   75.1500  220.1220 C   0  0  0  0  0  0  0  0  0  0  0  0
  143.7472   75.9752  220.8345 H   0  0  0  0  0  0  0  0  0  0  0  0
  144.9490   74.9393  219.8973 H   0  0  0  0  0  0  0  0  0  0  0  0
  143.2440   75.5630  218.7720 C   0  0  0  0  0  0  0  0  0  0  0  0
  142.1966   75.2273  218.7890 H   0  0  0  0  0  0  0  0  0  0  0  0
  143.9230   74.8680  217.5550 C   0  0  0  0  0  0  0  0  0  0  0  0
  144.9714   74.6602  217.8153 H   0  0  0  0  0  0  0  0  0  0  0  0
  143.3496   73.9520  217.3494 H   0  0  0  0  0  0  0  0  0  0  0  0
  143.9010   75.7090  216.2640 C   0  0  0  0  0  0  0  0  0  0  0  0
  144.7812   76.3686  216.2513 H   0  0  0  0  0  0  0  0  0  0  0  0
  143.9149   75.0237  215.4037 H   0  0  0  0  0  0  0  0  0  0  0  0
  142.6360   76.5650  216.1780 C   0  0  0  0  0  0  0  0  0  0  0  0
  142.6453   77.1214  215.2291 H   0  0  0  0  0  0  0  0  0  0  0  0
  141.7640   75.8967  216.2331 H   0  0  0  0  0  0  0  0  0  0  0  0
  142.5490   77.5680  217.3450 C   0  0  0  0  0  0  0  0  0  0  0  0
  142.9901   78.5213  217.0184 H   0  0  0  0  0  0  0  0  0  0  0  0
  141.4853   77.6685  217.6067 H   0  0  0  0  0  0  0  0  0  0  0  0
  143.2860   77.0990  218.6150 C   0  0  0  0  0  0  0  0  0  0  0  0
  144.3359   77.4218  218.5564 H   0  0  0  0  0  0  0  0  0  0  0  0
  142.7819   77.5443  219.4854 H   0  0  0  0  0  0  0  0  0  0  0  0
  140.4880   75.7350  220.4520 C   0  0  2  0  0  0  0  0  0  0  0  0
  141.3481   76.1740  219.9253 H   0  0  0  0  0  0  0  0  0  0  0  0
  140.0330   76.7050  221.5170 C   0  0  0  0  0  0  0  0  0  0  0  0
  138.9050   76.5310  222.2450 N   0  0  0  0  0  0  0  0  0  0  0  0
  138.8180   77.5470  223.1000 N   0  0  0  0  0  0  0  0  0  0  0  0
  139.8960   78.3170  222.8780 C   0  0  0  0  0  0  0  0  0  0  0  0
  140.2300   79.4930  223.5430 C   0  0  0  0  0  0  0  0  0  0  0  0
  139.5922   79.8975  224.3427 H   0  0  0  0  0  0  0  0  0  0  0  0
  141.4130   80.1440  223.1540 C   0  0  0  0  0  0  0  0  0  0  0  0
  141.7149   81.0752  223.6557 H   0  0  0  0  0  0  0  0  0  0  0  0
  142.2150   79.6110  222.1250 C   0  0  0  0  0  0  0  0  0  0  0  0
  143.1395   80.1236  221.8210 H   0  0  0  0  0  0  0  0  0  0  0  0
  141.8250   78.4210  221.4910 C   0  0  0  0  0  0  0  0  0  0  0  0
  142.4321   77.9837  220.6846 H   0  0  0  0  0  0  0  0  0  0  0  0
  140.6750   77.8250  221.9030 N   0  0  0  0  0  0  0  0  0  0  0  0
  139.3970   75.5110  219.3780 C   0  0  0  0  0  0  0  0  0  0  0  0
  138.6876   76.3502  219.4278 H   0  0  0  0  0  0  0  0  0  0  0  0
  138.9296   74.5409  219.6026 H   0  0  0  0  0  0  0  0  0  0  0  0
  139.9330   75.4180  217.9370 C   0  0  0  0  0  0  0  0  0  0  0  0
  140.7654   76.1284  217.8251 H   0  0  0  0  0  0  0  0  0  0  0  0
  139.1005   75.6546  217.2581 H   0  0  0  0  0  0  0  0  0  0  0  0
  140.4360   74.0130  217.5790 C   0  0  0  0  0  0  0  0  0  0  0  0
  141.4925   73.9241  217.8722 H   0  0  0  0  0  0  0  0  0  0  0  0
  140.3222   73.8668  216.4947 H   0  0  0  0  0  0  0  0  0  0  0  0
  139.6260   72.9390  218.3010 C   0  0  0  0  0  0  0  0  0  0  0  0
  139.7268   73.0726  219.3882 H   0  0  0  0  0  0  0  0  0  0  0  0
  138.5667   73.0261  218.0175 H   0  0  0  0  0  0  0  0  0  0  0  0
  140.0009   71.9445  218.0175 H   0  0  0  0  0  0  0  0  0  0  0  0
  1  2  1  0
  2  3  1  0
  3  4  2  0
  4  5  1  0
  5  6  1  1
  5  7  1  0
  7  8  2  0
  7  9  1  0
  9 10  2  0
  9 11  1  0
 11 12  1  0
 12 13  1  0
 12 14  1  0
 12 15  1  0
 15 16  1  0
 15 17  1  0
 15 18  1  0
  5 19  1  0
 19 20  1  0
 19 21  1  0
 19 22  1  0
 22 23  1  0
 22 24  1  0
 24 25  1  0
 24 26  1  0
 24 27  1  0
 27 28  1  0
 27 29  1  0
 27 30  1  0
 30 31  1  0
 30 32  1  0
 30 33  1  0
 33 34  1  0
 33 35  1  0
 33 36  1  0
 36 37  1  0
 36 38  1  0
  3 39  1  0
 39 40  1  6
 39 41  1  0
 41 42  2  0
 42 43  1  0
 43 44  2  0
 44 45  1  0
 45 46  1  0
 45 47  2  0
 47 48  1  0
 47 49  1  0
 49 50  1  0
 49 51  2  0
 51 52  1  0
 51 53  1  0
 39 54  1  0
 54 55  1  0
 54 56  1  0
 54 57  1  0
 57 58  1  0
 57 59  1  0
 57 60  1  0
 60 61  1  0
 60 62  1  0
 60 63  1  0
 63 64  1  0
 63 65  1  0
 63 66  1  0
 36 22  1  0
 53 41  1  0
 53 44  1  0
M  CHG  1  11  -1
M  END
>  <UniqueID>  (56) 
3

>  <SMILES>  (56) 
CCCC[C@H](/C(O)=N/[C@H](CC1CCCCC1)C(=O)C(=O)[N-]CC)c1nnc2ccccn12

>  <Energy>  (56) 
95.1457366715995

>  <Genealogy>  (56) 
CCCCC(C(=O)NC(CC1CCCCC1)C(=O)C(=O)[N-]CC)c1nnc2ccccn12 (protonated)
CCCCC(C(O)=NC(CC1CCCCC1)C(=O)C(=O)[N-]CC)c1nnc2ccccn12 (tautomer)
CCCC[C@H](C(O)=N[C@H](CC1CCCCC1)C(=O)C(=O)[N-]CC)c1nnc2ccccn12 (chirality)
CCCC[C@H](/C(O)=N/[C@H](CC1CCCCC1)C(=O)C(=O)[N-]CC)c1nnc2ccccn12 (cis-trans isomerization)
CCCC[C@H](/C(O)=N/[C@H](CC1CCCCC1)C(=O)C(=O)[N-]CC)c1nnc2ccccn12 (3D coordinates assigned)
CCCC[C@H](/C(O)=N/[C@H](CC1CCCCC1)C(=O)C(=O)[N-]CC)c1nnc2ccccn12 (nonaromatic ring conformer: 95.1457366715995 kcal/mol)

>  <smiles>  (56) 
CCCCC(C(=O)NC(CC1CCCCC1)C(=O)C(=O)NCC)c1nnc2ccccn12

>  <score_type>  (56) 
oracle

>  <origin>  (56) 
autodockgpu

>  <m_score__min__energy>  (56) 
-6.2599999999999998

>  <m_primary>  (56) 
energy

>  <meeko>  (56) 
{"free_energy": -5.28, "intermolecular_energy": -9.45, "internal_energy": -3.46, "cluster_size": 3, "cluster_id": 7, "rank_in_cluster": 3}

>  <energy>  (56) 
-4.9

>  <cluster_rmsd>  (56) 
1.69

>  <rmsd>  (56) 
270.02

>  <cluster>  (56) 
9

$$$$
NNKZOUMTYASKLJ-WHFSYHSSNA-M
     RDKit          3D

 66 68  0  0  0  0  0  0  0  0999 V2000
  135.7440   68.8300  225.6590 H   0  0  0  0  0  0  0  0  0  0  0  0
  136.4860   69.5090  225.5590 O   0  0  0  0  0  0  0  0  0  0  0  0
  136.9630   69.9550  224.3210 C   0  0  0  0  0  0  0  0  0  0  0  0
  136.1790   70.5280  223.4520 N   0  0  0  0  0  0  0  0  0  0  0  0
  134.8910   71.1690  223.7290 C   0  0  1  0  0  0  0  0  0  0  0  0
  134.6028   71.7886  222.8670 H   0  0  0  0  0  0  0  0  0  0  0  0
  133.7900   70.1440  223.8960 C   0  0  0  0  0  0  0  0  0  0  0  0
  132.6260   70.3990  223.4820 O   0  0  0  0  0  0  0  0  0  0  0  0
  134.0520   68.8440  224.5350 C   0  0  0  0  0  0  0  0  0  0  0  0
  134.6800   67.9450  223.9120 O   0  0  0  0  0  0  0  0  0  0  0  0
  133.5820   68.6040  225.8660 N   0  0  0  0  0  0  0  0  0  0  0  0
  133.5640   67.2860  226.4910 C   0  0  0  0  0  0  0  0  0  0  0  0
  134.5551   66.8212  226.3832 H   0  0  0  0  0  0  0  0  0  0  0  0
  133.3117   67.4017  227.5554 H   0  0  0  0  0  0  0  0  0  0  0  0
  132.5180   66.3940  225.8320 C   0  0  0  0  0  0  0  0  0  0  0  0
  131.9253   65.8886  226.6087 H   0  0  0  0  0  0  0  0  0  0  0  0
  131.8542   67.0083  225.2059 H   0  0  0  0  0  0  0  0  0  0  0  0
  133.0198   65.6415  225.2059 H   0  0  0  0  0  0  0  0  0  0  0  0
  135.0270   72.0950  224.9580 C   0  0  0  0  0  0  0  0  0  0  0  0
  135.6003   71.5559  225.7266 H   0  0  0  0  0  0  0  0  0  0  0  0
  135.5214   73.0080  224.5947 H   0  0  0  0  0  0  0  0  0  0  0  0
  133.6890   72.5600  225.5970 C   0  0  0  0  0  0  0  0  0  0  0  0
  132.8797   72.3119  224.8946 H   0  0  0  0  0  0  0  0  0  0  0  0
  133.6450   74.1010  225.8140 C   0  0  0  0  0  0  0  0  0  0  0  0
  134.6746   74.4598  225.9595 H   0  0  0  0  0  0  0  0  0  0  0  0
  133.1683   74.5353  224.9229 H   0  0  0  0  0  0  0  0  0  0  0  0
  132.8030   74.5370  227.0290 C   0  0  0  0  0  0  0  0  0  0  0  0
  133.4389   74.5302  227.9265 H   0  0  0  0  0  0  0  0  0  0  0  0
  132.4125   75.5471  226.8361 H   0  0  0  0  0  0  0  0  0  0  0  0
  131.6180   73.5960  227.2510 C   0  0  0  0  0  0  0  0  0  0  0  0
  131.0268   73.9617  228.1035 H   0  0  0  0  0  0  0  0  0  0  0  0
  131.0145   73.5806  226.3315 H   0  0  0  0  0  0  0  0  0  0  0  0
  132.0830   72.1560  227.5460 C   0  0  0  0  0  0  0  0  0  0  0  0
  132.1492   72.0277  228.6365 H   0  0  0  0  0  0  0  0  0  0  0  0
  131.3462   71.4777  227.0909 H   0  0  0  0  0  0  0  0  0  0  0  0
  133.4550   71.8160  226.9300 C   0  0  0  0  0  0  0  0  0  0  0  0
  134.2445   72.1026  227.6404 H   0  0  0  0  0  0  0  0  0  0  0  0
  133.4781   70.7354  226.7255 H   0  0  0  0  0  0  0  0  0  0  0  0
  138.4210   69.7840  223.9710 C   0  0  2  0  0  0  0  0  0  0  0  0
  138.4730   69.3025  222.9834 H   0  0  0  0  0  0  0  0  0  0  0  0
  139.0980   68.8850  224.9800 C   0  0  0  0  0  0  0  0  0  0  0  0
  139.1480   67.5380  224.8570 N   0  0  0  0  0  0  0  0  0  0  0  0
  139.8310   67.0640  225.8940 N   0  0  0  0  0  0  0  0  0  0  0  0
  140.1870   68.1330  226.6270 C   0  0  0  0  0  0  0  0  0  0  0  0
  140.9230   68.1230  227.8090 C   0  0  0  0  0  0  0  0  0  0  0  0
  141.2822   67.1817  228.2504 H   0  0  0  0  0  0  0  0  0  0  0  0
  141.1890   69.3620  228.4160 C   0  0  0  0  0  0  0  0  0  0  0  0
  141.7683   69.3998  229.3503 H   0  0  0  0  0  0  0  0  0  0  0  0
  140.7180   70.5570  227.8350 C   0  0  0  0  0  0  0  0  0  0  0  0
  140.9265   71.5256  228.3129 H   0  0  0  0  0  0  0  0  0  0  0  0
  139.9810   70.5010  226.6420 C   0  0  0  0  0  0  0  0  0  0  0  0
  139.6005   71.4179  226.1682 H   0  0  0  0  0  0  0  0  0  0  0  0
  139.7510   69.2810  226.0890 N   0  0  0  0  0  0  0  0  0  0  0  0
  139.1570   71.1370  223.8270 C   0  0  0  0  0  0  0  0  0  0  0  0
  140.2379   70.9521  223.9137 H   0  0  0  0  0  0  0  0  0  0  0  0
  138.7700   71.7920  224.6215 H   0  0  0  0  0  0  0  0  0  0  0  0
  138.8970   71.8620  222.4920 C   0  0  0  0  0  0  0  0  0  0  0  0
  137.9299   72.3822  222.5570 H   0  0  0  0  0  0  0  0  0  0  0  0
  138.8989   71.1022  221.6965 H   0  0  0  0  0  0  0  0  0  0  0  0
  139.9850   72.8900  222.1520 C   0  0  0  0  0  0  0  0  0  0  0  0
  140.2397   73.4570  223.0595 H   0  0  0  0  0  0  0  0  0  0  0  0
  139.5988   73.5623  221.3717 H   0  0  0  0  0  0  0  0  0  0  0  0
  141.2420   72.2050  221.6230 C   0  0  0  0  0  0  0  0  0  0  0  0
  141.8597   71.8684  222.4687 H   0  0  0  0  0  0  0  0  0  0  0  0
  140.9564   71.3378  221.0095 H   0  0  0  0  0  0  0  0  0  0  0  0
  141.8160   72.9151  221.0095 H   0  0  0  0  0  0  0  0  0  0  0  0
  1  2  1  0
  2  3  1  0
  3  4  2  0
  4  5  1  0
  5  6  1  6
  5  7  1  0
  7  8  2  0
  7  9  1  0
  9 10  2  0
  9 11  1  0
 11 12  1  0
 12 13  1  0
 12 14  1  0
 12 15  1  0
 15 16  1  0
 15 17  1  0
 15 18  1  0
  5 19  1  0
 19 20  1  0
 19 21  1  0
 19 22  1  0
 22 23  1  0
 22 24  1  0
 24 25  1  0
 24 26  1  0
 24 27  1  0
 27 28  1  0
 27 29  1  0
 27 30  1  0
 30 31  1  0
 30 32  1  0
 30 33  1  0
 33 34  1  0
 33 35  1  0
 33 36  1  0
 36 37  1  0
 36 38  1  0
  3 39  1  0
 39 40  1  6
 39 41  1  0
 41 42  2  0
 42 43  1  0
 43 44  2  0
 44 45  1  0
 45 46  1  0
 45 47  2  0
 47 48  1  0
 47 49  1  0
 49 50  1  0
 49 51  2  0
 51 52  1  0
 51 53  1  0
 39 54  1  0
 54 55  1  0
 54 56  1  0
 54 57  1  0
 57 58  1  0
 57 59  1  0
 57 60  1  0
 60 61  1  0
 60 62  1  0
 60 63  1  0
 63 64  1  0
 63 65  1  0
 63 66  1  0
 36 22  1  0
 53 41  1  0
 53 44  1  0
M  CHG  1  11  -1
M  END
>  <UniqueID>  (57) 
3

>  <SMILES>  (57) 
CCCC[C@H](/C(O)=N/[C@H](CC1CCCCC1)C(=O)C(=O)[N-]CC)c1nnc2ccccn12

>  <Energy>  (57) 
95.1457366715995

>  <Genealogy>  (57) 
CCCCC(C(=O)NC(CC1CCCCC1)C(=O)C(=O)[N-]CC)c1nnc2ccccn12 (protonated)
CCCCC(C(O)=NC(CC1CCCCC1)C(=O)C(=O)[N-]CC)c1nnc2ccccn12 (tautomer)
CCCC[C@H](C(O)=N[C@H](CC1CCCCC1)C(=O)C(=O)[N-]CC)c1nnc2ccccn12 (chirality)
CCCC[C@H](/C(O)=N/[C@H](CC1CCCCC1)C(=O)C(=O)[N-]CC)c1nnc2ccccn12 (cis-trans isomerization)
CCCC[C@H](/C(O)=N/[C@H](CC1CCCCC1)C(=O)C(=O)[N-]CC)c1nnc2ccccn12 (3D coordinates assigned)
CCCC[C@H](/C(O)=N/[C@H](CC1CCCCC1)C(=O)C(=O)[N-]CC)c1nnc2ccccn12 (nonaromatic ring conformer: 95.1457366715995 kcal/mol)

>  <smiles>  (57) 
CCCCC(C(=O)NC(CC1CCCCC1)C(=O)C(=O)NCC)c1nnc2ccccn12

>  <score_type>  (57) 
oracle

>  <origin>  (57) 
autodockgpu

>  <m_score__min__energy>  (57) 
-6.2599999999999998

>  <m_primary>  (57) 
energy

>  <meeko>  (57) 
{"free_energy": -6.26, "intermolecular_energy": -10.43, "internal_energy": -2.66, "cluster_size": 1, "cluster_id": 1, "rank_in_cluster": 1}

>  <energy>  (57) 
-4.18

>  <cluster_rmsd>  (57) 
1.74

>  <rmsd>  (57) 
269.61

>  <cluster>  (57) 
9

$$$$
NNKZOUMTYASKLJ-WHFSYHSSNA-M
     RDKit          3D

 66 68  0  0  0  0  0  0  0  0999 V2000
  138.7730   74.2480  222.7730 H   0  0  0  0  0  0  0  0  0  0  0  0
  139.6030   74.6830  222.3930 O   0  0  0  0  0  0  0  0  0  0  0  0
  139.7610   76.0680  222.2690 C   0  0  0  0  0  0  0  0  0  0  0  0
  138.7930   76.8950  222.5470 N   0  0  0  0  0  0  0  0  0  0  0  0
  137.4420   76.8780  221.9800 C   0  0  1  0  0  0  0  0  0  0  0  0
  137.4842   76.4765  220.9568 H   0  0  0  0  0  0  0  0  0  0  0  0
  136.5300   75.9530  222.7570 C   0  0  0  0  0  0  0  0  0  0  0  0
  135.9070   76.3850  223.7660 O   0  0  0  0  0  0  0  0  0  0  0  0
  136.3500   74.5480  222.3550 C   0  0  0  0  0  0  0  0  0  0  0  0
  137.1240   74.0260  221.5060 O   0  0  0  0  0  0  0  0  0  0  0  0
  135.2860   73.7810  222.9270 N   0  0  0  0  0  0  0  0  0  0  0  0
  135.3180   73.2440  224.2840 C   0  0  0  0  0  0  0  0  0  0  0  0
  134.9159   72.2201  224.2773 H   0  0  0  0  0  0  0  0  0  0  0  0
  136.3587   73.2416  224.6401 H   0  0  0  0  0  0  0  0  0  0  0  0
  134.4790   74.1060  225.2220 C   0  0  0  0  0  0  0  0  0  0  0  0
  134.7221   73.8562  226.2653 H   0  0  0  0  0  0  0  0  0  0  0  0
  134.6985   75.1681  225.0386 H   0  0  0  0  0  0  0  0  0  0  0  0
  133.4113   73.9153  225.0386 H   0  0  0  0  0  0  0  0  0  0  0  0
  136.8940   78.3210  221.9050 C   0  0  0  0  0  0  0  0  0  0  0  0
  137.3876   78.8275  221.0625 H   0  0  0  0  0  0  0  0  0  0  0  0
  135.8045   78.2245  221.7878 H   0  0  0  0  0  0  0  0  0  0  0  0
  137.1110   79.1860  223.1770 C   0  0  0  0  0  0  0  0  0  0  0  0
  137.2864   78.5015  224.0201 H   0  0  0  0  0  0  0  0  0  0  0  0
  135.8540   80.0330  223.5340 C   0  0  0  0  0  0  0  0  0  0  0  0
  135.3033   80.2442  222.6055 H   0  0  0  0  0  0  0  0  0  0  0  0
  135.2633   79.4424  224.2497 H   0  0  0  0  0  0  0  0  0  0  0  0
  136.1800   81.3740  224.2210 C   0  0  0  0  0  0  0  0  0  0  0  0
  136.3538   82.1386  223.4495 H   0  0  0  0  0  0  0  0  0  0  0  0
  135.3291   81.6518  224.8604 H   0  0  0  0  0  0  0  0  0  0  0  0
  137.4270   81.2610  225.1000 C   0  0  0  0  0  0  0  0  0  0  0  0
  137.6027   82.2269  225.5962 H   0  0  0  0  0  0  0  0  0  0  0  0
  137.2557   80.4649  225.8395 H   0  0  0  0  0  0  0  0  0  0  0  0
  138.6730   80.8900  224.2720 C   0  0  0  0  0  0  0  0  0  0  0  0
  139.1885   81.8179  223.9834 H   0  0  0  0  0  0  0  0  0  0  0  0
  139.3008   80.2437  224.9030 H   0  0  0  0  0  0  0  0  0  0  0  0
  138.3450   80.0950  222.9920 C   0  0  0  0  0  0  0  0  0  0  0  0
  138.1448   80.8038  222.1750 H   0  0  0  0  0  0  0  0  0  0  0  0
  139.2080   79.4538  222.7594 H   0  0  0  0  0  0  0  0  0  0  0  0
  141.0820   76.6350  221.8100 C   0  0  2  0  0  0  0  0  0  0  0  0
  141.8600   75.8898  222.0322 H   0  0  0  0  0  0  0  0  0  0  0  0
  141.3990   77.9020  222.5710 C   0  0  0  0  0  0  0  0  0  0  0  0
  141.8170   77.9090  223.8580 N   0  0  0  0  0  0  0  0  0  0  0  0
  142.0260   79.1750  224.2070 N   0  0  0  0  0  0  0  0  0  0  0  0
  141.7330   79.9140  223.1230 C   0  0  0  0  0  0  0  0  0  0  0  0
  141.8090   81.3000  223.0170 C   0  0  0  0  0  0  0  0  0  0  0  0
  142.1305   81.9211  223.8660 H   0  0  0  0  0  0  0  0  0  0  0  0
  141.4590   81.8750  221.7830 C   0  0  0  0  0  0  0  0  0  0  0  0
  141.5070   82.9665  221.6550 H   0  0  0  0  0  0  0  0  0  0  0  0
  141.0470   81.0610  220.7090 C   0  0  0  0  0  0  0  0  0  0  0  0
  140.7713   81.5135  219.7450 H   0  0  0  0  0  0  0  0  0  0  0  0
  140.9910   79.6690  220.8780 C   0  0  0  0  0  0  0  0  0  0  0  0
  140.6724   79.0111  220.0560 H   0  0  0  0  0  0  0  0  0  0  0  0
  141.3420   79.1580  222.0870 N   0  0  0  0  0  0  0  0  0  0  0  0
  141.1300   76.8600  220.2800 C   0  0  0  0  0  0  0  0  0  0  0  0
  140.5086   77.7357  220.0412 H   0  0  0  0  0  0  0  0  0  0  0  0
  140.7620   75.9339  219.8143 H   0  0  0  0  0  0  0  0  0  0  0  0
  142.5430   77.1040  219.7180 C   0  0  0  0  0  0  0  0  0  0  0  0
  143.2009   77.4127  220.5437 H   0  0  0  0  0  0  0  0  0  0  0  0
  142.4619   77.8840  218.9466 H   0  0  0  0  0  0  0  0  0  0  0  0
  143.1430   75.8580  219.0530 C   0  0  0  0  0  0  0  0  0  0  0  0
  143.9574   76.1663  218.3809 H   0  0  0  0  0  0  0  0  0  0  0  0
  142.3492   75.3463  218.4890 H   0  0  0  0  0  0  0  0  0  0  0  0
  143.6970   74.8910  220.0970 C   0  0  0  0  0  0  0  0  0  0  0  0
  143.4776   75.2740  221.1045 H   0  0  0  0  0  0  0  0  0  0  0  0
  143.2269   73.9047  219.9692 H   0  0  0  0  0  0  0  0  0  0  0  0
  144.7856   74.7977  219.9692 H   0  0  0  0  0  0  0  0  0  0  0  0
  1  2  1  0
  2  3  1  0
  3  4  2  0
  4  5  1  0
  5  6  1  6
  5  7  1  0
  7  8  2  0
  7  9  1  0
  9 10  2  0
  9 11  1  0
 11 12  1  0
 12 13  1  0
 12 14  1  0
 12 15  1  0
 15 16  1  0
 15 17  1  0
 15 18  1  0
  5 19  1  0
 19 20  1  0
 19 21  1  0
 19 22  1  0
 22 23  1  0
 22 24  1  0
 24 25  1  0
 24 26  1  0
 24 27  1  0
 27 28  1  0
 27 29  1  0
 27 30  1  0
 30 31  1  0
 30 32  1  0
 30 33  1  0
 33 34  1  0
 33 35  1  0
 33 36  1  0
 36 37  1  0
 36 38  1  0
  3 39  1  0
 39 40  1  6
 39 41  1  0
 41 42  2  0
 42 43  1  0
 43 44  2  0
 44 45  1  0
 45 46  1  0
 45 47  2  0
 47 48  1  0
 47 49  1  0
 49 50  1  0
 49 51  2  0
 51 52  1  0
 51 53  1  0
 39 54  1  0
 54 55  1  0
 54 56  1  0
 54 57  1  0
 57 58  1  0
 57 59  1  0
 57 60  1  0
 60 61  1  0
 60 62  1  0
 60 63  1  0
 63 64  1  0
 63 65  1  0
 63 66  1  0
 36 22  1  0
 53 41  1  0
 53 44  1  0
M  CHG  1  11  -1
M  END
>  <UniqueID>  (58) 
3

>  <SMILES>  (58) 
CCCC[C@H](/C(O)=N/[C@H](CC1CCCCC1)C(=O)C(=O)[N-]CC)c1nnc2ccccn12

>  <Energy>  (58) 
95.1457366715995

>  <Genealogy>  (58) 
CCCCC(C(=O)NC(CC1CCCCC1)C(=O)C(=O)[N-]CC)c1nnc2ccccn12 (protonated)
CCCCC(C(O)=NC(CC1CCCCC1)C(=O)C(=O)[N-]CC)c1nnc2ccccn12 (tautomer)
CCCC[C@H](C(O)=N[C@H](CC1CCCCC1)C(=O)C(=O)[N-]CC)c1nnc2ccccn12 (chirality)
CCCC[C@H](/C(O)=N/[C@H](CC1CCCCC1)C(=O)C(=O)[N-]CC)c1nnc2ccccn12 (cis-trans isomerization)
CCCC[C@H](/C(O)=N/[C@H](CC1CCCCC1)C(=O)C(=O)[N-]CC)c1nnc2ccccn12 (3D coordinates assigned)
CCCC[C@H](/C(O)=N/[C@H](CC1CCCCC1)C(=O)C(=O)[N-]CC)c1nnc2ccccn12 (nonaromatic ring conformer: 95.1457366715995 kcal/mol)

>  <smiles>  (58) 
CCCCC(C(=O)NC(CC1CCCCC1)C(=O)C(=O)NCC)c1nnc2ccccn12

>  <score_type>  (58) 
oracle

>  <origin>  (58) 
autodockgpu

>  <m_score__min__energy>  (58) 
-6.2599999999999998

>  <m_primary>  (58) 
energy

>  <meeko>  (58) 
{"free_energy": -5.14, "intermolecular_energy": -9.32, "internal_energy": -2.94, "cluster_size": 3, "cluster_id": 9, "rank_in_cluster": 1}

>  <energy>  (58) 
-4.96

>  <cluster_rmsd>  (58) 
0.0

>  <rmsd>  (58) 
269.73

>  <cluster>  (58) 
10

$$$$
NNKZOUMTYASKLJ-WHFSYHSSNA-M
     RDKit          3D

 66 68  0  0  0  0  0  0  0  0999 V2000
  138.6020   74.2540  222.7330 H   0  0  0  0  0  0  0  0  0  0  0  0
  139.5370   74.4890  222.4250 O   0  0  0  0  0  0  0  0  0  0  0  0
  139.8630   75.7010  221.8050 C   0  0  0  0  0  0  0  0  0  0  0  0
  138.9770   76.6410  221.6310 N   0  0  0  0  0  0  0  0  0  0  0  0
  138.3830   77.0550  220.3570 C   0  0  1  0  0  0  0  0  0  0  0  0
  139.1558   77.0387  219.5743 H   0  0  0  0  0  0  0  0  0  0  0  0
  137.3110   76.0850  219.9090 C   0  0  0  0  0  0  0  0  0  0  0  0
  137.2760   75.6980  218.7090 O   0  0  0  0  0  0  0  0  0  0  0  0
  136.3010   75.5790  220.8530 C   0  0  0  0  0  0  0  0  0  0  0  0
  135.1130   76.0000  220.7990 O   0  0  0  0  0  0  0  0  0  0  0  0
  136.6780   74.6100  221.8370 N   0  0  0  0  0  0  0  0  0  0  0  0
  135.9420   74.3910  223.0780 C   0  0  0  0  0  0  0  0  0  0  0  0
  134.9360   74.0150  222.8402 H   0  0  0  0  0  0  0  0  0  0  0  0
  136.4877   73.6572  223.6893 H   0  0  0  0  0  0  0  0  0  0  0  0
  135.8180   75.6920  223.8650 C   0  0  0  0  0  0  0  0  0  0  0  0
  135.8390   75.4721  224.9426 H   0  0  0  0  0  0  0  0  0  0  0  0
  136.6569   76.3562  223.6099 H   0  0  0  0  0  0  0  0  0  0  0  0
  134.8687   76.1858  223.6099 H   0  0  0  0  0  0  0  0  0  0  0  0
  137.8570   78.5020  220.4780 C   0  0  0  0  0  0  0  0  0  0  0  0
  138.2530   79.0782  219.6288 H   0  0  0  0  0  0  0  0  0  0  0  0
  136.7598   78.4236  220.4890 H   0  0  0  0  0  0  0  0  0  0  0  0
  138.2430   79.2490  221.7840 C   0  0  0  0  0  0  0  0  0  0  0  0
  139.2250   78.8718  222.1054 H   0  0  0  0  0  0  0  0  0  0  0  0
  137.2460   78.9610  222.9440 C   0  0  0  0  0  0  0  0  0  0  0  0
  136.2612   78.7389  222.5072 H   0  0  0  0  0  0  0  0  0  0  0  0
  137.6557   78.1143  223.5143 H   0  0  0  0  0  0  0  0  0  0  0  0
  137.0850   80.1310  223.9340 C   0  0  0  0  0  0  0  0  0  0  0  0
  136.3025   80.8091  223.5628 H   0  0  0  0  0  0  0  0  0  0  0  0
  136.8098   79.7190  224.9161 H   0  0  0  0  0  0  0  0  0  0  0  0
  138.3910   80.9140  224.0880 C   0  0  0  0  0  0  0  0  0  0  0  0
  138.2415   81.7159  224.8259 H   0  0  0  0  0  0  0  0  0  0  0  0
  139.1736   80.2158  224.4196 H   0  0  0  0  0  0  0  0  0  0  0  0
  138.8380   81.5400  222.7530 C   0  0  0  0  0  0  0  0  0  0  0  0
  138.4464   82.5666  222.7014 H   0  0  0  0  0  0  0  0  0  0  0  0
  139.9375   81.5116  222.7342 H   0  0  0  0  0  0  0  0  0  0  0  0
  138.3430   80.7660  221.5150 C   0  0  0  0  0  0  0  0  0  0  0  0
  137.3486   81.1433  221.2343 H   0  0  0  0  0  0  0  0  0  0  0  0
  139.0702   80.9204  220.7043 H   0  0  0  0  0  0  0  0  0  0  0  0
  141.2730   75.9440  221.3270 C   0  0  2  0  0  0  0  0  0  0  0  0
  141.9570   75.5847  222.1100 H   0  0  0  0  0  0  0  0  0  0  0  0
  141.5090   77.4230  221.1260 C   0  0  0  0  0  0  0  0  0  0  0  0
  141.5800   78.0030  219.9050 N   0  0  0  0  0  0  0  0  0  0  0  0
  141.7700   79.3060  220.0890 N   0  0  0  0  0  0  0  0  0  0  0  0
  141.8090   79.4950  221.4190 C   0  0  0  0  0  0  0  0  0  0  0  0
  141.9860   80.7050  222.0830 C   0  0  0  0  0  0  0  0  0  0  0  0
  142.1170   81.6465  221.5294 H   0  0  0  0  0  0  0  0  0  0  0  0
  141.9910   80.6780  223.4880 C   0  0  0  0  0  0  0  0  0  0  0  0
  142.1262   81.6127  224.0519 H   0  0  0  0  0  0  0  0  0  0  0  0
  141.8240   79.4620  224.1790 C   0  0  0  0  0  0  0  0  0  0  0  0
  141.8299   79.4441  225.2788 H   0  0  0  0  0  0  0  0  0  0  0  0
  141.6500   78.2730  223.4530 C   0  0  0  0  0  0  0  0  0  0  0  0
  141.5192   77.3094  223.9672 H   0  0  0  0  0  0  0  0  0  0  0  0
  141.6480   78.3480  222.0960 N   0  0  0  0  0  0  0  0  0  0  0  0
  141.6150   75.1320  220.0550 C   0  0  0  0  0  0  0  0  0  0  0  0
  141.9238   75.8372  219.2693 H   0  0  0  0  0  0  0  0  0  0  0  0
  140.7097   74.5657  219.7911 H   0  0  0  0  0  0  0  0  0  0  0  0
  142.7410   74.0980  220.2440 C   0  0  0  0  0  0  0  0  0  0  0  0
  142.6251   73.3096  219.4857 H   0  0  0  0  0  0  0  0  0  0  0  0
  142.6552   73.6979  221.2651 H   0  0  0  0  0  0  0  0  0  0  0  0
  144.1410   74.7110  220.1040 C   0  0  0  0  0  0  0  0  0  0  0  0
  144.1622   75.6808  220.6227 H   0  0  0  0  0  0  0  0  0  0  0  0
  144.3607   74.8404  219.0340 H   0  0  0  0  0  0  0  0  0  0  0  0
  145.2040   73.7970  220.7110 C   0  0  0  0  0  0  0  0  0  0  0  0
  145.1467   73.8463  221.8084 H   0  0  0  0  0  0  0  0  0  0  0  0
  145.0298   72.7623  220.3808 H   0  0  0  0  0  0  0  0  0  0  0  0
  146.2009   74.1243  220.3808 H   0  0  0  0  0  0  0  0  0  0  0  0
  1  2  1  0
  2  3  1  0
  3  4  2  0
  4  5  1  0
  5  6  1  6
  5  7  1  0
  7  8  2  0
  7  9  1  0
  9 10  2  0
  9 11  1  0
 11 12  1  0
 12 13  1  0
 12 14  1  0
 12 15  1  0
 15 16  1  0
 15 17  1  0
 15 18  1  0
  5 19  1  0
 19 20  1  0
 19 21  1  0
 19 22  1  0
 22 23  1  0
 22 24  1  0
 24 25  1  0
 24 26  1  0
 24 27  1  0
 27 28  1  0
 27 29  1  0
 27 30  1  0
 30 31  1  0
 30 32  1  0
 30 33  1  0
 33 34  1  0
 33 35  1  0
 33 36  1  0
 36 37  1  0
 36 38  1  0
  3 39  1  0
 39 40  1  1
 39 41  1  0
 41 42  2  0
 42 43  1  0
 43 44  2  0
 44 45  1  0
 45 46  1  0
 45 47  2  0
 47 48  1  0
 47 49  1  0
 49 50  1  0
 49 51  2  0
 51 52  1  0
 51 53  1  0
 39 54  1  0
 54 55  1  0
 54 56  1  0
 54 57  1  0
 57 58  1  0
 57 59  1  0
 57 60  1  0
 60 61  1  0
 60 62  1  0
 60 63  1  0
 63 64  1  0
 63 65  1  0
 63 66  1  0
 36 22  1  0
 53 41  1  0
 53 44  1  0
M  CHG  1  11  -1
M  END
>  <UniqueID>  (59) 
3

>  <SMILES>  (59) 
CCCC[C@H](/C(O)=N/[C@H](CC1CCCCC1)C(=O)C(=O)[N-]CC)c1nnc2ccccn12

>  <Energy>  (59) 
95.1457366715995

>  <Genealogy>  (59) 
CCCCC(C(=O)NC(CC1CCCCC1)C(=O)C(=O)[N-]CC)c1nnc2ccccn12 (protonated)
CCCCC(C(O)=NC(CC1CCCCC1)C(=O)C(=O)[N-]CC)c1nnc2ccccn12 (tautomer)
CCCC[C@H](C(O)=N[C@H](CC1CCCCC1)C(=O)C(=O)[N-]CC)c1nnc2ccccn12 (chirality)
CCCC[C@H](/C(O)=N/[C@H](CC1CCCCC1)C(=O)C(=O)[N-]CC)c1nnc2ccccn12 (cis-trans isomerization)
CCCC[C@H](/C(O)=N/[C@H](CC1CCCCC1)C(=O)C(=O)[N-]CC)c1nnc2ccccn12 (3D coordinates assigned)
CCCC[C@H](/C(O)=N/[C@H](CC1CCCCC1)C(=O)C(=O)[N-]CC)c1nnc2ccccn12 (nonaromatic ring conformer: 95.1457366715995 kcal/mol)

>  <smiles>  (59) 
CCCCC(C(=O)NC(CC1CCCCC1)C(=O)C(=O)NCC)c1nnc2ccccn12

>  <score_type>  (59) 
oracle

>  <origin>  (59) 
autodockgpu

>  <m_score__min__energy>  (59) 
-6.2599999999999998

>  <m_primary>  (59) 
energy

>  <meeko>  (59) 
{"free_energy": -4.18, "intermolecular_energy": -8.36, "internal_energy": -3.9, "cluster_size": 3, "cluster_id": 9, "rank_in_cluster": 3}

>  <energy>  (59) 
-4.85

>  <cluster_rmsd>  (59) 
0.0

>  <rmsd>  (59) 
269.38

>  <cluster>  (59) 
11

$$$$
NNKZOUMTYASKLJ-WHFSYHSSNA-M
     RDKit          3D

 66 68  0  0  0  0  0  0  0  0999 V2000
  139.1740   73.7130  222.7750 H   0  0  0  0  0  0  0  0  0  0  0  0
  140.0350   73.8370  222.2590 O   0  0  0  0  0  0  0  0  0  0  0  0
  140.4430   75.0630  221.7200 C   0  0  0  0  0  0  0  0  0  0  0  0
  140.1640   76.1940  222.3040 N   0  0  0  0  0  0  0  0  0  0  0  0
  138.9460   76.9900  222.1280 C   0  0  1  0  0  0  0  0  0  0  0  0
  138.8336   77.2481  221.0646 H   0  0  0  0  0  0  0  0  0  0  0  0
  137.7110   76.1980  222.5000 C   0  0  0  0  0  0  0  0  0  0  0  0
  137.6880   74.9490  222.3260 O   0  0  0  0  0  0  0  0  0  0  0  0
  136.5260   76.8610  223.0700 C   0  0  0  0  0  0  0  0  0  0  0  0
  135.8400   76.2840  223.9570 O   0  0  0  0  0  0  0  0  0  0  0  0
  136.1540   78.1630  222.6050 N   0  0  0  0  0  0  0  0  0  0  0  0
  135.5380   79.1780  223.4530 C   0  0  0  0  0  0  0  0  0  0  0  0
  134.7042   79.6462  222.9092 H   0  0  0  0  0  0  0  0  0  0  0  0
  135.1705   78.6976  224.3718 H   0  0  0  0  0  0  0  0  0  0  0  0
  136.5550   80.2500  223.8310 C   0  0  0  0  0  0  0  0  0  0  0  0
  136.6226   80.3212  224.9266 H   0  0  0  0  0  0  0  0  0  0  0  0
  137.5395   79.9828  223.4195 H   0  0  0  0  0  0  0  0  0  0  0  0
  136.2363   81.2191  223.4195 H   0  0  0  0  0  0  0  0  0  0  0  0
  139.0670   78.3060  222.9280 C   0  0  0  0  0  0  0  0  0  0  0  0
  138.1842   78.9221  222.7020 H   0  0  0  0  0  0  0  0  0  0  0  0
  139.1436   78.0104  223.9848 H   0  0  0  0  0  0  0  0  0  0  0  0
  140.3330   79.1570  222.6310 C   0  0  0  0  0  0  0  0  0  0  0  0
  140.5957   79.0060  221.5736 H   0  0  0  0  0  0  0  0  0  0  0  0
  141.5610   78.7000  223.4710 C   0  0  0  0  0  0  0  0  0  0  0  0
  141.1940   78.2611  224.4105 H   0  0  0  0  0  0  0  0  0  0  0  0
  142.1173   77.9770  222.8563 H   0  0  0  0  0  0  0  0  0  0  0  0
  142.5390   79.8390  223.8170 C   0  0  0  0  0  0  0  0  0  0  0  0
  142.2082   80.3250  224.7467 H   0  0  0  0  0  0  0  0  0  0  0  0
  143.5438   79.4083  223.9386 H   0  0  0  0  0  0  0  0  0  0  0  0
  142.5940   80.8840  222.7010 C   0  0  0  0  0  0  0  0  0  0  0  0
  143.3270   81.6580  222.9724 H   0  0  0  0  0  0  0  0  0  0  0  0
  142.8848   80.3773  221.7690 H   0  0  0  0  0  0  0  0  0  0  0  0
  141.2220   81.5500  222.4800 C   0  0  0  0  0  0  0  0  0  0  0  0
  141.1794   82.4686  223.0836 H   0  0  0  0  0  0  0  0  0  0  0  0
  141.1309   81.7544  221.4030 H   0  0  0  0  0  0  0  0  0  0  0  0
  140.0320   80.6510  222.8740 C   0  0  0  0  0  0  0  0  0  0  0  0
  139.8119   80.8002  223.9414 H   0  0  0  0  0  0  0  0  0  0  0  0
  139.1718   80.9312  222.2483 H   0  0  0  0  0  0  0  0  0  0  0  0
  141.2330   75.0930  220.4350 C   0  0  2  0  0  0  0  0  0  0  0  0
  140.5157   75.1595  219.6037 H   0  0  0  0  0  0  0  0  0  0  0  0
  142.0280   73.8180  220.2810 C   0  0  0  0  0  0  0  0  0  0  0  0
  141.4590   72.6130  220.0460 N   0  0  0  0  0  0  0  0  0  0  0  0
  142.4380   71.7180  219.9420 N   0  0  0  0  0  0  0  0  0  0  0  0
  143.5850   72.3980  220.1130 C   0  0  0  0  0  0  0  0  0  0  0  0
  144.8750   71.8740  220.0830 C   0  0  0  0  0  0  0  0  0  0  0  0
  145.0524   70.8024  219.9094 H   0  0  0  0  0  0  0  0  0  0  0  0
  145.9410   72.7670  220.2830 C   0  0  0  0  0  0  0  0  0  0  0  0
  146.9762   72.3954  220.2654 H   0  0  0  0  0  0  0  0  0  0  0  0
  145.6920   74.1360  220.5060 C   0  0  0  0  0  0  0  0  0  0  0  0
  146.5285   74.8328  220.6632 H   0  0  0  0  0  0  0  0  0  0  0  0
  144.3690   74.6040  220.5260 C   0  0  0  0  0  0  0  0  0  0  0  0
  144.1472   75.6672  220.7001 H   0  0  0  0  0  0  0  0  0  0  0  0
  143.3700   73.7050  220.3240 N   0  0  0  0  0  0  0  0  0  0  0  0
  142.1340   76.3460  220.3240 C   0  0  0  0  0  0  0  0  0  0  0  0
  143.1771   76.0119  220.2230 H   0  0  0  0  0  0  0  0  0  0  0  0
  141.9602   76.9394  221.2338 H   0  0  0  0  0  0  0  0  0  0  0  0
  141.8040   77.2630  219.1310 C   0  0  0  0  0  0  0  0  0  0  0  0
  140.9112   76.8702  218.6225 H   0  0  0  0  0  0  0  0  0  0  0  0
  142.6815   77.2714  218.4677 H   0  0  0  0  0  0  0  0  0  0  0  0
  141.5300   78.7130  219.5520 C   0  0  0  0  0  0  0  0  0  0  0  0
  141.9407   78.8786  220.5589 H   0  0  0  0  0  0  0  0  0  0  0  0
  140.4427   78.8794  219.5463 H   0  0  0  0  0  0  0  0  0  0  0  0
  142.1770   79.6980  218.5810 C   0  0  0  0  0  0  0  0  0  0  0  0
  142.6944   80.4857  219.1482 H   0  0  0  0  0  0  0  0  0  0  0  0
  142.9020   79.1658  217.9476 H   0  0  0  0  0  0  0  0  0  0  0  0
  141.4006   80.1520  217.9476 H   0  0  0  0  0  0  0  0  0  0  0  0
  1  2  1  0
  2  3  1  0
  3  4  2  0
  4  5  1  0
  5  6  1  6
  5  7  1  0
  7  8  2  0
  7  9  1  0
  9 10  2  0
  9 11  1  0
 11 12  1  0
 12 13  1  0
 12 14  1  0
 12 15  1  0
 15 16  1  0
 15 17  1  0
 15 18  1  0
  5 19  1  0
 19 20  1  0
 19 21  1  0
 19 22  1  0
 22 23  1  0
 22 24  1  0
 24 25  1  0
 24 26  1  0
 24 27  1  0
 27 28  1  0
 27 29  1  0
 27 30  1  0
 30 31  1  0
 30 32  1  0
 30 33  1  0
 33 34  1  0
 33 35  1  0
 33 36  1  0
 36 37  1  0
 36 38  1  0
  3 39  1  0
 39 40  1  6
 39 41  1  0
 41 42  2  0
 42 43  1  0
 43 44  2  0
 44 45  1  0
 45 46  1  0
 45 47  2  0
 47 48  1  0
 47 49  1  0
 49 50  1  0
 49 51  2  0
 51 52  1  0
 51 53  1  0
 39 54  1  0
 54 55  1  0
 54 56  1  0
 54 57  1  0
 57 58  1  0
 57 59  1  0
 57 60  1  0
 60 61  1  0
 60 62  1  0
 60 63  1  0
 63 64  1  0
 63 65  1  0
 63 66  1  0
 36 22  1  0
 53 41  1  0
 53 44  1  0
M  CHG  1  11  -1
M  END
>  <UniqueID>  (60) 
3

>  <SMILES>  (60) 
CCCC[C@H](/C(O)=N/[C@H](CC1CCCCC1)C(=O)C(=O)[N-]CC)c1nnc2ccccn12

>  <Energy>  (60) 
95.1457366715995

>  <Genealogy>  (60) 
CCCCC(C(=O)NC(CC1CCCCC1)C(=O)C(=O)[N-]CC)c1nnc2ccccn12 (protonated)
CCCCC(C(O)=NC(CC1CCCCC1)C(=O)C(=O)[N-]CC)c1nnc2ccccn12 (tautomer)
CCCC[C@H](C(O)=N[C@H](CC1CCCCC1)C(=O)C(=O)[N-]CC)c1nnc2ccccn12 (chirality)
CCCC[C@H](/C(O)=N/[C@H](CC1CCCCC1)C(=O)C(=O)[N-]CC)c1nnc2ccccn12 (cis-trans isomerization)
CCCC[C@H](/C(O)=N/[C@H](CC1CCCCC1)C(=O)C(=O)[N-]CC)c1nnc2ccccn12 (3D coordinates assigned)
CCCC[C@H](/C(O)=N/[C@H](CC1CCCCC1)C(=O)C(=O)[N-]CC)c1nnc2ccccn12 (nonaromatic ring conformer: 95.1457366715995 kcal/mol)

>  <smiles>  (60) 
CCCCC(C(=O)NC(CC1CCCCC1)C(=O)C(=O)NCC)c1nnc2ccccn12

>  <score_type>  (60) 
oracle

>  <origin>  (60) 
autodockgpu

>  <m_score__min__energy>  (60) 
-6.2599999999999998

>  <m_primary>  (60) 
energy

>  <meeko>  (60) 
{"free_energy": -5.81, "intermolecular_energy": -9.98, "internal_energy": -2.4, "cluster_size": 2, "cluster_id": 5, "rank_in_cluster": 1}

>  <energy>  (60) 
-4.33

>  <cluster_rmsd>  (60) 
0.0

>  <rmsd>  (60) 
268.51

>  <cluster>  (60) 
12

$$$$
NNKZOUMTYASKLJ-JYRSORQKNA-M
     RDKit          3D

 66 68  0  0  0  0  0  0  0  0999 V2000
  139.8250   74.4550  221.6210 C   0  0  0  0  0  0  0  0  0  0  0  0
  141.0570   73.5570  221.5870 C   0  0  0  0  0  0  0  0  0  0  0  0
  140.6690   72.0810  221.7460 C   0  0  0  0  0  0  0  0  0  0  0  0
  140.3030   71.7050  223.1940 C   0  0  0  0  0  0  0  0  0  0  0  0
  139.0980   70.7370  223.3020 C   0  0  2  0  0  0  0  0  0  0  0  0
  137.7660   71.4460  223.2510 C   0  0  0  0  0  0  0  0  0  0  0  0
  137.6500   72.4730  222.5280 O   0  0  0  0  0  0  0  0  0  0  0  0
  136.6300   70.9480  223.9750 N   0  0  0  0  0  0  0  0  0  0  0  0
  135.3130   71.5850  223.8830 C   0  0  2  0  0  0  0  0  0  0  0  0
  135.1730   72.7380  224.9110 C   0  0  0  0  0  0  0  0  0  0  0  0
  134.8610   74.1350  224.3140 C   0  0  0  0  0  0  0  0  0  0  0  0
  134.7240   75.2360  225.3820 C   0  0  0  0  0  0  0  0  0  0  0  0
  134.2200   76.5550  224.7690 C   0  0  0  0  0  0  0  0  0  0  0  0
  134.7820   76.8340  223.3600 C   0  0  0  0  0  0  0  0  0  0  0  0
  136.0750   76.0590  223.0850 C   0  0  0  0  0  0  0  0  0  0  0  0
  135.8530   74.5370  223.1860 C   0  0  0  0  0  0  0  0  0  0  0  0
  134.2490   70.5460  224.1350 C   0  0  0  0  0  0  0  0  0  0  0  0
  133.2230   70.5350  223.4020 O   0  0  0  0  0  0  0  0  0  0  0  0
  134.4230   69.5180  225.1870 C   0  0  0  0  0  0  0  0  0  0  0  0
  135.1290   68.5040  224.9440 O   0  0  0  0  0  0  0  0  0  0  0  0
  133.8310   69.6340  226.4880 N   0  0  0  0  0  0  0  0  0  0  0  0
  134.0050   70.7550  227.4040 C   0  0  0  0  0  0  0  0  0  0  0  0
  132.9250   71.7950  227.1530 C   0  0  0  0  0  0  0  0  0  0  0  0
  139.1420   69.8150  224.5030 C   0  0  0  0  0  0  0  0  0  0  0  0
  138.4490   68.6530  224.5300 N   0  0  0  0  0  0  0  0  0  0  0  0
  138.6190   68.1010  225.7260 N   0  0  0  0  0  0  0  0  0  0  0  0
  139.4070   68.9430  226.4150 C   0  0  0  0  0  0  0  0  0  0  0  0
  139.8460   68.7710  227.7250 C   0  0  0  0  0  0  0  0  0  0  0  0
  140.6640   69.7700  228.2710 C   0  0  0  0  0  0  0  0  0  0  0  0
  141.0120   70.8990  227.5050 C   0  0  0  0  0  0  0  0  0  0  0  0
  140.5380   71.0180  226.1900 C   0  0  0  0  0  0  0  0  0  0  0  0
  139.7490   70.0240  225.6950 N   0  0  0  0  0  0  0  0  0  0  0  0
  139.5474   74.6573  222.6660 H   0  0  0  0  0  0  0  0  0  0  0  0
  140.0485   75.4035  221.1108 H   0  0  0  0  0  0  0  0  0  0  0  0
  138.9904   73.9519  221.1108 H   0  0  0  0  0  0  0  0  0  0  0  0
  141.5730   73.6912  220.6249 H   0  0  0  0  0  0  0  0  0  0  0  0
  141.7166   73.8368  222.4217 H   0  0  0  0  0  0  0  0  0  0  0  0
  139.8019   71.8756  221.1011 H   0  0  0  0  0  0  0  0  0  0  0  0
  141.5450   71.4792  221.4624 H   0  0  0  0  0  0  0  0  0  0  0  0
  141.1765   71.2249  223.6593 H   0  0  0  0  0  0  0  0  0  0  0  0
  140.0135   72.6358  223.7038 H   0  0  0  0  0  0  0  0  0  0  0  0
  139.1961   70.1060  222.4063 H   0  0  0  0  0  0  0  0  0  0  0  0
  136.7130   70.0420  224.4830 H   0  0  0  0  0  0  0  0  0  0  0  0
  135.1971   72.0135  222.8765 H   0  0  0  0  0  0  0  0  0  0  0  0
  134.3594   72.4767  225.6036 H   0  0  0  0  0  0  0  0  0  0  0  0
  136.1567   72.8307  225.3945 H   0  0  0  0  0  0  0  0  0  0  0  0
  133.8695   74.0389  223.8474 H   0  0  0  0  0  0  0  0  0  0  0  0
  134.0103   74.9027  226.1498 H   0  0  0  0  0  0  0  0  0  0  0  0
  135.7159   75.4161  225.8221 H   0  0  0  0  0  0  0  0  0  0  0  0
  133.1228   76.5115  224.7037 H   0  0  0  0  0  0  0  0  0  0  0  0
  134.5676   77.3687  225.4225 H   0  0  0  0  0  0  0  0  0  0  0  0
  134.0285   76.5406  222.6143 H   0  0  0  0  0  0  0  0  0  0  0  0
  135.0135   77.9075  223.2968 H   0  0  0  0  0  0  0  0  0  0  0  0
  136.4292   76.3022  222.0724 H   0  0  0  0  0  0  0  0  0  0  0  0
  136.8196   76.3503  223.8405 H   0  0  0  0  0  0  0  0  0  0  0  0
  135.4545   74.1776  222.2258 H   0  0  0  0  0  0  0  0  0  0  0  0
  136.8243   74.0808  223.4277 H   0  0  0  0  0  0  0  0  0  0  0  0
  133.9316   70.3947  228.4407 H   0  0  0  0  0  0  0  0  0  0  0  0
  134.9932   71.2094  227.2396 H   0  0  0  0  0  0  0  0  0  0  0  0
  132.5412   72.1646  228.1153 H   0  0  0  0  0  0  0  0  0  0  0  0
  133.3492   72.6334  226.5810 H   0  0  0  0  0  0  0  0  0  0  0  0
  132.1032   71.3395  226.5810 H   0  0  0  0  0  0  0  0  0  0  0  0
  139.5615   67.8840  228.3100 H   0  0  0  0  0  0  0  0  0  0  0  0
  141.0354   69.6715  229.3017 H   0  0  0  0  0  0  0  0  0  0  0  0
  141.6520   71.6834  227.9353 H   0  0  0  0  0  0  0  0  0  0  0  0
  140.7969   71.8919  225.5742 H   0  0  0  0  0  0  0  0  0  0  0  0
  1  2  1  0
  2  3  1  0
  3  4  1  0
  4  5  1  0
  5  6  1  0
  6  7  2  0
  6  8  1  0
  8  9  1  0
  9 10  1  0
 10 11  1  0
 11 12  1  0
 12 13  1  0
 13 14  1  0
 14 15  1  0
 15 16  1  0
  9 17  1  0
 17 18  2  0
 17 19  1  0
 19 20  2  0
 19 21  1  0
 21 22  1  0
 22 23  1  0
  5 24  1  0
 24 25  2  0
 25 26  1  0
 26 27  2  0
 27 28  1  0
 28 29  2  0
 29 30  1  0
 30 31  2  0
 31 32  1  0
 16 11  1  0
 32 24  1  0
 32 27  1  0
  1 33  1  0
  1 34  1  0
  1 35  1  0
  2 36  1  0
  2 37  1  0
  3 38  1  0
  3 39  1  0
  4 40  1  0
  4 41  1  0
  5 42  1  6
  8 43  1  0
  9 44  1  6
 10 45  1  0
 10 46  1  0
 11 47  1  0
 12 48  1  0
 12 49  1  0
 13 50  1  0
 13 51  1  0
 14 52  1  0
 14 53  1  0
 15 54  1  0
 15 55  1  0
 16 56  1  0
 16 57  1  0
 22 58  1  0
 22 59  1  0
 23 60  1  0
 23 61  1  0
 23 62  1  0
 28 63  1  0
 29 64  1  0
 30 65  1  0
 31 66  1  0
M  CHG  1  21  -1
M  END
>  <UniqueID>  (61) 
4

>  <SMILES>  (61) 
CCCC[C@H](C(=O)N[C@H](CC1CCCCC1)C(=O)C(=O)[N-]CC)c1nnc2ccccn12

>  <Energy>  (61) 
98.11809302420015

>  <Genealogy>  (61) 
CCCCC(C(=O)NC(CC1CCCCC1)C(=O)C(=O)[N-]CC)c1nnc2ccccn12 (protonated)
CCCC[C@H](C(=O)N[C@H](CC1CCCCC1)C(=O)C(=O)[N-]CC)c1nnc2ccccn12 (chirality)
CCCC[C@H](C(=O)N[C@H](CC1CCCCC1)C(=O)C(=O)[N-]CC)c1nnc2ccccn12 (3D coordinates assigned)
CCCC[C@H](C(=O)N[C@H](CC1CCCCC1)C(=O)C(=O)[N-]CC)c1nnc2ccccn12 (nonaromatic ring conformer: 98.11809302420015 kcal/mol)

>  <smiles>  (61) 
CCCCC(C(=O)NC(CC1CCCCC1)C(=O)C(=O)NCC)c1nnc2ccccn12

>  <score_type>  (61) 
oracle

>  <origin>  (61) 
autodockgpu

>  <m_score__min__energy>  (61) 
-7.4000000000000004

>  <m_primary>  (61) 
energy

>  <meeko>  (61) 
{"free_energy": -6.21, "intermolecular_energy": -9.79, "internal_energy": -3.31, "cluster_size": 5, "cluster_id": 1, "rank_in_cluster": 4}

>  <energy>  (61) 
-7.4

>  <cluster_rmsd>  (61) 
0.0

>  <rmsd>  (61) 
270.3

>  <cluster>  (61) 
1

$$$$
NNKZOUMTYASKLJ-JYRSORQKNA-M
     RDKit          3D

 66 68  0  0  0  0  0  0  0  0999 V2000
  142.9680   80.3230  223.3420 C   0  0  0  0  0  0  0  0  0  0  0  0
  141.6020   79.8750  222.8310 C   0  0  0  0  0  0  0  0  0  0  0  0
  141.4140   80.2520  221.3560 C   0  0  0  0  0  0  0  0  0  0  0  0
  141.1730   79.0330  220.4460 C   0  0  0  0  0  0  0  0  0  0  0  0
  141.7590   77.7120  221.0050 C   0  0  2  0  0  0  0  0  0  0  0  0
  142.5890   76.9610  219.9920 C   0  0  0  0  0  0  0  0  0  0  0  0
  142.8860   77.5280  218.9050 O   0  0  0  0  0  0  0  0  0  0  0  0
  143.0750   75.6370  220.2640 N   0  0  0  0  0  0  0  0  0  0  0  0
  143.9390   74.9200  219.3210 C   0  0  2  0  0  0  0  0  0  0  0  0
  143.1120   74.2840  218.1730 C   0  0  0  0  0  0  0  0  0  0  0  0
  141.6940   73.7890  218.5630 C   0  0  0  0  0  0  0  0  0  0  0  0
  141.6240   73.2060  219.9860 C   0  0  0  0  0  0  0  0  0  0  0  0
  140.2600   72.5490  220.2590 C   0  0  0  0  0  0  0  0  0  0  0  0
  139.0750   73.2960  219.6120 C   0  0  0  0  0  0  0  0  0  0  0  0
  139.4110   74.7580  219.2970 C   0  0  0  0  0  0  0  0  0  0  0  0
  140.5990   74.8660  218.3200 C   0  0  0  0  0  0  0  0  0  0  0  0
  144.6880   73.8430  220.0660 C   0  0  0  0  0  0  0  0  0  0  0  0
  144.2250   73.4270  221.1620 O   0  0  0  0  0  0  0  0  0  0  0  0
  145.9170   73.2400  219.4990 C   0  0  0  0  0  0  0  0  0  0  0  0
  147.0340   73.7530  219.7720 O   0  0  0  0  0  0  0  0  0  0  0  0
  145.8920   72.0780  218.6590 N   0  0  0  0  0  0  0  0  0  0  0  0
  145.1300   70.8610  218.9140 C   0  0  0  0  0  0  0  0  0  0  0  0
  146.0690   69.6660  218.9500 C   0  0  0  0  0  0  0  0  0  0  0  0
  140.7310   76.7820  221.6160 C   0  0  0  0  0  0  0  0  0  0  0  0
  141.0220   75.4900  221.8970 N   0  0  0  0  0  0  0  0  0  0  0  0
  139.9170   74.9100  222.3490 N   0  0  0  0  0  0  0  0  0  0  0  0
  138.9640   75.8560  222.3270 C   0  0  0  0  0  0  0  0  0  0  0  0
  137.6360   75.6940  222.7140 C   0  0  0  0  0  0  0  0  0  0  0  0
  136.7920   76.8080  222.6120 C   0  0  0  0  0  0  0  0  0  0  0  0
  137.2880   78.0330  222.1300 C   0  0  0  0  0  0  0  0  0  0  0  0
  138.6360   78.1360  221.7540 C   0  0  0  0  0  0  0  0  0  0  0  0
  139.4250   77.0320  221.8710 N   0  0  0  0  0  0  0  0  0  0  0  0
  142.9662   80.3224  224.4420 H   0  0  0  0  0  0  0  0  0  0  0  0
  143.7412   79.6314  222.9762 H   0  0  0  0  0  0  0  0  0  0  0  0
  143.1814   81.3382  222.9762 H   0  0  0  0  0  0  0  0  0  0  0  0
  141.5193   78.7832  222.9362 H   0  0  0  0  0  0  0  0  0  0  0  0
  140.8244   80.3801  223.4228 H   0  0  0  0  0  0  0  0  0  0  0  0
  140.5485   80.9260  221.2747 H   0  0  0  0  0  0  0  0  0  0  0  0
  142.3442   80.7332  221.0197 H   0  0  0  0  0  0  0  0  0  0  0  0
  140.0881   78.9046  220.3177 H   0  0  0  0  0  0  0  0  0  0  0  0
  141.6874   79.2355  219.4950 H   0  0  0  0  0  0  0  0  0  0  0  0
  142.4167   78.0478  221.8203 H   0  0  0  0  0  0  0  0  0  0  0  0
  142.9110   75.2230  221.2050 H   0  0  0  0  0  0  0  0  0  0  0  0
  144.6445   75.6356  218.8736 H   0  0  0  0  0  0  0  0  0  0  0  0
  143.0011   75.0367  217.3785 H   0  0  0  0  0  0  0  0  0  0  0  0
  143.6687   73.3877  217.8618 H   0  0  0  0  0  0  0  0  0  0  0  0
  141.4773   72.9537  217.8809 H   0  0  0  0  0  0  0  0  0  0  0  0
  142.4146   72.4500  220.1019 H   0  0  0  0  0  0  0  0  0  0  0  0
  141.7609   74.0286  220.7034 H   0  0  0  0  0  0  0  0  0  0  0  0
  140.2825   71.5230  219.8630 H   0  0  0  0  0  0  0  0  0  0  0  0
  140.1018   72.5735  221.3473 H   0  0  0  0  0  0  0  0  0  0  0  0
  138.8039   72.7858  218.6760 H   0  0  0  0  0  0  0  0  0  0  0  0
  138.2411   73.2894  220.3293 H   0  0  0  0  0  0  0  0  0  0  0  0
  138.5308   75.2376  218.8441 H   0  0  0  0  0  0  0  0  0  0  0  0
  139.6893   75.2586  220.2361 H   0  0  0  0  0  0  0  0  0  0  0  0
  140.2189   74.7524  217.2940 H   0  0  0  0  0  0  0  0  0  0  0  0
  141.0663   75.8485  218.4821 H   0  0  0  0  0  0  0  0  0  0  0  0
  144.6133   70.9491  219.8811 H   0  0  0  0  0  0  0  0  0  0  0  0
  144.3910   70.7193  218.1116 H   0  0  0  0  0  0  0  0  0  0  0  0
  146.2803   69.3971  219.9955 H   0  0  0  0  0  0  0  0  0  0  0  0
  145.5969   68.8132  218.4403 H   0  0  0  0  0  0  0  0  0  0  0  0
  147.0093   69.9230  218.4403 H   0  0  0  0  0  0  0  0  0  0  0  0
  137.2636   74.7280  223.0857 H   0  0  0  0  0  0  0  0  0  0  0  0
  135.7365   76.7242  222.9103 H   0  0  0  0  0  0  0  0  0  0  0  0
  136.6228   78.9053  222.0483 H   0  0  0  0  0  0  0  0  0  0  0  0
  139.0450   79.0840  221.3745 H   0  0  0  0  0  0  0  0  0  0  0  0
  1  2  1  0
  2  3  1  0
  3  4  1  0
  4  5  1  0
  5  6  1  0
  6  7  2  0
  6  8  1  0
  8  9  1  0
  9 10  1  0
 10 11  1  0
 11 12  1  0
 12 13  1  0
 13 14  1  0
 14 15  1  0
 15 16  1  0
  9 17  1  0
 17 18  2  0
 17 19  1  0
 19 20  2  0
 19 21  1  0
 21 22  1  0
 22 23  1  0
  5 24  1  0
 24 25  2  0
 25 26  1  0
 26 27  2  0
 27 28  1  0
 28 29  2  0
 29 30  1  0
 30 31  2  0
 31 32  1  0
 16 11  1  0
 32 24  1  0
 32 27  1  0
  1 33  1  0
  1 34  1  0
  1 35  1  0
  2 36  1  0
  2 37  1  0
  3 38  1  0
  3 39  1  0
  4 40  1  0
  4 41  1  0
  5 42  1  1
  8 43  1  0
  9 44  1  6
 10 45  1  0
 10 46  1  0
 11 47  1  0
 12 48  1  0
 12 49  1  0
 13 50  1  0
 13 51  1  0
 14 52  1  0
 14 53  1  0
 15 54  1  0
 15 55  1  0
 16 56  1  0
 16 57  1  0
 22 58  1  0
 22 59  1  0
 23 60  1  0
 23 61  1  0
 23 62  1  0
 28 63  1  0
 29 64  1  0
 30 65  1  0
 31 66  1  0
M  CHG  1  21  -1
M  END
>  <UniqueID>  (62) 
4

>  <SMILES>  (62) 
CCCC[C@H](C(=O)N[C@H](CC1CCCCC1)C(=O)C(=O)[N-]CC)c1nnc2ccccn12

>  <Energy>  (62) 
98.11809302420015

>  <Genealogy>  (62) 
CCCCC(C(=O)NC(CC1CCCCC1)C(=O)C(=O)[N-]CC)c1nnc2ccccn12 (protonated)
CCCC[C@H](C(=O)N[C@H](CC1CCCCC1)C(=O)C(=O)[N-]CC)c1nnc2ccccn12 (chirality)
CCCC[C@H](C(=O)N[C@H](CC1CCCCC1)C(=O)C(=O)[N-]CC)c1nnc2ccccn12 (3D coordinates assigned)
CCCC[C@H](C(=O)N[C@H](CC1CCCCC1)C(=O)C(=O)[N-]CC)c1nnc2ccccn12 (nonaromatic ring conformer: 98.11809302420015 kcal/mol)

>  <smiles>  (62) 
CCCCC(C(=O)NC(CC1CCCCC1)C(=O)C(=O)NCC)c1nnc2ccccn12

>  <score_type>  (62) 
oracle

>  <origin>  (62) 
autodockgpu

>  <m_score__min__energy>  (62) 
-7.4000000000000004

>  <m_primary>  (62) 
energy

>  <meeko>  (62) 
{"free_energy": -6.0, "intermolecular_energy": -9.58, "internal_energy": -3.88, "cluster_size": 5, "cluster_id": 6, "rank_in_cluster": 2}

>  <energy>  (62) 
-6.76

>  <cluster_rmsd>  (62) 
1.49

>  <rmsd>  (62) 
270.12

>  <cluster>  (62) 
1

$$$$
NNKZOUMTYASKLJ-JYRSORQKNA-M
     RDKit          3D

 66 68  0  0  0  0  0  0  0  0999 V2000
  141.4500   79.4730  223.8490 C   0  0  0  0  0  0  0  0  0  0  0  0
  142.3160   79.9230  222.6770 C   0  0  0  0  0  0  0  0  0  0  0  0
  141.4540   80.2700  221.4550 C   0  0  0  0  0  0  0  0  0  0  0  0
  141.1450   79.0510  220.5670 C   0  0  0  0  0  0  0  0  0  0  0  0
  141.7340   77.7210  221.1050 C   0  0  2  0  0  0  0  0  0  0  0  0
  142.5840   77.0000  220.0880 C   0  0  0  0  0  0  0  0  0  0  0  0
  142.9350   77.6120  219.0420 O   0  0  0  0  0  0  0  0  0  0  0  0
  143.0310   75.6530  220.3130 N   0  0  0  0  0  0  0  0  0  0  0  0
  143.9130   74.9620  219.3670 C   0  0  2  0  0  0  0  0  0  0  0  0
  143.1030   74.3140  218.2140 C   0  0  0  0  0  0  0  0  0  0  0  0
  141.6870   73.8070  218.5920 C   0  0  0  0  0  0  0  0  0  0  0  0
  141.6130   73.2110  220.0100 C   0  0  0  0  0  0  0  0  0  0  0  0
  140.2510   72.5430  220.2690 C   0  0  0  0  0  0  0  0  0  0  0  0
  139.0650   73.2890  219.6220 C   0  0  0  0  0  0  0  0  0  0  0  0
  139.3940   74.7560  219.3230 C   0  0  0  0  0  0  0  0  0  0  0  0
  140.5860   74.8790  218.3530 C   0  0  0  0  0  0  0  0  0  0  0  0
  144.6850   73.8980  220.1080 C   0  0  0  0  0  0  0  0  0  0  0  0
  144.2450   73.4870  221.2160 O   0  0  0  0  0  0  0  0  0  0  0  0
  145.9100   73.3020  219.5260 C   0  0  0  0  0  0  0  0  0  0  0  0
  147.0330   73.7680  219.8510 O   0  0  0  0  0  0  0  0  0  0  0  0
  145.8730   72.1970  218.6130 N   0  0  0  0  0  0  0  0  0  0  0  0
  145.6130   70.8070  218.9690 C   0  0  0  0  0  0  0  0  0  0  0  0
  144.1730   70.6580  219.4330 C   0  0  0  0  0  0  0  0  0  0  0  0
  140.7060   76.7700  221.6810 C   0  0  0  0  0  0  0  0  0  0  0  0
  141.0000   75.4710  221.9250 N   0  0  0  0  0  0  0  0  0  0  0  0
  139.8940   74.8740  222.3520 N   0  0  0  0  0  0  0  0  0  0  0  0
  138.9370   75.8170  222.3520 C   0  0  0  0  0  0  0  0  0  0  0  0
  137.6080   75.6390  222.7250 C   0  0  0  0  0  0  0  0  0  0  0  0
  136.7600   76.7520  222.6520 C   0  0  0  0  0  0  0  0  0  0  0  0
  137.2550   77.9940  222.2110 C   0  0  0  0  0  0  0  0  0  0  0  0
  138.6050   78.1120  221.8470 C   0  0  0  0  0  0  0  0  0  0  0  0
  139.3980   77.0080  221.9360 N   0  0  0  0  0  0  0  0  0  0  0  0
  141.9490   79.7323  224.7944 H   0  0  0  0  0  0  0  0  0  0  0  0
  140.4741   79.9780  223.7989 H   0  0  0  0  0  0  0  0  0  0  0  0
  141.3023   78.3841  223.7989 H   0  0  0  0  0  0  0  0  0  0  0  0
  142.8908   80.8121  222.9755 H   0  0  0  0  0  0  0  0  0  0  0  0
  142.9922   79.0991  222.4053 H   0  0  0  0  0  0  0  0  0  0  0  0
  140.5031   80.6963  221.8072 H   0  0  0  0  0  0  0  0  0  0  0  0
  142.0248   80.9844  220.8436 H   0  0  0  0  0  0  0  0  0  0  0  0
  140.0528   78.9426  220.4942 H   0  0  0  0  0  0  0  0  0  0  0  0
  141.6148   79.2382  219.5902 H   0  0  0  0  0  0  0  0  0  0  0  0
  142.3773   78.0435  221.9369 H   0  0  0  0  0  0  0  0  0  0  0  0
  142.8220   75.1980  221.2260 H   0  0  0  0  0  0  0  0  0  0  0  0
  144.6025   75.6961  218.9246 H   0  0  0  0  0  0  0  0  0  0  0  0
  142.9924   75.0627  217.4158 H   0  0  0  0  0  0  0  0  0  0  0  0
  143.6711   73.4219  217.9117 H   0  0  0  0  0  0  0  0  0  0  0  0
  141.4797   72.9765  217.9012 H   0  0  0  0  0  0  0  0  0  0  0  0
  142.4077   72.4590  220.1239 H   0  0  0  0  0  0  0  0  0  0  0  0
  141.7411   74.0278  220.7355 H   0  0  0  0  0  0  0  0  0  0  0  0
  140.2821   71.5209  219.8635 H   0  0  0  0  0  0  0  0  0  0  0  0
  140.0864   72.5563  221.3565 H   0  0  0  0  0  0  0  0  0  0  0  0
  138.8025   72.7861  218.6795 H   0  0  0  0  0  0  0  0  0  0  0  0
  138.2269   73.2704  220.3342 H   0  0  0  0  0  0  0  0  0  0  0  0
  138.5134   75.2352  218.8703 H   0  0  0  0  0  0  0  0  0  0  0  0
  139.6645   75.2496  220.2681 H   0  0  0  0  0  0  0  0  0  0  0  0
  140.2115   74.7715  217.3243 H   0  0  0  0  0  0  0  0  0  0  0  0
  141.0464   75.8629  218.5259 H   0  0  0  0  0  0  0  0  0  0  0  0
  145.7823   70.1667  218.0907 H   0  0  0  0  0  0  0  0  0  0  0  0
  146.2907   70.5060  219.7815 H   0  0  0  0  0  0  0  0  0  0  0  0
  144.1406   70.6546  220.5325 H   0  0  0  0  0  0  0  0  0  0  0  0
  143.5758   71.4991  219.0511 H   0  0  0  0  0  0  0  0  0  0  0  0
  143.7607   69.7124  219.0511 H   0  0  0  0  0  0  0  0  0  0  0  0
  137.2371   74.6607  223.0646 H   0  0  0  0  0  0  0  0  0  0  0  0
  135.7029   76.6550  222.9405 H   0  0  0  0  0  0  0  0  0  0  0  0
  136.5876   78.8664  222.1522 H   0  0  0  0  0  0  0  0  0  0  0  0
  139.0129   79.0723  221.4984 H   0  0  0  0  0  0  0  0  0  0  0  0
  1  2  1  0
  2  3  1  0
  3  4  1  0
  4  5  1  0
  5  6  1  0
  6  7  2  0
  6  8  1  0
  8  9  1  0
  9 10  1  0
 10 11  1  0
 11 12  1  0
 12 13  1  0
 13 14  1  0
 14 15  1  0
 15 16  1  0
  9 17  1  0
 17 18  2  0
 17 19  1  0
 19 20  2  0
 19 21  1  0
 21 22  1  0
 22 23  1  0
  5 24  1  0
 24 25  2  0
 25 26  1  0
 26 27  2  0
 27 28  1  0
 28 29  2  0
 29 30  1  0
 30 31  2  0
 31 32  1  0
 16 11  1  0
 32 24  1  0
 32 27  1  0
  1 33  1  0
  1 34  1  0
  1 35  1  0
  2 36  1  0
  2 37  1  0
  3 38  1  0
  3 39  1  0
  4 40  1  0
  4 41  1  0
  5 42  1  1
  8 43  1  0
  9 44  1  6
 10 45  1  0
 10 46  1  0
 11 47  1  0
 12 48  1  0
 12 49  1  0
 13 50  1  0
 13 51  1  0
 14 52  1  0
 14 53  1  0
 15 54  1  0
 15 55  1  0
 16 56  1  0
 16 57  1  0
 22 58  1  0
 22 59  1  0
 23 60  1  0
 23 61  1  0
 23 62  1  0
 28 63  1  0
 29 64  1  0
 30 65  1  0
 31 66  1  0
M  CHG  1  21  -1
M  END
>  <UniqueID>  (63) 
4

>  <SMILES>  (63) 
CCCC[C@H](C(=O)N[C@H](CC1CCCCC1)C(=O)C(=O)[N-]CC)c1nnc2ccccn12

>  <Energy>  (63) 
98.11809302420015

>  <Genealogy>  (63) 
CCCCC(C(=O)NC(CC1CCCCC1)C(=O)C(=O)[N-]CC)c1nnc2ccccn12 (protonated)
CCCC[C@H](C(=O)N[C@H](CC1CCCCC1)C(=O)C(=O)[N-]CC)c1nnc2ccccn12 (chirality)
CCCC[C@H](C(=O)N[C@H](CC1CCCCC1)C(=O)C(=O)[N-]CC)c1nnc2ccccn12 (3D coordinates assigned)
CCCC[C@H](C(=O)N[C@H](CC1CCCCC1)C(=O)C(=O)[N-]CC)c1nnc2ccccn12 (nonaromatic ring conformer: 98.11809302420015 kcal/mol)

>  <smiles>  (63) 
CCCCC(C(=O)NC(CC1CCCCC1)C(=O)C(=O)NCC)c1nnc2ccccn12

>  <score_type>  (63) 
oracle

>  <origin>  (63) 
autodockgpu

>  <m_score__min__energy>  (63) 
-7.4000000000000004

>  <m_primary>  (63) 
energy

>  <meeko>  (63) 
{"free_energy": -5.89, "intermolecular_energy": -9.47, "internal_energy": -4.06, "cluster_size": 5, "cluster_id": 6, "rank_in_cluster": 5}

>  <energy>  (63) 
-6.72

>  <cluster_rmsd>  (63) 
1.52

>  <rmsd>  (63) 
270.12

>  <cluster>  (63) 
1

$$$$
NNKZOUMTYASKLJ-JYRSORQKNA-M
     RDKit          3D

 66 68  0  0  0  0  0  0  0  0999 V2000
  138.9180   73.7170  221.5340 C   0  0  0  0  0  0  0  0  0  0  0  0
  140.3930   73.4950  221.8560 C   0  0  0  0  0  0  0  0  0  0  0  0
  140.6330   72.0780  222.3920 C   0  0  0  0  0  0  0  0  0  0  0  0
  139.5810   71.6360  223.4270 C   0  0  0  0  0  0  0  0  0  0  0  0
  139.1830   70.1420  223.3150 C   0  0  2  0  0  0  0  0  0  0  0  0
  137.7910   69.9430  222.7680 C   0  0  0  0  0  0  0  0  0  0  0  0
  137.5800   70.1560  221.5430 O   0  0  0  0  0  0  0  0  0  0  0  0
  136.7210   69.4800  223.6080 N   0  0  0  0  0  0  0  0  0  0  0  0
  135.3800   69.2160  223.0780 C   0  0  2  0  0  0  0  0  0  0  0  0
  134.6960   70.5250  222.6030 C   0  0  0  0  0  0  0  0  0  0  0  0
  135.1440   71.8180  223.3330 C   0  0  0  0  0  0  0  0  0  0  0  0
  135.3820   73.0030  222.3770 C   0  0  0  0  0  0  0  0  0  0  0  0
  136.0140   74.2000  223.1110 C   0  0  0  0  0  0  0  0  0  0  0  0
  135.4870   74.3890  224.5500 C   0  0  0  0  0  0  0  0  0  0  0  0
  134.1260   73.7170  224.7640 C   0  0  0  0  0  0  0  0  0  0  0  0
  134.2000   72.1990  224.5080 C   0  0  0  0  0  0  0  0  0  0  0  0
  134.5470   68.5690  224.1580 C   0  0  0  0  0  0  0  0  0  0  0  0
  133.9940   67.4620  223.9170 O   0  0  0  0  0  0  0  0  0  0  0  0
  134.4210   69.1900  225.4970 C   0  0  0  0  0  0  0  0  0  0  0  0
  135.4030   69.8130  225.9780 O   0  0  0  0  0  0  0  0  0  0  0  0
  133.2150   69.1250  226.2690 N   0  0  0  0  0  0  0  0  0  0  0  0
  132.0430   69.9740  226.0880 C   0  0  0  0  0  0  0  0  0  0  0  0
  132.2260   71.2720  226.8560 C   0  0  0  0  0  0  0  0  0  0  0  0
  139.3480   69.3540  224.5980 C   0  0  0  0  0  0  0  0  0  0  0  0
  138.8240   68.1140  224.7400 N   0  0  0  0  0  0  0  0  0  0  0  0
  139.0620   67.7080  225.9820 N   0  0  0  0  0  0  0  0  0  0  0  0
  139.7200   68.7130  226.5820 C   0  0  0  0  0  0  0  0  0  0  0  0
  140.1700   68.7300  227.8990 C   0  0  0  0  0  0  0  0  0  0  0  0
  140.8360   69.8800  228.3420 C   0  0  0  0  0  0  0  0  0  0  0  0
  141.0280   70.9690  227.4710 C   0  0  0  0  0  0  0  0  0  0  0  0
  140.5510   70.8950  226.1540 C   0  0  0  0  0  0  0  0  0  0  0  0
  139.9120   69.7590  225.7600 N   0  0  0  0  0  0  0  0  0  0  0  0
  138.3472   73.8029  222.4704 H   0  0  0  0  0  0  0  0  0  0  0  0
  138.8055   74.6422  220.9498 H   0  0  0  0  0  0  0  0  0  0  0  0
  138.5381   72.8659  220.9498 H   0  0  0  0  0  0  0  0  0  0  0  0
  140.9862   73.6384  220.9408 H   0  0  0  0  0  0  0  0  0  0  0  0
  140.6948   74.2171  222.6289 H   0  0  0  0  0  0  0  0  0  0  0  0
  140.6085   71.3752  221.5462 H   0  0  0  0  0  0  0  0  0  0  0  0
  141.6096   72.0803  222.8981 H   0  0  0  0  0  0  0  0  0  0  0  0
  139.9891   71.8118  224.4332 H   0  0  0  0  0  0  0  0  0  0  0  0
  138.6727   72.2252  223.2325 H   0  0  0  0  0  0  0  0  0  0  0  0
  139.9063   69.7372  222.5919 H   0  0  0  0  0  0  0  0  0  0  0  0
  136.9330   69.2080  224.5910 H   0  0  0  0  0  0  0  0  0  0  0  0
  135.4677   68.5458  222.2102 H   0  0  0  0  0  0  0  0  0  0  0  0
  134.9109   70.6496  221.5314 H   0  0  0  0  0  0  0  0  0  0  0  0
  133.6265   70.4057  222.8311 H   0  0  0  0  0  0  0  0  0  0  0  0
  136.1226   71.5800  223.7754 H   0  0  0  0  0  0  0  0  0  0  0  0
  136.0567   72.6815  221.5699 H   0  0  0  0  0  0  0  0  0  0  0  0
  134.4102   73.3203  221.9709 H   0  0  0  0  0  0  0  0  0  0  0  0
  137.1021   74.0454  223.1563 H   0  0  0  0  0  0  0  0  0  0  0  0
  135.7440   75.1046  222.5464 H   0  0  0  0  0  0  0  0  0  0  0  0
  136.2118   73.9517  225.2525 H   0  0  0  0  0  0  0  0  0  0  0  0
  135.3605   75.4679  224.7231 H   0  0  0  0  0  0  0  0  0  0  0  0
  133.8012   73.8894  225.8007 H   0  0  0  0  0  0  0  0  0  0  0  0
  133.4097   74.1529  224.0520 H   0  0  0  0  0  0  0  0  0  0  0  0
  134.5652   71.7083  225.4222 H   0  0  0  0  0  0  0  0  0  0  0  0
  133.1882   71.8655  224.2339 H   0  0  0  0  0  0  0  0  0  0  0  0
  131.9150   70.1971  225.0185 H   0  0  0  0  0  0  0  0  0  0  0  0
  131.1525   69.4502  226.4658 H   0  0  0  0  0  0  0  0  0  0  0  0
  132.1970   71.0661  227.9362 H   0  0  0  0  0  0  0  0  0  0  0  0
  133.1961   71.7195  226.5939 H   0  0  0  0  0  0  0  0  0  0  0  0
  131.4174   71.9702  226.5939 H   0  0  0  0  0  0  0  0  0  0  0  0
  140.0085   67.8716  228.5677 H   0  0  0  0  0  0  0  0  0  0  0  0
  141.2105   69.9323  229.3749 H   0  0  0  0  0  0  0  0  0  0  0  0
  141.5489   71.8724  227.8210 H   0  0  0  0  0  0  0  0  0  0  0  0
  140.6897   71.7342  225.4565 H   0  0  0  0  0  0  0  0  0  0  0  0
  1  2  1  0
  2  3  1  0
  3  4  1  0
  4  5  1  0
  5  6  1  0
  6  7  2  0
  6  8  1  0
  8  9  1  0
  9 10  1  0
 10 11  1  0
 11 12  1  0
 12 13  1  0
 13 14  1  0
 14 15  1  0
 15 16  1  0
  9 17  1  0
 17 18  2  0
 17 19  1  0
 19 20  2  0
 19 21  1  0
 21 22  1  0
 22 23  1  0
  5 24  1  0
 24 25  2  0
 25 26  1  0
 26 27  2  0
 27 28  1  0
 28 29  2  0
 29 30  1  0
 30 31  2  0
 31 32  1  0
 16 11  1  0
 32 24  1  0
 32 27  1  0
  1 33  1  0
  1 34  1  0
  1 35  1  0
  2 36  1  0
  2 37  1  0
  3 38  1  0
  3 39  1  0
  4 40  1  0
  4 41  1  0
  5 42  1  6
  8 43  1  0
  9 44  1  6
 10 45  1  0
 10 46  1  0
 11 47  1  0
 12 48  1  0
 12 49  1  0
 13 50  1  0
 13 51  1  0
 14 52  1  0
 14 53  1  0
 15 54  1  0
 15 55  1  0
 16 56  1  0
 16 57  1  0
 22 58  1  0
 22 59  1  0
 23 60  1  0
 23 61  1  0
 23 62  1  0
 28 63  1  0
 29 64  1  0
 30 65  1  0
 31 66  1  0
M  CHG  1  21  -1
M  END
>  <UniqueID>  (64) 
4

>  <SMILES>  (64) 
CCCC[C@H](C(=O)N[C@H](CC1CCCCC1)C(=O)C(=O)[N-]CC)c1nnc2ccccn12

>  <Energy>  (64) 
98.11809302420015

>  <Genealogy>  (64) 
CCCCC(C(=O)NC(CC1CCCCC1)C(=O)C(=O)[N-]CC)c1nnc2ccccn12 (protonated)
CCCC[C@H](C(=O)N[C@H](CC1CCCCC1)C(=O)C(=O)[N-]CC)c1nnc2ccccn12 (chirality)
CCCC[C@H](C(=O)N[C@H](CC1CCCCC1)C(=O)C(=O)[N-]CC)c1nnc2ccccn12 (3D coordinates assigned)
CCCC[C@H](C(=O)N[C@H](CC1CCCCC1)C(=O)C(=O)[N-]CC)c1nnc2ccccn12 (nonaromatic ring conformer: 98.11809302420015 kcal/mol)

>  <smiles>  (64) 
CCCCC(C(=O)NC(CC1CCCCC1)C(=O)C(=O)NCC)c1nnc2ccccn12

>  <score_type>  (64) 
oracle

>  <origin>  (64) 
autodockgpu

>  <m_score__min__energy>  (64) 
-7.4000000000000004

>  <m_primary>  (64) 
energy

>  <meeko>  (64) 
{"free_energy": -5.91, "intermolecular_energy": -9.49, "internal_energy": -3.76, "cluster_size": 5, "cluster_id": 1, "rank_in_cluster": 5}

>  <energy>  (64) 
-6.21

>  <cluster_rmsd>  (64) 
1.62

>  <rmsd>  (64) 
270.36

>  <cluster>  (64) 
1

$$$$
NNKZOUMTYASKLJ-JYRSORQKNA-M
     RDKit          3D

 66 68  0  0  0  0  0  0  0  0999 V2000
  133.9170   67.4060  226.1160 C   0  0  0  0  0  0  0  0  0  0  0  0
  132.7120   68.0950  225.4850 C   0  0  0  0  0  0  0  0  0  0  0  0
  133.0740   69.5030  224.9960 C   0  0  0  0  0  0  0  0  0  0  0  0
  134.4580   69.9750  225.4820 C   0  0  0  0  0  0  0  0  0  0  0  0
  135.2410   70.8010  224.4300 C   0  0  2  0  0  0  0  0  0  0  0  0
  136.7000   70.4230  224.3520 C   0  0  0  0  0  0  0  0  0  0  0  0
  137.0300   69.2190  224.5360 O   0  0  0  0  0  0  0  0  0  0  0  0
  137.7050   71.3990  224.0340 N   0  0  0  0  0  0  0  0  0  0  0  0
  139.1190   71.0360  223.8880 C   0  0  2  0  0  0  0  0  0  0  0  0
  139.9460   71.4920  225.1180 C   0  0  0  0  0  0  0  0  0  0  0  0
  140.5040   70.3520  226.0100 C   0  0  0  0  0  0  0  0  0  0  0  0
  140.3270   70.6180  227.5170 C   0  0  0  0  0  0  0  0  0  0  0  0
  141.0660   69.5670  228.3650 C   0  0  0  0  0  0  0  0  0  0  0  0
  141.0210   68.1470  227.7640 C   0  0  0  0  0  0  0  0  0  0  0  0
  139.8590   67.9680  226.7800 C   0  0  0  0  0  0  0  0  0  0  0  0
  139.9640   68.9530  225.5990 C   0  0  0  0  0  0  0  0  0  0  0  0
  139.6630   71.6840  222.6390 C   0  0  0  0  0  0  0  0  0  0  0  0
  140.4170   71.0130  221.8840 O   0  0  0  0  0  0  0  0  0  0  0  0
  139.2790   73.0660  222.2700 C   0  0  0  0  0  0  0  0  0  0  0  0
  140.1660   73.9580  222.2230 O   0  0  0  0  0  0  0  0  0  0  0  0
  137.9310   73.4350  221.9460 N   0  0  0  0  0  0  0  0  0  0  0  0
  137.1930   73.0030  220.7650 C   0  0  0  0  0  0  0  0  0  0  0  0
  136.5390   71.6580  221.0320 C   0  0  0  0  0  0  0  0  0  0  0  0
  135.1080   72.3010  224.5880 C   0  0  0  0  0  0  0  0  0  0  0  0
  135.8700   73.1600  223.8710 N   0  0  0  0  0  0  0  0  0  0  0  0
  135.5870   74.3930  224.2740 N   0  0  0  0  0  0  0  0  0  0  0  0
  134.6620   74.2670  225.2380 C   0  0  0  0  0  0  0  0  0  0  0  0
  134.0720   75.3060  225.9530 C   0  0  0  0  0  0  0  0  0  0  0  0
  133.1250   74.9660  226.9280 C   0  0  0  0  0  0  0  0  0  0  0  0
  132.8000   73.6170  227.1620 C   0  0  0  0  0  0  0  0  0  0  0  0
  133.4280   72.6120  226.4120 C   0  0  0  0  0  0  0  0  0  0  0  0
  134.3400   72.9830  225.4700 N   0  0  0  0  0  0  0  0  0  0  0  0
  133.8342   67.4533  227.2119 H   0  0  0  0  0  0  0  0  0  0  0  0
  133.9473   66.3541  225.7957 H   0  0  0  0  0  0  0  0  0  0  0  0
  134.8389   67.9135  225.7957 H   0  0  0  0  0  0  0  0  0  0  0  0
  132.3628   67.4967  224.6305 H   0  0  0  0  0  0  0  0  0  0  0  0
  131.9217   68.1818  226.2451 H   0  0  0  0  0  0  0  0  0  0  0  0
  133.0706   69.5031  223.8960 H   0  0  0  0  0  0  0  0  0  0  0  0
  132.3271   70.1961  225.4106 H   0  0  0  0  0  0  0  0  0  0  0  0
  134.3174   70.5979  226.3777 H   0  0  0  0  0  0  0  0  0  0  0  0
  135.0513   69.0717  225.6870 H   0  0  0  0  0  0  0  0  0  0  0  0
  134.7557   70.5319  223.4802 H   0  0  0  0  0  0  0  0  0  0  0  0
  137.4090   72.3650  223.7820 H   0  0  0  0  0  0  0  0  0  0  0  0
  139.1978   69.9413  223.8150 H   0  0  0  0  0  0  0  0  0  0  0  0
  140.7982   72.0837  224.7524 H   0  0  0  0  0  0  0  0  0  0  0  0
  139.2511   72.0596  225.7544 H   0  0  0  0  0  0  0  0  0  0  0  0
  141.5886   70.3417  225.8266 H   0  0  0  0  0  0  0  0  0  0  0  0
  140.7278   71.6146  227.7537 H   0  0  0  0  0  0  0  0  0  0  0  0
  139.2544   70.5614  227.7542 H   0  0  0  0  0  0  0  0  0  0  0  0
  142.1187   69.8724  228.4576 H   0  0  0  0  0  0  0  0  0  0  0  0
  140.5567   69.5217  229.3389 H   0  0  0  0  0  0  0  0  0  0  0  0
  141.9659   67.9572  227.2338 H   0  0  0  0  0  0  0  0  0  0  0  0
  140.8743   67.4363  228.5907 H   0  0  0  0  0  0  0  0  0  0  0  0
  139.8753   66.9394  226.3905 H   0  0  0  0  0  0  0  0  0  0  0  0
  138.9189   68.1685  227.3149 H   0  0  0  0  0  0  0  0  0  0  0  0
  140.6422   68.5245  224.8464 H   0  0  0  0  0  0  0  0  0  0  0  0
  138.9471   69.0993  225.2058 H   0  0  0  0  0  0  0  0  0  0  0  0
  136.4173   73.7457  220.5269 H   0  0  0  0  0  0  0  0  0  0  0  0
  137.8870   72.9081  219.9169 H   0  0  0  0  0  0  0  0  0  0  0  0
  136.4609   71.4973  222.1174 H   0  0  0  0  0  0  0  0  0  0  0  0
  135.5336   71.6442  220.5860 H   0  0  0  0  0  0  0  0  0  0  0  0
  137.1490   70.8587  220.5860 H   0  0  0  0  0  0  0  0  0  0  0  0
  134.3396   76.3553  225.7595 H   0  0  0  0  0  0  0  0  0  0  0  0
  132.6333   75.7571  227.5132 H   0  0  0  0  0  0  0  0  0  0  0  0
  132.0574   73.3522  227.9291 H   0  0  0  0  0  0  0  0  0  0  0  0
  133.1904   71.5512  226.5799 H   0  0  0  0  0  0  0  0  0  0  0  0
  1  2  1  0
  2  3  1  0
  3  4  1  0
  4  5  1  0
  5  6  1  0
  6  7  2  0
  6  8  1  0
  8  9  1  0
  9 10  1  0
 10 11  1  0
 11 12  1  0
 12 13  1  0
 13 14  1  0
 14 15  1  0
 15 16  1  0
  9 17  1  0
 17 18  2  0
 17 19  1  0
 19 20  2  0
 19 21  1  0
 21 22  1  0
 22 23  1  0
  5 24  1  0
 24 25  2  0
 25 26  1  0
 26 27  2  0
 27 28  1  0
 28 29  2  0
 29 30  1  0
 30 31  2  0
 31 32  1  0
 16 11  1  0
 32 24  1  0
 32 27  1  0
  1 33  1  0
  1 34  1  0
  1 35  1  0
  2 36  1  0
  2 37  1  0
  3 38  1  0
  3 39  1  0
  4 40  1  0
  4 41  1  0
  5 42  1  6
  8 43  1  0
  9 44  1  6
 10 45  1  0
 10 46  1  0
 11 47  1  0
 12 48  1  0
 12 49  1  0
 13 50  1  0
 13 51  1  0
 14 52  1  0
 14 53  1  0
 15 54  1  0
 15 55  1  0
 16 56  1  0
 16 57  1  0
 22 58  1  0
 22 59  1  0
 23 60  1  0
 23 61  1  0
 23 62  1  0
 28 63  1  0
 29 64  1  0
 30 65  1  0
 31 66  1  0
M  CHG  1  21  -1
M  END
>  <UniqueID>  (65) 
4

>  <SMILES>  (65) 
CCCC[C@H](C(=O)N[C@H](CC1CCCCC1)C(=O)C(=O)[N-]CC)c1nnc2ccccn12

>  <Energy>  (65) 
98.11809302420015

>  <Genealogy>  (65) 
CCCCC(C(=O)NC(CC1CCCCC1)C(=O)C(=O)[N-]CC)c1nnc2ccccn12 (protonated)
CCCC[C@H](C(=O)N[C@H](CC1CCCCC1)C(=O)C(=O)[N-]CC)c1nnc2ccccn12 (chirality)
CCCC[C@H](C(=O)N[C@H](CC1CCCCC1)C(=O)C(=O)[N-]CC)c1nnc2ccccn12 (3D coordinates assigned)
CCCC[C@H](C(=O)N[C@H](CC1CCCCC1)C(=O)C(=O)[N-]CC)c1nnc2ccccn12 (nonaromatic ring conformer: 98.11809302420015 kcal/mol)

>  <smiles>  (65) 
CCCCC(C(=O)NC(CC1CCCCC1)C(=O)C(=O)NCC)c1nnc2ccccn12

>  <score_type>  (65) 
oracle

>  <origin>  (65) 
autodockgpu

>  <m_score__min__energy>  (65) 
-7.4000000000000004

>  <m_primary>  (65) 
energy

>  <meeko>  (65) 
{"free_energy": -6.25, "intermolecular_energy": -9.83, "internal_energy": -3.29, "cluster_size": 2, "cluster_id": 4, "rank_in_cluster": 1}

>  <energy>  (65) 
-5.91

>  <cluster_rmsd>  (65) 
1.41

>  <rmsd>  (65) 
269.95

>  <cluster>  (65) 
1

$$$$
NNKZOUMTYASKLJ-JYRSORQKNA-M
     RDKit          3D

 66 68  0  0  0  0  0  0  0  0999 V2000
  141.5780   79.5170  223.6440 C   0  0  0  0  0  0  0  0  0  0  0  0
  142.4890   79.6780  222.4310 C   0  0  0  0  0  0  0  0  0  0  0  0
  141.6810   80.0480  221.1800 C   0  0  0  0  0  0  0  0  0  0  0  0
  141.3680   78.8360  220.2820 C   0  0  0  0  0  0  0  0  0  0  0  0
  141.8260   77.4810  220.8800 C   0  0  2  0  0  0  0  0  0  0  0  0
  142.5400   76.6070  219.8780 C   0  0  0  0  0  0  0  0  0  0  0  0
  142.7350   77.0480  218.7120 O   0  0  0  0  0  0  0  0  0  0  0  0
  143.0310   75.3070  220.2420 N   0  0  0  0  0  0  0  0  0  0  0  0
  143.7850   74.4720  219.3010 C   0  0  2  0  0  0  0  0  0  0  0  0
  142.8990   73.3410  218.7180 C   0  0  0  0  0  0  0  0  0  0  0  0
  141.6070   73.0230  219.5150 C   0  0  0  0  0  0  0  0  0  0  0  0
  140.6450   72.0830  218.7640 C   0  0  0  0  0  0  0  0  0  0  0  0
  139.2980   71.9540  219.4980 C   0  0  0  0  0  0  0  0  0  0  0  0
  139.4310   71.9460  221.0350 C   0  0  0  0  0  0  0  0  0  0  0  0
  140.8380   71.5460  221.4950 C   0  0  0  0  0  0  0  0  0  0  0  0
  141.9050   72.5200  220.9560 C   0  0  0  0  0  0  0  0  0  0  0  0
  144.9690   73.8730  220.0190 C   0  0  0  0  0  0  0  0  0  0  0  0
  145.1360   74.1360  221.2410 O   0  0  0  0  0  0  0  0  0  0  0  0
  145.8920   72.9470  219.3240 C   0  0  0  0  0  0  0  0  0  0  0  0
  146.3140   71.9300  219.9330 O   0  0  0  0  0  0  0  0  0  0  0  0
  146.3180   73.1520  217.9700 N   0  0  0  0  0  0  0  0  0  0  0  0
  145.5320   72.8600  216.7780 C   0  0  0  0  0  0  0  0  0  0  0  0
  145.1380   74.1580  216.0920 C   0  0  0  0  0  0  0  0  0  0  0  0
  140.7250   76.6920  221.5570 C   0  0  0  0  0  0  0  0  0  0  0  0
  140.8620   75.3730  221.8290 N   0  0  0  0  0  0  0  0  0  0  0  0
  139.7200   74.9410  222.3490 N   0  0  0  0  0  0  0  0  0  0  0  0
  138.8980   76.0030  222.3780 C   0  0  0  0  0  0  0  0  0  0  0  0
  137.5860   76.0140  222.8430 C   0  0  0  0  0  0  0  0  0  0  0  0
  136.8890   77.2280  222.7840 C   0  0  0  0  0  0  0  0  0  0  0  0
  137.5100   78.3800  222.2660 C   0  0  0  0  0  0  0  0  0  0  0  0
  138.8350   78.3070  221.8100 C   0  0  0  0  0  0  0  0  0  0  0  0
  139.4810   77.1100  221.8880 N   0  0  0  0  0  0  0  0  0  0  0  0
  142.1711   79.6218  224.5645 H   0  0  0  0  0  0  0  0  0  0  0  0
  140.7967   80.2910  223.6211 H   0  0  0  0  0  0  0  0  0  0  0  0
  141.1093   78.5221  223.6211 H   0  0  0  0  0  0  0  0  0  0  0  0
  143.2211   80.4734  222.6343 H   0  0  0  0  0  0  0  0  0  0  0  0
  142.9996   78.7211  222.2474 H   0  0  0  0  0  0  0  0  0  0  0  0
  140.7311   80.5022  221.4985 H   0  0  0  0  0  0  0  0  0  0  0  0
  142.2931   80.7448  220.5886 H   0  0  0  0  0  0  0  0  0  0  0  0
  140.2806   78.7946  220.1215 H   0  0  0  0  0  0  0  0  0  0  0  0
  141.9261   78.9783  219.3448 H   0  0  0  0  0  0  0  0  0  0  0  0
  142.5402   77.7749  221.6633 H   0  0  0  0  0  0  0  0  0  0  0  0
  142.9560   74.9990  221.2340 H   0  0  0  0  0  0  0  0  0  0  0  0
  144.1243   75.1006  218.4645 H   0  0  0  0  0  0  0  0  0  0  0  0
  142.6048   73.6329  217.6991 H   0  0  0  0  0  0  0  0  0  0  0  0
  143.5108   72.4278  218.7601 H   0  0  0  0  0  0  0  0  0  0  0  0
  141.0796   73.9833  219.6135 H   0  0  0  0  0  0  0  0  0  0  0  0
  140.4661   72.4851  217.7559 H   0  0  0  0  0  0  0  0  0  0  0  0
  141.1068   71.0861  218.7105 H   0  0  0  0  0  0  0  0  0  0  0  0
  138.6613   72.8030  219.2084 H   0  0  0  0  0  0  0  0  0  0  0  0
  138.8630   70.9866  219.2066 H   0  0  0  0  0  0  0  0  0  0  0  0
  139.2079   72.9540  221.4147 H   0  0  0  0  0  0  0  0  0  0  0  0
  138.7235   71.2023  221.4303 H   0  0  0  0  0  0  0  0  0  0  0  0
  140.8703   71.5526  222.5945 H   0  0  0  0  0  0  0  0  0  0  0  0
  141.0573   70.5416  221.1038 H   0  0  0  0  0  0  0  0  0  0  0  0
  141.9536   73.3906  221.6266 H   0  0  0  0  0  0  0  0  0  0  0  0
  142.8578   71.9715  220.9190 H   0  0  0  0  0  0  0  0  0  0  0  0
  146.1302   72.2482  216.0867 H   0  0  0  0  0  0  0  0  0  0  0  0
  144.6237   72.3108  217.0667 H   0  0  0  0  0  0  0  0  0  0  0  0
  144.9070   74.9189  216.8520 H   0  0  0  0  0  0  0  0  0  0  0  0
  145.9704   74.5080  215.4638 H   0  0  0  0  0  0  0  0  0  0  0  0
  144.2515   73.9863  215.4638 H   0  0  0  0  0  0  0  0  0  0  0  0
  137.1142   75.1038  223.2418 H   0  0  0  0  0  0  0  0  0  0  0  0
  135.8511   77.2811  223.1444 H   0  0  0  0  0  0  0  0  0  0  0  0
  136.9601   79.3315  222.2190 H   0  0  0  0  0  0  0  0  0  0  0  0
  139.3396   79.1942  221.3997 H   0  0  0  0  0  0  0  0  0  0  0  0
  1  2  1  0
  2  3  1  0
  3  4  1  0
  4  5  1  0
  5  6  1  0
  6  7  2  0
  6  8  1  0
  8  9  1  0
  9 10  1  0
 10 11  1  0
 11 12  1  0
 12 13  1  0
 13 14  1  0
 14 15  1  0
 15 16  1  0
  9 17  1  0
 17 18  2  0
 17 19  1  0
 19 20  2  0
 19 21  1  0
 21 22  1  0
 22 23  1  0
  5 24  1  0
 24 25  2  0
 25 26  1  0
 26 27  2  0
 27 28  1  0
 28 29  2  0
 29 30  1  0
 30 31  2  0
 31 32  1  0
 16 11  1  0
 32 24  1  0
 32 27  1  0
  1 33  1  0
  1 34  1  0
  1 35  1  0
  2 36  1  0
  2 37  1  0
  3 38  1  0
  3 39  1  0
  4 40  1  0
  4 41  1  0
  5 42  1  1
  8 43  1  0
  9 44  1  6
 10 45  1  0
 10 46  1  0
 11 47  1  0
 12 48  1  0
 12 49  1  0
 13 50  1  0
 13 51  1  0
 14 52  1  0
 14 53  1  0
 15 54  1  0
 15 55  1  0
 16 56  1  0
 16 57  1  0
 22 58  1  0
 22 59  1  0
 23 60  1  0
 23 61  1  0
 23 62  1  0
 28 63  1  0
 29 64  1  0
 30 65  1  0
 31 66  1  0
M  CHG  1  21  -1
M  END
>  <UniqueID>  (66) 
4

>  <SMILES>  (66) 
CCCC[C@H](C(=O)N[C@H](CC1CCCCC1)C(=O)C(=O)[N-]CC)c1nnc2ccccn12

>  <Energy>  (66) 
98.11809302420015

>  <Genealogy>  (66) 
CCCCC(C(=O)NC(CC1CCCCC1)C(=O)C(=O)[N-]CC)c1nnc2ccccn12 (protonated)
CCCC[C@H](C(=O)N[C@H](CC1CCCCC1)C(=O)C(=O)[N-]CC)c1nnc2ccccn12 (chirality)
CCCC[C@H](C(=O)N[C@H](CC1CCCCC1)C(=O)C(=O)[N-]CC)c1nnc2ccccn12 (3D coordinates assigned)
CCCC[C@H](C(=O)N[C@H](CC1CCCCC1)C(=O)C(=O)[N-]CC)c1nnc2ccccn12 (nonaromatic ring conformer: 98.11809302420015 kcal/mol)

>  <smiles>  (66) 
CCCCC(C(=O)NC(CC1CCCCC1)C(=O)C(=O)NCC)c1nnc2ccccn12

>  <score_type>  (66) 
oracle

>  <origin>  (66) 
autodockgpu

>  <m_score__min__energy>  (66) 
-7.4000000000000004

>  <m_primary>  (66) 
energy

>  <meeko>  (66) 
{"free_energy": -6.06, "intermolecular_energy": -9.64, "internal_energy": -3.58, "cluster_size": 5, "cluster_id": 6, "rank_in_cluster": 1}

>  <energy>  (66) 
-6.67

>  <cluster_rmsd>  (66) 
0.0

>  <rmsd>  (66) 
270.96

>  <cluster>  (66) 
2

$$$$
NNKZOUMTYASKLJ-JYRSORQKNA-M
     RDKit          3D

 66 68  0  0  0  0  0  0  0  0999 V2000
  141.4890   79.4370  223.8400 C   0  0  0  0  0  0  0  0  0  0  0  0
  142.3240   79.9020  222.6500 C   0  0  0  0  0  0  0  0  0  0  0  0
  141.4320   80.2430  221.4500 C   0  0  0  0  0  0  0  0  0  0  0  0
  141.1910   79.0430  220.5160 C   0  0  0  0  0  0  0  0  0  0  0  0
  141.7660   77.7080  221.0530 C   0  0  2  0  0  0  0  0  0  0  0  0
  142.5940   76.9690  220.0290 C   0  0  0  0  0  0  0  0  0  0  0  0
  142.8830   77.5480  218.9460 O   0  0  0  0  0  0  0  0  0  0  0  0
  143.0870   75.6450  220.2870 N   0  0  0  0  0  0  0  0  0  0  0  0
  143.9480   74.9400  219.3330 C   0  0  2  0  0  0  0  0  0  0  0  0
  143.1150   74.2900  218.1970 C   0  0  0  0  0  0  0  0  0  0  0  0
  141.7160   73.7630  218.6100 C   0  0  0  0  0  0  0  0  0  0  0  0
  141.6740   73.2110  220.0470 C   0  0  0  0  0  0  0  0  0  0  0  0
  140.3310   72.5200  220.3460 C   0  0  0  0  0  0  0  0  0  0  0  0
  139.1200   73.2170  219.6910 C   0  0  0  0  0  0  0  0  0  0  0  0
  139.4110   74.6810  219.3400 C   0  0  0  0  0  0  0  0  0  0  0  0
  140.5880   74.8010  218.3510 C   0  0  0  0  0  0  0  0  0  0  0  0
  144.7240   73.8750  220.0690 C   0  0  0  0  0  0  0  0  0  0  0  0
  144.2910   73.4660  221.1800 O   0  0  0  0  0  0  0  0  0  0  0  0
  145.9440   73.2770  219.4780 C   0  0  0  0  0  0  0  0  0  0  0  0
  147.0680   73.7610  219.7720 O   0  0  0  0  0  0  0  0  0  0  0  0
  145.9020   72.1510  218.5920 N   0  0  0  0  0  0  0  0  0  0  0  0
  145.6510   70.7690  218.9840 C   0  0  0  0  0  0  0  0  0  0  0  0
  144.2050   70.6160  219.4260 C   0  0  0  0  0  0  0  0  0  0  0  0
  140.7310   76.7740  221.6460 C   0  0  0  0  0  0  0  0  0  0  0  0
  141.0130   75.4770  221.9060 N   0  0  0  0  0  0  0  0  0  0  0  0
  139.9030   74.8950  222.3450 N   0  0  0  0  0  0  0  0  0  0  0  0
  138.9560   75.8470  222.3360 C   0  0  0  0  0  0  0  0  0  0  0  0
  137.6260   75.6880  222.7150 C   0  0  0  0  0  0  0  0  0  0  0  0
  136.7890   76.8080  222.6300 C   0  0  0  0  0  0  0  0  0  0  0  0
  137.2940   78.0380  222.1700 C   0  0  0  0  0  0  0  0  0  0  0  0
  138.6440   78.1390  221.8000 C   0  0  0  0  0  0  0  0  0  0  0  0
  139.4260   77.0290  221.9010 N   0  0  0  0  0  0  0  0  0  0  0  0
  141.9948   79.7187  224.7753 H   0  0  0  0  0  0  0  0  0  0  0  0
  140.4982   79.9133  223.8012 H   0  0  0  0  0  0  0  0  0  0  0  0
  141.3722   78.3439  223.8012 H   0  0  0  0  0  0  0  0  0  0  0  0
  142.8948   80.7967  222.9392 H   0  0  0  0  0  0  0  0  0  0  0  0
  143.0037   79.0872  222.3601 H   0  0  0  0  0  0  0  0  0  0  0  0
  140.4599   80.5952  221.8254 H   0  0  0  0  0  0  0  0  0  0  0  0
  141.9518   81.0154  220.8641 H   0  0  0  0  0  0  0  0  0  0  0  0
  140.1063   78.9230  220.3782 H   0  0  0  0  0  0  0  0  0  0  0  0
  141.7134   79.2608  219.5728 H   0  0  0  0  0  0  0  0  0  0  0  0
  142.4234   78.0255  221.8758 H   0  0  0  0  0  0  0  0  0  0  0  0
  142.9290   75.2210  221.2250 H   0  0  0  0  0  0  0  0  0  0  0  0
  144.6361   75.6657  218.8749 H   0  0  0  0  0  0  0  0  0  0  0  0
  142.9737   75.0428  217.4075 H   0  0  0  0  0  0  0  0  0  0  0  0
  143.6856   73.4073  217.8724 H   0  0  0  0  0  0  0  0  0  0  0  0
  141.5190   72.9059  217.9493 H   0  0  0  0  0  0  0  0  0  0  0  0
  142.4875   72.4815  220.1738 H   0  0  0  0  0  0  0  0  0  0  0  0
  141.7919   74.0535  220.7444 H   0  0  0  0  0  0  0  0  0  0  0  0
  140.3810   71.4862  219.9735 H   0  0  0  0  0  0  0  0  0  0  0  0
  140.1798   72.5647  221.4346 H   0  0  0  0  0  0  0  0  0  0  0  0
  138.8575   72.6776  218.7690 H   0  0  0  0  0  0  0  0  0  0  0  0
  138.2916   73.2027  220.4145 H   0  0  0  0  0  0  0  0  0  0  0  0
  138.5138   75.1244  218.8835 H   0  0  0  0  0  0  0  0  0  0  0  0
  139.6818   75.2108  220.2652 H   0  0  0  0  0  0  0  0  0  0  0  0
  140.2038   74.6521  217.3311 H   0  0  0  0  0  0  0  0  0  0  0  0
  141.0271   75.8004  218.4863 H   0  0  0  0  0  0  0  0  0  0  0  0
  145.8438   70.1055  218.1281 H   0  0  0  0  0  0  0  0  0  0  0  0
  146.3168   70.5003  219.8173 H   0  0  0  0  0  0  0  0  0  0  0  0
  144.1561   70.6108  220.5249 H   0  0  0  0  0  0  0  0  0  0  0  0
  143.6117   71.4564  219.0365 H   0  0  0  0  0  0  0  0  0  0  0  0
  143.8007   69.6701  219.0365 H   0  0  0  0  0  0  0  0  0  0  0  0
  137.2461   74.7181  223.0684 H   0  0  0  0  0  0  0  0  0  0  0  0
  135.7323   76.7255  222.9242 H   0  0  0  0  0  0  0  0  0  0  0  0
  136.6344   78.9156  222.1007 H   0  0  0  0  0  0  0  0  0  0  0  0
  139.0598   79.0907  221.4376 H   0  0  0  0  0  0  0  0  0  0  0  0
  1  2  1  0
  2  3  1  0
  3  4  1  0
  4  5  1  0
  5  6  1  0
  6  7  2  0
  6  8  1  0
  8  9  1  0
  9 10  1  0
 10 11  1  0
 11 12  1  0
 12 13  1  0
 13 14  1  0
 14 15  1  0
 15 16  1  0
  9 17  1  0
 17 18  2  0
 17 19  1  0
 19 20  2  0
 19 21  1  0
 21 22  1  0
 22 23  1  0
  5 24  1  0
 24 25  2  0
 25 26  1  0
 26 27  2  0
 27 28  1  0
 28 29  2  0
 29 30  1  0
 30 31  2  0
 31 32  1  0
 16 11  1  0
 32 24  1  0
 32 27  1  0
  1 33  1  0
  1 34  1  0
  1 35  1  0
  2 36  1  0
  2 37  1  0
  3 38  1  0
  3 39  1  0
  4 40  1  0
  4 41  1  0
  5 42  1  1
  8 43  1  0
  9 44  1  6
 10 45  1  0
 10 46  1  0
 11 47  1  0
 12 48  1  0
 12 49  1  0
 13 50  1  0
 13 51  1  0
 14 52  1  0
 14 53  1  0
 15 54  1  0
 15 55  1  0
 16 56  1  0
 16 57  1  0
 22 58  1  0
 22 59  1  0
 23 60  1  0
 23 61  1  0
 23 62  1  0
 28 63  1  0
 29 64  1  0
 30 65  1  0
 31 66  1  0
M  CHG  1  21  -1
M  END
>  <UniqueID>  (67) 
4

>  <SMILES>  (67) 
CCCC[C@H](C(=O)N[C@H](CC1CCCCC1)C(=O)C(=O)[N-]CC)c1nnc2ccccn12

>  <Energy>  (67) 
98.11809302420015

>  <Genealogy>  (67) 
CCCCC(C(=O)NC(CC1CCCCC1)C(=O)C(=O)[N-]CC)c1nnc2ccccn12 (protonated)
CCCC[C@H](C(=O)N[C@H](CC1CCCCC1)C(=O)C(=O)[N-]CC)c1nnc2ccccn12 (chirality)
CCCC[C@H](C(=O)N[C@H](CC1CCCCC1)C(=O)C(=O)[N-]CC)c1nnc2ccccn12 (3D coordinates assigned)
CCCC[C@H](C(=O)N[C@H](CC1CCCCC1)C(=O)C(=O)[N-]CC)c1nnc2ccccn12 (nonaromatic ring conformer: 98.11809302420015 kcal/mol)

>  <smiles>  (67) 
CCCCC(C(=O)NC(CC1CCCCC1)C(=O)C(=O)NCC)c1nnc2ccccn12

>  <score_type>  (67) 
oracle

>  <origin>  (67) 
autodockgpu

>  <m_score__min__energy>  (67) 
-7.4000000000000004

>  <m_primary>  (67) 
energy

>  <meeko>  (67) 
{"free_energy": -5.97, "intermolecular_energy": -9.55, "internal_energy": -4.03, "cluster_size": 5, "cluster_id": 6, "rank_in_cluster": 3}

>  <energy>  (67) 
-6.61

>  <cluster_rmsd>  (67) 
0.0

>  <rmsd>  (67) 
270.72

>  <cluster>  (67) 
3

$$$$
NNKZOUMTYASKLJ-JYRSORQKNA-M
     RDKit          3D

 66 68  0  0  0  0  0  0  0  0999 V2000
  134.3210   70.7870  227.5320 C   0  0  0  0  0  0  0  0  0  0  0  0
  134.3240   69.7570  226.4060 C   0  0  0  0  0  0  0  0  0  0  0  0
  135.3980   70.0860  225.3610 C   0  0  0  0  0  0  0  0  0  0  0  0
  134.8130   70.6110  224.0370 C   0  0  0  0  0  0  0  0  0  0  0  0
  135.8290   71.4020  223.1740 C   0  0  2  0  0  0  0  0  0  0  0  0
  137.2400   70.8810  223.3020 C   0  0  0  0  0  0  0  0  0  0  0  0
  137.4240   69.6380  223.4150 O   0  0  0  0  0  0  0  0  0  0  0  0
  138.3680   71.7700  223.2560 N   0  0  0  0  0  0  0  0  0  0  0  0
  139.7470   71.2750  223.3110 C   0  0  2  0  0  0  0  0  0  0  0  0
  140.4310   71.6620  224.6480 C   0  0  0  0  0  0  0  0  0  0  0  0
  140.0820   70.7630  225.8640 C   0  0  0  0  0  0  0  0  0  0  0  0
  140.3530   69.2680  225.6120 C   0  0  0  0  0  0  0  0  0  0  0  0
  139.8110   68.3970  226.7590 C   0  0  0  0  0  0  0  0  0  0  0  0
  139.9660   69.0440  228.1520 C   0  0  0  0  0  0  0  0  0  0  0  0
  141.0540   70.1230  228.1740 C   0  0  0  0  0  0  0  0  0  0  0  0
  140.7400   71.2610  227.1820 C   0  0  0  0  0  0  0  0  0  0  0  0
  140.5220   71.8590  222.1550 C   0  0  0  0  0  0  0  0  0  0  0  0
  141.0590   71.0760  221.3260 O   0  0  0  0  0  0  0  0  0  0  0  0
  140.6080   73.3240  221.9600 C   0  0  0  0  0  0  0  0  0  0  0  0
  141.6300   73.8110  221.4100 O   0  0  0  0  0  0  0  0  0  0  0  0
  139.5620   74.2210  222.3580 N   0  0  0  0  0  0  0  0  0  0  0  0
  139.6270   75.6770  222.3140 C   0  0  0  0  0  0  0  0  0  0  0  0
  138.6680   76.2010  221.2580 C   0  0  0  0  0  0  0  0  0  0  0  0
  135.8120   72.8990  223.4030 C   0  0  0  0  0  0  0  0  0  0  0  0
  136.5770   73.7370  222.6660 N   0  0  0  0  0  0  0  0  0  0  0  0
  136.4110   74.9670  223.1390 N   0  0  0  0  0  0  0  0  0  0  0  0
  135.5530   74.8580  224.1660 C   0  0  0  0  0  0  0  0  0  0  0  0
  135.0910   75.8990  224.9650 C   0  0  0  0  0  0  0  0  0  0  0  0
  134.1970   75.5780  225.9960 C   0  0  0  0  0  0  0  0  0  0  0  0
  133.7980   74.2440  226.1990 C   0  0  0  0  0  0  0  0  0  0  0  0
  134.2980   73.2360  225.3620 C   0  0  0  0  0  0  0  0  0  0  0  0
  135.1620   73.5880  224.3690 N   0  0  0  0  0  0  0  0  0  0  0  0
  134.3225   70.2693  228.5025 H   0  0  0  0  0  0  0  0  0  0  0  0
  135.2173   71.4197  227.4526 H   0  0  0  0  0  0  0  0  0  0  0  0
  133.4210   71.4145  227.4526 H   0  0  0  0  0  0  0  0  0  0  0  0
  134.5271   68.7622  226.8293 H   0  0  0  0  0  0  0  0  0  0  0  0
  133.3403   69.7736  225.9140 H   0  0  0  0  0  0  0  0  0  0  0  0
  136.0672   70.8537  225.7767 H   0  0  0  0  0  0  0  0  0  0  0  0
  135.9326   69.1515  225.1352 H   0  0  0  0  0  0  0  0  0  0  0  0
  134.4553   69.7516  223.4510 H   0  0  0  0  0  0  0  0  0  0  0  0
  134.0036   71.3084  224.2987 H   0  0  0  0  0  0  0  0  0  0  0  0
  135.4810   71.2293  222.1449 H   0  0  0  0  0  0  0  0  0  0  0  0
  138.2070   72.7790  223.0580 H   0  0  0  0  0  0  0  0  0  0  0  0
  139.7312   70.1771  223.2449 H   0  0  0  0  0  0  0  0  0  0  0  0
  141.5196   71.6186  224.4963 H   0  0  0  0  0  0  0  0  0  0  0  0
  140.0568   72.6657  224.8983 H   0  0  0  0  0  0  0  0  0  0  0  0
  138.9939   70.8570  225.9955 H   0  0  0  0  0  0  0  0  0  0  0  0
  139.8633   68.9689  224.6735 H   0  0  0  0  0  0  0  0  0  0  0  0
  141.4411   69.1196  225.5496 H   0  0  0  0  0  0  0  0  0  0  0  0
  138.7419   68.2107  226.5790 H   0  0  0  0  0  0  0  0  0  0  0  0
  140.4017   67.4691  226.7665 H   0  0  0  0  0  0  0  0  0  0  0  0
  139.0077   69.5020  228.4380 H   0  0  0  0  0  0  0  0  0  0  0  0
  140.2606   68.2545  228.8590 H   0  0  0  0  0  0  0  0  0  0  0  0
  141.1218   70.5418  229.1889 H   0  0  0  0  0  0  0  0  0  0  0  0
  142.0065   69.6594  227.8778 H   0  0  0  0  0  0  0  0  0  0  0  0
  140.0538   71.9694  227.6690 H   0  0  0  0  0  0  0  0  0  0  0  0
  141.6970   71.7310  226.9114 H   0  0  0  0  0  0  0  0  0  0  0  0
  139.3476   76.0853  223.2965 H   0  0  0  0  0  0  0  0  0  0  0  0
  140.6515   75.9884  222.0622 H   0  0  0  0  0  0  0  0  0  0  0  0
  137.8042   76.6730  221.7490 H   0  0  0  0  0  0  0  0  0  0  0  0
  139.1835   76.9428  220.6303 H   0  0  0  0  0  0  0  0  0  0  0  0
  138.3222   75.3665  220.6303 H   0  0  0  0  0  0  0  0  0  0  0  0
  135.4154   76.9361  224.7940 H   0  0  0  0  0  0  0  0  0  0  0  0
  133.8059   76.3722  226.6489 H   0  0  0  0  0  0  0  0  0  0  0  0
  133.0979   73.9933  227.0096 H   0  0  0  0  0  0  0  0  0  0  0  0
  133.9999   72.1867  225.5037 H   0  0  0  0  0  0  0  0  0  0  0  0
  1  2  1  0
  2  3  1  0
  3  4  1  0
  4  5  1  0
  5  6  1  0
  6  7  2  0
  6  8  1  0
  8  9  1  0
  9 10  1  0
 10 11  1  0
 11 12  1  0
 12 13  1  0
 13 14  1  0
 14 15  1  0
 15 16  1  0
  9 17  1  0
 17 18  2  0
 17 19  1  0
 19 20  2  0
 19 21  1  0
 21 22  1  0
 22 23  1  0
  5 24  1  0
 24 25  2  0
 25 26  1  0
 26 27  2  0
 27 28  1  0
 28 29  2  0
 29 30  1  0
 30 31  2  0
 31 32  1  0
 16 11  1  0
 32 24  1  0
 32 27  1  0
  1 33  1  0
  1 34  1  0
  1 35  1  0
  2 36  1  0
  2 37  1  0
  3 38  1  0
  3 39  1  0
  4 40  1  0
  4 41  1  0
  5 42  1  6
  8 43  1  0
  9 44  1  6
 10 45  1  0
 10 46  1  0
 11 47  1  0
 12 48  1  0
 12 49  1  0
 13 50  1  0
 13 51  1  0
 14 52  1  0
 14 53  1  0
 15 54  1  0
 15 55  1  0
 16 56  1  0
 16 57  1  0
 22 58  1  0
 22 59  1  0
 23 60  1  0
 23 61  1  0
 23 62  1  0
 28 63  1  0
 29 64  1  0
 30 65  1  0
 31 66  1  0
M  CHG  1  21  -1
M  END
>  <UniqueID>  (68) 
4

>  <SMILES>  (68) 
CCCC[C@H](C(=O)N[C@H](CC1CCCCC1)C(=O)C(=O)[N-]CC)c1nnc2ccccn12

>  <Energy>  (68) 
98.11809302420015

>  <Genealogy>  (68) 
CCCCC(C(=O)NC(CC1CCCCC1)C(=O)C(=O)[N-]CC)c1nnc2ccccn12 (protonated)
CCCC[C@H](C(=O)N[C@H](CC1CCCCC1)C(=O)C(=O)[N-]CC)c1nnc2ccccn12 (chirality)
CCCC[C@H](C(=O)N[C@H](CC1CCCCC1)C(=O)C(=O)[N-]CC)c1nnc2ccccn12 (3D coordinates assigned)
CCCC[C@H](C(=O)N[C@H](CC1CCCCC1)C(=O)C(=O)[N-]CC)c1nnc2ccccn12 (nonaromatic ring conformer: 98.11809302420015 kcal/mol)

>  <smiles>  (68) 
CCCCC(C(=O)NC(CC1CCCCC1)C(=O)C(=O)NCC)c1nnc2ccccn12

>  <score_type>  (68) 
oracle

>  <origin>  (68) 
autodockgpu

>  <m_score__min__energy>  (68) 
-7.4000000000000004

>  <m_primary>  (68) 
energy

>  <meeko>  (68) 
{"free_energy": -6.21, "intermolecular_energy": -9.79, "internal_energy": -3.48, "cluster_size": 2, "cluster_id": 4, "rank_in_cluster": 2}

>  <energy>  (68) 
-6.33

>  <cluster_rmsd>  (68) 
0.98

>  <rmsd>  (68) 
270.62

>  <cluster>  (68) 
3

$$$$
NNKZOUMTYASKLJ-JYRSORQKNA-M
     RDKit          3D

 66 68  0  0  0  0  0  0  0  0999 V2000
  142.8800   81.9600  217.4160 C   0  0  0  0  0  0  0  0  0  0  0  0
  142.6570   80.6430  218.1530 C   0  0  0  0  0  0  0  0  0  0  0  0
  141.1940   80.1920  218.0470 C   0  0  0  0  0  0  0  0  0  0  0  0
  141.0040   78.6870  218.3140 C   0  0  0  0  0  0  0  0  0  0  0  0
  142.1270   78.0600  219.1790 C   0  0  2  0  0  0  0  0  0  0  0  0
  142.5700   76.7070  218.6780 C   0  0  0  0  0  0  0  0  0  0  0  0
  142.5090   76.4650  217.4420 O   0  0  0  0  0  0  0  0  0  0  0  0
  143.0930   75.7160  219.5770 N   0  0  0  0  0  0  0  0  0  0  0  0
  143.5900   74.4220  219.0990 C   0  0  2  0  0  0  0  0  0  0  0  0
  142.4720   73.3480  219.1190 C   0  0  0  0  0  0  0  0  0  0  0  0
  141.7350   73.1720  220.4720 C   0  0  0  0  0  0  0  0  0  0  0  0
  140.3830   73.9070  220.5280 C   0  0  0  0  0  0  0  0  0  0  0  0
  139.7820   73.8750  221.9450 C   0  0  0  0  0  0  0  0  0  0  0  0
  140.0350   72.5470  222.6910 C   0  0  0  0  0  0  0  0  0  0  0  0
  140.3460   71.3920  221.7340 C   0  0  0  0  0  0  0  0  0  0  0  0
  141.6050   71.6810  220.8920 C   0  0  0  0  0  0  0  0  0  0  0  0
  144.7350   73.9830  219.9790 C   0  0  0  0  0  0  0  0  0  0  0  0
  144.6470   74.1620  221.2240 O   0  0  0  0  0  0  0  0  0  0  0  0
  145.9190   73.3040  219.4050 C   0  0  0  0  0  0  0  0  0  0  0  0
  147.0670   73.7560  219.6540 O   0  0  0  0  0  0  0  0  0  0  0  0
  145.8160   72.1330  218.5830 N   0  0  0  0  0  0  0  0  0  0  0  0
  145.2210   70.8630  218.9830 C   0  0  0  0  0  0  0  0  0  0  0  0
  146.2770   69.7700  218.9570 C   0  0  0  0  0  0  0  0  0  0  0  0
  141.8070   77.9800  220.6580 C   0  0  0  0  0  0  0  0  0  0  0  0
  141.3330   76.8440  221.2200 N   0  0  0  0  0  0  0  0  0  0  0  0
  141.0770   77.0950  222.4980 N   0  0  0  0  0  0  0  0  0  0  0  0
  141.3880   78.3860  222.6940 C   0  0  0  0  0  0  0  0  0  0  0  0
  141.2740   79.0860  223.8910 C   0  0  0  0  0  0  0  0  0  0  0  0
  141.6490   80.4370  223.8910 C   0  0  0  0  0  0  0  0  0  0  0  0
  142.1170   81.0430  222.7100 C   0  0  0  0  0  0  0  0  0  0  0  0
  142.2090   80.2860  221.5320 C   0  0  0  0  0  0  0  0  0  0  0  0
  141.8390   78.9760  221.5740 N   0  0  0  0  0  0  0  0  0  0  0  0
  143.0172   82.7705  218.1469 H   0  0  0  0  0  0  0  0  0  0  0  0
  143.7773   81.8796  216.7848 H   0  0  0  0  0  0  0  0  0  0  0  0
  142.0062   82.1795  216.7848 H   0  0  0  0  0  0  0  0  0  0  0  0
  143.3040   79.8704  217.7120 H   0  0  0  0  0  0  0  0  0  0  0  0
  142.9010   80.7912  219.2153 H   0  0  0  0  0  0  0  0  0  0  0  0
  140.6000   80.7555  218.7816 H   0  0  0  0  0  0  0  0  0  0  0  0
  140.8653   80.3858  217.0153 H   0  0  0  0  0  0  0  0  0  0  0  0
  140.0451   78.5451  218.8340 H   0  0  0  0  0  0  0  0  0  0  0  0
  141.0311   78.1817  217.3373 H   0  0  0  0  0  0  0  0  0  0  0  0
  142.9615   78.7679  219.0672 H   0  0  0  0  0  0  0  0  0  0  0  0
  143.2350   75.9670  220.5780 H   0  0  0  0  0  0  0  0  0  0  0  0
  143.9300   74.5360  218.0591 H   0  0  0  0  0  0  0  0  0  0  0  0
  141.7248   73.6233  218.3601 H   0  0  0  0  0  0  0  0  0  0  0  0
  142.9732   72.3887  218.9228 H   0  0  0  0  0  0  0  0  0  0  0  0
  142.3779   73.6589  221.2201 H   0  0  0  0  0  0  0  0  0  0  0  0
  140.5327   74.9543  220.2267 H   0  0  0  0  0  0  0  0  0  0  0  0
  139.6855   73.3993  219.8456 H   0  0  0  0  0  0  0  0  0  0  0  0
  140.2265   74.6934  222.5304 H   0  0  0  0  0  0  0  0  0  0  0  0
  138.6927   73.9833  221.8372 H   0  0  0  0  0  0  0  0  0  0  0  0
  140.8881   72.6811  223.3724 H   0  0  0  0  0  0  0  0  0  0  0  0
  139.1176   72.2902  223.2410 H   0  0  0  0  0  0  0  0  0  0  0  0
  140.5104   70.4760  222.3204 H   0  0  0  0  0  0  0  0  0  0  0  0
  139.4931   71.2705  221.0501 H   0  0  0  0  0  0  0  0  0  0  0  0
  142.4910   71.4063  221.4832 H   0  0  0  0  0  0  0  0  0  0  0  0
  141.5226   71.0885  219.9689 H   0  0  0  0  0  0  0  0  0  0  0  0
  144.8148   70.9544  220.0012 H   0  0  0  0  0  0  0  0  0  0  0  0
  144.4123   70.6040  218.2837 H   0  0  0  0  0  0  0  0  0  0  0  0
  146.5440   69.4936  219.9877 H   0  0  0  0  0  0  0  0  0  0  0  0
  145.8796   68.8887  218.4323 H   0  0  0  0  0  0  0  0  0  0  0  0
  147.1715   70.1368  218.4323 H   0  0  0  0  0  0  0  0  0  0  0  0
  140.9032   78.5973  224.8041 H   0  0  0  0  0  0  0  0  0  0  0  0
  141.5772   81.0256  224.8175 H   0  0  0  0  0  0  0  0  0  0  0  0
  142.4089   82.1036  222.7104 H   0  0  0  0  0  0  0  0  0  0  0  0
  142.5711   80.7396  220.5976 H   0  0  0  0  0  0  0  0  0  0  0  0
  1  2  1  0
  2  3  1  0
  3  4  1  0
  4  5  1  0
  5  6  1  0
  6  7  2  0
  6  8  1  0
  8  9  1  0
  9 10  1  0
 10 11  1  0
 11 12  1  0
 12 13  1  0
 13 14  1  0
 14 15  1  0
 15 16  1  0
  9 17  1  0
 17 18  2  0
 17 19  1  0
 19 20  2  0
 19 21  1  0
 21 22  1  0
 22 23  1  0
  5 24  1  0
 24 25  2  0
 25 26  1  0
 26 27  2  0
 27 28  1  0
 28 29  2  0
 29 30  1  0
 30 31  2  0
 31 32  1  0
 16 11  1  0
 32 24  1  0
 32 27  1  0
  1 33  1  0
  1 34  1  0
  1 35  1  0
  2 36  1  0
  2 37  1  0
  3 38  1  0
  3 39  1  0
  4 40  1  0
  4 41  1  0
  5 42  1  1
  8 43  1  0
  9 44  1  6
 10 45  1  0
 10 46  1  0
 11 47  1  0
 12 48  1  0
 12 49  1  0
 13 50  1  0
 13 51  1  0
 14 52  1  0
 14 53  1  0
 15 54  1  0
 15 55  1  0
 16 56  1  0
 16 57  1  0
 22 58  1  0
 22 59  1  0
 23 60  1  0
 23 61  1  0
 23 62  1  0
 28 63  1  0
 29 64  1  0
 30 65  1  0
 31 66  1  0
M  CHG  1  21  -1
M  END
>  <UniqueID>  (69) 
4

>  <SMILES>  (69) 
CCCC[C@H](C(=O)N[C@H](CC1CCCCC1)C(=O)C(=O)[N-]CC)c1nnc2ccccn12

>  <Energy>  (69) 
98.11809302420015

>  <Genealogy>  (69) 
CCCCC(C(=O)NC(CC1CCCCC1)C(=O)C(=O)[N-]CC)c1nnc2ccccn12 (protonated)
CCCC[C@H](C(=O)N[C@H](CC1CCCCC1)C(=O)C(=O)[N-]CC)c1nnc2ccccn12 (chirality)
CCCC[C@H](C(=O)N[C@H](CC1CCCCC1)C(=O)C(=O)[N-]CC)c1nnc2ccccn12 (3D coordinates assigned)
CCCC[C@H](C(=O)N[C@H](CC1CCCCC1)C(=O)C(=O)[N-]CC)c1nnc2ccccn12 (nonaromatic ring conformer: 98.11809302420015 kcal/mol)

>  <smiles>  (69) 
CCCCC(C(=O)NC(CC1CCCCC1)C(=O)C(=O)NCC)c1nnc2ccccn12

>  <score_type>  (69) 
oracle

>  <origin>  (69) 
autodockgpu

>  <m_score__min__energy>  (69) 
-7.4000000000000004

>  <m_primary>  (69) 
energy

>  <meeko>  (69) 
{"free_energy": -6.61, "intermolecular_energy": -10.19, "internal_energy": -3.32, "cluster_size": 3, "cluster_id": 3, "rank_in_cluster": 1}

>  <energy>  (69) 
-5.9

>  <cluster_rmsd>  (69) 
0.85

>  <rmsd>  (69) 
270.62

>  <cluster>  (69) 
3

$$$$
NNKZOUMTYASKLJ-JYRSORQKNA-M
     RDKit          3D

 66 68  0  0  0  0  0  0  0  0999 V2000
  139.5330   74.7270  221.9460 C   0  0  0  0  0  0  0  0  0  0  0  0
  140.0700   73.2990  221.9600 C   0  0  0  0  0  0  0  0  0  0  0  0
  138.9710   72.3000  222.3440 C   0  0  0  0  0  0  0  0  0  0  0  0
  139.3210   71.4650  223.5910 C   0  0  0  0  0  0  0  0  0  0  0  0
  139.0170   69.9530  223.4350 C   0  0  2  0  0  0  0  0  0  0  0  0
  137.6100   69.6820  222.9600 C   0  0  0  0  0  0  0  0  0  0  0  0
  137.4420   69.0940  221.8570 O   0  0  0  0  0  0  0  0  0  0  0  0
  136.4720   70.0450  223.7580 N   0  0  0  0  0  0  0  0  0  0  0  0
  135.1020   69.7280  223.3430 C   0  0  2  0  0  0  0  0  0  0  0  0
  134.2180   71.0020  223.3030 C   0  0  0  0  0  0  0  0  0  0  0  0
  134.9370   72.3280  223.6640 C   0  0  0  0  0  0  0  0  0  0  0  0
  135.2420   73.2080  222.4370 C   0  0  0  0  0  0  0  0  0  0  0  0
  136.1260   74.4100  222.8110 C   0  0  0  0  0  0  0  0  0  0  0  0
  135.8010   75.0070  224.1970 C   0  0  0  0  0  0  0  0  0  0  0  0
  134.3870   74.6480  224.6680 C   0  0  0  0  0  0  0  0  0  0  0  0
  134.2010   73.1220  224.7800 C   0  0  0  0  0  0  0  0  0  0  0  0
  134.5160   68.7320  224.3130 C   0  0  0  0  0  0  0  0  0  0  0  0
  134.3010   67.5540  223.9180 O   0  0  0  0  0  0  0  0  0  0  0  0
  134.2470   69.1070  225.7200 C   0  0  0  0  0  0  0  0  0  0  0  0
  133.5000   68.3740  226.4190 O   0  0  0  0  0  0  0  0  0  0  0  0
  134.8180   70.2710  226.3330 N   0  0  0  0  0  0  0  0  0  0  0  0
  134.2980   70.9530  227.5120 C   0  0  0  0  0  0  0  0  0  0  0  0
  132.9290   71.5360  227.2050 C   0  0  0  0  0  0  0  0  0  0  0  0
  139.3090   69.1270  224.6700 C   0  0  0  0  0  0  0  0  0  0  0  0
  138.8750   67.8500  224.7880 N   0  0  0  0  0  0  0  0  0  0  0  0
  139.2130   67.4120  225.9940 N   0  0  0  0  0  0  0  0  0  0  0  0
  139.8410   68.4330  226.6000 C   0  0  0  0  0  0  0  0  0  0  0  0
  140.3680   68.4270  227.8880 C   0  0  0  0  0  0  0  0  0  0  0  0
  140.9840   69.6000  228.3420 C   0  0  0  0  0  0  0  0  0  0  0  0
  141.0530   70.7330  227.5100 C   0  0  0  0  0  0  0  0  0  0  0  0
  140.5030   70.6810  226.2200 C   0  0  0  0  0  0  0  0  0  0  0  0
  139.9150   69.5210  225.8150 N   0  0  0  0  0  0  0  0  0  0  0  0
  139.4006   75.0791  222.9797 H   0  0  0  0  0  0  0  0  0  0  0  0
  140.2463   75.3819  221.4241 H   0  0  0  0  0  0  0  0  0  0  0  0
  138.5650   74.7496  221.4241 H   0  0  0  0  0  0  0  0  0  0  0  0
  140.4498   73.0481  220.9586 H   0  0  0  0  0  0  0  0  0  0  0  0
  140.8760   73.2359  222.7059 H   0  0  0  0  0  0  0  0  0  0  0  0
  138.0451   72.8587  222.5455 H   0  0  0  0  0  0  0  0  0  0  0  0
  138.8556   71.6005  221.5030 H   0  0  0  0  0  0  0  0  0  0  0  0
  140.3948   71.5836  223.7980 H   0  0  0  0  0  0  0  0  0  0  0  0
  138.6912   71.8360  224.4130 H   0  0  0  0  0  0  0  0  0  0  0  0
  139.7213   69.6283  222.6549 H   0  0  0  0  0  0  0  0  0  0  0  0
  136.6290   70.4340  224.7110 H   0  0  0  0  0  0  0  0  0  0  0  0
  135.1289   69.3028  222.3288 H   0  0  0  0  0  0  0  0  0  0  0  0
  133.8145   71.1022  222.2846 H   0  0  0  0  0  0  0  0  0  0  0  0
  133.4472   70.8579  224.0745 H   0  0  0  0  0  0  0  0  0  0  0  0
  135.9123   72.0284  224.0752 H   0  0  0  0  0  0  0  0  0  0  0  0
  135.7644   72.6011  221.6828 H   0  0  0  0  0  0  0  0  0  0  0  0
  134.2895   73.5901  222.0410 H   0  0  0  0  0  0  0  0  0  0  0  0
  137.1763   74.0831  222.8105 H   0  0  0  0  0  0  0  0  0  0  0  0
  135.9331   75.1969  222.0669 H   0  0  0  0  0  0  0  0  0  0  0  0
  136.5262   74.6198  224.9278 H   0  0  0  0  0  0  0  0  0  0  0  0
  135.8601   76.1023  224.1139 H   0  0  0  0  0  0  0  0  0  0  0  0
  134.2121   75.1030  225.6541 H   0  0  0  0  0  0  0  0  0  0  0  0
  133.6685   75.0305  223.9281 H   0  0  0  0  0  0  0  0  0  0  0  0
  134.5891   72.7939  225.7555 H   0  0  0  0  0  0  0  0  0  0  0  0
  133.1259   72.9164  224.6705 H   0  0  0  0  0  0  0  0  0  0  0  0
  134.2121   70.2354  228.3412 H   0  0  0  0  0  0  0  0  0  0  0  0
  134.9842   71.7648  227.7952 H   0  0  0  0  0  0  0  0  0  0  0  0
  132.4058   71.7588  228.1466 H   0  0  0  0  0  0  0  0  0  0  0  0
  133.0469   72.4620  226.6231 H   0  0  0  0  0  0  0  0  0  0  0  0
  132.3431   70.8093  226.6231 H   0  0  0  0  0  0  0  0  0  0  0  0
  140.3031   67.5335  228.5263 H   0  0  0  0  0  0  0  0  0  0  0  0
  141.4157   69.6359  229.3531 H   0  0  0  0  0  0  0  0  0  0  0  0
  141.5353   71.6542  227.8689 H   0  0  0  0  0  0  0  0  0  0  0  0
  140.5457   71.5546  225.5530 H   0  0  0  0  0  0  0  0  0  0  0  0
  1  2  1  0
  2  3  1  0
  3  4  1  0
  4  5  1  0
  5  6  1  0
  6  7  2  0
  6  8  1  0
  8  9  1  0
  9 10  1  0
 10 11  1  0
 11 12  1  0
 12 13  1  0
 13 14  1  0
 14 15  1  0
 15 16  1  0
  9 17  1  0
 17 18  2  0
 17 19  1  0
 19 20  2  0
 19 21  1  0
 21 22  1  0
 22 23  1  0
  5 24  1  0
 24 25  2  0
 25 26  1  0
 26 27  2  0
 27 28  1  0
 28 29  2  0
 29 30  1  0
 30 31  2  0
 31 32  1  0
 16 11  1  0
 32 24  1  0
 32 27  1  0
  1 33  1  0
  1 34  1  0
  1 35  1  0
  2 36  1  0
  2 37  1  0
  3 38  1  0
  3 39  1  0
  4 40  1  0
  4 41  1  0
  5 42  1  6
  8 43  1  0
  9 44  1  6
 10 45  1  0
 10 46  1  0
 11 47  1  0
 12 48  1  0
 12 49  1  0
 13 50  1  0
 13 51  1  0
 14 52  1  0
 14 53  1  0
 15 54  1  0
 15 55  1  0
 16 56  1  0
 16 57  1  0
 22 58  1  0
 22 59  1  0
 23 60  1  0
 23 61  1  0
 23 62  1  0
 28 63  1  0
 29 64  1  0
 30 65  1  0
 31 66  1  0
M  CHG  1  21  -1
M  END
>  <UniqueID>  (70) 
4

>  <SMILES>  (70) 
CCCC[C@H](C(=O)N[C@H](CC1CCCCC1)C(=O)C(=O)[N-]CC)c1nnc2ccccn12

>  <Energy>  (70) 
98.11809302420015

>  <Genealogy>  (70) 
CCCCC(C(=O)NC(CC1CCCCC1)C(=O)C(=O)[N-]CC)c1nnc2ccccn12 (protonated)
CCCC[C@H](C(=O)N[C@H](CC1CCCCC1)C(=O)C(=O)[N-]CC)c1nnc2ccccn12 (chirality)
CCCC[C@H](C(=O)N[C@H](CC1CCCCC1)C(=O)C(=O)[N-]CC)c1nnc2ccccn12 (3D coordinates assigned)
CCCC[C@H](C(=O)N[C@H](CC1CCCCC1)C(=O)C(=O)[N-]CC)c1nnc2ccccn12 (nonaromatic ring conformer: 98.11809302420015 kcal/mol)

>  <smiles>  (70) 
CCCCC(C(=O)NC(CC1CCCCC1)C(=O)C(=O)NCC)c1nnc2ccccn12

>  <score_type>  (70) 
oracle

>  <origin>  (70) 
autodockgpu

>  <m_score__min__energy>  (70) 
-7.4000000000000004

>  <m_primary>  (70) 
energy

>  <meeko>  (70) 
{"free_energy": -6.76, "intermolecular_energy": -10.34, "internal_energy": -2.76, "cluster_size": 5, "cluster_id": 1, "rank_in_cluster": 2}

>  <energy>  (70) 
-6.25

>  <cluster_rmsd>  (70) 
0.0

>  <rmsd>  (70) 
270.3

>  <cluster>  (70) 
4

$$$$
NNKZOUMTYASKLJ-JYRSORQKNA-M
     RDKit          3D

 66 68  0  0  0  0  0  0  0  0999 V2000
  141.0250   82.4150  221.1450 C   0  0  0  0  0  0  0  0  0  0  0  0
  141.8320   81.1220  221.0750 C   0  0  0  0  0  0  0  0  0  0  0  0
  142.5310   80.8360  222.4100 C   0  0  0  0  0  0  0  0  0  0  0  0
  141.6090   81.0290  223.6290 C   0  0  0  0  0  0  0  0  0  0  0  0
  140.6050   79.8680  223.8420 C   0  0  2  0  0  0  0  0  0  0  0  0
  141.1430   78.5330  223.3880 C   0  0  0  0  0  0  0  0  0  0  0  0
  142.1840   78.0770  223.9350 O   0  0  0  0  0  0  0  0  0  0  0  0
  140.4680   77.7630  222.3800 N   0  0  0  0  0  0  0  0  0  0  0  0
  140.9390   76.4350  221.9760 C   0  0  2  0  0  0  0  0  0  0  0  0
  141.6010   76.4750  220.5740 C   0  0  0  0  0  0  0  0  0  0  0  0
  141.5300   77.8390  219.8390 C   0  0  0  0  0  0  0  0  0  0  0  0
  142.5110   77.9440  218.6560 C   0  0  0  0  0  0  0  0  0  0  0  0
  142.5520   79.3720  218.0830 C   0  0  0  0  0  0  0  0  0  0  0  0
  141.1790   80.0770  218.0850 C   0  0  0  0  0  0  0  0  0  0  0  0
  140.0150   79.0820  218.1510 C   0  0  0  0  0  0  0  0  0  0  0  0
  140.0800   78.2210  219.4280 C   0  0  0  0  0  0  0  0  0  0  0  0
  139.7670   75.4850  221.9590 C   0  0  0  0  0  0  0  0  0  0  0  0
  139.9480   74.2890  222.3140 O   0  0  0  0  0  0  0  0  0  0  0  0
  138.4130   75.9550  221.5860 C   0  0  0  0  0  0  0  0  0  0  0  0
  137.7930   75.3690  220.6600 O   0  0  0  0  0  0  0  0  0  0  0  0
  137.7630   77.0480  222.2490 N   0  0  0  0  0  0  0  0  0  0  0  0
  136.4210   77.0210  222.8180 C   0  0  0  0  0  0  0  0  0  0  0  0
  136.1740   75.6780  223.4860 C   0  0  0  0  0  0  0  0  0  0  0  0
  139.2380   80.1040  223.2330 C   0  0  0  0  0  0  0  0  0  0  0  0
  139.0220   79.9730  221.9040 N   0  0  0  0  0  0  0  0  0  0  0  0
  137.7630   80.3120  221.6570 N   0  0  0  0  0  0  0  0  0  0  0  0
  137.2310   80.6560  222.8410 C   0  0  0  0  0  0  0  0  0  0  0  0
  135.9260   81.0850  223.0620 C   0  0  0  0  0  0  0  0  0  0  0  0
  135.5620   81.4030  224.3780 C   0  0  0  0  0  0  0  0  0  0  0  0
  136.5000   81.2870  225.4210 C   0  0  0  0  0  0  0  0  0  0  0  0
  137.8020   80.8500  225.1370 C   0  0  0  0  0  0  0  0  0  0  0  0
  138.1160   80.5480  223.8470 N   0  0  0  0  0  0  0  0  0  0  0  0
  140.8563   82.6854  222.1978 H   0  0  0  0  0  0  0  0  0  0  0  0
  141.5804   83.2215  220.6438 H   0  0  0  0  0  0  0  0  0  0  0  0
  140.0565   82.2704  220.6438 H   0  0  0  0  0  0  0  0  0  0  0  0
  141.1550   80.2881  220.8378 H   0  0  0  0  0  0  0  0  0  0  0  0
  142.5994   81.2302  220.2943 H   0  0  0  0  0  0  0  0  0  0  0  0
  142.8879   79.7955  222.4024 H   0  0  0  0  0  0  0  0  0  0  0  0
  143.3581   81.5547  222.5075 H   0  0  0  0  0  0  0  0  0  0  0  0
  142.2363   81.1148  224.5285 H   0  0  0  0  0  0  0  0  0  0  0  0
  141.0157   81.9363  223.4423 H   0  0  0  0  0  0  0  0  0  0  0  0
  140.4724   79.8414  224.9336 H   0  0  0  0  0  0  0  0  0  0  0  0
  139.5550   78.1030  222.0130 H   0  0  0  0  0  0  0  0  0  0  0  0
  141.6962   76.0942  222.6975 H   0  0  0  0  0  0  0  0  0  0  0  0
  142.6618   76.2092  220.6927 H   0  0  0  0  0  0  0  0  0  0  0  0
  141.0327   75.7677  219.9521 H   0  0  0  0  0  0  0  0  0  0  0  0
  141.8600   78.5856  220.5763 H   0  0  0  0  0  0  0  0  0  0  0  0
  143.5183   77.6682  219.0013 H   0  0  0  0  0  0  0  0  0  0  0  0
  142.1693   77.2631  217.8625 H   0  0  0  0  0  0  0  0  0  0  0  0
  143.2508   79.9694  218.6870 H   0  0  0  0  0  0  0  0  0  0  0  0
  142.8715   79.2900  217.0336 H   0  0  0  0  0  0  0  0  0  0  0  0
  141.1247   80.7435  218.9584 H   0  0  0  0  0  0  0  0  0  0  0  0
  141.0880   80.6398  217.1443 H   0  0  0  0  0  0  0  0  0  0  0  0
  139.0670   79.6399  218.1438 H   0  0  0  0  0  0  0  0  0  0  0  0
  140.0824   78.4135  217.2800 H   0  0  0  0  0  0  0  0  0  0  0  0
  139.6203   78.7849  220.2531 H   0  0  0  0  0  0  0  0  0  0  0  0
  139.5437   77.2841  219.2169 H   0  0  0  0  0  0  0  0  0  0  0  0
  136.3240   77.8236  223.5639 H   0  0  0  0  0  0  0  0  0  0  0  0
  135.6827   77.1701  222.0164 H   0  0  0  0  0  0  0  0  0  0  0  0
  136.1969   75.8023  224.5787 H   0  0  0  0  0  0  0  0  0  0  0  0
  135.1899   75.2924  223.1813 H   0  0  0  0  0  0  0  0  0  0  0  0
  136.9565   74.9675  223.1813 H   0  0  0  0  0  0  0  0  0  0  0  0
  135.2063   81.1715  222.2346 H   0  0  0  0  0  0  0  0  0  0  0  0
  134.5394   81.7445  224.5963 H   0  0  0  0  0  0  0  0  0  0  0  0
  136.2135   81.5377  226.4530 H   0  0  0  0  0  0  0  0  0  0  0  0
  138.5511   80.7536  225.9367 H   0  0  0  0  0  0  0  0  0  0  0  0
  1  2  1  0
  2  3  1  0
  3  4  1  0
  4  5  1  0
  5  6  1  0
  6  7  2  0
  6  8  1  0
  8  9  1  0
  9 10  1  0
 10 11  1  0
 11 12  1  0
 12 13  1  0
 13 14  1  0
 14 15  1  0
 15 16  1  0
  9 17  1  0
 17 18  2  0
 17 19  1  0
 19 20  2  0
 19 21  1  0
 21 22  1  0
 22 23  1  0
  5 24  1  0
 24 25  2  0
 25 26  1  0
 26 27  2  0
 27 28  1  0
 28 29  2  0
 29 30  1  0
 30 31  2  0
 31 32  1  0
 16 11  1  0
 32 24  1  0
 32 27  1  0
  1 33  1  0
  1 34  1  0
  1 35  1  0
  2 36  1  0
  2 37  1  0
  3 38  1  0
  3 39  1  0
  4 40  1  0
  4 41  1  0
  5 42  1  1
  8 43  1  0
  9 44  1  1
 10 45  1  0
 10 46  1  0
 11 47  1  0
 12 48  1  0
 12 49  1  0
 13 50  1  0
 13 51  1  0
 14 52  1  0
 14 53  1  0
 15 54  1  0
 15 55  1  0
 16 56  1  0
 16 57  1  0
 22 58  1  0
 22 59  1  0
 23 60  1  0
 23 61  1  0
 23 62  1  0
 28 63  1  0
 29 64  1  0
 30 65  1  0
 31 66  1  0
M  CHG  1  21  -1
M  END
>  <UniqueID>  (71) 
4

>  <SMILES>  (71) 
CCCC[C@H](C(=O)N[C@H](CC1CCCCC1)C(=O)C(=O)[N-]CC)c1nnc2ccccn12

>  <Energy>  (71) 
98.11809302420015

>  <Genealogy>  (71) 
CCCCC(C(=O)NC(CC1CCCCC1)C(=O)C(=O)[N-]CC)c1nnc2ccccn12 (protonated)
CCCC[C@H](C(=O)N[C@H](CC1CCCCC1)C(=O)C(=O)[N-]CC)c1nnc2ccccn12 (chirality)
CCCC[C@H](C(=O)N[C@H](CC1CCCCC1)C(=O)C(=O)[N-]CC)c1nnc2ccccn12 (3D coordinates assigned)
CCCC[C@H](C(=O)N[C@H](CC1CCCCC1)C(=O)C(=O)[N-]CC)c1nnc2ccccn12 (nonaromatic ring conformer: 98.11809302420015 kcal/mol)

>  <smiles>  (71) 
CCCCC(C(=O)NC(CC1CCCCC1)C(=O)C(=O)NCC)c1nnc2ccccn12

>  <score_type>  (71) 
oracle

>  <origin>  (71) 
autodockgpu

>  <m_score__min__energy>  (71) 
-7.4000000000000004

>  <m_primary>  (71) 
energy

>  <meeko>  (71) 
{"free_energy": -4.45, "intermolecular_energy": -8.03, "internal_energy": -4.64, "cluster_size": 3, "cluster_id": 7, "rank_in_cluster": 3}

>  <energy>  (71) 
-6.21

>  <cluster_rmsd>  (71) 
1.39

>  <rmsd>  (71) 
270.54

>  <cluster>  (71) 
4

$$$$
NNKZOUMTYASKLJ-JYRSORQKNA-M
     RDKit          3D

 66 68  0  0  0  0  0  0  0  0999 V2000
  141.5280   79.3180  223.8430 C   0  0  0  0  0  0  0  0  0  0  0  0
  142.3930   79.7660  222.6690 C   0  0  0  0  0  0  0  0  0  0  0  0
  141.5270   80.1740  221.4700 C   0  0  0  0  0  0  0  0  0  0  0  0
  141.2470   79.0090  220.5020 C   0  0  0  0  0  0  0  0  0  0  0  0
  141.8090   77.6480  220.9850 C   0  0  2  0  0  0  0  0  0  0  0  0
  142.5730   76.9120  219.9110 C   0  0  0  0  0  0  0  0  0  0  0  0
  142.7570   77.4760  218.7980 O   0  0  0  0  0  0  0  0  0  0  0  0
  143.1220   75.6060  220.1510 N   0  0  0  0  0  0  0  0  0  0  0  0
  143.9240   74.9060  219.1430 C   0  0  2  0  0  0  0  0  0  0  0  0
  143.0240   74.2770  218.0470 C   0  0  0  0  0  0  0  0  0  0  0  0
  141.6910   73.6620  218.5470 C   0  0  0  0  0  0  0  0  0  0  0  0
  141.7680   73.1350  219.9920 C   0  0  0  0  0  0  0  0  0  0  0  0
  140.4960   72.3590  220.3770 C   0  0  0  0  0  0  0  0  0  0  0  0
  139.2040   72.9590  219.7830 C   0  0  0  0  0  0  0  0  0  0  0  0
  139.3720   74.4330  219.3960 C   0  0  0  0  0  0  0  0  0  0  0  0
  140.4800   74.6150  218.3390 C   0  0  0  0  0  0  0  0  0  0  0  0
  144.7300   73.8270  219.8230 C   0  0  0  0  0  0  0  0  0  0  0  0
  144.5790   73.6440  221.0610 O   0  0  0  0  0  0  0  0  0  0  0  0
  145.6440   72.9570  219.0470 C   0  0  0  0  0  0  0  0  0  0  0  0
  146.1830   73.4090  218.0030 O   0  0  0  0  0  0  0  0  0  0  0  0
  145.9580   71.6150  219.4440 N   0  0  0  0  0  0  0  0  0  0  0  0
  145.2570   70.4130  219.0060 C   0  0  0  0  0  0  0  0  0  0  0  0
  146.2310   69.2480  218.9410 C   0  0  0  0  0  0  0  0  0  0  0  0
  140.7760   76.7280  221.6010 C   0  0  0  0  0  0  0  0  0  0  0  0
  141.0550   75.4340  221.8810 N   0  0  0  0  0  0  0  0  0  0  0  0
  139.9470   74.8640  222.3380 N   0  0  0  0  0  0  0  0  0  0  0  0
  139.0030   75.8190  222.3210 C   0  0  0  0  0  0  0  0  0  0  0  0
  137.6760   75.6700  222.7140 C   0  0  0  0  0  0  0  0  0  0  0  0
  136.8410   76.7920  222.6160 C   0  0  0  0  0  0  0  0  0  0  0  0
  137.3470   78.0130  222.1320 C   0  0  0  0  0  0  0  0  0  0  0  0
  138.6940   78.1020  221.7490 C   0  0  0  0  0  0  0  0  0  0  0  0
  139.4740   76.9910  221.8630 N   0  0  0  0  0  0  0  0  0  0  0  0
  142.0288   79.5774  224.7874 H   0  0  0  0  0  0  0  0  0  0  0  0
  140.5527   79.8243  223.7941 H   0  0  0  0  0  0  0  0  0  0  0  0
  141.3788   78.2293  223.7941 H   0  0  0  0  0  0  0  0  0  0  0  0
  143.0040   80.6261  222.9803 H   0  0  0  0  0  0  0  0  0  0  0  0
  143.0350   78.9255  222.3668 H   0  0  0  0  0  0  0  0  0  0  0  0
  140.5661   80.5554  221.8459 H   0  0  0  0  0  0  0  0  0  0  0  0
  142.0833   80.9396  220.9093 H   0  0  0  0  0  0  0  0  0  0  0  0
  140.1579   78.9118  220.3816 H   0  0  0  0  0  0  0  0  0  0  0  0
  141.7545   79.2485  219.5559 H   0  0  0  0  0  0  0  0  0  0  0  0
  142.5088   77.9297  221.7856 H   0  0  0  0  0  0  0  0  0  0  0  0
  143.0530   75.1980  221.1070 H   0  0  0  0  0  0  0  0  0  0  0  0
  144.5926   75.6312  218.6561 H   0  0  0  0  0  0  0  0  0  0  0  0
  142.7814   75.0625  217.3162 H   0  0  0  0  0  0  0  0  0  0  0  0
  143.6020   73.4413  217.6257 H   0  0  0  0  0  0  0  0  0  0  0  0
  141.5184   72.7815  217.9107 H   0  0  0  0  0  0  0  0  0  0  0  0
  142.6363   72.4659  220.0828 H   0  0  0  0  0  0  0  0  0  0  0  0
  141.8655   73.9964  220.6692 H   0  0  0  0  0  0  0  0  0  0  0  0
  140.5970   71.3246  220.0167 H   0  0  0  0  0  0  0  0  0  0  0  0
  140.4036   72.4129  221.4718 H   0  0  0  0  0  0  0  0  0  0  0  0
  138.9283   72.3866  218.8850 H   0  0  0  0  0  0  0  0  0  0  0  0
  138.4205   72.9002  220.5528 H   0  0  0  0  0  0  0  0  0  0  0  0
  138.4217   74.8058  218.9861 H   0  0  0  0  0  0  0  0  0  0  0  0
  139.6569   74.9968  220.2965 H   0  0  0  0  0  0  0  0  0  0  0  0
  140.0498   74.4212  217.3453 H   0  0  0  0  0  0  0  0  0  0  0  0
  140.8554   75.6445  218.4345 H   0  0  0  0  0  0  0  0  0  0  0  0
  144.4529   70.1782  219.7189 H   0  0  0  0  0  0  0  0  0  0  0  0
  144.8269   70.5848  218.0082 H   0  0  0  0  0  0  0  0  0  0  0  0
  146.4944   68.9329  219.9615 H   0  0  0  0  0  0  0  0  0  0  0  0
  145.7627   68.4079  218.4072 H   0  0  0  0  0  0  0  0  0  0  0  0
  147.1408   69.5600  218.4072 H   0  0  0  0  0  0  0  0  0  0  0  0
  137.2965   74.7075  223.0877 H   0  0  0  0  0  0  0  0  0  0  0  0
  135.7861   76.7178  222.9186 H   0  0  0  0  0  0  0  0  0  0  0  0
  136.6905   78.8922  222.0545 H   0  0  0  0  0  0  0  0  0  0  0  0
  139.1098   79.0456  221.3661 H   0  0  0  0  0  0  0  0  0  0  0  0
  1  2  1  0
  2  3  1  0
  3  4  1  0
  4  5  1  0
  5  6  1  0
  6  7  2  0
  6  8  1  0
  8  9  1  0
  9 10  1  0
 10 11  1  0
 11 12  1  0
 12 13  1  0
 13 14  1  0
 14 15  1  0
 15 16  1  0
  9 17  1  0
 17 18  2  0
 17 19  1  0
 19 20  2  0
 19 21  1  0
 21 22  1  0
 22 23  1  0
  5 24  1  0
 24 25  2  0
 25 26  1  0
 26 27  2  0
 27 28  1  0
 28 29  2  0
 29 30  1  0
 30 31  2  0
 31 32  1  0
 16 11  1  0
 32 24  1  0
 32 27  1  0
  1 33  1  0
  1 34  1  0
  1 35  1  0
  2 36  1  0
  2 37  1  0
  3 38  1  0
  3 39  1  0
  4 40  1  0
  4 41  1  0
  5 42  1  1
  8 43  1  0
  9 44  1  6
 10 45  1  0
 10 46  1  0
 11 47  1  0
 12 48  1  0
 12 49  1  0
 13 50  1  0
 13 51  1  0
 14 52  1  0
 14 53  1  0
 15 54  1  0
 15 55  1  0
 16 56  1  0
 16 57  1  0
 22 58  1  0
 22 59  1  0
 23 60  1  0
 23 61  1  0
 23 62  1  0
 28 63  1  0
 29 64  1  0
 30 65  1  0
 31 66  1  0
M  CHG  1  21  -1
M  END
>  <UniqueID>  (72) 
4

>  <SMILES>  (72) 
CCCC[C@H](C(=O)N[C@H](CC1CCCCC1)C(=O)C(=O)[N-]CC)c1nnc2ccccn12

>  <Energy>  (72) 
98.11809302420015

>  <Genealogy>  (72) 
CCCCC(C(=O)NC(CC1CCCCC1)C(=O)C(=O)[N-]CC)c1nnc2ccccn12 (protonated)
CCCC[C@H](C(=O)N[C@H](CC1CCCCC1)C(=O)C(=O)[N-]CC)c1nnc2ccccn12 (chirality)
CCCC[C@H](C(=O)N[C@H](CC1CCCCC1)C(=O)C(=O)[N-]CC)c1nnc2ccccn12 (3D coordinates assigned)
CCCC[C@H](C(=O)N[C@H](CC1CCCCC1)C(=O)C(=O)[N-]CC)c1nnc2ccccn12 (nonaromatic ring conformer: 98.11809302420015 kcal/mol)

>  <smiles>  (72) 
CCCCC(C(=O)NC(CC1CCCCC1)C(=O)C(=O)NCC)c1nnc2ccccn12

>  <score_type>  (72) 
oracle

>  <origin>  (72) 
autodockgpu

>  <m_score__min__energy>  (72) 
-7.4000000000000004

>  <m_primary>  (72) 
energy

>  <meeko>  (72) 
{"free_energy": -5.93, "intermolecular_energy": -9.51, "internal_energy": -3.97, "cluster_size": 5, "cluster_id": 6, "rank_in_cluster": 4}

>  <energy>  (72) 
-6.16

>  <cluster_rmsd>  (72) 
0.0

>  <rmsd>  (72) 
270.59

>  <cluster>  (72) 
5

$$$$
NNKZOUMTYASKLJ-JYRSORQKNA-M
     RDKit          3D

 66 68  0  0  0  0  0  0  0  0999 V2000
  144.9550   73.3690  220.7800 C   0  0  0  0  0  0  0  0  0  0  0  0
  144.0680   74.5620  220.4410 C   0  0  0  0  0  0  0  0  0  0  0  0
  142.8840   74.1380  219.5630 C   0  0  0  0  0  0  0  0  0  0  0  0
  141.5640   74.8290  219.9520 C   0  0  0  0  0  0  0  0  0  0  0  0
  141.2400   74.7490  221.4650 C   0  0  2  0  0  0  0  0  0  0  0  0
  140.9270   73.3460  221.9260 C   0  0  0  0  0  0  0  0  0  0  0  0
  141.7720   72.4330  221.7200 O   0  0  0  0  0  0  0  0  0  0  0  0
  139.7090   73.0480  222.6270 N   0  0  0  0  0  0  0  0  0  0  0  0
  139.4200   71.7060  223.1420 C   0  0  2  0  0  0  0  0  0  0  0  0
  140.5800   71.1810  224.0260 C   0  0  0  0  0  0  0  0  0  0  0  0
  140.2020   70.8270  225.4880 C   0  0  0  0  0  0  0  0  0  0  0  0
  140.5470   69.3750  225.8710 C   0  0  0  0  0  0  0  0  0  0  0  0
  139.9780   69.0070  227.2530 C   0  0  0  0  0  0  0  0  0  0  0  0
  140.0310   70.1660  228.2700 C   0  0  0  0  0  0  0  0  0  0  0  0
  141.0720   71.2250  227.8910 C   0  0  0  0  0  0  0  0  0  0  0  0
  140.7660   71.8490  226.5150 C   0  0  0  0  0  0  0  0  0  0  0  0
  139.2040   70.7720  221.9760 C   0  0  0  0  0  0  0  0  0  0  0  0
  139.0710   71.2610  220.8220 O   0  0  0  0  0  0  0  0  0  0  0  0
  139.2030   69.3040  222.1680 C   0  0  0  0  0  0  0  0  0  0  0  0
  139.8770   68.5830  221.3870 O   0  0  0  0  0  0  0  0  0  0  0  0
  138.4750   68.6610  223.2240 N   0  0  0  0  0  0  0  0  0  0  0  0
  137.0910   68.9360  223.5910 C   0  0  0  0  0  0  0  0  0  0  0  0
  137.0460   69.6050  224.9550 C   0  0  0  0  0  0  0  0  0  0  0  0
  140.1480   75.6950  221.9220 C   0  0  0  0  0  0  0  0  0  0  0  0
  138.8380   75.3910  221.7700 N   0  0  0  0  0  0  0  0  0  0  0  0
  138.1250   76.4300  222.1880 N   0  0  0  0  0  0  0  0  0  0  0  0
  139.0130   77.3570  222.5810 C   0  0  0  0  0  0  0  0  0  0  0  0
  138.7150   78.6170  223.0920 C   0  0  0  0  0  0  0  0  0  0  0  0
  139.7890   79.4460  223.4420 C   0  0  0  0  0  0  0  0  0  0  0  0
  141.1130   79.0010  223.2720 C   0  0  0  0  0  0  0  0  0  0  0  0
  141.3530   77.7210  222.7500 C   0  0  0  0  0  0  0  0  0  0  0  0
  140.2820   76.9440  222.4260 N   0  0  0  0  0  0  0  0  0  0  0  0
  145.0307   73.2672  221.8727 H   0  0  0  0  0  0  0  0  0  0  0  0
  144.5163   72.4537  220.3560 H   0  0  0  0  0  0  0  0  0  0  0  0
  145.9578   73.5255  220.3560 H   0  0  0  0  0  0  0  0  0  0  0  0
  143.6844   75.0010  221.3738 H   0  0  0  0  0  0  0  0  0  0  0  0
  144.6688   75.2975  219.8859 H   0  0  0  0  0  0  0  0  0  0  0  0
  143.1159   74.3898  218.5176 H   0  0  0  0  0  0  0  0  0  0  0  0
  142.7417   73.0565  219.7051 H   0  0  0  0  0  0  0  0  0  0  0  0
  141.6302   75.8893  219.6668 H   0  0  0  0  0  0  0  0  0  0  0  0
  140.7572   74.3009  219.4227 H   0  0  0  0  0  0  0  0  0  0  0  0
  142.1735   75.0781  221.9449 H   0  0  0  0  0  0  0  0  0  0  0  0
  139.0700   73.8300  222.8830 H   0  0  0  0  0  0  0  0  0  0  0  0
  138.5153   71.7535  223.7659 H   0  0  0  0  0  0  0  0  0  0  0  0
  140.9830   70.2740  223.5517 H   0  0  0  0  0  0  0  0  0  0  0  0
  141.3035   72.0067  224.0941 H   0  0  0  0  0  0  0  0  0  0  0  0
  139.1054   70.9020  225.5322 H   0  0  0  0  0  0  0  0  0  0  0  0
  140.1225   68.6958  225.1170 H   0  0  0  0  0  0  0  0  0  0  0  0
  141.6421   69.2791  225.9114 H   0  0  0  0  0  0  0  0  0  0  0  0
  138.9286   68.7021  227.1273 H   0  0  0  0  0  0  0  0  0  0  0  0
  140.6035   68.1960  227.6544 H   0  0  0  0  0  0  0  0  0  0  0  0
  139.0409   70.6432  228.3145 H   0  0  0  0  0  0  0  0  0  0  0  0
  140.3183   69.7454  229.2450 H   0  0  0  0  0  0  0  0  0  0  0  0
  141.0683   72.0188  228.6525 H   0  0  0  0  0  0  0  0  0  0  0  0
  142.0570   70.7382  227.8385 H   0  0  0  0  0  0  0  0  0  0  0  0
  140.0257   72.6509  226.6521 H   0  0  0  0  0  0  0  0  0  0  0  0
  141.7163   72.2271  226.1101 H   0  0  0  0  0  0  0  0  0  0  0  0
  136.6396   69.6028  222.8416 H   0  0  0  0  0  0  0  0  0  0  0  0
  136.5298   67.9907  223.6302 H   0  0  0  0  0  0  0  0  0  0  0  0
  137.0976   68.8378  225.7416 H   0  0  0  0  0  0  0  0  0  0  0  0
  137.9000   70.2910  225.0553 H   0  0  0  0  0  0  0  0  0  0  0  0
  136.1078   70.1704  225.0553 H   0  0  0  0  0  0  0  0  0  0  0  0
  137.6740   78.9499  223.2165 H   0  0  0  0  0  0  0  0  0  0  0  0
  139.5964   80.4487  223.8513 H   0  0  0  0  0  0  0  0  0  0  0  0
  141.9552   79.6530  223.5468 H   0  0  0  0  0  0  0  0  0  0  0  0
  142.3800   77.3542  222.6060 H   0  0  0  0  0  0  0  0  0  0  0  0
  1  2  1  0
  2  3  1  0
  3  4  1  0
  4  5  1  0
  5  6  1  0
  6  7  2  0
  6  8  1  0
  8  9  1  0
  9 10  1  0
 10 11  1  0
 11 12  1  0
 12 13  1  0
 13 14  1  0
 14 15  1  0
 15 16  1  0
  9 17  1  0
 17 18  2  0
 17 19  1  0
 19 20  2  0
 19 21  1  0
 21 22  1  0
 22 23  1  0
  5 24  1  0
 24 25  2  0
 25 26  1  0
 26 27  2  0
 27 28  1  0
 28 29  2  0
 29 30  1  0
 30 31  2  0
 31 32  1  0
 16 11  1  0
 32 24  1  0
 32 27  1  0
  1 33  1  0
  1 34  1  0
  1 35  1  0
  2 36  1  0
  2 37  1  0
  3 38  1  0
  3 39  1  0
  4 40  1  0
  4 41  1  0
  5 42  1  1
  8 43  1  0
  9 44  1  1
 10 45  1  0
 10 46  1  0
 11 47  1  0
 12 48  1  0
 12 49  1  0
 13 50  1  0
 13 51  1  0
 14 52  1  0
 14 53  1  0
 15 54  1  0
 15 55  1  0
 16 56  1  0
 16 57  1  0
 22 58  1  0
 22 59  1  0
 23 60  1  0
 23 61  1  0
 23 62  1  0
 28 63  1  0
 29 64  1  0
 30 65  1  0
 31 66  1  0
M  CHG  1  21  -1
M  END
>  <UniqueID>  (73) 
4

>  <SMILES>  (73) 
CCCC[C@H](C(=O)N[C@H](CC1CCCCC1)C(=O)C(=O)[N-]CC)c1nnc2ccccn12

>  <Energy>  (73) 
98.11809302420015

>  <Genealogy>  (73) 
CCCCC(C(=O)NC(CC1CCCCC1)C(=O)C(=O)[N-]CC)c1nnc2ccccn12 (protonated)
CCCC[C@H](C(=O)N[C@H](CC1CCCCC1)C(=O)C(=O)[N-]CC)c1nnc2ccccn12 (chirality)
CCCC[C@H](C(=O)N[C@H](CC1CCCCC1)C(=O)C(=O)[N-]CC)c1nnc2ccccn12 (3D coordinates assigned)
CCCC[C@H](C(=O)N[C@H](CC1CCCCC1)C(=O)C(=O)[N-]CC)c1nnc2ccccn12 (nonaromatic ring conformer: 98.11809302420015 kcal/mol)

>  <smiles>  (73) 
CCCCC(C(=O)NC(CC1CCCCC1)C(=O)C(=O)NCC)c1nnc2ccccn12

>  <score_type>  (73) 
oracle

>  <origin>  (73) 
autodockgpu

>  <m_score__min__energy>  (73) 
-7.4000000000000004

>  <m_primary>  (73) 
energy

>  <meeko>  (73) 
{"free_energy": -6.67, "intermolecular_energy": -10.25, "internal_energy": -2.67, "cluster_size": 1, "cluster_id": 2, "rank_in_cluster": 1}

>  <energy>  (73) 
-6.06

>  <cluster_rmsd>  (73) 
0.0

>  <rmsd>  (73) 
270.31

>  <cluster>  (73) 
6

$$$$
NNKZOUMTYASKLJ-JYRSORQKNA-M
     RDKit          3D

 66 68  0  0  0  0  0  0  0  0999 V2000
  138.3370   77.3720  220.6800 C   0  0  0  0  0  0  0  0  0  0  0  0
  138.8620   77.5370  219.2570 C   0  0  0  0  0  0  0  0  0  0  0  0
  139.6630   78.8370  219.1110 C   0  0  0  0  0  0  0  0  0  0  0  0
  140.9790   78.6520  218.3330 C   0  0  0  0  0  0  0  0  0  0  0  0
  142.1220   78.0320  219.1780 C   0  0  2  0  0  0  0  0  0  0  0  0
  142.5520   76.6740  218.6790 C   0  0  0  0  0  0  0  0  0  0  0  0
  142.4330   76.4090  217.4510 O   0  0  0  0  0  0  0  0  0  0  0  0
  143.1280   75.7040  219.5670 N   0  0  0  0  0  0  0  0  0  0  0  0
  143.6140   74.4060  219.0870 C   0  0  2  0  0  0  0  0  0  0  0  0
  142.4870   73.3410  219.1090 C   0  0  0  0  0  0  0  0  0  0  0  0
  141.7240   73.2000  220.4530 C   0  0  0  0  0  0  0  0  0  0  0  0
  140.3690   73.9320  220.4610 C   0  0  0  0  0  0  0  0  0  0  0  0
  139.7400   73.9370  221.8660 C   0  0  0  0  0  0  0  0  0  0  0  0
  139.9810   72.6310  222.6540 C   0  0  0  0  0  0  0  0  0  0  0  0
  140.3140   71.4510  221.7350 C   0  0  0  0  0  0  0  0  0  0  0  0
  141.5890   71.7210  220.9100 C   0  0  0  0  0  0  0  0  0  0  0  0
  144.7570   73.9570  219.9650 C   0  0  0  0  0  0  0  0  0  0  0  0
  144.6760   74.1410  221.2090 O   0  0  0  0  0  0  0  0  0  0  0  0
  145.9310   73.2630  219.3880 C   0  0  0  0  0  0  0  0  0  0  0  0
  147.0820   73.7270  219.5980 O   0  0  0  0  0  0  0  0  0  0  0  0
  145.8160   72.0650  218.6080 N   0  0  0  0  0  0  0  0  0  0  0  0
  145.2050   70.8170  219.0510 C   0  0  0  0  0  0  0  0  0  0  0  0
  146.2170   69.6880  218.9520 C   0  0  0  0  0  0  0  0  0  0  0  0
  141.8360   77.9660  220.6640 C   0  0  0  0  0  0  0  0  0  0  0  0
  141.4070   76.8260  221.2520 N   0  0  0  0  0  0  0  0  0  0  0  0
  141.1710   77.0880  222.5320 N   0  0  0  0  0  0  0  0  0  0  0  0
  141.4510   78.3900  222.7030 C   0  0  0  0  0  0  0  0  0  0  0  0
  141.3450   79.1050  223.8920 C   0  0  0  0  0  0  0  0  0  0  0  0
  141.6820   80.4650  223.8640 C   0  0  0  0  0  0  0  0  0  0  0  0
  142.1070   81.0660  222.6640 C   0  0  0  0  0  0  0  0  0  0  0  0
  142.1940   80.2950  221.4950 C   0  0  0  0  0  0  0  0  0  0  0  0
  141.8610   78.9760  221.5650 N   0  0  0  0  0  0  0  0  0  0  0  0
  139.1336   77.6224  221.3960 H   0  0  0  0  0  0  0  0  0  0  0  0
  137.4802   78.0442  220.8349 H   0  0  0  0  0  0  0  0  0  0  0  0
  138.0187   76.3305  220.8349 H   0  0  0  0  0  0  0  0  0  0  0  0
  139.5131   76.6846  219.0132 H   0  0  0  0  0  0  0  0  0  0  0  0
  138.0035   77.5767  218.5704 H   0  0  0  0  0  0  0  0  0  0  0  0
  139.0422   79.5727  218.5787 H   0  0  0  0  0  0  0  0  0  0  0  0
  139.9259   79.1756  220.1240 H   0  0  0  0  0  0  0  0  0  0  0  0
  140.7849   77.9922  217.4745 H   0  0  0  0  0  0  0  0  0  0  0  0
  141.3139   79.6537  218.0258 H   0  0  0  0  0  0  0  0  0  0  0  0
  142.9544   78.7379  219.0409 H   0  0  0  0  0  0  0  0  0  0  0  0
  143.3170   75.9740  220.5550 H   0  0  0  0  0  0  0  0  0  0  0  0
  143.9532   74.5179  218.0466 H   0  0  0  0  0  0  0  0  0  0  0  0
  141.7559   73.6058  218.3309 H   0  0  0  0  0  0  0  0  0  0  0  0
  142.9836   72.3738  218.9419 H   0  0  0  0  0  0  0  0  0  0  0  0
  142.3505   73.7087  221.2005 H   0  0  0  0  0  0  0  0  0  0  0  0
  140.5219   74.9711  220.1339 H   0  0  0  0  0  0  0  0  0  0  0  0
  139.6868   73.4037  219.7788 H   0  0  0  0  0  0  0  0  0  0  0  0
  140.1706   74.7727  222.4372 H   0  0  0  0  0  0  0  0  0  0  0  0
  138.6528   74.0385  221.7331 H   0  0  0  0  0  0  0  0  0  0  0  0
  140.8198   72.7864  223.3484 H   0  0  0  0  0  0  0  0  0  0  0  0
  139.0537   72.3869  223.1929 H   0  0  0  0  0  0  0  0  0  0  0  0
  140.4692   70.5519  222.3494 H   0  0  0  0  0  0  0  0  0  0  0  0
  139.4751   71.3082  221.0380 H   0  0  0  0  0  0  0  0  0  0  0  0
  142.4639   71.4646  221.5255 H   0  0  0  0  0  0  0  0  0  0  0  0
  141.5259   71.1039  220.0016 H   0  0  0  0  0  0  0  0  0  0  0  0
  144.8751   70.9218  220.0951 H   0  0  0  0  0  0  0  0  0  0  0  0
  144.3398   70.5878  218.4115 H   0  0  0  0  0  0  0  0  0  0  0  0
  146.5063   69.3652  219.9630 H   0  0  0  0  0  0  0  0  0  0  0  0
  145.7699   68.8412  218.4107 H   0  0  0  0  0  0  0  0  0  0  0  0
  147.1075   70.0402  218.4107 H   0  0  0  0  0  0  0  0  0  0  0  0
  141.0088   78.6202  224.8204 H   0  0  0  0  0  0  0  0  0  0  0  0
  141.6142   81.0652  224.7833 H   0  0  0  0  0  0  0  0  0  0  0  0
  142.3694   82.1340  222.6430 H   0  0  0  0  0  0  0  0  0  0  0  0
  142.5227   80.7442  220.5462 H   0  0  0  0  0  0  0  0  0  0  0  0
  1  2  1  0
  2  3  1  0
  3  4  1  0
  4  5  1  0
  5  6  1  0
  6  7  2  0
  6  8  1  0
  8  9  1  0
  9 10  1  0
 10 11  1  0
 11 12  1  0
 12 13  1  0
 13 14  1  0
 14 15  1  0
 15 16  1  0
  9 17  1  0
 17 18  2  0
 17 19  1  0
 19 20  2  0
 19 21  1  0
 21 22  1  0
 22 23  1  0
  5 24  1  0
 24 25  2  0
 25 26  1  0
 26 27  2  0
 27 28  1  0
 28 29  2  0
 29 30  1  0
 30 31  2  0
 31 32  1  0
 16 11  1  0
 32 24  1  0
 32 27  1  0
  1 33  1  0
  1 34  1  0
  1 35  1  0
  2 36  1  0
  2 37  1  0
  3 38  1  0
  3 39  1  0
  4 40  1  0
  4 41  1  0
  5 42  1  1
  8 43  1  0
  9 44  1  6
 10 45  1  0
 10 46  1  0
 11 47  1  0
 12 48  1  0
 12 49  1  0
 13 50  1  0
 13 51  1  0
 14 52  1  0
 14 53  1  0
 15 54  1  0
 15 55  1  0
 16 56  1  0
 16 57  1  0
 22 58  1  0
 22 59  1  0
 23 60  1  0
 23 61  1  0
 23 62  1  0
 28 63  1  0
 29 64  1  0
 30 65  1  0
 31 66  1  0
M  CHG  1  21  -1
M  END
>  <UniqueID>  (74) 
4

>  <SMILES>  (74) 
CCCC[C@H](C(=O)N[C@H](CC1CCCCC1)C(=O)C(=O)[N-]CC)c1nnc2ccccn12

>  <Energy>  (74) 
98.11809302420015

>  <Genealogy>  (74) 
CCCCC(C(=O)NC(CC1CCCCC1)C(=O)C(=O)[N-]CC)c1nnc2ccccn12 (protonated)
CCCC[C@H](C(=O)N[C@H](CC1CCCCC1)C(=O)C(=O)[N-]CC)c1nnc2ccccn12 (chirality)
CCCC[C@H](C(=O)N[C@H](CC1CCCCC1)C(=O)C(=O)[N-]CC)c1nnc2ccccn12 (3D coordinates assigned)
CCCC[C@H](C(=O)N[C@H](CC1CCCCC1)C(=O)C(=O)[N-]CC)c1nnc2ccccn12 (nonaromatic ring conformer: 98.11809302420015 kcal/mol)

>  <smiles>  (74) 
CCCCC(C(=O)NC(CC1CCCCC1)C(=O)C(=O)NCC)c1nnc2ccccn12

>  <score_type>  (74) 
oracle

>  <origin>  (74) 
autodockgpu

>  <m_score__min__energy>  (74) 
-7.4000000000000004

>  <m_primary>  (74) 
energy

>  <meeko>  (74) 
{"free_energy": -5.9, "intermolecular_energy": -9.48, "internal_energy": -3.78, "cluster_size": 3, "cluster_id": 3, "rank_in_cluster": 3}

>  <energy>  (74) 
-6.0

>  <cluster_rmsd>  (74) 
1.2

>  <rmsd>  (74) 
270.36

>  <cluster>  (74) 
6

$$$$
NNKZOUMTYASKLJ-JYRSORQKNA-M
     RDKit          3D

 66 68  0  0  0  0  0  0  0  0999 V2000
  138.9410   73.5340  221.9420 C   0  0  0  0  0  0  0  0  0  0  0  0
  140.3500   72.9660  221.7990 C   0  0  0  0  0  0  0  0  0  0  0  0
  140.6300   71.9070  222.8730 C   0  0  0  0  0  0  0  0  0  0  0  0
  139.3630   71.4600  223.6260 C   0  0  0  0  0  0  0  0  0  0  0  0
  139.0380   69.9530  223.4620 C   0  0  2  0  0  0  0  0  0  0  0  0
  137.6280   69.7040  222.9830 C   0  0  0  0  0  0  0  0  0  0  0  0
  137.4520   69.1420  221.8680 O   0  0  0  0  0  0  0  0  0  0  0  0
  136.4950   70.0580  223.7920 N   0  0  0  0  0  0  0  0  0  0  0  0
  135.1210   69.7620  223.3730 C   0  0  2  0  0  0  0  0  0  0  0  0
  134.2510   71.0460  223.3500 C   0  0  0  0  0  0  0  0  0  0  0  0
  135.0330   72.3860  223.3530 C   0  0  0  0  0  0  0  0  0  0  0  0
  134.6320   73.3260  222.2010 C   0  0  0  0  0  0  0  0  0  0  0  0
  135.5630   74.5490  222.1220 C   0  0  0  0  0  0  0  0  0  0  0  0
  136.0100   75.0740  223.5030 C   0  0  0  0  0  0  0  0  0  0  0  0
  135.0630   74.6370  224.6260 C   0  0  0  0  0  0  0  0  0  0  0  0
  134.9860   73.1010  224.7330 C   0  0  0  0  0  0  0  0  0  0  0  0
  134.5240   68.7590  224.3300 C   0  0  0  0  0  0  0  0  0  0  0  0
  134.2850   67.5930  223.9160 O   0  0  0  0  0  0  0  0  0  0  0  0
  134.2720   69.1140  225.7450 C   0  0  0  0  0  0  0  0  0  0  0  0
  133.5690   68.3480  226.4540 O   0  0  0  0  0  0  0  0  0  0  0  0
  134.8130   70.2950  226.3550 N   0  0  0  0  0  0  0  0  0  0  0  0
  134.3000   70.9420  227.5570 C   0  0  0  0  0  0  0  0  0  0  0  0
  133.1110   71.8180  227.2010 C   0  0  0  0  0  0  0  0  0  0  0  0
  139.3170   69.1160  224.6920 C   0  0  0  0  0  0  0  0  0  0  0  0
  138.8840   67.8380  224.7930 N   0  0  0  0  0  0  0  0  0  0  0  0
  139.2090   67.3880  225.9990 N   0  0  0  0  0  0  0  0  0  0  0  0
  139.8290   68.4050  226.6210 C   0  0  0  0  0  0  0  0  0  0  0  0
  140.3420   68.3870  227.9140 C   0  0  0  0  0  0  0  0  0  0  0  0
  140.9530   69.5570  228.3860 C   0  0  0  0  0  0  0  0  0  0  0  0
  141.0290   70.6970  227.5650 C   0  0  0  0  0  0  0  0  0  0  0  0
  140.4930   70.6570  226.2690 C   0  0  0  0  0  0  0  0  0  0  0  0
  139.9110   69.5000  225.8460 N   0  0  0  0  0  0  0  0  0  0  0  0
  138.6926   73.6341  223.0089 H   0  0  0  0  0  0  0  0  0  0  0  0
  138.8931   74.5217  221.4601 H   0  0  0  0  0  0  0  0  0  0  0  0
  138.2215   72.8556  221.4601 H   0  0  0  0  0  0  0  0  0  0  0  0
  140.4527   72.5058  220.8052 H   0  0  0  0  0  0  0  0  0  0  0  0
  141.0718   73.7870  221.9212 H   0  0  0  0  0  0  0  0  0  0  0  0
  141.0780   71.0269  222.3884 H   0  0  0  0  0  0  0  0  0  0  0  0
  141.3076   72.3602  223.6116 H   0  0  0  0  0  0  0  0  0  0  0  0
  139.5033   71.6703  224.6966 H   0  0  0  0  0  0  0  0  0  0  0  0
  138.5194   72.0190  223.1948 H   0  0  0  0  0  0  0  0  0  0  0  0
  139.7392   69.6229  222.6814 H   0  0  0  0  0  0  0  0  0  0  0  0
  136.6560   70.4250  224.7540 H   0  0  0  0  0  0  0  0  0  0  0  0
  135.1431   69.3505  222.3531 H   0  0  0  0  0  0  0  0  0  0  0  0
  133.6307   71.0182  222.4420 H   0  0  0  0  0  0  0  0  0  0  0  0
  133.6717   71.0337  224.2851 H   0  0  0  0  0  0  0  0  0  0  0  0
  136.0830   72.1131  223.1713 H   0  0  0  0  0  0  0  0  0  0  0  0
  134.6874   72.7725  221.2520 H   0  0  0  0  0  0  0  0  0  0  0  0
  133.6081   73.6826  222.3866 H   0  0  0  0  0  0  0  0  0  0  0  0
  136.4594   74.2676  221.5499 H   0  0  0  0  0  0  0  0  0  0  0  0
  134.9949   75.3568  221.6376 H   0  0  0  0  0  0  0  0  0  0  0  0
  137.0170   74.6878  223.7192 H   0  0  0  0  0  0  0  0  0  0  0  0
  136.0010   76.1733  223.4640 H   0  0  0  0  0  0  0  0  0  0  0  0
  135.4282   75.0441  225.5804 H   0  0  0  0  0  0  0  0  0  0  0  0
  134.0568   75.0184  224.3976 H   0  0  0  0  0  0  0  0  0  0  0  0
  135.8354   72.7499  225.3374 H   0  0  0  0  0  0  0  0  0  0  0  0
  134.0188   72.8543  225.1953 H   0  0  0  0  0  0  0  0  0  0  0  0
  133.9850   70.1743  228.2791 H   0  0  0  0  0  0  0  0  0  0  0  0
  135.0908   71.5649  228.0004 H   0  0  0  0  0  0  0  0  0  0  0  0
  132.6284   72.1736  228.1233 H   0  0  0  0  0  0  0  0  0  0  0  0
  133.4546   72.6804  226.6110 H   0  0  0  0  0  0  0  0  0  0  0  0
  132.3891   71.2343  226.6110 H   0  0  0  0  0  0  0  0  0  0  0  0
  140.2708   67.4874  228.5431 H   0  0  0  0  0  0  0  0  0  0  0  0
  141.3745   69.5839  229.4017 H   0  0  0  0  0  0  0  0  0  0  0  0
  141.5064   71.6154  227.9374 H   0  0  0  0  0  0  0  0  0  0  0  0
  140.5414   71.5373  225.6112 H   0  0  0  0  0  0  0  0  0  0  0  0
  1  2  1  0
  2  3  1  0
  3  4  1  0
  4  5  1  0
  5  6  1  0
  6  7  2  0
  6  8  1  0
  8  9  1  0
  9 10  1  0
 10 11  1  0
 11 12  1  0
 12 13  1  0
 13 14  1  0
 14 15  1  0
 15 16  1  0
  9 17  1  0
 17 18  2  0
 17 19  1  0
 19 20  2  0
 19 21  1  0
 21 22  1  0
 22 23  1  0
  5 24  1  0
 24 25  2  0
 25 26  1  0
 26 27  2  0
 27 28  1  0
 28 29  2  0
 29 30  1  0
 30 31  2  0
 31 32  1  0
 16 11  1  0
 32 24  1  0
 32 27  1  0
  1 33  1  0
  1 34  1  0
  1 35  1  0
  2 36  1  0
  2 37  1  0
  3 38  1  0
  3 39  1  0
  4 40  1  0
  4 41  1  0
  5 42  1  6
  8 43  1  0
  9 44  1  6
 10 45  1  0
 10 46  1  0
 11 47  1  0
 12 48  1  0
 12 49  1  0
 13 50  1  0
 13 51  1  0
 14 52  1  0
 14 53  1  0
 15 54  1  0
 15 55  1  0
 16 56  1  0
 16 57  1  0
 22 58  1  0
 22 59  1  0
 23 60  1  0
 23 61  1  0
 23 62  1  0
 28 63  1  0
 29 64  1  0
 30 65  1  0
 31 66  1  0
M  CHG  1  21  -1
M  END
>  <UniqueID>  (75) 
4

>  <SMILES>  (75) 
CCCC[C@H](C(=O)N[C@H](CC1CCCCC1)C(=O)C(=O)[N-]CC)c1nnc2ccccn12

>  <Energy>  (75) 
98.11809302420015

>  <Genealogy>  (75) 
CCCCC(C(=O)NC(CC1CCCCC1)C(=O)C(=O)[N-]CC)c1nnc2ccccn12 (protonated)
CCCC[C@H](C(=O)N[C@H](CC1CCCCC1)C(=O)C(=O)[N-]CC)c1nnc2ccccn12 (chirality)
CCCC[C@H](C(=O)N[C@H](CC1CCCCC1)C(=O)C(=O)[N-]CC)c1nnc2ccccn12 (3D coordinates assigned)
CCCC[C@H](C(=O)N[C@H](CC1CCCCC1)C(=O)C(=O)[N-]CC)c1nnc2ccccn12 (nonaromatic ring conformer: 98.11809302420015 kcal/mol)

>  <smiles>  (75) 
CCCCC(C(=O)NC(CC1CCCCC1)C(=O)C(=O)NCC)c1nnc2ccccn12

>  <score_type>  (75) 
oracle

>  <origin>  (75) 
autodockgpu

>  <m_score__min__energy>  (75) 
-7.4000000000000004

>  <m_primary>  (75) 
energy

>  <meeko>  (75) 
{"free_energy": -6.72, "intermolecular_energy": -10.3, "internal_energy": -2.75, "cluster_size": 5, "cluster_id": 1, "rank_in_cluster": 3}

>  <energy>  (75) 
-5.97

>  <cluster_rmsd>  (75) 
1.12

>  <rmsd>  (75) 
270.37

>  <cluster>  (75) 
6

$$$$
NNKZOUMTYASKLJ-JYRSORQKNA-M
     RDKit          3D

 66 68  0  0  0  0  0  0  0  0999 V2000
  140.5010   82.7710  221.5330 C   0  0  0  0  0  0  0  0  0  0  0  0
  141.4570   81.7160  220.9840 C   0  0  0  0  0  0  0  0  0  0  0  0
  142.1900   80.9920  222.1200 C   0  0  0  0  0  0  0  0  0  0  0  0
  141.4950   81.1480  223.4860 C   0  0  0  0  0  0  0  0  0  0  0  0
  140.5390   79.9790  223.8380 C   0  0  2  0  0  0  0  0  0  0  0  0
  141.0740   78.6340  223.4130 C   0  0  0  0  0  0  0  0  0  0  0  0
  142.1790   78.2420  223.8780 O   0  0  0  0  0  0  0  0  0  0  0  0
  140.3300   77.7840  222.5260 N   0  0  0  0  0  0  0  0  0  0  0  0
  140.8030   76.4460  222.1570 C   0  0  2  0  0  0  0  0  0  0  0  0
  141.5160   76.4620  220.7790 C   0  0  0  0  0  0  0  0  0  0  0  0
  141.4870   77.8170  220.0260 C   0  0  0  0  0  0  0  0  0  0  0  0
  142.4690   77.8740  218.8400 C   0  0  0  0  0  0  0  0  0  0  0  0
  142.5550   79.2920  218.2480 C   0  0  0  0  0  0  0  0  0  0  0  0
  141.2050   80.0400  218.2410 C   0  0  0  0  0  0  0  0  0  0  0  0
  140.0090   79.0840  218.3220 C   0  0  0  0  0  0  0  0  0  0  0  0
  140.0490   78.2390  219.6110 C   0  0  0  0  0  0  0  0  0  0  0  0
  139.6230   75.5060  222.1090 C   0  0  0  0  0  0  0  0  0  0  0  0
  139.8130   74.2790  222.3280 O   0  0  0  0  0  0  0  0  0  0  0  0
  138.2540   76.0160  221.8650 C   0  0  0  0  0  0  0  0  0  0  0  0
  137.6140   75.6020  220.8640 O   0  0  0  0  0  0  0  0  0  0  0  0
  137.6120   76.9580  222.7370 N   0  0  0  0  0  0  0  0  0  0  0  0
  136.1970   76.9640  223.0880 C   0  0  0  0  0  0  0  0  0  0  0  0
  135.8470   75.6820  223.8260 C   0  0  0  0  0  0  0  0  0  0  0  0
  139.1240   80.1530  223.3270 C   0  0  0  0  0  0  0  0  0  0  0  0
  138.8150   79.9750  222.0220 N   0  0  0  0  0  0  0  0  0  0  0  0
  137.5290   80.2660  221.8610 N   0  0  0  0  0  0  0  0  0  0  0  0
  137.0760   80.6280  223.0720 C   0  0  0  0  0  0  0  0  0  0  0  0
  135.7760   81.0220  223.3790 C   0  0  0  0  0  0  0  0  0  0  0  0
  135.5010   81.3670  224.7090 C   0  0  0  0  0  0  0  0  0  0  0  0
  136.5170   81.3130  225.6810 C   0  0  0  0  0  0  0  0  0  0  0  0
  137.8090   80.9100  225.3120 C   0  0  0  0  0  0  0  0  0  0  0  0
  138.0360   80.5790  224.0110 N   0  0  0  0  0  0  0  0  0  0  0  0
  140.5218   82.7480  222.6326 H   0  0  0  0  0  0  0  0  0  0  0  0
  140.8116   83.7659  221.1811 H   0  0  0  0  0  0  0  0  0  0  0  0
  139.4805   82.5597  221.1811 H   0  0  0  0  0  0  0  0  0  0  0  0
  140.8840   80.9808  220.3999 H   0  0  0  0  0  0  0  0  0  0  0  0
  142.2031   82.2164  220.3493 H   0  0  0  0  0  0  0  0  0  0  0  0
  142.2435   79.9209  221.8751 H   0  0  0  0  0  0  0  0  0  0  0  0
  143.1882   81.4459  222.2070 H   0  0  0  0  0  0  0  0  0  0  0  0
  142.2697   81.2091  224.2645 H   0  0  0  0  0  0  0  0  0  0  0  0
  140.8810   82.0591  223.4313 H   0  0  0  0  0  0  0  0  0  0  0  0
  140.4912   80.0085  224.9366 H   0  0  0  0  0  0  0  0  0  0  0  0
  139.3740   78.0740  222.2330 H   0  0  0  0  0  0  0  0  0  0  0  0
  141.5298   76.1078  222.9102 H   0  0  0  0  0  0  0  0  0  0  0  0
  142.5688   76.1863  220.9393 H   0  0  0  0  0  0  0  0  0  0  0  0
  140.9625   75.7534  220.1453 H   0  0  0  0  0  0  0  0  0  0  0  0
  141.8414   78.5629  220.7526 H   0  0  0  0  0  0  0  0  0  0  0  0
  143.4675   77.5704  219.1875 H   0  0  0  0  0  0  0  0  0  0  0  0
  142.1042   77.1938  218.0562 H   0  0  0  0  0  0  0  0  0  0  0  0
  143.2728   79.8749  218.8438 H   0  0  0  0  0  0  0  0  0  0  0  0
  142.8712   79.1860  217.1998 H   0  0  0  0  0  0  0  0  0  0  0  0
  141.1731   80.7203  219.1049 H   0  0  0  0  0  0  0  0  0  0  0  0
  141.1310   80.5915  217.2921 H   0  0  0  0  0  0  0  0  0  0  0  0
  139.0795   79.6721  218.3085 H   0  0  0  0  0  0  0  0  0  0  0  0
  140.0526   78.4020  217.4601 H   0  0  0  0  0  0  0  0  0  0  0  0
  139.6086   78.8285  220.4286 H   0  0  0  0  0  0  0  0  0  0  0  0
  139.4832   77.3166  219.4133 H   0  0  0  0  0  0  0  0  0  0  0  0
  135.9843   77.8280  223.7348 H   0  0  0  0  0  0  0  0  0  0  0  0
  135.5943   77.0324  222.1704 H   0  0  0  0  0  0  0  0  0  0  0  0
  135.8952   75.8585  224.9107 H   0  0  0  0  0  0  0  0  0  0  0  0
  134.8298   75.3664  223.5507 H   0  0  0  0  0  0  0  0  0  0  0  0
  136.5627   74.8933  223.5507 H   0  0  0  0  0  0  0  0  0  0  0  0
  134.9942   81.0609  222.6062 H   0  0  0  0  0  0  0  0  0  0  0  0
  134.4863   81.6814  224.9945 H   0  0  0  0  0  0  0  0  0  0  0  0
  136.2994   81.5853  226.7243 H   0  0  0  0  0  0  0  0  0  0  0  0
  138.6185   80.8626  226.0552 H   0  0  0  0  0  0  0  0  0  0  0  0
  1  2  1  0
  2  3  1  0
  3  4  1  0
  4  5  1  0
  5  6  1  0
  6  7  2  0
  6  8  1  0
  8  9  1  0
  9 10  1  0
 10 11  1  0
 11 12  1  0
 12 13  1  0
 13 14  1  0
 14 15  1  0
 15 16  1  0
  9 17  1  0
 17 18  2  0
 17 19  1  0
 19 20  2  0
 19 21  1  0
 21 22  1  0
 22 23  1  0
  5 24  1  0
 24 25  2  0
 25 26  1  0
 26 27  2  0
 27 28  1  0
 28 29  2  0
 29 30  1  0
 30 31  2  0
 31 32  1  0
 16 11  1  0
 32 24  1  0
 32 27  1  0
  1 33  1  0
  1 34  1  0
  1 35  1  0
  2 36  1  0
  2 37  1  0
  3 38  1  0
  3 39  1  0
  4 40  1  0
  4 41  1  0
  5 42  1  1
  8 43  1  0
  9 44  1  1
 10 45  1  0
 10 46  1  0
 11 47  1  0
 12 48  1  0
 12 49  1  0
 13 50  1  0
 13 51  1  0
 14 52  1  0
 14 53  1  0
 15 54  1  0
 15 55  1  0
 16 56  1  0
 16 57  1  0
 22 58  1  0
 22 59  1  0
 23 60  1  0
 23 61  1  0
 23 62  1  0
 28 63  1  0
 29 64  1  0
 30 65  1  0
 31 66  1  0
M  CHG  1  21  -1
M  END
>  <UniqueID>  (76) 
4

>  <SMILES>  (76) 
CCCC[C@H](C(=O)N[C@H](CC1CCCCC1)C(=O)C(=O)[N-]CC)c1nnc2ccccn12

>  <Energy>  (76) 
98.11809302420015

>  <Genealogy>  (76) 
CCCCC(C(=O)NC(CC1CCCCC1)C(=O)C(=O)[N-]CC)c1nnc2ccccn12 (protonated)
CCCC[C@H](C(=O)N[C@H](CC1CCCCC1)C(=O)C(=O)[N-]CC)c1nnc2ccccn12 (chirality)
CCCC[C@H](C(=O)N[C@H](CC1CCCCC1)C(=O)C(=O)[N-]CC)c1nnc2ccccn12 (3D coordinates assigned)
CCCC[C@H](C(=O)N[C@H](CC1CCCCC1)C(=O)C(=O)[N-]CC)c1nnc2ccccn12 (nonaromatic ring conformer: 98.11809302420015 kcal/mol)

>  <smiles>  (76) 
CCCCC(C(=O)NC(CC1CCCCC1)C(=O)C(=O)NCC)c1nnc2ccccn12

>  <score_type>  (76) 
oracle

>  <origin>  (76) 
autodockgpu

>  <m_score__min__energy>  (76) 
-7.4000000000000004

>  <m_primary>  (76) 
energy

>  <meeko>  (76) 
{"free_energy": -4.5, "intermolecular_energy": -8.08, "internal_energy": -4.62, "cluster_size": 3, "cluster_id": 7, "rank_in_cluster": 2}

>  <energy>  (76) 
-5.93

>  <cluster_rmsd>  (76) 
1.25

>  <rmsd>  (76) 
270.28

>  <cluster>  (76) 
6

$$$$
NNKZOUMTYASKLJ-JYRSORQKNA-M
     RDKit          3D

 66 68  0  0  0  0  0  0  0  0999 V2000
  142.9250   82.0160  217.2840 C   0  0  0  0  0  0  0  0  0  0  0  0
  142.5810   80.8340  218.1850 C   0  0  0  0  0  0  0  0  0  0  0  0
  141.6970   79.8190  217.4490 C   0  0  0  0  0  0  0  0  0  0  0  0
  141.1150   78.7370  218.3790 C   0  0  0  0  0  0  0  0  0  0  0  0
  142.1720   78.0610  219.2880 C   0  0  2  0  0  0  0  0  0  0  0  0
  142.5100   76.6560  218.8540 C   0  0  0  0  0  0  0  0  0  0  0  0
  142.3250   76.3280  217.6490 O   0  0  0  0  0  0  0  0  0  0  0  0
  143.0720   75.7070  219.7750 N   0  0  0  0  0  0  0  0  0  0  0  0
  143.4690   74.3600  219.3530 C   0  0  2  0  0  0  0  0  0  0  0  0
  142.4770   73.2910  219.8810 C   0  0  0  0  0  0  0  0  0  0  0  0
  141.2590   73.8380  220.6700 C   0  0  0  0  0  0  0  0  0  0  0  0
  140.1260   74.3500  219.7610 C   0  0  0  0  0  0  0  0  0  0  0  0
  139.0310   75.0630  220.5740 C   0  0  0  0  0  0  0  0  0  0  0  0
  138.7610   74.4130  221.9480 C   0  0  0  0  0  0  0  0  0  0  0  0
  139.2260   72.9540  222.0030 C   0  0  0  0  0  0  0  0  0  0  0  0
  140.7410   72.8350  221.7380 C   0  0  0  0  0  0  0  0  0  0  0  0
  144.8550   74.0720  219.8770 C   0  0  0  0  0  0  0  0  0  0  0  0
  145.3070   74.7780  220.8190 O   0  0  0  0  0  0  0  0  0  0  0  0
  145.6540   72.9480  219.3380 C   0  0  0  0  0  0  0  0  0  0  0  0
  146.3230   72.2350  220.1310 O   0  0  0  0  0  0  0  0  0  0  0  0
  145.6870   72.6220  217.9420 N   0  0  0  0  0  0  0  0  0  0  0  0
  146.1000   73.5190  216.8690 C   0  0  0  0  0  0  0  0  0  0  0  0
  144.8840   74.2240  216.2920 C   0  0  0  0  0  0  0  0  0  0  0  0
  141.8280   78.0730  220.7630 C   0  0  0  0  0  0  0  0  0  0  0  0
  141.3750   76.9650  221.3940 N   0  0  0  0  0  0  0  0  0  0  0  0
  141.0880   77.2940  222.6480 N   0  0  0  0  0  0  0  0  0  0  0  0
  141.3620   78.6040  222.7600 C   0  0  0  0  0  0  0  0  0  0  0  0
  141.2080   79.3810  223.9040 C   0  0  0  0  0  0  0  0  0  0  0  0
  141.5470   80.7380  223.8170 C   0  0  0  0  0  0  0  0  0  0  0  0
  142.0190   81.2750  222.6050 C   0  0  0  0  0  0  0  0  0  0  0  0
  142.1530   80.4430  221.4830 C   0  0  0  0  0  0  0  0  0  0  0  0
  141.8170   79.1290  221.6100 N   0  0  0  0  0  0  0  0  0  0  0  0
  143.1789   82.8882  217.9043 H   0  0  0  0  0  0  0  0  0  0  0  0
  143.7845   81.7551  216.6490 H   0  0  0  0  0  0  0  0  0  0  0  0
  142.0597   82.2570  216.6490 H   0  0  0  0  0  0  0  0  0  0  0  0
  143.5116   80.3389  218.4994 H   0  0  0  0  0  0  0  0  0  0  0  0
  142.0291   81.2095  219.0593 H   0  0  0  0  0  0  0  0  0  0  0  0
  140.8636   80.3590  216.9758 H   0  0  0  0  0  0  0  0  0  0  0  0
  142.3307   79.3086  216.7087 H   0  0  0  0  0  0  0  0  0  0  0  0
  140.3532   79.2040  219.0206 H   0  0  0  0  0  0  0  0  0  0  0  0
  140.6965   77.9505  217.7338 H   0  0  0  0  0  0  0  0  0  0  0  0
  143.0625   78.6937  219.1587 H   0  0  0  0  0  0  0  0  0  0  0  0
  143.3170   76.0220  220.7370 H   0  0  0  0  0  0  0  0  0  0  0  0
  143.4601   74.3165  218.2539 H   0  0  0  0  0  0  0  0  0  0  0  0
  142.0950   72.7277  219.0168 H   0  0  0  0  0  0  0  0  0  0  0  0
  143.0471   72.6783  220.5948 H   0  0  0  0  0  0  0  0  0  0  0  0
  141.6337   74.7176  221.2140 H   0  0  0  0  0  0  0  0  0  0  0  0
  140.5457   75.0564  219.0297 H   0  0  0  0  0  0  0  0  0  0  0  0
  139.6725   73.4857  219.2538 H   0  0  0  0  0  0  0  0  0  0  0  0
  139.3419   76.1054  220.7373 H   0  0  0  0  0  0  0  0  0  0  0  0
  138.0992   74.9910  219.9938 H   0  0  0  0  0  0  0  0  0  0  0  0
  139.2963   74.9842  222.7208 H   0  0  0  0  0  0  0  0  0  0  0  0
  137.6744   74.4264  222.1187 H   0  0  0  0  0  0  0  0  0  0  0  0
  139.0039   72.5451  222.9997 H   0  0  0  0  0  0  0  0  0  0  0  0
  138.6931   72.3914  221.2223 H   0  0  0  0  0  0  0  0  0  0  0  0
  141.2760   73.0217  222.6808 H   0  0  0  0  0  0  0  0  0  0  0  0
  140.9253   71.8222  221.3502 H   0  0  0  0  0  0  0  0  0  0  0  0
  146.8010   74.2671  217.2677 H   0  0  0  0  0  0  0  0  0  0  0  0
  146.5921   72.9357  216.0767 H   0  0  0  0  0  0  0  0  0  0  0  0
  144.2498   74.5917  217.1122 H   0  0  0  0  0  0  0  0  0  0  0  0
  145.2114   75.0724  215.6731 H   0  0  0  0  0  0  0  0  0  0  0  0
  144.3104   73.5184  215.6731 H   0  0  0  0  0  0  0  0  0  0  0  0
  140.8338   78.9459  224.8425 H   0  0  0  0  0  0  0  0  0  0  0  0
  141.4437   81.3861  224.6998 H   0  0  0  0  0  0  0  0  0  0  0  0
  142.2815   82.3411  222.5375 H   0  0  0  0  0  0  0  0  0  0  0  0
  142.5199   80.8416  220.5256 H   0  0  0  0  0  0  0  0  0  0  0  0
  1  2  1  0
  2  3  1  0
  3  4  1  0
  4  5  1  0
  5  6  1  0
  6  7  2  0
  6  8  1  0
  8  9  1  0
  9 10  1  0
 10 11  1  0
 11 12  1  0
 12 13  1  0
 13 14  1  0
 14 15  1  0
 15 16  1  0
  9 17  1  0
 17 18  2  0
 17 19  1  0
 19 20  2  0
 19 21  1  0
 21 22  1  0
 22 23  1  0
  5 24  1  0
 24 25  2  0
 25 26  1  0
 26 27  2  0
 27 28  1  0
 28 29  2  0
 29 30  1  0
 30 31  2  0
 31 32  1  0
 16 11  1  0
 32 24  1  0
 32 27  1  0
  1 33  1  0
  1 34  1  0
  1 35  1  0
  2 36  1  0
  2 37  1  0
  3 38  1  0
  3 39  1  0
  4 40  1  0
  4 41  1  0
  5 42  1  1
  8 43  1  0
  9 44  1  6
 10 45  1  0
 10 46  1  0
 11 47  1  0
 12 48  1  0
 12 49  1  0
 13 50  1  0
 13 51  1  0
 14 52  1  0
 14 53  1  0
 15 54  1  0
 15 55  1  0
 16 56  1  0
 16 57  1  0
 22 58  1  0
 22 59  1  0
 23 60  1  0
 23 61  1  0
 23 62  1  0
 28 63  1  0
 29 64  1  0
 30 65  1  0
 31 66  1  0
M  CHG  1  21  -1
M  END
>  <UniqueID>  (77) 
4

>  <SMILES>  (77) 
CCCC[C@H](C(=O)N[C@H](CC1CCCCC1)C(=O)C(=O)[N-]CC)c1nnc2ccccn12

>  <Energy>  (77) 
98.11809302420015

>  <Genealogy>  (77) 
CCCCC(C(=O)NC(CC1CCCCC1)C(=O)C(=O)[N-]CC)c1nnc2ccccn12 (protonated)
CCCC[C@H](C(=O)N[C@H](CC1CCCCC1)C(=O)C(=O)[N-]CC)c1nnc2ccccn12 (chirality)
CCCC[C@H](C(=O)N[C@H](CC1CCCCC1)C(=O)C(=O)[N-]CC)c1nnc2ccccn12 (3D coordinates assigned)
CCCC[C@H](C(=O)N[C@H](CC1CCCCC1)C(=O)C(=O)[N-]CC)c1nnc2ccccn12 (nonaromatic ring conformer: 98.11809302420015 kcal/mol)

>  <smiles>  (77) 
CCCCC(C(=O)NC(CC1CCCCC1)C(=O)C(=O)NCC)c1nnc2ccccn12

>  <score_type>  (77) 
oracle

>  <origin>  (77) 
autodockgpu

>  <m_score__min__energy>  (77) 
-7.4000000000000004

>  <m_primary>  (77) 
energy

>  <meeko>  (77) 
{"free_energy": -6.33, "intermolecular_energy": -9.9, "internal_energy": -3.5, "cluster_size": 3, "cluster_id": 3, "rank_in_cluster": 2}

>  <energy>  (77) 
-5.89

>  <cluster_rmsd>  (77) 
1.14

>  <rmsd>  (77) 
270.38

>  <cluster>  (77) 
6

$$$$
NNKZOUMTYASKLJ-JYRSORQKNA-M
     RDKit          3D

 66 68  0  0  0  0  0  0  0  0999 V2000
  140.5270   82.6970  221.4550 C   0  0  0  0  0  0  0  0  0  0  0  0
  141.4750   81.6060  220.9680 C   0  0  0  0  0  0  0  0  0  0  0  0
  142.2040   80.9430  222.1440 C   0  0  0  0  0  0  0  0  0  0  0  0
  141.4690   81.1180  223.4860 C   0  0  0  0  0  0  0  0  0  0  0  0
  140.5170   79.9450  223.8340 C   0  0  2  0  0  0  0  0  0  0  0  0
  141.0590   78.6010  223.4110 C   0  0  0  0  0  0  0  0  0  0  0  0
  142.1380   78.1910  223.9200 O   0  0  0  0  0  0  0  0  0  0  0  0
  140.3480   77.7730  222.4770 N   0  0  0  0  0  0  0  0  0  0  0  0
  140.8260   76.4370  222.1070 C   0  0  2  0  0  0  0  0  0  0  0  0
  141.5010   76.4470  220.7100 C   0  0  0  0  0  0  0  0  0  0  0  0
  141.4850   77.8100  219.9690 C   0  0  0  0  0  0  0  0  0  0  0  0
  142.4810   77.8740  218.7960 C   0  0  0  0  0  0  0  0  0  0  0  0
  142.5780   79.2970  218.2170 C   0  0  0  0  0  0  0  0  0  0  0  0
  141.2310   80.0500  218.2020 C   0  0  0  0  0  0  0  0  0  0  0  0
  140.0320   79.0980  218.2600 C   0  0  0  0  0  0  0  0  0  0  0  0
  140.0540   78.2410  219.5420 C   0  0  0  0  0  0  0  0  0  0  0  0
  139.6550   75.4840  222.1000 C   0  0  0  0  0  0  0  0  0  0  0  0
  139.8630   74.2640  222.3400 O   0  0  0  0  0  0  0  0  0  0  0  0
  138.2770   75.9750  221.8710 C   0  0  0  0  0  0  0  0  0  0  0  0
  137.6110   75.5080  220.9100 O   0  0  0  0  0  0  0  0  0  0  0  0
  137.6540   76.9550  222.7130 N   0  0  0  0  0  0  0  0  0  0  0  0
  136.2370   77.0090  223.0520 C   0  0  0  0  0  0  0  0  0  0  0  0
  135.8400   75.7460  223.7990 C   0  0  0  0  0  0  0  0  0  0  0  0
  139.1030   80.1130  223.3160 C   0  0  0  0  0  0  0  0  0  0  0  0
  138.7980   79.9240  222.0120 N   0  0  0  0  0  0  0  0  0  0  0  0
  137.5130   80.2130  221.8440 N   0  0  0  0  0  0  0  0  0  0  0  0
  137.0550   80.5850  223.0500 C   0  0  0  0  0  0  0  0  0  0  0  0
  135.7550   80.9810  223.3490 C   0  0  0  0  0  0  0  0  0  0  0  0
  135.4740   81.3380  224.6750 C   0  0  0  0  0  0  0  0  0  0  0  0
  136.4870   81.2930  225.6510 C   0  0  0  0  0  0  0  0  0  0  0  0
  137.7810   80.8870  225.2900 C   0  0  0  0  0  0  0  0  0  0  0  0
  138.0120   80.5450  223.9920 N   0  0  0  0  0  0  0  0  0  0  0  0
  140.5163   82.7093  222.5549 H   0  0  0  0  0  0  0  0  0  0  0  0
  140.8684   83.6734  221.0807 H   0  0  0  0  0  0  0  0  0  0  0  0
  139.5125   82.4952  221.0807 H   0  0  0  0  0  0  0  0  0  0  0  0
  140.8966   80.8424  220.4272 H   0  0  0  0  0  0  0  0  0  0  0  0
  142.2243   82.0641  220.3057 H   0  0  0  0  0  0  0  0  0  0  0  0
  142.2999   79.8673  221.9349 H   0  0  0  0  0  0  0  0  0  0  0  0
  143.1843   81.4326  222.2405 H   0  0  0  0  0  0  0  0  0  0  0  0
  142.2205   81.2037  224.2847 H   0  0  0  0  0  0  0  0  0  0  0  0
  140.8467   82.0205  223.3958 H   0  0  0  0  0  0  0  0  0  0  0  0
  140.4652   79.9745  224.9324 H   0  0  0  0  0  0  0  0  0  0  0  0
  139.4090   78.0780  222.1450 H   0  0  0  0  0  0  0  0  0  0  0  0
  141.5773   76.1142  222.8427 H   0  0  0  0  0  0  0  0  0  0  0  0
  142.5505   76.1438  220.8388 H   0  0  0  0  0  0  0  0  0  0  0  0
  140.9131   75.7577  220.0861 H   0  0  0  0  0  0  0  0  0  0  0  0
  141.8329   78.5485  220.7063 H   0  0  0  0  0  0  0  0  0  0  0  0
  143.4744   77.5646  219.1530 H   0  0  0  0  0  0  0  0  0  0  0  0
  142.1239   77.2014  218.0022 H   0  0  0  0  0  0  0  0  0  0  0  0
  143.2915   79.8723  218.8253 H   0  0  0  0  0  0  0  0  0  0  0  0
  142.9047   79.1986  217.1713 H   0  0  0  0  0  0  0  0  0  0  0  0
  141.1916   80.7219  219.0721 H   0  0  0  0  0  0  0  0  0  0  0  0
  141.1697   80.6112  217.2579 H   0  0  0  0  0  0  0  0  0  0  0  0
  139.1046   79.6892  218.2408 H   0  0  0  0  0  0  0  0  0  0  0  0
  140.0837   78.4237  217.3925 H   0  0  0  0  0  0  0  0  0  0  0  0
  139.6066   78.8248  220.3599 H   0  0  0  0  0  0  0  0  0  0  0  0
  139.4869   77.3227  219.3297 H   0  0  0  0  0  0  0  0  0  0  0  0
  136.0466   77.8855  223.6888 H   0  0  0  0  0  0  0  0  0  0  0  0
  135.6444   77.0874  222.1286 H   0  0  0  0  0  0  0  0  0  0  0  0
  135.8971   75.9275  224.8824 H   0  0  0  0  0  0  0  0  0  0  0  0
  134.8110   75.4676  223.5276 H   0  0  0  0  0  0  0  0  0  0  0  0
  136.5246   74.9289  223.5276 H   0  0  0  0  0  0  0  0  0  0  0  0
  134.9761   81.0127  222.5729 H   0  0  0  0  0  0  0  0  0  0  0  0
  134.4581   81.6545  224.9538 H   0  0  0  0  0  0  0  0  0  0  0  0
  136.2657   81.5745  226.6911 H   0  0  0  0  0  0  0  0  0  0  0  0
  138.5881   80.8460  226.0363 H   0  0  0  0  0  0  0  0  0  0  0  0
  1  2  1  0
  2  3  1  0
  3  4  1  0
  4  5  1  0
  5  6  1  0
  6  7  2  0
  6  8  1  0
  8  9  1  0
  9 10  1  0
 10 11  1  0
 11 12  1  0
 12 13  1  0
 13 14  1  0
 14 15  1  0
 15 16  1  0
  9 17  1  0
 17 18  2  0
 17 19  1  0
 19 20  2  0
 19 21  1  0
 21 22  1  0
 22 23  1  0
  5 24  1  0
 24 25  2  0
 25 26  1  0
 26 27  2  0
 27 28  1  0
 28 29  2  0
 29 30  1  0
 30 31  2  0
 31 32  1  0
 16 11  1  0
 32 24  1  0
 32 27  1  0
  1 33  1  0
  1 34  1  0
  1 35  1  0
  2 36  1  0
  2 37  1  0
  3 38  1  0
  3 39  1  0
  4 40  1  0
  4 41  1  0
  5 42  1  1
  8 43  1  0
  9 44  1  1
 10 45  1  0
 10 46  1  0
 11 47  1  0
 12 48  1  0
 12 49  1  0
 13 50  1  0
 13 51  1  0
 14 52  1  0
 14 53  1  0
 15 54  1  0
 15 55  1  0
 16 56  1  0
 16 57  1  0
 22 58  1  0
 22 59  1  0
 23 60  1  0
 23 61  1  0
 23 62  1  0
 28 63  1  0
 29 64  1  0
 30 65  1  0
 31 66  1  0
M  CHG  1  21  -1
M  END
>  <UniqueID>  (78) 
4

>  <SMILES>  (78) 
CCCC[C@H](C(=O)N[C@H](CC1CCCCC1)C(=O)C(=O)[N-]CC)c1nnc2ccccn12

>  <Energy>  (78) 
98.11809302420015

>  <Genealogy>  (78) 
CCCCC(C(=O)NC(CC1CCCCC1)C(=O)C(=O)[N-]CC)c1nnc2ccccn12 (protonated)
CCCC[C@H](C(=O)N[C@H](CC1CCCCC1)C(=O)C(=O)[N-]CC)c1nnc2ccccn12 (chirality)
CCCC[C@H](C(=O)N[C@H](CC1CCCCC1)C(=O)C(=O)[N-]CC)c1nnc2ccccn12 (3D coordinates assigned)
CCCC[C@H](C(=O)N[C@H](CC1CCCCC1)C(=O)C(=O)[N-]CC)c1nnc2ccccn12 (nonaromatic ring conformer: 98.11809302420015 kcal/mol)

>  <smiles>  (78) 
CCCCC(C(=O)NC(CC1CCCCC1)C(=O)C(=O)NCC)c1nnc2ccccn12

>  <score_type>  (78) 
oracle

>  <origin>  (78) 
autodockgpu

>  <m_score__min__energy>  (78) 
-7.4000000000000004

>  <m_primary>  (78) 
energy

>  <meeko>  (78) 
{"free_energy": -4.51, "intermolecular_energy": -8.09, "internal_energy": -4.6, "cluster_size": 3, "cluster_id": 7, "rank_in_cluster": 1}

>  <energy>  (78) 
-4.51

>  <cluster_rmsd>  (78) 
0.0

>  <rmsd>  (78) 
271.34

>  <cluster>  (78) 
7

$$$$
NNKZOUMTYASKLJ-JYRSORQKNA-M
     RDKit          3D

 66 68  0  0  0  0  0  0  0  0999 V2000
  139.2280   73.3410  221.4540 C   0  0  0  0  0  0  0  0  0  0  0  0
  140.6220   72.9610  221.9410 C   0  0  0  0  0  0  0  0  0  0  0  0
  140.6140   71.5850  222.6190 C   0  0  0  0  0  0  0  0  0  0  0  0
  139.6580   71.5100  223.8240 C   0  0  0  0  0  0  0  0  0  0  0  0
  138.8040   70.2170  223.8650 C   0  0  2  0  0  0  0  0  0  0  0  0
  137.3220   70.4930  223.9370 C   0  0  0  0  0  0  0  0  0  0  0  0
  136.8510   71.4710  223.2940 O   0  0  0  0  0  0  0  0  0  0  0  0
  136.4420   69.6400  224.6870 N   0  0  0  0  0  0  0  0  0  0  0  0
  134.9920   69.8540  224.7130 C   0  0  2  0  0  0  0  0  0  0  0  0
  134.5450   70.5220  226.0390 C   0  0  0  0  0  0  0  0  0  0  0  0
  133.7860   71.8660  225.8900 C   0  0  0  0  0  0  0  0  0  0  0  0
  133.1690   72.3650  227.2110 C   0  0  0  0  0  0  0  0  0  0  0  0
  132.2620   73.5880  226.9820 C   0  0  0  0  0  0  0  0  0  0  0  0
  132.7890   74.5510  225.8980 C   0  0  0  0  0  0  0  0  0  0  0  0
  134.2940   74.3910  225.6580 C   0  0  0  0  0  0  0  0  0  0  0  0
  134.6430   72.9620  225.1970 C   0  0  0  0  0  0  0  0  0  0  0  0
  134.2990   68.5230  224.5530 C   0  0  0  0  0  0  0  0  0  0  0  0
  134.6650   67.7540  223.6230 O   0  0  0  0  0  0  0  0  0  0  0  0
  133.2460   68.0950  225.5020 C   0  0  0  0  0  0  0  0  0  0  0  0
  133.5810   67.6330  226.6240 O   0  0  0  0  0  0  0  0  0  0  0  0
  131.8470   68.2000  225.2040 N   0  0  0  0  0  0  0  0  0  0  0  0
  130.8150   68.6720  226.1200 C   0  0  0  0  0  0  0  0  0  0  0  0
  130.7660   70.1910  226.0990 C   0  0  0  0  0  0  0  0  0  0  0  0
  139.1980   69.2420  224.9550 C   0  0  0  0  0  0  0  0  0  0  0  0
  138.8170   67.9440  224.9170 N   0  0  0  0  0  0  0  0  0  0  0  0
  139.2410   67.3590  226.0300 N   0  0  0  0  0  0  0  0  0  0  0  0
  139.8670   68.3140  226.7380 C   0  0  0  0  0  0  0  0  0  0  0  0
  140.4690   68.1530  227.9820 C   0  0  0  0  0  0  0  0  0  0  0  0
  141.0690   69.2790  228.5620 C   0  0  0  0  0  0  0  0  0  0  0  0
  141.0490   70.5170  227.8940 C   0  0  0  0  0  0  0  0  0  0  0  0
  140.4250   70.6190  226.6410 C   0  0  0  0  0  0  0  0  0  0  0  0
  139.8560   69.5010  226.1090 N   0  0  0  0  0  0  0  0  0  0  0  0
  138.5732   73.5195  222.3197 H   0  0  0  0  0  0  0  0  0  0  0  0
  139.2888   74.2554  220.8455 H   0  0  0  0  0  0  0  0  0  0  0  0
  138.8163   72.5223  220.8455 H   0  0  0  0  0  0  0  0  0  0  0  0
  141.3079   72.9340  221.0814 H   0  0  0  0  0  0  0  0  0  0  0  0
  140.9519   73.7105  222.6754 H   0  0  0  0  0  0  0  0  0  0  0  0
  140.3043   70.8321  221.8792 H   0  0  0  0  0  0  0  0  0  0  0  0
  141.6308   71.3992  222.9954 H   0  0  0  0  0  0  0  0  0  0  0  0
  140.2568   71.5596  224.7454 H   0  0  0  0  0  0  0  0  0  0  0  0
  138.9582   72.3536  223.7310 H   0  0  0  0  0  0  0  0  0  0  0  0
  139.0260   69.7323  222.9028 H   0  0  0  0  0  0  0  0  0  0  0  0
  136.8280   68.7780  225.1260 H   0  0  0  0  0  0  0  0  0  0  0  0
  134.7193   70.5280  223.8875 H   0  0  0  0  0  0  0  0  0  0  0  0
  133.8854   69.8177  226.5671 H   0  0  0  0  0  0  0  0  0  0  0  0
  135.4709   70.7583  226.5838 H   0  0  0  0  0  0  0  0  0  0  0  0
  132.9403   71.6518  225.2199 H   0  0  0  0  0  0  0  0  0  0  0  0
  132.5719   71.5550  227.6553 H   0  0  0  0  0  0  0  0  0  0  0  0
  133.9868   72.6622  227.8840 H   0  0  0  0  0  0  0  0  0  0  0  0
  131.2671   73.2313  226.6769 H   0  0  0  0  0  0  0  0  0  0  0  0
  132.2322   74.1500  227.9271 H   0  0  0  0  0  0  0  0  0  0  0  0
  132.2574   74.3485  224.9565 H   0  0  0  0  0  0  0  0  0  0  0  0
  132.6119   75.5790  226.2470 H   0  0  0  0  0  0  0  0  0  0  0  0
  134.6102   75.1042  224.8825 H   0  0  0  0  0  0  0  0  0  0  0  0
  134.8176   74.5858  226.6056 H   0  0  0  0  0  0  0  0  0  0  0  0
  134.4819   72.8964  224.1109 H   0  0  0  0  0  0  0  0  0  0  0  0
  135.6920   72.7779  225.4722 H   0  0  0  0  0  0  0  0  0  0  0  0
  129.8391   68.2705  225.8094 H   0  0  0  0  0  0  0  0  0  0  0  0
  131.0484   68.3295  227.1389 H   0  0  0  0  0  0  0  0  0  0  0  0
  130.7537   70.5718  227.1309 H   0  0  0  0  0  0  0  0  0  0  0  0
  131.6521   70.5792  225.5754 H   0  0  0  0  0  0  0  0  0  0  0  0
  129.8567   70.5213  225.5754 H   0  0  0  0  0  0  0  0  0  0  0  0
  140.4738   67.1781  228.4914 H   0  0  0  0  0  0  0  0  0  0  0  0
  141.5577   69.1944  229.5438 H   0  0  0  0  0  0  0  0  0  0  0  0
  141.5197   71.3999  228.3511 H   0  0  0  0  0  0  0  0  0  0  0  0
  140.3960   71.5774  226.1020 H   0  0  0  0  0  0  0  0  0  0  0  0
  1  2  1  0
  2  3  1  0
  3  4  1  0
  4  5  1  0
  5  6  1  0
  6  7  2  0
  6  8  1  0
  8  9  1  0
  9 10  1  0
 10 11  1  0
 11 12  1  0
 12 13  1  0
 13 14  1  0
 14 15  1  0
 15 16  1  0
  9 17  1  0
 17 18  2  0
 17 19  1  0
 19 20  2  0
 19 21  1  0
 21 22  1  0
 22 23  1  0
  5 24  1  0
 24 25  2  0
 25 26  1  0
 26 27  2  0
 27 28  1  0
 28 29  2  0
 29 30  1  0
 30 31  2  0
 31 32  1  0
 16 11  1  0
 32 24  1  0
 32 27  1  0
  1 33  1  0
  1 34  1  0
  1 35  1  0
  2 36  1  0
  2 37  1  0
  3 38  1  0
  3 39  1  0
  4 40  1  0
  4 41  1  0
  5 42  1  6
  8 43  1  0
  9 44  1  6
 10 45  1  0
 10 46  1  0
 11 47  1  0
 12 48  1  0
 12 49  1  0
 13 50  1  0
 13 51  1  0
 14 52  1  0
 14 53  1  0
 15 54  1  0
 15 55  1  0
 16 56  1  0
 16 57  1  0
 22 58  1  0
 22 59  1  0
 23 60  1  0
 23 61  1  0
 23 62  1  0
 28 63  1  0
 29 64  1  0
 30 65  1  0
 31 66  1  0
M  CHG  1  21  -1
M  END
>  <UniqueID>  (79) 
4

>  <SMILES>  (79) 
CCCC[C@H](C(=O)N[C@H](CC1CCCCC1)C(=O)C(=O)[N-]CC)c1nnc2ccccn12

>  <Energy>  (79) 
98.11809302420015

>  <Genealogy>  (79) 
CCCCC(C(=O)NC(CC1CCCCC1)C(=O)C(=O)[N-]CC)c1nnc2ccccn12 (protonated)
CCCC[C@H](C(=O)N[C@H](CC1CCCCC1)C(=O)C(=O)[N-]CC)c1nnc2ccccn12 (chirality)
CCCC[C@H](C(=O)N[C@H](CC1CCCCC1)C(=O)C(=O)[N-]CC)c1nnc2ccccn12 (3D coordinates assigned)
CCCC[C@H](C(=O)N[C@H](CC1CCCCC1)C(=O)C(=O)[N-]CC)c1nnc2ccccn12 (nonaromatic ring conformer: 98.11809302420015 kcal/mol)

>  <smiles>  (79) 
CCCCC(C(=O)NC(CC1CCCCC1)C(=O)C(=O)NCC)c1nnc2ccccn12

>  <score_type>  (79) 
oracle

>  <origin>  (79) 
autodockgpu

>  <m_score__min__energy>  (79) 
-7.4000000000000004

>  <m_primary>  (79) 
energy

>  <meeko>  (79) 
{"free_energy": -7.4, "intermolecular_energy": -10.98, "internal_energy": -2.77, "cluster_size": 5, "cluster_id": 1, "rank_in_cluster": 1}

>  <energy>  (79) 
-4.5

>  <cluster_rmsd>  (79) 
0.06

>  <rmsd>  (79) 
271.37

>  <cluster>  (79) 
7

$$$$
NNKZOUMTYASKLJ-JYRSORQKNA-M
     RDKit          3D

 66 68  0  0  0  0  0  0  0  0999 V2000
  141.4370   78.5860  222.2490 C   0  0  0  0  0  0  0  0  0  0  0  0
  140.6570   77.2780  222.3330 C   0  0  0  0  0  0  0  0  0  0  0  0
  140.5610   76.6030  220.9580 C   0  0  0  0  0  0  0  0  0  0  0  0
  141.6930   75.5910  220.7020 C   0  0  0  0  0  0  0  0  0  0  0  0
  141.1990   74.1300  220.5400 C   0  0  2  0  0  0  0  0  0  0  0  0
  140.4940   73.6080  221.7680 C   0  0  0  0  0  0  0  0  0  0  0  0
  139.6700   74.3550  222.3620 O   0  0  0  0  0  0  0  0  0  0  0  0
  140.7170   72.2690  222.2400 N   0  0  0  0  0  0  0  0  0  0  0  0
  139.9900   71.7230  223.3910 C   0  0  2  0  0  0  0  0  0  0  0  0
  140.9660   71.1590  224.4560 C   0  0  0  0  0  0  0  0  0  0  0  0
  140.3080   70.6410  225.7610 C   0  0  0  0  0  0  0  0  0  0  0  0
  140.5720   69.1460  226.0230 C   0  0  0  0  0  0  0  0  0  0  0  0
  139.7420   68.6280  227.2120 C   0  0  0  0  0  0  0  0  0  0  0  0
  139.5920   69.6550  228.3540 C   0  0  0  0  0  0  0  0  0  0  0  0
  140.6860   70.7280  228.3180 C   0  0  0  0  0  0  0  0  0  0  0  0
  140.6570   71.5200  226.9950 C   0  0  0  0  0  0  0  0  0  0  0  0
  139.0700   70.6280  222.9120 C   0  0  0  0  0  0  0  0  0  0  0  0
  138.1700   70.2070  223.6870 O   0  0  0  0  0  0  0  0  0  0  0  0
  139.1790   70.0890  221.5360 C   0  0  0  0  0  0  0  0  0  0  0  0
  140.3160   69.7970  221.0800 O   0  0  0  0  0  0  0  0  0  0  0  0
  138.0360   69.8670  220.6990 N   0  0  0  0  0  0  0  0  0  0  0  0
  137.3600   70.8810  219.8980 C   0  0  0  0  0  0  0  0  0  0  0  0
  138.3160   72.0260  219.6050 C   0  0  0  0  0  0  0  0  0  0  0  0
  142.2720   73.1520  220.1090 C   0  0  0  0  0  0  0  0  0  0  0  0
  141.9610   71.9300  219.6180 N   0  0  0  0  0  0  0  0  0  0  0  0
  143.0950   71.2750  219.3990 N   0  0  0  0  0  0  0  0  0  0  0  0
  144.0820   72.1050  219.7710 C   0  0  0  0  0  0  0  0  0  0  0  0
  145.4470   71.8350  219.7200 C   0  0  0  0  0  0  0  0  0  0  0  0
  146.3230   72.8360  220.1600 C   0  0  0  0  0  0  0  0  0  0  0  0
  145.8190   74.0610  220.6360 C   0  0  0  0  0  0  0  0  0  0  0  0
  144.4330   74.2760  220.6650 C   0  0  0  0  0  0  0  0  0  0  0  0
  143.6150   73.2800  220.2250 N   0  0  0  0  0  0  0  0  0  0  0  0
  141.6538   78.9495  223.2643 H   0  0  0  0  0  0  0  0  0  0  0  0
  142.3813   78.4159  221.7110 H   0  0  0  0  0  0  0  0  0  0  0  0
  140.8385   79.3359  221.7110 H   0  0  0  0  0  0  0  0  0  0  0  0
  141.1680   76.5992  223.0316 H   0  0  0  0  0  0  0  0  0  0  0  0
  139.6388   77.5002  222.6851 H   0  0  0  0  0  0  0  0  0  0  0  0
  139.5981   76.0751  220.8935 H   0  0  0  0  0  0  0  0  0  0  0  0
  140.6490   77.3931  220.1977 H   0  0  0  0  0  0  0  0  0  0  0  0
  142.2188   75.8838  219.7812 H   0  0  0  0  0  0  0  0  0  0  0  0
  142.3487   75.6123  221.5850 H   0  0  0  0  0  0  0  0  0  0  0  0
  140.4718   74.1943  219.7171 H   0  0  0  0  0  0  0  0  0  0  0  0
  141.3190   71.6310  221.6800 H   0  0  0  0  0  0  0  0  0  0  0  0
  139.4096   72.5316  223.8593 H   0  0  0  0  0  0  0  0  0  0  0  0
  141.5177   70.3234  224.0005 H   0  0  0  0  0  0  0  0  0  0  0  0
  141.6045   72.0031  224.7557 H   0  0  0  0  0  0  0  0  0  0  0  0
  139.2240   70.7348  225.5996 H   0  0  0  0  0  0  0  0  0  0  0  0
  140.3047   68.5725  225.1232 H   0  0  0  0  0  0  0  0  0  0  0  0
  141.6378   69.0201  226.2643 H   0  0  0  0  0  0  0  0  0  0  0  0
  138.7383   68.3645  226.8471 H   0  0  0  0  0  0  0  0  0  0  0  0
  140.2773   67.7608  227.6260 H   0  0  0  0  0  0  0  0  0  0  0  0
  138.6118   70.1458  228.2621 H   0  0  0  0  0  0  0  0  0  0  0  0
  139.6822   69.1140  229.3075 H   0  0  0  0  0  0  0  0  0  0  0  0
  140.5312   71.4246  229.1551 H   0  0  0  0  0  0  0  0  0  0  0  0
  141.6625   70.2284  228.4000 H   0  0  0  0  0  0  0  0  0  0  0  0
  139.9032   72.3164  227.0810 H   0  0  0  0  0  0  0  0  0  0  0  0
  141.6678   71.9226  226.8335 H   0  0  0  0  0  0  0  0  0  0  0  0
  137.0239   70.4341  218.9507 H   0  0  0  0  0  0  0  0  0  0  0  0
  136.4923   71.2651  220.4544 H   0  0  0  0  0  0  0  0  0  0  0  0
  138.6747   72.4556  220.5520 H   0  0  0  0  0  0  0  0  0  0  0  0
  139.1720   71.6498  219.0255 H   0  0  0  0  0  0  0  0  0  0  0  0
  137.7931   72.8011  219.0255 H   0  0  0  0  0  0  0  0  0  0  0  0
  145.8239   70.8709  219.3478 H   0  0  0  0  0  0  0  0  0  0  0  0
  147.4091   72.6639  220.1334 H   0  0  0  0  0  0  0  0  0  0  0  0
  146.5079   74.8452  220.9832 H   0  0  0  0  0  0  0  0  0  0  0  0
  144.0173   75.2253  221.0339 H   0  0  0  0  0  0  0  0  0  0  0  0
  1  2  1  0
  2  3  1  0
  3  4  1  0
  4  5  1  0
  5  6  1  0
  6  7  2  0
  6  8  1  0
  8  9  1  0
  9 10  1  0
 10 11  1  0
 11 12  1  0
 12 13  1  0
 13 14  1  0
 14 15  1  0
 15 16  1  0
  9 17  1  0
 17 18  2  0
 17 19  1  0
 19 20  2  0
 19 21  1  0
 21 22  1  0
 22 23  1  0
  5 24  1  0
 24 25  2  0
 25 26  1  0
 26 27  2  0
 27 28  1  0
 28 29  2  0
 29 30  1  0
 30 31  2  0
 31 32  1  0
 16 11  1  0
 32 24  1  0
 32 27  1  0
  1 33  1  0
  1 34  1  0
  1 35  1  0
  2 36  1  0
  2 37  1  0
  3 38  1  0
  3 39  1  0
  4 40  1  0
  4 41  1  0
  5 42  1  6
  8 43  1  0
  9 44  1  1
 10 45  1  0
 10 46  1  0
 11 47  1  0
 12 48  1  0
 12 49  1  0
 13 50  1  0
 13 51  1  0
 14 52  1  0
 14 53  1  0
 15 54  1  0
 15 55  1  0
 16 56  1  0
 16 57  1  0
 22 58  1  0
 22 59  1  0
 23 60  1  0
 23 61  1  0
 23 62  1  0
 28 63  1  0
 29 64  1  0
 30 65  1  0
 31 66  1  0
M  CHG  1  21  -1
M  END
>  <UniqueID>  (80) 
4

>  <SMILES>  (80) 
CCCC[C@H](C(=O)N[C@H](CC1CCCCC1)C(=O)C(=O)[N-]CC)c1nnc2ccccn12

>  <Energy>  (80) 
98.11809302420015

>  <Genealogy>  (80) 
CCCCC(C(=O)NC(CC1CCCCC1)C(=O)C(=O)[N-]CC)c1nnc2ccccn12 (protonated)
CCCC[C@H](C(=O)N[C@H](CC1CCCCC1)C(=O)C(=O)[N-]CC)c1nnc2ccccn12 (chirality)
CCCC[C@H](C(=O)N[C@H](CC1CCCCC1)C(=O)C(=O)[N-]CC)c1nnc2ccccn12 (3D coordinates assigned)
CCCC[C@H](C(=O)N[C@H](CC1CCCCC1)C(=O)C(=O)[N-]CC)c1nnc2ccccn12 (nonaromatic ring conformer: 98.11809302420015 kcal/mol)

>  <smiles>  (80) 
CCCCC(C(=O)NC(CC1CCCCC1)C(=O)C(=O)NCC)c1nnc2ccccn12

>  <score_type>  (80) 
oracle

>  <origin>  (80) 
autodockgpu

>  <m_score__min__energy>  (80) 
-7.4000000000000004

>  <m_primary>  (80) 
energy

>  <meeko>  (80) 
{"free_energy": -6.16, "intermolecular_energy": -9.74, "internal_energy": -3.16, "cluster_size": 1, "cluster_id": 5, "rank_in_cluster": 1}

>  <energy>  (80) 
-4.45

>  <cluster_rmsd>  (80) 
0.29

>  <rmsd>  (80) 
271.29

>  <cluster>  (80) 
7

$$$$
