
     RDKit          3D

 36 37  0  0  0  0  0  0  0  0999 V2000
  138.5900   71.7850  220.0770 O   0  0  0  0  0  0  0  0  0  0  0  0
  138.7340   71.1880  221.1620 C   0  0  0  0  0  0  0  0  0  0  0  0
  137.7190   70.3840  221.8610 C   0  0  0  0  0  0  0  0  0  0  0  0
  138.0090   68.9240  221.7200 C   0  0  0  0  0  0  0  0  0  0  0  0
  138.6950   68.2860  222.8720 C   0  0  0  0  0  0  0  0  0  0  0  0
  139.1280   69.3180  223.7600 O   0  0  0  0  0  0  0  0  0  0  0  0
  139.6450   68.9770  225.0070 C   0  0  0  0  0  0  0  0  0  0  0  0
  139.4050   67.7490  225.5680 C   0  0  0  0  0  0  0  0  0  0  0  0
  139.9590   67.5010  226.8040 C   0  0  0  0  0  0  0  0  0  0  0  0
  140.7300   68.4490  227.4680 C   0  0  0  0  0  0  0  0  0  0  0  0
  141.4340   68.1270  229.0470 Cl  0  0  0  0  0  0  0  0  0  0  0  0
  140.9660   69.6950  226.8870 C   0  0  0  0  0  0  0  0  0  0  0  0
  140.4070   69.9460  225.6350 C   0  0  0  0  0  0  0  0  0  0  0  0
  140.6990   71.5160  224.8940 Cl  0  0  0  0  0  0  0  0  0  0  0  0
  140.0260   71.3020  221.7860 N   0  0  0  0  0  0  0  0  0  0  0  0
  141.1090   72.0520  221.2210 C   0  0  0  0  0  0  0  0  0  0  0  0
  140.9730   73.5180  221.4890 C   0  0  0  0  0  0  0  0  0  0  0  0
  141.9790   74.4250  221.1680 C   0  0  0  0  0  0  0  0  0  0  0  0
  141.5340   75.6470  221.5360 N   0  0  0  0  0  0  0  0  0  0  0  0
  140.3070   75.4800  222.0580 C   0  0  0  0  0  0  0  0  0  0  0  0
  139.9430   74.1850  222.0390 N   0  0  0  0  0  0  0  0  0  0  0  0
  137.7200   70.6505  222.9282 H   0  0  0  0  0  0  0  0  0  0  0  0
  136.7353   70.5928  221.4152 H   0  0  0  0  0  0  0  0  0  0  0  0
  137.0522   68.4034  221.5667 H   0  0  0  0  0  0  0  0  0  0  0  0
  138.7061   68.8389  220.8734 H   0  0  0  0  0  0  0  0  0  0  0  0
  137.9988   67.6132  223.3941 H   0  0  0  0  0  0  0  0  0  0  0  0
  139.5568   67.6979  222.5233 H   0  0  0  0  0  0  0  0  0  0  0  0
  138.7950   66.9931  225.0518 H   0  0  0  0  0  0  0  0  0  0  0  0
  139.7867   66.5245  227.2801 H   0  0  0  0  0  0  0  0  0  0  0  0
  141.5736   70.4549  227.4002 H   0  0  0  0  0  0  0  0  0  0  0  0
  140.1820   70.8060  222.7110 H   0  0  0  0  0  0  0  0  0  0  0  0
  142.0537   71.6968  221.6584 H   0  0  0  0  0  0  0  0  0  0  0  0
  141.0951   71.9022  220.1313 H   0  0  0  0  0  0  0  0  0  0  0  0
  142.9489   74.1921  220.7043 H   0  0  0  0  0  0  0  0  0  0  0  0
  142.0650   76.5450  221.4250 H   0  0  0  0  0  0  0  0  0  0  0  0
  139.6818   76.2958  222.4498 H   0  0  0  0  0  0  0  0  0  0  0  0
  1  2  2  0
  2  3  1  0
  3  4  1  0
  4  5  1  0
  5  6  1  0
  6  7  1  0
  7  8  2  0
  8  9  1  0
  9 10  2  0
 10 11  1  0
 10 12  1  0
 12 13  2  0
 13 14  1  0
  2 15  1  0
 15 16  1  0
 16 17  1  0
 17 18  2  0
 18 19  1  0
 19 20  1  0
 20 21  2  0
 13  7  1  0
 21 17  1  0
  3 22  1  0
  3 23  1  0
  4 24  1  0
  4 25  1  0
  5 26  1  0
  5 27  1  0
  8 28  1  0
  9 29  1  0
 12 30  1  0
 15 31  1  0
 16 32  1  0
 16 33  1  0
 18 34  1  0
 19 35  1  0
 20 36  1  0
M  END
>  <smiles>  (1) 
O=C(CCCOc1ccc(Cl)cc1Cl)NCc1c[nH]cn1

>  <score_type>  (1) 
oracle

>  <origin>  (1) 
autodockgpu

>  <m_score__min__energy>  (1) 
-6.2800000000000002

>  <m_primary>  (1) 
energy

>  <meeko>  (1) 
{"free_energy": -4.68, "intermolecular_energy": -6.76, "internal_energy": -1.7, "cluster_size": 1, "cluster_id": 6, "rank_in_cluster": 1}

>  <energy>  (1) 
-6.28

>  <cluster_rmsd>  (1) 
0.0

>  <rmsd>  (1) 
273.48

>  <cluster>  (1) 
1

$$$$

     RDKit          3D

 36 37  0  0  0  0  0  0  0  0999 V2000
  139.9930   74.8170  221.9940 O   0  0  0  0  0  0  0  0  0  0  0  0
  140.9630   75.2840  221.3630 C   0  0  0  0  0  0  0  0  0  0  0  0
  141.7200   74.6110  220.2970 C   0  0  0  0  0  0  0  0  0  0  0  0
  143.1370   75.0880  220.2710 C   0  0  0  0  0  0  0  0  0  0  0  0
  143.4210   76.2210  219.3530 C   0  0  0  0  0  0  0  0  0  0  0  0
  142.1870   76.8740  219.0550 O   0  0  0  0  0  0  0  0  0  0  0  0
  142.1750   78.2480  218.8280 C   0  0  0  0  0  0  0  0  0  0  0  0
  141.8270   79.1310  219.8170 C   0  0  0  0  0  0  0  0  0  0  0  0
  141.8450   80.4710  219.5010 C   0  0  0  0  0  0  0  0  0  0  0  0
  142.1970   80.9230  218.2340 C   0  0  0  0  0  0  0  0  0  0  0  0
  142.2170   82.6360  217.8360 Cl  0  0  0  0  0  0  0  0  0  0  0  0
  142.5480   80.0140  217.2360 C   0  0  0  0  0  0  0  0  0  0  0  0
  142.5320   78.6580  217.5550 C   0  0  0  0  0  0  0  0  0  0  0  0
  142.9740   77.5020  216.3030 Cl  0  0  0  0  0  0  0  0  0  0  0  0
  141.3740   76.6160  221.7220 N   0  0  0  0  0  0  0  0  0  0  0  0
  140.7310   77.3900  222.7420 C   0  0  0  0  0  0  0  0  0  0  0  0
  141.4660   78.6630  223.0260 C   0  0  0  0  0  0  0  0  0  0  0  0
  140.9040   79.6900  223.7790 C   0  0  0  0  0  0  0  0  0  0  0  0
  141.8250   80.6750  223.8430 N   0  0  0  0  0  0  0  0  0  0  0  0
  142.9010   80.2560  223.1550 C   0  0  0  0  0  0  0  0  0  0  0  0
  142.7040   79.0260  222.6470 N   0  0  0  0  0  0  0  0  0  0  0  0
  141.7079   73.5257  220.4758 H   0  0  0  0  0  0  0  0  0  0  0  0
  141.2511   74.8444  219.3297 H   0  0  0  0  0  0  0  0  0  0  0  0
  143.4056   75.4037  221.2899 H   0  0  0  0  0  0  0  0  0  0  0  0
  143.7302   74.2419  219.8938 H   0  0  0  0  0  0  0  0  0  0  0  0
  144.1095   76.9291  219.8374 H   0  0  0  0  0  0  0  0  0  0  0  0
  143.8888   75.8525  218.4281 H   0  0  0  0  0  0  0  0  0  0  0  0
  141.5449   78.7833  220.8218 H   0  0  0  0  0  0  0  0  0  0  0  0
  141.5730   81.2054  220.2734 H   0  0  0  0  0  0  0  0  0  0  0  0
  142.8285   80.3569  216.2291 H   0  0  0  0  0  0  0  0  0  0  0  0
  142.1980   77.0430  221.2060 H   0  0  0  0  0  0  0  0  0  0  0  0
  139.7106   77.6349  222.4120 H   0  0  0  0  0  0  0  0  0  0  0  0
  140.7174   76.7919  223.6651 H   0  0  0  0  0  0  0  0  0  0  0  0
  139.9026   79.6975  224.2341 H   0  0  0  0  0  0  0  0  0  0  0  0
  141.7030   81.5900  224.3430 H   0  0  0  0  0  0  0  0  0  0  0  0
  143.8225   80.8424  223.0244 H   0  0  0  0  0  0  0  0  0  0  0  0
  1  2  2  0
  2  3  1  0
  3  4  1  0
  4  5  1  0
  5  6  1  0
  6  7  1  0
  7  8  2  0
  8  9  1  0
  9 10  2  0
 10 11  1  0
 10 12  1  0
 12 13  2  0
 13 14  1  0
  2 15  1  0
 15 16  1  0
 16 17  1  0
 17 18  2  0
 18 19  1  0
 19 20  1  0
 20 21  2  0
 13  7  1  0
 21 17  1  0
  3 22  1  0
  3 23  1  0
  4 24  1  0
  4 25  1  0
  5 26  1  0
  5 27  1  0
  8 28  1  0
  9 29  1  0
 12 30  1  0
 15 31  1  0
 16 32  1  0
 16 33  1  0
 18 34  1  0
 19 35  1  0
 20 36  1  0
M  END
>  <smiles>  (2) 
O=C(CCCOc1ccc(Cl)cc1Cl)NCc1c[nH]cn1

>  <score_type>  (2) 
oracle

>  <origin>  (2) 
autodockgpu

>  <m_score__min__energy>  (2) 
-6.2800000000000002

>  <m_primary>  (2) 
energy

>  <meeko>  (2) 
{"free_energy": -4.63, "intermolecular_energy": -6.72, "internal_energy": -2.02, "cluster_size": 5, "cluster_id": 7, "rank_in_cluster": 2}

>  <energy>  (2) 
-6.28

>  <cluster_rmsd>  (2) 
0.05

>  <rmsd>  (2) 
273.51

>  <cluster>  (2) 
1

$$$$

     RDKit          3D

 36 37  0  0  0  0  0  0  0  0999 V2000
  140.1690   74.6460  222.1350 O   0  0  0  0  0  0  0  0  0  0  0  0
  141.0880   75.1380  221.4500 C   0  0  0  0  0  0  0  0  0  0  0  0
  141.8530   74.4590  220.3940 C   0  0  0  0  0  0  0  0  0  0  0  0
  143.0670   75.2510  220.0250 C   0  0  0  0  0  0  0  0  0  0  0  0
  142.9230   76.1450  218.8470 C   0  0  0  0  0  0  0  0  0  0  0  0
  141.7610   76.9530  219.0400 O   0  0  0  0  0  0  0  0  0  0  0  0
  141.8350   78.3250  218.8180 C   0  0  0  0  0  0  0  0  0  0  0  0
  142.9350   78.8940  218.2290 C   0  0  0  0  0  0  0  0  0  0  0  0
  142.9190   80.2590  218.0480 C   0  0  0  0  0  0  0  0  0  0  0  0
  141.8380   81.0410  218.4430 C   0  0  0  0  0  0  0  0  0  0  0  0
  141.8230   82.7840  218.2100 Cl  0  0  0  0  0  0  0  0  0  0  0  0
  140.7250   80.4490  219.0410 C   0  0  0  0  0  0  0  0  0  0  0  0
  140.7400   79.0680  219.2230 C   0  0  0  0  0  0  0  0  0  0  0  0
  139.3400   78.3120  219.9770 Cl  0  0  0  0  0  0  0  0  0  0  0  0
  141.4260   76.5100  221.7290 N   0  0  0  0  0  0  0  0  0  0  0  0
  140.7660   77.2940  222.7300 C   0  0  0  0  0  0  0  0  0  0  0  0
  141.3910   78.6460  222.8840 C   0  0  0  0  0  0  0  0  0  0  0  0
  140.9560   79.5580  223.8400 C   0  0  0  0  0  0  0  0  0  0  0  0
  141.7270   80.6590  223.7090 N   0  0  0  0  0  0  0  0  0  0  0  0
  142.5940   80.4180  222.7100 C   0  0  0  0  0  0  0  0  0  0  0  0
  142.4060   79.1910  222.1910 N   0  0  0  0  0  0  0  0  0  0  0  0
  142.1650   73.4679  220.7551 H   0  0  0  0  0  0  0  0  0  0  0  0
  141.2137   74.3585  219.5045 H   0  0  0  0  0  0  0  0  0  0  0  0
  143.3393   75.8738  220.8899 H   0  0  0  0  0  0  0  0  0  0  0  0
  143.8326   74.5117  219.7469 H   0  0  0  0  0  0  0  0  0  0  0  0
  143.8118   76.7866  218.7555 H   0  0  0  0  0  0  0  0  0  0  0  0
  142.8235   75.5494  217.9276 H   0  0  0  0  0  0  0  0  0  0  0  0
  143.7951   78.2848  217.9140 H   0  0  0  0  0  0  0  0  0  0  0  0
  143.7862   80.7454  217.5774 H   0  0  0  0  0  0  0  0  0  0  0  0
  139.8628   81.0538  219.3587 H   0  0  0  0  0  0  0  0  0  0  0  0
  142.2040   76.9590  221.1640 H   0  0  0  0  0  0  0  0  0  0  0  0
  139.7113   77.4205  222.4442 H   0  0  0  0  0  0  0  0  0  0  0  0
  140.8566   76.7657  223.6906 H   0  0  0  0  0  0  0  0  0  0  0  0
  140.1407   79.4107  224.5636 H   0  0  0  0  0  0  0  0  0  0  0  0
  141.6480   81.5300  224.2890 H   0  0  0  0  0  0  0  0  0  0  0  0
  143.3568   81.1304  222.3627 H   0  0  0  0  0  0  0  0  0  0  0  0
  1  2  2  0
  2  3  1  0
  3  4  1  0
  4  5  1  0
  5  6  1  0
  6  7  1  0
  7  8  2  0
  8  9  1  0
  9 10  2  0
 10 11  1  0
 10 12  1  0
 12 13  2  0
 13 14  1  0
  2 15  1  0
 15 16  1  0
 16 17  1  0
 17 18  2  0
 18 19  1  0
 19 20  1  0
 20 21  2  0
 13  7  1  0
 21 17  1  0
  3 22  1  0
  3 23  1  0
  4 24  1  0
  4 25  1  0
  5 26  1  0
  5 27  1  0
  8 28  1  0
  9 29  1  0
 12 30  1  0
 15 31  1  0
 16 32  1  0
 16 33  1  0
 18 34  1  0
 19 35  1  0
 20 36  1  0
M  END
>  <smiles>  (3) 
O=C(CCCOc1ccc(Cl)cc1Cl)NCc1c[nH]cn1

>  <score_type>  (3) 
oracle

>  <origin>  (3) 
autodockgpu

>  <m_score__min__energy>  (3) 
-6.2800000000000002

>  <m_primary>  (3) 
energy

>  <meeko>  (3) 
{"free_energy": -4.12, "intermolecular_energy": -6.21, "internal_energy": -2.43, "cluster_size": 5, "cluster_id": 7, "rank_in_cluster": 4}

>  <energy>  (3) 
-6.27

>  <cluster_rmsd>  (3) 
0.06

>  <rmsd>  (3) 
273.48

>  <cluster>  (3) 
1

$$$$

     RDKit          3D

 36 37  0  0  0  0  0  0  0  0999 V2000
  139.3650   75.0950  222.3860 O   0  0  0  0  0  0  0  0  0  0  0  0
  140.5080   75.2590  221.9150 C   0  0  0  0  0  0  0  0  0  0  0  0
  141.3310   74.2450  221.2390 C   0  0  0  0  0  0  0  0  0  0  0  0
  140.6530   72.9130  221.2570 C   0  0  0  0  0  0  0  0  0  0  0  0
  141.0270   72.0110  222.3770 C   0  0  0  0  0  0  0  0  0  0  0  0
  140.1600   72.2830  223.4780 O   0  0  0  0  0  0  0  0  0  0  0  0
  140.2460   71.5030  224.6280 C   0  0  0  0  0  0  0  0  0  0  0  0
  141.0420   71.8700  225.6820 C   0  0  0  0  0  0  0  0  0  0  0  0
  141.0630   71.0370  226.7780 C   0  0  0  0  0  0  0  0  0  0  0  0
  140.3120   69.8680  226.8270 C   0  0  0  0  0  0  0  0  0  0  0  0
  140.3430   68.8070  228.2290 Cl  0  0  0  0  0  0  0  0  0  0  0  0
  139.5050   69.5050  225.7480 C   0  0  0  0  0  0  0  0  0  0  0  0
  139.4830   70.3480  224.6390 C   0  0  0  0  0  0  0  0  0  0  0  0
  138.4690   69.8990  223.2720 Cl  0  0  0  0  0  0  0  0  0  0  0  0
  141.0700   76.5780  222.0510 N   0  0  0  0  0  0  0  0  0  0  0  0
  140.3840   77.6630  222.6870 C   0  0  0  0  0  0  0  0  0  0  0  0
  141.2970   78.8170  222.9660 C   0  0  0  0  0  0  0  0  0  0  0  0
  140.9140   79.8870  223.7680 C   0  0  0  0  0  0  0  0  0  0  0  0
  141.9620   80.7370  223.8110 N   0  0  0  0  0  0  0  0  0  0  0  0
  142.9390   80.1980  223.0610 C   0  0  0  0  0  0  0  0  0  0  0  0
  142.5540   79.0220  222.5350 N   0  0  0  0  0  0  0  0  0  0  0  0
  141.4961   74.5516  220.1956 H   0  0  0  0  0  0  0  0  0  0  0  0
  142.2909   74.1592  221.7693 H   0  0  0  0  0  0  0  0  0  0  0  0
  139.5683   73.0874  221.3121 H   0  0  0  0  0  0  0  0  0  0  0  0
  140.9783   72.4003  220.3398 H   0  0  0  0  0  0  0  0  0  0  0  0
  140.9138   70.9625  222.0642 H   0  0  0  0  0  0  0  0  0  0  0  0
  142.0743   72.1804  222.6675 H   0  0  0  0  0  0  0  0  0  0  0  0
  141.6399   72.7929  225.6533 H   0  0  0  0  0  0  0  0  0  0  0  0
  141.6922   71.3041  227.6399 H   0  0  0  0  0  0  0  0  0  0  0  0
  138.9056   68.5830  225.7723 H   0  0  0  0  0  0  0  0  0  0  0  0
  142.0420   76.7520  221.6610 H   0  0  0  0  0  0  0  0  0  0  0  0
  139.5714   78.0041  222.0287 H   0  0  0  0  0  0  0  0  0  0  0  0
  139.9913   77.3001  223.6483 H   0  0  0  0  0  0  0  0  0  0  0  0
  139.9440   80.0158  224.2705 H   0  0  0  0  0  0  0  0  0  0  0  0
  141.9880   81.6440  224.3370 H   0  0  0  0  0  0  0  0  0  0  0  0
  143.9245   80.6589  222.8989 H   0  0  0  0  0  0  0  0  0  0  0  0
  1  2  2  0
  2  3  1  0
  3  4  1  0
  4  5  1  0
  5  6  1  0
  6  7  1  0
  7  8  2  0
  8  9  1  0
  9 10  2  0
 10 11  1  0
 10 12  1  0
 12 13  2  0
 13 14  1  0
  2 15  1  0
 15 16  1  0
 16 17  1  0
 17 18  2  0
 18 19  1  0
 19 20  1  0
 20 21  2  0
 13  7  1  0
 21 17  1  0
  3 22  1  0
  3 23  1  0
  4 24  1  0
  4 25  1  0
  5 26  1  0
  5 27  1  0
  8 28  1  0
  9 29  1  0
 12 30  1  0
 15 31  1  0
 16 32  1  0
 16 33  1  0
 18 34  1  0
 19 35  1  0
 20 36  1  0
M  END
>  <smiles>  (4) 
O=C(CCCOc1ccc(Cl)cc1Cl)NCc1c[nH]cn1

>  <score_type>  (4) 
oracle

>  <origin>  (4) 
autodockgpu

>  <m_score__min__energy>  (4) 
-6.2800000000000002

>  <m_primary>  (4) 
energy

>  <meeko>  (4) 
{"free_energy": -6.27, "intermolecular_energy": -8.36, "internal_energy": -0.9, "cluster_size": 6, "cluster_id": 1, "rank_in_cluster": 3}

>  <energy>  (4) 
-6.27

>  <cluster_rmsd>  (4) 
0.08

>  <rmsd>  (4) 
273.52

>  <cluster>  (4) 
1

$$$$

     RDKit          3D

 36 37  0  0  0  0  0  0  0  0999 V2000
  139.6640   74.7570  222.3420 O   0  0  0  0  0  0  0  0  0  0  0  0
  139.7920   73.7100  221.6750 C   0  0  0  0  0  0  0  0  0  0  0  0
  138.8700   72.5650  221.6580 C   0  0  0  0  0  0  0  0  0  0  0  0
  139.5110   71.3580  222.2640 C   0  0  0  0  0  0  0  0  0  0  0  0
  140.3760   71.6090  223.4450 C   0  0  0  0  0  0  0  0  0  0  0  0
  139.5650   71.5310  224.6170 O   0  0  0  0  0  0  0  0  0  0  0  0
  139.9990   70.7770  225.7040 C   0  0  0  0  0  0  0  0  0  0  0  0
  140.6830   71.3530  226.7440 C   0  0  0  0  0  0  0  0  0  0  0  0
  141.0720   70.5280  227.7760 C   0  0  0  0  0  0  0  0  0  0  0  0
  140.7900   69.1670  227.7770 C   0  0  0  0  0  0  0  0  0  0  0  0
  141.2900   68.1190  229.0970 Cl  0  0  0  0  0  0  0  0  0  0  0  0
  140.0940   68.5930  226.7120 C   0  0  0  0  0  0  0  0  0  0  0  0
  139.6990   69.4260  225.6670 C   0  0  0  0  0  0  0  0  0  0  0  0
  138.8200   68.7120  224.3200 Cl  0  0  0  0  0  0  0  0  0  0  0  0
  140.9650   73.6240  220.8440 N   0  0  0  0  0  0  0  0  0  0  0  0
  141.9490   74.6610  220.7620 C   0  0  0  0  0  0  0  0  0  0  0  0
  143.3290   74.1100  220.5810 C   0  0  0  0  0  0  0  0  0  0  0  0
  144.3880   74.8980  220.1400 C   0  0  0  0  0  0  0  0  0  0  0  0
  145.4760   74.0980  220.0910 N   0  0  0  0  0  0  0  0  0  0  0  0
  145.0840   72.8740  220.4870 C   0  0  0  0  0  0  0  0  0  0  0  0
  143.7740   72.8590  220.7920 N   0  0  0  0  0  0  0  0  0  0  0  0
  137.9672   72.8205  222.2322 H   0  0  0  0  0  0  0  0  0  0  0  0
  138.6084   72.3385  220.6138 H   0  0  0  0  0  0  0  0  0  0  0  0
  138.7103   70.6698  222.5725 H   0  0  0  0  0  0  0  0  0  0  0  0
  140.1762   70.9518  221.4878 H   0  0  0  0  0  0  0  0  0  0  0  0
  141.1716   70.8508  223.4917 H   0  0  0  0  0  0  0  0  0  0  0  0
  140.8413   72.6030  223.3706 H   0  0  0  0  0  0  0  0  0  0  0  0
  140.9114   72.4290  226.7535 H   0  0  0  0  0  0  0  0  0  0  0  0
  141.6225   70.9593  228.6251 H   0  0  0  0  0  0  0  0  0  0  0  0
  139.8646   67.5173  226.6980 H   0  0  0  0  0  0  0  0  0  0  0  0
  141.1050   72.7450  220.2650 H   0  0  0  0  0  0  0  0  0  0  0  0
  141.7106   75.3103  219.9066 H   0  0  0  0  0  0  0  0  0  0  0  0
  141.9288   75.2246  221.7064 H   0  0  0  0  0  0  0  0  0  0  0  0
  144.3472   75.9663  219.8812 H   0  0  0  0  0  0  0  0  0  0  0  0
  146.4370   74.3960  219.7960 H   0  0  0  0  0  0  0  0  0  0  0  0
  145.7479   71.9994  220.5529 H   0  0  0  0  0  0  0  0  0  0  0  0
  1  2  2  0
  2  3  1  0
  3  4  1  0
  4  5  1  0
  5  6  1  0
  6  7  1  0
  7  8  2  0
  8  9  1  0
  9 10  2  0
 10 11  1  0
 10 12  1  0
 12 13  2  0
 13 14  1  0
  2 15  1  0
 15 16  1  0
 16 17  1  0
 17 18  2  0
 18 19  1  0
 19 20  1  0
 20 21  2  0
 13  7  1  0
 21 17  1  0
  3 22  1  0
  3 23  1  0
  4 24  1  0
  4 25  1  0
  5 26  1  0
  5 27  1  0
  8 28  1  0
  9 29  1  0
 12 30  1  0
 15 31  1  0
 16 32  1  0
 16 33  1  0
 18 34  1  0
 19 35  1  0
 20 36  1  0
M  END
>  <smiles>  (5) 
O=C(CCCOc1ccc(Cl)cc1Cl)NCc1c[nH]cn1

>  <score_type>  (5) 
oracle

>  <origin>  (5) 
autodockgpu

>  <m_score__min__energy>  (5) 
-6.2800000000000002

>  <m_primary>  (5) 
energy

>  <meeko>  (5) 
{"free_energy": -5.95, "intermolecular_energy": -8.03, "internal_energy": -0.85, "cluster_size": 1, "cluster_id": 3, "rank_in_cluster": 1}

>  <energy>  (5) 
-6.23

>  <cluster_rmsd>  (5) 
0.09

>  <rmsd>  (5) 
273.51

>  <cluster>  (5) 
1

$$$$

     RDKit          3D

 36 37  0  0  0  0  0  0  0  0999 V2000
  140.1680   74.7100  222.1240 O   0  0  0  0  0  0  0  0  0  0  0  0
  141.0680   75.2010  221.4130 C   0  0  0  0  0  0  0  0  0  0  0  0
  141.7910   74.5270  220.3250 C   0  0  0  0  0  0  0  0  0  0  0  0
  143.1040   75.1930  220.0660 C   0  0  0  0  0  0  0  0  0  0  0  0
  143.1230   76.1760  218.9520 C   0  0  0  0  0  0  0  0  0  0  0  0
  141.8830   76.8830  218.9600 O   0  0  0  0  0  0  0  0  0  0  0  0
  141.8780   78.2620  218.7650 C   0  0  0  0  0  0  0  0  0  0  0  0
  142.9520   78.9070  218.2080 C   0  0  0  0  0  0  0  0  0  0  0  0
  142.8560   80.2720  218.0530 C   0  0  0  0  0  0  0  0  0  0  0  0
  141.7240   80.9790  218.4410 C   0  0  0  0  0  0  0  0  0  0  0  0
  141.6080   82.7230  218.2420 Cl  0  0  0  0  0  0  0  0  0  0  0  0
  140.6380   80.3110  219.0080 C   0  0  0  0  0  0  0  0  0  0  0  0
  140.7330   78.9290  219.1640 C   0  0  0  0  0  0  0  0  0  0  0  0
  139.3690   78.0770  219.8770 Cl  0  0  0  0  0  0  0  0  0  0  0  0
  141.4290   76.5660  221.6960 N   0  0  0  0  0  0  0  0  0  0  0  0
  140.8120   77.3460  222.7270 C   0  0  0  0  0  0  0  0  0  0  0  0
  141.4200   78.7090  222.8390 C   0  0  0  0  0  0  0  0  0  0  0  0
  141.0230   79.6190  223.8140 C   0  0  0  0  0  0  0  0  0  0  0  0
  141.7660   80.7330  223.6330 N   0  0  0  0  0  0  0  0  0  0  0  0
  142.5790   80.5010  222.5880 C   0  0  0  0  0  0  0  0  0  0  0  0
  142.3840   79.2680  222.0870 N   0  0  0  0  0  0  0  0  0  0  0  0
  141.9680   73.4782  220.6054 H   0  0  0  0  0  0  0  0  0  0  0  0
  141.1820   74.5820  219.4106 H   0  0  0  0  0  0  0  0  0  0  0  0
  143.4026   75.7188  220.9849 H   0  0  0  0  0  0  0  0  0  0  0  0
  143.7922   74.3890  219.7661 H   0  0  0  0  0  0  0  0  0  0  0  0
  143.9550   76.8818  219.0923 H   0  0  0  0  0  0  0  0  0  0  0  0
  143.2592   75.6586  217.9909 H   0  0  0  0  0  0  0  0  0  0  0  0
  143.8528   78.3571  217.8978 H   0  0  0  0  0  0  0  0  0  0  0  0
  143.7006   80.8192  217.6088 H   0  0  0  0  0  0  0  0  0  0  0  0
  139.7362   80.8572  219.3217 H   0  0  0  0  0  0  0  0  0  0  0  0
  142.1930   77.0140  221.1100 H   0  0  0  0  0  0  0  0  0  0  0  0
  139.7412   77.4525  222.4990 H   0  0  0  0  0  0  0  0  0  0  0  0
  140.9653   76.8260  223.6841 H   0  0  0  0  0  0  0  0  0  0  0  0
  140.2529   79.4618  224.5836 H   0  0  0  0  0  0  0  0  0  0  0  0
  141.7040   81.6050  224.2130 H   0  0  0  0  0  0  0  0  0  0  0  0
  143.3080   81.2245  222.1942 H   0  0  0  0  0  0  0  0  0  0  0  0
  1  2  2  0
  2  3  1  0
  3  4  1  0
  4  5  1  0
  5  6  1  0
  6  7  1  0
  7  8  2  0
  8  9  1  0
  9 10  2  0
 10 11  1  0
 10 12  1  0
 12 13  2  0
 13 14  1  0
  2 15  1  0
 15 16  1  0
 16 17  1  0
 17 18  2  0
 18 19  1  0
 19 20  1  0
 20 21  2  0
 13  7  1  0
 21 17  1  0
  3 22  1  0
  3 23  1  0
  4 24  1  0
  4 25  1  0
  5 26  1  0
  5 27  1  0
  8 28  1  0
  9 29  1  0
 12 30  1  0
 15 31  1  0
 16 32  1  0
 16 33  1  0
 18 34  1  0
 19 35  1  0
 20 36  1  0
M  END
>  <smiles>  (6) 
O=C(CCCOc1ccc(Cl)cc1Cl)NCc1c[nH]cn1

>  <score_type>  (6) 
oracle

>  <origin>  (6) 
autodockgpu

>  <m_score__min__energy>  (6) 
-6.2800000000000002

>  <m_primary>  (6) 
energy

>  <meeko>  (6) 
{"free_energy": -4.05, "intermolecular_energy": -6.14, "internal_energy": -2.48, "cluster_size": 5, "cluster_id": 7, "rank_in_cluster": 5}

>  <energy>  (6) 
-6.14

>  <cluster_rmsd>  (6) 
0.46

>  <rmsd>  (6) 
273.51

>  <cluster>  (6) 
1

$$$$

     RDKit          3D

 36 37  0  0  0  0  0  0  0  0999 V2000
  140.4100   74.4700  221.9840 O   0  0  0  0  0  0  0  0  0  0  0  0
  139.7070   75.4830  221.7940 C   0  0  0  0  0  0  0  0  0  0  0  0
  138.3650   75.7330  222.3400 C   0  0  0  0  0  0  0  0  0  0  0  0
  137.6200   76.7120  221.4910 C   0  0  0  0  0  0  0  0  0  0  0  0
  137.4450   78.0690  222.0700 C   0  0  0  0  0  0  0  0  0  0  0  0
  138.3330   78.9600  221.3950 O   0  0  0  0  0  0  0  0  0  0  0  0
  139.5100   79.3620  222.0210 C   0  0  0  0  0  0  0  0  0  0  0  0
  140.0440   78.6470  223.0620 C   0  0  0  0  0  0  0  0  0  0  0  0
  141.2120   79.1200  223.6180 C   0  0  0  0  0  0  0  0  0  0  0  0
  141.8330   80.2740  223.1540 C   0  0  0  0  0  0  0  0  0  0  0  0
  143.3240   80.8730  223.8690 Cl  0  0  0  0  0  0  0  0  0  0  0  0
  141.2790   80.9930  222.0940 C   0  0  0  0  0  0  0  0  0  0  0  0
  140.0980   80.5150  221.5300 C   0  0  0  0  0  0  0  0  0  0  0  0
  139.3910   81.4140  220.1920 Cl  0  0  0  0  0  0  0  0  0  0  0  0
  140.2760   76.5050  220.9530 N   0  0  0  0  0  0  0  0  0  0  0  0
  141.5710   76.3970  220.3510 C   0  0  0  0  0  0  0  0  0  0  0  0
  141.8640   77.5510  219.4430 C   0  0  0  0  0  0  0  0  0  0  0  0
  142.9420   77.5440  218.5630 C   0  0  0  0  0  0  0  0  0  0  0  0
  142.9120   78.7210  217.9010 N   0  0  0  0  0  0  0  0  0  0  0  0
  141.8550   79.4100  218.3660 C   0  0  0  0  0  0  0  0  0  0  0  0
  141.1990   78.7120  219.3100 N   0  0  0  0  0  0  0  0  0  0  0  0
  137.8067   74.7858  222.3724 H   0  0  0  0  0  0  0  0  0  0  0  0
  138.4686   76.1514  223.3520 H   0  0  0  0  0  0  0  0  0  0  0  0
  138.1648   76.8181  220.5413 H   0  0  0  0  0  0  0  0  0  0  0  0
  136.6055   76.3010  221.3817 H   0  0  0  0  0  0  0  0  0  0  0  0
  136.4060   78.4022  221.9305 H   0  0  0  0  0  0  0  0  0  0  0  0
  137.6679   78.0541  223.1471 H   0  0  0  0  0  0  0  0  0  0  0  0
  139.5597   77.7335  223.4375 H   0  0  0  0  0  0  0  0  0  0  0  0
  141.6669   78.5683  224.4539 H   0  0  0  0  0  0  0  0  0  0  0  0
  141.7592   81.9076  221.7159 H   0  0  0  0  0  0  0  0  0  0  0  0
  139.7020   77.3800  220.7700 H   0  0  0  0  0  0  0  0  0  0  0  0
  142.3310   76.3682  221.1457 H   0  0  0  0  0  0  0  0  0  0  0  0
  141.5908   75.4766  219.7489 H   0  0  0  0  0  0  0  0  0  0  0  0
  143.6767   76.7359  218.4318 H   0  0  0  0  0  0  0  0  0  0  0  0
  143.5960   79.0220  217.1650 H   0  0  0  0  0  0  0  0  0  0  0  0
  141.5649   80.4130  218.0197 H   0  0  0  0  0  0  0  0  0  0  0  0
  1  2  2  0
  2  3  1  0
  3  4  1  0
  4  5  1  0
  5  6  1  0
  6  7  1  0
  7  8  2  0
  8  9  1  0
  9 10  2  0
 10 11  1  0
 10 12  1  0
 12 13  2  0
 13 14  1  0
  2 15  1  0
 15 16  1  0
 16 17  1  0
 17 18  2  0
 18 19  1  0
 19 20  1  0
 20 21  2  0
 13  7  1  0
 21 17  1  0
  3 22  1  0
  3 23  1  0
  4 24  1  0
  4 25  1  0
  5 26  1  0
  5 27  1  0
  8 28  1  0
  9 29  1  0
 12 30  1  0
 15 31  1  0
 16 32  1  0
 16 33  1  0
 18 34  1  0
 19 35  1  0
 20 36  1  0
M  END
>  <smiles>  (7) 
O=C(CCCOc1ccc(Cl)cc1Cl)NCc1c[nH]cn1

>  <score_type>  (7) 
oracle

>  <origin>  (7) 
autodockgpu

>  <m_score__min__energy>  (7) 
-6.2800000000000002

>  <m_primary>  (7) 
energy

>  <meeko>  (7) 
{"free_energy": -4.31, "intermolecular_energy": -6.4, "internal_energy": -2.44, "cluster_size": 3, "cluster_id": 9, "rank_in_cluster": 1}

>  <energy>  (7) 
-6.19

>  <cluster_rmsd>  (7) 
0.0

>  <rmsd>  (7) 
272.11

>  <cluster>  (7) 
2

$$$$

     RDKit          3D

 36 37  0  0  0  0  0  0  0  0999 V2000
  139.3340   75.1340  222.3400 O   0  0  0  0  0  0  0  0  0  0  0  0
  140.4890   75.2760  221.8920 C   0  0  0  0  0  0  0  0  0  0  0  0
  141.3030   74.2490  221.2250 C   0  0  0  0  0  0  0  0  0  0  0  0
  140.6170   72.9210  221.2620 C   0  0  0  0  0  0  0  0  0  0  0  0
  141.0170   72.0160  222.3700 C   0  0  0  0  0  0  0  0  0  0  0  0
  140.1480   72.2550  223.4780 O   0  0  0  0  0  0  0  0  0  0  0  0
  140.2610   71.4680  224.6210 C   0  0  0  0  0  0  0  0  0  0  0  0
  141.0490   71.8500  225.6750 C   0  0  0  0  0  0  0  0  0  0  0  0
  141.0980   71.0090  226.7640 C   0  0  0  0  0  0  0  0  0  0  0  0
  140.3820   69.8180  226.8050 C   0  0  0  0  0  0  0  0  0  0  0  0
  140.4490   68.7460  228.1990 Cl  0  0  0  0  0  0  0  0  0  0  0  0
  139.5830   69.4400  225.7260 C   0  0  0  0  0  0  0  0  0  0  0  0
  139.5330   70.2910  224.6240 C   0  0  0  0  0  0  0  0  0  0  0  0
  138.5270   69.8240  223.2570 Cl  0  0  0  0  0  0  0  0  0  0  0  0
  141.0770   76.5820  222.0490 N   0  0  0  0  0  0  0  0  0  0  0  0
  140.4020   77.6770  222.6790 C   0  0  0  0  0  0  0  0  0  0  0  0
  141.3290   78.8200  222.9570 C   0  0  0  0  0  0  0  0  0  0  0  0
  140.9650   79.8840  223.7760 C   0  0  0  0  0  0  0  0  0  0  0  0
  142.0210   80.7260  223.8140 N   0  0  0  0  0  0  0  0  0  0  0  0
  142.9840   80.1870  223.0450 C   0  0  0  0  0  0  0  0  0  0  0  0
  142.5810   79.0190  222.5120 N   0  0  0  0  0  0  0  0  0  0  0  0
  141.4655   74.5419  220.1772 H   0  0  0  0  0  0  0  0  0  0  0  0
  142.2646   74.1639  221.7523 H   0  0  0  0  0  0  0  0  0  0  0  0
  139.5355   73.1024  221.3484 H   0  0  0  0  0  0  0  0  0  0  0  0
  140.9125   72.4068  220.3356 H   0  0  0  0  0  0  0  0  0  0  0  0
  140.9276   70.9686  222.0459 H   0  0  0  0  0  0  0  0  0  0  0  0
  142.0612   72.2072  222.6583 H   0  0  0  0  0  0  0  0  0  0  0  0
  141.6192   72.7904  225.6520 H   0  0  0  0  0  0  0  0  0  0  0  0
  141.7216   71.2874  227.6264 H   0  0  0  0  0  0  0  0  0  0  0  0
  139.0110   68.5006  225.7445 H   0  0  0  0  0  0  0  0  0  0  0  0
  142.0600   76.7360  221.6790 H   0  0  0  0  0  0  0  0  0  0  0  0
  139.5959   78.0260  222.0169 H   0  0  0  0  0  0  0  0  0  0  0  0
  140.0009   77.3224  223.6399 H   0  0  0  0  0  0  0  0  0  0  0  0
  140.0029   80.0146  224.2930 H   0  0  0  0  0  0  0  0  0  0  0  0
  142.0610   81.6270  224.3490 H   0  0  0  0  0  0  0  0  0  0  0  0
  143.9712   80.6413  222.8743 H   0  0  0  0  0  0  0  0  0  0  0  0
  1  2  2  0
  2  3  1  0
  3  4  1  0
  4  5  1  0
  5  6  1  0
  6  7  1  0
  7  8  2  0
  8  9  1  0
  9 10  2  0
 10 11  1  0
 10 12  1  0
 12 13  2  0
 13 14  1  0
  2 15  1  0
 15 16  1  0
 16 17  1  0
 17 18  2  0
 18 19  1  0
 19 20  1  0
 20 21  2  0
 13  7  1  0
 21 17  1  0
  3 22  1  0
  3 23  1  0
  4 24  1  0
  4 25  1  0
  5 26  1  0
  5 27  1  0
  8 28  1  0
  9 29  1  0
 12 30  1  0
 15 31  1  0
 16 32  1  0
 16 33  1  0
 18 34  1  0
 19 35  1  0
 20 36  1  0
M  END
>  <smiles>  (8) 
O=C(CCCOc1ccc(Cl)cc1Cl)NCc1c[nH]cn1

>  <score_type>  (8) 
oracle

>  <origin>  (8) 
autodockgpu

>  <m_score__min__energy>  (8) 
-6.2800000000000002

>  <m_primary>  (8) 
energy

>  <meeko>  (8) 
{"free_energy": -6.28, "intermolecular_energy": -8.37, "internal_energy": -0.89, "cluster_size": 6, "cluster_id": 1, "rank_in_cluster": 1}

>  <energy>  (8) 
-5.95

>  <cluster_rmsd>  (8) 
0.0

>  <rmsd>  (8) 
272.68

>  <cluster>  (8) 
3

$$$$

     RDKit          3D

 36 37  0  0  0  0  0  0  0  0999 V2000
  139.3280   75.1400  222.3750 O   0  0  0  0  0  0  0  0  0  0  0  0
  140.4850   75.2820  221.9300 C   0  0  0  0  0  0  0  0  0  0  0  0
  141.3010   74.2530  221.2700 C   0  0  0  0  0  0  0  0  0  0  0  0
  140.6050   72.9300  221.2900 C   0  0  0  0  0  0  0  0  0  0  0  0
  140.9870   72.0140  222.3950 C   0  0  0  0  0  0  0  0  0  0  0  0
  140.1220   72.2670  223.5030 O   0  0  0  0  0  0  0  0  0  0  0  0
  140.2390   71.4960  224.6560 C   0  0  0  0  0  0  0  0  0  0  0  0
  141.0410   71.8870  225.6970 C   0  0  0  0  0  0  0  0  0  0  0  0
  141.0940   71.0610  226.7980 C   0  0  0  0  0  0  0  0  0  0  0  0
  140.3700   69.8750  226.8630 C   0  0  0  0  0  0  0  0  0  0  0  0
  140.4430   68.8240  228.2710 Cl  0  0  0  0  0  0  0  0  0  0  0  0
  139.5580   69.4880  225.7960 C   0  0  0  0  0  0  0  0  0  0  0  0
  139.5030   70.3240  224.6830 C   0  0  0  0  0  0  0  0  0  0  0  0
  138.4820   69.8450  223.3320 Cl  0  0  0  0  0  0  0  0  0  0  0  0
  141.0710   76.5880  222.0850 N   0  0  0  0  0  0  0  0  0  0  0  0
  140.3940   77.6850  222.7090 C   0  0  0  0  0  0  0  0  0  0  0  0
  141.3170   78.8320  222.9800 C   0  0  0  0  0  0  0  0  0  0  0  0
  140.9590   79.8910  223.8090 C   0  0  0  0  0  0  0  0  0  0  0  0
  142.0110   80.7380  223.8360 N   0  0  0  0  0  0  0  0  0  0  0  0
  142.9660   80.2080  223.0530 C   0  0  0  0  0  0  0  0  0  0  0  0
  142.5630   79.0410  222.5190 N   0  0  0  0  0  0  0  0  0  0  0  0
  141.4810   74.5501  220.2263 H   0  0  0  0  0  0  0  0  0  0  0  0
  142.2541   74.1582  221.8109 H   0  0  0  0  0  0  0  0  0  0  0  0
  139.5240   73.1187  221.3668 H   0  0  0  0  0  0  0  0  0  0  0  0
  140.9061   72.4206  220.3627 H   0  0  0  0  0  0  0  0  0  0  0  0
  140.8773   70.9696  222.0677 H   0  0  0  0  0  0  0  0  0  0  0  0
  142.0347   72.1834  222.6842 H   0  0  0  0  0  0  0  0  0  0  0  0
  141.6186   72.8222  225.6547 H   0  0  0  0  0  0  0  0  0  0  0  0
  141.7272   71.3475  227.6506 H   0  0  0  0  0  0  0  0  0  0  0  0
  138.9799   68.5528  225.8326 H   0  0  0  0  0  0  0  0  0  0  0  0
  142.0550   76.7420  221.7180 H   0  0  0  0  0  0  0  0  0  0  0  0
  139.5866   78.0279  222.0454 H   0  0  0  0  0  0  0  0  0  0  0  0
  139.9951   77.3347  223.6724 H   0  0  0  0  0  0  0  0  0  0  0  0
  140.0036   80.0145  224.3399 H   0  0  0  0  0  0  0  0  0  0  0  0
  142.0530   81.6370  224.3760 H   0  0  0  0  0  0  0  0  0  0  0  0
  143.9486   80.6683  222.8724 H   0  0  0  0  0  0  0  0  0  0  0  0
  1  2  2  0
  2  3  1  0
  3  4  1  0
  4  5  1  0
  5  6  1  0
  6  7  1  0
  7  8  2  0
  8  9  1  0
  9 10  2  0
 10 11  1  0
 10 12  1  0
 12 13  2  0
 13 14  1  0
  2 15  1  0
 15 16  1  0
 16 17  1  0
 17 18  2  0
 18 19  1  0
 19 20  1  0
 20 21  2  0
 13  7  1  0
 21 17  1  0
  3 22  1  0
  3 23  1  0
  4 24  1  0
  4 25  1  0
  5 26  1  0
  5 27  1  0
  8 28  1  0
  9 29  1  0
 12 30  1  0
 15 31  1  0
 16 32  1  0
 16 33  1  0
 18 34  1  0
 19 35  1  0
 20 36  1  0
M  END
>  <smiles>  (9) 
O=C(CCCOc1ccc(Cl)cc1Cl)NCc1c[nH]cn1

>  <score_type>  (9) 
oracle

>  <origin>  (9) 
autodockgpu

>  <m_score__min__energy>  (9) 
-6.2800000000000002

>  <m_primary>  (9) 
energy

>  <meeko>  (9) 
{"free_energy": -6.28, "intermolecular_energy": -8.36, "internal_energy": -0.9, "cluster_size": 6, "cluster_id": 1, "rank_in_cluster": 2}

>  <energy>  (9) 
-5.25

>  <cluster_rmsd>  (9) 
0.0

>  <rmsd>  (9) 
272.15

>  <cluster>  (9) 
4

$$$$

     RDKit          3D

 36 37  0  0  0  0  0  0  0  0999 V2000
  137.5710   73.4890  219.9850 O   0  0  0  0  0  0  0  0  0  0  0  0
  138.0900   73.0400  221.0270 C   0  0  0  0  0  0  0  0  0  0  0  0
  138.5540   71.6630  221.2500 C   0  0  0  0  0  0  0  0  0  0  0  0
  140.0480   71.5990  221.2530 C   0  0  0  0  0  0  0  0  0  0  0  0
  140.7060   71.8900  222.5530 C   0  0  0  0  0  0  0  0  0  0  0  0
  139.7190   71.8030  223.5810 O   0  0  0  0  0  0  0  0  0  0  0  0
  139.9930   71.0750  224.7360 C   0  0  0  0  0  0  0  0  0  0  0  0
  140.8530   71.5510  225.6920 C   0  0  0  0  0  0  0  0  0  0  0  0
  141.0620   70.7620  226.8010 C   0  0  0  0  0  0  0  0  0  0  0  0
  140.4340   69.5320  226.9580 C   0  0  0  0  0  0  0  0  0  0  0  0
  140.7060   68.5290  228.3770 Cl  0  0  0  0  0  0  0  0  0  0  0  0
  139.5610   69.0580  225.9780 C   0  0  0  0  0  0  0  0  0  0  0  0
  139.3480   69.8560  224.8550 C   0  0  0  0  0  0  0  0  0  0  0  0
  138.2480   69.2690  223.6140 Cl  0  0  0  0  0  0  0  0  0  0  0  0
  138.2470   73.9720  222.1140 N   0  0  0  0  0  0  0  0  0  0  0  0
  137.8400   75.3430  222.0390 C   0  0  0  0  0  0  0  0  0  0  0  0
  138.9900   76.2800  222.2410 C   0  0  0  0  0  0  0  0  0  0  0  0
  140.3030   75.9110  221.9650 C   0  0  0  0  0  0  0  0  0  0  0  0
  141.0770   76.9800  222.2530 N   0  0  0  0  0  0  0  0  0  0  0  0
  140.2590   77.9550  222.6850 C   0  0  0  0  0  0  0  0  0  0  0  0
  138.9770   77.5490  222.6860 N   0  0  0  0  0  0  0  0  0  0  0  0
  138.1761   71.3079  222.2201 H   0  0  0  0  0  0  0  0  0  0  0  0
  138.1759   71.0277  220.4355 H   0  0  0  0  0  0  0  0  0  0  0  0
  140.3428   70.5849  220.9453 H   0  0  0  0  0  0  0  0  0  0  0  0
  140.3819   72.3905  220.5659 H   0  0  0  0  0  0  0  0  0  0  0  0
  141.5037   71.1558  222.7393 H   0  0  0  0  0  0  0  0  0  0  0  0
  141.1511   72.8958  222.5372 H   0  0  0  0  0  0  0  0  0  0  0  0
  141.3552   72.5230  225.5777 H   0  0  0  0  0  0  0  0  0  0  0  0
  141.7464   71.1157  227.5861 H   0  0  0  0  0  0  0  0  0  0  0  0
  139.0573   68.0863  226.0880 H   0  0  0  0  0  0  0  0  0  0  0  0
  138.6840   73.6210  223.0150 H   0  0  0  0  0  0  0  0  0  0  0  0
  137.3996   75.5293  221.0484 H   0  0  0  0  0  0  0  0  0  0  0  0
  137.1081   75.5250  222.8397 H   0  0  0  0  0  0  0  0  0  0  0  0
  140.6447   74.9367  221.5855 H   0  0  0  0  0  0  0  0  0  0  0  0
  142.1200   77.0200  222.1500 H   0  0  0  0  0  0  0  0  0  0  0  0
  140.5945   78.9550  222.9971 H   0  0  0  0  0  0  0  0  0  0  0  0
  1  2  2  0
  2  3  1  0
  3  4  1  0
  4  5  1  0
  5  6  1  0
  6  7  1  0
  7  8  2  0
  8  9  1  0
  9 10  2  0
 10 11  1  0
 10 12  1  0
 12 13  2  0
 13 14  1  0
  2 15  1  0
 15 16  1  0
 16 17  1  0
 17 18  2  0
 18 19  1  0
 19 20  1  0
 20 21  2  0
 13  7  1  0
 21 17  1  0
  3 22  1  0
  3 23  1  0
  4 24  1  0
  4 25  1  0
  5 26  1  0
  5 27  1  0
  8 28  1  0
  9 29  1  0
 12 30  1  0
 15 31  1  0
 16 32  1  0
 16 33  1  0
 18 34  1  0
 19 35  1  0
 20 36  1  0
M  END
>  <smiles>  (10) 
O=C(CCCOc1ccc(Cl)cc1Cl)NCc1c[nH]cn1

>  <score_type>  (10) 
oracle

>  <origin>  (10) 
autodockgpu

>  <m_score__min__energy>  (10) 
-6.2800000000000002

>  <m_primary>  (10) 
energy

>  <meeko>  (10) 
{"free_energy": -5.25, "intermolecular_energy": -7.34, "internal_energy": -1.53, "cluster_size": 1, "cluster_id": 4, "rank_in_cluster": 1}

>  <energy>  (10) 
-5.25

>  <cluster_rmsd>  (10) 
0.0

>  <rmsd>  (10) 
272.46

>  <cluster>  (10) 
5

$$$$

     RDKit          3D

 36 37  0  0  0  0  0  0  0  0999 V2000
  142.2450   76.3460  217.5340 O   0  0  0  0  0  0  0  0  0  0  0  0
  142.5990   77.3070  218.2460 C   0  0  0  0  0  0  0  0  0  0  0  0
  142.9440   78.6590  217.7830 C   0  0  0  0  0  0  0  0  0  0  0  0
  141.8280   79.6150  218.0600 C   0  0  0  0  0  0  0  0  0  0  0  0
  142.0560   80.5700  219.1750 C   0  0  0  0  0  0  0  0  0  0  0  0
  142.0950   79.8290  220.3950 O   0  0  0  0  0  0  0  0  0  0  0  0
  141.0860   80.0070  221.3380 C   0  0  0  0  0  0  0  0  0  0  0  0
  139.7640   80.0220  220.9750 C   0  0  0  0  0  0  0  0  0  0  0  0
  138.8360   80.2020  221.9760 C   0  0  0  0  0  0  0  0  0  0  0  0
  139.2110   80.3650  223.3060 C   0  0  0  0  0  0  0  0  0  0  0  0
  138.0220   80.5960  224.5800 Cl  0  0  0  0  0  0  0  0  0  0  0  0
  140.5600   80.3480  223.6630 C   0  0  0  0  0  0  0  0  0  0  0  0
  141.4990   80.1640  222.6500 C   0  0  0  0  0  0  0  0  0  0  0  0
  143.2030   80.1410  223.0900 Cl  0  0  0  0  0  0  0  0  0  0  0  0
  142.6760   77.0570  219.6620 N   0  0  0  0  0  0  0  0  0  0  0  0
  142.3720   75.7890  220.2540 C   0  0  0  0  0  0  0  0  0  0  0  0
  141.1690   75.8610  221.1440 C   0  0  0  0  0  0  0  0  0  0  0  0
  140.4880   74.7210  221.5600 C   0  0  0  0  0  0  0  0  0  0  0  0
  139.4700   75.1400  222.3430 N   0  0  0  0  0  0  0  0  0  0  0  0
  139.5380   76.4820  222.3950 C   0  0  0  0  0  0  0  0  0  0  0  0
  140.5710   76.9440  221.6690 N   0  0  0  0  0  0  0  0  0  0  0  0
  143.8493   78.9997  218.3068 H   0  0  0  0  0  0  0  0  0  0  0  0
  143.1196   78.6263  216.6976 H   0  0  0  0  0  0  0  0  0  0  0  0
  141.6501   80.2001  217.1456 H   0  0  0  0  0  0  0  0  0  0  0  0
  140.9732   78.9949  218.3680 H   0  0  0  0  0  0  0  0  0  0  0  0
  143.0116   81.0943  219.0269 H   0  0  0  0  0  0  0  0  0  0  0  0
  141.2479   81.3155  219.2085 H   0  0  0  0  0  0  0  0  0  0  0  0
  139.4571   79.8953  219.9263 H   0  0  0  0  0  0  0  0  0  0  0  0
  137.7671   80.2174  221.7168 H   0  0  0  0  0  0  0  0  0  0  0  0
  140.8719   80.4757  224.7101 H   0  0  0  0  0  0  0  0  0  0  0  0
  142.9760   77.8540  220.2960 H   0  0  0  0  0  0  0  0  0  0  0  0
  142.1786   75.0601  219.4532 H   0  0  0  0  0  0  0  0  0  0  0  0
  143.2323   75.4850  220.8683 H   0  0  0  0  0  0  0  0  0  0  0  0
  140.7315   73.6800  221.3013 H   0  0  0  0  0  0  0  0  0  0  0  0
  138.7690   74.5170  222.8130 H   0  0  0  0  0  0  0  0  0  0  0  0
  138.8396   77.1186  222.9580 H   0  0  0  0  0  0  0  0  0  0  0  0
  1  2  2  0
  2  3  1  0
  3  4  1  0
  4  5  1  0
  5  6  1  0
  6  7  1  0
  7  8  2  0
  8  9  1  0
  9 10  2  0
 10 11  1  0
 10 12  1  0
 12 13  2  0
 13 14  1  0
  2 15  1  0
 15 16  1  0
 16 17  1  0
 17 18  2  0
 18 19  1  0
 19 20  1  0
 20 21  2  0
 13  7  1  0
 21 17  1  0
  3 22  1  0
  3 23  1  0
  4 24  1  0
  4 25  1  0
  5 26  1  0
  5 27  1  0
  8 28  1  0
  9 29  1  0
 12 30  1  0
 15 31  1  0
 16 32  1  0
 16 33  1  0
 18 34  1  0
 19 35  1  0
 20 36  1  0
M  END
>  <smiles>  (11) 
O=C(CCCOc1ccc(Cl)cc1Cl)NCc1c[nH]cn1

>  <score_type>  (11) 
oracle

>  <origin>  (11) 
autodockgpu

>  <m_score__min__energy>  (11) 
-6.2800000000000002

>  <m_primary>  (11) 
energy

>  <meeko>  (11) 
{"free_energy": -4.52, "intermolecular_energy": -6.61, "internal_energy": -2.17, "cluster_size": 1, "cluster_id": 8, "rank_in_cluster": 1}

>  <energy>  (11) 
-4.68

>  <cluster_rmsd>  (11) 
0.0

>  <rmsd>  (11) 
271.92

>  <cluster>  (11) 
6

$$$$

     RDKit          3D

 36 37  0  0  0  0  0  0  0  0999 V2000
  140.7790   73.9640  222.0040 O   0  0  0  0  0  0  0  0  0  0  0  0
  139.8860   74.7130  221.5590 C   0  0  0  0  0  0  0  0  0  0  0  0
  138.4430   74.6080  221.8220 C   0  0  0  0  0  0  0  0  0  0  0  0
  137.7400   75.8720  221.4440 C   0  0  0  0  0  0  0  0  0  0  0  0
  138.0110   77.0470  222.3120 C   0  0  0  0  0  0  0  0  0  0  0  0
  138.7520   78.0020  221.5520 O   0  0  0  0  0  0  0  0  0  0  0  0
  139.8560   78.6270  222.1250 C   0  0  0  0  0  0  0  0  0  0  0  0
  140.7450   77.9330  222.9050 C   0  0  0  0  0  0  0  0  0  0  0  0
  141.8070   78.6350  223.4290 C   0  0  0  0  0  0  0  0  0  0  0  0
  141.9830   79.9920  223.1860 C   0  0  0  0  0  0  0  0  0  0  0  0
  143.3420   80.8840  223.8590 Cl  0  0  0  0  0  0  0  0  0  0  0  0
  141.0710   80.6880  222.3920 C   0  0  0  0  0  0  0  0  0  0  0  0
  139.9960   79.9790  221.8600 C   0  0  0  0  0  0  0  0  0  0  0  0
  138.8410   80.8470  220.8560 Cl  0  0  0  0  0  0  0  0  0  0  0  0
  140.3210   75.7850  220.7020 N   0  0  0  0  0  0  0  0  0  0  0  0
  141.6940   76.0090  220.3570 C   0  0  0  0  0  0  0  0  0  0  0  0
  141.8610   77.2020  219.4690 C   0  0  0  0  0  0  0  0  0  0  0  0
  143.0280   77.4290  218.7470 C   0  0  0  0  0  0  0  0  0  0  0  0
  142.8440   78.5770  218.0580 N   0  0  0  0  0  0  0  0  0  0  0  0
  141.6110   79.0230  218.3570 C   0  0  0  0  0  0  0  0  0  0  0  0
  140.9920   78.1970  219.2190 N   0  0  0  0  0  0  0  0  0  0  0  0
  138.0291   73.7757  221.2339 H   0  0  0  0  0  0  0  0  0  0  0  0
  138.2931   74.4297  222.8971 H   0  0  0  0  0  0  0  0  0  0  0  0
  138.0423   76.1327  220.4190 H   0  0  0  0  0  0  0  0  0  0  0  0
  136.6661   75.6609  221.5537 H   0  0  0  0  0  0  0  0  0  0  0  0
  137.0612   77.4916  222.6440 H   0  0  0  0  0  0  0  0  0  0  0  0
  138.5846   76.7398  223.1989 H   0  0  0  0  0  0  0  0  0  0  0  0
  140.6148   76.8590  223.1039 H   0  0  0  0  0  0  0  0  0  0  0  0
  142.5378   78.1063  224.0586 H   0  0  0  0  0  0  0  0  0  0  0  0
  141.1967   81.7624  222.1923 H   0  0  0  0  0  0  0  0  0  0  0  0
  139.5860   76.4400  220.3050 H   0  0  0  0  0  0  0  0  0  0  0  0
  142.2705   76.1697  221.2799 H   0  0  0  0  0  0  0  0  0  0  0  0
  142.0558   75.1254  219.8109 H   0  0  0  0  0  0  0  0  0  0  0  0
  143.9275   76.7960  218.7384 H   0  0  0  0  0  0  0  0  0  0  0  0
  143.5450   79.0200  217.4160 H   0  0  0  0  0  0  0  0  0  0  0  0
  141.1668   79.9432  217.9497 H   0  0  0  0  0  0  0  0  0  0  0  0
  1  2  2  0
  2  3  1  0
  3  4  1  0
  4  5  1  0
  5  6  1  0
  6  7  1  0
  7  8  2  0
  8  9  1  0
  9 10  2  0
 10 11  1  0
 10 12  1  0
 12 13  2  0
 13 14  1  0
  2 15  1  0
 15 16  1  0
 16 17  1  0
 17 18  2  0
 18 19  1  0
 19 20  1  0
 20 21  2  0
 13  7  1  0
 21 17  1  0
  3 22  1  0
  3 23  1  0
  4 24  1  0
  4 25  1  0
  5 26  1  0
  5 27  1  0
  8 28  1  0
  9 29  1  0
 12 30  1  0
 15 31  1  0
 16 32  1  0
 16 33  1  0
 18 34  1  0
 19 35  1  0
 20 36  1  0
M  END
>  <smiles>  (12) 
O=C(CCCOc1ccc(Cl)cc1Cl)NCc1c[nH]cn1

>  <score_type>  (12) 
oracle

>  <origin>  (12) 
autodockgpu

>  <m_score__min__energy>  (12) 
-6.2800000000000002

>  <m_primary>  (12) 
energy

>  <meeko>  (12) 
{"free_energy": -4.24, "intermolecular_energy": -6.33, "internal_energy": -2.42, "cluster_size": 3, "cluster_id": 9, "rank_in_cluster": 2}

>  <energy>  (12) 
-4.64

>  <cluster_rmsd>  (12) 
0.0

>  <rmsd>  (12) 
272.52

>  <cluster>  (12) 
7

$$$$

     RDKit          3D

 36 37  0  0  0  0  0  0  0  0999 V2000
  138.9600   75.6090  222.0160 O   0  0  0  0  0  0  0  0  0  0  0  0
  140.2060   75.5590  221.9590 C   0  0  0  0  0  0  0  0  0  0  0  0
  141.0190   74.3870  221.6040 C   0  0  0  0  0  0  0  0  0  0  0  0
  140.2030   73.1350  221.6680 C   0  0  0  0  0  0  0  0  0  0  0  0
  140.6870   72.0940  222.6100 C   0  0  0  0  0  0  0  0  0  0  0  0
  139.6680   71.8660  223.5840 O   0  0  0  0  0  0  0  0  0  0  0  0
  139.9630   71.1270  224.7260 C   0  0  0  0  0  0  0  0  0  0  0  0
  140.8110   71.6090  225.6900 C   0  0  0  0  0  0  0  0  0  0  0  0
  141.0430   70.8080  226.7850 C   0  0  0  0  0  0  0  0  0  0  0  0
  140.4480   69.5580  226.9210 C   0  0  0  0  0  0  0  0  0  0  0  0
  140.7490   68.5380  228.3220 Cl  0  0  0  0  0  0  0  0  0  0  0  0
  139.5880   69.0780  225.9330 C   0  0  0  0  0  0  0  0  0  0  0  0
  139.3520   69.8890  224.8250 C   0  0  0  0  0  0  0  0  0  0  0  0
  138.2670   69.2930  223.5740 Cl  0  0  0  0  0  0  0  0  0  0  0  0
  140.9080   76.7760  222.2740 N   0  0  0  0  0  0  0  0  0  0  0  0
  140.2470   77.9940  222.6370 C   0  0  0  0  0  0  0  0  0  0  0  0
  141.2190   79.0680  223.0160 C   0  0  0  0  0  0  0  0  0  0  0  0
  140.8040   80.3100  223.4860 C   0  0  0  0  0  0  0  0  0  0  0  0
  141.9220   81.0270  223.7320 N   0  0  0  0  0  0  0  0  0  0  0  0
  142.9700   80.2450  223.4200 C   0  0  0  0  0  0  0  0  0  0  0  0
  142.5630   79.0410  222.9800 N   0  0  0  0  0  0  0  0  0  0  0  0
  141.4064   74.5130  220.5822 H   0  0  0  0  0  0  0  0  0  0  0  0
  141.8491   74.3037  222.3209 H   0  0  0  0  0  0  0  0  0  0  0  0
  139.1819   73.4130  221.9682 H   0  0  0  0  0  0  0  0  0  0  0  0
  140.2688   72.6847  220.6666 H   0  0  0  0  0  0  0  0  0  0  0  0
  140.8936   71.1628  222.0620 H   0  0  0  0  0  0  0  0  0  0  0  0
  141.6140   72.4262  223.1002 H   0  0  0  0  0  0  0  0  0  0  0  0
  141.2866   72.5960  225.5921 H   0  0  0  0  0  0  0  0  0  0  0  0
  141.7185   71.1667  227.5755 H   0  0  0  0  0  0  0  0  0  0  0  0
  139.1115   68.0909  226.0258 H   0  0  0  0  0  0  0  0  0  0  0  0
  141.9680   76.7670  222.2360 H   0  0  0  0  0  0  0  0  0  0  0  0
  139.6488   78.3419  221.7819 H   0  0  0  0  0  0  0  0  0  0  0  0
  139.6105   77.7881  223.5102 H   0  0  0  0  0  0  0  0  0  0  0  0
  139.7657   80.6437  223.6296 H   0  0  0  0  0  0  0  0  0  0  0  0
  141.9450   82.0100  224.0970 H   0  0  0  0  0  0  0  0  0  0  0  0
  144.0228   80.5500  223.5125 H   0  0  0  0  0  0  0  0  0  0  0  0
  1  2  2  0
  2  3  1  0
  3  4  1  0
  4  5  1  0
  5  6  1  0
  6  7  1  0
  7  8  2  0
  8  9  1  0
  9 10  2  0
 10 11  1  0
 10 12  1  0
 12 13  2  0
 13 14  1  0
  2 15  1  0
 15 16  1  0
 16 17  1  0
 17 18  2  0
 18 19  1  0
 19 20  1  0
 20 21  2  0
 13  7  1  0
 21 17  1  0
  3 22  1  0
  3 23  1  0
  4 24  1  0
  4 25  1  0
  5 26  1  0
  5 27  1  0
  8 28  1  0
  9 29  1  0
 12 30  1  0
 15 31  1  0
 16 32  1  0
 16 33  1  0
 18 34  1  0
 19 35  1  0
 20 36  1  0
M  END
>  <smiles>  (13) 
O=C(CCCOc1ccc(Cl)cc1Cl)NCc1c[nH]cn1

>  <score_type>  (13) 
oracle

>  <origin>  (13) 
autodockgpu

>  <m_score__min__energy>  (13) 
-6.2800000000000002

>  <m_primary>  (13) 
energy

>  <meeko>  (13) 
{"free_energy": -6.14, "intermolecular_energy": -8.22, "internal_energy": -0.85, "cluster_size": 6, "cluster_id": 1, "rank_in_cluster": 6}

>  <energy>  (13) 
-4.63

>  <cluster_rmsd>  (13) 
0.11

>  <rmsd>  (13) 
272.55

>  <cluster>  (13) 
7

$$$$

     RDKit          3D

 36 37  0  0  0  0  0  0  0  0999 V2000
  140.1590   74.6560  222.0520 O   0  0  0  0  0  0  0  0  0  0  0  0
  141.0940   75.1760  221.4090 C   0  0  0  0  0  0  0  0  0  0  0  0
  141.9020   74.5310  220.3640 C   0  0  0  0  0  0  0  0  0  0  0  0
  143.2040   75.2440  220.1840 C   0  0  0  0  0  0  0  0  0  0  0  0
  143.2610   76.2120  219.0590 C   0  0  0  0  0  0  0  0  0  0  0  0
  142.0320   76.9390  219.0330 O   0  0  0  0  0  0  0  0  0  0  0  0
  142.0520   78.3140  218.8180 C   0  0  0  0  0  0  0  0  0  0  0  0
  141.8250   79.2000  219.8400 C   0  0  0  0  0  0  0  0  0  0  0  0
  141.8660   80.5410  219.5340 C   0  0  0  0  0  0  0  0  0  0  0  0
  142.1260   80.9940  218.2450 C   0  0  0  0  0  0  0  0  0  0  0  0
  142.1760   82.7090  217.8590 Cl  0  0  0  0  0  0  0  0  0  0  0  0
  142.3550   80.0830  217.2130 C   0  0  0  0  0  0  0  0  0  0  0  0
  142.3150   78.7250  217.5230 C   0  0  0  0  0  0  0  0  0  0  0  0
  142.6040   77.5670  216.2290 Cl  0  0  0  0  0  0  0  0  0  0  0  0
  141.4040   76.5450  221.7300 N   0  0  0  0  0  0  0  0  0  0  0  0
  140.7030   77.2980  222.7260 C   0  0  0  0  0  0  0  0  0  0  0  0
  141.3810   78.5980  223.0260 C   0  0  0  0  0  0  0  0  0  0  0  0
  140.7690   79.5960  223.7790 C   0  0  0  0  0  0  0  0  0  0  0  0
  141.6470   80.6190  223.8590 N   0  0  0  0  0  0  0  0  0  0  0  0
  142.7470   80.2490  223.1790 C   0  0  0  0  0  0  0  0  0  0  0  0
  142.6060   79.0160  222.6610 N   0  0  0  0  0  0  0  0  0  0  0  0
  142.0989   73.4880  220.6526 H   0  0  0  0  0  0  0  0  0  0  0  0
  141.3460   74.5673  219.4156 H   0  0  0  0  0  0  0  0  0  0  0  0
  143.4194   75.7928  221.1127 H   0  0  0  0  0  0  0  0  0  0  0  0
  143.9412   74.4636  219.9441 H   0  0  0  0  0  0  0  0  0  0  0  0
  144.1012   76.9063  219.2074 H   0  0  0  0  0  0  0  0  0  0  0  0
  143.4081   75.6803  218.1074 H   0  0  0  0  0  0  0  0  0  0  0  0
  141.6185   78.8526  220.8631 H   0  0  0  0  0  0  0  0  0  0  0  0
  141.6879   81.2764  220.3324 H   0  0  0  0  0  0  0  0  0  0  0  0
  142.5604   80.4257  216.1881 H   0  0  0  0  0  0  0  0  0  0  0  0
  142.1950   77.0160  221.2020 H   0  0  0  0  0  0  0  0  0  0  0  0
  139.6847   77.5036  222.3644 H   0  0  0  0  0  0  0  0  0  0  0  0
  140.6841   76.7031  223.6511 H   0  0  0  0  0  0  0  0  0  0  0  0
  139.7635   79.5586  224.2235 H   0  0  0  0  0  0  0  0  0  0  0  0
  141.4820   81.5240  224.3630 H   0  0  0  0  0  0  0  0  0  0  0  0
  143.6449   80.8736  223.0619 H   0  0  0  0  0  0  0  0  0  0  0  0
  1  2  2  0
  2  3  1  0
  3  4  1  0
  4  5  1  0
  5  6  1  0
  6  7  1  0
  7  8  2  0
  8  9  1  0
  9 10  2  0
 10 11  1  0
 10 12  1  0
 12 13  2  0
 13 14  1  0
  2 15  1  0
 15 16  1  0
 16 17  1  0
 17 18  2  0
 18 19  1  0
 19 20  1  0
 20 21  2  0
 13  7  1  0
 21 17  1  0
  3 22  1  0
  3 23  1  0
  4 24  1  0
  4 25  1  0
  5 26  1  0
  5 27  1  0
  8 28  1  0
  9 29  1  0
 12 30  1  0
 15 31  1  0
 16 32  1  0
 16 33  1  0
 18 34  1  0
 19 35  1  0
 20 36  1  0
M  END
>  <smiles>  (14) 
O=C(CCCOc1ccc(Cl)cc1Cl)NCc1c[nH]cn1

>  <score_type>  (14) 
oracle

>  <origin>  (14) 
autodockgpu

>  <m_score__min__energy>  (14) 
-6.2800000000000002

>  <m_primary>  (14) 
energy

>  <meeko>  (14) 
{"free_energy": -4.61, "intermolecular_energy": -6.7, "internal_energy": -1.95, "cluster_size": 5, "cluster_id": 7, "rank_in_cluster": 3}

>  <energy>  (14) 
-4.61

>  <cluster_rmsd>  (14) 
0.25

>  <rmsd>  (14) 
272.51

>  <cluster>  (14) 
7

$$$$

     RDKit          3D

 36 37  0  0  0  0  0  0  0  0999 V2000
  138.9460   69.5160  224.0410 O   0  0  0  0  0  0  0  0  0  0  0  0
  138.8840   70.7500  223.8720 C   0  0  0  0  0  0  0  0  0  0  0  0
  137.8180   71.4860  223.1750 C   0  0  0  0  0  0  0  0  0  0  0  0
  138.2610   71.8930  221.8060 C   0  0  0  0  0  0  0  0  0  0  0  0
  138.6380   73.3210  221.6460 C   0  0  0  0  0  0  0  0  0  0  0  0
  139.8600   73.5410  222.3510 O   0  0  0  0  0  0  0  0  0  0  0  0
  141.0720   73.4390  221.6740 C   0  0  0  0  0  0  0  0  0  0  0  0
  141.6890   72.2280  221.4930 C   0  0  0  0  0  0  0  0  0  0  0  0
  142.8840   72.2240  220.8090 C   0  0  0  0  0  0  0  0  0  0  0  0
  143.4530   73.3930  220.3170 C   0  0  0  0  0  0  0  0  0  0  0  0
  144.9810   73.3820  219.4450 Cl  0  0  0  0  0  0  0  0  0  0  0  0
  142.8160   74.6200  220.5080 C   0  0  0  0  0  0  0  0  0  0  0  0
  141.6060   74.6240  221.1990 C   0  0  0  0  0  0  0  0  0  0  0  0
  140.7940   76.1660  221.4440 Cl  0  0  0  0  0  0  0  0  0  0  0  0
  139.9690   71.5240  224.4160 N   0  0  0  0  0  0  0  0  0  0  0  0
  141.0750   70.9430  225.1170 C   0  0  0  0  0  0  0  0  0  0  0  0
  140.6300   70.1490  226.3060 C   0  0  0  0  0  0  0  0  0  0  0  0
  140.7870   68.7680  226.3750 C   0  0  0  0  0  0  0  0  0  0  0  0
  140.2870   68.3770  227.5670 N   0  0  0  0  0  0  0  0  0  0  0  0
  139.8450   69.4830  228.1920 C   0  0  0  0  0  0  0  0  0  0  0  0
  140.0450   70.5790  227.4380 N   0  0  0  0  0  0  0  0  0  0  0  0
  136.9308   70.8413  223.0901 H   0  0  0  0  0  0  0  0  0  0  0  0
  137.5796   72.3916  223.7521 H   0  0  0  0  0  0  0  0  0  0  0  0
  139.1351   71.2812  221.5384 H   0  0  0  0  0  0  0  0  0  0  0  0
  137.3899   71.7391  221.1522 H   0  0  0  0  0  0  0  0  0  0  0  0
  138.7764   73.5524  220.5796 H   0  0  0  0  0  0  0  0  0  0  0  0
  137.8458   73.9705  222.0466 H   0  0  0  0  0  0  0  0  0  0  0  0
  141.2472   71.2973  221.8786 H   0  0  0  0  0  0  0  0  0  0  0  0
  143.4035   71.2680  220.6472 H   0  0  0  0  0  0  0  0  0  0  0  0
  143.2548   75.5534  220.1255 H   0  0  0  0  0  0  0  0  0  0  0  0
  139.9470   72.5770  224.2880 H   0  0  0  0  0  0  0  0  0  0  0  0
  141.6214   70.2792  224.4308 H   0  0  0  0  0  0  0  0  0  0  0  0
  141.7178   71.7606  225.4753 H   0  0  0  0  0  0  0  0  0  0  0  0
  141.2327   68.1195  225.6064 H   0  0  0  0  0  0  0  0  0  0  0  0
  140.2590   67.3900  227.9210 H   0  0  0  0  0  0  0  0  0  0  0  0
  139.3807   69.4903  229.1892 H   0  0  0  0  0  0  0  0  0  0  0  0
  1  2  2  0
  2  3  1  0
  3  4  1  0
  4  5  1  0
  5  6  1  0
  6  7  1  0
  7  8  2  0
  8  9  1  0
  9 10  2  0
 10 11  1  0
 10 12  1  0
 12 13  2  0
 13 14  1  0
  2 15  1  0
 15 16  1  0
 16 17  1  0
 17 18  2  0
 18 19  1  0
 19 20  1  0
 20 21  2  0
 13  7  1  0
 21 17  1  0
  3 22  1  0
  3 23  1  0
  4 24  1  0
  4 25  1  0
  5 26  1  0
  5 27  1  0
  8 28  1  0
  9 29  1  0
 12 30  1  0
 15 31  1  0
 16 32  1  0
 16 33  1  0
 18 34  1  0
 19 35  1  0
 20 36  1  0
M  END
>  <smiles>  (15) 
O=C(CCCOc1ccc(Cl)cc1Cl)NCc1c[nH]cn1

>  <score_type>  (15) 
oracle

>  <origin>  (15) 
autodockgpu

>  <m_score__min__energy>  (15) 
-6.2800000000000002

>  <m_primary>  (15) 
energy

>  <meeko>  (15) 
{"free_energy": -5.25, "intermolecular_energy": -7.33, "internal_energy": -1.62, "cluster_size": 1, "cluster_id": 5, "rank_in_cluster": 1}

>  <energy>  (15) 
-4.12

>  <cluster_rmsd>  (15) 
1.24

>  <rmsd>  (15) 
272.51

>  <cluster>  (15) 
7

$$$$

     RDKit          3D

 36 37  0  0  0  0  0  0  0  0999 V2000
  139.2950   75.1600  222.3620 O   0  0  0  0  0  0  0  0  0  0  0  0
  140.4440   75.2920  221.8960 C   0  0  0  0  0  0  0  0  0  0  0  0
  141.2300   74.2620  221.2000 C   0  0  0  0  0  0  0  0  0  0  0  0
  140.5840   72.9200  221.3330 C   0  0  0  0  0  0  0  0  0  0  0  0
  141.0360   72.0960  222.4840 C   0  0  0  0  0  0  0  0  0  0  0  0
  140.0870   72.2460  223.5400 O   0  0  0  0  0  0  0  0  0  0  0  0
  140.2150   71.4760  224.6920 C   0  0  0  0  0  0  0  0  0  0  0  0
  141.0170   71.8740  225.7310 C   0  0  0  0  0  0  0  0  0  0  0  0
  141.0810   71.0480  226.8310 C   0  0  0  0  0  0  0  0  0  0  0  0
  140.3680   69.8570  226.8990 C   0  0  0  0  0  0  0  0  0  0  0  0
  140.4550   68.8050  228.3060 Cl  0  0  0  0  0  0  0  0  0  0  0  0
  139.5560   69.4620  225.8350 C   0  0  0  0  0  0  0  0  0  0  0  0
  139.4900   70.2980  224.7220 C   0  0  0  0  0  0  0  0  0  0  0  0
  138.4670   69.8090  223.3750 Cl  0  0  0  0  0  0  0  0  0  0  0  0
  141.0550   76.5850  222.0620 N   0  0  0  0  0  0  0  0  0  0  0  0
  140.4090   77.6810  222.7200 C   0  0  0  0  0  0  0  0  0  0  0  0
  141.3480   78.8220  222.9620 C   0  0  0  0  0  0  0  0  0  0  0  0
  141.0350   79.8680  223.8240 C   0  0  0  0  0  0  0  0  0  0  0  0
  142.0890   80.7120  223.8110 N   0  0  0  0  0  0  0  0  0  0  0  0
  143.0020   80.1930  222.9720 C   0  0  0  0  0  0  0  0  0  0  0  0
  142.5690   79.0350  222.4410 N   0  0  0  0  0  0  0  0  0  0  0  0
  141.3026   74.5231  220.1339 H   0  0  0  0  0  0  0  0  0  0  0  0
  142.2315   74.2173  221.6527 H   0  0  0  0  0  0  0  0  0  0  0  0
  139.4999   73.0759  221.4346 H   0  0  0  0  0  0  0  0  0  0  0  0
  140.8728   72.3588  220.4321 H   0  0  0  0  0  0  0  0  0  0  0  0
  141.0960   71.0392  222.1846 H   0  0  0  0  0  0  0  0  0  0  0  0
  142.0314   72.4238  222.8183 H   0  0  0  0  0  0  0  0  0  0  0  0
  141.5858   72.8145  225.6874 H   0  0  0  0  0  0  0  0  0  0  0  0
  141.7153   71.3395  227.6811 H   0  0  0  0  0  0  0  0  0  0  0  0
  138.9867   68.5216  225.8736 H   0  0  0  0  0  0  0  0  0  0  0  0
  142.0340   76.7300  221.6770 H   0  0  0  0  0  0  0  0  0  0  0  0
  139.5775   78.0325  222.0914 H   0  0  0  0  0  0  0  0  0  0  0  0
  140.0471   77.3258  223.6961 H   0  0  0  0  0  0  0  0  0  0  0  0
  140.1078   79.9850  224.4042 H   0  0  0  0  0  0  0  0  0  0  0  0
  142.1610   81.6030  224.3620 H   0  0  0  0  0  0  0  0  0  0  0  0
  143.9753   80.6544  222.7488 H   0  0  0  0  0  0  0  0  0  0  0  0
  1  2  2  0
  2  3  1  0
  3  4  1  0
  4  5  1  0
  5  6  1  0
  6  7  1  0
  7  8  2  0
  8  9  1  0
  9 10  2  0
 10 11  1  0
 10 12  1  0
 12 13  2  0
 13 14  1  0
  2 15  1  0
 15 16  1  0
 16 17  1  0
 17 18  2  0
 18 19  1  0
 19 20  1  0
 20 21  2  0
 13  7  1  0
 21 17  1  0
  3 22  1  0
  3 23  1  0
  4 24  1  0
  4 25  1  0
  5 26  1  0
  5 27  1  0
  8 28  1  0
  9 29  1  0
 12 30  1  0
 15 31  1  0
 16 32  1  0
 16 33  1  0
 18 34  1  0
 19 35  1  0
 20 36  1  0
M  END
>  <smiles>  (16) 
O=C(CCCOc1ccc(Cl)cc1Cl)NCc1c[nH]cn1

>  <score_type>  (16) 
oracle

>  <origin>  (16) 
autodockgpu

>  <m_score__min__energy>  (16) 
-6.2800000000000002

>  <m_primary>  (16) 
energy

>  <meeko>  (16) 
{"free_energy": -6.23, "intermolecular_energy": -8.32, "internal_energy": -0.9, "cluster_size": 6, "cluster_id": 1, "rank_in_cluster": 5}

>  <energy>  (16) 
-4.05

>  <cluster_rmsd>  (16) 
1.22

>  <rmsd>  (16) 
272.48

>  <cluster>  (16) 
7

$$$$

     RDKit          3D

 36 37  0  0  0  0  0  0  0  0999 V2000
  140.3740   74.3120  221.9930 O   0  0  0  0  0  0  0  0  0  0  0  0
  139.6400   75.2950  221.7660 C   0  0  0  0  0  0  0  0  0  0  0  0
  138.2800   75.5090  222.2820 C   0  0  0  0  0  0  0  0  0  0  0  0
  137.5760   76.5700  221.4990 C   0  0  0  0  0  0  0  0  0  0  0  0
  137.5360   77.9170  222.1240 C   0  0  0  0  0  0  0  0  0  0  0  0
  138.4330   78.7670  221.4100 O   0  0  0  0  0  0  0  0  0  0  0  0
  139.5960   79.2140  222.0310 C   0  0  0  0  0  0  0  0  0  0  0  0
  140.1980   78.4880  223.0260 C   0  0  0  0  0  0  0  0  0  0  0  0
  141.3450   79.0080  223.5820 C   0  0  0  0  0  0  0  0  0  0  0  0
  141.8820   80.2200  223.1610 C   0  0  0  0  0  0  0  0  0  0  0  0
  143.3470   80.8800  223.8750 Cl  0  0  0  0  0  0  0  0  0  0  0  0
  141.2600   80.9500  222.1480 C   0  0  0  0  0  0  0  0  0  0  0  0
  140.0990   80.4240  221.5840 C   0  0  0  0  0  0  0  0  0  0  0  0
  139.3070   81.3370  220.3050 Cl  0  0  0  0  0  0  0  0  0  0  0  0
  140.1880   76.3170  220.9120 N   0  0  0  0  0  0  0  0  0  0  0  0
  141.4980   76.2420  220.3370 C   0  0  0  0  0  0  0  0  0  0  0  0
  141.8010   77.4310  219.4790 C   0  0  0  0  0  0  0  0  0  0  0  0
  142.9510   77.5060  218.6990 C   0  0  0  0  0  0  0  0  0  0  0  0
  142.9100   78.6950  218.0580 N   0  0  0  0  0  0  0  0  0  0  0  0
  141.7780   79.3110  218.4400 C   0  0  0  0  0  0  0  0  0  0  0  0
  141.0830   78.5550  219.3090 N   0  0  0  0  0  0  0  0  0  0  0  0
  137.7135   74.5691  222.2062 H   0  0  0  0  0  0  0  0  0  0  0  0
  138.3478   75.8317  223.3314 H   0  0  0  0  0  0  0  0  0  0  0  0
  138.0826   76.6640  220.5271 H   0  0  0  0  0  0  0  0  0  0  0  0
  136.5282   76.2428  221.4283 H   0  0  0  0  0  0  0  0  0  0  0  0
  136.5151   78.3229  222.0688 H   0  0  0  0  0  0  0  0  0  0  0  0
  137.8328   77.8541  223.1813 H   0  0  0  0  0  0  0  0  0  0  0  0
  139.7813   77.5286  223.3664 H   0  0  0  0  0  0  0  0  0  0  0  0
  141.8515   78.4488  224.3824 H   0  0  0  0  0  0  0  0  0  0  0  0
  141.6727   81.9103  221.8052 H   0  0  0  0  0  0  0  0  0  0  0  0
  139.5880   77.1660  220.6990 H   0  0  0  0  0  0  0  0  0  0  0  0
  142.2396   76.1905  221.1478 H   0  0  0  0  0  0  0  0  0  0  0  0
  141.5405   75.3445  219.7024 H   0  0  0  0  0  0  0  0  0  0  0  0
  143.7409   76.7445  218.6196 H   0  0  0  0  0  0  0  0  0  0  0  0
  143.6380   79.0510  217.3920 H   0  0  0  0  0  0  0  0  0  0  0  0
  141.4612   80.3038  218.0879 H   0  0  0  0  0  0  0  0  0  0  0  0
  1  2  2  0
  2  3  1  0
  3  4  1  0
  4  5  1  0
  5  6  1  0
  6  7  1  0
  7  8  2  0
  8  9  1  0
  9 10  2  0
 10 11  1  0
 10 12  1  0
 12 13  2  0
 13 14  1  0
  2 15  1  0
 15 16  1  0
 16 17  1  0
 17 18  2  0
 18 19  1  0
 19 20  1  0
 20 21  2  0
 13  7  1  0
 21 17  1  0
  3 22  1  0
  3 23  1  0
  4 24  1  0
  4 25  1  0
  5 26  1  0
  5 27  1  0
  8 28  1  0
  9 29  1  0
 12 30  1  0
 15 31  1  0
 16 32  1  0
 16 33  1  0
 18 34  1  0
 19 35  1  0
 20 36  1  0
M  END
>  <smiles>  (17) 
O=C(CCCOc1ccc(Cl)cc1Cl)NCc1c[nH]cn1

>  <score_type>  (17) 
oracle

>  <origin>  (17) 
autodockgpu

>  <m_score__min__energy>  (17) 
-6.2800000000000002

>  <m_primary>  (17) 
energy

>  <meeko>  (17) 
{"free_energy": -4.24, "intermolecular_energy": -6.32, "internal_energy": -2.48, "cluster_size": 3, "cluster_id": 9, "rank_in_cluster": 3}

>  <energy>  (17) 
-4.52

>  <cluster_rmsd>  (17) 
0.0

>  <rmsd>  (17) 
272.43

>  <cluster>  (17) 
8

$$$$

     RDKit          3D

 36 37  0  0  0  0  0  0  0  0999 V2000
  133.7370   68.6760  226.4670 O   0  0  0  0  0  0  0  0  0  0  0  0
  134.3230   69.4860  225.7210 C   0  0  0  0  0  0  0  0  0  0  0  0
  135.0810   69.1640  224.5030 C   0  0  0  0  0  0  0  0  0  0  0  0
  136.5490   69.3290  224.7320 C   0  0  0  0  0  0  0  0  0  0  0  0
  137.4310   68.8840  223.6230 C   0  0  0  0  0  0  0  0  0  0  0  0
  138.6840   68.4870  224.1810 O   0  0  0  0  0  0  0  0  0  0  0  0
  139.2500   69.2420  225.2040 C   0  0  0  0  0  0  0  0  0  0  0  0
  139.2750   68.7870  226.4970 C   0  0  0  0  0  0  0  0  0  0  0  0
  139.8570   69.6020  227.4420 C   0  0  0  0  0  0  0  0  0  0  0  0
  140.4010   70.8390  227.1120 C   0  0  0  0  0  0  0  0  0  0  0  0
  141.1420   71.8760  228.3230 Cl  0  0  0  0  0  0  0  0  0  0  0  0
  140.3690   71.2910  225.7920 C   0  0  0  0  0  0  0  0  0  0  0  0
  139.7810   70.4660  224.8360 C   0  0  0  0  0  0  0  0  0  0  0  0
  139.7360   71.0270  223.1680 Cl  0  0  0  0  0  0  0  0  0  0  0  0
  134.2440   70.8730  226.1000 N   0  0  0  0  0  0  0  0  0  0  0  0
  133.5420   71.3320  227.2610 C   0  0  0  0  0  0  0  0  0  0  0  0
  133.0490   72.7370  227.0980 C   0  0  0  0  0  0  0  0  0  0  0  0
  131.8170   73.1510  227.5940 C   0  0  0  0  0  0  0  0  0  0  0  0
  131.6890   74.4580  227.2800 N   0  0  0  0  0  0  0  0  0  0  0  0
  132.8040   74.8170  226.6190 C   0  0  0  0  0  0  0  0  0  0  0  0
  133.6510   73.7780  226.4970 N   0  0  0  0  0  0  0  0  0  0  0  0
  134.8757   68.1223  224.2154 H   0  0  0  0  0  0  0  0  0  0  0  0
  134.7697   69.8509  223.7022 H   0  0  0  0  0  0  0  0  0  0  0  0
  136.7446   70.3966  224.9110 H   0  0  0  0  0  0  0  0  0  0  0  0
  136.7926   68.6797  225.5859 H   0  0  0  0  0  0  0  0  0  0  0  0
  136.9704   68.0333  223.0994 H   0  0  0  0  0  0  0  0  0  0  0  0
  137.5781   69.7024  222.9029 H   0  0  0  0  0  0  0  0  0  0  0  0
  138.8475   67.8105  226.7685 H   0  0  0  0  0  0  0  0  0  0  0  0
  139.8928   69.2650  228.4885 H   0  0  0  0  0  0  0  0  0  0  0  0
  140.7943   72.2671  225.5155 H   0  0  0  0  0  0  0  0  0  0  0  0
  134.7330   71.5880  225.4870 H   0  0  0  0  0  0  0  0  0  0  0  0
  132.6807   70.6716  227.4397 H   0  0  0  0  0  0  0  0  0  0  0  0
  134.2403   71.3127  228.1107 H   0  0  0  0  0  0  0  0  0  0  0  0
  131.0875   72.5326  228.1374 H   0  0  0  0  0  0  0  0  0  0  0  0
  130.8650   75.0630  227.5170 H   0  0  0  0  0  0  0  0  0  0  0  0
  132.9982   75.8271  226.2293 H   0  0  0  0  0  0  0  0  0  0  0  0
  1  2  2  0
  2  3  1  0
  3  4  1  0
  4  5  1  0
  5  6  1  0
  6  7  1  0
  7  8  2  0
  8  9  1  0
  9 10  2  0
 10 11  1  0
 10 12  1  0
 12 13  2  0
 13 14  1  0
  2 15  1  0
 15 16  1  0
 16 17  1  0
 17 18  2  0
 18 19  1  0
 19 20  1  0
 20 21  2  0
 13  7  1  0
 21 17  1  0
  3 22  1  0
  3 23  1  0
  4 24  1  0
  4 25  1  0
  5 26  1  0
  5 27  1  0
  8 28  1  0
  9 29  1  0
 12 30  1  0
 15 31  1  0
 16 32  1  0
 16 33  1  0
 18 34  1  0
 19 35  1  0
 20 36  1  0
M  END
>  <smiles>  (18) 
O=C(CCCOc1ccc(Cl)cc1Cl)NCc1c[nH]cn1

>  <score_type>  (18) 
oracle

>  <origin>  (18) 
autodockgpu

>  <m_score__min__energy>  (18) 
-6.2800000000000002

>  <m_primary>  (18) 
energy

>  <meeko>  (18) 
{"free_energy": -6.19, "intermolecular_energy": -8.28, "internal_energy": -0.75, "cluster_size": 1, "cluster_id": 2, "rank_in_cluster": 1}

>  <energy>  (18) 
-4.31

>  <cluster_rmsd>  (18) 
0.0

>  <rmsd>  (18) 
272.2

>  <cluster>  (18) 
9

$$$$

     RDKit          3D

 36 37  0  0  0  0  0  0  0  0999 V2000
  139.2860   75.1730  222.3510 O   0  0  0  0  0  0  0  0  0  0  0  0
  140.4590   75.2880  221.9410 C   0  0  0  0  0  0  0  0  0  0  0  0
  141.2750   74.2370  221.3150 C   0  0  0  0  0  0  0  0  0  0  0  0
  140.5490   72.9290  221.3190 C   0  0  0  0  0  0  0  0  0  0  0  0
  140.9210   71.9860  222.4050 C   0  0  0  0  0  0  0  0  0  0  0  0
  140.0980   72.2640  223.5390 O   0  0  0  0  0  0  0  0  0  0  0  0
  140.2270   71.4880  224.6880 C   0  0  0  0  0  0  0  0  0  0  0  0
  141.0470   71.8700  225.7180 C   0  0  0  0  0  0  0  0  0  0  0  0
  141.1100   71.0400  226.8140 C   0  0  0  0  0  0  0  0  0  0  0  0
  140.3780   69.8610  226.8880 C   0  0  0  0  0  0  0  0  0  0  0  0
  140.4640   68.8040  228.2910 Cl  0  0  0  0  0  0  0  0  0  0  0  0
  139.5470   69.4830  225.8320 C   0  0  0  0  0  0  0  0  0  0  0  0
  139.4810   70.3230  224.7220 C   0  0  0  0  0  0  0  0  0  0  0  0
  138.4350   69.8560  223.3860 Cl  0  0  0  0  0  0  0  0  0  0  0  0
  141.0660   76.5840  222.1000 N   0  0  0  0  0  0  0  0  0  0  0  0
  140.3920   77.7010  222.6930 C   0  0  0  0  0  0  0  0  0  0  0  0
  141.3280   78.8350  222.9740 C   0  0  0  0  0  0  0  0  0  0  0  0
  140.9790   79.8930  223.8080 C   0  0  0  0  0  0  0  0  0  0  0  0
  142.0410   80.7270  223.8440 N   0  0  0  0  0  0  0  0  0  0  0  0
  142.9920   80.1910  223.0600 C   0  0  0  0  0  0  0  0  0  0  0  0
  142.5770   79.0320  222.5180 N   0  0  0  0  0  0  0  0  0  0  0  0
  141.4971   74.5232  220.2764 H   0  0  0  0  0  0  0  0  0  0  0  0
  142.2070   74.1252  221.8885 H   0  0  0  0  0  0  0  0  0  0  0  0
  139.4733   73.1404  221.4095 H   0  0  0  0  0  0  0  0  0  0  0  0
  140.8295   72.4289  220.3802 H   0  0  0  0  0  0  0  0  0  0  0  0
  140.7577   70.9506  222.0713 H   0  0  0  0  0  0  0  0  0  0  0  0
  141.9824   72.1078  222.6669 H   0  0  0  0  0  0  0  0  0  0  0  0
  141.6304   72.8013  225.6705 H   0  0  0  0  0  0  0  0  0  0  0  0
  141.7595   71.3183  227.6570 H   0  0  0  0  0  0  0  0  0  0  0  0
  138.9629   68.5519  225.8747 H   0  0  0  0  0  0  0  0  0  0  0  0
  142.0640   76.7150  221.7630 H   0  0  0  0  0  0  0  0  0  0  0  0
  139.6083   78.0495  222.0043 H   0  0  0  0  0  0  0  0  0  0  0  0
  139.9619   77.3699  223.6498 H   0  0  0  0  0  0  0  0  0  0  0  0
  140.0230   80.0247  224.3359 H   0  0  0  0  0  0  0  0  0  0  0  0
  142.0920   81.6230  224.3890 H   0  0  0  0  0  0  0  0  0  0  0  0
  143.9802   80.6411  222.8846 H   0  0  0  0  0  0  0  0  0  0  0  0
  1  2  2  0
  2  3  1  0
  3  4  1  0
  4  5  1  0
  5  6  1  0
  6  7  1  0
  7  8  2  0
  8  9  1  0
  9 10  2  0
 10 11  1  0
 10 12  1  0
 12 13  2  0
 13 14  1  0
  2 15  1  0
 15 16  1  0
 16 17  1  0
 17 18  2  0
 18 19  1  0
 19 20  1  0
 20 21  2  0
 13  7  1  0
 21 17  1  0
  3 22  1  0
  3 23  1  0
  4 24  1  0
  4 25  1  0
  5 26  1  0
  5 27  1  0
  8 28  1  0
  9 29  1  0
 12 30  1  0
 15 31  1  0
 16 32  1  0
 16 33  1  0
 18 34  1  0
 19 35  1  0
 20 36  1  0
M  END
>  <smiles>  (19) 
O=C(CCCOc1ccc(Cl)cc1Cl)NCc1c[nH]cn1

>  <score_type>  (19) 
oracle

>  <origin>  (19) 
autodockgpu

>  <m_score__min__energy>  (19) 
-6.2800000000000002

>  <m_primary>  (19) 
energy

>  <meeko>  (19) 
{"free_energy": -6.27, "intermolecular_energy": -8.36, "internal_energy": -0.89, "cluster_size": 6, "cluster_id": 1, "rank_in_cluster": 4}

>  <energy>  (19) 
-4.24

>  <cluster_rmsd>  (19) 
0.73

>  <rmsd>  (19) 
272.11

>  <cluster>  (19) 
9

$$$$

     RDKit          3D

 36 37  0  0  0  0  0  0  0  0999 V2000
  139.9540   74.8080  222.0230 O   0  0  0  0  0  0  0  0  0  0  0  0
  140.9420   75.2470  221.4010 C   0  0  0  0  0  0  0  0  0  0  0  0
  141.7170   74.5350  220.3740 C   0  0  0  0  0  0  0  0  0  0  0  0
  143.1380   75.0000  220.3650 C   0  0  0  0  0  0  0  0  0  0  0  0
  143.4470   76.1220  219.4420 C   0  0  0  0  0  0  0  0  0  0  0  0
  142.2170   76.7430  219.0690 O   0  0  0  0  0  0  0  0  0  0  0  0
  142.1880   78.1120  218.8180 C   0  0  0  0  0  0  0  0  0  0  0  0
  141.8180   79.0070  219.7890 C   0  0  0  0  0  0  0  0  0  0  0  0
  141.8200   80.3420  219.4510 C   0  0  0  0  0  0  0  0  0  0  0  0
  142.1790   80.7780  218.1800 C   0  0  0  0  0  0  0  0  0  0  0  0
  142.1790   82.4840  217.7540 Cl  0  0  0  0  0  0  0  0  0  0  0  0
  142.5520   79.8570  217.2010 C   0  0  0  0  0  0  0  0  0  0  0  0
  142.5520   78.5070  217.5430 C   0  0  0  0  0  0  0  0  0  0  0  0
  143.0210   77.3370  216.3140 Cl  0  0  0  0  0  0  0  0  0  0  0  0
  141.3560   76.5870  221.7280 N   0  0  0  0  0  0  0  0  0  0  0  0
  140.6970   77.3970  222.7080 C   0  0  0  0  0  0  0  0  0  0  0  0
  141.4490   78.6620  222.9860 C   0  0  0  0  0  0  0  0  0  0  0  0
  140.9020   79.6970  223.7390 C   0  0  0  0  0  0  0  0  0  0  0  0
  141.8360   80.6720  223.7970 N   0  0  0  0  0  0  0  0  0  0  0  0
  142.9030   80.2380  223.1040 C   0  0  0  0  0  0  0  0  0  0  0  0
  142.6880   79.0100  222.5990 N   0  0  0  0  0  0  0  0  0  0  0  0
  141.6918   73.4560  220.5864 H   0  0  0  0  0  0  0  0  0  0  0  0
  141.2718   74.7415  219.3895 H   0  0  0  0  0  0  0  0  0  0  0  0
  143.3937   75.3225  221.3851 H   0  0  0  0  0  0  0  0  0  0  0  0
  143.7288   74.1455  220.0035 H   0  0  0  0  0  0  0  0  0  0  0  0
  144.0950   76.8529  219.9479 H   0  0  0  0  0  0  0  0  0  0  0  0
  143.9700   75.7475  218.5497 H   0  0  0  0  0  0  0  0  0  0  0  0
  141.5313   78.6721  220.7968 H   0  0  0  0  0  0  0  0  0  0  0  0
  141.5293   81.0851  220.2082 H   0  0  0  0  0  0  0  0  0  0  0  0
  142.8371   80.1866  216.1910 H   0  0  0  0  0  0  0  0  0  0  0  0
  142.1950   76.9900  221.2170 H   0  0  0  0  0  0  0  0  0  0  0  0
  139.6929   77.6541  222.3396 H   0  0  0  0  0  0  0  0  0  0  0  0
  140.6415   76.8214  223.6437 H   0  0  0  0  0  0  0  0  0  0  0  0
  139.9026   79.7174  224.1981 H   0  0  0  0  0  0  0  0  0  0  0  0
  141.7270   81.5880  224.2950 H   0  0  0  0  0  0  0  0  0  0  0  0
  143.8312   80.8124  222.9677 H   0  0  0  0  0  0  0  0  0  0  0  0
  1  2  2  0
  2  3  1  0
  3  4  1  0
  4  5  1  0
  5  6  1  0
  6  7  1  0
  7  8  2  0
  8  9  1  0
  9 10  2  0
 10 11  1  0
 10 12  1  0
 12 13  2  0
 13 14  1  0
  2 15  1  0
 15 16  1  0
 16 17  1  0
 17 18  2  0
 18 19  1  0
 19 20  1  0
 20 21  2  0
 13  7  1  0
 21 17  1  0
  3 22  1  0
  3 23  1  0
  4 24  1  0
  4 25  1  0
  5 26  1  0
  5 27  1  0
  8 28  1  0
  9 29  1  0
 12 30  1  0
 15 31  1  0
 16 32  1  0
 16 33  1  0
 18 34  1  0
 19 35  1  0
 20 36  1  0
M  END
>  <smiles>  (20) 
O=C(CCCOc1ccc(Cl)cc1Cl)NCc1c[nH]cn1

>  <score_type>  (20) 
oracle

>  <origin>  (20) 
autodockgpu

>  <m_score__min__energy>  (20) 
-6.2800000000000002

>  <m_primary>  (20) 
energy

>  <meeko>  (20) 
{"free_energy": -4.64, "intermolecular_energy": -6.72, "internal_energy": -2.01, "cluster_size": 5, "cluster_id": 7, "rank_in_cluster": 1}

>  <energy>  (20) 
-4.24

>  <cluster_rmsd>  (20) 
0.18

>  <rmsd>  (20) 
272.18

>  <cluster>  (20) 
9

$$$$
