
     RDKit          3D

 41 44  0  0  1  0  0  0  0  0999 V2000
  141.0610   76.9350  223.1010 O   0  0  0  0  0  0  0  0  0  0  0  0
  140.6780   76.5710  221.6700 S   0  0  0  0  0  0  0  0  0  0  0  0
  140.6200   75.0470  221.6910 O   0  0  0  0  0  0  0  0  0  0  0  0
  139.0890   77.2020  221.3710 C   0  0  0  0  0  0  0  0  0  0  0  0
  138.8810   78.4470  222.0930 C   0  0  0  0  0  0  0  0  0  0  0  0
  139.1530   78.7750  223.3620 C   0  0  0  0  0  0  0  0  0  0  0  0
  138.8740   80.0030  223.8310 C   0  0  0  0  0  0  0  0  0  0  0  0
  138.2970   80.8890  222.9300 C   0  0  0  0  0  0  0  0  0  0  0  0
  138.1490   79.9390  221.3650 S   0  0  0  0  0  0  0  0  0  0  0  0
  141.9300   77.0620  220.6690 N   0  0  0  0  0  0  0  0  0  0  0  0
  142.6890   76.0910  219.9860 C   0  0  0  0  0  0  0  0  0  0  0  0
  142.9340   76.5510  218.5620 C   0  0  0  0  0  0  0  0  0  0  0  0
  142.4420   77.9710  218.5500 C   0  0  0  0  0  0  0  0  0  0  0  0
  141.5280   78.0830  219.7500 C   0  0  2  0  0  0  0  0  0  0  0  0
  141.4360   79.4320  220.3130 C   0  0  0  0  0  0  0  0  0  0  0  0
  140.9080   80.5350  219.6460 C   0  0  0  0  0  0  0  0  0  0  0  0
  140.9640   81.6220  220.4230 N   0  0  0  0  0  0  0  0  0  0  0  0
  141.5260   81.2480  221.6040 C   0  0  0  0  0  0  0  0  0  0  0  0
  141.8050   81.9810  222.7310 C   0  0  0  0  0  0  0  0  0  0  0  0
  142.3940   81.3490  223.8250 C   0  0  0  0  0  0  0  0  0  0  0  0
  142.6980   79.9860  223.7830 C   0  0  0  0  0  0  0  0  0  0  0  0
  142.4060   79.2670  222.6310 C   0  0  0  0  0  0  0  0  0  0  0  0
  141.8240   79.8980  221.5530 C   0  0  0  0  0  0  0  0  0  0  0  0
  138.9718   77.3869  220.2930 H   0  0  0  0  0  0  0  0  0  0  0  0
  138.3478   76.4667  221.7174 H   0  0  0  0  0  0  0  0  0  0  0  0
  139.6107   78.0299  224.0293 H   0  0  0  0  0  0  0  0  0  0  0  0
  139.0904   80.2906  224.8704 H   0  0  0  0  0  0  0  0  0  0  0  0
  137.9951   81.9307  223.1135 H   0  0  0  0  0  0  0  0  0  0  0  0
  143.6529   75.9525  220.4976 H   0  0  0  0  0  0  0  0  0  0  0  0
  142.1399   75.1379  219.9742 H   0  0  0  0  0  0  0  0  0  0  0  0
  144.0050   76.5060  218.3152 H   0  0  0  0  0  0  0  0  0  0  0  0
  142.4245   75.9197  217.8191 H   0  0  0  0  0  0  0  0  0  0  0  0
  143.2847   78.6722  218.6400 H   0  0  0  0  0  0  0  0  0  0  0  0
  141.9226   78.2187  217.6125 H   0  0  0  0  0  0  0  0  0  0  0  0
  140.4824   77.9131  219.4536 H   0  0  0  0  0  0  0  0  0  0  0  0
  140.5021   80.5148  218.6238 H   0  0  0  0  0  0  0  0  0  0  0  0
  140.6370   82.5800  220.1740 H   0  0  0  0  0  0  0  0  0  0  0  0
  141.5666   83.0541  222.7701 H   0  0  0  0  0  0  0  0  0  0  0  0
  142.6219   81.9296  224.7310 H   0  0  0  0  0  0  0  0  0  0  0  0
  143.1613   79.4900  224.6487 H   0  0  0  0  0  0  0  0  0  0  0  0
  142.6395   78.1933  222.5792 H   0  0  0  0  0  0  0  0  0  0  0  0
  1  2  2  0
  2  3  2  0
  2  4  1  0
  4  5  1  0
  5  6  2  0
  6  7  1  0
  7  8  2  0
  8  9  1  0
  2 10  1  0
 10 11  1  0
 11 12  1  0
 12 13  1  0
 13 14  1  0
 14 15  1  0
 15 16  2  0
 16 17  1  0
 17 18  1  0
 18 19  2  0
 19 20  1  0
 20 21  2  0
 21 22  1  0
 22 23  2  0
  9  5  1  0
 14 10  1  0
 23 15  1  0
 23 18  1  0
  4 24  1  0
  4 25  1  0
  6 26  1  0
  7 27  1  0
  8 28  1  0
 11 29  1  0
 11 30  1  0
 12 31  1  0
 12 32  1  0
 13 33  1  0
 13 34  1  0
 14 35  1  6
 16 36  1  0
 17 37  1  0
 19 38  1  0
 20 39  1  0
 21 40  1  0
 22 41  1  0
M  END
>  <smiles>  (1) 
O=S(=O)(Cc1cccs1)N1CCCC1c1c[nH]c2ccccc12

>  <score_type>  (1) 
oracle

>  <origin>  (1) 
autodockgpu

>  <m_score__min__energy>  (1) 
-7.3799999999999999

>  <m_primary>  (1) 
energy

>  <meeko>  (1) 
{"free_energy": -6.18, "intermolecular_energy": -7.38, "internal_energy": -1.96, "cluster_size": 7, "cluster_id": 5, "rank_in_cluster": 4}

>  <energy>  (1) 
-7.38

>  <cluster_rmsd>  (1) 
0.0

>  <rmsd>  (1) 
272.26

>  <cluster>  (1) 
1

$$$$

     RDKit          3D

 41 44  0  0  1  0  0  0  0  0999 V2000
  140.8870   70.7700  223.8270 O   0  0  0  0  0  0  0  0  0  0  0  0
  139.6690   71.2290  223.0330 S   0  0  0  0  0  0  0  0  0  0  0  0
  139.9140   72.7190  222.8270 O   0  0  0  0  0  0  0  0  0  0  0  0
  139.7060   70.4230  221.4960 C   0  0  0  0  0  0  0  0  0  0  0  0
  138.9360   69.1890  221.5370 C   0  0  0  0  0  0  0  0  0  0  0  0
  139.2810   67.9600  221.9400 C   0  0  0  0  0  0  0  0  0  0  0  0
  138.3990   66.9470  221.8930 C   0  0  0  0  0  0  0  0  0  0  0  0
  137.1340   67.2550  221.4070 C   0  0  0  0  0  0  0  0  0  0  0  0
  137.2070   69.0470  221.0070 S   0  0  0  0  0  0  0  0  0  0  0  0
  138.3200   71.0200  224.0060 N   0  0  0  0  0  0  0  0  0  0  0  0
  137.0880   71.5750  223.6070 C   0  0  0  0  0  0  0  0  0  0  0  0
  135.9770   70.5770  223.8650 C   0  0  0  0  0  0  0  0  0  0  0  0
  136.6440   69.4860  224.6530 C   0  0  0  0  0  0  0  0  0  0  0  0
  138.1240   69.6540  224.3860 C   0  0  2  0  0  0  0  0  0  0  0  0
  138.9900   69.1730  225.4650 C   0  0  0  0  0  0  0  0  0  0  0  0
  139.1860   67.8320  225.7860 C   0  0  0  0  0  0  0  0  0  0  0  0
  140.0300   67.7160  226.8170 N   0  0  0  0  0  0  0  0  0  0  0  0
  140.3970   68.9730  227.1830 C   0  0  0  0  0  0  0  0  0  0  0  0
  141.2400   69.4020  228.1790 C   0  0  0  0  0  0  0  0  0  0  0  0
  141.4510   70.7690  228.3500 C   0  0  0  0  0  0  0  0  0  0  0  0
  140.8150   71.6980  227.5220 C   0  0  0  0  0  0  0  0  0  0  0  0
  139.9670   71.2390  226.5220 C   0  0  0  0  0  0  0  0  0  0  0  0
  139.7630   69.8860  226.3590 C   0  0  0  0  0  0  0  0  0  0  0  0
  139.2797   71.0880  220.7305 H   0  0  0  0  0  0  0  0  0  0  0  0
  140.7504   70.1771  221.2536 H   0  0  0  0  0  0  0  0  0  0  0  0
  140.2990   67.7769  222.3143 H   0  0  0  0  0  0  0  0  0  0  0  0
  138.6636   65.9309  222.2209 H   0  0  0  0  0  0  0  0  0  0  0  0
  136.2773   66.5754  221.2879 H   0  0  0  0  0  0  0  0  0  0  0  0
  136.8965   72.4935  224.1812 H   0  0  0  0  0  0  0  0  0  0  0  0
  137.1240   71.8142  222.5339 H   0  0  0  0  0  0  0  0  0  0  0  0
  135.1645   71.0380  224.4458 H   0  0  0  0  0  0  0  0  0  0  0  0
  135.5159   70.2077  222.9371 H   0  0  0  0  0  0  0  0  0  0  0  0
  136.4301   69.5988  225.7261 H   0  0  0  0  0  0  0  0  0  0  0  0
  136.2836   68.4884  224.3617 H   0  0  0  0  0  0  0  0  0  0  0  0
  138.4420   68.9986  223.5618 H   0  0  0  0  0  0  0  0  0  0  0  0
  138.7130   66.9868  225.2646 H   0  0  0  0  0  0  0  0  0  0  0  0
  140.3500   66.8280  227.2590 H   0  0  0  0  0  0  0  0  0  0  0  0
  141.7427   68.6752  228.8340 H   0  0  0  0  0  0  0  0  0  0  0  0
  142.1252   71.1204  229.1450 H   0  0  0  0  0  0  0  0  0  0  0  0
  140.9833   72.7762  227.6600 H   0  0  0  0  0  0  0  0  0  0  0  0
  139.4584   71.9556  225.8603 H   0  0  0  0  0  0  0  0  0  0  0  0
  1  2  2  0
  2  3  2  0
  2  4  1  0
  4  5  1  0
  5  6  2  0
  6  7  1  0
  7  8  2  0
  8  9  1  0
  2 10  1  0
 10 11  1  0
 11 12  1  0
 12 13  1  0
 13 14  1  0
 14 15  1  0
 15 16  2  0
 16 17  1  0
 17 18  1  0
 18 19  2  0
 19 20  1  0
 20 21  2  0
 21 22  1  0
 22 23  2  0
  9  5  1  0
 14 10  1  0
 23 15  1  0
 23 18  1  0
  4 24  1  0
  4 25  1  0
  6 26  1  0
  7 27  1  0
  8 28  1  0
 11 29  1  0
 11 30  1  0
 12 31  1  0
 12 32  1  0
 13 33  1  0
 13 34  1  0
 14 35  1  6
 16 36  1  0
 17 37  1  0
 19 38  1  0
 20 39  1  0
 21 40  1  0
 22 41  1  0
M  END
>  <smiles>  (2) 
O=S(=O)(Cc1cccs1)N1CCCC1c1c[nH]c2ccccc12

>  <score_type>  (2) 
oracle

>  <origin>  (2) 
autodockgpu

>  <m_score__min__energy>  (2) 
-7.3799999999999999

>  <m_primary>  (2) 
energy

>  <meeko>  (2) 
{"free_energy": -6.61, "intermolecular_energy": -7.8, "internal_energy": -1.71, "cluster_size": 4, "cluster_id": 2, "rank_in_cluster": 4}

>  <energy>  (2) 
-6.93

>  <cluster_rmsd>  (2) 
0.0

>  <rmsd>  (2) 
272.66

>  <cluster>  (2) 
2

$$$$

     RDKit          3D

 41 44  0  0  1  0  0  0  0  0999 V2000
  140.9580   76.8790  223.0940 O   0  0  0  0  0  0  0  0  0  0  0  0
  140.6040   76.5560  221.6460 S   0  0  0  0  0  0  0  0  0  0  0  0
  140.4790   75.0370  221.6370 O   0  0  0  0  0  0  0  0  0  0  0  0
  139.0540   77.2610  221.3120 C   0  0  0  0  0  0  0  0  0  0  0  0
  138.8620   78.4830  222.0790 C   0  0  0  0  0  0  0  0  0  0  0  0
  139.0770   78.7410  223.3750 C   0  0  0  0  0  0  0  0  0  0  0  0
  138.8290   79.9590  223.8850 C   0  0  0  0  0  0  0  0  0  0  0  0
  138.3450   80.9110  222.9960 C   0  0  0  0  0  0  0  0  0  0  0  0
  138.2420   80.0380  221.3820 S   0  0  0  0  0  0  0  0  0  0  0  0
  141.9050   77.0090  220.6920 N   0  0  0  0  0  0  0  0  0  0  0  0
  142.6640   76.0150  220.0420 C   0  0  0  0  0  0  0  0  0  0  0  0
  142.9750   76.4620  218.6280 C   0  0  0  0  0  0  0  0  0  0  0  0
  142.5230   77.8940  218.5910 C   0  0  0  0  0  0  0  0  0  0  0  0
  141.5660   78.0360  219.7550 C   0  0  2  0  0  0  0  0  0  0  0  0
  141.4890   79.3900  220.3090 C   0  0  0  0  0  0  0  0  0  0  0  0
  141.0260   80.5050  219.6150 C   0  0  0  0  0  0  0  0  0  0  0  0
  141.0780   81.5940  220.3900 N   0  0  0  0  0  0  0  0  0  0  0  0
  141.5730   81.2080  221.5970 C   0  0  0  0  0  0  0  0  0  0  0  0
  141.8220   81.9370  222.7330 C   0  0  0  0  0  0  0  0  0  0  0  0
  142.3390   81.2930  223.8560 C   0  0  0  0  0  0  0  0  0  0  0  0
  142.6040   79.9210  223.8320 C   0  0  0  0  0  0  0  0  0  0  0  0
  142.3440   79.2060  222.6700 C   0  0  0  0  0  0  0  0  0  0  0  0
  141.8320   79.8490  221.5640 C   0  0  0  0  0  0  0  0  0  0  0  0
  138.9888   77.4953  220.2392 H   0  0  0  0  0  0  0  0  0  0  0  0
  138.2723   76.5414  221.5968 H   0  0  0  0  0  0  0  0  0  0  0  0
  139.4615   77.9458  224.0305 H   0  0  0  0  0  0  0  0  0  0  0  0
  138.9996   80.1897  224.9469 H   0  0  0  0  0  0  0  0  0  0  0  0
  138.0815   81.9571  223.2110 H   0  0  0  0  0  0  0  0  0  0  0  0
  143.6036   75.8536  220.5907 H   0  0  0  0  0  0  0  0  0  0  0  0
  142.0911   75.0764  220.0126 H   0  0  0  0  0  0  0  0  0  0  0  0
  144.0530   76.3870  218.4226 H   0  0  0  0  0  0  0  0  0  0  0  0
  142.4766   75.8413  217.8688 H   0  0  0  0  0  0  0  0  0  0  0  0
  143.3803   78.5727  218.7110 H   0  0  0  0  0  0  0  0  0  0  0  0
  142.0476   78.1513  217.6330 H   0  0  0  0  0  0  0  0  0  0  0  0
  140.5282   77.8928  219.4196 H   0  0  0  0  0  0  0  0  0  0  0  0
  140.6677   80.4920  218.5751 H   0  0  0  0  0  0  0  0  0  0  0  0
  140.7930   82.5590  220.1220 H   0  0  0  0  0  0  0  0  0  0  0  0
  141.6159   83.0173  222.7570 H   0  0  0  0  0  0  0  0  0  0  0  0
  142.5404   81.8705  224.7703 H   0  0  0  0  0  0  0  0  0  0  0  0
  143.0121   79.4153  224.7195 H   0  0  0  0  0  0  0  0  0  0  0  0
  142.5470   78.1255  222.6326 H   0  0  0  0  0  0  0  0  0  0  0  0
  1  2  2  0
  2  3  2  0
  2  4  1  0
  4  5  1  0
  5  6  2  0
  6  7  1  0
  7  8  2  0
  8  9  1  0
  2 10  1  0
 10 11  1  0
 11 12  1  0
 12 13  1  0
 13 14  1  0
 14 15  1  0
 15 16  2  0
 16 17  1  0
 17 18  1  0
 18 19  2  0
 19 20  1  0
 20 21  2  0
 21 22  1  0
 22 23  2  0
  9  5  1  0
 14 10  1  0
 23 15  1  0
 23 18  1  0
  4 24  1  0
  4 25  1  0
  6 26  1  0
  7 27  1  0
  8 28  1  0
 11 29  1  0
 11 30  1  0
 12 31  1  0
 12 32  1  0
 13 33  1  0
 13 34  1  0
 14 35  1  6
 16 36  1  0
 17 37  1  0
 19 38  1  0
 20 39  1  0
 21 40  1  0
 22 41  1  0
M  END
>  <smiles>  (3) 
O=S(=O)(Cc1cccs1)N1CCCC1c1c[nH]c2ccccc12

>  <score_type>  (3) 
oracle

>  <origin>  (3) 
autodockgpu

>  <m_score__min__energy>  (3) 
-7.3799999999999999

>  <m_primary>  (3) 
energy

>  <meeko>  (3) 
{"free_energy": -6.18, "intermolecular_energy": -7.37, "internal_energy": -1.97, "cluster_size": 7, "cluster_id": 5, "rank_in_cluster": 6}

>  <energy>  (3) 
-6.76

>  <cluster_rmsd>  (3) 
1.93

>  <rmsd>  (3) 
272.18

>  <cluster>  (3) 
2

$$$$

     RDKit          3D

 41 44  0  0  1  0  0  0  0  0999 V2000
  141.8750   78.8100  224.4710 O   0  0  0  0  0  0  0  0  0  0  0  0
  141.3620   79.8650  223.4960 S   0  0  0  0  0  0  0  0  0  0  0  0
  141.6180   81.1800  224.2230 O   0  0  0  0  0  0  0  0  0  0  0  0
  142.3520   79.7930  222.0720 C   0  0  0  0  0  0  0  0  0  0  0  0
  141.8900   80.7410  221.0700 C   0  0  0  0  0  0  0  0  0  0  0  0
  141.4350   81.9940  221.1990 C   0  0  0  0  0  0  0  0  0  0  0  0
  141.0540   82.7030  220.1230 C   0  0  0  0  0  0  0  0  0  0  0  0
  141.1620   82.0620  218.8950 C   0  0  0  0  0  0  0  0  0  0  0  0
  141.8290   80.3960  219.2910 S   0  0  0  0  0  0  0  0  0  0  0  0
  139.7100   79.6400  223.3270 N   0  0  0  0  0  0  0  0  0  0  0  0
  138.8390   80.7250  223.5490 C   0  0  0  0  0  0  0  0  0  0  0  0
  137.7620   80.7360  222.4820 C   0  0  0  0  0  0  0  0  0  0  0  0
  137.9560   79.4350  221.7570 C   0  0  0  0  0  0  0  0  0  0  0  0
  139.3670   79.0020  222.0910 C   0  0  2  0  0  0  0  0  0  0  0  0
  139.5780   77.5530  222.0550 C   0  0  0  0  0  0  0  0  0  0  0  0
  138.7770   76.6190  222.7070 C   0  0  0  0  0  0  0  0  0  0  0  0
  139.2260   75.3800  222.4820 N   0  0  0  0  0  0  0  0  0  0  0  0
  140.3210   75.4840  221.6820 C   0  0  0  0  0  0  0  0  0  0  0  0
  141.1440   74.5140  221.1650 C   0  0  0  0  0  0  0  0  0  0  0  0
  142.2170   74.8910  220.3590 C   0  0  0  0  0  0  0  0  0  0  0  0
  142.4590   76.2380  220.0780 C   0  0  0  0  0  0  0  0  0  0  0  0
  141.6120   77.2000  220.6130 C   0  0  0  0  0  0  0  0  0  0  0  0
  140.5530   76.8200  221.4080 C   0  0  0  0  0  0  0  0  0  0  0  0
  143.3907   80.0331  222.3430 H   0  0  0  0  0  0  0  0  0  0  0  0
  142.2893   78.7786  221.6513 H   0  0  0  0  0  0  0  0  0  0  0  0
  141.3724   82.4486  222.1987 H   0  0  0  0  0  0  0  0  0  0  0  0
  140.6777   83.7330  220.2095 H   0  0  0  0  0  0  0  0  0  0  0  0
  140.9048   82.4635  217.9037 H   0  0  0  0  0  0  0  0  0  0  0  0
  138.3723   80.6235  224.5399 H   0  0  0  0  0  0  0  0  0  0  0  0
  139.4073   81.6658  223.5056 H   0  0  0  0  0  0  0  0  0  0  0  0
  136.7616   80.7849  222.9367 H   0  0  0  0  0  0  0  0  0  0  0  0
  137.8355   81.6076  221.8150 H   0  0  0  0  0  0  0  0  0  0  0  0
  137.2297   78.6864  222.1066 H   0  0  0  0  0  0  0  0  0  0  0  0
  137.8042   79.5416  220.6728 H   0  0  0  0  0  0  0  0  0  0  0  0
  140.0647   79.3296  221.3062 H   0  0  0  0  0  0  0  0  0  0  0  0
  137.8983   76.8659  223.3209 H   0  0  0  0  0  0  0  0  0  0  0  0
  138.8150   74.4950  222.8490 H   0  0  0  0  0  0  0  0  0  0  0  0
  140.9588   73.4521  221.3842 H   0  0  0  0  0  0  0  0  0  0  0  0
  142.8801   74.1199  219.9398 H   0  0  0  0  0  0  0  0  0  0  0  0
  143.3074   76.5322  219.4427 H   0  0  0  0  0  0  0  0  0  0  0  0
  141.7868   78.2653  220.4019 H   0  0  0  0  0  0  0  0  0  0  0  0
  1  2  2  0
  2  3  2  0
  2  4  1  0
  4  5  1  0
  5  6  2  0
  6  7  1  0
  7  8  2  0
  8  9  1  0
  2 10  1  0
 10 11  1  0
 11 12  1  0
 12 13  1  0
 13 14  1  0
 14 15  1  0
 15 16  2  0
 16 17  1  0
 17 18  1  0
 18 19  2  0
 19 20  1  0
 20 21  2  0
 21 22  1  0
 22 23  2  0
  9  5  1  0
 14 10  1  0
 23 15  1  0
 23 18  1  0
  4 24  1  0
  4 25  1  0
  6 26  1  0
  7 27  1  0
  8 28  1  0
 11 29  1  0
 11 30  1  0
 12 31  1  0
 12 32  1  0
 13 33  1  0
 13 34  1  0
 14 35  1  6
 16 36  1  0
 17 37  1  0
 19 38  1  0
 20 39  1  0
 21 40  1  0
 22 41  1  0
M  END
>  <smiles>  (4) 
O=S(=O)(Cc1cccs1)N1CCCC1c1c[nH]c2ccccc12

>  <score_type>  (4) 
oracle

>  <origin>  (4) 
autodockgpu

>  <m_score__min__energy>  (4) 
-7.3799999999999999

>  <m_primary>  (4) 
energy

>  <meeko>  (4) 
{"free_energy": -6.34, "intermolecular_energy": -7.53, "internal_energy": -1.77, "cluster_size": 7, "cluster_id": 4, "rank_in_cluster": 7}

>  <energy>  (4) 
-6.74

>  <cluster_rmsd>  (4) 
1.95

>  <rmsd>  (4) 
272.17

>  <cluster>  (4) 
2

$$$$

     RDKit          3D

 41 44  0  0  1  0  0  0  0  0999 V2000
  140.9820   71.0700  223.8770 O   0  0  0  0  0  0  0  0  0  0  0  0
  139.7830   71.4120  222.9990 S   0  0  0  0  0  0  0  0  0  0  0  0
  139.9550   72.9010  222.7210 O   0  0  0  0  0  0  0  0  0  0  0  0
  139.9460   70.5270  221.5150 C   0  0  0  0  0  0  0  0  0  0  0  0
  138.9290   69.4920  221.4120 C   0  0  0  0  0  0  0  0  0  0  0  0
  137.6770   69.5440  220.9390 C   0  0  0  0  0  0  0  0  0  0  0  0
  136.8960   68.4500  220.9390 C   0  0  0  0  0  0  0  0  0  0  0  0
  137.4620   67.2900  221.4510 C   0  0  0  0  0  0  0  0  0  0  0  0
  139.1630   67.7750  221.9480 S   0  0  0  0  0  0  0  0  0  0  0  0
  138.3990   71.1770  223.9160 N   0  0  0  0  0  0  0  0  0  0  0  0
  137.1760   71.7170  223.4700 C   0  0  0  0  0  0  0  0  0  0  0  0
  136.0710   70.7010  223.6760 C   0  0  0  0  0  0  0  0  0  0  0  0
  136.7210   69.6150  224.4850 C   0  0  0  0  0  0  0  0  0  0  0  0
  138.2080   69.8060  224.2790 C   0  0  2  0  0  0  0  0  0  0  0  0
  139.0360   69.3300  225.3900 C   0  0  0  0  0  0  0  0  0  0  0  0
  139.2170   67.9910  225.7270 C   0  0  0  0  0  0  0  0  0  0  0  0
  140.0260   67.8800  226.7860 N   0  0  0  0  0  0  0  0  0  0  0  0
  140.3860   69.1400  227.1550 C   0  0  0  0  0  0  0  0  0  0  0  0
  141.1970   69.5730  228.1740 C   0  0  0  0  0  0  0  0  0  0  0  0
  141.4060   70.9410  228.3420 C   0  0  0  0  0  0  0  0  0  0  0  0
  140.8010   71.8660  227.4860 C   0  0  0  0  0  0  0  0  0  0  0  0
  139.9850   71.4010  226.4630 C   0  0  0  0  0  0  0  0  0  0  0  0
  139.7820   70.0480  226.3030 C   0  0  0  0  0  0  0  0  0  0  0  0
  139.8400   71.2213  220.6684 H   0  0  0  0  0  0  0  0  0  0  0  0
  140.9364   70.0486  221.4987 H   0  0  0  0  0  0  0  0  0  0  0  0
  137.2833   70.4930  220.5460 H   0  0  0  0  0  0  0  0  0  0  0  0
  135.8656   68.4724  220.5547 H   0  0  0  0  0  0  0  0  0  0  0  0
  136.9945   66.2982  221.5396 H   0  0  0  0  0  0  0  0  0  0  0  0
  136.9473   72.6286  224.0417 H   0  0  0  0  0  0  0  0  0  0  0  0
  137.2523   71.9645  222.4009 H   0  0  0  0  0  0  0  0  0  0  0  0
  135.2281   71.1461  224.2250 H   0  0  0  0  0  0  0  0  0  0  0  0
  135.6548   70.3305  222.7276 H   0  0  0  0  0  0  0  0  0  0  0  0
  136.4621   69.7186  225.5491 H   0  0  0  0  0  0  0  0  0  0  0  0
  136.3872   68.6139  224.1745 H   0  0  0  0  0  0  0  0  0  0  0  0
  138.5691   69.1613  223.4641 H   0  0  0  0  0  0  0  0  0  0  0  0
  138.7587   67.1434  225.1964 H   0  0  0  0  0  0  0  0  0  0  0  0
  140.3290   66.9960  227.2450 H   0  0  0  0  0  0  0  0  0  0  0  0
  141.6762   68.8494  228.8499 H   0  0  0  0  0  0  0  0  0  0  0  0
  142.0539   71.2964  229.1568 H   0  0  0  0  0  0  0  0  0  0  0  0
  140.9686   72.9448  227.6206 H   0  0  0  0  0  0  0  0  0  0  0  0
  139.5003   72.1139  225.7798 H   0  0  0  0  0  0  0  0  0  0  0  0
  1  2  2  0
  2  3  2  0
  2  4  1  0
  4  5  1  0
  5  6  2  0
  6  7  1  0
  7  8  2  0
  8  9  1  0
  2 10  1  0
 10 11  1  0
 11 12  1  0
 12 13  1  0
 13 14  1  0
 14 15  1  0
 15 16  2  0
 16 17  1  0
 17 18  1  0
 18 19  2  0
 19 20  1  0
 20 21  2  0
 21 22  1  0
 22 23  2  0
  9  5  1  0
 14 10  1  0
 23 15  1  0
 23 18  1  0
  4 24  1  0
  4 25  1  0
  6 26  1  0
  7 27  1  0
  8 28  1  0
 11 29  1  0
 11 30  1  0
 12 31  1  0
 12 32  1  0
 13 33  1  0
 13 34  1  0
 14 35  1  6
 16 36  1  0
 17 37  1  0
 19 38  1  0
 20 39  1  0
 21 40  1  0
 22 41  1  0
M  END
>  <smiles>  (5) 
O=S(=O)(Cc1cccs1)N1CCCC1c1c[nH]c2ccccc12

>  <score_type>  (5) 
oracle

>  <origin>  (5) 
autodockgpu

>  <m_score__min__energy>  (5) 
-7.3799999999999999

>  <m_primary>  (5) 
energy

>  <meeko>  (5) 
{"free_energy": -6.66, "intermolecular_energy": -7.86, "internal_energy": -1.59, "cluster_size": 1, "cluster_id": 3, "rank_in_cluster": 1}

>  <energy>  (5) 
-6.61

>  <cluster_rmsd>  (5) 
1.95

>  <rmsd>  (5) 
272.13

>  <cluster>  (5) 
2

$$$$

     RDKit          3D

 41 44  0  0  1  0  0  0  0  0999 V2000
  140.9380   70.9390  223.9160 O   0  0  0  0  0  0  0  0  0  0  0  0
  139.7400   71.3440  223.0640 S   0  0  0  0  0  0  0  0  0  0  0  0
  139.9480   72.8370  222.8360 O   0  0  0  0  0  0  0  0  0  0  0  0
  139.8630   70.5090  221.5470 C   0  0  0  0  0  0  0  0  0  0  0  0
  138.9820   69.3520  221.5170 C   0  0  0  0  0  0  0  0  0  0  0  0
  139.1810   68.0930  221.9270 C   0  0  0  0  0  0  0  0  0  0  0  0
  138.2150   67.1670  221.8040 C   0  0  0  0  0  0  0  0  0  0  0  0
  137.0220   67.5960  221.2340 C   0  0  0  0  0  0  0  0  0  0  0  0
  137.2900   69.3750  220.8650 S   0  0  0  0  0  0  0  0  0  0  0  0
  138.3600   71.1130  223.9870 N   0  0  0  0  0  0  0  0  0  0  0  0
  137.1310   71.6350  223.5360 C   0  0  0  0  0  0  0  0  0  0  0  0
  136.0350   70.6130  223.7620 C   0  0  0  0  0  0  0  0  0  0  0  0
  136.6960   69.5460  224.5860 C   0  0  0  0  0  0  0  0  0  0  0  0
  138.1810   69.7460  224.3740 C   0  0  2  0  0  0  0  0  0  0  0  0
  139.0160   69.2960  225.4900 C   0  0  0  0  0  0  0  0  0  0  0  0
  139.1910   67.9650  225.8620 C   0  0  0  0  0  0  0  0  0  0  0  0
  140.0080   67.8780  226.9170 N   0  0  0  0  0  0  0  0  0  0  0  0
  140.3790   69.1450  227.2490 C   0  0  0  0  0  0  0  0  0  0  0  0
  141.2010   69.6010  228.2490 C   0  0  0  0  0  0  0  0  0  0  0  0
  141.4210   70.9710  228.3770 C   0  0  0  0  0  0  0  0  0  0  0  0
  140.8140   71.8760  227.5010 C   0  0  0  0  0  0  0  0  0  0  0  0
  139.9860   71.3890  226.4980 C   0  0  0  0  0  0  0  0  0  0  0  0
  139.7740   70.0330  226.3770 C   0  0  0  0  0  0  0  0  0  0  0  0
  139.5831   71.1957  220.7345 H   0  0  0  0  0  0  0  0  0  0  0  0
  140.8997   70.1640  221.4194 H   0  0  0  0  0  0  0  0  0  0  0  0
  140.1480   67.8130  222.3704 H   0  0  0  0  0  0  0  0  0  0  0  0
  138.3601   66.1283  222.1356 H   0  0  0  0  0  0  0  0  0  0  0  0
  136.1164   67.0007  221.0454 H   0  0  0  0  0  0  0  0  0  0  0  0
  136.8962   72.5538  224.0933 H   0  0  0  0  0  0  0  0  0  0  0  0
  137.2021   71.8654  222.4627 H   0  0  0  0  0  0  0  0  0  0  0  0
  135.1901   71.0599  224.3064 H   0  0  0  0  0  0  0  0  0  0  0  0
  135.6192   70.2238  222.8210 H   0  0  0  0  0  0  0  0  0  0  0  0
  136.4385   69.6641  225.6489 H   0  0  0  0  0  0  0  0  0  0  0  0
  136.3702   68.5374  224.2916 H   0  0  0  0  0  0  0  0  0  0  0  0
  138.5453   69.0900  223.5696 H   0  0  0  0  0  0  0  0  0  0  0  0
  138.7229   67.1062  225.3586 H   0  0  0  0  0  0  0  0  0  0  0  0
  140.3090   67.0050  227.3980 H   0  0  0  0  0  0  0  0  0  0  0  0
  141.6805   68.8933  228.9413 H   0  0  0  0  0  0  0  0  0  0  0  0
  142.0790   71.3443  229.1755 H   0  0  0  0  0  0  0  0  0  0  0  0
  140.9895   72.9569  227.6046 H   0  0  0  0  0  0  0  0  0  0  0  0
  139.4993   72.0861  225.8000 H   0  0  0  0  0  0  0  0  0  0  0  0
  1  2  2  0
  2  3  2  0
  2  4  1  0
  4  5  1  0
  5  6  2  0
  6  7  1  0
  7  8  2  0
  8  9  1  0
  2 10  1  0
 10 11  1  0
 11 12  1  0
 12 13  1  0
 13 14  1  0
 14 15  1  0
 15 16  2  0
 16 17  1  0
 17 18  1  0
 18 19  2  0
 19 20  1  0
 20 21  2  0
 21 22  1  0
 22 23  2  0
  9  5  1  0
 14 10  1  0
 23 15  1  0
 23 18  1  0
  4 24  1  0
  4 25  1  0
  6 26  1  0
  7 27  1  0
  8 28  1  0
 11 29  1  0
 11 30  1  0
 12 31  1  0
 12 32  1  0
 13 33  1  0
 13 34  1  0
 14 35  1  6
 16 36  1  0
 17 37  1  0
 19 38  1  0
 20 39  1  0
 21 40  1  0
 22 41  1  0
M  END
>  <smiles>  (6) 
O=S(=O)(Cc1cccs1)N1CCCC1c1c[nH]c2ccccc12

>  <score_type>  (6) 
oracle

>  <origin>  (6) 
autodockgpu

>  <m_score__min__energy>  (6) 
-7.3799999999999999

>  <m_primary>  (6) 
energy

>  <meeko>  (6) 
{"free_energy": -6.74, "intermolecular_energy": -7.93, "internal_energy": -1.6, "cluster_size": 4, "cluster_id": 2, "rank_in_cluster": 3}

>  <energy>  (6) 
-6.66

>  <cluster_rmsd>  (6) 
0.0

>  <rmsd>  (6) 
272.11

>  <cluster>  (6) 
3

$$$$

     RDKit          3D

 41 44  0  0  1  0  0  0  0  0999 V2000
  141.0630   76.9400  223.0960 O   0  0  0  0  0  0  0  0  0  0  0  0
  140.6720   76.5860  221.6650 S   0  0  0  0  0  0  0  0  0  0  0  0
  140.6030   75.0630  221.6770 O   0  0  0  0  0  0  0  0  0  0  0  0
  139.0870   77.2310  221.3760 C   0  0  0  0  0  0  0  0  0  0  0  0
  138.8840   78.4640  222.1190 C   0  0  0  0  0  0  0  0  0  0  0  0
  139.1440   78.7640  223.3980 C   0  0  0  0  0  0  0  0  0  0  0  0
  138.8740   79.9860  223.8880 C   0  0  0  0  0  0  0  0  0  0  0  0
  138.3180   80.8960  222.9970 C   0  0  0  0  0  0  0  0  0  0  0  0
  138.1790   79.9780  221.4120 S   0  0  0  0  0  0  0  0  0  0  0  0
  141.9230   77.0740  220.6610 N   0  0  0  0  0  0  0  0  0  0  0  0
  142.6780   76.1010  219.9750 C   0  0  0  0  0  0  0  0  0  0  0  0
  142.9210   76.5620  218.5520 C   0  0  0  0  0  0  0  0  0  0  0  0
  142.4350   77.9840  218.5420 C   0  0  0  0  0  0  0  0  0  0  0  0
  141.5230   78.0980  219.7450 C   0  0  2  0  0  0  0  0  0  0  0  0
  141.4370   79.4460  220.3100 C   0  0  0  0  0  0  0  0  0  0  0  0
  140.9170   80.5530  219.6430 C   0  0  0  0  0  0  0  0  0  0  0  0
  140.9770   81.6390  220.4220 N   0  0  0  0  0  0  0  0  0  0  0  0
  141.5340   81.2600  221.6040 C   0  0  0  0  0  0  0  0  0  0  0  0
  141.8150   81.9900  222.7320 C   0  0  0  0  0  0  0  0  0  0  0  0
  142.3960   81.3530  223.8270 C   0  0  0  0  0  0  0  0  0  0  0  0
  142.6930   79.9880  223.7830 C   0  0  0  0  0  0  0  0  0  0  0  0
  142.4000   79.2720  222.6300 C   0  0  0  0  0  0  0  0  0  0  0  0
  141.8250   79.9080  221.5510 C   0  0  0  0  0  0  0  0  0  0  0  0
  138.9720   77.4353  220.3013 H   0  0  0  0  0  0  0  0  0  0  0  0
  138.3419   76.4937  221.7094 H   0  0  0  0  0  0  0  0  0  0  0  0
  139.5843   78.0004  224.0560 H   0  0  0  0  0  0  0  0  0  0  0  0
  139.0814   80.2509  224.9353 H   0  0  0  0  0  0  0  0  0  0  0  0
  138.0254   81.9374  223.1969 H   0  0  0  0  0  0  0  0  0  0  0  0
  143.6426   75.9589  220.4843 H   0  0  0  0  0  0  0  0  0  0  0  0
  142.1263   75.1494  219.9633 H   0  0  0  0  0  0  0  0  0  0  0  0
  143.9912   76.5129  218.3026 H   0  0  0  0  0  0  0  0  0  0  0  0
  142.4066   75.9337  217.8100 H   0  0  0  0  0  0  0  0  0  0  0  0
  143.2807   78.6817  218.6312 H   0  0  0  0  0  0  0  0  0  0  0  0
  141.9152   78.2351  217.6057 H   0  0  0  0  0  0  0  0  0  0  0  0
  140.4760   77.9330  219.4507 H   0  0  0  0  0  0  0  0  0  0  0  0
  140.5138   80.5365  218.6197 H   0  0  0  0  0  0  0  0  0  0  0  0
  140.6570   82.5990  220.1730 H   0  0  0  0  0  0  0  0  0  0  0  0
  141.5844   83.0648  222.7712 H   0  0  0  0  0  0  0  0  0  0  0  0
  142.6231   81.9305  224.7352 H   0  0  0  0  0  0  0  0  0  0  0  0
  143.1520   79.4884  224.6489 H   0  0  0  0  0  0  0  0  0  0  0  0
  142.6269   78.1969  222.5778 H   0  0  0  0  0  0  0  0  0  0  0  0
  1  2  2  0
  2  3  2  0
  2  4  1  0
  4  5  1  0
  5  6  2  0
  6  7  1  0
  7  8  2  0
  8  9  1  0
  2 10  1  0
 10 11  1  0
 11 12  1  0
 12 13  1  0
 13 14  1  0
 14 15  1  0
 15 16  2  0
 16 17  1  0
 17 18  1  0
 18 19  2  0
 19 20  1  0
 20 21  2  0
 21 22  1  0
 22 23  2  0
  9  5  1  0
 14 10  1  0
 23 15  1  0
 23 18  1  0
  4 24  1  0
  4 25  1  0
  6 26  1  0
  7 27  1  0
  8 28  1  0
 11 29  1  0
 11 30  1  0
 12 31  1  0
 12 32  1  0
 13 33  1  0
 13 34  1  0
 14 35  1  6
 16 36  1  0
 17 37  1  0
 19 38  1  0
 20 39  1  0
 21 40  1  0
 22 41  1  0
M  END
>  <smiles>  (7) 
O=S(=O)(Cc1cccs1)N1CCCC1c1c[nH]c2ccccc12

>  <score_type>  (7) 
oracle

>  <origin>  (7) 
autodockgpu

>  <m_score__min__energy>  (7) 
-7.3799999999999999

>  <m_primary>  (7) 
energy

>  <meeko>  (7) 
{"free_energy": -6.19, "intermolecular_energy": -7.38, "internal_energy": -1.98, "cluster_size": 7, "cluster_id": 5, "rank_in_cluster": 2}

>  <energy>  (7) 
-6.37

>  <cluster_rmsd>  (7) 
0.0

>  <rmsd>  (7) 
273.03

>  <cluster>  (7) 
4

$$$$

     RDKit          3D

 41 44  0  0  1  0  0  0  0  0999 V2000
  136.4570   69.6220  225.7300 O   0  0  0  0  0  0  0  0  0  0  0  0
  136.1100   69.5890  224.2460 S   0  0  0  0  0  0  0  0  0  0  0  0
  135.1140   68.4400  224.1350 O   0  0  0  0  0  0  0  0  0  0  0  0
  135.3110   71.0800  223.8570 C   0  0  0  0  0  0  0  0  0  0  0  0
  134.5490   71.5730  224.9940 C   0  0  0  0  0  0  0  0  0  0  0  0
  133.8940   70.9120  225.9570 C   0  0  0  0  0  0  0  0  0  0  0  0
  133.2450   71.5750  226.9280 C   0  0  0  0  0  0  0  0  0  0  0  0
  133.2960   72.9620  226.8660 C   0  0  0  0  0  0  0  0  0  0  0  0
  134.3050   73.3290  225.3750 S   0  0  0  0  0  0  0  0  0  0  0  0
  137.5050   69.1930  223.4060 N   0  0  0  0  0  0  0  0  0  0  0  0
  137.4940   69.2160  221.9970 C   0  0  0  0  0  0  0  0  0  0  0  0
  138.7730   69.8530  221.4920 C   0  0  0  0  0  0  0  0  0  0  0  0
  139.6220   69.9910  222.7250 C   0  0  0  0  0  0  0  0  0  0  0  0
  138.6520   69.9040  223.8830 C   0  0  2  0  0  0  0  0  0  0  0  0
  139.2390   69.3880  225.1220 C   0  0  0  0  0  0  0  0  0  0  0  0
  139.1710   68.0600  225.5380 C   0  0  0  0  0  0  0  0  0  0  0  0
  139.8010   67.9030  226.7070 N   0  0  0  0  0  0  0  0  0  0  0  0
  140.2890   69.1200  227.0720 C   0  0  0  0  0  0  0  0  0  0  0  0
  141.0070   69.4980  228.1790 C   0  0  0  0  0  0  0  0  0  0  0  0
  141.3920   70.8310  228.3170 C   0  0  0  0  0  0  0  0  0  0  0  0
  141.0540   71.7760  227.3450 C   0  0  0  0  0  0  0  0  0  0  0  0
  140.3270   71.3670  226.2340 C   0  0  0  0  0  0  0  0  0  0  0  0
  139.9500   70.0490  226.1030 C   0  0  0  0  0  0  0  0  0  0  0  0
  136.0651   71.8301  223.5764 H   0  0  0  0  0  0  0  0  0  0  0  0
  134.6186   70.8999  223.0215 H   0  0  0  0  0  0  0  0  0  0  0  0
  133.8875   69.8120  225.9527 H   0  0  0  0  0  0  0  0  0  0  0  0
  132.7032   71.0491  227.7279 H   0  0  0  0  0  0  0  0  0  0  0  0
  132.8340   73.6820  227.5574 H   0  0  0  0  0  0  0  0  0  0  0  0
  137.4207   68.1874  221.6141 H   0  0  0  0  0  0  0  0  0  0  0  0
  136.6303   69.8002  221.6466 H   0  0  0  0  0  0  0  0  0  0  0  0
  139.2644   69.2075  220.7491 H   0  0  0  0  0  0  0  0  0  0  0  0
  138.5968   70.8154  220.9894 H   0  0  0  0  0  0  0  0  0  0  0  0
  140.3608   69.1778  222.7782 H   0  0  0  0  0  0  0  0  0  0  0  0
  140.1887   70.9338  222.7319 H   0  0  0  0  0  0  0  0  0  0  0  0
  138.3462   70.9106  224.2045 H   0  0  0  0  0  0  0  0  0  0  0  0
  138.6694   67.2538  224.9827 H   0  0  0  0  0  0  0  0  0  0  0  0
  139.9030   67.0150  227.2420 H   0  0  0  0  0  0  0  0  0  0  0  0
  141.2754   68.7585  228.9478 H   0  0  0  0  0  0  0  0  0  0  0  0
  141.9682   71.1420  229.2009 H   0  0  0  0  0  0  0  0  0  0  0  0
  141.3586   72.8270  227.4576 H   0  0  0  0  0  0  0  0  0  0  0  0
  140.0522   72.0967  225.4581 H   0  0  0  0  0  0  0  0  0  0  0  0
  1  2  2  0
  2  3  2  0
  2  4  1  0
  4  5  1  0
  5  6  2  0
  6  7  1  0
  7  8  2  0
  8  9  1  0
  2 10  1  0
 10 11  1  0
 11 12  1  0
 12 13  1  0
 13 14  1  0
 14 15  1  0
 15 16  2  0
 16 17  1  0
 17 18  1  0
 18 19  2  0
 19 20  1  0
 20 21  2  0
 21 22  1  0
 22 23  2  0
  9  5  1  0
 14 10  1  0
 23 15  1  0
 23 18  1  0
  4 24  1  0
  4 25  1  0
  6 26  1  0
  7 27  1  0
  8 28  1  0
 11 29  1  0
 11 30  1  0
 12 31  1  0
 12 32  1  0
 13 33  1  0
 13 34  1  0
 14 35  1  1
 16 36  1  0
 17 37  1  0
 19 38  1  0
 20 39  1  0
 21 40  1  0
 22 41  1  0
M  END
>  <smiles>  (8) 
O=S(=O)(Cc1cccs1)N1CCCC1c1c[nH]c2ccccc12

>  <score_type>  (8) 
oracle

>  <origin>  (8) 
autodockgpu

>  <m_score__min__energy>  (8) 
-7.3799999999999999

>  <m_primary>  (8) 
energy

>  <meeko>  (8) 
{"free_energy": -7.38, "intermolecular_energy": -8.57, "internal_energy": -1.14, "cluster_size": 1, "cluster_id": 1, "rank_in_cluster": 1}

>  <energy>  (8) 
-6.36

>  <cluster_rmsd>  (8) 
0.13

>  <rmsd>  (8) 
273.03

>  <cluster>  (8) 
4

$$$$

     RDKit          3D

 41 44  0  0  1  0  0  0  0  0999 V2000
  141.8300   78.7200  224.5410 O   0  0  0  0  0  0  0  0  0  0  0  0
  141.4250   79.7660  223.5070 S   0  0  0  0  0  0  0  0  0  0  0  0
  141.6730   81.0900  224.2210 O   0  0  0  0  0  0  0  0  0  0  0  0
  142.5110   79.6270  222.1610 C   0  0  0  0  0  0  0  0  0  0  0  0
  142.0930   80.4870  221.0650 C   0  0  0  0  0  0  0  0  0  0  0  0
  142.1070   80.2820  219.7420 C   0  0  0  0  0  0  0  0  0  0  0  0
  141.6660   81.2270  218.8940 C   0  0  0  0  0  0  0  0  0  0  0  0
  141.2060   82.4040  219.4700 C   0  0  0  0  0  0  0  0  0  0  0  0
  141.4080   82.1530  221.2790 S   0  0  0  0  0  0  0  0  0  0  0  0
  139.7820   79.5910  223.2240 N   0  0  0  0  0  0  0  0  0  0  0  0
  138.9320   80.7040  223.3800 C   0  0  0  0  0  0  0  0  0  0  0  0
  137.9330   80.7390  222.2400 C   0  0  0  0  0  0  0  0  0  0  0  0
  138.1370   79.4270  221.5380 C   0  0  0  0  0  0  0  0  0  0  0  0
  139.5070   78.9540  221.9720 C   0  0  2  0  0  0  0  0  0  0  0  0
  139.6750   77.4990  221.9580 C   0  0  0  0  0  0  0  0  0  0  0  0
  138.8390   76.5990  222.6150 C   0  0  0  0  0  0  0  0  0  0  0  0
  139.2530   75.3430  222.4120 N   0  0  0  0  0  0  0  0  0  0  0  0
  140.3590   75.4040  221.6230 C   0  0  0  0  0  0  0  0  0  0  0  0
  141.1580   74.4020  221.1290 C   0  0  0  0  0  0  0  0  0  0  0  0
  142.2510   74.7350  220.3310 C   0  0  0  0  0  0  0  0  0  0  0  0
  142.5360   76.0710  220.0330 C   0  0  0  0  0  0  0  0  0  0  0  0
  141.7130   77.0650  220.5450 C   0  0  0  0  0  0  0  0  0  0  0  0
  140.6340   76.7280  221.3330 C   0  0  0  0  0  0  0  0  0  0  0  0
  143.5217   79.9188  222.4823 H   0  0  0  0  0  0  0  0  0  0  0  0
  142.5048   78.5842  221.8111 H   0  0  0  0  0  0  0  0  0  0  0  0
  142.4841   79.3283  219.3441 H   0  0  0  0  0  0  0  0  0  0  0  0
  141.6693   81.0765  217.8043 H   0  0  0  0  0  0  0  0  0  0  0  0
  140.8081   83.2915  218.9562 H   0  0  0  0  0  0  0  0  0  0  0  0
  138.3946   80.6241  224.3365 H   0  0  0  0  0  0  0  0  0  0  0  0
  139.5304   81.6270  223.3724 H   0  0  0  0  0  0  0  0  0  0  0  0
  136.9052   80.8218  222.6231 H   0  0  0  0  0  0  0  0  0  0  0  0
  138.0798   81.6026  221.5747 H   0  0  0  0  0  0  0  0  0  0  0  0
  137.3654   78.7036  221.8403 H   0  0  0  0  0  0  0  0  0  0  0  0
  138.0645   79.5297  220.4452 H   0  0  0  0  0  0  0  0  0  0  0  0
  140.2683   79.2537  221.2367 H   0  0  0  0  0  0  0  0  0  0  0  0
  137.9620   76.8812  223.2161 H   0  0  0  0  0  0  0  0  0  0  0  0
  138.8110   74.4770  222.7870 H   0  0  0  0  0  0  0  0  0  0  0  0
  140.9379   73.3494  221.3604 H   0  0  0  0  0  0  0  0  0  0  0  0
  142.8961   73.9386  219.9315 H   0  0  0  0  0  0  0  0  0  0  0  0
  143.3992   76.3306  219.4025 H   0  0  0  0  0  0  0  0  0  0  0  0
  141.9223   78.1216  220.3216 H   0  0  0  0  0  0  0  0  0  0  0  0
  1  2  2  0
  2  3  2  0
  2  4  1  0
  4  5  1  0
  5  6  2  0
  6  7  1  0
  7  8  2  0
  8  9  1  0
  2 10  1  0
 10 11  1  0
 11 12  1  0
 12 13  1  0
 13 14  1  0
 14 15  1  0
 15 16  2  0
 16 17  1  0
 17 18  1  0
 18 19  2  0
 19 20  1  0
 20 21  2  0
 21 22  1  0
 22 23  2  0
  9  5  1  0
 14 10  1  0
 23 15  1  0
 23 18  1  0
  4 24  1  0
  4 25  1  0
  6 26  1  0
  7 27  1  0
  8 28  1  0
 11 29  1  0
 11 30  1  0
 12 31  1  0
 12 32  1  0
 13 33  1  0
 13 34  1  0
 14 35  1  6
 16 36  1  0
 17 37  1  0
 19 38  1  0
 20 39  1  0
 21 40  1  0
 22 41  1  0
M  END
>  <smiles>  (9) 
O=S(=O)(Cc1cccs1)N1CCCC1c1c[nH]c2ccccc12

>  <score_type>  (9) 
oracle

>  <origin>  (9) 
autodockgpu

>  <m_score__min__energy>  (9) 
-7.3799999999999999

>  <m_primary>  (9) 
energy

>  <meeko>  (9) 
{"free_energy": -6.35, "intermolecular_energy": -7.55, "internal_energy": -1.77, "cluster_size": 7, "cluster_id": 4, "rank_in_cluster": 5}

>  <energy>  (9) 
-6.36

>  <cluster_rmsd>  (9) 
0.04

>  <rmsd>  (9) 
273.02

>  <cluster>  (9) 
4

$$$$

     RDKit          3D

 41 44  0  0  1  0  0  0  0  0999 V2000
  141.8400   78.7730  224.5430 O   0  0  0  0  0  0  0  0  0  0  0  0
  141.3850   79.8130  223.5250 S   0  0  0  0  0  0  0  0  0  0  0  0
  141.6410   81.1410  224.2280 O   0  0  0  0  0  0  0  0  0  0  0  0
  142.4250   79.6880  222.1400 C   0  0  0  0  0  0  0  0  0  0  0  0
  141.9740   80.5640  221.0700 C   0  0  0  0  0  0  0  0  0  0  0  0
  141.8930   80.3570  219.7500 C   0  0  0  0  0  0  0  0  0  0  0  0
  141.4390   81.3190  218.9290 C   0  0  0  0  0  0  0  0  0  0  0  0
  141.0700   82.5160  219.5300 C   0  0  0  0  0  0  0  0  0  0  0  0
  141.3790   82.2580  221.3220 S   0  0  0  0  0  0  0  0  0  0  0  0
  139.7360   79.6160  223.3000 N   0  0  0  0  0  0  0  0  0  0  0  0
  138.8770   80.7170  223.4860 C   0  0  0  0  0  0  0  0  0  0  0  0
  137.8380   80.7400  222.3830 C   0  0  0  0  0  0  0  0  0  0  0  0
  138.0340   79.4310  221.6720 C   0  0  0  0  0  0  0  0  0  0  0  0
  139.4250   78.9770  222.0570 C   0  0  2  0  0  0  0  0  0  0  0  0
  139.6120   77.5240  222.0360 C   0  0  0  0  0  0  0  0  0  0  0  0
  138.7960   76.6110  222.6990 C   0  0  0  0  0  0  0  0  0  0  0  0
  139.2240   75.3610  222.4870 N   0  0  0  0  0  0  0  0  0  0  0  0
  140.3200   75.4390  221.6850 C   0  0  0  0  0  0  0  0  0  0  0  0
  141.1250   74.4500  221.1770 C   0  0  0  0  0  0  0  0  0  0  0  0
  142.2040   74.8000  220.3660 C   0  0  0  0  0  0  0  0  0  0  0  0
  142.4680   76.1400  220.0700 C   0  0  0  0  0  0  0  0  0  0  0  0
  141.6380   77.1220  220.5960 C   0  0  0  0  0  0  0  0  0  0  0  0
  140.5740   76.7680  221.3960 C   0  0  0  0  0  0  0  0  0  0  0  0
  143.4472   79.9718  222.4307 H   0  0  0  0  0  0  0  0  0  0  0  0
  142.4024   78.6500  221.7767 H   0  0  0  0  0  0  0  0  0  0  0  0
  142.2019   79.3875  219.3322 H   0  0  0  0  0  0  0  0  0  0  0  0
  141.3637   81.1673  217.8421 H   0  0  0  0  0  0  0  0  0  0  0  0
  140.6787   83.4198  219.0401 H   0  0  0  0  0  0  0  0  0  0  0  0
  138.3749   80.6296  224.4608 H   0  0  0  0  0  0  0  0  0  0  0  0
  139.4627   81.6476  223.4570 H   0  0  0  0  0  0  0  0  0  0  0  0
  136.8236   80.8090  222.8027 H   0  0  0  0  0  0  0  0  0  0  0  0
  137.9496   81.6061  221.7141 H   0  0  0  0  0  0  0  0  0  0  0  0
  137.2835   78.6970  222.0007 H   0  0  0  0  0  0  0  0  0  0  0  0
  137.9208   79.5330  220.5826 H   0  0  0  0  0  0  0  0  0  0  0  0
  140.1550   79.2888  221.2955 H   0  0  0  0  0  0  0  0  0  0  0  0
  137.9223   76.8796  223.3110 H   0  0  0  0  0  0  0  0  0  0  0  0
  138.7980   74.4880  222.8640 H   0  0  0  0  0  0  0  0  0  0  0  0
  140.9213   73.3938  221.4070 H   0  0  0  0  0  0  0  0  0  0  0  0
  142.8539   74.0134  219.9551 H   0  0  0  0  0  0  0  0  0  0  0  0
  143.3201   76.4131  219.4302 H   0  0  0  0  0  0  0  0  0  0  0  0
  141.8304   78.1820  220.3737 H   0  0  0  0  0  0  0  0  0  0  0  0
  1  2  2  0
  2  3  2  0
  2  4  1  0
  4  5  1  0
  5  6  2  0
  6  7  1  0
  7  8  2  0
  8  9  1  0
  2 10  1  0
 10 11  1  0
 11 12  1  0
 12 13  1  0
 13 14  1  0
 14 15  1  0
 15 16  2  0
 16 17  1  0
 17 18  1  0
 18 19  2  0
 19 20  1  0
 20 21  2  0
 21 22  1  0
 22 23  2  0
  9  5  1  0
 14 10  1  0
 23 15  1  0
 23 18  1  0
  4 24  1  0
  4 25  1  0
  6 26  1  0
  7 27  1  0
  8 28  1  0
 11 29  1  0
 11 30  1  0
 12 31  1  0
 12 32  1  0
 13 33  1  0
 13 34  1  0
 14 35  1  6
 16 36  1  0
 17 37  1  0
 19 38  1  0
 20 39  1  0
 21 40  1  0
 22 41  1  0
M  END
>  <smiles>  (10) 
O=S(=O)(Cc1cccs1)N1CCCC1c1c[nH]c2ccccc12

>  <score_type>  (10) 
oracle

>  <origin>  (10) 
autodockgpu

>  <m_score__min__energy>  (10) 
-7.3799999999999999

>  <m_primary>  (10) 
energy

>  <meeko>  (10) 
{"free_energy": -6.36, "intermolecular_energy": -7.56, "internal_energy": -1.75, "cluster_size": 7, "cluster_id": 4, "rank_in_cluster": 2}

>  <energy>  (10) 
-6.36

>  <cluster_rmsd>  (10) 
0.11

>  <rmsd>  (10) 
273.0

>  <cluster>  (10) 
4

$$$$

     RDKit          3D

 41 44  0  0  1  0  0  0  0  0999 V2000
  141.0700   76.9580  223.1060 O   0  0  0  0  0  0  0  0  0  0  0  0
  140.6880   76.5920  221.6750 S   0  0  0  0  0  0  0  0  0  0  0  0
  140.6370   75.0680  221.6950 O   0  0  0  0  0  0  0  0  0  0  0  0
  139.0960   77.2160  221.3770 C   0  0  0  0  0  0  0  0  0  0  0  0
  138.8800   78.4580  222.1030 C   0  0  0  0  0  0  0  0  0  0  0  0
  139.1480   78.7820  223.3740 C   0  0  0  0  0  0  0  0  0  0  0  0
  138.8620   80.0070  223.8470 C   0  0  0  0  0  0  0  0  0  0  0  0
  138.2830   80.8940  222.9470 C   0  0  0  0  0  0  0  0  0  0  0  0
  138.1440   79.9480  221.3780 S   0  0  0  0  0  0  0  0  0  0  0  0
  141.9360   77.0900  220.6730 N   0  0  0  0  0  0  0  0  0  0  0  0
  142.7010   76.1230  219.9900 C   0  0  0  0  0  0  0  0  0  0  0  0
  142.9430   76.5840  218.5670 C   0  0  0  0  0  0  0  0  0  0  0  0
  142.4430   78.0010  218.5540 C   0  0  0  0  0  0  0  0  0  0  0  0
  141.5280   78.1090  219.7540 C   0  0  2  0  0  0  0  0  0  0  0  0
  141.4290   79.4570  220.3170 C   0  0  0  0  0  0  0  0  0  0  0  0
  140.8950   80.5570  219.6500 C   0  0  0  0  0  0  0  0  0  0  0  0
  140.9450   81.6450  220.4270 N   0  0  0  0  0  0  0  0  0  0  0  0
  141.5090   81.2740  221.6080 C   0  0  0  0  0  0  0  0  0  0  0  0
  141.7850   82.0090  222.7340 C   0  0  0  0  0  0  0  0  0  0  0  0
  142.3770   81.3810  223.8280 C   0  0  0  0  0  0  0  0  0  0  0  0
  142.6890   80.0190  223.7860 C   0  0  0  0  0  0  0  0  0  0  0  0
  142.4000   79.2980  222.6350 C   0  0  0  0  0  0  0  0  0  0  0  0
  141.8150   79.9260  221.5570 C   0  0  0  0  0  0  0  0  0  0  0  0
  138.9788   77.4038  220.2995 H   0  0  0  0  0  0  0  0  0  0  0  0
  138.3587   76.4756  221.7208 H   0  0  0  0  0  0  0  0  0  0  0  0
  139.6079   78.0364  224.0393 H   0  0  0  0  0  0  0  0  0  0  0  0
  139.0742   80.2918  224.8881 H   0  0  0  0  0  0  0  0  0  0  0  0
  137.9756   81.9336  223.1331 H   0  0  0  0  0  0  0  0  0  0  0  0
  143.6657   75.9903  220.5016 H   0  0  0  0  0  0  0  0  0  0  0  0
  142.1577   75.1666  219.9784 H   0  0  0  0  0  0  0  0  0  0  0  0
  144.0142   76.5451  218.3202 H   0  0  0  0  0  0  0  0  0  0  0  0
  142.4368   75.9496  217.8245 H   0  0  0  0  0  0  0  0  0  0  0  0
  143.2818   78.7070  218.6435 H   0  0  0  0  0  0  0  0  0  0  0  0
  141.9223   78.2450  217.6163 H   0  0  0  0  0  0  0  0  0  0  0  0
  140.4832   77.9343  219.4575 H   0  0  0  0  0  0  0  0  0  0  0  0
  140.4891   80.5344  218.6279 H   0  0  0  0  0  0  0  0  0  0  0  0
  140.6130   82.6000  220.1770 H   0  0  0  0  0  0  0  0  0  0  0  0
  141.5417   83.0811  222.7722 H   0  0  0  0  0  0  0  0  0  0  0  0
  142.6011   81.9630  224.7341 H   0  0  0  0  0  0  0  0  0  0  0  0
  143.1562   79.5261  224.6513 H   0  0  0  0  0  0  0  0  0  0  0  0
  142.6381   78.2253  222.5838 H   0  0  0  0  0  0  0  0  0  0  0  0
  1  2  2  0
  2  3  2  0
  2  4  1  0
  4  5  1  0
  5  6  2  0
  6  7  1  0
  7  8  2  0
  8  9  1  0
  2 10  1  0
 10 11  1  0
 11 12  1  0
 12 13  1  0
 13 14  1  0
 14 15  1  0
 15 16  2  0
 16 17  1  0
 17 18  1  0
 18 19  2  0
 19 20  1  0
 20 21  2  0
 21 22  1  0
 22 23  2  0
  9  5  1  0
 14 10  1  0
 23 15  1  0
 23 18  1  0
  4 24  1  0
  4 25  1  0
  6 26  1  0
  7 27  1  0
  8 28  1  0
 11 29  1  0
 11 30  1  0
 12 31  1  0
 12 32  1  0
 13 33  1  0
 13 34  1  0
 14 35  1  6
 16 36  1  0
 17 37  1  0
 19 38  1  0
 20 39  1  0
 21 40  1  0
 22 41  1  0
M  END
>  <smiles>  (11) 
O=S(=O)(Cc1cccs1)N1CCCC1c1c[nH]c2ccccc12

>  <score_type>  (11) 
oracle

>  <origin>  (11) 
autodockgpu

>  <m_score__min__energy>  (11) 
-7.3799999999999999

>  <m_primary>  (11) 
energy

>  <meeko>  (11) 
{"free_energy": -6.19, "intermolecular_energy": -7.38, "internal_energy": -1.96, "cluster_size": 7, "cluster_id": 5, "rank_in_cluster": 3}

>  <energy>  (11) 
-6.35

>  <cluster_rmsd>  (11) 
0.03

>  <rmsd>  (11) 
273.01

>  <cluster>  (11) 
4

$$$$

     RDKit          3D

 41 44  0  0  1  0  0  0  0  0999 V2000
  139.9470   69.5480  222.6090 O   0  0  0  0  0  0  0  0  0  0  0  0
  139.5650   70.9890  222.9290 S   0  0  0  0  0  0  0  0  0  0  0  0
  140.7820   71.5270  223.6740 O   0  0  0  0  0  0  0  0  0  0  0  0
  139.3930   71.8360  221.4240 C   0  0  0  0  0  0  0  0  0  0  0  0
  139.8110   73.2230  221.5570 C   0  0  0  0  0  0  0  0  0  0  0  0
  139.1340   74.3030  221.9670 C   0  0  0  0  0  0  0  0  0  0  0  0
  139.7240   75.5090  222.0140 C   0  0  0  0  0  0  0  0  0  0  0  0
  141.0540   75.5590  221.6170 C   0  0  0  0  0  0  0  0  0  0  0  0
  141.4750   73.8290  221.1640 S   0  0  0  0  0  0  0  0  0  0  0  0
  138.2540   70.9480  223.9720 N   0  0  0  0  0  0  0  0  0  0  0  0
  137.0430   71.5540  223.5830 C   0  0  0  0  0  0  0  0  0  0  0  0
  135.8830   70.6560  223.9660 C   0  0  0  0  0  0  0  0  0  0  0  0
  136.5150   69.5850  224.8090 C   0  0  0  0  0  0  0  0  0  0  0  0
  137.9880   69.6310  224.4660 C   0  0  2  0  0  0  0  0  0  0  0  0
  138.8710   69.1750  225.5430 C   0  0  0  0  0  0  0  0  0  0  0  0
  139.0430   67.8450  225.9170 C   0  0  0  0  0  0  0  0  0  0  0  0
  139.9120   67.7520  226.9290 N   0  0  0  0  0  0  0  0  0  0  0  0
  140.3200   69.0140  227.2300 C   0  0  0  0  0  0  0  0  0  0  0  0
  141.2000   69.4640  228.1830 C   0  0  0  0  0  0  0  0  0  0  0  0
  141.4490   70.8320  228.2880 C   0  0  0  0  0  0  0  0  0  0  0  0
  140.8140   71.7400  227.4370 C   0  0  0  0  0  0  0  0  0  0  0  0
  139.9270   71.2590  226.4810 C   0  0  0  0  0  0  0  0  0  0  0  0
  139.6860   69.9060  226.3830 C   0  0  0  0  0  0  0  0  0  0  0  0
  140.0146   71.3443  220.6612 H   0  0  0  0  0  0  0  0  0  0  0  0
  138.3336   71.8155  221.1288 H   0  0  0  0  0  0  0  0  0  0  0  0
  138.0812   74.2015  222.2692 H   0  0  0  0  0  0  0  0  0  0  0  0
  139.1838   76.4070  222.3483 H   0  0  0  0  0  0  0  0  0  0  0  0
  141.7109   76.4406  221.5816 H   0  0  0  0  0  0  0  0  0  0  0  0
  136.9388   72.5243  224.0906 H   0  0  0  0  0  0  0  0  0  0  0  0
  137.0433   71.7084  222.4939 H   0  0  0  0  0  0  0  0  0  0  0  0
  135.1304   71.2140  224.5424 H   0  0  0  0  0  0  0  0  0  0  0  0
  135.3555   70.2494  223.0905 H   0  0  0  0  0  0  0  0  0  0  0  0
  136.3607   69.7937  225.8780 H   0  0  0  0  0  0  0  0  0  0  0  0
  136.0772   68.5949  224.6138 H   0  0  0  0  0  0  0  0  0  0  0  0
  138.2233   68.8958  223.6824 H   0  0  0  0  0  0  0  0  0  0  0  0
  138.5352   66.9904  225.4460 H   0  0  0  0  0  0  0  0  0  0  0  0
  140.2220   66.8770  227.4020 H   0  0  0  0  0  0  0  0  0  0  0  0
  141.7027   68.7537  228.8558 H   0  0  0  0  0  0  0  0  0  0  0  0
  142.1529   71.2002  229.0489 H   0  0  0  0  0  0  0  0  0  0  0  0
  141.0128   72.8185  227.5222 H   0  0  0  0  0  0  0  0  0  0  0  0
  139.4173   71.9588  225.8024 H   0  0  0  0  0  0  0  0  0  0  0  0
  1  2  2  0
  2  3  2  0
  2  4  1  0
  4  5  1  0
  5  6  2  0
  6  7  1  0
  7  8  2  0
  8  9  1  0
  2 10  1  0
 10 11  1  0
 11 12  1  0
 12 13  1  0
 13 14  1  0
 14 15  1  0
 15 16  2  0
 16 17  1  0
 17 18  1  0
 18 19  2  0
 19 20  1  0
 20 21  2  0
 21 22  1  0
 22 23  2  0
  9  5  1  0
 14 10  1  0
 23 15  1  0
 23 18  1  0
  4 24  1  0
  4 25  1  0
  6 26  1  0
  7 27  1  0
  8 28  1  0
 11 29  1  0
 11 30  1  0
 12 31  1  0
 12 32  1  0
 13 33  1  0
 13 34  1  0
 14 35  1  6
 16 36  1  0
 17 37  1  0
 19 38  1  0
 20 39  1  0
 21 40  1  0
 22 41  1  0
M  END
>  <smiles>  (12) 
O=S(=O)(Cc1cccs1)N1CCCC1c1c[nH]c2ccccc12

>  <score_type>  (12) 
oracle

>  <origin>  (12) 
autodockgpu

>  <m_score__min__energy>  (12) 
-7.3799999999999999

>  <m_primary>  (12) 
energy

>  <meeko>  (12) 
{"free_energy": -6.93, "intermolecular_energy": -8.12, "internal_energy": -1.4, "cluster_size": 4, "cluster_id": 2, "rank_in_cluster": 1}

>  <energy>  (12) 
-6.35

>  <cluster_rmsd>  (12) 
0.05

>  <rmsd>  (12) 
273.03

>  <cluster>  (12) 
4

$$$$

     RDKit          3D

 41 44  0  0  1  0  0  0  0  0999 V2000
  140.9720   71.0790  223.9030 O   0  0  0  0  0  0  0  0  0  0  0  0
  139.7570   71.3770  223.0300 S   0  0  0  0  0  0  0  0  0  0  0  0
  139.9000   72.8610  222.7090 O   0  0  0  0  0  0  0  0  0  0  0  0
  139.9170   70.4550  221.5690 C   0  0  0  0  0  0  0  0  0  0  0  0
  139.0030   69.3230  221.5660 C   0  0  0  0  0  0  0  0  0  0  0  0
  139.1810   68.0580  221.9640 C   0  0  0  0  0  0  0  0  0  0  0  0
  138.1860   67.1600  221.8710 C   0  0  0  0  0  0  0  0  0  0  0  0
  136.9860   67.6240  221.3450 C   0  0  0  0  0  0  0  0  0  0  0  0
  137.2910   69.3970  220.9730 S   0  0  0  0  0  0  0  0  0  0  0  0
  138.3880   71.1450  223.9700 N   0  0  0  0  0  0  0  0  0  0  0  0
  137.1550   71.6730  223.5360 C   0  0  0  0  0  0  0  0  0  0  0  0
  136.0590   70.6530  223.7710 C   0  0  0  0  0  0  0  0  0  0  0  0
  136.7290   69.5800  224.5820 C   0  0  0  0  0  0  0  0  0  0  0  0
  138.2110   69.7770  224.3520 C   0  0  2  0  0  0  0  0  0  0  0  0
  139.0580   69.3200  225.4560 C   0  0  0  0  0  0  0  0  0  0  0  0
  139.2630   67.9860  225.7980 C   0  0  0  0  0  0  0  0  0  0  0  0
  140.0850   67.8930  226.8490 N   0  0  0  0  0  0  0  0  0  0  0  0
  140.4300   69.1590  227.2070 C   0  0  0  0  0  0  0  0  0  0  0  0
  141.2450   69.6100  228.2150 C   0  0  0  0  0  0  0  0  0  0  0  0
  141.4370   70.9810  228.3730 C   0  0  0  0  0  0  0  0  0  0  0  0
  140.8090   71.8920  227.5190 C   0  0  0  0  0  0  0  0  0  0  0  0
  139.9880   71.4100  226.5070 C   0  0  0  0  0  0  0  0  0  0  0  0
  139.8040   70.0540  226.3570 C   0  0  0  0  0  0  0  0  0  0  0  0
  139.6916   71.1020  220.7084 H   0  0  0  0  0  0  0  0  0  0  0  0
  140.9472   70.0747  221.5048 H   0  0  0  0  0  0  0  0  0  0  0  0
  140.1545   67.7493  222.3726 H   0  0  0  0  0  0  0  0  0  0  0  0
  138.3139   66.1160  222.1931 H   0  0  0  0  0  0  0  0  0  0  0  0
  136.0581   67.0549  221.1864 H   0  0  0  0  0  0  0  0  0  0  0  0
  136.9297   72.5901  224.1001 H   0  0  0  0  0  0  0  0  0  0  0  0
  137.2137   71.9082  222.4630 H   0  0  0  0  0  0  0  0  0  0  0  0
  135.2223   71.0994  224.3284 H   0  0  0  0  0  0  0  0  0  0  0  0
  135.6295   70.2694  222.8338 H   0  0  0  0  0  0  0  0  0  0  0  0
  136.4856   69.6939  225.6487 H   0  0  0  0  0  0  0  0  0  0  0  0
  136.3971   68.5736  224.2869 H   0  0  0  0  0  0  0  0  0  0  0  0
  138.5640   69.1244  223.5399 H   0  0  0  0  0  0  0  0  0  0  0  0
  138.8121   67.1286  225.2768 H   0  0  0  0  0  0  0  0  0  0  0  0
  140.4050   67.0150  227.3090 H   0  0  0  0  0  0  0  0  0  0  0  0
  141.7409   68.8973  228.8904 H   0  0  0  0  0  0  0  0  0  0  0  0
  142.0894   71.3501  229.1780 H   0  0  0  0  0  0  0  0  0  0  0  0
  140.9624   72.9738  227.6461 H   0  0  0  0  0  0  0  0  0  0  0  0
  139.4850   72.1120  225.8256 H   0  0  0  0  0  0  0  0  0  0  0  0
  1  2  2  0
  2  3  2  0
  2  4  1  0
  4  5  1  0
  5  6  2  0
  6  7  1  0
  7  8  2  0
  8  9  1  0
  2 10  1  0
 10 11  1  0
 11 12  1  0
 12 13  1  0
 13 14  1  0
 14 15  1  0
 15 16  2  0
 16 17  1  0
 17 18  1  0
 18 19  2  0
 19 20  1  0
 20 21  2  0
 21 22  1  0
 22 23  2  0
  9  5  1  0
 14 10  1  0
 23 15  1  0
 23 18  1  0
  4 24  1  0
  4 25  1  0
  6 26  1  0
  7 27  1  0
  8 28  1  0
 11 29  1  0
 11 30  1  0
 12 31  1  0
 12 32  1  0
 13 33  1  0
 13 34  1  0
 14 35  1  6
 16 36  1  0
 17 37  1  0
 19 38  1  0
 20 39  1  0
 21 40  1  0
 22 41  1  0
M  END
>  <smiles>  (13) 
O=S(=O)(Cc1cccs1)N1CCCC1c1c[nH]c2ccccc12

>  <score_type>  (13) 
oracle

>  <origin>  (13) 
autodockgpu

>  <m_score__min__energy>  (13) 
-7.3799999999999999

>  <m_primary>  (13) 
energy

>  <meeko>  (13) 
{"free_energy": -6.76, "intermolecular_energy": -7.95, "internal_energy": -1.55, "cluster_size": 4, "cluster_id": 2, "rank_in_cluster": 2}

>  <energy>  (13) 
-6.34

>  <cluster_rmsd>  (13) 
0.69

>  <rmsd>  (13) 
273.04

>  <cluster>  (13) 
4

$$$$

     RDKit          3D

 41 44  0  0  1  0  0  0  0  0999 V2000
  141.8300   78.7800  224.5530 O   0  0  0  0  0  0  0  0  0  0  0  0
  141.4170   79.8190  223.5150 S   0  0  0  0  0  0  0  0  0  0  0  0
  141.6670   81.1490  224.2190 O   0  0  0  0  0  0  0  0  0  0  0  0
  142.4960   79.6740  222.1630 C   0  0  0  0  0  0  0  0  0  0  0  0
  142.0610   80.5140  221.0590 C   0  0  0  0  0  0  0  0  0  0  0  0
  142.0480   80.2830  219.7400 C   0  0  0  0  0  0  0  0  0  0  0  0
  141.5960   81.2130  218.8820 C   0  0  0  0  0  0  0  0  0  0  0  0
  141.1540   82.4040  219.4440 C   0  0  0  0  0  0  0  0  0  0  0  0
  141.3900   82.1880  221.2530 S   0  0  0  0  0  0  0  0  0  0  0  0
  139.7730   79.6390  223.2420 N   0  0  0  0  0  0  0  0  0  0  0  0
  138.9220   80.7520  223.3910 C   0  0  0  0  0  0  0  0  0  0  0  0
  137.9180   80.7750  222.2570 C   0  0  0  0  0  0  0  0  0  0  0  0
  138.1190   79.4570  221.5660 C   0  0  0  0  0  0  0  0  0  0  0  0
  139.4930   78.9900  221.9970 C   0  0  2  0  0  0  0  0  0  0  0  0
  139.6620   77.5350  221.9970 C   0  0  0  0  0  0  0  0  0  0  0  0
  138.8300   76.6400  222.6640 C   0  0  0  0  0  0  0  0  0  0  0  0
  139.2450   75.3830  222.4720 N   0  0  0  0  0  0  0  0  0  0  0  0
  140.3490   75.4380  221.6790 C   0  0  0  0  0  0  0  0  0  0  0  0
  141.1480   74.4330  221.1920 C   0  0  0  0  0  0  0  0  0  0  0  0
  142.2380   74.7600  220.3880 C   0  0  0  0  0  0  0  0  0  0  0  0
  142.5210   76.0930  220.0760 C   0  0  0  0  0  0  0  0  0  0  0  0
  141.6970   77.0910  220.5820 C   0  0  0  0  0  0  0  0  0  0  0  0
  140.6210   76.7600  221.3760 C   0  0  0  0  0  0  0  0  0  0  0  0
  143.5055   79.9816  222.4734 H   0  0  0  0  0  0  0  0  0  0  0  0
  142.4994   78.6265  221.8272 H   0  0  0  0  0  0  0  0  0  0  0  0
  142.4121   79.3194  219.3540 H   0  0  0  0  0  0  0  0  0  0  0  0
  141.5770   81.0409  217.7957 H   0  0  0  0  0  0  0  0  0  0  0  0
  140.7511   83.2836  218.9206 H   0  0  0  0  0  0  0  0  0  0  0  0
  138.3895   80.6806  224.3509 H   0  0  0  0  0  0  0  0  0  0  0  0
  139.5192   81.6756  223.3710 H   0  0  0  0  0  0  0  0  0  0  0  0
  136.8922   80.8606  222.6448 H   0  0  0  0  0  0  0  0  0  0  0  0
  138.0609   81.6323  221.5828 H   0  0  0  0  0  0  0  0  0  0  0  0
  137.3501   78.7355  221.8796 H   0  0  0  0  0  0  0  0  0  0  0  0
  138.0396   79.5490  220.4727 H   0  0  0  0  0  0  0  0  0  0  0  0
  140.2500   79.2837  221.2549 H   0  0  0  0  0  0  0  0  0  0  0  0
  137.9541   76.9264  223.2647 H   0  0  0  0  0  0  0  0  0  0  0  0
  138.8060   74.5200  222.8560 H   0  0  0  0  0  0  0  0  0  0  0  0
  140.9301   73.3822  221.4337 H   0  0  0  0  0  0  0  0  0  0  0  0
  142.8829   73.9605  219.9945 H   0  0  0  0  0  0  0  0  0  0  0  0
  143.3819   76.3477  219.4404 H   0  0  0  0  0  0  0  0  0  0  0  0
  141.9040   78.1458  220.3484 H   0  0  0  0  0  0  0  0  0  0  0  0
  1  2  2  0
  2  3  2  0
  2  4  1  0
  4  5  1  0
  5  6  2  0
  6  7  1  0
  7  8  2  0
  8  9  1  0
  2 10  1  0
 10 11  1  0
 11 12  1  0
 12 13  1  0
 13 14  1  0
 14 15  1  0
 15 16  2  0
 16 17  1  0
 17 18  1  0
 18 19  2  0
 19 20  1  0
 20 21  2  0
 21 22  1  0
 22 23  2  0
  9  5  1  0
 14 10  1  0
 23 15  1  0
 23 18  1  0
  4 24  1  0
  4 25  1  0
  6 26  1  0
  7 27  1  0
  8 28  1  0
 11 29  1  0
 11 30  1  0
 12 31  1  0
 12 32  1  0
 13 33  1  0
 13 34  1  0
 14 35  1  6
 16 36  1  0
 17 37  1  0
 19 38  1  0
 20 39  1  0
 21 40  1  0
 22 41  1  0
M  END
>  <smiles>  (14) 
O=S(=O)(Cc1cccs1)N1CCCC1c1c[nH]c2ccccc12

>  <score_type>  (14) 
oracle

>  <origin>  (14) 
autodockgpu

>  <m_score__min__energy>  (14) 
-7.3799999999999999

>  <m_primary>  (14) 
energy

>  <meeko>  (14) 
{"free_energy": -6.35, "intermolecular_energy": -7.54, "internal_energy": -1.77, "cluster_size": 7, "cluster_id": 4, "rank_in_cluster": 6}

>  <energy>  (14) 
-6.19

>  <cluster_rmsd>  (14) 
0.0

>  <rmsd>  (14) 
273.12

>  <cluster>  (14) 
5

$$$$

     RDKit          3D

 41 44  0  0  1  0  0  0  0  0999 V2000
  141.8250   78.7040  224.5230 O   0  0  0  0  0  0  0  0  0  0  0  0
  141.3800   79.7550  223.5110 S   0  0  0  0  0  0  0  0  0  0  0  0
  141.6280   81.0760  224.2320 O   0  0  0  0  0  0  0  0  0  0  0  0
  142.4350   79.6450  222.1370 C   0  0  0  0  0  0  0  0  0  0  0  0
  141.9850   80.5190  221.0650 C   0  0  0  0  0  0  0  0  0  0  0  0
  141.8970   80.3080  219.7460 C   0  0  0  0  0  0  0  0  0  0  0  0
  141.4470   81.2700  218.9230 C   0  0  0  0  0  0  0  0  0  0  0  0
  141.0860   82.4710  219.5200 C   0  0  0  0  0  0  0  0  0  0  0  0
  141.4000   82.2180  221.3120 S   0  0  0  0  0  0  0  0  0  0  0  0
  139.7340   79.5600  223.2670 N   0  0  0  0  0  0  0  0  0  0  0  0
  138.8730   80.6610  223.4490 C   0  0  0  0  0  0  0  0  0  0  0  0
  137.8470   80.6900  222.3340 C   0  0  0  0  0  0  0  0  0  0  0  0
  138.0500   79.3840  221.6190 C   0  0  0  0  0  0  0  0  0  0  0  0
  139.4360   78.9270  222.0180 C   0  0  2  0  0  0  0  0  0  0  0  0
  139.6220   77.4740  221.9910 C   0  0  0  0  0  0  0  0  0  0  0  0
  138.7990   76.5580  222.6420 C   0  0  0  0  0  0  0  0  0  0  0  0
  139.2280   75.3100  222.4290 N   0  0  0  0  0  0  0  0  0  0  0  0
  140.3330   75.3900  221.6380 C   0  0  0  0  0  0  0  0  0  0  0  0
  141.1430   74.4030  221.1350 C   0  0  0  0  0  0  0  0  0  0  0  0
  142.2300   74.7560  220.3380 C   0  0  0  0  0  0  0  0  0  0  0  0
  142.4990   76.0970  220.0500 C   0  0  0  0  0  0  0  0  0  0  0  0
  141.6630   77.0770  220.5720 C   0  0  0  0  0  0  0  0  0  0  0  0
  140.5900   76.7210  221.3590 C   0  0  0  0  0  0  0  0  0  0  0  0
  143.4511   79.9392  222.4388 H   0  0  0  0  0  0  0  0  0  0  0  0
  142.4277   78.6078  221.7708 H   0  0  0  0  0  0  0  0  0  0  0  0
  142.1969   79.3346  219.3306 H   0  0  0  0  0  0  0  0  0  0  0  0
  141.3688   81.1150  217.8368 H   0  0  0  0  0  0  0  0  0  0  0  0
  140.6975   83.3748  219.0279 H   0  0  0  0  0  0  0  0  0  0  0  0
  138.3595   80.5687  224.4174 H   0  0  0  0  0  0  0  0  0  0  0  0
  139.4593   81.5916  223.4319 H   0  0  0  0  0  0  0  0  0  0  0  0
  136.8278   80.7580  222.7422 H   0  0  0  0  0  0  0  0  0  0  0  0
  137.9673   81.5591  221.6705 H   0  0  0  0  0  0  0  0  0  0  0  0
  137.2951   78.6492  221.9355 H   0  0  0  0  0  0  0  0  0  0  0  0
  137.9495   79.4912  220.5289 H   0  0  0  0  0  0  0  0  0  0  0  0
  140.1753   79.2420  221.2669 H   0  0  0  0  0  0  0  0  0  0  0  0
  137.9194   76.8242  223.2466 H   0  0  0  0  0  0  0  0  0  0  0  0
  138.7980   74.4350  222.7960 H   0  0  0  0  0  0  0  0  0  0  0  0
  140.9366   73.3459  221.3583 H   0  0  0  0  0  0  0  0  0  0  0  0
  142.8837   73.9706  219.9309 H   0  0  0  0  0  0  0  0  0  0  0  0
  143.3581   76.3722  219.4206 H   0  0  0  0  0  0  0  0  0  0  0  0
  141.8584   78.1378  220.3565 H   0  0  0  0  0  0  0  0  0  0  0  0
  1  2  2  0
  2  3  2  0
  2  4  1  0
  4  5  1  0
  5  6  2  0
  6  7  1  0
  7  8  2  0
  8  9  1  0
  2 10  1  0
 10 11  1  0
 11 12  1  0
 12 13  1  0
 13 14  1  0
 14 15  1  0
 15 16  2  0
 16 17  1  0
 17 18  1  0
 18 19  2  0
 19 20  1  0
 20 21  2  0
 21 22  1  0
 22 23  2  0
  9  5  1  0
 14 10  1  0
 23 15  1  0
 23 18  1  0
  4 24  1  0
  4 25  1  0
  6 26  1  0
  7 27  1  0
  8 28  1  0
 11 29  1  0
 11 30  1  0
 12 31  1  0
 12 32  1  0
 13 33  1  0
 13 34  1  0
 14 35  1  6
 16 36  1  0
 17 37  1  0
 19 38  1  0
 20 39  1  0
 21 40  1  0
 22 41  1  0
M  END
>  <smiles>  (15) 
O=S(=O)(Cc1cccs1)N1CCCC1c1c[nH]c2ccccc12

>  <score_type>  (15) 
oracle

>  <origin>  (15) 
autodockgpu

>  <m_score__min__energy>  (15) 
-7.3799999999999999

>  <m_primary>  (15) 
energy

>  <meeko>  (15) 
{"free_energy": -6.36, "intermolecular_energy": -7.55, "internal_energy": -1.76, "cluster_size": 7, "cluster_id": 4, "rank_in_cluster": 4}

>  <energy>  (15) 
-6.19

>  <cluster_rmsd>  (15) 
0.07

>  <rmsd>  (15) 
273.12

>  <cluster>  (15) 
5

$$$$

     RDKit          3D

 41 44  0  0  1  0  0  0  0  0999 V2000
  141.0750   76.9360  223.1000 O   0  0  0  0  0  0  0  0  0  0  0  0
  140.6890   76.5930  221.6650 S   0  0  0  0  0  0  0  0  0  0  0  0
  140.6300   75.0700  221.6620 O   0  0  0  0  0  0  0  0  0  0  0  0
  139.1000   77.2290  221.3790 C   0  0  0  0  0  0  0  0  0  0  0  0
  138.8910   78.4610  222.1250 C   0  0  0  0  0  0  0  0  0  0  0  0
  139.1650   78.7650  223.4000 C   0  0  0  0  0  0  0  0  0  0  0  0
  138.8860   79.9830  223.8930 C   0  0  0  0  0  0  0  0  0  0  0  0
  138.3050   80.8850  223.0100 C   0  0  0  0  0  0  0  0  0  0  0  0
  138.1560   79.9640  221.4270 S   0  0  0  0  0  0  0  0  0  0  0  0
  141.9380   77.0990  220.6680 N   0  0  0  0  0  0  0  0  0  0  0  0
  142.7000   76.1380  219.9730 C   0  0  0  0  0  0  0  0  0  0  0  0
  142.9420   76.6150  218.5550 C   0  0  0  0  0  0  0  0  0  0  0  0
  142.4460   78.0330  218.5590 C   0  0  0  0  0  0  0  0  0  0  0  0
  141.5320   78.1300  219.7610 C   0  0  2  0  0  0  0  0  0  0  0  0
  141.4370   79.4720  220.3390 C   0  0  0  0  0  0  0  0  0  0  0  0
  140.9010   80.5800  219.6870 C   0  0  0  0  0  0  0  0  0  0  0  0
  140.9560   81.6590  220.4760 N   0  0  0  0  0  0  0  0  0  0  0  0
  141.5250   81.2740  221.6500 C   0  0  0  0  0  0  0  0  0  0  0  0
  141.8070   81.9960  222.7830 C   0  0  0  0  0  0  0  0  0  0  0  0
  142.4030   81.3550  223.8680 C   0  0  0  0  0  0  0  0  0  0  0  0
  142.7140   79.9930  223.8090 C   0  0  0  0  0  0  0  0  0  0  0  0
  142.4190   79.2860  222.6510 C   0  0  0  0  0  0  0  0  0  0  0  0
  141.8290   79.9260  221.5830 C   0  0  0  0  0  0  0  0  0  0  0  0
  138.9823   77.4342  220.3047 H   0  0  0  0  0  0  0  0  0  0  0  0
  138.3595   76.4869  221.7121 H   0  0  0  0  0  0  0  0  0  0  0  0
  139.6245   78.0076  224.0520 H   0  0  0  0  0  0  0  0  0  0  0  0
  139.1052   80.2513  224.9370 H   0  0  0  0  0  0  0  0  0  0  0  0
  138.0011   81.9223  223.2138 H   0  0  0  0  0  0  0  0  0  0  0  0
  143.6648   75.9968  220.4821 H   0  0  0  0  0  0  0  0  0  0  0  0
  142.1542   75.1832  219.9508 H   0  0  0  0  0  0  0  0  0  0  0  0
  144.0129   76.5761  218.3068 H   0  0  0  0  0  0  0  0  0  0  0  0
  142.4334   75.9907  217.8057 H   0  0  0  0  0  0  0  0  0  0  0  0
  143.2868   78.7355  218.6561 H   0  0  0  0  0  0  0  0  0  0  0  0
  141.9251   78.2891  217.6246 H   0  0  0  0  0  0  0  0  0  0  0  0
  140.4863   77.9617  219.4639 H   0  0  0  0  0  0  0  0  0  0  0  0
  140.4902   80.5693  218.6666 H   0  0  0  0  0  0  0  0  0  0  0  0
  140.6240   82.6170  220.2380 H   0  0  0  0  0  0  0  0  0  0  0  0
  141.5655   83.0679  222.8341 H   0  0  0  0  0  0  0  0  0  0  0  0
  142.6310   81.9265  224.7798 H   0  0  0  0  0  0  0  0  0  0  0  0
  143.1849   79.4897  224.6663 H   0  0  0  0  0  0  0  0  0  0  0  0
  142.6566   78.2139  222.5862 H   0  0  0  0  0  0  0  0  0  0  0  0
  1  2  2  0
  2  3  2  0
  2  4  1  0
  4  5  1  0
  5  6  2  0
  6  7  1  0
  7  8  2  0
  8  9  1  0
  2 10  1  0
 10 11  1  0
 11 12  1  0
 12 13  1  0
 13 14  1  0
 14 15  1  0
 15 16  2  0
 16 17  1  0
 17 18  1  0
 18 19  2  0
 19 20  1  0
 20 21  2  0
 21 22  1  0
 22 23  2  0
  9  5  1  0
 14 10  1  0
 23 15  1  0
 23 18  1  0
  4 24  1  0
  4 25  1  0
  6 26  1  0
  7 27  1  0
  8 28  1  0
 11 29  1  0
 11 30  1  0
 12 31  1  0
 12 32  1  0
 13 33  1  0
 13 34  1  0
 14 35  1  6
 16 36  1  0
 17 37  1  0
 19 38  1  0
 20 39  1  0
 21 40  1  0
 22 41  1  0
M  END
>  <smiles>  (16) 
O=S(=O)(Cc1cccs1)N1CCCC1c1c[nH]c2ccccc12

>  <score_type>  (16) 
oracle

>  <origin>  (16) 
autodockgpu

>  <m_score__min__energy>  (16) 
-7.3799999999999999

>  <m_primary>  (16) 
energy

>  <meeko>  (16) 
{"free_energy": -6.18, "intermolecular_energy": -7.37, "internal_energy": -1.97, "cluster_size": 7, "cluster_id": 5, "rank_in_cluster": 7}

>  <energy>  (16) 
-6.19

>  <cluster_rmsd>  (16) 
0.08

>  <rmsd>  (16) 
273.12

>  <cluster>  (16) 
5

$$$$

     RDKit          3D

 41 44  0  0  1  0  0  0  0  0999 V2000
  141.0670   76.9010  223.0940 O   0  0  0  0  0  0  0  0  0  0  0  0
  140.6870   76.5440  221.6600 S   0  0  0  0  0  0  0  0  0  0  0  0
  140.6280   75.0210  221.6720 O   0  0  0  0  0  0  0  0  0  0  0  0
  139.0990   77.1780  221.3620 C   0  0  0  0  0  0  0  0  0  0  0  0
  138.8860   78.4140  222.0980 C   0  0  0  0  0  0  0  0  0  0  0  0
  139.1490   78.7260  223.3730 C   0  0  0  0  0  0  0  0  0  0  0  0
  138.8670   79.9480  223.8560 C   0  0  0  0  0  0  0  0  0  0  0  0
  138.2970   80.8450  222.9620 C   0  0  0  0  0  0  0  0  0  0  0  0
  138.1600   79.9150  221.3830 S   0  0  0  0  0  0  0  0  0  0  0  0
  141.9410   77.0400  220.6640 N   0  0  0  0  0  0  0  0  0  0  0  0
  142.7090   76.0730  219.9860 C   0  0  0  0  0  0  0  0  0  0  0  0
  142.9580   76.5310  218.5630 C   0  0  0  0  0  0  0  0  0  0  0  0
  142.4580   77.9480  218.5450 C   0  0  0  0  0  0  0  0  0  0  0  0
  141.5370   78.0580  219.7410 C   0  0  2  0  0  0  0  0  0  0  0  0
  141.4350   79.4070  220.3010 C   0  0  0  0  0  0  0  0  0  0  0  0
  140.9050   80.5060  219.6290 C   0  0  0  0  0  0  0  0  0  0  0  0
  140.9510   81.5950  220.4040 N   0  0  0  0  0  0  0  0  0  0  0  0
  141.5080   81.2260  221.5890 C   0  0  0  0  0  0  0  0  0  0  0  0
  141.7780   81.9630  222.7160 C   0  0  0  0  0  0  0  0  0  0  0  0
  142.3630   81.3360  223.8140 C   0  0  0  0  0  0  0  0  0  0  0  0
  142.6750   79.9750  223.7770 C   0  0  0  0  0  0  0  0  0  0  0  0
  142.3930   79.2520  222.6240 C   0  0  0  0  0  0  0  0  0  0  0  0
  141.8140   79.8780  221.5420 C   0  0  0  0  0  0  0  0  0  0  0  0
  138.9866   77.3760  220.2858 H   0  0  0  0  0  0  0  0  0  0  0  0
  138.3571   76.4380  221.6966 H   0  0  0  0  0  0  0  0  0  0  0  0
  139.6018   77.9723  224.0340 H   0  0  0  0  0  0  0  0  0  0  0  0
  139.0759   80.2223  224.9006 H   0  0  0  0  0  0  0  0  0  0  0  0
  137.9939   81.8844  223.1565 H   0  0  0  0  0  0  0  0  0  0  0  0
  143.6713   75.9414  220.5023 H   0  0  0  0  0  0  0  0  0  0  0  0
  142.1654   75.1168  219.9731 H   0  0  0  0  0  0  0  0  0  0  0  0
  144.0304   76.4916  218.3215 H   0  0  0  0  0  0  0  0  0  0  0  0
  142.4556   75.8950  217.8193 H   0  0  0  0  0  0  0  0  0  0  0  0
  143.2963   78.6542  218.6372 H   0  0  0  0  0  0  0  0  0  0  0  0
  141.9417   78.1903  217.6044 H   0  0  0  0  0  0  0  0  0  0  0  0
  140.4936   77.8827  219.4402 H   0  0  0  0  0  0  0  0  0  0  0  0
  140.5048   80.4816  218.6047 H   0  0  0  0  0  0  0  0  0  0  0  0
  140.6200   82.5500  220.1510 H   0  0  0  0  0  0  0  0  0  0  0  0
  141.5353   83.0353  222.7513 H   0  0  0  0  0  0  0  0  0  0  0  0
  142.5817   81.9195  224.7205 H   0  0  0  0  0  0  0  0  0  0  0  0
  143.1364   79.4834  224.6462 H   0  0  0  0  0  0  0  0  0  0  0  0
  142.6323   78.1794  222.5754 H   0  0  0  0  0  0  0  0  0  0  0  0
  1  2  2  0
  2  3  2  0
  2  4  1  0
  4  5  1  0
  5  6  2  0
  6  7  1  0
  7  8  2  0
  8  9  1  0
  2 10  1  0
 10 11  1  0
 11 12  1  0
 12 13  1  0
 13 14  1  0
 14 15  1  0
 15 16  2  0
 16 17  1  0
 17 18  1  0
 18 19  2  0
 19 20  1  0
 20 21  2  0
 21 22  1  0
 22 23  2  0
  9  5  1  0
 14 10  1  0
 23 15  1  0
 23 18  1  0
  4 24  1  0
  4 25  1  0
  6 26  1  0
  7 27  1  0
  8 28  1  0
 11 29  1  0
 11 30  1  0
 12 31  1  0
 12 32  1  0
 13 33  1  0
 13 34  1  0
 14 35  1  6
 16 36  1  0
 17 37  1  0
 19 38  1  0
 20 39  1  0
 21 40  1  0
 22 41  1  0
M  END
>  <smiles>  (17) 
O=S(=O)(Cc1cccs1)N1CCCC1c1c[nH]c2ccccc12

>  <score_type>  (17) 
oracle

>  <origin>  (17) 
autodockgpu

>  <m_score__min__energy>  (17) 
-7.3799999999999999

>  <m_primary>  (17) 
energy

>  <meeko>  (17) 
{"free_energy": -6.18, "intermolecular_energy": -7.37, "internal_energy": -1.97, "cluster_size": 7, "cluster_id": 5, "rank_in_cluster": 5}

>  <energy>  (17) 
-6.18

>  <cluster_rmsd>  (17) 
0.07

>  <rmsd>  (17) 
273.11

>  <cluster>  (17) 
5

$$$$

     RDKit          3D

 41 44  0  0  1  0  0  0  0  0999 V2000
  141.8270   78.7470  224.5780 O   0  0  0  0  0  0  0  0  0  0  0  0
  141.4270   79.7800  223.5300 S   0  0  0  0  0  0  0  0  0  0  0  0
  141.6790   81.1130  224.2240 O   0  0  0  0  0  0  0  0  0  0  0  0
  142.5140   79.6170  222.1860 C   0  0  0  0  0  0  0  0  0  0  0  0
  142.1100   80.4770  221.0840 C   0  0  0  0  0  0  0  0  0  0  0  0
  142.1590   80.2800  219.7610 C   0  0  0  0  0  0  0  0  0  0  0  0
  141.7250   81.2230  218.9080 C   0  0  0  0  0  0  0  0  0  0  0  0
  141.2350   82.3910  219.4790 C   0  0  0  0  0  0  0  0  0  0  0  0
  141.3970   82.1320  221.2910 S   0  0  0  0  0  0  0  0  0  0  0  0
  139.7840   79.6060  223.2480 N   0  0  0  0  0  0  0  0  0  0  0  0
  138.9350   80.7200  223.4020 C   0  0  0  0  0  0  0  0  0  0  0  0
  137.9360   80.7560  222.2630 C   0  0  0  0  0  0  0  0  0  0  0  0
  138.1370   79.4420  221.5620 C   0  0  0  0  0  0  0  0  0  0  0  0
  139.5070   78.9680  221.9960 C   0  0  2  0  0  0  0  0  0  0  0  0
  139.6720   77.5130  221.9850 C   0  0  0  0  0  0  0  0  0  0  0  0
  138.8370   76.6150  222.6440 C   0  0  0  0  0  0  0  0  0  0  0  0
  139.2480   75.3580  222.4430 N   0  0  0  0  0  0  0  0  0  0  0  0
  140.3530   75.4160  221.6520 C   0  0  0  0  0  0  0  0  0  0  0  0
  141.1500   74.4130  221.1580 C   0  0  0  0  0  0  0  0  0  0  0  0
  142.2410   74.7430  220.3560 C   0  0  0  0  0  0  0  0  0  0  0  0
  142.5280   76.0770  220.0550 C   0  0  0  0  0  0  0  0  0  0  0  0
  141.7070   77.0730  220.5680 C   0  0  0  0  0  0  0  0  0  0  0  0
  140.6300   76.7400  221.3590 C   0  0  0  0  0  0  0  0  0  0  0  0
  143.5284   79.8960  222.5073 H   0  0  0  0  0  0  0  0  0  0  0  0
  142.4935   78.5723  221.8422 H   0  0  0  0  0  0  0  0  0  0  0  0
  142.5596   79.3343  219.3672 H   0  0  0  0  0  0  0  0  0  0  0  0
  141.7559   81.0783  217.8180 H   0  0  0  0  0  0  0  0  0  0  0  0
  140.8376   83.2760  218.9605 H   0  0  0  0  0  0  0  0  0  0  0  0
  138.3976   80.6418  224.3586 H   0  0  0  0  0  0  0  0  0  0  0  0
  139.5349   81.6419  223.3924 H   0  0  0  0  0  0  0  0  0  0  0  0
  136.9086   80.8415  222.6465 H   0  0  0  0  0  0  0  0  0  0  0  0
  138.0843   81.6185  221.5967 H   0  0  0  0  0  0  0  0  0  0  0  0
  137.3646   78.7202  221.8660 H   0  0  0  0  0  0  0  0  0  0  0  0
  138.0633   79.5429  220.4691 H   0  0  0  0  0  0  0  0  0  0  0  0
  140.2679   79.2663  221.2598 H   0  0  0  0  0  0  0  0  0  0  0  0
  137.9614   76.8994  223.2460 H   0  0  0  0  0  0  0  0  0  0  0  0
  138.8060   74.4940  222.8200 H   0  0  0  0  0  0  0  0  0  0  0  0
  140.9299   73.3611  221.3926 H   0  0  0  0  0  0  0  0  0  0  0  0
  142.8831   73.9446  219.9556 H   0  0  0  0  0  0  0  0  0  0  0  0
  143.3901   76.3342  219.4220 H   0  0  0  0  0  0  0  0  0  0  0  0
  141.9173   78.1288  220.3422 H   0  0  0  0  0  0  0  0  0  0  0  0
  1  2  2  0
  2  3  2  0
  2  4  1  0
  4  5  1  0
  5  6  2  0
  6  7  1  0
  7  8  2  0
  8  9  1  0
  2 10  1  0
 10 11  1  0
 11 12  1  0
 12 13  1  0
 13 14  1  0
 14 15  1  0
 15 16  2  0
 16 17  1  0
 17 18  1  0
 18 19  2  0
 19 20  1  0
 20 21  2  0
 21 22  1  0
 22 23  2  0
  9  5  1  0
 14 10  1  0
 23 15  1  0
 23 18  1  0
  4 24  1  0
  4 25  1  0
  6 26  1  0
  7 27  1  0
  8 28  1  0
 11 29  1  0
 11 30  1  0
 12 31  1  0
 12 32  1  0
 13 33  1  0
 13 34  1  0
 14 35  1  6
 16 36  1  0
 17 37  1  0
 19 38  1  0
 20 39  1  0
 21 40  1  0
 22 41  1  0
M  END
>  <smiles>  (18) 
O=S(=O)(Cc1cccs1)N1CCCC1c1c[nH]c2ccccc12

>  <score_type>  (18) 
oracle

>  <origin>  (18) 
autodockgpu

>  <m_score__min__energy>  (18) 
-7.3799999999999999

>  <m_primary>  (18) 
energy

>  <meeko>  (18) 
{"free_energy": -6.37, "intermolecular_energy": -7.56, "internal_energy": -1.75, "cluster_size": 7, "cluster_id": 4, "rank_in_cluster": 1}

>  <energy>  (18) 
-6.18

>  <cluster_rmsd>  (18) 
0.06

>  <rmsd>  (18) 
273.1

>  <cluster>  (18) 
5

$$$$

     RDKit          3D

 41 44  0  0  1  0  0  0  0  0999 V2000
  141.8240   78.7520  224.5480 O   0  0  0  0  0  0  0  0  0  0  0  0
  141.4240   79.7940  223.5080 S   0  0  0  0  0  0  0  0  0  0  0  0
  141.6650   81.1210  224.2180 O   0  0  0  0  0  0  0  0  0  0  0  0
  142.5200   79.6510  222.1700 C   0  0  0  0  0  0  0  0  0  0  0  0
  142.1070   80.5050  221.0670 C   0  0  0  0  0  0  0  0  0  0  0  0
  142.1290   80.2950  219.7450 C   0  0  0  0  0  0  0  0  0  0  0  0
  141.6930   81.2350  218.8900 C   0  0  0  0  0  0  0  0  0  0  0  0
  141.2290   82.4150  219.4590 C   0  0  0  0  0  0  0  0  0  0  0  0
  141.4210   82.1720  221.2700 S   0  0  0  0  0  0  0  0  0  0  0  0
  139.7840   79.6140  223.2150 N   0  0  0  0  0  0  0  0  0  0  0  0
  138.9300   80.7250  223.3620 C   0  0  0  0  0  0  0  0  0  0  0  0
  137.9390   80.7560  222.2150 C   0  0  0  0  0  0  0  0  0  0  0  0
  138.1500   79.4430  221.5170 C   0  0  0  0  0  0  0  0  0  0  0  0
  139.5180   78.9740  221.9620 C   0  0  2  0  0  0  0  0  0  0  0  0
  139.6890   77.5190  221.9520 C   0  0  0  0  0  0  0  0  0  0  0  0
  138.8490   76.6190  222.6030 C   0  0  0  0  0  0  0  0  0  0  0  0
  139.2670   75.3640  222.4070 N   0  0  0  0  0  0  0  0  0  0  0  0
  140.3810   75.4240  221.6280 C   0  0  0  0  0  0  0  0  0  0  0  0
  141.1860   74.4240  221.1430 C   0  0  0  0  0  0  0  0  0  0  0  0
  142.2860   74.7580  220.3540 C   0  0  0  0  0  0  0  0  0  0  0  0
  142.5710   76.0930  220.0560 C   0  0  0  0  0  0  0  0  0  0  0  0
  141.7410   77.0860  220.5590 C   0  0  0  0  0  0  0  0  0  0  0  0
  140.6560   76.7490  221.3380 C   0  0  0  0  0  0  0  0  0  0  0  0
  143.5278   79.9469  222.4968 H   0  0  0  0  0  0  0  0  0  0  0  0
  142.5192   78.6065  221.8251 H   0  0  0  0  0  0  0  0  0  0  0  0
  142.5092   79.3399  219.3536 H   0  0  0  0  0  0  0  0  0  0  0  0
  141.7027   81.0795  217.8011 H   0  0  0  0  0  0  0  0  0  0  0  0
  140.8336   83.3001  218.9392 H   0  0  0  0  0  0  0  0  0  0  0  0
  138.3858   80.6457  224.3147 H   0  0  0  0  0  0  0  0  0  0  0  0
  139.5265   81.6492  223.3563 H   0  0  0  0  0  0  0  0  0  0  0  0
  136.9084   80.8379  222.5908 H   0  0  0  0  0  0  0  0  0  0  0  0
  138.0891   81.6185  221.5490 H   0  0  0  0  0  0  0  0  0  0  0  0
  137.3777   78.7188  221.8154 H   0  0  0  0  0  0  0  0  0  0  0  0
  138.0846   79.5429  220.4235 H   0  0  0  0  0  0  0  0  0  0  0  0
  140.2835   79.2746  221.2315 H   0  0  0  0  0  0  0  0  0  0  0  0
  137.9659   76.9008  223.1952 H   0  0  0  0  0  0  0  0  0  0  0  0
  138.8240   74.4970  222.7790 H   0  0  0  0  0  0  0  0  0  0  0  0
  140.9660   73.3713  221.3740 H   0  0  0  0  0  0  0  0  0  0  0  0
  142.9363   73.9621  219.9620 H   0  0  0  0  0  0  0  0  0  0  0  0
  143.4392   76.3532  219.4327 H   0  0  0  0  0  0  0  0  0  0  0  0
  141.9500   78.1425  220.3353 H   0  0  0  0  0  0  0  0  0  0  0  0
  1  2  2  0
  2  3  2  0
  2  4  1  0
  4  5  1  0
  5  6  2  0
  6  7  1  0
  7  8  2  0
  8  9  1  0
  2 10  1  0
 10 11  1  0
 11 12  1  0
 12 13  1  0
 13 14  1  0
 14 15  1  0
 15 16  2  0
 16 17  1  0
 17 18  1  0
 18 19  2  0
 19 20  1  0
 20 21  2  0
 21 22  1  0
 22 23  2  0
  9  5  1  0
 14 10  1  0
 23 15  1  0
 23 18  1  0
  4 24  1  0
  4 25  1  0
  6 26  1  0
  7 27  1  0
  8 28  1  0
 11 29  1  0
 11 30  1  0
 12 31  1  0
 12 32  1  0
 13 33  1  0
 13 34  1  0
 14 35  1  6
 16 36  1  0
 17 37  1  0
 19 38  1  0
 20 39  1  0
 21 40  1  0
 22 41  1  0
M  END
>  <smiles>  (19) 
O=S(=O)(Cc1cccs1)N1CCCC1c1c[nH]c2ccccc12

>  <score_type>  (19) 
oracle

>  <origin>  (19) 
autodockgpu

>  <m_score__min__energy>  (19) 
-7.3799999999999999

>  <m_primary>  (19) 
energy

>  <meeko>  (19) 
{"free_energy": -6.36, "intermolecular_energy": -7.55, "internal_energy": -1.77, "cluster_size": 7, "cluster_id": 4, "rank_in_cluster": 3}

>  <energy>  (19) 
-6.18

>  <cluster_rmsd>  (19) 
0.07

>  <rmsd>  (19) 
273.11

>  <cluster>  (19) 
5

$$$$

     RDKit          3D

 41 44  0  0  1  0  0  0  0  0999 V2000
  141.0650   76.8960  223.0950 O   0  0  0  0  0  0  0  0  0  0  0  0
  140.6940   76.5570  221.6550 S   0  0  0  0  0  0  0  0  0  0  0  0
  140.6070   75.0350  221.6560 O   0  0  0  0  0  0  0  0  0  0  0  0
  139.1220   77.2230  221.3440 C   0  0  0  0  0  0  0  0  0  0  0  0
  138.9170   78.4460  222.1030 C   0  0  0  0  0  0  0  0  0  0  0  0
  139.1490   78.7220  223.3920 C   0  0  0  0  0  0  0  0  0  0  0  0
  138.8820   79.9390  223.8950 C   0  0  0  0  0  0  0  0  0  0  0  0
  138.3600   80.8710  223.0070 C   0  0  0  0  0  0  0  0  0  0  0  0
  138.2480   79.9810  221.4040 S   0  0  0  0  0  0  0  0  0  0  0  0
  141.9680   77.0360  220.6760 N   0  0  0  0  0  0  0  0  0  0  0  0
  142.7380   76.0570  220.0160 C   0  0  0  0  0  0  0  0  0  0  0  0
  143.0140   76.5050  218.5950 C   0  0  0  0  0  0  0  0  0  0  0  0
  142.5280   77.9260  218.5610 C   0  0  0  0  0  0  0  0  0  0  0  0
  141.5890   78.0510  219.7410 C   0  0  2  0  0  0  0  0  0  0  0  0
  141.4900   79.4050  220.2910 C   0  0  0  0  0  0  0  0  0  0  0  0
  140.9960   80.5070  219.6000 C   0  0  0  0  0  0  0  0  0  0  0  0
  141.0350   81.6000  220.3700 N   0  0  0  0  0  0  0  0  0  0  0  0
  141.5520   81.2290  221.5720 C   0  0  0  0  0  0  0  0  0  0  0  0
  141.8000   81.9670  222.7030 C   0  0  0  0  0  0  0  0  0  0  0  0
  142.3440   81.3380  223.8210 C   0  0  0  0  0  0  0  0  0  0  0  0
  142.6380   79.9720  223.7990 C   0  0  0  0  0  0  0  0  0  0  0  0
  142.3780   79.2470  222.6420 C   0  0  0  0  0  0  0  0  0  0  0  0
  141.8400   79.8760  221.5410 C   0  0  0  0  0  0  0  0  0  0  0  0
  139.0312   77.4458  220.2706 H   0  0  0  0  0  0  0  0  0  0  0  0
  138.3624   76.4884  221.6496 H   0  0  0  0  0  0  0  0  0  0  0  0
  139.5636   77.9424  224.0480 H   0  0  0  0  0  0  0  0  0  0  0  0
  139.0666   80.1837  224.9514 H   0  0  0  0  0  0  0  0  0  0  0  0
  138.0762   81.9127  223.2174 H   0  0  0  0  0  0  0  0  0  0  0  0
  143.6906   75.9192  220.5486 H   0  0  0  0  0  0  0  0  0  0  0  0
  142.1860   75.1057  219.9999 H   0  0  0  0  0  0  0  0  0  0  0  0
  144.0898   76.4542  218.3710 H   0  0  0  0  0  0  0  0  0  0  0  0
  142.5174   75.8697  217.8468 H   0  0  0  0  0  0  0  0  0  0  0  0
  143.3713   78.6249  218.6631 H   0  0  0  0  0  0  0  0  0  0  0  0
  142.0295   78.1680  217.6108 H   0  0  0  0  0  0  0  0  0  0  0  0
  140.5491   77.8825  219.4244 H   0  0  0  0  0  0  0  0  0  0  0  0
  140.6251   80.4827  218.5647 H   0  0  0  0  0  0  0  0  0  0  0  0
  140.7260   82.5580  220.1030 H   0  0  0  0  0  0  0  0  0  0  0  0
  141.5718   83.0428  222.7262 H   0  0  0  0  0  0  0  0  0  0  0  0
  142.5442   81.9230  224.7308 H   0  0  0  0  0  0  0  0  0  0  0  0
  143.0682   79.4785  224.6830 H   0  0  0  0  0  0  0  0  0  0  0  0
  142.6019   78.1707  222.6056 H   0  0  0  0  0  0  0  0  0  0  0  0
  1  2  2  0
  2  3  2  0
  2  4  1  0
  4  5  1  0
  5  6  2  0
  6  7  1  0
  7  8  2  0
  8  9  1  0
  2 10  1  0
 10 11  1  0
 11 12  1  0
 12 13  1  0
 13 14  1  0
 14 15  1  0
 15 16  2  0
 16 17  1  0
 17 18  1  0
 18 19  2  0
 19 20  1  0
 20 21  2  0
 21 22  1  0
 22 23  2  0
  9  5  1  0
 14 10  1  0
 23 15  1  0
 23 18  1  0
  4 24  1  0
  4 25  1  0
  6 26  1  0
  7 27  1  0
  8 28  1  0
 11 29  1  0
 11 30  1  0
 12 31  1  0
 12 32  1  0
 13 33  1  0
 13 34  1  0
 14 35  1  6
 16 36  1  0
 17 37  1  0
 19 38  1  0
 20 39  1  0
 21 40  1  0
 22 41  1  0
M  END
>  <smiles>  (20) 
O=S(=O)(Cc1cccs1)N1CCCC1c1c[nH]c2ccccc12

>  <score_type>  (20) 
oracle

>  <origin>  (20) 
autodockgpu

>  <m_score__min__energy>  (20) 
-7.3799999999999999

>  <m_primary>  (20) 
energy

>  <meeko>  (20) 
{"free_energy": -6.19, "intermolecular_energy": -7.38, "internal_energy": -1.96, "cluster_size": 7, "cluster_id": 5, "rank_in_cluster": 1}

>  <energy>  (20) 
-6.18

>  <cluster_rmsd>  (20) 
0.09

>  <rmsd>  (20) 
273.14

>  <cluster>  (20) 
5

$$$$

     RDKit          3D

 41 44  0  0  1  0  0  0  0  0999 V2000
  141.7540   81.4290  224.2250 O   0  0  0  0  0  0  0  0  0  0  0  0
  142.3680   80.5090  223.2420 S   0  0  0  0  0  0  0  0  0  0  0  0
  143.8600   80.5150  223.4570 O   0  0  0  0  0  0  0  0  0  0  0  0
  141.8390   78.8290  223.4480 C   0  0  0  0  0  0  0  0  0  0  0  0
  140.4130   78.6250  223.2410 C   0  0  0  0  0  0  0  0  0  0  0  0
  139.7610   77.5920  222.6590 C   0  0  0  0  0  0  0  0  0  0  0  0
  138.4300   77.6100  222.5730 C   0  0  0  0  0  0  0  0  0  0  0  0
  137.7660   78.7180  223.1010 C   0  0  0  0  0  0  0  0  0  0  0  0
  139.1120   79.7770  223.7470 S   0  0  0  0  0  0  0  0  0  0  0  0
  142.0580   81.0630  221.6370 N   0  0  0  0  0  0  0  0  0  0  0  0
  141.4810   82.3940  221.6330 C   0  0  0  0  0  0  0  0  0  0  0  0
  140.5710   82.3930  220.4020 C   0  0  0  0  0  0  0  0  0  0  0  0
  140.0250   80.9910  220.4970 C   0  0  0  0  0  0  0  0  0  0  0  0
  141.2130   80.1730  220.9170 C   0  0  1  0  0  0  0  0  0  0  0  0
  141.8260   79.5610  219.7110 C   0  0  0  0  0  0  0  0  0  0  0  0
  142.1440   80.3280  218.5870 C   0  0  0  0  0  0  0  0  0  0  0  0
  142.6750   79.5100  217.6850 N   0  0  0  0  0  0  0  0  0  0  0  0
  142.7180   78.2490  218.1660 C   0  0  0  0  0  0  0  0  0  0  0  0
  143.1850   77.0910  217.5750 C   0  0  0  0  0  0  0  0  0  0  0  0
  143.0950   75.9350  218.3220 C   0  0  0  0  0  0  0  0  0  0  0  0
  142.5610   75.9370  219.6140 C   0  0  0  0  0  0  0  0  0  0  0  0
  142.1050   77.1120  220.1700 C   0  0  0  0  0  0  0  0  0  0  0  0
  142.1860   78.2670  219.4410 C   0  0  0  0  0  0  0  0  0  0  0  0
  142.3856   78.2039  222.7266 H   0  0  0  0  0  0  0  0  0  0  0  0
  142.0499   78.5560  224.4925 H   0  0  0  0  0  0  0  0  0  0  0  0
  140.3276   76.7389  222.2575 H   0  0  0  0  0  0  0  0  0  0  0  0
  137.8769   76.7830  222.1038 H   0  0  0  0  0  0  0  0  0  0  0  0
  136.6832   78.9106  223.1237 H   0  0  0  0  0  0  0  0  0  0  0  0
  140.8999   82.5721  222.5499 H   0  0  0  0  0  0  0  0  0  0  0  0
  142.2419   83.1877  221.5993 H   0  0  0  0  0  0  0  0  0  0  0  0
  139.7758   83.1491  220.4790 H   0  0  0  0  0  0  0  0  0  0  0  0
  141.0684   82.6383  219.4520 H   0  0  0  0  0  0  0  0  0  0  0  0
  139.2233   80.9324  221.2479 H   0  0  0  0  0  0  0  0  0  0  0  0
  139.5799   80.6424  219.5534 H   0  0  0  0  0  0  0  0  0  0  0  0
  140.9711   79.3240  221.5733 H   0  0  0  0  0  0  0  0  0  0  0  0
  141.9840   81.4101  218.4706 H   0  0  0  0  0  0  0  0  0  0  0  0
  143.0130   79.7910  216.7390 H   0  0  0  0  0  0  0  0  0  0  0  0
  143.6075   77.0908  216.5594 H   0  0  0  0  0  0  0  0  0  0  0  0
  143.4522   74.9883  217.8906 H   0  0  0  0  0  0  0  0  0  0  0  0
  142.5049   74.9997  220.1870 H   0  0  0  0  0  0  0  0  0  0  0  0
  141.6819   77.1215  221.1853 H   0  0  0  0  0  0  0  0  0  0  0  0
  1  2  2  0
  2  3  2  0
  2  4  1  0
  4  5  1  0
  5  6  2  0
  6  7  1  0
  7  8  2  0
  8  9  1  0
  2 10  1  0
 10 11  1  0
 11 12  1  0
 12 13  1  0
 13 14  1  0
 14 15  1  0
 15 16  2  0
 16 17  1  0
 17 18  1  0
 18 19  2  0
 19 20  1  0
 20 21  2  0
 21 22  1  0
 22 23  2  0
  9  5  1  0
 14 10  1  0
 23 15  1  0
 23 18  1  0
  4 24  1  0
  4 25  1  0
  6 26  1  0
  7 27  1  0
  8 28  1  0
 11 29  1  0
 11 30  1  0
 12 31  1  0
 12 32  1  0
 13 33  1  0
 13 34  1  0
 14 35  1  1
 16 36  1  0
 17 37  1  0
 19 38  1  0
 20 39  1  0
 21 40  1  0
 22 41  1  0
M  END
>  <smiles>  (21) 
O=S(=O)(Cc1cccs1)N1CCCC1c1c[nH]c2ccccc12

>  <score_type>  (21) 
oracle

>  <origin>  (21) 
autodockgpu

>  <m_score__min__energy>  (21) 
-7.6500000000000004

>  <m_primary>  (21) 
energy

>  <meeko>  (21) 
{"free_energy": -6.82, "intermolecular_energy": -8.01, "internal_energy": -1.48, "cluster_size": 11, "cluster_id": 2, "rank_in_cluster": 5}

>  <energy>  (21) 
-7.65

>  <cluster_rmsd>  (21) 
0.0

>  <rmsd>  (21) 
271.94

>  <cluster>  (21) 
1

$$$$

     RDKit          3D

 41 44  0  0  1  0  0  0  0  0999 V2000
  141.9780   81.6390  224.2060 O   0  0  0  0  0  0  0  0  0  0  0  0
  142.2890   80.5520  223.2510 S   0  0  0  0  0  0  0  0  0  0  0  0
  143.7500   80.2070  223.3880 O   0  0  0  0  0  0  0  0  0  0  0  0
  141.3880   79.0620  223.5860 C   0  0  0  0  0  0  0  0  0  0  0  0
  139.9430   79.2070  223.4970 C   0  0  0  0  0  0  0  0  0  0  0  0
  139.1410   80.1970  223.9540 C   0  0  0  0  0  0  0  0  0  0  0  0
  137.8240   80.1270  223.7610 C   0  0  0  0  0  0  0  0  0  0  0  0
  137.3300   79.0120  223.0820 C   0  0  0  0  0  0  0  0  0  0  0  0
  138.8250   78.0230  222.7070 S   0  0  0  0  0  0  0  0  0  0  0  0
  142.0170   81.0890  221.6330 N   0  0  0  0  0  0  0  0  0  0  0  0
  141.4430   82.4210  221.6010 C   0  0  0  0  0  0  0  0  0  0  0  0
  140.5620   82.4070  220.3500 C   0  0  0  0  0  0  0  0  0  0  0  0
  140.0110   81.0080  220.4480 C   0  0  0  0  0  0  0  0  0  0  0  0
  141.1870   80.1920  220.9040 C   0  0  1  0  0  0  0  0  0  0  0  0
  141.8260   79.5660  219.7190 C   0  0  0  0  0  0  0  0  0  0  0  0
  142.1640   80.3190  218.5910 C   0  0  0  0  0  0  0  0  0  0  0  0
  142.7170   79.4900  217.7120 N   0  0  0  0  0  0  0  0  0  0  0  0
  142.7550   78.2360  218.2100 C   0  0  0  0  0  0  0  0  0  0  0  0
  143.2370   77.0720  217.6450 C   0  0  0  0  0  0  0  0  0  0  0  0
  143.1370   75.9260  218.4070 C   0  0  0  0  0  0  0  0  0  0  0  0
  142.5760   75.9440  219.6870 C   0  0  0  0  0  0  0  0  0  0  0  0
  142.1050   77.1250  220.2180 C   0  0  0  0  0  0  0  0  0  0  0  0
  142.1970   78.2700  219.4740 C   0  0  0  0  0  0  0  0  0  0  0  0
  141.7035   78.2975  222.8608 H   0  0  0  0  0  0  0  0  0  0  0  0
  141.6146   78.7821  224.6254 H   0  0  0  0  0  0  0  0  0  0  0  0
  139.5753   81.0577  224.4837 H   0  0  0  0  0  0  0  0  0  0  0  0
  137.1515   80.9185  224.1233 H   0  0  0  0  0  0  0  0  0  0  0  0
  136.2844   78.7808  222.8303 H   0  0  0  0  0  0  0  0  0  0  0  0
  140.8414   82.6105  222.5022 H   0  0  0  0  0  0  0  0  0  0  0  0
  142.2058   83.2132  221.5761 H   0  0  0  0  0  0  0  0  0  0  0  0
  139.7668   83.1654  220.3999 H   0  0  0  0  0  0  0  0  0  0  0  0
  141.0820   82.6401  219.4091 H   0  0  0  0  0  0  0  0  0  0  0  0
  139.1923   80.9595  221.1811 H   0  0  0  0  0  0  0  0  0  0  0  0
  139.5868   80.6499  219.4983 H   0  0  0  0  0  0  0  0  0  0  0  0
  140.9287   79.3505  221.5636 H   0  0  0  0  0  0  0  0  0  0  0  0
  142.0021   81.3986  218.4559 H   0  0  0  0  0  0  0  0  0  0  0  0
  143.0730   79.7590  216.7680 H   0  0  0  0  0  0  0  0  0  0  0  0
  143.6787   77.0589  216.6377 H   0  0  0  0  0  0  0  0  0  0  0  0
  143.5079   74.9750  217.9970 H   0  0  0  0  0  0  0  0  0  0  0  0
  142.5104   75.0142  220.2712 H   0  0  0  0  0  0  0  0  0  0  0  0
  141.6618   77.1472  221.2245 H   0  0  0  0  0  0  0  0  0  0  0  0
  1  2  2  0
  2  3  2  0
  2  4  1  0
  4  5  1  0
  5  6  2  0
  6  7  1  0
  7  8  2  0
  8  9  1  0
  2 10  1  0
 10 11  1  0
 11 12  1  0
 12 13  1  0
 13 14  1  0
 14 15  1  0
 15 16  2  0
 16 17  1  0
 17 18  1  0
 18 19  2  0
 19 20  1  0
 20 21  2  0
 21 22  1  0
 22 23  2  0
  9  5  1  0
 14 10  1  0
 23 15  1  0
 23 18  1  0
  4 24  1  0
  4 25  1  0
  6 26  1  0
  7 27  1  0
  8 28  1  0
 11 29  1  0
 11 30  1  0
 12 31  1  0
 12 32  1  0
 13 33  1  0
 13 34  1  0
 14 35  1  1
 16 36  1  0
 17 37  1  0
 19 38  1  0
 20 39  1  0
 21 40  1  0
 22 41  1  0
M  END
>  <smiles>  (22) 
O=S(=O)(Cc1cccs1)N1CCCC1c1c[nH]c2ccccc12

>  <score_type>  (22) 
oracle

>  <origin>  (22) 
autodockgpu

>  <m_score__min__energy>  (22) 
-7.6500000000000004

>  <m_primary>  (22) 
energy

>  <meeko>  (22) 
{"free_energy": -6.78, "intermolecular_energy": -7.98, "internal_energy": -1.53, "cluster_size": 11, "cluster_id": 2, "rank_in_cluster": 8}

>  <energy>  (22) 
-7.64

>  <cluster_rmsd>  (22) 
0.02

>  <rmsd>  (22) 
271.95

>  <cluster>  (22) 
1

$$$$

     RDKit          3D

 41 44  0  0  1  0  0  0  0  0999 V2000
  135.2900   68.5000  225.3320 O   0  0  0  0  0  0  0  0  0  0  0  0
  135.6630   69.3190  224.1570 S   0  0  0  0  0  0  0  0  0  0  0  0
  135.7590   68.4100  222.9580 O   0  0  0  0  0  0  0  0  0  0  0  0
  134.4480   70.5470  223.7590 C   0  0  0  0  0  0  0  0  0  0  0  0
  134.0500   71.3780  224.8860 C   0  0  0  0  0  0  0  0  0  0  0  0
  134.0430   72.7260  225.0090 C   0  0  0  0  0  0  0  0  0  0  0  0
  133.6340   73.2860  226.1480 C   0  0  0  0  0  0  0  0  0  0  0  0
  133.2260   72.4340  227.1750 C   0  0  0  0  0  0  0  0  0  0  0  0
  133.4400   70.7570  226.4730 S   0  0  0  0  0  0  0  0  0  0  0  0
  137.2120   70.0390  224.4040 N   0  0  0  0  0  0  0  0  0  0  0  0
  137.4510   71.1280  223.4750 C   0  0  0  0  0  0  0  0  0  0  0  0
  138.9630   71.0860  223.2460 C   0  0  0  0  0  0  0  0  0  0  0  0
  139.1710   69.5940  223.2190 C   0  0  0  0  0  0  0  0  0  0  0  0
  138.2670   69.0890  224.3070 C   0  0  1  0  0  0  0  0  0  0  0  0
  139.0630   68.9030  225.5460 C   0  0  0  0  0  0  0  0  0  0  0  0
  139.2130   67.6430  226.1320 C   0  0  0  0  0  0  0  0  0  0  0  0
  139.9730   67.7950  227.2120 N   0  0  0  0  0  0  0  0  0  0  0  0
  140.3240   69.0900  227.3570 C   0  0  0  0  0  0  0  0  0  0  0  0
  141.0980   69.6950  228.3280 C   0  0  0  0  0  0  0  0  0  0  0  0
  141.2850   71.0560  228.2130 C   0  0  0  0  0  0  0  0  0  0  0  0
  140.7190   71.7870  227.1640 C   0  0  0  0  0  0  0  0  0  0  0  0
  139.9530   71.1490  226.2140 C   0  0  0  0  0  0  0  0  0  0  0  0
  139.7580   69.7990  226.3150 C   0  0  0  0  0  0  0  0  0  0  0  0
  134.8613   71.2008  222.9769 H   0  0  0  0  0  0  0  0  0  0  0  0
  133.5478   70.0070  223.4302 H   0  0  0  0  0  0  0  0  0  0  0  0
  134.3738   73.3578  224.1716 H   0  0  0  0  0  0  0  0  0  0  0  0
  133.6188   74.3787  226.2733 H   0  0  0  0  0  0  0  0  0  0  0  0
  132.8601   72.7071  228.1758 H   0  0  0  0  0  0  0  0  0  0  0  0
  136.9071   70.9659  222.5327 H   0  0  0  0  0  0  0  0  0  0  0  0
  137.1054   72.0990  223.8593 H   0  0  0  0  0  0  0  0  0  0  0  0
  139.2466   71.5569  222.2932 H   0  0  0  0  0  0  0  0  0  0  0  0
  139.5639   71.6284  223.9909 H   0  0  0  0  0  0  0  0  0  0  0  0
  138.8827   69.1753  222.2435 H   0  0  0  0  0  0  0  0  0  0  0  0
  140.2221   69.3072  223.3706 H   0  0  0  0  0  0  0  0  0  0  0  0
  137.8218   68.1032  224.1067 H   0  0  0  0  0  0  0  0  0  0  0  0
  138.7816   66.6993  225.7668 H   0  0  0  0  0  0  0  0  0  0  0  0
  140.2610   67.0300  227.8600 H   0  0  0  0  0  0  0  0  0  0  0  0
  141.5433   69.1191  229.1526 H   0  0  0  0  0  0  0  0  0  0  0  0
  141.8942   71.5795  228.9646 H   0  0  0  0  0  0  0  0  0  0  0  0
  140.8857   72.8723  227.0976 H   0  0  0  0  0  0  0  0  0  0  0  0
  139.5043   71.7170  225.3857 H   0  0  0  0  0  0  0  0  0  0  0  0
  1  2  2  0
  2  3  2  0
  2  4  1  0
  4  5  1  0
  5  6  2  0
  6  7  1  0
  7  8  2  0
  8  9  1  0
  2 10  1  0
 10 11  1  0
 11 12  1  0
 12 13  1  0
 13 14  1  0
 14 15  1  0
 15 16  2  0
 16 17  1  0
 17 18  1  0
 18 19  2  0
 19 20  1  0
 20 21  2  0
 21 22  1  0
 22 23  2  0
  9  5  1  0
 14 10  1  0
 23 15  1  0
 23 18  1  0
  4 24  1  0
  4 25  1  0
  6 26  1  0
  7 27  1  0
  8 28  1  0
 11 29  1  0
 11 30  1  0
 12 31  1  0
 12 32  1  0
 13 33  1  0
 13 34  1  0
 14 35  1  6
 16 36  1  0
 17 37  1  0
 19 38  1  0
 20 39  1  0
 21 40  1  0
 22 41  1  0
M  END
>  <smiles>  (23) 
O=S(=O)(Cc1cccs1)N1CCCC1c1c[nH]c2ccccc12

>  <score_type>  (23) 
oracle

>  <origin>  (23) 
autodockgpu

>  <m_score__min__energy>  (23) 
-7.6500000000000004

>  <m_primary>  (23) 
energy

>  <meeko>  (23) 
{"free_energy": -7.65, "intermolecular_energy": -8.84, "internal_energy": -1.18, "cluster_size": 8, "cluster_id": 1, "rank_in_cluster": 1}

>  <energy>  (23) 
-7.62

>  <cluster_rmsd>  (23) 
0.09

>  <rmsd>  (23) 
271.96

>  <cluster>  (23) 
1

$$$$

     RDKit          3D

 41 44  0  0  1  0  0  0  0  0999 V2000
  141.8440   81.6400  224.2220 O   0  0  0  0  0  0  0  0  0  0  0  0
  142.3470   80.6370  223.2570 S   0  0  0  0  0  0  0  0  0  0  0  0
  143.8390   80.5150  223.4360 O   0  0  0  0  0  0  0  0  0  0  0  0
  141.6750   79.0190  223.5310 C   0  0  0  0  0  0  0  0  0  0  0  0
  140.2330   78.9350  223.3470 C   0  0  0  0  0  0  0  0  0  0  0  0
  139.2560   79.7750  223.7590 C   0  0  0  0  0  0  0  0  0  0  0  0
  137.9820   79.5000  223.4790 C   0  0  0  0  0  0  0  0  0  0  0  0
  137.7170   78.3350  222.7590 C   0  0  0  0  0  0  0  0  0  0  0  0
  139.3720   77.6040  222.4740 S   0  0  0  0  0  0  0  0  0  0  0  0
  142.0470   81.1660  221.6410 N   0  0  0  0  0  0  0  0  0  0  0  0
  141.4640   82.4950  221.6130 C   0  0  0  0  0  0  0  0  0  0  0  0
  140.5640   82.4720  220.3760 C   0  0  0  0  0  0  0  0  0  0  0  0
  140.0230   81.0700  220.4870 C   0  0  0  0  0  0  0  0  0  0  0  0
  141.2100   80.2630  220.9280 C   0  0  1  0  0  0  0  0  0  0  0  0
  141.8350   79.6350  219.7360 C   0  0  0  0  0  0  0  0  0  0  0  0
  142.1750   80.3910  218.6100 C   0  0  0  0  0  0  0  0  0  0  0  0
  142.7110   79.5600  217.7220 N   0  0  0  0  0  0  0  0  0  0  0  0
  142.7370   78.3030  218.2130 C   0  0  0  0  0  0  0  0  0  0  0  0
  143.2020   77.1370  217.6380 C   0  0  0  0  0  0  0  0  0  0  0  0
  143.0930   75.9880  218.3940 C   0  0  0  0  0  0  0  0  0  0  0  0
  142.5400   76.0050  219.6780 C   0  0  0  0  0  0  0  0  0  0  0  0
  142.0870   77.1880  220.2180 C   0  0  0  0  0  0  0  0  0  0  0  0
  142.1880   78.3360  219.4810 C   0  0  0  0  0  0  0  0  0  0  0  0
  142.1542   78.3223  222.8274 H   0  0  0  0  0  0  0  0  0  0  0  0
  141.8758   78.7661  224.5825 H   0  0  0  0  0  0  0  0  0  0  0  0
  139.5123   80.6833  224.3240 H   0  0  0  0  0  0  0  0  0  0  0  0
  137.1698   80.1670  223.8037 H   0  0  0  0  0  0  0  0  0  0  0  0
  136.7400   77.9454  222.4369 H   0  0  0  0  0  0  0  0  0  0  0  0
  140.8752   82.6840  222.5227 H   0  0  0  0  0  0  0  0  0  0  0  0
  142.2217   83.2914  221.5734 H   0  0  0  0  0  0  0  0  0  0  0  0
  139.7652   83.2259  220.4358 H   0  0  0  0  0  0  0  0  0  0  0  0
  141.0679   82.7052  219.4264 H   0  0  0  0  0  0  0  0  0  0  0  0
  139.2156   81.0192  221.2323 H   0  0  0  0  0  0  0  0  0  0  0  0
  139.5869   80.7061  219.5450 H   0  0  0  0  0  0  0  0  0  0  0  0
  140.9650   79.4233  221.5950 H   0  0  0  0  0  0  0  0  0  0  0  0
  142.0263   81.4734  218.4827 H   0  0  0  0  0  0  0  0  0  0  0  0
  143.0650   79.8310  216.7780 H   0  0  0  0  0  0  0  0  0  0  0  0
  143.6375   77.1247  216.6279 H   0  0  0  0  0  0  0  0  0  0  0  0
  143.4500   75.0351  217.9762 H   0  0  0  0  0  0  0  0  0  0  0  0
  142.4667   75.0727  220.2572 H   0  0  0  0  0  0  0  0  0  0  0  0
  141.6503   77.2095  221.2274 H   0  0  0  0  0  0  0  0  0  0  0  0
  1  2  2  0
  2  3  2  0
  2  4  1  0
  4  5  1  0
  5  6  2  0
  6  7  1  0
  7  8  2  0
  8  9  1  0
  2 10  1  0
 10 11  1  0
 11 12  1  0
 12 13  1  0
 13 14  1  0
 14 15  1  0
 15 16  2  0
 16 17  1  0
 17 18  1  0
 18 19  2  0
 19 20  1  0
 20 21  2  0
 21 22  1  0
 22 23  2  0
  9  5  1  0
 14 10  1  0
 23 15  1  0
 23 18  1  0
  4 24  1  0
  4 25  1  0
  6 26  1  0
  7 27  1  0
  8 28  1  0
 11 29  1  0
 11 30  1  0
 12 31  1  0
 12 32  1  0
 13 33  1  0
 13 34  1  0
 14 35  1  1
 16 36  1  0
 17 37  1  0
 19 38  1  0
 20 39  1  0
 21 40  1  0
 22 41  1  0
M  END
>  <smiles>  (24) 
O=S(=O)(Cc1cccs1)N1CCCC1c1c[nH]c2ccccc12

>  <score_type>  (24) 
oracle

>  <origin>  (24) 
autodockgpu

>  <m_score__min__energy>  (24) 
-7.6500000000000004

>  <m_primary>  (24) 
energy

>  <meeko>  (24) 
{"free_energy": -6.83, "intermolecular_energy": -8.02, "internal_energy": -1.51, "cluster_size": 11, "cluster_id": 2, "rank_in_cluster": 4}

>  <energy>  (24) 
-7.45

>  <cluster_rmsd>  (24) 
0.99

>  <rmsd>  (24) 
272.02

>  <cluster>  (24) 
1

$$$$

     RDKit          3D

 41 44  0  0  1  0  0  0  0  0999 V2000
  135.2950   68.5330  225.3520 O   0  0  0  0  0  0  0  0  0  0  0  0
  135.6730   69.3360  224.1680 S   0  0  0  0  0  0  0  0  0  0  0  0
  135.7750   68.4110  222.9830 O   0  0  0  0  0  0  0  0  0  0  0  0
  134.4580   70.5580  223.7480 C   0  0  0  0  0  0  0  0  0  0  0  0
  134.0830   71.4280  224.8520 C   0  0  0  0  0  0  0  0  0  0  0  0
  134.2410   72.7650  224.9960 C   0  0  0  0  0  0  0  0  0  0  0  0
  133.8180   73.3690  226.1060 C   0  0  0  0  0  0  0  0  0  0  0  0
  133.2210   72.5730  227.0850 C   0  0  0  0  0  0  0  0  0  0  0  0
  133.2710   70.8850  226.3760 S   0  0  0  0  0  0  0  0  0  0  0  0
  137.2200   70.0600  224.4130 N   0  0  0  0  0  0  0  0  0  0  0  0
  137.4560   71.1460  223.4800 C   0  0  0  0  0  0  0  0  0  0  0  0
  138.9690   71.1070  223.2510 C   0  0  0  0  0  0  0  0  0  0  0  0
  139.1800   69.6150  223.2300 C   0  0  0  0  0  0  0  0  0  0  0  0
  138.2770   69.1120  224.3190 C   0  0  1  0  0  0  0  0  0  0  0  0
  139.0740   68.9320  225.5590 C   0  0  0  0  0  0  0  0  0  0  0  0
  139.2290   67.6740  226.1490 C   0  0  0  0  0  0  0  0  0  0  0  0
  139.9870   67.8330  227.2280 N   0  0  0  0  0  0  0  0  0  0  0  0
  140.3330   69.1290  227.3710 C   0  0  0  0  0  0  0  0  0  0  0  0
  141.1040   69.7390  228.3400 C   0  0  0  0  0  0  0  0  0  0  0  0
  141.2850   71.1010  228.2220 C   0  0  0  0  0  0  0  0  0  0  0  0
  140.7170   71.8270  227.1710 C   0  0  0  0  0  0  0  0  0  0  0  0
  139.9540   71.1840  226.2220 C   0  0  0  0  0  0  0  0  0  0  0  0
  139.7650   69.8330  226.3260 C   0  0  0  0  0  0  0  0  0  0  0  0
  134.8624   71.1828  222.9380 H   0  0  0  0  0  0  0  0  0  0  0  0
  133.5497   70.0128  223.4517 H   0  0  0  0  0  0  0  0  0  0  0  0
  134.7181   73.3521  224.1975 H   0  0  0  0  0  0  0  0  0  0  0  0
  133.9349   74.4538  226.2455 H   0  0  0  0  0  0  0  0  0  0  0  0
  132.8144   72.8870  228.0577 H   0  0  0  0  0  0  0  0  0  0  0  0
  136.9125   70.9789  222.5383 H   0  0  0  0  0  0  0  0  0  0  0  0
  137.1079   72.1176  223.8606 H   0  0  0  0  0  0  0  0  0  0  0  0
  139.2516   71.5747  222.2963 H   0  0  0  0  0  0  0  0  0  0  0  0
  139.5688   71.6539  223.9934 H   0  0  0  0  0  0  0  0  0  0  0  0
  138.8930   69.1920  222.2560 H   0  0  0  0  0  0  0  0  0  0  0  0
  140.2316   69.3312  223.3834 H   0  0  0  0  0  0  0  0  0  0  0  0
  137.8336   68.1248  224.1218 H   0  0  0  0  0  0  0  0  0  0  0  0
  138.8020   66.7273  225.7865 H   0  0  0  0  0  0  0  0  0  0  0  0
  140.2790   67.0700  227.8790 H   0  0  0  0  0  0  0  0  0  0  0  0
  141.5520   69.1668  229.1657 H   0  0  0  0  0  0  0  0  0  0  0  0
  141.8910   71.6289  228.9730 H   0  0  0  0  0  0  0  0  0  0  0  0
  140.8797   72.9127  227.1021 H   0  0  0  0  0  0  0  0  0  0  0  0
  139.5031   71.7483  225.3924 H   0  0  0  0  0  0  0  0  0  0  0  0
  1  2  2  0
  2  3  2  0
  2  4  1  0
  4  5  1  0
  5  6  2  0
  6  7  1  0
  7  8  2  0
  8  9  1  0
  2 10  1  0
 10 11  1  0
 11 12  1  0
 12 13  1  0
 13 14  1  0
 14 15  1  0
 15 16  2  0
 16 17  1  0
 17 18  1  0
 18 19  2  0
 19 20  1  0
 20 21  2  0
 21 22  1  0
 22 23  2  0
  9  5  1  0
 14 10  1  0
 23 15  1  0
 23 18  1  0
  4 24  1  0
  4 25  1  0
  6 26  1  0
  7 27  1  0
  8 28  1  0
 11 29  1  0
 11 30  1  0
 12 31  1  0
 12 32  1  0
 13 33  1  0
 13 34  1  0
 14 35  1  6
 16 36  1  0
 17 37  1  0
 19 38  1  0
 20 39  1  0
 21 40  1  0
 22 41  1  0
M  END
>  <smiles>  (25) 
O=S(=O)(Cc1cccs1)N1CCCC1c1c[nH]c2ccccc12

>  <score_type>  (25) 
oracle

>  <origin>  (25) 
autodockgpu

>  <m_score__min__energy>  (25) 
-7.6500000000000004

>  <m_primary>  (25) 
energy

>  <meeko>  (25) 
{"free_energy": -7.62, "intermolecular_energy": -8.81, "internal_energy": -1.2, "cluster_size": 8, "cluster_id": 1, "rank_in_cluster": 3}

>  <energy>  (25) 
-7.44

>  <cluster_rmsd>  (25) 
1.01

>  <rmsd>  (25) 
272.11

>  <cluster>  (25) 
1

$$$$

     RDKit          3D

 41 44  0  0  1  0  0  0  0  0999 V2000
  141.8030   81.4780  224.2020 O   0  0  0  0  0  0  0  0  0  0  0  0
  142.3770   80.5330  223.2190 S   0  0  0  0  0  0  0  0  0  0  0  0
  143.8740   80.5120  223.4010 O   0  0  0  0  0  0  0  0  0  0  0  0
  141.8200   78.8670  223.4590 C   0  0  0  0  0  0  0  0  0  0  0  0
  140.3920   78.6800  223.2480 C   0  0  0  0  0  0  0  0  0  0  0  0
  139.7280   77.6540  222.6670 C   0  0  0  0  0  0  0  0  0  0  0  0
  138.3980   77.6890  222.5780 C   0  0  0  0  0  0  0  0  0  0  0  0
  137.7470   78.8080  223.0990 C   0  0  0  0  0  0  0  0  0  0  0  0
  139.1060   79.8520  223.7450 S   0  0  0  0  0  0  0  0  0  0  0  0
  142.0440   81.0710  221.6130 N   0  0  0  0  0  0  0  0  0  0  0  0
  141.4450   82.3930  221.6060 C   0  0  0  0  0  0  0  0  0  0  0  0
  140.5250   82.3690  220.3840 C   0  0  0  0  0  0  0  0  0  0  0  0
  140.0020   80.9600  220.4930 C   0  0  0  0  0  0  0  0  0  0  0  0
  141.2060   80.1640  220.9060 C   0  0  1  0  0  0  0  0  0  0  0  0
  141.8180   79.5530  219.6990 C   0  0  0  0  0  0  0  0  0  0  0  0
  142.1530   80.3260  218.5840 C   0  0  0  0  0  0  0  0  0  0  0  0
  142.6780   79.5080  217.6770 N   0  0  0  0  0  0  0  0  0  0  0  0
  142.7010   78.2430  218.1470 C   0  0  0  0  0  0  0  0  0  0  0  0
  143.1550   77.0840  217.5490 C   0  0  0  0  0  0  0  0  0  0  0  0
  143.0460   75.9230  218.2850 C   0  0  0  0  0  0  0  0  0  0  0  0
  142.5030   75.9210  219.5740 C   0  0  0  0  0  0  0  0  0  0  0  0
  142.0610   77.0970  220.1380 C   0  0  0  0  0  0  0  0  0  0  0  0
  142.1620   78.2570  219.4190 C   0  0  0  0  0  0  0  0  0  0  0  0
  142.3609   78.2175  222.7551 H   0  0  0  0  0  0  0  0  0  0  0  0
  142.0202   78.6148  224.5108 H   0  0  0  0  0  0  0  0  0  0  0  0
  140.2844   76.7927  222.2689 H   0  0  0  0  0  0  0  0  0  0  0  0
  137.8353   76.8669  222.1116 H   0  0  0  0  0  0  0  0  0  0  0  0
  136.6668   79.0152  223.1174 H   0  0  0  0  0  0  0  0  0  0  0  0
  140.8692   82.5674  222.5269 H   0  0  0  0  0  0  0  0  0  0  0  0
  142.1923   83.1989  221.5607 H   0  0  0  0  0  0  0  0  0  0  0  0
  139.7187   83.1131  220.4629 H   0  0  0  0  0  0  0  0  0  0  0  0
  141.0103   82.6153  219.4281 H   0  0  0  0  0  0  0  0  0  0  0  0
  139.2088   80.8937  221.2522 H   0  0  0  0  0  0  0  0  0  0  0  0
  139.5530   80.5985  219.5561 H   0  0  0  0  0  0  0  0  0  0  0  0
  140.9826   79.3155  221.5694 H   0  0  0  0  0  0  0  0  0  0  0  0
  142.0089   81.4112  218.4766 H   0  0  0  0  0  0  0  0  0  0  0  0
  143.0250   79.7930  216.7350 H   0  0  0  0  0  0  0  0  0  0  0  0
  143.5825   77.0868  216.5355 H   0  0  0  0  0  0  0  0  0  0  0  0
  143.3945   74.9756  217.8479 H   0  0  0  0  0  0  0  0  0  0  0  0
  142.4290   74.9793  220.1377 H   0  0  0  0  0  0  0  0  0  0  0  0
  141.6331   77.1038  221.1514 H   0  0  0  0  0  0  0  0  0  0  0  0
  1  2  2  0
  2  3  2  0
  2  4  1  0
  4  5  1  0
  5  6  2  0
  6  7  1  0
  7  8  2  0
  8  9  1  0
  2 10  1  0
 10 11  1  0
 11 12  1  0
 12 13  1  0
 13 14  1  0
 14 15  1  0
 15 16  2  0
 16 17  1  0
 17 18  1  0
 18 19  2  0
 19 20  1  0
 20 21  2  0
 21 22  1  0
 22 23  2  0
  9  5  1  0
 14 10  1  0
 23 15  1  0
 23 18  1  0
  4 24  1  0
  4 25  1  0
  6 26  1  0
  7 27  1  0
  8 28  1  0
 11 29  1  0
 11 30  1  0
 12 31  1  0
 12 32  1  0
 13 33  1  0
 13 34  1  0
 14 35  1  1
 16 36  1  0
 17 37  1  0
 19 38  1  0
 20 39  1  0
 21 40  1  0
 22 41  1  0
M  END
>  <smiles>  (26) 
O=S(=O)(Cc1cccs1)N1CCCC1c1c[nH]c2ccccc12

>  <score_type>  (26) 
oracle

>  <origin>  (26) 
autodockgpu

>  <m_score__min__energy>  (26) 
-7.6500000000000004

>  <m_primary>  (26) 
energy

>  <meeko>  (26) 
{"free_energy": -6.84, "intermolecular_energy": -8.03, "internal_energy": -1.45, "cluster_size": 11, "cluster_id": 2, "rank_in_cluster": 1}

>  <energy>  (26) 
-7.43

>  <cluster_rmsd>  (26) 
1.02

>  <rmsd>  (26) 
272.11

>  <cluster>  (26) 
1

$$$$

     RDKit          3D

 41 44  0  0  1  0  0  0  0  0999 V2000
  141.9550   81.6380  224.2050 O   0  0  0  0  0  0  0  0  0  0  0  0
  142.2750   80.5530  223.2510 S   0  0  0  0  0  0  0  0  0  0  0  0
  143.7350   80.2090  223.3990 O   0  0  0  0  0  0  0  0  0  0  0  0
  141.3730   79.0620  223.5760 C   0  0  0  0  0  0  0  0  0  0  0  0
  139.9280   79.2090  223.4890 C   0  0  0  0  0  0  0  0  0  0  0  0
  139.1280   80.2010  223.9450 C   0  0  0  0  0  0  0  0  0  0  0  0
  137.8100   80.1330  223.7540 C   0  0  0  0  0  0  0  0  0  0  0  0
  137.3140   79.0170  223.0780 C   0  0  0  0  0  0  0  0  0  0  0  0
  138.8070   78.0250  222.7020 S   0  0  0  0  0  0  0  0  0  0  0  0
  142.0170   81.0920  221.6320 N   0  0  0  0  0  0  0  0  0  0  0  0
  141.4490   82.4270  221.5960 C   0  0  0  0  0  0  0  0  0  0  0  0
  140.5760   82.4180  220.3390 C   0  0  0  0  0  0  0  0  0  0  0  0
  140.0180   81.0220  220.4330 C   0  0  0  0  0  0  0  0  0  0  0  0
  141.1870   80.2000  220.8960 C   0  0  1  0  0  0  0  0  0  0  0  0
  141.8310   79.5710  219.7160 C   0  0  0  0  0  0  0  0  0  0  0  0
  142.1790   80.3220  218.5900 C   0  0  0  0  0  0  0  0  0  0  0  0
  142.7330   79.4910  217.7130 N   0  0  0  0  0  0  0  0  0  0  0  0
  142.7630   78.2370  218.2120 C   0  0  0  0  0  0  0  0  0  0  0  0
  143.2440   77.0710  217.6500 C   0  0  0  0  0  0  0  0  0  0  0  0
  143.1340   75.9260  218.4110 C   0  0  0  0  0  0  0  0  0  0  0  0
  142.5660   75.9460  219.6880 C   0  0  0  0  0  0  0  0  0  0  0  0
  142.0970   77.1290  220.2160 C   0  0  0  0  0  0  0  0  0  0  0  0
  142.1980   78.2730  219.4730 C   0  0  0  0  0  0  0  0  0  0  0  0
  141.6872   78.3023  222.8452 H   0  0  0  0  0  0  0  0  0  0  0  0
  141.6000   78.7746  224.6132 H   0  0  0  0  0  0  0  0  0  0  0  0
  139.5644   81.0620  224.4724 H   0  0  0  0  0  0  0  0  0  0  0  0
  137.1391   80.9263  224.1154 H   0  0  0  0  0  0  0  0  0  0  0  0
  136.2677   78.7865  222.8286 H   0  0  0  0  0  0  0  0  0  0  0  0
  140.8423   82.6192  222.4932 H   0  0  0  0  0  0  0  0  0  0  0  0
  142.2159   83.2154  221.5759 H   0  0  0  0  0  0  0  0  0  0  0  0
  139.7842   83.1802  220.3840 H   0  0  0  0  0  0  0  0  0  0  0  0
  141.1031   82.6491  219.4016 H   0  0  0  0  0  0  0  0  0  0  0  0
  139.1945   80.9772  221.1609 H   0  0  0  0  0  0  0  0  0  0  0  0
  139.5982   80.6664  219.4805 H   0  0  0  0  0  0  0  0  0  0  0  0
  140.9193   79.3594  221.5530 H   0  0  0  0  0  0  0  0  0  0  0  0
  142.0231   81.4024  218.4544 H   0  0  0  0  0  0  0  0  0  0  0  0
  143.0960   79.7590  216.7720 H   0  0  0  0  0  0  0  0  0  0  0  0
  143.6924   77.0561  216.6457 H   0  0  0  0  0  0  0  0  0  0  0  0
  143.5025   74.9733  218.0028 H   0  0  0  0  0  0  0  0  0  0  0  0
  142.4934   75.0166  220.2718 H   0  0  0  0  0  0  0  0  0  0  0  0
  141.6481   77.1531  221.2199 H   0  0  0  0  0  0  0  0  0  0  0  0
  1  2  2  0
  2  3  2  0
  2  4  1  0
  4  5  1  0
  5  6  2  0
  6  7  1  0
  7  8  2  0
  8  9  1  0
  2 10  1  0
 10 11  1  0
 11 12  1  0
 12 13  1  0
 13 14  1  0
 14 15  1  0
 15 16  2  0
 16 17  1  0
 17 18  1  0
 18 19  2  0
 19 20  1  0
 20 21  2  0
 21 22  1  0
 22 23  2  0
  9  5  1  0
 14 10  1  0
 23 15  1  0
 23 18  1  0
  4 24  1  0
  4 25  1  0
  6 26  1  0
  7 27  1  0
  8 28  1  0
 11 29  1  0
 11 30  1  0
 12 31  1  0
 12 32  1  0
 13 33  1  0
 13 34  1  0
 14 35  1  1
 16 36  1  0
 17 37  1  0
 19 38  1  0
 20 39  1  0
 21 40  1  0
 22 41  1  0
M  END
>  <smiles>  (27) 
O=S(=O)(Cc1cccs1)N1CCCC1c1c[nH]c2ccccc12

>  <score_type>  (27) 
oracle

>  <origin>  (27) 
autodockgpu

>  <m_score__min__energy>  (27) 
-7.6500000000000004

>  <m_primary>  (27) 
energy

>  <meeko>  (27) 
{"free_energy": -6.78, "intermolecular_energy": -7.98, "internal_energy": -1.53, "cluster_size": 11, "cluster_id": 2, "rank_in_cluster": 7}

>  <energy>  (27) 
-7.39

>  <cluster_rmsd>  (27) 
0.99

>  <rmsd>  (27) 
272.02

>  <cluster>  (27) 
1

$$$$

     RDKit          3D

 41 44  0  0  1  0  0  0  0  0999 V2000
  135.7450   68.4710  223.7650 O   0  0  0  0  0  0  0  0  0  0  0  0
  135.7740   69.9270  224.0270 S   0  0  0  0  0  0  0  0  0  0  0  0
  135.2570   70.6370  222.8020 O   0  0  0  0  0  0  0  0  0  0  0  0
  134.7190   70.4070  225.3680 C   0  0  0  0  0  0  0  0  0  0  0  0
  134.5180   71.8440  225.4820 C   0  0  0  0  0  0  0  0  0  0  0  0
  135.0300   72.8530  224.7400 C   0  0  0  0  0  0  0  0  0  0  0  0
  134.7090   74.1160  225.0230 C   0  0  0  0  0  0  0  0  0  0  0  0
  133.8410   74.3350  226.0940 C   0  0  0  0  0  0  0  0  0  0  0  0
  133.4730   72.6540  226.7190 S   0  0  0  0  0  0  0  0  0  0  0  0
  137.3970   70.4480  224.2990 N   0  0  0  0  0  0  0  0  0  0  0  0
  137.7750   71.5160  223.3920 C   0  0  0  0  0  0  0  0  0  0  0  0
  139.2740   71.2940  223.1730 C   0  0  0  0  0  0  0  0  0  0  0  0
  139.2980   69.7880  223.1210 C   0  0  0  0  0  0  0  0  0  0  0  0
  138.3290   69.3780  224.1920 C   0  0  1  0  0  0  0  0  0  0  0  0
  139.0840   69.0750  225.4340 C   0  0  0  0  0  0  0  0  0  0  0  0
  139.2000   67.7680  225.9140 C   0  0  0  0  0  0  0  0  0  0  0  0
  139.9280   67.8160  227.0250 N   0  0  0  0  0  0  0  0  0  0  0  0
  140.2910   69.0890  227.2920 C   0  0  0  0  0  0  0  0  0  0  0  0
  141.0410   69.5960  228.3340 C   0  0  0  0  0  0  0  0  0  0  0  0
  141.2480   70.9600  228.3410 C   0  0  0  0  0  0  0  0  0  0  0  0
  140.7240   71.7860  227.3420 C   0  0  0  0  0  0  0  0  0  0  0  0
  139.9800   71.2430  226.3180 C   0  0  0  0  0  0  0  0  0  0  0  0
  139.7660   69.8920  226.2970 C   0  0  0  0  0  0  0  0  0  0  0  0
  133.7378   69.9316  225.2226 H   0  0  0  0  0  0  0  0  0  0  0  0
  135.2159   70.0821  226.2940 H   0  0  0  0  0  0  0  0  0  0  0  0
  135.7102   72.6317  223.9043 H   0  0  0  0  0  0  0  0  0  0  0  0
  135.1128   74.9533  224.4349 H   0  0  0  0  0  0  0  0  0  0  0  0
  133.4648   75.2960  226.4747 H   0  0  0  0  0  0  0  0  0  0  0  0
  137.2243   71.4378  222.4430 H   0  0  0  0  0  0  0  0  0  0  0  0
  137.5463   72.5150  223.7916 H   0  0  0  0  0  0  0  0  0  0  0  0
  139.6218   71.7426  222.2308 H   0  0  0  0  0  0  0  0  0  0  0  0
  139.9298   71.7466  223.9313 H   0  0  0  0  0  0  0  0  0  0  0  0
  138.9703   69.4245  222.1359 H   0  0  0  0  0  0  0  0  0  0  0  0
  140.3047   69.3727  223.2761 H   0  0  0  0  0  0  0  0  0  0  0  0
  137.7695   68.4574  223.9696 H   0  0  0  0  0  0  0  0  0  0  0  0
  138.7683   66.8655  225.4567 H   0  0  0  0  0  0  0  0  0  0  0  0
  140.1870   66.9940  227.6140 H   0  0  0  0  0  0  0  0  0  0  0  0
  141.4529   68.9452  229.1193 H   0  0  0  0  0  0  0  0  0  0  0  0
  141.8398   71.4087  229.1524 H   0  0  0  0  0  0  0  0  0  0  0  0
  140.9061   72.8704  227.3739 H   0  0  0  0  0  0  0  0  0  0  0  0
  139.5639   71.8862  225.5286 H   0  0  0  0  0  0  0  0  0  0  0  0
  1  2  2  0
  2  3  2  0
  2  4  1  0
  4  5  1  0
  5  6  2  0
  6  7  1  0
  7  8  2  0
  8  9  1  0
  2 10  1  0
 10 11  1  0
 11 12  1  0
 12 13  1  0
 13 14  1  0
 14 15  1  0
 15 16  2  0
 16 17  1  0
 17 18  1  0
 18 19  2  0
 19 20  1  0
 20 21  2  0
 21 22  1  0
 22 23  2  0
  9  5  1  0
 14 10  1  0
 23 15  1  0
 23 18  1  0
  4 24  1  0
  4 25  1  0
  6 26  1  0
  7 27  1  0
  8 28  1  0
 11 29  1  0
 11 30  1  0
 12 31  1  0
 12 32  1  0
 13 33  1  0
 13 34  1  0
 14 35  1  6
 16 36  1  0
 17 37  1  0
 19 38  1  0
 20 39  1  0
 21 40  1  0
 22 41  1  0
M  END
>  <smiles>  (28) 
O=S(=O)(Cc1cccs1)N1CCCC1c1c[nH]c2ccccc12

>  <score_type>  (28) 
oracle

>  <origin>  (28) 
autodockgpu

>  <m_score__min__energy>  (28) 
-7.6500000000000004

>  <m_primary>  (28) 
energy

>  <meeko>  (28) 
{"free_energy": -7.38, "intermolecular_energy": -8.57, "internal_energy": -1.27, "cluster_size": 8, "cluster_id": 1, "rank_in_cluster": 8}

>  <energy>  (28) 
-7.38

>  <cluster_rmsd>  (28) 
0.89

>  <rmsd>  (28) 
272.04

>  <cluster>  (28) 
1

$$$$

     RDKit          3D

 41 44  0  0  1  0  0  0  0  0999 V2000
  135.2290   69.8380  225.9520 O   0  0  0  0  0  0  0  0  0  0  0  0
  135.6980   69.9860  224.5570 S   0  0  0  0  0  0  0  0  0  0  0  0
  135.4650   68.6810  223.8390 O   0  0  0  0  0  0  0  0  0  0  0  0
  134.8000   71.2210  223.6550 C   0  0  0  0  0  0  0  0  0  0  0  0
  134.8150   72.5380  224.2740 C   0  0  0  0  0  0  0  0  0  0  0  0
  135.4550   73.6680  223.8940 C   0  0  0  0  0  0  0  0  0  0  0  0
  135.3290   74.7790  224.6190 C   0  0  0  0  0  0  0  0  0  0  0  0
  134.5250   74.7180  225.7580 C   0  0  0  0  0  0  0  0  0  0  0  0
  133.9270   72.9880  225.7860 S   0  0  0  0  0  0  0  0  0  0  0  0
  137.3930   70.3120  224.5320 N   0  0  0  0  0  0  0  0  0  0  0  0
  137.7610   71.1460  223.4040 C   0  0  0  0  0  0  0  0  0  0  0  0
  139.1770   70.6820  223.0540 C   0  0  0  0  0  0  0  0  0  0  0  0
  139.0160   69.2010  223.2800 C   0  0  0  0  0  0  0  0  0  0  0  0
  138.1680   69.1180  224.5170 C   0  0  1  0  0  0  0  0  0  0  0  0
  139.0510   68.9270  225.6950 C   0  0  0  0  0  0  0  0  0  0  0  0
  139.2600   67.6610  226.2490 C   0  0  0  0  0  0  0  0  0  0  0  0
  140.0910   67.8090  227.2760 N   0  0  0  0  0  0  0  0  0  0  0  0
  140.4340   69.1070  227.4160 C   0  0  0  0  0  0  0  0  0  0  0  0
  141.2650   69.7080  228.3400 C   0  0  0  0  0  0  0  0  0  0  0  0
  141.4240   71.0740  228.2330 C   0  0  0  0  0  0  0  0  0  0  0  0
  140.7760   71.8110  227.2370 C   0  0  0  0  0  0  0  0  0  0  0  0
  139.9540   71.1760  226.3330 C   0  0  0  0  0  0  0  0  0  0  0  0
  139.7860   69.8220  226.4270 C   0  0  0  0  0  0  0  0  0  0  0  0
  135.2427   71.3060  222.6516 H   0  0  0  0  0  0  0  0  0  0  0  0
  133.7499   70.8944  223.6301 H   0  0  0  0  0  0  0  0  0  0  0  0
  136.0785   73.6695  222.9878 H   0  0  0  0  0  0  0  0  0  0  0  0
  135.8397   75.7095  224.3304 H   0  0  0  0  0  0  0  0  0  0  0  0
  134.3021   75.5232  226.4735 H   0  0  0  0  0  0  0  0  0  0  0  0
  137.0759   70.9861  222.5584 H   0  0  0  0  0  0  0  0  0  0  0  0
  137.7100   72.2204  223.6346 H   0  0  0  0  0  0  0  0  0  0  0  0
  139.4380   70.9119  222.0104 H   0  0  0  0  0  0  0  0  0  0  0  0
  139.9824   71.1591  223.6317 H   0  0  0  0  0  0  0  0  0  0  0  0
  138.5106   68.7268  222.4258 H   0  0  0  0  0  0  0  0  0  0  0  0
  139.9787   68.6798  223.3881 H   0  0  0  0  0  0  0  0  0  0  0  0
  137.4792   68.2607  224.5388 H   0  0  0  0  0  0  0  0  0  0  0  0
  138.8182   66.7162  225.8996 H   0  0  0  0  0  0  0  0  0  0  0  0
  140.4350   67.0390  227.8900 H   0  0  0  0  0  0  0  0  0  0  0  0
  141.7748   69.1267  229.1224 H   0  0  0  0  0  0  0  0  0  0  0  0
  142.0763   71.5961  228.9485 H   0  0  0  0  0  0  0  0  0  0  0  0
  140.9231   72.8994  227.1755 H   0  0  0  0  0  0  0  0  0  0  0  0
  139.4402   71.7491  225.5471 H   0  0  0  0  0  0  0  0  0  0  0  0
  1  2  2  0
  2  3  2  0
  2  4  1  0
  4  5  1  0
  5  6  2  0
  6  7  1  0
  7  8  2  0
  8  9  1  0
  2 10  1  0
 10 11  1  0
 11 12  1  0
 12 13  1  0
 13 14  1  0
 14 15  1  0
 15 16  2  0
 16 17  1  0
 17 18  1  0
 18 19  2  0
 19 20  1  0
 20 21  2  0
 21 22  1  0
 22 23  2  0
  9  5  1  0
 14 10  1  0
 23 15  1  0
 23 18  1  0
  4 24  1  0
  4 25  1  0
  6 26  1  0
  7 27  1  0
  8 28  1  0
 11 29  1  0
 11 30  1  0
 12 31  1  0
 12 32  1  0
 13 33  1  0
 13 34  1  0
 14 35  1  6
 16 36  1  0
 17 37  1  0
 19 38  1  0
 20 39  1  0
 21 40  1  0
 22 41  1  0
M  END
>  <smiles>  (29) 
O=S(=O)(Cc1cccs1)N1CCCC1c1c[nH]c2ccccc12

>  <score_type>  (29) 
oracle

>  <origin>  (29) 
autodockgpu

>  <m_score__min__energy>  (29) 
-7.6500000000000004

>  <m_primary>  (29) 
energy

>  <meeko>  (29) 
{"free_energy": -7.43, "intermolecular_energy": -8.63, "internal_energy": -1.3, "cluster_size": 8, "cluster_id": 1, "rank_in_cluster": 6}

>  <energy>  (29) 
-6.84

>  <cluster_rmsd>  (29) 
0.0

>  <rmsd>  (29) 
272.45

>  <cluster>  (29) 
2

$$$$

     RDKit          3D

 41 44  0  0  1  0  0  0  0  0999 V2000
  141.4420   81.2340  224.1930 O   0  0  0  0  0  0  0  0  0  0  0  0
  142.2270   80.4200  223.2380 S   0  0  0  0  0  0  0  0  0  0  0  0
  143.6850   80.5390  223.6020 O   0  0  0  0  0  0  0  0  0  0  0  0
  141.8300   78.6930  223.3170 C   0  0  0  0  0  0  0  0  0  0  0  0
  140.4290   78.3920  223.0610 C   0  0  0  0  0  0  0  0  0  0  0  0
  139.8660   77.2980  222.4980 C   0  0  0  0  0  0  0  0  0  0  0  0
  138.5420   77.2300  222.3570 C   0  0  0  0  0  0  0  0  0  0  0  0
  137.7900   78.3150  222.8080 C   0  0  0  0  0  0  0  0  0  0  0  0
  139.0410   79.4820  223.4620 S   0  0  0  0  0  0  0  0  0  0  0  0
  142.0270   81.0280  221.6350 N   0  0  0  0  0  0  0  0  0  0  0  0
  141.5140   82.3860  221.6380 C   0  0  0  0  0  0  0  0  0  0  0  0
  140.6700   82.4590  220.3640 C   0  0  0  0  0  0  0  0  0  0  0  0
  140.0540   81.0840  220.3930 C   0  0  0  0  0  0  0  0  0  0  0  0
  141.1780   80.1990  220.8490 C   0  0  1  0  0  0  0  0  0  0  0  0
  141.8230   79.5880  219.6600 C   0  0  0  0  0  0  0  0  0  0  0  0
  142.1570   80.3530  218.5390 C   0  0  0  0  0  0  0  0  0  0  0  0
  142.7150   79.5370  217.6520 N   0  0  0  0  0  0  0  0  0  0  0  0
  142.7610   78.2780  218.1390 C   0  0  0  0  0  0  0  0  0  0  0  0
  143.2510   77.1230  217.5630 C   0  0  0  0  0  0  0  0  0  0  0  0
  143.1580   75.9700  218.3140 C   0  0  0  0  0  0  0  0  0  0  0  0
  142.5960   75.9720  219.5940 C   0  0  0  0  0  0  0  0  0  0  0  0
  142.1170   77.1440  220.1350 C   0  0  0  0  0  0  0  0  0  0  0  0
  142.2020   78.2960  219.4030 C   0  0  0  0  0  0  0  0  0  0  0  0
  142.4390   78.1642  222.5690 H   0  0  0  0  0  0  0  0  0  0  0  0
  142.0414   78.3661  224.3458 H   0  0  0  0  0  0  0  0  0  0  0  0
  140.4997   76.4660  222.1572 H   0  0  0  0  0  0  0  0  0  0  0  0
  138.0608   76.3516  221.9022 H   0  0  0  0  0  0  0  0  0  0  0  0
  136.6976   78.4407  222.7778 H   0  0  0  0  0  0  0  0  0  0  0  0
  140.8956   82.5695  222.5290 H   0  0  0  0  0  0  0  0  0  0  0  0
  142.3121   83.1426  221.6640 H   0  0  0  0  0  0  0  0  0  0  0  0
  139.9086   83.2508  220.4213 H   0  0  0  0  0  0  0  0  0  0  0  0
  141.2270   82.7027  219.4473 H   0  0  0  0  0  0  0  0  0  0  0  0
  139.2130   81.0460  221.1010 H   0  0  0  0  0  0  0  0  0  0  0  0
  139.6418   80.7813  219.4191 H   0  0  0  0  0  0  0  0  0  0  0  0
  140.8614   79.3469  221.4683 H   0  0  0  0  0  0  0  0  0  0  0  0
  141.9886   81.4328  218.4142 H   0  0  0  0  0  0  0  0  0  0  0  0
  143.0700   79.8180  216.7120 H   0  0  0  0  0  0  0  0  0  0  0  0
  143.6933   77.1224  216.5558 H   0  0  0  0  0  0  0  0  0  0  0  0
  143.5354   75.0254  217.8954 H   0  0  0  0  0  0  0  0  0  0  0  0
  142.5364   75.0364  220.1695 H   0  0  0  0  0  0  0  0  0  0  0  0
  141.6725   77.1536  221.1411 H   0  0  0  0  0  0  0  0  0  0  0  0
  1  2  2  0
  2  3  2  0
  2  4  1  0
  4  5  1  0
  5  6  2  0
  6  7  1  0
  7  8  2  0
  8  9  1  0
  2 10  1  0
 10 11  1  0
 11 12  1  0
 12 13  1  0
 13 14  1  0
 14 15  1  0
 15 16  2  0
 16 17  1  0
 17 18  1  0
 18 19  2  0
 19 20  1  0
 20 21  2  0
 21 22  1  0
 22 23  2  0
  9  5  1  0
 14 10  1  0
 23 15  1  0
 23 18  1  0
  4 24  1  0
  4 25  1  0
  6 26  1  0
  7 27  1  0
  8 28  1  0
 11 29  1  0
 11 30  1  0
 12 31  1  0
 12 32  1  0
 13 33  1  0
 13 34  1  0
 14 35  1  1
 16 36  1  0
 17 37  1  0
 19 38  1  0
 20 39  1  0
 21 40  1  0
 22 41  1  0
M  END
>  <smiles>  (30) 
O=S(=O)(Cc1cccs1)N1CCCC1c1c[nH]c2ccccc12

>  <score_type>  (30) 
oracle

>  <origin>  (30) 
autodockgpu

>  <m_score__min__energy>  (30) 
-7.6500000000000004

>  <m_primary>  (30) 
energy

>  <meeko>  (30) 
{"free_energy": -6.75, "intermolecular_energy": -7.94, "internal_energy": -1.51, "cluster_size": 11, "cluster_id": 2, "rank_in_cluster": 10}

>  <energy>  (30) 
-6.83

>  <cluster_rmsd>  (30) 
0.67

>  <rmsd>  (30) 
272.52

>  <cluster>  (30) 
2

$$$$

     RDKit          3D

 41 44  0  0  1  0  0  0  0  0999 V2000
  136.2830   68.1490  222.9410 O   0  0  0  0  0  0  0  0  0  0  0  0
  135.9580   69.3700  223.7120 S   0  0  0  0  0  0  0  0  0  0  0  0
  135.1880   70.3050  222.8140 O   0  0  0  0  0  0  0  0  0  0  0  0
  134.9170   69.0460  225.1100 C   0  0  0  0  0  0  0  0  0  0  0  0
  134.5060   70.2380  225.8350 C   0  0  0  0  0  0  0  0  0  0  0  0
  134.3260   70.4270  227.1630 C   0  0  0  0  0  0  0  0  0  0  0  0
  133.9400   71.6190  227.6190 C   0  0  0  0  0  0  0  0  0  0  0  0
  133.7370   72.6320  226.6810 C   0  0  0  0  0  0  0  0  0  0  0  0
  134.1180   71.8350  225.0770 S   0  0  0  0  0  0  0  0  0  0  0  0
  137.4100   70.1700  224.1940 N   0  0  0  0  0  0  0  0  0  0  0  0
  137.6280   71.3870  223.4340 C   0  0  0  0  0  0  0  0  0  0  0  0
  139.1520   71.4940  223.3470 C   0  0  0  0  0  0  0  0  0  0  0  0
  139.4940   70.0390  223.1550 C   0  0  0  0  0  0  0  0  0  0  0  0
  138.5500   69.3260  224.0810 C   0  0  1  0  0  0  0  0  0  0  0  0
  139.2510   69.0410  225.3580 C   0  0  0  0  0  0  0  0  0  0  0  0
  139.3570   67.7400  225.8550 C   0  0  0  0  0  0  0  0  0  0  0  0
  140.0340   67.8050  226.9970 N   0  0  0  0  0  0  0  0  0  0  0  0
  140.3740   69.0830  227.2670 C   0  0  0  0  0  0  0  0  0  0  0  0
  141.0730   69.6070  228.3360 C   0  0  0  0  0  0  0  0  0  0  0  0
  141.2680   70.9720  228.3400 C   0  0  0  0  0  0  0  0  0  0  0  0
  140.7820   71.7840  227.3100 C   0  0  0  0  0  0  0  0  0  0  0  0
  140.0890   71.2250  226.2600 C   0  0  0  0  0  0  0  0  0  0  0  0
  139.8870   69.8720  226.2430 C   0  0  0  0  0  0  0  0  0  0  0  0
  134.0132   68.5291  224.7550 H   0  0  0  0  0  0  0  0  0  0  0  0
  135.5079   68.4375  225.8104 H   0  0  0  0  0  0  0  0  0  0  0  0
  134.4980   69.5981  227.8654 H   0  0  0  0  0  0  0  0  0  0  0  0
  133.7874   71.7971  228.6937 H   0  0  0  0  0  0  0  0  0  0  0  0
  133.4210   73.6698  226.8631 H   0  0  0  0  0  0  0  0  0  0  0  0
  137.1827   71.3081  222.4313 H   0  0  0  0  0  0  0  0  0  0  0  0
  137.1653   72.2690  223.9008 H   0  0  0  0  0  0  0  0  0  0  0  0
  139.4720   72.1069  222.4915 H   0  0  0  0  0  0  0  0  0  0  0  0
  139.6368   71.9789  224.2071 H   0  0  0  0  0  0  0  0  0  0  0  0
  139.3277   69.7313  222.1121 H   0  0  0  0  0  0  0  0  0  0  0  0
  140.5499   69.8175  223.3693 H   0  0  0  0  0  0  0  0  0  0  0  0
  138.2140   68.3434  223.7182 H   0  0  0  0  0  0  0  0  0  0  0  0
  138.9544   66.8293  225.3874 H   0  0  0  0  0  0  0  0  0  0  0  0
  140.2730   66.9910  227.6050 H   0  0  0  0  0  0  0  0  0  0  0  0
  141.4556   68.9671  229.1448 H   0  0  0  0  0  0  0  0  0  0  0  0
  141.8188   71.4333  229.1729 H   0  0  0  0  0  0  0  0  0  0  0  0
  140.9537   72.8701  227.3390 H   0  0  0  0  0  0  0  0  0  0  0  0
  139.7033   71.8570  225.4465 H   0  0  0  0  0  0  0  0  0  0  0  0
  1  2  2  0
  2  3  2  0
  2  4  1  0
  4  5  1  0
  5  6  2  0
  6  7  1  0
  7  8  2  0
  8  9  1  0
  2 10  1  0
 10 11  1  0
 11 12  1  0
 12 13  1  0
 13 14  1  0
 14 15  1  0
 15 16  2  0
 16 17  1  0
 17 18  1  0
 18 19  2  0
 19 20  1  0
 20 21  2  0
 21 22  1  0
 22 23  2  0
  9  5  1  0
 14 10  1  0
 23 15  1  0
 23 18  1  0
  4 24  1  0
  4 25  1  0
  6 26  1  0
  7 27  1  0
  8 28  1  0
 11 29  1  0
 11 30  1  0
 12 31  1  0
 12 32  1  0
 13 33  1  0
 13 34  1  0
 14 35  1  6
 16 36  1  0
 17 37  1  0
 19 38  1  0
 20 39  1  0
 21 40  1  0
 22 41  1  0
M  END
>  <smiles>  (31) 
O=S(=O)(Cc1cccs1)N1CCCC1c1c[nH]c2ccccc12

>  <score_type>  (31) 
oracle

>  <origin>  (31) 
autodockgpu

>  <m_score__min__energy>  (31) 
-7.6500000000000004

>  <m_primary>  (31) 
energy

>  <meeko>  (31) 
{"free_energy": -7.45, "intermolecular_energy": -8.64, "internal_energy": -1.21, "cluster_size": 8, "cluster_id": 1, "rank_in_cluster": 4}

>  <energy>  (31) 
-6.83

>  <cluster_rmsd>  (31) 
0.04

>  <rmsd>  (31) 
272.47

>  <cluster>  (31) 
2

$$$$

     RDKit          3D

 41 44  0  0  1  0  0  0  0  0999 V2000
  139.6110   74.0190  222.3460 O   0  0  0  0  0  0  0  0  0  0  0  0
  139.9780   75.3810  221.8980 S   0  0  0  0  0  0  0  0  0  0  0  0
  141.3960   75.6550  222.3300 O   0  0  0  0  0  0  0  0  0  0  0  0
  139.9480   75.5570  220.1340 C   0  0  0  0  0  0  0  0  0  0  0  0
  141.0050   76.4050  219.6030 C   0  0  0  0  0  0  0  0  0  0  0  0
  142.3170   76.1350  219.4060 C   0  0  0  0  0  0  0  0  0  0  0  0
  143.1190   77.0720  218.9000 C   0  0  0  0  0  0  0  0  0  0  0  0
  142.5510   78.3100  218.5940 C   0  0  0  0  0  0  0  0  0  0  0  0
  140.7890   78.1150  219.0520 S   0  0  0  0  0  0  0  0  0  0  0  0
  138.9560   76.5490  222.6540 N   0  0  0  0  0  0  0  0  0  0  0  0
  137.6120   76.0370  222.8500 C   0  0  0  0  0  0  0  0  0  0  0  0
  136.7270   77.2790  222.7200 C   0  0  0  0  0  0  0  0  0  0  0  0
  137.4490   77.9840  221.6010 C   0  0  0  0  0  0  0  0  0  0  0  0
  138.9010   77.7670  221.9200 C   0  0  1  0  0  0  0  0  0  0  0  0
  139.4180   78.9580  222.6400 C   0  0  0  0  0  0  0  0  0  0  0  0
  138.5580   79.8430  223.2950 C   0  0  0  0  0  0  0  0  0  0  0  0
  139.3070   80.7940  223.8420 N   0  0  0  0  0  0  0  0  0  0  0  0
  140.6120   80.5730  223.5750 C   0  0  0  0  0  0  0  0  0  0  0  0
  141.7270   81.3010  223.9400 C   0  0  0  0  0  0  0  0  0  0  0  0
  142.9470   80.8220  223.5120 C   0  0  0  0  0  0  0  0  0  0  0  0
  143.0490   79.6560  222.7460 C   0  0  0  0  0  0  0  0  0  0  0  0
  141.9140   78.9570  222.4010 C   0  0  0  0  0  0  0  0  0  0  0  0
  140.6960   79.4200  222.8180 C   0  0  0  0  0  0  0  0  0  0  0  0
  140.0488   74.5577  219.6854 H   0  0  0  0  0  0  0  0  0  0  0  0
  138.9943   76.0427  219.8800 H   0  0  0  0  0  0  0  0  0  0  0  0
  142.7204   75.1444  219.6630 H   0  0  0  0  0  0  0  0  0  0  0  0
  144.1881   76.8770  218.7300 H   0  0  0  0  0  0  0  0  0  0  0  0
  143.0473   79.1976  218.1746 H   0  0  0  0  0  0  0  0  0  0  0  0
  137.3595   75.2933  222.0798 H   0  0  0  0  0  0  0  0  0  0  0  0
  137.4880   75.5248  223.8155 H   0  0  0  0  0  0  0  0  0  0  0  0
  135.6945   77.0198  222.4429 H   0  0  0  0  0  0  0  0  0  0  0  0
  136.6066   77.8663  223.6423 H   0  0  0  0  0  0  0  0  0  0  0  0
  137.1910   77.5412  220.6277 H   0  0  0  0  0  0  0  0  0  0  0  0
  137.1837   79.0490  221.5274 H   0  0  0  0  0  0  0  0  0  0  0  0
  139.5498   77.6654  221.0375 H   0  0  0  0  0  0  0  0  0  0  0  0
  137.4620   79.7664  223.3480 H   0  0  0  0  0  0  0  0  0  0  0  0
  138.9490   81.6010  224.3990 H   0  0  0  0  0  0  0  0  0  0  0  0
  141.6460   82.2178  224.5425 H   0  0  0  0  0  0  0  0  0  0  0  0
  143.8625   81.3701  223.7794 H   0  0  0  0  0  0  0  0  0  0  0  0
  144.0362   79.2974  222.4192 H   0  0  0  0  0  0  0  0  0  0  0  0
  141.9855   78.0394  221.7987 H   0  0  0  0  0  0  0  0  0  0  0  0
  1  2  2  0
  2  3  2  0
  2  4  1  0
  4  5  1  0
  5  6  2  0
  6  7  1  0
  7  8  2  0
  8  9  1  0
  2 10  1  0
 10 11  1  0
 11 12  1  0
 12 13  1  0
 13 14  1  0
 14 15  1  0
 15 16  2  0
 16 17  1  0
 17 18  1  0
 18 19  2  0
 19 20  1  0
 20 21  2  0
 21 22  1  0
 22 23  2  0
  9  5  1  0
 14 10  1  0
 23 15  1  0
 23 18  1  0
  4 24  1  0
  4 25  1  0
  6 26  1  0
  7 27  1  0
  8 28  1  0
 11 29  1  0
 11 30  1  0
 12 31  1  0
 12 32  1  0
 13 33  1  0
 13 34  1  0
 14 35  1  6
 16 36  1  0
 17 37  1  0
 19 38  1  0
 20 39  1  0
 21 40  1  0
 22 41  1  0
M  END
>  <smiles>  (32) 
O=S(=O)(Cc1cccs1)N1CCCC1c1c[nH]c2ccccc12

>  <score_type>  (32) 
oracle

>  <origin>  (32) 
autodockgpu

>  <m_score__min__energy>  (32) 
-7.6500000000000004

>  <m_primary>  (32) 
energy

>  <meeko>  (32) 
{"free_energy": -6.35, "intermolecular_energy": -7.54, "internal_energy": -1.77, "cluster_size": 1, "cluster_id": 3, "rank_in_cluster": 1}

>  <energy>  (32) 
-6.83

>  <cluster_rmsd>  (32) 
0.67

>  <rmsd>  (32) 
272.52

>  <cluster>  (32) 
2

$$$$

     RDKit          3D

 41 44  0  0  1  0  0  0  0  0999 V2000
  135.2990   68.5240  225.3320 O   0  0  0  0  0  0  0  0  0  0  0  0
  135.6730   69.3420  224.1570 S   0  0  0  0  0  0  0  0  0  0  0  0
  135.7650   68.4330  222.9580 O   0  0  0  0  0  0  0  0  0  0  0  0
  134.4600   70.5730  223.7600 C   0  0  0  0  0  0  0  0  0  0  0  0
  134.0660   71.4060  224.8870 C   0  0  0  0  0  0  0  0  0  0  0  0
  134.0500   72.7540  225.0060 C   0  0  0  0  0  0  0  0  0  0  0  0
  133.6470   73.3160  226.1450 C   0  0  0  0  0  0  0  0  0  0  0  0
  133.2530   72.4650  227.1790 C   0  0  0  0  0  0  0  0  0  0  0  0
  133.4740   70.7860  226.4810 S   0  0  0  0  0  0  0  0  0  0  0  0
  137.2240   70.0580  224.4030 N   0  0  0  0  0  0  0  0  0  0  0  0
  137.4650   71.1450  223.4720 C   0  0  0  0  0  0  0  0  0  0  0  0
  138.9780   71.0990  223.2420 C   0  0  0  0  0  0  0  0  0  0  0  0
  139.1810   69.6060  223.2180 C   0  0  0  0  0  0  0  0  0  0  0  0
  138.2760   69.1040  224.3060 C   0  0  1  0  0  0  0  0  0  0  0  0
  139.0720   68.9180  225.5460 C   0  0  0  0  0  0  0  0  0  0  0  0
  139.2180   67.6590  226.1340 C   0  0  0  0  0  0  0  0  0  0  0  0
  139.9790   67.8100  227.2130 N   0  0  0  0  0  0  0  0  0  0  0  0
  140.3340   69.1050  227.3560 C   0  0  0  0  0  0  0  0  0  0  0  0
  141.1100   69.7080  228.3260 C   0  0  0  0  0  0  0  0  0  0  0  0
  141.3000   71.0690  228.2090 C   0  0  0  0  0  0  0  0  0  0  0  0
  140.7370   71.8000  227.1590 C   0  0  0  0  0  0  0  0  0  0  0  0
  139.9680   71.1630  226.2100 C   0  0  0  0  0  0  0  0  0  0  0  0
  139.7700   69.8130  226.3130 C   0  0  0  0  0  0  0  0  0  0  0  0
  134.8736   71.2252  222.9766 H   0  0  0  0  0  0  0  0  0  0  0  0
  133.5579   70.0349  223.4333 H   0  0  0  0  0  0  0  0  0  0  0  0
  134.3693   73.3850  224.1634 H   0  0  0  0  0  0  0  0  0  0  0  0
  133.6256   74.4091  226.2659 H   0  0  0  0  0  0  0  0  0  0  0  0
  132.8929   72.7394  228.1815 H   0  0  0  0  0  0  0  0  0  0  0  0
  136.9202   70.9826  222.5303 H   0  0  0  0  0  0  0  0  0  0  0  0
  137.1219   72.1175  223.8549 H   0  0  0  0  0  0  0  0  0  0  0  0
  139.2624   71.5671  222.2881 H   0  0  0  0  0  0  0  0  0  0  0  0
  139.5811   71.6415  223.9850 H   0  0  0  0  0  0  0  0  0  0  0  0
  138.8916   69.1868  222.2430 H   0  0  0  0  0  0  0  0  0  0  0  0
  140.2312   69.3170  223.3711 H   0  0  0  0  0  0  0  0  0  0  0  0
  137.8285   68.1192  224.1061 H   0  0  0  0  0  0  0  0  0  0  0  0
  138.7831   66.7162  225.7707 H   0  0  0  0  0  0  0  0  0  0  0  0
  140.2650   67.0450  227.8630 H   0  0  0  0  0  0  0  0  0  0  0  0
  141.5544   69.1317  229.1508 H   0  0  0  0  0  0  0  0  0  0  0  0
  141.9096   71.5921  228.9605 H   0  0  0  0  0  0  0  0  0  0  0  0
  140.9081   72.8845  227.0904 H   0  0  0  0  0  0  0  0  0  0  0  0
  139.5197   71.7312  225.3817 H   0  0  0  0  0  0  0  0  0  0  0  0
  1  2  2  0
  2  3  2  0
  2  4  1  0
  4  5  1  0
  5  6  2  0
  6  7  1  0
  7  8  2  0
  8  9  1  0
  2 10  1  0
 10 11  1  0
 11 12  1  0
 12 13  1  0
 13 14  1  0
 14 15  1  0
 15 16  2  0
 16 17  1  0
 17 18  1  0
 18 19  2  0
 19 20  1  0
 20 21  2  0
 21 22  1  0
 22 23  2  0
  9  5  1  0
 14 10  1  0
 23 15  1  0
 23 18  1  0
  4 24  1  0
  4 25  1  0
  6 26  1  0
  7 27  1  0
  8 28  1  0
 11 29  1  0
 11 30  1  0
 12 31  1  0
 12 32  1  0
 13 33  1  0
 13 34  1  0
 14 35  1  6
 16 36  1  0
 17 37  1  0
 19 38  1  0
 20 39  1  0
 21 40  1  0
 22 41  1  0
M  END
>  <smiles>  (33) 
O=S(=O)(Cc1cccs1)N1CCCC1c1c[nH]c2ccccc12

>  <score_type>  (33) 
oracle

>  <origin>  (33) 
autodockgpu

>  <m_score__min__energy>  (33) 
-7.6500000000000004

>  <m_primary>  (33) 
energy

>  <meeko>  (33) 
{"free_energy": -7.64, "intermolecular_energy": -8.83, "internal_energy": -1.18, "cluster_size": 8, "cluster_id": 1, "rank_in_cluster": 2}

>  <energy>  (33) 
-6.82

>  <cluster_rmsd>  (33) 
0.05

>  <rmsd>  (33) 
272.47

>  <cluster>  (33) 
2

$$$$

     RDKit          3D

 41 44  0  0  1  0  0  0  0  0999 V2000
  135.2220   69.7780  225.9690 O   0  0  0  0  0  0  0  0  0  0  0  0
  135.6920   69.9380  224.5750 S   0  0  0  0  0  0  0  0  0  0  0  0
  135.4750   68.6340  223.8500 O   0  0  0  0  0  0  0  0  0  0  0  0
  134.7830   71.1680  223.6780 C   0  0  0  0  0  0  0  0  0  0  0  0
  134.8090   72.4890  224.2860 C   0  0  0  0  0  0  0  0  0  0  0  0
  135.4600   73.6100  223.8980 C   0  0  0  0  0  0  0  0  0  0  0  0
  135.3430   74.7290  224.6140 C   0  0  0  0  0  0  0  0  0  0  0  0
  134.5370   74.6830  225.7530 C   0  0  0  0  0  0  0  0  0  0  0  0
  133.9220   72.9590  225.7930 S   0  0  0  0  0  0  0  0  0  0  0  0
  137.3830   70.2830  224.5560 N   0  0  0  0  0  0  0  0  0  0  0  0
  137.7450   71.1280  223.4330 C   0  0  0  0  0  0  0  0  0  0  0  0
  139.1660   70.6820  223.0840 C   0  0  0  0  0  0  0  0  0  0  0  0
  139.0220   69.1980  223.3010 C   0  0  0  0  0  0  0  0  0  0  0  0
  138.1710   69.0980  224.5350 C   0  0  1  0  0  0  0  0  0  0  0  0
  139.0550   68.9090  225.7140 C   0  0  0  0  0  0  0  0  0  0  0  0
  139.2600   67.6450  226.2730 C   0  0  0  0  0  0  0  0  0  0  0  0
  140.0920   67.7950  227.2990 N   0  0  0  0  0  0  0  0  0  0  0  0
  140.4370   69.0930  227.4350 C   0  0  0  0  0  0  0  0  0  0  0  0
  141.2690   69.6970  228.3560 C   0  0  0  0  0  0  0  0  0  0  0  0
  141.4310   71.0620  228.2440 C   0  0  0  0  0  0  0  0  0  0  0  0
  140.7850   71.7970  227.2460 C   0  0  0  0  0  0  0  0  0  0  0  0
  139.9620   71.1600  226.3440 C   0  0  0  0  0  0  0  0  0  0  0  0
  139.7910   69.8060  226.4420 C   0  0  0  0  0  0  0  0  0  0  0  0
  135.2108   71.2447  222.6675 H   0  0  0  0  0  0  0  0  0  0  0  0
  133.7321   70.8431  223.6719 H   0  0  0  0  0  0  0  0  0  0  0  0
  136.0851   73.5983  222.9929 H   0  0  0  0  0  0  0  0  0  0  0  0
  135.8617   75.6529  224.3184 H   0  0  0  0  0  0  0  0  0  0  0  0
  134.3212   75.4952  226.4627 H   0  0  0  0  0  0  0  0  0  0  0  0
  137.0638   70.9655  222.5847 H   0  0  0  0  0  0  0  0  0  0  0  0
  137.6818   72.2004  223.6697 H   0  0  0  0  0  0  0  0  0  0  0  0
  139.4268   70.9209  222.0424 H   0  0  0  0  0  0  0  0  0  0  0  0
  139.9644   71.1648  223.6667 H   0  0  0  0  0  0  0  0  0  0  0  0
  138.5250   68.7227  222.4425 H   0  0  0  0  0  0  0  0  0  0  0  0
  139.9904   68.6876  223.4092 H   0  0  0  0  0  0  0  0  0  0  0  0
  137.4906   68.2338  224.5496 H   0  0  0  0  0  0  0  0  0  0  0  0
  138.8151   66.7001  225.9278 H   0  0  0  0  0  0  0  0  0  0  0  0
  140.4340   67.0270  227.9160 H   0  0  0  0  0  0  0  0  0  0  0  0
  141.7778   69.1180  229.1408 H   0  0  0  0  0  0  0  0  0  0  0  0
  142.0846   71.5851  228.9576 H   0  0  0  0  0  0  0  0  0  0  0  0
  140.9340   72.8849  227.1810 H   0  0  0  0  0  0  0  0  0  0  0  0
  139.4495   71.7315  225.5561 H   0  0  0  0  0  0  0  0  0  0  0  0
  1  2  2  0
  2  3  2  0
  2  4  1  0
  4  5  1  0
  5  6  2  0
  6  7  1  0
  7  8  2  0
  8  9  1  0
  2 10  1  0
 10 11  1  0
 11 12  1  0
 12 13  1  0
 13 14  1  0
 14 15  1  0
 15 16  2  0
 16 17  1  0
 17 18  1  0
 18 19  2  0
 19 20  1  0
 20 21  2  0
 21 22  1  0
 22 23  2  0
  9  5  1  0
 14 10  1  0
 23 15  1  0
 23 18  1  0
  4 24  1  0
  4 25  1  0
  6 26  1  0
  7 27  1  0
  8 28  1  0
 11 29  1  0
 11 30  1  0
 12 31  1  0
 12 32  1  0
 13 33  1  0
 13 34  1  0
 14 35  1  6
 16 36  1  0
 17 37  1  0
 19 38  1  0
 20 39  1  0
 21 40  1  0
 22 41  1  0
M  END
>  <smiles>  (34) 
O=S(=O)(Cc1cccs1)N1CCCC1c1c[nH]c2ccccc12

>  <score_type>  (34) 
oracle

>  <origin>  (34) 
autodockgpu

>  <m_score__min__energy>  (34) 
-7.6500000000000004

>  <m_primary>  (34) 
energy

>  <meeko>  (34) 
{"free_energy": -7.44, "intermolecular_energy": -8.63, "internal_energy": -1.29, "cluster_size": 8, "cluster_id": 1, "rank_in_cluster": 5}

>  <energy>  (34) 
-6.8

>  <cluster_rmsd>  (34) 
0.71

>  <rmsd>  (34) 
272.54

>  <cluster>  (34) 
2

$$$$

     RDKit          3D

 41 44  0  0  1  0  0  0  0  0999 V2000
  135.6980   68.5350  223.8680 O   0  0  0  0  0  0  0  0  0  0  0  0
  135.7810   70.0050  224.0180 S   0  0  0  0  0  0  0  0  0  0  0  0
  135.2990   70.6390  222.7390 O   0  0  0  0  0  0  0  0  0  0  0  0
  134.7360   70.6250  225.3100 C   0  0  0  0  0  0  0  0  0  0  0  0
  134.6290   72.0760  225.3440 C   0  0  0  0  0  0  0  0  0  0  0  0
  135.2640   73.0100  224.5990 C   0  0  0  0  0  0  0  0  0  0  0  0
  135.0130   74.3040  224.8000 C   0  0  0  0  0  0  0  0  0  0  0  0
  134.0870   74.6340  225.7900 C   0  0  0  0  0  0  0  0  0  0  0  0
  133.5570   73.0140  226.4600 S   0  0  0  0  0  0  0  0  0  0  0  0
  137.4210   70.4840  224.2660 N   0  0  0  0  0  0  0  0  0  0  0  0
  137.8200   71.5240  223.3360 C   0  0  0  0  0  0  0  0  0  0  0  0
  139.3090   71.2560  223.1070 C   0  0  0  0  0  0  0  0  0  0  0  0
  139.2900   69.7490  223.0810 C   0  0  0  0  0  0  0  0  0  0  0  0
  138.3200   69.3860  224.1690 C   0  0  1  0  0  0  0  0  0  0  0  0
  139.0800   69.0830  225.4080 C   0  0  0  0  0  0  0  0  0  0  0  0
  139.1980   67.7750  225.8880 C   0  0  0  0  0  0  0  0  0  0  0  0
  139.9290   67.8240  226.9970 N   0  0  0  0  0  0  0  0  0  0  0  0
  140.2920   69.0960  227.2620 C   0  0  0  0  0  0  0  0  0  0  0  0
  141.0460   69.6040  228.3020 C   0  0  0  0  0  0  0  0  0  0  0  0
  141.2520   70.9680  228.3090 C   0  0  0  0  0  0  0  0  0  0  0  0
  140.7250   71.7940  227.3120 C   0  0  0  0  0  0  0  0  0  0  0  0
  139.9780   71.2510  226.2900 C   0  0  0  0  0  0  0  0  0  0  0  0
  139.7640   69.9000  226.2700 C   0  0  0  0  0  0  0  0  0  0  0  0
  133.7280   70.2077  225.1690 H   0  0  0  0  0  0  0  0  0  0  0  0
  135.1938   70.3187  226.2622 H   0  0  0  0  0  0  0  0  0  0  0  0
  135.9863   72.7023  223.8286 H   0  0  0  0  0  0  0  0  0  0  0  0
  135.5170   75.0819  224.2077 H   0  0  0  0  0  0  0  0  0  0  0  0
  133.7525   75.6359  226.0972 H   0  0  0  0  0  0  0  0  0  0  0  0
  137.2579   71.4441  222.3939 H   0  0  0  0  0  0  0  0  0  0  0  0
  137.6236   72.5362  223.7193 H   0  0  0  0  0  0  0  0  0  0  0  0
  139.6600   71.6784  222.1539 H   0  0  0  0  0  0  0  0  0  0  0  0
  139.9848   71.7027  223.8511 H   0  0  0  0  0  0  0  0  0  0  0  0
  138.9422   69.3779  222.1056 H   0  0  0  0  0  0  0  0  0  0  0  0
  140.2860   69.3075  223.2333 H   0  0  0  0  0  0  0  0  0  0  0  0
  137.7310   68.4788  223.9691 H   0  0  0  0  0  0  0  0  0  0  0  0
  138.7657   66.8722  225.4320 H   0  0  0  0  0  0  0  0  0  0  0  0
  140.1900   67.0020  227.5840 H   0  0  0  0  0  0  0  0  0  0  0  0
  141.4615   68.9533  229.0856 H   0  0  0  0  0  0  0  0  0  0  0  0
  141.8456   71.4167  229.1191 H   0  0  0  0  0  0  0  0  0  0  0  0
  140.9070   72.8784  227.3436 H   0  0  0  0  0  0  0  0  0  0  0  0
  139.5598   71.8941  225.5017 H   0  0  0  0  0  0  0  0  0  0  0  0
  1  2  2  0
  2  3  2  0
  2  4  1  0
  4  5  1  0
  5  6  2  0
  6  7  1  0
  7  8  2  0
  8  9  1  0
  2 10  1  0
 10 11  1  0
 11 12  1  0
 12 13  1  0
 13 14  1  0
 14 15  1  0
 15 16  2  0
 16 17  1  0
 17 18  1  0
 18 19  2  0
 19 20  1  0
 20 21  2  0
 21 22  1  0
 22 23  2  0
  9  5  1  0
 14 10  1  0
 23 15  1  0
 23 18  1  0
  4 24  1  0
  4 25  1  0
  6 26  1  0
  7 27  1  0
  8 28  1  0
 11 29  1  0
 11 30  1  0
 12 31  1  0
 12 32  1  0
 13 33  1  0
 13 34  1  0
 14 35  1  6
 16 36  1  0
 17 37  1  0
 19 38  1  0
 20 39  1  0
 21 40  1  0
 22 41  1  0
M  END
>  <smiles>  (35) 
O=S(=O)(Cc1cccs1)N1CCCC1c1c[nH]c2ccccc12

>  <score_type>  (35) 
oracle

>  <origin>  (35) 
autodockgpu

>  <m_score__min__energy>  (35) 
-7.6500000000000004

>  <m_primary>  (35) 
energy

>  <meeko>  (35) 
{"free_energy": -7.39, "intermolecular_energy": -8.58, "internal_energy": -1.28, "cluster_size": 8, "cluster_id": 1, "rank_in_cluster": 7}

>  <energy>  (35) 
-6.78

>  <cluster_rmsd>  (35) 
0.72

>  <rmsd>  (35) 
272.53

>  <cluster>  (35) 
2

$$$$

     RDKit          3D

 41 44  0  0  1  0  0  0  0  0999 V2000
  142.1710   81.6820  224.1730 O   0  0  0  0  0  0  0  0  0  0  0  0
  142.4020   80.5810  223.2120 S   0  0  0  0  0  0  0  0  0  0  0  0
  143.8600   80.2010  223.2700 O   0  0  0  0  0  0  0  0  0  0  0  0
  141.4850   79.1160  223.6090 C   0  0  0  0  0  0  0  0  0  0  0  0
  140.0420   79.2730  223.5130 C   0  0  0  0  0  0  0  0  0  0  0  0
  139.2460   80.2700  223.9650 C   0  0  0  0  0  0  0  0  0  0  0  0
  137.9290   80.2110  223.7660 C   0  0  0  0  0  0  0  0  0  0  0  0
  137.4290   79.0990  223.0870 C   0  0  0  0  0  0  0  0  0  0  0  0
  138.9180   78.0970  222.7200 S   0  0  0  0  0  0  0  0  0  0  0  0
  142.0540   81.1130  221.6070 N   0  0  0  0  0  0  0  0  0  0  0  0
  141.4400   82.4280  221.6010 C   0  0  0  0  0  0  0  0  0  0  0  0
  140.5130   82.3910  220.3830 C   0  0  0  0  0  0  0  0  0  0  0  0
  140.0080   80.9760  220.4970 C   0  0  0  0  0  0  0  0  0  0  0  0
  141.2240   80.1950  220.9060 C   0  0  1  0  0  0  0  0  0  0  0  0
  141.8360   79.5890  219.6960 C   0  0  0  0  0  0  0  0  0  0  0  0
  142.1530   80.3630  218.5770 C   0  0  0  0  0  0  0  0  0  0  0  0
  142.6840   79.5500  217.6690 N   0  0  0  0  0  0  0  0  0  0  0  0
  142.7290   78.2870  218.1430 C   0  0  0  0  0  0  0  0  0  0  0  0
  143.1960   77.1330  217.5450 C   0  0  0  0  0  0  0  0  0  0  0  0
  143.1080   75.9730  218.2860 C   0  0  0  0  0  0  0  0  0  0  0  0
  142.5740   75.9670  219.5780 C   0  0  0  0  0  0  0  0  0  0  0  0
  142.1180   77.1380  220.1410 C   0  0  0  0  0  0  0  0  0  0  0  0
  142.1980   78.2970  219.4190 C   0  0  0  0  0  0  0  0  0  0  0  0
  141.7923   78.3182  222.9168 H   0  0  0  0  0  0  0  0  0  0  0  0
  141.7084   78.8774  224.6593 H   0  0  0  0  0  0  0  0  0  0  0  0
  139.6850   81.1277  224.4957 H   0  0  0  0  0  0  0  0  0  0  0  0
  137.2616   81.0089  224.1236 H   0  0  0  0  0  0  0  0  0  0  0  0
  136.3827   78.8758  222.8313 H   0  0  0  0  0  0  0  0  0  0  0  0
  140.8672   82.5976  222.5247 H   0  0  0  0  0  0  0  0  0  0  0  0
  142.1777   83.2424  221.5503 H   0  0  0  0  0  0  0  0  0  0  0  0
  139.6981   83.1253  220.4652 H   0  0  0  0  0  0  0  0  0  0  0  0
  140.9900   82.6418  219.4241 H   0  0  0  0  0  0  0  0  0  0  0  0
  139.2192   80.9015  221.2600 H   0  0  0  0  0  0  0  0  0  0  0  0
  139.5593   80.6073  219.5628 H   0  0  0  0  0  0  0  0  0  0  0  0
  141.0153   79.3453  221.5726 H   0  0  0  0  0  0  0  0  0  0  0  0
  141.9927   81.4457  218.4674 H   0  0  0  0  0  0  0  0  0  0  0  0
  143.0210   79.8380  216.7240 H   0  0  0  0  0  0  0  0  0  0  0  0
  143.6170   77.1387  216.5288 H   0  0  0  0  0  0  0  0  0  0  0  0
  143.4669   75.0292  217.8496 H   0  0  0  0  0  0  0  0  0  0  0  0
  142.5181   75.0262  220.1452 H   0  0  0  0  0  0  0  0  0  0  0  0
  141.6955   77.1413  221.1566 H   0  0  0  0  0  0  0  0  0  0  0  0
  1  2  2  0
  2  3  2  0
  2  4  1  0
  4  5  1  0
  5  6  2  0
  6  7  1  0
  7  8  2  0
  8  9  1  0
  2 10  1  0
 10 11  1  0
 11 12  1  0
 12 13  1  0
 13 14  1  0
 14 15  1  0
 15 16  2  0
 16 17  1  0
 17 18  1  0
 18 19  2  0
 19 20  1  0
 20 21  2  0
 21 22  1  0
 22 23  2  0
  9  5  1  0
 14 10  1  0
 23 15  1  0
 23 18  1  0
  4 24  1  0
  4 25  1  0
  6 26  1  0
  7 27  1  0
  8 28  1  0
 11 29  1  0
 11 30  1  0
 12 31  1  0
 12 32  1  0
 13 33  1  0
 13 34  1  0
 14 35  1  1
 16 36  1  0
 17 37  1  0
 19 38  1  0
 20 39  1  0
 21 40  1  0
 22 41  1  0
M  END
>  <smiles>  (36) 
O=S(=O)(Cc1cccs1)N1CCCC1c1c[nH]c2ccccc12

>  <score_type>  (36) 
oracle

>  <origin>  (36) 
autodockgpu

>  <m_score__min__energy>  (36) 
-7.6500000000000004

>  <m_primary>  (36) 
energy

>  <meeko>  (36) 
{"free_energy": -6.8, "intermolecular_energy": -7.99, "internal_energy": -1.51, "cluster_size": 11, "cluster_id": 2, "rank_in_cluster": 6}

>  <energy>  (36) 
-6.78

>  <cluster_rmsd>  (36) 
0.72

>  <rmsd>  (36) 
272.53

>  <cluster>  (36) 
2

$$$$

     RDKit          3D

 41 44  0  0  1  0  0  0  0  0999 V2000
  141.7720   81.4710  224.2200 O   0  0  0  0  0  0  0  0  0  0  0  0
  142.3670   80.5320  223.2440 S   0  0  0  0  0  0  0  0  0  0  0  0
  143.8600   80.5180  223.4530 O   0  0  0  0  0  0  0  0  0  0  0  0
  141.8130   78.8630  223.4690 C   0  0  0  0  0  0  0  0  0  0  0  0
  140.3860   78.6750  223.2520 C   0  0  0  0  0  0  0  0  0  0  0  0
  139.7270   77.6560  222.6550 C   0  0  0  0  0  0  0  0  0  0  0  0
  138.3970   77.6880  222.5630 C   0  0  0  0  0  0  0  0  0  0  0  0
  137.7410   78.7960  223.1000 C   0  0  0  0  0  0  0  0  0  0  0  0
  139.0950   79.8350  223.7650 S   0  0  0  0  0  0  0  0  0  0  0  0
  142.0590   81.0750  221.6350 N   0  0  0  0  0  0  0  0  0  0  0  0
  141.4760   82.4040  221.6210 C   0  0  0  0  0  0  0  0  0  0  0  0
  140.5700   82.3910  220.3880 C   0  0  0  0  0  0  0  0  0  0  0  0
  140.0300   80.9880  220.4900 C   0  0  0  0  0  0  0  0  0  0  0  0
  141.2200   80.1780  220.9180 C   0  0  1  0  0  0  0  0  0  0  0  0
  141.8380   79.5600  219.7180 C   0  0  0  0  0  0  0  0  0  0  0  0
  142.1770   80.3260  218.5990 C   0  0  0  0  0  0  0  0  0  0  0  0
  142.7080   79.5030  217.7010 N   0  0  0  0  0  0  0  0  0  0  0  0
  142.7320   78.2410  218.1790 C   0  0  0  0  0  0  0  0  0  0  0  0
  143.1910   77.0790  217.5910 C   0  0  0  0  0  0  0  0  0  0  0  0
  143.0810   75.9230  218.3350 C   0  0  0  0  0  0  0  0  0  0  0  0
  142.5320   75.9290  219.6210 C   0  0  0  0  0  0  0  0  0  0  0  0
  142.0850   77.1080  220.1740 C   0  0  0  0  0  0  0  0  0  0  0  0
  142.1870   78.2630  219.4490 C   0  0  0  0  0  0  0  0  0  0  0  0
  142.3574   78.2202  222.7616 H   0  0  0  0  0  0  0  0  0  0  0  0
  142.0106   78.6026  224.5193 H   0  0  0  0  0  0  0  0  0  0  0  0
  140.2871   76.8022  222.2460 H   0  0  0  0  0  0  0  0  0  0  0  0
  137.8383   76.8717  222.0819 H   0  0  0  0  0  0  0  0  0  0  0  0
  136.6600   78.9988  223.1195 H   0  0  0  0  0  0  0  0  0  0  0  0
  140.8915   82.5854  222.5351 H   0  0  0  0  0  0  0  0  0  0  0  0
  142.2334   83.2009  221.5845 H   0  0  0  0  0  0  0  0  0  0  0  0
  139.7713   83.1441  220.4579 H   0  0  0  0  0  0  0  0  0  0  0  0
  141.0692   82.6323  219.4380 H   0  0  0  0  0  0  0  0  0  0  0  0
  139.2266   80.9306  221.2392 H   0  0  0  0  0  0  0  0  0  0  0  0
  139.5889   80.6317  219.5474 H   0  0  0  0  0  0  0  0  0  0  0  0
  140.9801   79.3322  221.5791 H   0  0  0  0  0  0  0  0  0  0  0  0
  142.0311   81.4101  218.4832 H   0  0  0  0  0  0  0  0  0  0  0  0
  143.0600   79.7830  216.7580 H   0  0  0  0  0  0  0  0  0  0  0  0
  143.6229   77.0755  216.5794 H   0  0  0  0  0  0  0  0  0  0  0  0
  143.4337   74.9733  217.9064 H   0  0  0  0  0  0  0  0  0  0  0  0
  142.4572   74.9913  220.1912 H   0  0  0  0  0  0  0  0  0  0  0  0
  141.6518   77.1207  221.1850 H   0  0  0  0  0  0  0  0  0  0  0  0
  1  2  2  0
  2  3  2  0
  2  4  1  0
  4  5  1  0
  5  6  2  0
  6  7  1  0
  7  8  2  0
  8  9  1  0
  2 10  1  0
 10 11  1  0
 11 12  1  0
 12 13  1  0
 13 14  1  0
 14 15  1  0
 15 16  2  0
 16 17  1  0
 17 18  1  0
 18 19  2  0
 19 20  1  0
 20 21  2  0
 21 22  1  0
 22 23  2  0
  9  5  1  0
 14 10  1  0
 23 15  1  0
 23 18  1  0
  4 24  1  0
  4 25  1  0
  6 26  1  0
  7 27  1  0
  8 28  1  0
 11 29  1  0
 11 30  1  0
 12 31  1  0
 12 32  1  0
 13 33  1  0
 13 34  1  0
 14 35  1  1
 16 36  1  0
 17 37  1  0
 19 38  1  0
 20 39  1  0
 21 40  1  0
 22 41  1  0
M  END
>  <smiles>  (37) 
O=S(=O)(Cc1cccs1)N1CCCC1c1c[nH]c2ccccc12

>  <score_type>  (37) 
oracle

>  <origin>  (37) 
autodockgpu

>  <m_score__min__energy>  (37) 
-7.6500000000000004

>  <m_primary>  (37) 
energy

>  <meeko>  (37) 
{"free_energy": -6.83, "intermolecular_energy": -8.02, "internal_energy": -1.47, "cluster_size": 11, "cluster_id": 2, "rank_in_cluster": 3}

>  <energy>  (37) 
-6.78

>  <cluster_rmsd>  (37) 
0.07

>  <rmsd>  (37) 
272.45

>  <cluster>  (37) 
2

$$$$

     RDKit          3D

 41 44  0  0  1  0  0  0  0  0999 V2000
  142.6080   81.5770  224.1060 O   0  0  0  0  0  0  0  0  0  0  0  0
  142.0840   80.5770  223.1490 S   0  0  0  0  0  0  0  0  0  0  0  0
  143.0740   79.4430  223.0610 O   0  0  0  0  0  0  0  0  0  0  0  0
  140.5480   79.8620  223.6720 C   0  0  0  0  0  0  0  0  0  0  0  0
  140.2600   78.5670  223.0740 C   0  0  0  0  0  0  0  0  0  0  0  0
  141.0550   77.4810  222.9310 C   0  0  0  0  0  0  0  0  0  0  0  0
  140.5810   76.3820  222.3430 C   0  0  0  0  0  0  0  0  0  0  0  0
  139.2590   76.4100  221.8970 C   0  0  0  0  0  0  0  0  0  0  0  0
  138.6760   78.0880  222.3410 S   0  0  0  0  0  0  0  0  0  0  0  0
  141.9380   81.2780  221.5790 N   0  0  0  0  0  0  0  0  0  0  0  0
  141.4520   82.6440  221.6460 C   0  0  0  0  0  0  0  0  0  0  0  0
  140.6430   82.8060  220.3570 C   0  0  0  0  0  0  0  0  0  0  0  0
  140.0000   81.4450  220.2930 C   0  0  0  0  0  0  0  0  0  0  0  0
  141.0940   80.5120  220.7260 C   0  0  1  0  0  0  0  0  0  0  0  0
  141.7580   79.9560  219.5200 C   0  0  0  0  0  0  0  0  0  0  0  0
  142.0540   80.7600  218.4160 C   0  0  0  0  0  0  0  0  0  0  0  0
  142.6410   79.9870  217.5080 N   0  0  0  0  0  0  0  0  0  0  0  0
  142.7420   78.7220  217.9660 C   0  0  0  0  0  0  0  0  0  0  0  0
  143.2780   77.6010  217.3620 C   0  0  0  0  0  0  0  0  0  0  0  0
  143.2370   76.4280  218.0870 C   0  0  0  0  0  0  0  0  0  0  0  0
  142.6820   76.3780  219.3690 C   0  0  0  0  0  0  0  0  0  0  0  0
  142.1570   77.5160  219.9390 C   0  0  0  0  0  0  0  0  0  0  0  0
  142.1900   78.6880  219.2320 C   0  0  0  0  0  0  0  0  0  0  0  0
  140.5790   79.7385  224.7646 H   0  0  0  0  0  0  0  0  0  0  0  0
  139.7520   80.5465  223.3436 H   0  0  0  0  0  0  0  0  0  0  0  0
  142.0912   77.5049  223.2995 H   0  0  0  0  0  0  0  0  0  0  0  0
  141.2081   75.4875  222.2144 H   0  0  0  0  0  0  0  0  0  0  0  0
  138.6969   75.6089  221.3947 H   0  0  0  0  0  0  0  0  0  0  0  0
  140.8142   82.7903  222.5302 H   0  0  0  0  0  0  0  0  0  0  0  0
  142.2638   83.3810  221.7348 H   0  0  0  0  0  0  0  0  0  0  0  0
  139.8959   83.6091  220.4398 H   0  0  0  0  0  0  0  0  0  0  0  0
  141.2284   83.0890  219.4697 H   0  0  0  0  0  0  0  0  0  0  0  0
  139.1403   81.3851  220.9766 H   0  0  0  0  0  0  0  0  0  0  0  0
  139.6077   81.2062  219.2935 H   0  0  0  0  0  0  0  0  0  0  0  0
  140.7451   79.6329  221.2876 H   0  0  0  0  0  0  0  0  0  0  0  0
  141.8405   81.8345  218.3168 H   0  0  0  0  0  0  0  0  0  0  0  0
  142.9790   80.3040  216.5730 H   0  0  0  0  0  0  0  0  0  0  0  0
  143.7155   77.6417  216.3536 H   0  0  0  0  0  0  0  0  0  0  0  0
  143.6512   75.5096  217.6455 H   0  0  0  0  0  0  0  0  0  0  0  0
  142.6647   75.4280  219.9233 H   0  0  0  0  0  0  0  0  0  0  0  0
  141.7177   77.4841  220.9470 H   0  0  0  0  0  0  0  0  0  0  0  0
  1  2  2  0
  2  3  2  0
  2  4  1  0
  4  5  1  0
  5  6  2  0
  6  7  1  0
  7  8  2  0
  8  9  1  0
  2 10  1  0
 10 11  1  0
 11 12  1  0
 12 13  1  0
 13 14  1  0
 14 15  1  0
 15 16  2  0
 16 17  1  0
 17 18  1  0
 18 19  2  0
 19 20  1  0
 20 21  2  0
 21 22  1  0
 22 23  2  0
  9  5  1  0
 14 10  1  0
 23 15  1  0
 23 18  1  0
  4 24  1  0
  4 25  1  0
  6 26  1  0
  7 27  1  0
  8 28  1  0
 11 29  1  0
 11 30  1  0
 12 31  1  0
 12 32  1  0
 13 33  1  0
 13 34  1  0
 14 35  1  1
 16 36  1  0
 17 37  1  0
 19 38  1  0
 20 39  1  0
 21 40  1  0
 22 41  1  0
M  END
>  <smiles>  (38) 
O=S(=O)(Cc1cccs1)N1CCCC1c1c[nH]c2ccccc12

>  <score_type>  (38) 
oracle

>  <origin>  (38) 
autodockgpu

>  <m_score__min__energy>  (38) 
-7.6500000000000004

>  <m_primary>  (38) 
energy

>  <meeko>  (38) 
{"free_energy": -6.57, "intermolecular_energy": -7.76, "internal_energy": -1.59, "cluster_size": 11, "cluster_id": 2, "rank_in_cluster": 11}

>  <energy>  (38) 
-6.75

>  <cluster_rmsd>  (38) 
0.26

>  <rmsd>  (38) 
272.39

>  <cluster>  (38) 
2

$$$$

     RDKit          3D

 41 44  0  0  1  0  0  0  0  0999 V2000
  141.8910   81.6470  224.2130 O   0  0  0  0  0  0  0  0  0  0  0  0
  142.3780   80.6380  223.2460 S   0  0  0  0  0  0  0  0  0  0  0  0
  143.8720   80.5140  223.4050 O   0  0  0  0  0  0  0  0  0  0  0  0
  141.7070   79.0240  223.5370 C   0  0  0  0  0  0  0  0  0  0  0  0
  140.2650   78.9360  223.3530 C   0  0  0  0  0  0  0  0  0  0  0  0
  139.2850   79.7650  223.7820 C   0  0  0  0  0  0  0  0  0  0  0  0
  138.0120   79.4900  223.4970 C   0  0  0  0  0  0  0  0  0  0  0  0
  137.7510   78.3370  222.7550 C   0  0  0  0  0  0  0  0  0  0  0  0
  139.4090   77.6190  222.4560 S   0  0  0  0  0  0  0  0  0  0  0  0
  142.0570   81.1610  221.6320 N   0  0  0  0  0  0  0  0  0  0  0  0
  141.4610   82.4840  221.6070 C   0  0  0  0  0  0  0  0  0  0  0  0
  140.5490   82.4490  220.3790 C   0  0  0  0  0  0  0  0  0  0  0  0
  140.0230   81.0420  220.4990 C   0  0  0  0  0  0  0  0  0  0  0  0
  141.2230   80.2470  220.9290 C   0  0  1  0  0  0  0  0  0  0  0  0
  141.8410   79.6230  219.7320 C   0  0  0  0  0  0  0  0  0  0  0  0
  142.1770   80.3820  218.6080 C   0  0  0  0  0  0  0  0  0  0  0  0
  142.7090   79.5540  217.7150 N   0  0  0  0  0  0  0  0  0  0  0  0
  142.7360   78.2960  218.2020 C   0  0  0  0  0  0  0  0  0  0  0  0
  143.1970   77.1310  217.6210 C   0  0  0  0  0  0  0  0  0  0  0  0
  143.0900   75.9800  218.3730 C   0  0  0  0  0  0  0  0  0  0  0  0
  142.5440   75.9930  219.6600 C   0  0  0  0  0  0  0  0  0  0  0  0
  142.0940   77.1740  220.2060 C   0  0  0  0  0  0  0  0  0  0  0  0
  142.1920   78.3250  219.4720 C   0  0  0  0  0  0  0  0  0  0  0  0
  142.1873   78.3200  222.8415 H   0  0  0  0  0  0  0  0  0  0  0  0
  141.9068   78.7835  224.5916 H   0  0  0  0  0  0  0  0  0  0  0  0
  139.5382   80.6633  224.3643 H   0  0  0  0  0  0  0  0  0  0  0  0
  137.1973   80.1476  223.8342 H   0  0  0  0  0  0  0  0  0  0  0  0
  136.7755   77.9494  222.4261 H   0  0  0  0  0  0  0  0  0  0  0  0
  140.8794   82.6694  222.5221 H   0  0  0  0  0  0  0  0  0  0  0  0
  142.2103   83.2878  221.5581 H   0  0  0  0  0  0  0  0  0  0  0  0
  139.7434   83.1951  220.4449 H   0  0  0  0  0  0  0  0  0  0  0  0
  141.0410   82.6847  219.4238 H   0  0  0  0  0  0  0  0  0  0  0  0
  139.2243   80.9851  221.2532 H   0  0  0  0  0  0  0  0  0  0  0  0
  139.5804   80.6717  219.5625 H   0  0  0  0  0  0  0  0  0  0  0  0
  140.9950   79.4054  221.5996 H   0  0  0  0  0  0  0  0  0  0  0  0
  142.0286   81.4650  218.4850 H   0  0  0  0  0  0  0  0  0  0  0  0
  143.0580   79.8280  216.7700 H   0  0  0  0  0  0  0  0  0  0  0  0
  143.6280   77.1216  216.6090 H   0  0  0  0  0  0  0  0  0  0  0  0
  143.4430   75.0280  217.9497 H   0  0  0  0  0  0  0  0  0  0  0  0
  142.4739   75.0590  220.2368 H   0  0  0  0  0  0  0  0  0  0  0  0
  141.6620   77.1923  221.2174 H   0  0  0  0  0  0  0  0  0  0  0  0
  1  2  2  0
  2  3  2  0
  2  4  1  0
  4  5  1  0
  5  6  2  0
  6  7  1  0
  7  8  2  0
  8  9  1  0
  2 10  1  0
 10 11  1  0
 11 12  1  0
 12 13  1  0
 13 14  1  0
 14 15  1  0
 15 16  2  0
 16 17  1  0
 17 18  1  0
 18 19  2  0
 19 20  1  0
 20 21  2  0
 21 22  1  0
 22 23  2  0
  9  5  1  0
 14 10  1  0
 23 15  1  0
 23 18  1  0
  4 24  1  0
  4 25  1  0
  6 26  1  0
  7 27  1  0
  8 28  1  0
 11 29  1  0
 11 30  1  0
 12 31  1  0
 12 32  1  0
 13 33  1  0
 13 34  1  0
 14 35  1  1
 16 36  1  0
 17 37  1  0
 19 38  1  0
 20 39  1  0
 21 40  1  0
 22 41  1  0
M  END
>  <smiles>  (39) 
O=S(=O)(Cc1cccs1)N1CCCC1c1c[nH]c2ccccc12

>  <score_type>  (39) 
oracle

>  <origin>  (39) 
autodockgpu

>  <m_score__min__energy>  (39) 
-7.6500000000000004

>  <m_primary>  (39) 
energy

>  <meeko>  (39) 
{"free_energy": -6.83, "intermolecular_energy": -8.03, "internal_energy": -1.5, "cluster_size": 11, "cluster_id": 2, "rank_in_cluster": 2}

>  <energy>  (39) 
-6.57

>  <cluster_rmsd>  (39) 
0.93

>  <rmsd>  (39) 
272.34

>  <cluster>  (39) 
2

$$$$

     RDKit          3D

 41 44  0  0  1  0  0  0  0  0999 V2000
  141.7130   81.4130  224.1950 O   0  0  0  0  0  0  0  0  0  0  0  0
  142.3550   80.5020  223.2210 S   0  0  0  0  0  0  0  0  0  0  0  0
  143.8420   80.5190  223.4690 O   0  0  0  0  0  0  0  0  0  0  0  0
  141.8350   78.8170  223.4070 C   0  0  0  0  0  0  0  0  0  0  0  0
  140.4070   78.6110  223.2130 C   0  0  0  0  0  0  0  0  0  0  0  0
  139.7490   77.5660  222.6600 C   0  0  0  0  0  0  0  0  0  0  0  0
  138.4180   77.5850  222.5820 C   0  0  0  0  0  0  0  0  0  0  0  0
  137.7590   78.7060  223.0870 C   0  0  0  0  0  0  0  0  0  0  0  0
  139.1120   79.7780  223.6990 S   0  0  0  0  0  0  0  0  0  0  0  0
  142.0770   81.0620  221.6120 N   0  0  0  0  0  0  0  0  0  0  0  0
  141.5250   82.4040  221.6010 C   0  0  0  0  0  0  0  0  0  0  0  0
  140.6320   82.4200  220.3580 C   0  0  0  0  0  0  0  0  0  0  0  0
  140.0590   81.0300  220.4460 C   0  0  0  0  0  0  0  0  0  0  0  0
  141.2250   80.1890  220.8810 C   0  0  1  0  0  0  0  0  0  0  0  0
  141.8410   79.5650  219.6830 C   0  0  0  0  0  0  0  0  0  0  0  0
  142.1690   80.3230  218.5550 C   0  0  0  0  0  0  0  0  0  0  0  0
  142.7010   79.4960  217.6620 N   0  0  0  0  0  0  0  0  0  0  0  0
  142.7370   78.2380  218.1520 C   0  0  0  0  0  0  0  0  0  0  0  0
  143.2020   77.0740  217.5720 C   0  0  0  0  0  0  0  0  0  0  0  0
  143.1040   75.9250  218.3270 C   0  0  0  0  0  0  0  0  0  0  0  0
  142.5620   75.9380  219.6160 C   0  0  0  0  0  0  0  0  0  0  0  0
  142.1090   77.1190  220.1610 C   0  0  0  0  0  0  0  0  0  0  0  0
  142.1990   78.2680  219.4240 C   0  0  0  0  0  0  0  0  0  0  0  0
  142.3756   78.2052  222.6698 H   0  0  0  0  0  0  0  0  0  0  0  0
  142.0591   78.5285  224.4446 H   0  0  0  0  0  0  0  0  0  0  0  0
  140.3111   76.7022  222.2754 H   0  0  0  0  0  0  0  0  0  0  0  0
  137.8605   76.7481  222.1361 H   0  0  0  0  0  0  0  0  0  0  0  0
  136.6767   78.9011  223.1119 H   0  0  0  0  0  0  0  0  0  0  0  0
  140.9351   82.5928  222.5100 H   0  0  0  0  0  0  0  0  0  0  0  0
  142.3009   83.1834  221.5780 H   0  0  0  0  0  0  0  0  0  0  0  0
  139.8503   83.1911  220.4242 H   0  0  0  0  0  0  0  0  0  0  0  0
  141.1465   82.6556  219.4147 H   0  0  0  0  0  0  0  0  0  0  0  0
  139.2468   80.9870  221.1866 H   0  0  0  0  0  0  0  0  0  0  0  0
  139.6198   80.6899  219.4966 H   0  0  0  0  0  0  0  0  0  0  0  0
  140.9586   79.3447  221.5338 H   0  0  0  0  0  0  0  0  0  0  0  0
  142.0149   81.4050  218.4300 H   0  0  0  0  0  0  0  0  0  0  0  0
  143.0460   79.7690  216.7150 H   0  0  0  0  0  0  0  0  0  0  0  0
  143.6291   77.0644  216.5584 H   0  0  0  0  0  0  0  0  0  0  0  0
  143.4611   74.9740  217.9050 H   0  0  0  0  0  0  0  0  0  0  0  0
  142.4974   75.0048  220.1948 H   0  0  0  0  0  0  0  0  0  0  0  0
  141.6810   77.1380  221.1742 H   0  0  0  0  0  0  0  0  0  0  0  0
  1  2  2  0
  2  3  2  0
  2  4  1  0
  4  5  1  0
  5  6  2  0
  6  7  1  0
  7  8  2  0
  8  9  1  0
  2 10  1  0
 10 11  1  0
 11 12  1  0
 12 13  1  0
 13 14  1  0
 14 15  1  0
 15 16  2  0
 16 17  1  0
 17 18  1  0
 18 19  2  0
 19 20  1  0
 20 21  2  0
 21 22  1  0
 22 23  2  0
  9  5  1  0
 14 10  1  0
 23 15  1  0
 23 18  1  0
  4 24  1  0
  4 25  1  0
  6 26  1  0
  7 27  1  0
  8 28  1  0
 11 29  1  0
 11 30  1  0
 12 31  1  0
 12 32  1  0
 13 33  1  0
 13 34  1  0
 14 35  1  1
 16 36  1  0
 17 37  1  0
 19 38  1  0
 20 39  1  0
 21 40  1  0
 22 41  1  0
M  END
>  <smiles>  (40) 
O=S(=O)(Cc1cccs1)N1CCCC1c1c[nH]c2ccccc12

>  <score_type>  (40) 
oracle

>  <origin>  (40) 
autodockgpu

>  <m_score__min__energy>  (40) 
-7.6500000000000004

>  <m_primary>  (40) 
energy

>  <meeko>  (40) 
{"free_energy": -6.78, "intermolecular_energy": -7.97, "internal_energy": -1.5, "cluster_size": 11, "cluster_id": 2, "rank_in_cluster": 9}

>  <energy>  (40) 
-6.35

>  <cluster_rmsd>  (40) 
0.0

>  <rmsd>  (40) 
272.41

>  <cluster>  (40) 
3

$$$$
