RCQFLYQWKFFJSS-SREBMQDQNA-N
     RDKit          3D

 64 69  0  0  0  0  0  0  0  0999 V2000
  141.0550   70.9510  228.2600 C   0  0  0  0  0  0  0  0  0  0  0  0
  140.9390   69.5630  228.3370 C   0  0  0  0  0  0  0  0  0  0  0  0
  140.7230   68.8320  227.2090 N   0  0  0  0  0  0  0  0  0  0  0  0
  140.6070   69.4200  225.9850 C   0  0  0  0  0  0  0  0  0  0  0  0
  140.7230   70.8150  225.8590 C   0  0  0  0  0  0  0  0  0  0  0  0
  140.6020   71.4810  224.5100 C   0  0  0  0  0  0  0  0  0  0  0  0
  139.1380   71.4940  224.0370 C   0  0  0  0  0  0  0  0  0  0  0  0
  139.0180   72.0660  222.6930 N   0  0  0  0  0  0  0  0  0  0  0  0
  140.1060   72.7280  222.0360 C   0  0  0  0  0  0  0  0  0  0  0  0
  141.1050   71.9930  221.4840 N   0  0  0  0  0  0  0  0  0  0  0  0
  142.1380   72.6050  220.8460 C   0  0  0  0  0  0  0  0  0  0  0  0
  143.1720   71.8280  220.2140 N   0  0  0  0  0  0  0  0  0  0  0  0
  144.5660   72.3130  220.2520 C   0  0  0  0  0  0  0  0  0  0  0  0
  145.4440   71.6180  219.2080 C   0  0  0  0  0  0  0  0  0  0  0  0
  145.2710   70.1320  219.3030 C   0  0  0  0  0  0  0  0  0  0  0  0
  146.3630   69.2580  219.1740 C   0  0  0  0  0  0  0  0  0  0  0  0
  146.1640   67.8750  219.2430 C   0  0  0  0  0  0  0  0  0  0  0  0
  144.8760   67.3600  219.4150 C   0  0  0  0  0  0  0  0  0  0  0  0
  143.7830   68.2250  219.5240 C   0  0  0  0  0  0  0  0  0  0  0  0
  143.9770   69.6150  219.4820 C   0  0  0  0  0  0  0  0  0  0  0  0
  142.8080   70.5620  219.5470 C   0  0  0  0  0  0  0  0  0  0  0  0
  142.1810   73.9630  220.7990 N   0  0  0  0  0  0  0  0  0  0  0  0
  141.1990   74.7090  221.3660 C   0  0  0  0  0  0  0  0  0  0  0  0
  141.2830   76.1480  221.3620 N   0  0  0  0  0  0  0  0  0  0  0  0
  141.9110   76.8230  220.2130 C   0  0  0  0  0  0  0  0  0  0  0  0
  141.4640   78.2790  220.1010 C   0  0  0  0  0  0  0  0  0  0  0  0
  141.6810   78.9810  221.4070 C   0  0  0  0  0  0  0  0  0  0  0  0
  142.1070   80.3190  221.4400 C   0  0  0  0  0  0  0  0  0  0  0  0
  142.2930   80.9660  222.6650 C   0  0  0  0  0  0  0  0  0  0  0  0
  142.0350   80.2890  223.8610 C   0  0  0  0  0  0  0  0  0  0  0  0
  141.5910   78.9620  223.8330 C   0  0  0  0  0  0  0  0  0  0  0  0
  141.4170   78.2980  222.6080 C   0  0  0  0  0  0  0  0  0  0  0  0
  140.8840   76.8860  222.5780 C   0  0  0  0  0  0  0  0  0  0  0  0
  140.1560   74.0830  221.9720 N   0  0  0  0  0  0  0  0  0  0  0  0
  140.9520   71.5780  227.0160 C   0  0  0  0  0  0  0  0  0  0  0  0
  141.2258   71.5456  229.1695 H   0  0  0  0  0  0  0  0  0  0  0  0
  141.0222   69.0583  229.3108 H   0  0  0  0  0  0  0  0  0  0  0  0
  140.4222   68.8017  225.0942 H   0  0  0  0  0  0  0  0  0  0  0  0
  140.9661   72.5163  224.5849 H   0  0  0  0  0  0  0  0  0  0  0  0
  141.2028   70.9158  223.7823 H   0  0  0  0  0  0  0  0  0  0  0  0
  138.7568   70.4623  224.0227 H   0  0  0  0  0  0  0  0  0  0  0  0
  138.5539   72.1149  224.7322 H   0  0  0  0  0  0  0  0  0  0  0  0
  138.0590   72.1770  222.2920 H   0  0  0  0  0  0  0  0  0  0  0  0
  144.5708   73.3954  220.0562 H   0  0  0  0  0  0  0  0  0  0  0  0
  144.9774   72.0866  221.2467 H   0  0  0  0  0  0  0  0  0  0  0  0
  145.1518   71.9556  218.2027 H   0  0  0  0  0  0  0  0  0  0  0  0
  146.4979   71.8724  219.3941 H   0  0  0  0  0  0  0  0  0  0  0  0
  147.3747   69.6610  219.0187 H   0  0  0  0  0  0  0  0  0  0  0  0
  147.0223   67.1919  219.1618 H   0  0  0  0  0  0  0  0  0  0  0  0
  144.7220   66.2720  219.4647 H   0  0  0  0  0  0  0  0  0  0  0  0
  142.7689   67.8157  219.6429 H   0  0  0  0  0  0  0  0  0  0  0  0
  142.4691   70.7819  218.5239 H   0  0  0  0  0  0  0  0  0  0  0  0
  142.0082   70.0826  220.1306 H   0  0  0  0  0  0  0  0  0  0  0  0
  143.0037   76.7938  220.3358 H   0  0  0  0  0  0  0  0  0  0  0  0
  141.6036   76.2981  219.2965 H   0  0  0  0  0  0  0  0  0  0  0  0
  142.0486   78.7806  219.3157 H   0  0  0  0  0  0  0  0  0  0  0  0
  140.3944   78.3109  219.8460 H   0  0  0  0  0  0  0  0  0  0  0  0
  142.2946   80.8587  220.5001 H   0  0  0  0  0  0  0  0  0  0  0  0
  142.6427   82.0087  222.6882 H   0  0  0  0  0  0  0  0  0  0  0  0
  142.1811   80.7996  224.8243 H   0  0  0  0  0  0  0  0  0  0  0  0
  141.3773   78.4365  224.7754 H   0  0  0  0  0  0  0  0  0  0  0  0
  141.2669   76.3473  223.4573 H   0  0  0  0  0  0  0  0  0  0  0  0
  139.7857   76.9470  222.5824 H   0  0  0  0  0  0  0  0  0  0  0  0
  141.0504   72.6711  226.9423 H   0  0  0  0  0  0  0  0  0  0  0  0
  1  2  2  0
  2  3  1  0
  3  4  2  0
  4  5  1  0
  5  6  1  0
  6  7  1  0
  7  8  1  0
  8  9  1  0
  9 10  2  0
 10 11  1  0
 11 12  1  0
 12 13  1  0
 13 14  1  0
 14 15  1  0
 15 16  2  0
 16 17  1  0
 17 18  2  0
 18 19  1  0
 19 20  2  0
 20 21  1  0
 11 22  2  0
 22 23  1  0
 23 24  1  0
 24 25  1  0
 25 26  1  0
 26 27  1  0
 27 28  2  0
 28 29  1  0
 29 30  2  0
 30 31  1  0
 31 32  2  0
 32 33  1  0
 23 34  2  0
  5 35  2  0
 35  1  1  0
 34  9  1  0
 21 12  1  0
 33 24  1  0
 20 15  1  0
 32 27  1  0
  1 36  1  0
  2 37  1  0
  4 38  1  0
  6 39  1  0
  6 40  1  0
  7 41  1  0
  7 42  1  0
  8 43  1  0
 13 44  1  0
 13 45  1  0
 14 46  1  0
 14 47  1  0
 16 48  1  0
 17 49  1  0
 18 50  1  0
 19 51  1  0
 21 52  1  0
 21 53  1  0
 25 54  1  0
 25 55  1  0
 26 56  1  0
 26 57  1  0
 28 58  1  0
 29 59  1  0
 30 60  1  0
 31 61  1  0
 33 62  1  0
 33 63  1  0
 35 64  1  0
M  END
>  <UniqueID>  (1) 
593

>  <SMILES>  (1) 
c1cncc(CCNc2nc(N3CCc4ccccc4C3)nc(N3CCc4ccccc4C3)n2)c1

>  <Energy>  (1) 
72.57102426862981

>  <Genealogy>  (1) 
c1cncc(CCNc2nc(N3CCc4ccccc4C3)nc(N3CCc4ccccc4C3)n2)c1 (3D coordinates assigned)
c1cncc(CCNc2nc(N3CCc4ccccc4C3)nc(N3CCc4ccccc4C3)n2)c1 (nonaromatic ring conformer: 72.57102426862981 kcal/mol)

>  <smiles>  (1) 
c1cncc(CCNc2nc(N3CCc4ccccc4C3)nc(N3CCc4ccccc4C3)n2)c1

>  <score_type>  (1) 
oracle

>  <origin>  (1) 
autodockgpu

>  <m_score__min__energy>  (1) 
-10.68

>  <m_primary>  (1) 
energy

>  <meeko>  (1) 
{"free_energy": -10.68, "intermolecular_energy": -12.47, "internal_energy": -0.93, "cluster_size": 10, "cluster_id": 1, "rank_in_cluster": 1}

>  <energy>  (1) 
-10.68

>  <cluster_rmsd>  (1) 
0.0

>  <rmsd>  (1) 
269.53

>  <cluster>  (1) 
1

$$$$
RCQFLYQWKFFJSS-SREBMQDQNA-N
     RDKit          3D

 64 69  0  0  0  0  0  0  0  0999 V2000
  146.3000   72.8270  221.0310 C   0  0  0  0  0  0  0  0  0  0  0  0
  145.8510   74.1330  221.2270 C   0  0  0  0  0  0  0  0  0  0  0  0
  144.9020   74.6590  220.4040 N   0  0  0  0  0  0  0  0  0  0  0  0
  144.3710   73.9440  219.3730 C   0  0  0  0  0  0  0  0  0  0  0  0
  144.7880   72.6220  219.1420 C   0  0  0  0  0  0  0  0  0  0  0  0
  144.2050   71.8150  218.0080 C   0  0  0  0  0  0  0  0  0  0  0  0
  142.9630   71.0370  218.4760 C   0  0  0  0  0  0  0  0  0  0  0  0
  141.7880   71.9080  218.5570 N   0  0  0  0  0  0  0  0  0  0  0  0
  141.4060   72.5790  219.7650 C   0  0  0  0  0  0  0  0  0  0  0  0
  140.8630   71.8690  220.7860 N   0  0  0  0  0  0  0  0  0  0  0  0
  140.5060   72.4890  221.9420 C   0  0  0  0  0  0  0  0  0  0  0  0
  139.9790   71.7310  223.0470 N   0  0  0  0  0  0  0  0  0  0  0  0
  138.7930   70.8760  222.8350 C   0  0  0  0  0  0  0  0  0  0  0  0
  138.1250   70.4850  224.1560 C   0  0  0  0  0  0  0  0  0  0  0  0
  139.1520   69.9460  225.1070 C   0  0  0  0  0  0  0  0  0  0  0  0
  138.8800   68.8410  225.9290 C   0  0  0  0  0  0  0  0  0  0  0  0
  139.8500   68.3790  226.8240 C   0  0  0  0  0  0  0  0  0  0  0  0
  141.0830   69.0320  226.9190 C   0  0  0  0  0  0  0  0  0  0  0  0
  141.3520   70.1440  226.1170 C   0  0  0  0  0  0  0  0  0  0  0  0
  140.3920   70.5990  225.1980 C   0  0  0  0  0  0  0  0  0  0  0  0
  140.6420   71.8260  224.3620 C   0  0  0  0  0  0  0  0  0  0  0  0
  140.6640   73.8340  222.0530 N   0  0  0  0  0  0  0  0  0  0  0  0
  141.1870   74.5580  221.0300 C   0  0  0  0  0  0  0  0  0  0  0  0
  141.2950   75.9930  221.1340 N   0  0  0  0  0  0  0  0  0  0  0  0
  142.0140   76.7310  220.0810 C   0  0  0  0  0  0  0  0  0  0  0  0
  141.6010   78.2010  220.0420 C   0  0  0  0  0  0  0  0  0  0  0  0
  141.7370   78.8060  221.4070 C   0  0  0  0  0  0  0  0  0  0  0  0
  142.1820   80.1290  221.5640 C   0  0  0  0  0  0  0  0  0  0  0  0
  142.2910   80.6850  222.8420 C   0  0  0  0  0  0  0  0  0  0  0  0
  141.9380   79.9320  223.9650 C   0  0  0  0  0  0  0  0  0  0  0  0
  141.4750   78.6200  223.8130 C   0  0  0  0  0  0  0  0  0  0  0  0
  141.3770   78.0470  222.5350 C   0  0  0  0  0  0  0  0  0  0  0  0
  140.8240   76.6520  222.3680 C   0  0  0  0  0  0  0  0  0  0  0  0
  141.5680   73.9210  219.8920 N   0  0  0  0  0  0  0  0  0  0  0  0
  145.7620   72.0670  219.9890 C   0  0  0  0  0  0  0  0  0  0  0  0
  147.0700   72.3996  221.6901 H   0  0  0  0  0  0  0  0  0  0  0  0
  146.2639   74.7387  222.0472 H   0  0  0  0  0  0  0  0  0  0  0  0
  143.6140   74.4026  218.7198 H   0  0  0  0  0  0  0  0  0  0  0  0
  143.9190   72.4942  217.1913 H   0  0  0  0  0  0  0  0  0  0  0  0
  144.9617   71.0965  217.6599 H   0  0  0  0  0  0  0  0  0  0  0  0
  142.7587   70.2254  217.7622 H   0  0  0  0  0  0  0  0  0  0  0  0
  143.1646   70.6322  219.4787 H   0  0  0  0  0  0  0  0  0  0  0  0
  141.0960   71.8720  217.7740 H   0  0  0  0  0  0  0  0  0  0  0  0
  138.0658   71.4239  222.2177 H   0  0  0  0  0  0  0  0  0  0  0  0
  139.1238   69.9536  222.3352 H   0  0  0  0  0  0  0  0  0  0  0  0
  137.6468   71.3709  224.5992 H   0  0  0  0  0  0  0  0  0  0  0  0
  137.3675   69.7108  223.9638 H   0  0  0  0  0  0  0  0  0  0  0  0
  137.9034   68.3384  225.8690 H   0  0  0  0  0  0  0  0  0  0  0  0
  139.6430   67.5012  227.4538 H   0  0  0  0  0  0  0  0  0  0  0  0
  141.8429   68.6693  227.6268 H   0  0  0  0  0  0  0  0  0  0  0  0
  142.3173   70.6641  226.2054 H   0  0  0  0  0  0  0  0  0  0  0  0
  140.2536   72.7064  224.8949 H   0  0  0  0  0  0  0  0  0  0  0  0
  141.7257   71.9143  224.1956 H   0  0  0  0  0  0  0  0  0  0  0  0
  143.0948   76.6690  220.2762 H   0  0  0  0  0  0  0  0  0  0  0  0
  141.7632   76.2775  219.1107 H   0  0  0  0  0  0  0  0  0  0  0  0
  142.2482   78.7430  219.3368 H   0  0  0  0  0  0  0  0  0  0  0  0
  140.5528   78.2740  219.7165 H   0  0  0  0  0  0  0  0  0  0  0  0
  142.4451   80.7285  220.6800 H   0  0  0  0  0  0  0  0  0  0  0  0
  142.6549   81.7159  222.9637 H   0  0  0  0  0  0  0  0  0  0  0  0
  142.0242   80.3711  224.9699 H   0  0  0  0  0  0  0  0  0  0  0  0
  141.1866   78.0351  224.6988 H   0  0  0  0  0  0  0  0  0  0  0  0
  141.1351   76.0451  223.2311 H   0  0  0  0  0  0  0  0  0  0  0  0
  139.7293   76.7359  222.3010 H   0  0  0  0  0  0  0  0  0  0  0  0
  146.1016   71.0326  219.8316 H   0  0  0  0  0  0  0  0  0  0  0  0
  1  2  2  0
  2  3  1  0
  3  4  2  0
  4  5  1  0
  5  6  1  0
  6  7  1  0
  7  8  1  0
  8  9  1  0
  9 10  2  0
 10 11  1  0
 11 12  1  0
 12 13  1  0
 13 14  1  0
 14 15  1  0
 15 16  2  0
 16 17  1  0
 17 18  2  0
 18 19  1  0
 19 20  2  0
 20 21  1  0
 11 22  2  0
 22 23  1  0
 23 24  1  0
 24 25  1  0
 25 26  1  0
 26 27  1  0
 27 28  2  0
 28 29  1  0
 29 30  2  0
 30 31  1  0
 31 32  2  0
 32 33  1  0
 23 34  2  0
  5 35  2  0
 35  1  1  0
 34  9  1  0
 21 12  1  0
 33 24  1  0
 20 15  1  0
 32 27  1  0
  1 36  1  0
  2 37  1  0
  4 38  1  0
  6 39  1  0
  6 40  1  0
  7 41  1  0
  7 42  1  0
  8 43  1  0
 13 44  1  0
 13 45  1  0
 14 46  1  0
 14 47  1  0
 16 48  1  0
 17 49  1  0
 18 50  1  0
 19 51  1  0
 21 52  1  0
 21 53  1  0
 25 54  1  0
 25 55  1  0
 26 56  1  0
 26 57  1  0
 28 58  1  0
 29 59  1  0
 30 60  1  0
 31 61  1  0
 33 62  1  0
 33 63  1  0
 35 64  1  0
M  END
>  <UniqueID>  (2) 
593

>  <SMILES>  (2) 
c1cncc(CCNc2nc(N3CCc4ccccc4C3)nc(N3CCc4ccccc4C3)n2)c1

>  <Energy>  (2) 
72.57102426862981

>  <Genealogy>  (2) 
c1cncc(CCNc2nc(N3CCc4ccccc4C3)nc(N3CCc4ccccc4C3)n2)c1 (3D coordinates assigned)
c1cncc(CCNc2nc(N3CCc4ccccc4C3)nc(N3CCc4ccccc4C3)n2)c1 (nonaromatic ring conformer: 72.57102426862981 kcal/mol)

>  <smiles>  (2) 
c1cncc(CCNc2nc(N3CCc4ccccc4C3)nc(N3CCc4ccccc4C3)n2)c1

>  <score_type>  (2) 
oracle

>  <origin>  (2) 
autodockgpu

>  <m_score__min__energy>  (2) 
-10.68

>  <m_primary>  (2) 
energy

>  <meeko>  (2) 
{"free_energy": -9.71, "intermolecular_energy": -11.5, "internal_energy": -1.39, "cluster_size": 10, "cluster_id": 1, "rank_in_cluster": 8}

>  <energy>  (2) 
-10.47

>  <cluster_rmsd>  (2) 
1.96

>  <rmsd>  (2) 
269.34

>  <cluster>  (2) 
1

$$$$
RCQFLYQWKFFJSS-SREBMQDQNA-N
     RDKit          3D

 64 69  0  0  0  0  0  0  0  0999 V2000
  143.3130   76.7070  219.3660 C   0  0  0  0  0  0  0  0  0  0  0  0
  143.1150   76.8160  217.9890 C   0  0  0  0  0  0  0  0  0  0  0  0
  143.2980   75.7320  217.1860 N   0  0  0  0  0  0  0  0  0  0  0  0
  143.6820   74.5240  217.6870 C   0  0  0  0  0  0  0  0  0  0  0  0
  143.8860   74.3660  219.0680 C   0  0  0  0  0  0  0  0  0  0  0  0
  144.3040   73.0330  219.6400 C   0  0  0  0  0  0  0  0  0  0  0  0
  143.4400   71.8980  219.0650 C   0  0  0  0  0  0  0  0  0  0  0  0
  142.0130   72.2230  219.1460 N   0  0  0  0  0  0  0  0  0  0  0  0
  141.3770   72.6120  220.3700 C   0  0  0  0  0  0  0  0  0  0  0  0
  141.0530   73.9140  220.5760 N   0  0  0  0  0  0  0  0  0  0  0  0
  140.4390   74.2970  221.7260 C   0  0  0  0  0  0  0  0  0  0  0  0
  140.0460   75.6680  221.9250 N   0  0  0  0  0  0  0  0  0  0  0  0
  138.6760   75.9660  222.3870 C   0  0  0  0  0  0  0  0  0  0  0  0
  138.2960   77.4300  222.1470 C   0  0  0  0  0  0  0  0  0  0  0  0
  139.3710   78.3300  222.6790 C   0  0  0  0  0  0  0  0  0  0  0  0
  139.0610   79.5220  223.3530 C   0  0  0  0  0  0  0  0  0  0  0  0
  140.0880   80.3530  223.8140 C   0  0  0  0  0  0  0  0  0  0  0  0
  141.4240   80.0100  223.5820 C   0  0  0  0  0  0  0  0  0  0  0  0
  141.7370   78.8350  222.8940 C   0  0  0  0  0  0  0  0  0  0  0  0
  140.7130   77.9830  222.4500 C   0  0  0  0  0  0  0  0  0  0  0  0
  141.0280   76.7380  221.6630 C   0  0  0  0  0  0  0  0  0  0  0  0
  140.1860   73.3700  222.6870 N   0  0  0  0  0  0  0  0  0  0  0  0
  140.5260   72.0680  222.5020 C   0  0  0  0  0  0  0  0  0  0  0  0
  140.3070   71.1020  223.5510 N   0  0  0  0  0  0  0  0  0  0  0  0
  139.1160   70.2370  223.4870 C   0  0  0  0  0  0  0  0  0  0  0  0
  139.2940   68.9700  224.3210 C   0  0  0  0  0  0  0  0  0  0  0  0
  139.7070   69.3310  225.7160 C   0  0  0  0  0  0  0  0  0  0  0  0
  139.2270   68.6030  226.8170 C   0  0  0  0  0  0  0  0  0  0  0  0
  139.6300   68.9420  228.1120 C   0  0  0  0  0  0  0  0  0  0  0  0
  140.5280   69.9940  228.3120 C   0  0  0  0  0  0  0  0  0  0  0  0
  141.0260   70.7090  227.2180 C   0  0  0  0  0  0  0  0  0  0  0  0
  140.6140   70.3870  225.9140 C   0  0  0  0  0  0  0  0  0  0  0  0
  141.1960   71.1220  224.7300 C   0  0  0  0  0  0  0  0  0  0  0  0
  141.1100   71.6940  221.3340 N   0  0  0  0  0  0  0  0  0  0  0  0
  143.6930   75.4760  219.9080 C   0  0  0  0  0  0  0  0  0  0  0  0
  143.1714   77.5812  220.0184 H   0  0  0  0  0  0  0  0  0  0  0  0
  142.8108   77.7786  217.5520 H   0  0  0  0  0  0  0  0  0  0  0  0
  143.8325   73.6712  217.0087 H   0  0  0  0  0  0  0  0  0  0  0  0
  145.3584   72.8469  219.3880 H   0  0  0  0  0  0  0  0  0  0  0  0
  144.1707   73.0598  220.7316 H   0  0  0  0  0  0  0  0  0  0  0  0
  143.7122   71.7389  218.0112 H   0  0  0  0  0  0  0  0  0  0  0  0
  143.6234   70.9882  219.6554 H   0  0  0  0  0  0  0  0  0  0  0  0
  141.4050   71.9630  218.3360 H   0  0  0  0  0  0  0  0  0  0  0  0
  137.9696   75.3218  221.8429 H   0  0  0  0  0  0  0  0  0  0  0  0
  138.6336   75.7768  223.4698 H   0  0  0  0  0  0  0  0  0  0  0  0
  138.1762   77.6035  221.0674 H   0  0  0  0  0  0  0  0  0  0  0  0
  137.3510   77.6486  222.6658 H   0  0  0  0  0  0  0  0  0  0  0  0
  138.0104   79.8027  223.5187 H   0  0  0  0  0  0  0  0  0  0  0  0
  139.8445   81.2768  224.3593 H   0  0  0  0  0  0  0  0  0  0  0  0
  142.2298   80.6666  223.9419 H   0  0  0  0  0  0  0  0  0  0  0  0
  142.7884   78.5767  222.6996 H   0  0  0  0  0  0  0  0  0  0  0  0
  141.0142   76.9806  220.5902 H   0  0  0  0  0  0  0  0  0  0  0  0
  142.0206   76.3776  221.9710 H   0  0  0  0  0  0  0  0  0  0  0  0
  138.2484   70.7958  223.8679 H   0  0  0  0  0  0  0  0  0  0  0  0
  138.9634   69.9397  222.4390 H   0  0  0  0  0  0  0  0  0  0  0  0
  138.3430   68.4182  224.3535 H   0  0  0  0  0  0  0  0  0  0  0  0
  140.0730   68.3421  223.8638 H   0  0  0  0  0  0  0  0  0  0  0  0
  138.5326   67.7644  226.6600 H   0  0  0  0  0  0  0  0  0  0  0  0
  139.2402   68.3805  228.9738 H   0  0  0  0  0  0  0  0  0  0  0  0
  140.8437   70.2601  229.3316 H   0  0  0  0  0  0  0  0  0  0  0  0
  141.7434   71.5271  227.3793 H   0  0  0  0  0  0  0  0  0  0  0  0
  141.3736   72.1685  225.0186 H   0  0  0  0  0  0  0  0  0  0  0  0
  142.1295   70.6121  224.4497 H   0  0  0  0  0  0  0  0  0  0  0  0
  143.8412   75.3759  220.9934 H   0  0  0  0  0  0  0  0  0  0  0  0
  1  2  2  0
  2  3  1  0
  3  4  2  0
  4  5  1  0
  5  6  1  0
  6  7  1  0
  7  8  1  0
  8  9  1  0
  9 10  2  0
 10 11  1  0
 11 12  1  0
 12 13  1  0
 13 14  1  0
 14 15  1  0
 15 16  2  0
 16 17  1  0
 17 18  2  0
 18 19  1  0
 19 20  2  0
 20 21  1  0
 11 22  2  0
 22 23  1  0
 23 24  1  0
 24 25  1  0
 25 26  1  0
 26 27  1  0
 27 28  2  0
 28 29  1  0
 29 30  2  0
 30 31  1  0
 31 32  2  0
 32 33  1  0
 23 34  2  0
  5 35  2  0
 35  1  1  0
 34  9  1  0
 21 12  1  0
 33 24  1  0
 20 15  1  0
 32 27  1  0
  1 36  1  0
  2 37  1  0
  4 38  1  0
  6 39  1  0
  6 40  1  0
  7 41  1  0
  7 42  1  0
  8 43  1  0
 13 44  1  0
 13 45  1  0
 14 46  1  0
 14 47  1  0
 16 48  1  0
 17 49  1  0
 18 50  1  0
 19 51  1  0
 21 52  1  0
 21 53  1  0
 25 54  1  0
 25 55  1  0
 26 56  1  0
 26 57  1  0
 28 58  1  0
 29 59  1  0
 30 60  1  0
 31 61  1  0
 33 62  1  0
 33 63  1  0
 35 64  1  0
M  END
>  <UniqueID>  (3) 
593

>  <SMILES>  (3) 
c1cncc(CCNc2nc(N3CCc4ccccc4C3)nc(N3CCc4ccccc4C3)n2)c1

>  <Energy>  (3) 
72.57102426862981

>  <Genealogy>  (3) 
c1cncc(CCNc2nc(N3CCc4ccccc4C3)nc(N3CCc4ccccc4C3)n2)c1 (3D coordinates assigned)
c1cncc(CCNc2nc(N3CCc4ccccc4C3)nc(N3CCc4ccccc4C3)n2)c1 (nonaromatic ring conformer: 72.57102426862981 kcal/mol)

>  <smiles>  (3) 
c1cncc(CCNc2nc(N3CCc4ccccc4C3)nc(N3CCc4ccccc4C3)n2)c1

>  <score_type>  (3) 
oracle

>  <origin>  (3) 
autodockgpu

>  <m_score__min__energy>  (3) 
-10.68

>  <m_primary>  (3) 
energy

>  <meeko>  (3) 
{"free_energy": -9.33, "intermolecular_energy": -11.12, "internal_energy": -1.54, "cluster_size": 10, "cluster_id": 2, "rank_in_cluster": 7}

>  <energy>  (3) 
-10.43

>  <cluster_rmsd>  (3) 
0.76

>  <rmsd>  (3) 
269.48

>  <cluster>  (3) 
1

$$$$
RCQFLYQWKFFJSS-SREBMQDQNA-N
     RDKit          3D

 64 69  0  0  0  0  0  0  0  0999 V2000
  143.1640   76.8040  219.7070 C   0  0  0  0  0  0  0  0  0  0  0  0
  142.1740   77.7620  219.4860 C   0  0  0  0  0  0  0  0  0  0  0  0
  141.1330   77.4870  218.6530 N   0  0  0  0  0  0  0  0  0  0  0  0
  141.0260   76.2900  218.0100 C   0  0  0  0  0  0  0  0  0  0  0  0
  141.9970   75.2940  218.2070 C   0  0  0  0  0  0  0  0  0  0  0  0
  141.8890   73.9610  217.5070 C   0  0  0  0  0  0  0  0  0  0  0  0
  142.5360   72.8480  218.3500 C   0  0  0  0  0  0  0  0  0  0  0  0
  141.5270   72.0920  219.0970 N   0  0  0  0  0  0  0  0  0  0  0  0
  140.9940   72.5430  220.3490 C   0  0  0  0  0  0  0  0  0  0  0  0
  140.6610   71.6370  221.3030 N   0  0  0  0  0  0  0  0  0  0  0  0
  140.1660   72.0490  222.5000 C   0  0  0  0  0  0  0  0  0  0  0  0
  139.8620   71.0940  223.5340 N   0  0  0  0  0  0  0  0  0  0  0  0
  139.5020   69.7120  223.1570 C   0  0  0  0  0  0  0  0  0  0  0  0
  138.8170   68.9650  224.3050 C   0  0  0  0  0  0  0  0  0  0  0  0
  139.6250   69.1060  225.5610 C   0  0  0  0  0  0  0  0  0  0  0  0
  139.7990   68.0290  226.4450 C   0  0  0  0  0  0  0  0  0  0  0  0
  140.5370   68.2010  227.6210 C   0  0  0  0  0  0  0  0  0  0  0  0
  141.0820   69.4520  227.9290 C   0  0  0  0  0  0  0  0  0  0  0  0
  140.8950   70.5320  227.0620 C   0  0  0  0  0  0  0  0  0  0  0  0
  140.1770   70.3610  225.8670 C   0  0  0  0  0  0  0  0  0  0  0  0
  139.9210   71.5240  224.9450 C   0  0  0  0  0  0  0  0  0  0  0  0
  139.9700   73.3750  222.7190 N   0  0  0  0  0  0  0  0  0  0  0  0
  140.2780   74.2900  221.7640 C   0  0  0  0  0  0  0  0  0  0  0  0
  140.0120   75.6900  221.9820 N   0  0  0  0  0  0  0  0  0  0  0  0
  138.8210   76.2950  221.3610 C   0  0  0  0  0  0  0  0  0  0  0  0
  138.3950   77.5710  222.0830 C   0  0  0  0  0  0  0  0  0  0  0  0
  139.5620   78.5070  222.1960 C   0  0  0  0  0  0  0  0  0  0  0  0
  139.3830   79.8940  222.0680 C   0  0  0  0  0  0  0  0  0  0  0  0
  140.4760   80.7570  222.1880 C   0  0  0  0  0  0  0  0  0  0  0  0
  141.7470   80.2410  222.4560 C   0  0  0  0  0  0  0  0  0  0  0  0
  141.9280   78.8620  222.6050 C   0  0  0  0  0  0  0  0  0  0  0  0
  140.8380   77.9860  222.4690 C   0  0  0  0  0  0  0  0  0  0  0  0
  141.0240   76.5030  222.6860 C   0  0  0  0  0  0  0  0  0  0  0  0
  140.8030   73.8660  220.5840 N   0  0  0  0  0  0  0  0  0  0  0  0
  143.0720   75.5640  219.0700 C   0  0  0  0  0  0  0  0  0  0  0  0
  144.0089   77.0230  220.3764 H   0  0  0  0  0  0  0  0  0  0  0  0
  142.2347   78.7403  219.9853 H   0  0  0  0  0  0  0  0  0  0  0  0
  140.1775   76.1034  217.3353 H   0  0  0  0  0  0  0  0  0  0  0  0
  140.8271   73.7220  217.3479 H   0  0  0  0  0  0  0  0  0  0  0  0
  142.4153   74.0249  216.5432 H   0  0  0  0  0  0  0  0  0  0  0  0
  143.0769   72.1612  217.6824 H   0  0  0  0  0  0  0  0  0  0  0  0
  143.2250   73.3135  219.0701 H   0  0  0  0  0  0  0  0  0  0  0  0
  141.3470   71.1020  218.8130 H   0  0  0  0  0  0  0  0  0  0  0  0
  138.8177   69.7453  222.2964 H   0  0  0  0  0  0  0  0  0  0  0  0
  140.4290   69.1752  222.9071 H   0  0  0  0  0  0  0  0  0  0  0  0
  137.8141   69.3867  224.4674 H   0  0  0  0  0  0  0  0  0  0  0  0
  138.7350   67.8993  224.0452 H   0  0  0  0  0  0  0  0  0  0  0  0
  139.3549   67.0498  226.2128 H   0  0  0  0  0  0  0  0  0  0  0  0
  140.6888   67.3521  228.3038 H   0  0  0  0  0  0  0  0  0  0  0  0
  141.6591   69.5860  228.8558 H   0  0  0  0  0  0  0  0  0  0  0  0
  141.3110   71.5181  227.3160 H   0  0  0  0  0  0  0  0  0  0  0  0
  138.9628   71.9910  225.2166 H   0  0  0  0  0  0  0  0  0  0  0  0
  140.7501   72.2388  225.0532 H   0  0  0  0  0  0  0  0  0  0  0  0
  139.0498   76.5378  220.3128 H   0  0  0  0  0  0  0  0  0  0  0  0
  137.9949   75.5716  221.4265 H   0  0  0  0  0  0  0  0  0  0  0  0
  137.5891   78.0595  221.5156 H   0  0  0  0  0  0  0  0  0  0  0  0
  138.0371   77.3147  223.0911 H   0  0  0  0  0  0  0  0  0  0  0  0
  138.3804   80.3022  221.8728 H   0  0  0  0  0  0  0  0  0  0  0  0
  140.3359   81.8418  222.0716 H   0  0  0  0  0  0  0  0  0  0  0  0
  142.6067   80.9207  222.5499 H   0  0  0  0  0  0  0  0  0  0  0  0
  142.9277   78.4618  222.8295 H   0  0  0  0  0  0  0  0  0  0  0  0
  142.0212   76.2167  222.3203 H   0  0  0  0  0  0  0  0  0  0  0  0
  140.9132   76.3096  223.7632 H   0  0  0  0  0  0  0  0  0  0  0  0
  143.8422   74.7983  219.2444 H   0  0  0  0  0  0  0  0  0  0  0  0
  1  2  2  0
  2  3  1  0
  3  4  2  0
  4  5  1  0
  5  6  1  0
  6  7  1  0
  7  8  1  0
  8  9  1  0
  9 10  2  0
 10 11  1  0
 11 12  1  0
 12 13  1  0
 13 14  1  0
 14 15  1  0
 15 16  2  0
 16 17  1  0
 17 18  2  0
 18 19  1  0
 19 20  2  0
 20 21  1  0
 11 22  2  0
 22 23  1  0
 23 24  1  0
 24 25  1  0
 25 26  1  0
 26 27  1  0
 27 28  2  0
 28 29  1  0
 29 30  2  0
 30 31  1  0
 31 32  2  0
 32 33  1  0
 23 34  2  0
  5 35  2  0
 35  1  1  0
 34  9  1  0
 21 12  1  0
 33 24  1  0
 20 15  1  0
 32 27  1  0
  1 36  1  0
  2 37  1  0
  4 38  1  0
  6 39  1  0
  6 40  1  0
  7 41  1  0
  7 42  1  0
  8 43  1  0
 13 44  1  0
 13 45  1  0
 14 46  1  0
 14 47  1  0
 16 48  1  0
 17 49  1  0
 18 50  1  0
 19 51  1  0
 21 52  1  0
 21 53  1  0
 25 54  1  0
 25 55  1  0
 26 56  1  0
 26 57  1  0
 28 58  1  0
 29 59  1  0
 30 60  1  0
 31 61  1  0
 33 62  1  0
 33 63  1  0
 35 64  1  0
M  END
>  <UniqueID>  (4) 
593

>  <SMILES>  (4) 
c1cncc(CCNc2nc(N3CCc4ccccc4C3)nc(N3CCc4ccccc4C3)n2)c1

>  <Energy>  (4) 
72.57102426862981

>  <Genealogy>  (4) 
c1cncc(CCNc2nc(N3CCc4ccccc4C3)nc(N3CCc4ccccc4C3)n2)c1 (3D coordinates assigned)
c1cncc(CCNc2nc(N3CCc4ccccc4C3)nc(N3CCc4ccccc4C3)n2)c1 (nonaromatic ring conformer: 72.57102426862981 kcal/mol)

>  <smiles>  (4) 
c1cncc(CCNc2nc(N3CCc4ccccc4C3)nc(N3CCc4ccccc4C3)n2)c1

>  <score_type>  (4) 
oracle

>  <origin>  (4) 
autodockgpu

>  <m_score__min__energy>  (4) 
-10.68

>  <m_primary>  (4) 
energy

>  <meeko>  (4) 
{"free_energy": -8.12, "intermolecular_energy": -9.91, "internal_energy": -2.05, "cluster_size": 10, "cluster_id": 2, "rank_in_cluster": 10}

>  <energy>  (4) 
-9.92

>  <cluster_rmsd>  (4) 
1.92

>  <rmsd>  (4) 
269.15

>  <cluster>  (4) 
1

$$$$
RCQFLYQWKFFJSS-SREBMQDQNA-N
     RDKit          3D

 64 69  0  0  0  0  0  0  0  0999 V2000
  144.8930   74.4790  220.4930 C   0  0  0  0  0  0  0  0  0  0  0  0
  146.0140   73.7240  220.8400 C   0  0  0  0  0  0  0  0  0  0  0  0
  146.3080   72.5850  220.1550 N   0  0  0  0  0  0  0  0  0  0  0  0
  145.5280   72.1440  219.1280 C   0  0  0  0  0  0  0  0  0  0  0  0
  144.3920   72.8750  218.7400 C   0  0  0  0  0  0  0  0  0  0  0  0
  143.5220   72.4040  217.6010 C   0  0  0  0  0  0  0  0  0  0  0  0
  142.4710   71.3970  218.0990 C   0  0  0  0  0  0  0  0  0  0  0  0
  141.2010   72.0600  218.4040 N   0  0  0  0  0  0  0  0  0  0  0  0
  140.9510   72.7120  219.6560 C   0  0  0  0  0  0  0  0  0  0  0  0
  140.4690   71.9940  220.7030 N   0  0  0  0  0  0  0  0  0  0  0  0
  140.2380   72.5940  221.9010 C   0  0  0  0  0  0  0  0  0  0  0  0
  139.7770   71.8260  223.0280 N   0  0  0  0  0  0  0  0  0  0  0  0
  138.5580   71.0040  222.8910 C   0  0  0  0  0  0  0  0  0  0  0  0
  137.9830   70.6000  224.2510 C   0  0  0  0  0  0  0  0  0  0  0  0
  139.0650   70.0190  225.1110 C   0  0  0  0  0  0  0  0  0  0  0  0
  138.8290   68.9030  225.9310 C   0  0  0  0  0  0  0  0  0  0  0  0
  139.8530   68.4010  226.7410 C   0  0  0  0  0  0  0  0  0  0  0  0
  141.1050   69.0240  226.7540 C   0  0  0  0  0  0  0  0  0  0  0  0
  141.3390   70.1470  225.9550 C   0  0  0  0  0  0  0  0  0  0  0  0
  140.3240   70.6420  225.1200 C   0  0  0  0  0  0  0  0  0  0  0  0
  140.5400   71.8790  224.2910 C   0  0  0  0  0  0  0  0  0  0  0  0
  140.4580   73.9290  222.0300 N   0  0  0  0  0  0  0  0  0  0  0  0
  140.9200   74.6620  220.9840 C   0  0  0  0  0  0  0  0  0  0  0  0
  141.0940   76.0870  221.1130 N   0  0  0  0  0  0  0  0  0  0  0  0
  141.7880   76.8210  220.0410 C   0  0  0  0  0  0  0  0  0  0  0  0
  141.4350   78.3070  220.0550 C   0  0  0  0  0  0  0  0  0  0  0  0
  141.6670   78.8730  221.4240 C   0  0  0  0  0  0  0  0  0  0  0  0
  142.1750   80.1720  221.5870 C   0  0  0  0  0  0  0  0  0  0  0  0
  142.3730   80.6930  222.8690 C   0  0  0  0  0  0  0  0  0  0  0  0
  142.0480   79.9270  223.9930 C   0  0  0  0  0  0  0  0  0  0  0  0
  141.5230   78.6400  223.8370 C   0  0  0  0  0  0  0  0  0  0  0  0
  141.3350   78.1020  222.5530 C   0  0  0  0  0  0  0  0  0  0  0  0
  140.7150   76.7360  222.3850 C   0  0  0  0  0  0  0  0  0  0  0  0
  141.1760   74.0420  219.8020 N   0  0  0  0  0  0  0  0  0  0  0  0
  144.0830   74.0560  219.4360 C   0  0  0  0  0  0  0  0  0  0  0  0
  144.6494   75.3981  221.0461 H   0  0  0  0  0  0  0  0  0  0  0  0
  146.6609   74.0496  221.6680 H   0  0  0  0  0  0  0  0  0  0  0  0
  145.7882   71.2138  218.6016 H   0  0  0  0  0  0  0  0  0  0  0  0
  143.0099   73.2699  217.1560 H   0  0  0  0  0  0  0  0  0  0  0  0
  144.1578   71.9097  216.8517 H   0  0  0  0  0  0  0  0  0  0  0  0
  142.3018   70.6403  217.3187 H   0  0  0  0  0  0  0  0  0  0  0  0
  142.8481   70.9287  219.0201 H   0  0  0  0  0  0  0  0  0  0  0  0
  140.3860   71.8730  217.7750 H   0  0  0  0  0  0  0  0  0  0  0  0
  137.7997   71.5819  222.3423 H   0  0  0  0  0  0  0  0  0  0  0  0
  138.8269   70.0852  222.3493 H   0  0  0  0  0  0  0  0  0  0  0  0
  137.5604   71.4867  224.7461 H   0  0  0  0  0  0  0  0  0  0  0  0
  137.1957   69.8465  224.1016 H   0  0  0  0  0  0  0  0  0  0  0  0
  137.8388   68.4239  225.9361 H   0  0  0  0  0  0  0  0  0  0  0  0
  139.6733   67.5154  227.3683 H   0  0  0  0  0  0  0  0  0  0  0  0
  141.9076   68.6294  227.3945 H   0  0  0  0  0  0  0  0  0  0  0  0
  142.3200   70.6439  225.9803 H   0  0  0  0  0  0  0  0  0  0  0  0
  140.2146   72.7570  224.8682 H   0  0  0  0  0  0  0  0  0  0  0  0
  141.6099   71.9459  224.0445 H   0  0  0  0  0  0  0  0  0  0  0  0
  142.8738   76.7110  220.1786 H   0  0  0  0  0  0  0  0  0  0  0  0
  141.4690   76.4014  219.0755 H   0  0  0  0  0  0  0  0  0  0  0  0
  142.0667   78.8389  219.3284 H   0  0  0  0  0  0  0  0  0  0  0  0
  140.3754   78.4304  219.7865 H   0  0  0  0  0  0  0  0  0  0  0  0
  142.4177   80.7810  220.7037 H   0  0  0  0  0  0  0  0  0  0  0  0
  142.7844   81.7055  222.9937 H   0  0  0  0  0  0  0  0  0  0  0  0
  142.2055   80.3373  225.0014 H   0  0  0  0  0  0  0  0  0  0  0  0
  141.2561   78.0464  224.7238 H   0  0  0  0  0  0  0  0  0  0  0  0
  141.0435   76.0963  223.2174 H   0  0  0  0  0  0  0  0  0  0  0  0
  139.6229   76.8670  222.3770 H   0  0  0  0  0  0  0  0  0  0  0  0
  143.2020   74.6484  219.1482 H   0  0  0  0  0  0  0  0  0  0  0  0
  1  2  2  0
  2  3  1  0
  3  4  2  0
  4  5  1  0
  5  6  1  0
  6  7  1  0
  7  8  1  0
  8  9  1  0
  9 10  2  0
 10 11  1  0
 11 12  1  0
 12 13  1  0
 13 14  1  0
 14 15  1  0
 15 16  2  0
 16 17  1  0
 17 18  2  0
 18 19  1  0
 19 20  2  0
 20 21  1  0
 11 22  2  0
 22 23  1  0
 23 24  1  0
 24 25  1  0
 25 26  1  0
 26 27  1  0
 27 28  2  0
 28 29  1  0
 29 30  2  0
 30 31  1  0
 31 32  2  0
 32 33  1  0
 23 34  2  0
  5 35  2  0
 35  1  1  0
 34  9  1  0
 21 12  1  0
 33 24  1  0
 20 15  1  0
 32 27  1  0
  1 36  1  0
  2 37  1  0
  4 38  1  0
  6 39  1  0
  6 40  1  0
  7 41  1  0
  7 42  1  0
  8 43  1  0
 13 44  1  0
 13 45  1  0
 14 46  1  0
 14 47  1  0
 16 48  1  0
 17 49  1  0
 18 50  1  0
 19 51  1  0
 21 52  1  0
 21 53  1  0
 25 54  1  0
 25 55  1  0
 26 56  1  0
 26 57  1  0
 28 58  1  0
 29 59  1  0
 30 60  1  0
 31 61  1  0
 33 62  1  0
 33 63  1  0
 35 64  1  0
M  END
>  <UniqueID>  (5) 
593

>  <SMILES>  (5) 
c1cncc(CCNc2nc(N3CCc4ccccc4C3)nc(N3CCc4ccccc4C3)n2)c1

>  <Energy>  (5) 
72.57102426862981

>  <Genealogy>  (5) 
c1cncc(CCNc2nc(N3CCc4ccccc4C3)nc(N3CCc4ccccc4C3)n2)c1 (3D coordinates assigned)
c1cncc(CCNc2nc(N3CCc4ccccc4C3)nc(N3CCc4ccccc4C3)n2)c1 (nonaromatic ring conformer: 72.57102426862981 kcal/mol)

>  <smiles>  (5) 
c1cncc(CCNc2nc(N3CCc4ccccc4C3)nc(N3CCc4ccccc4C3)n2)c1

>  <score_type>  (5) 
oracle

>  <origin>  (5) 
autodockgpu

>  <m_score__min__energy>  (5) 
-10.68

>  <m_primary>  (5) 
energy

>  <meeko>  (5) 
{"free_energy": -9.92, "intermolecular_energy": -11.71, "internal_energy": -1.41, "cluster_size": 10, "cluster_id": 1, "rank_in_cluster": 5}

>  <energy>  (5) 
-9.92

>  <cluster_rmsd>  (5) 
1.93

>  <rmsd>  (5) 
269.12

>  <cluster>  (5) 
1

$$$$
RCQFLYQWKFFJSS-SREBMQDQNA-N
     RDKit          3D

 64 69  0  0  0  0  0  0  0  0999 V2000
  144.9200   74.4870  220.4680 C   0  0  0  0  0  0  0  0  0  0  0  0
  146.1400   73.8100  220.4960 C   0  0  0  0  0  0  0  0  0  0  0  0
  146.3190   72.6960  219.7340 N   0  0  0  0  0  0  0  0  0  0  0  0
  145.3300   72.2060  218.9350 C   0  0  0  0  0  0  0  0  0  0  0  0
  144.0870   72.8590  218.8700 C   0  0  0  0  0  0  0  0  0  0  0  0
  142.9830   72.3330  217.9860 C   0  0  0  0  0  0  0  0  0  0  0  0
  142.5970   70.9000  218.3900 C   0  0  0  0  0  0  0  0  0  0  0  0
  141.2980   70.8700  219.0680 N   0  0  0  0  0  0  0  0  0  0  0  0
  141.0030   71.6870  220.2080 C   0  0  0  0  0  0  0  0  0  0  0  0
  140.5910   71.1060  221.3640 N   0  0  0  0  0  0  0  0  0  0  0  0
  140.3180   71.8660  222.4580 C   0  0  0  0  0  0  0  0  0  0  0  0
  139.9330   71.2490  223.7000 N   0  0  0  0  0  0  0  0  0  0  0  0
  139.1710   69.9840  223.6710 C   0  0  0  0  0  0  0  0  0  0  0  0
  138.4930   69.6930  225.0130 C   0  0  0  0  0  0  0  0  0  0  0  0
  139.4880   69.8260  226.1270 C   0  0  0  0  0  0  0  0  0  0  0  0
  139.5030   68.9290  227.2080 C   0  0  0  0  0  0  0  0  0  0  0  0
  140.4280   69.0970  228.2440 C   0  0  0  0  0  0  0  0  0  0  0  0
  141.3220   70.1720  228.2180 C   0  0  0  0  0  0  0  0  0  0  0  0
  141.2980   71.0790  227.1550 C   0  0  0  0  0  0  0  0  0  0  0  0
  140.3890   70.9040  226.0980 C   0  0  0  0  0  0  0  0  0  0  0  0
  140.3130   71.8980  224.9700 C   0  0  0  0  0  0  0  0  0  0  0  0
  140.4250   73.2180  222.3730 N   0  0  0  0  0  0  0  0  0  0  0  0
  140.8150   73.8120  221.2150 C   0  0  0  0  0  0  0  0  0  0  0  0
  140.8690   75.2500  221.1170 N   0  0  0  0  0  0  0  0  0  0  0  0
  141.3480   75.8620  219.8660 C   0  0  0  0  0  0  0  0  0  0  0  0
  140.8610   77.3020  219.7200 C   0  0  0  0  0  0  0  0  0  0  0  0
  141.2100   78.0850  220.9500 C   0  0  0  0  0  0  0  0  0  0  0  0
  141.6080   79.4290  220.8550 C   0  0  0  0  0  0  0  0  0  0  0  0
  141.9180   80.1520  222.0100 C   0  0  0  0  0  0  0  0  0  0  0  0
  141.8120   79.5450  223.2650 C   0  0  0  0  0  0  0  0  0  0  0  0
  141.3960   78.2130  223.3670 C   0  0  0  0  0  0  0  0  0  0  0  0
  141.0980   77.4730  222.2100 C   0  0  0  0  0  0  0  0  0  0  0  0
  140.5950   76.0540  222.3250 C   0  0  0  0  0  0  0  0  0  0  0  0
  141.1160   73.0380  220.1400 N   0  0  0  0  0  0  0  0  0  0  0  0
  143.8930   74.0130  219.6470 C   0  0  0  0  0  0  0  0  0  0  0  0
  144.7682   75.3844  221.0857 H   0  0  0  0  0  0  0  0  0  0  0  0
  146.9575   74.1766  221.1341 H   0  0  0  0  0  0  0  0  0  0  0  0
  145.5047   71.2976  218.3397 H   0  0  0  0  0  0  0  0  0  0  0  0
  142.1021   72.9847  218.0824 H   0  0  0  0  0  0  0  0  0  0  0  0
  143.3389   72.3226  216.9452 H   0  0  0  0  0  0  0  0  0  0  0  0
  142.5442   70.2748  217.4865 H   0  0  0  0  0  0  0  0  0  0  0  0
  143.3599   70.5172  219.0838 H   0  0  0  0  0  0  0  0  0  0  0  0
  140.6460   70.0840  218.8430 H   0  0  0  0  0  0  0  0  0  0  0  0
  138.3991   70.0520  222.8903 H   0  0  0  0  0  0  0  0  0  0  0  0
  139.8767   69.1665  223.4620 H   0  0  0  0  0  0  0  0  0  0  0  0
  137.6723   70.4084  225.1697 H   0  0  0  0  0  0  0  0  0  0  0  0
  138.0955   68.6674  225.0030 H   0  0  0  0  0  0  0  0  0  0  0  0
  138.7873   68.0943  227.2399 H   0  0  0  0  0  0  0  0  0  0  0  0
  140.4521   68.3826  229.0801 H   0  0  0  0  0  0  0  0  0  0  0  0
  142.0456   70.3040  229.0359 H   0  0  0  0  0  0  0  0  0  0  0  0
  141.9925   71.9320  227.1458 H   0  0  0  0  0  0  0  0  0  0  0  0
  139.5630   72.6634  225.2184 H   0  0  0  0  0  0  0  0  0  0  0  0
  141.3075   72.3502  224.8417 H   0  0  0  0  0  0  0  0  0  0  0  0
  142.4480   75.8556  219.8642 H   0  0  0  0  0  0  0  0  0  0  0  0
  140.9495   75.2778  219.0235 H   0  0  0  0  0  0  0  0  0  0  0  0
  141.3425   77.7631  218.8451 H   0  0  0  0  0  0  0  0  0  0  0  0
  139.7691   77.3037  219.5869 H   0  0  0  0  0  0  0  0  0  0  0  0
  141.6757   79.9131  219.8696 H   0  0  0  0  0  0  0  0  0  0  0  0
  142.2456   81.1992  221.9317 H   0  0  0  0  0  0  0  0  0  0  0  0
  142.0560   80.1154  224.1734 H   0  0  0  0  0  0  0  0  0  0  0  0
  141.3018   77.7430  224.3571 H   0  0  0  0  0  0  0  0  0  0  0  0
  141.0868   75.5754  223.1847 H   0  0  0  0  0  0  0  0  0  0  0  0
  139.5033   76.0989  222.4523 H   0  0  0  0  0  0  0  0  0  0  0  0
  142.9308   74.5447  219.6092 H   0  0  0  0  0  0  0  0  0  0  0  0
  1  2  2  0
  2  3  1  0
  3  4  2  0
  4  5  1  0
  5  6  1  0
  6  7  1  0
  7  8  1  0
  8  9  1  0
  9 10  2  0
 10 11  1  0
 11 12  1  0
 12 13  1  0
 13 14  1  0
 14 15  1  0
 15 16  2  0
 16 17  1  0
 17 18  2  0
 18 19  1  0
 19 20  2  0
 20 21  1  0
 11 22  2  0
 22 23  1  0
 23 24  1  0
 24 25  1  0
 25 26  1  0
 26 27  1  0
 27 28  2  0
 28 29  1  0
 29 30  2  0
 30 31  1  0
 31 32  2  0
 32 33  1  0
 23 34  2  0
  5 35  2  0
 35  1  1  0
 34  9  1  0
 21 12  1  0
 33 24  1  0
 20 15  1  0
 32 27  1  0
  1 36  1  0
  2 37  1  0
  4 38  1  0
  6 39  1  0
  6 40  1  0
  7 41  1  0
  7 42  1  0
  8 43  1  0
 13 44  1  0
 13 45  1  0
 14 46  1  0
 14 47  1  0
 16 48  1  0
 17 49  1  0
 18 50  1  0
 19 51  1  0
 21 52  1  0
 21 53  1  0
 25 54  1  0
 25 55  1  0
 26 56  1  0
 26 57  1  0
 28 58  1  0
 29 59  1  0
 30 60  1  0
 31 61  1  0
 33 62  1  0
 33 63  1  0
 35 64  1  0
M  END
>  <UniqueID>  (6) 
593

>  <SMILES>  (6) 
c1cncc(CCNc2nc(N3CCc4ccccc4C3)nc(N3CCc4ccccc4C3)n2)c1

>  <Energy>  (6) 
72.57102426862981

>  <Genealogy>  (6) 
c1cncc(CCNc2nc(N3CCc4ccccc4C3)nc(N3CCc4ccccc4C3)n2)c1 (3D coordinates assigned)
c1cncc(CCNc2nc(N3CCc4ccccc4C3)nc(N3CCc4ccccc4C3)n2)c1 (nonaromatic ring conformer: 72.57102426862981 kcal/mol)

>  <smiles>  (6) 
c1cncc(CCNc2nc(N3CCc4ccccc4C3)nc(N3CCc4ccccc4C3)n2)c1

>  <score_type>  (6) 
oracle

>  <origin>  (6) 
autodockgpu

>  <m_score__min__energy>  (6) 
-10.68

>  <m_primary>  (6) 
energy

>  <meeko>  (6) 
{"free_energy": -9.69, "intermolecular_energy": -11.48, "internal_energy": -1.41, "cluster_size": 10, "cluster_id": 1, "rank_in_cluster": 9}

>  <energy>  (6) 
-9.75

>  <cluster_rmsd>  (6) 
1.88

>  <rmsd>  (6) 
269.39

>  <cluster>  (6) 
1

$$$$
RCQFLYQWKFFJSS-SREBMQDQNA-N
     RDKit          3D

 64 69  0  0  0  0  0  0  0  0999 V2000
  145.2150   73.6040  221.1090 C   0  0  0  0  0  0  0  0  0  0  0  0
  146.1940   73.7430  220.1250 C   0  0  0  0  0  0  0  0  0  0  0  0
  146.2890   72.8280  219.1230 N   0  0  0  0  0  0  0  0  0  0  0  0
  145.4510   71.7560  219.0480 C   0  0  0  0  0  0  0  0  0  0  0  0
  144.4450   71.5780  220.0130 C   0  0  0  0  0  0  0  0  0  0  0  0
  143.5050   70.4000  219.9410 C   0  0  0  0  0  0  0  0  0  0  0  0
  142.6510   70.4610  218.6640 C   0  0  0  0  0  0  0  0  0  0  0  0
  141.6050   71.4820  218.7700 N   0  0  0  0  0  0  0  0  0  0  0  0
  141.3040   72.1540  220.0000 C   0  0  0  0  0  0  0  0  0  0  0  0
  140.8180   71.4450  221.0510 N   0  0  0  0  0  0  0  0  0  0  0  0
  140.5380   72.0640  222.2290 C   0  0  0  0  0  0  0  0  0  0  0  0
  140.0730   71.3070  223.3610 N   0  0  0  0  0  0  0  0  0  0  0  0
  139.4100   70.0070  223.1370 C   0  0  0  0  0  0  0  0  0  0  0  0
  138.6220   69.5460  224.3660 C   0  0  0  0  0  0  0  0  0  0  0  0
  139.4850   69.6330  225.5890 C   0  0  0  0  0  0  0  0  0  0  0  0
  139.4540   68.6370  226.5800 C   0  0  0  0  0  0  0  0  0  0  0  0
  140.2540   68.7610  227.7210 C   0  0  0  0  0  0  0  0  0  0  0  0
  141.0670   69.8870  227.8890 C   0  0  0  0  0  0  0  0  0  0  0  0
  141.0860   70.8890  226.9150 C   0  0  0  0  0  0  0  0  0  0  0  0
  140.3050   70.7610  225.7550 C   0  0  0  0  0  0  0  0  0  0  0  0
  140.2740   71.8530  224.7190 C   0  0  0  0  0  0  0  0  0  0  0  0
  140.7140   73.4080  222.3330 N   0  0  0  0  0  0  0  0  0  0  0  0
  141.1790   74.1310  221.2810 C   0  0  0  0  0  0  0  0  0  0  0  0
  141.3060   75.5640  221.3820 N   0  0  0  0  0  0  0  0  0  0  0  0
  140.4540   76.2900  222.3400 C   0  0  0  0  0  0  0  0  0  0  0  0
  141.0480   77.6480  222.7060 C   0  0  0  0  0  0  0  0  0  0  0  0
  141.3550   78.4230  221.4600 C   0  0  0  0  0  0  0  0  0  0  0  0
  141.1590   79.8130  221.4140 C   0  0  0  0  0  0  0  0  0  0  0  0
  141.4620   80.5260  220.2500 C   0  0  0  0  0  0  0  0  0  0  0  0
  141.9800   79.8590  219.1360 C   0  0  0  0  0  0  0  0  0  0  0  0
  142.1970   78.4780  219.1840 C   0  0  0  0  0  0  0  0  0  0  0  0
  141.8800   77.7500  220.3430 C   0  0  0  0  0  0  0  0  0  0  0  0
  142.1680   76.2700  220.4120 C   0  0  0  0  0  0  0  0  0  0  0  0
  141.4850   73.4930  220.1210 N   0  0  0  0  0  0  0  0  0  0  0  0
  144.3340   72.5200  221.0490 C   0  0  0  0  0  0  0  0  0  0  0  0
  145.1370   74.3393  221.9234 H   0  0  0  0  0  0  0  0  0  0  0  0
  146.8903   74.5939  220.1594 H   0  0  0  0  0  0  0  0  0  0  0  0
  145.5622   71.0285  218.2305 H   0  0  0  0  0  0  0  0  0  0  0  0
  144.0920   69.4697  219.9383 H   0  0  0  0  0  0  0  0  0  0  0  0
  142.8366   70.4281  220.8142 H   0  0  0  0  0  0  0  0  0  0  0  0
  143.3009   70.7014  217.8097 H   0  0  0  0  0  0  0  0  0  0  0  0
  142.1678   69.4829  218.5229 H   0  0  0  0  0  0  0  0  0  0  0  0
  140.9260   71.5720  217.9810 H   0  0  0  0  0  0  0  0  0  0  0  0
  138.7184   70.1028  222.2870 H   0  0  0  0  0  0  0  0  0  0  0  0
  140.1898   69.2585  222.9329 H   0  0  0  0  0  0  0  0  0  0  0  0
  137.7397   70.1899  224.4959 H   0  0  0  0  0  0  0  0  0  0  0  0
  138.3038   68.5030  224.2213 H   0  0  0  0  0  0  0  0  0  0  0  0
  138.8009   67.7602  226.4586 H   0  0  0  0  0  0  0  0  0  0  0  0
  140.2437   67.9719  228.4872 H   0  0  0  0  0  0  0  0  0  0  0  0
  141.6921   69.9838  228.7889 H   0  0  0  0  0  0  0  0  0  0  0  0
  141.7145   71.7805  227.0574 H   0  0  0  0  0  0  0  0  0  0  0  0
  139.4498   72.5432  224.9521 H   0  0  0  0  0  0  0  0  0  0  0  0
  141.2415   72.3759  224.7404 H   0  0  0  0  0  0  0  0  0  0  0  0
  139.4623   76.4441  221.8897 H   0  0  0  0  0  0  0  0  0  0  0  0
  140.3803   75.6887  223.2582 H   0  0  0  0  0  0  0  0  0  0  0  0
  140.3254   78.2097  223.3162 H   0  0  0  0  0  0  0  0  0  0  0  0
  141.9765   77.4955  223.2757 H   0  0  0  0  0  0  0  0  0  0  0  0
  140.7665   80.3416  222.2952 H   0  0  0  0  0  0  0  0  0  0  0  0
  141.2927   81.6122  220.2108 H   0  0  0  0  0  0  0  0  0  0  0  0
  142.2172   80.4209  218.2206 H   0  0  0  0  0  0  0  0  0  0  0  0
  142.6179   77.9594  218.3100 H   0  0  0  0  0  0  0  0  0  0  0  0
  142.0063   75.8336  219.4153 H   0  0  0  0  0  0  0  0  0  0  0  0
  143.2093   76.1503  220.7456 H   0  0  0  0  0  0  0  0  0  0  0  0
  143.5525   72.4046  221.8145 H   0  0  0  0  0  0  0  0  0  0  0  0
  1  2  2  0
  2  3  1  0
  3  4  2  0
  4  5  1  0
  5  6  1  0
  6  7  1  0
  7  8  1  0
  8  9  1  0
  9 10  2  0
 10 11  1  0
 11 12  1  0
 12 13  1  0
 13 14  1  0
 14 15  1  0
 15 16  2  0
 16 17  1  0
 17 18  2  0
 18 19  1  0
 19 20  2  0
 20 21  1  0
 11 22  2  0
 22 23  1  0
 23 24  1  0
 24 25  1  0
 25 26  1  0
 26 27  1  0
 27 28  2  0
 28 29  1  0
 29 30  2  0
 30 31  1  0
 31 32  2  0
 32 33  1  0
 23 34  2  0
  5 35  2  0
 35  1  1  0
 34  9  1  0
 21 12  1  0
 33 24  1  0
 20 15  1  0
 32 27  1  0
  1 36  1  0
  2 37  1  0
  4 38  1  0
  6 39  1  0
  6 40  1  0
  7 41  1  0
  7 42  1  0
  8 43  1  0
 13 44  1  0
 13 45  1  0
 14 46  1  0
 14 47  1  0
 16 48  1  0
 17 49  1  0
 18 50  1  0
 19 51  1  0
 21 52  1  0
 21 53  1  0
 25 54  1  0
 25 55  1  0
 26 56  1  0
 26 57  1  0
 28 58  1  0
 29 59  1  0
 30 60  1  0
 31 61  1  0
 33 62  1  0
 33 63  1  0
 35 64  1  0
M  END
>  <UniqueID>  (7) 
593

>  <SMILES>  (7) 
c1cncc(CCNc2nc(N3CCc4ccccc4C3)nc(N3CCc4ccccc4C3)n2)c1

>  <Energy>  (7) 
72.57102426862981

>  <Genealogy>  (7) 
c1cncc(CCNc2nc(N3CCc4ccccc4C3)nc(N3CCc4ccccc4C3)n2)c1 (3D coordinates assigned)
c1cncc(CCNc2nc(N3CCc4ccccc4C3)nc(N3CCc4ccccc4C3)n2)c1 (nonaromatic ring conformer: 72.57102426862981 kcal/mol)

>  <smiles>  (7) 
c1cncc(CCNc2nc(N3CCc4ccccc4C3)nc(N3CCc4ccccc4C3)n2)c1

>  <score_type>  (7) 
oracle

>  <origin>  (7) 
autodockgpu

>  <m_score__min__energy>  (7) 
-10.68

>  <m_primary>  (7) 
energy

>  <meeko>  (7) 
{"free_energy": -9.64, "intermolecular_energy": -11.43, "internal_energy": -1.51, "cluster_size": 10, "cluster_id": 1, "rank_in_cluster": 10}

>  <energy>  (7) 
-9.74

>  <cluster_rmsd>  (7) 
1.97

>  <rmsd>  (7) 
269.38

>  <cluster>  (7) 
1

$$$$
RCQFLYQWKFFJSS-SREBMQDQNA-N
     RDKit          3D

 64 69  0  0  0  0  0  0  0  0999 V2000
  144.1580   74.8130  220.0580 C   0  0  0  0  0  0  0  0  0  0  0  0
  145.4770   74.6310  220.4770 C   0  0  0  0  0  0  0  0  0  0  0  0
  145.9610   73.3760  220.6820 N   0  0  0  0  0  0  0  0  0  0  0  0
  145.1870   72.2690  220.4960 C   0  0  0  0  0  0  0  0  0  0  0  0
  143.8550   72.4040  220.0680 C   0  0  0  0  0  0  0  0  0  0  0  0
  142.9870   71.1880  219.8520 C   0  0  0  0  0  0  0  0  0  0  0  0
  142.1200   71.3540  218.5920 C   0  0  0  0  0  0  0  0  0  0  0  0
  140.9450   72.1870  218.8610 N   0  0  0  0  0  0  0  0  0  0  0  0
  140.5970   72.6300  220.1790 C   0  0  0  0  0  0  0  0  0  0  0  0
  140.4200   73.9550  220.4180 N   0  0  0  0  0  0  0  0  0  0  0  0
  140.0780   74.3900  221.6600 C   0  0  0  0  0  0  0  0  0  0  0  0
  139.8380   75.7880  221.9050 N   0  0  0  0  0  0  0  0  0  0  0  0
  138.5540   76.2060  222.5030 C   0  0  0  0  0  0  0  0  0  0  0  0
  138.2920   77.7020  222.3100 C   0  0  0  0  0  0  0  0  0  0  0  0
  139.4940   78.4900  222.7380 C   0  0  0  0  0  0  0  0  0  0  0  0
  139.3650   79.6950  223.4470 C   0  0  0  0  0  0  0  0  0  0  0  0
  140.5060   80.4200  223.8090 C   0  0  0  0  0  0  0  0  0  0  0  0
  141.7740   79.9570  223.4440 C   0  0  0  0  0  0  0  0  0  0  0  0
  141.9070   78.7690  222.7210 C   0  0  0  0  0  0  0  0  0  0  0  0
  140.7680   78.0230  222.3760 C   0  0  0  0  0  0  0  0  0  0  0  0
  140.8860   76.7670  221.5540 C   0  0  0  0  0  0  0  0  0  0  0  0
  139.9530   73.4900  222.6700 N   0  0  0  0  0  0  0  0  0  0  0  0
  140.1500   72.1650  222.4480 C   0  0  0  0  0  0  0  0  0  0  0  0
  140.0730   71.2240  223.5380 N   0  0  0  0  0  0  0  0  0  0  0  0
  138.9380   70.2860  223.5920 C   0  0  0  0  0  0  0  0  0  0  0  0
  139.2590   69.0620  224.4470 C   0  0  0  0  0  0  0  0  0  0  0  0
  139.7510   69.4950  225.7950 C   0  0  0  0  0  0  0  0  0  0  0  0
  139.4020   68.7770  226.9510 C   0  0  0  0  0  0  0  0  0  0  0  0
  139.8780   69.1840  228.2000 C   0  0  0  0  0  0  0  0  0  0  0  0
  140.7210   70.2960  228.2990 C   0  0  0  0  0  0  0  0  0  0  0  0
  141.0880   71.0020  227.1490 C   0  0  0  0  0  0  0  0  0  0  0  0
  140.6010   70.6110  225.8910 C   0  0  0  0  0  0  0  0  0  0  0  0
  141.0440   71.3390  224.6450 C   0  0  0  0  0  0  0  0  0  0  0  0
  140.4590   71.7410  221.1950 N   0  0  0  0  0  0  0  0  0  0  0  0
  143.3470   73.6940  219.8470 C   0  0  0  0  0  0  0  0  0  0  0  0
  143.7610   75.8259  219.8956 H   0  0  0  0  0  0  0  0  0  0  0  0
  146.1262   75.5036  220.6417 H   0  0  0  0  0  0  0  0  0  0  0  0
  145.6056   71.2688  220.6812 H   0  0  0  0  0  0  0  0  0  0  0  0
  143.6291   70.3027  219.7342 H   0  0  0  0  0  0  0  0  0  0  0  0
  142.3254   71.0673  220.7225 H   0  0  0  0  0  0  0  0  0  0  0  0
  142.7220   71.8276  217.8025 H   0  0  0  0  0  0  0  0  0  0  0  0
  141.7751   70.3591  218.2740 H   0  0  0  0  0  0  0  0  0  0  0  0
  140.2310   72.2850  218.1040 H   0  0  0  0  0  0  0  0  0  0  0  0
  137.7398   75.6387  222.0285 H   0  0  0  0  0  0  0  0  0  0  0  0
  138.6011   76.0057  223.5836 H   0  0  0  0  0  0  0  0  0  0  0  0
  138.0839   77.9019  221.2485 H   0  0  0  0  0  0  0  0  0  0  0  0
  137.4272   78.0000  222.9210 H   0  0  0  0  0  0  0  0  0  0  0  0
  138.3668   80.0693  223.7180 H   0  0  0  0  0  0  0  0  0  0  0  0
  140.4053   81.3543  224.3808 H   0  0  0  0  0  0  0  0  0  0  0  0
  142.6694   80.5299  223.7270 H   0  0  0  0  0  0  0  0  0  0  0  0
  142.9053   78.4173  222.4214 H   0  0  0  0  0  0  0  0  0  0  0  0
  140.7900   77.0266  220.4894 H   0  0  0  0  0  0  0  0  0  0  0  0
  141.8658   76.3114  221.7601 H   0  0  0  0  0  0  0  0  0  0  0  0
  138.0678   70.8034  224.0221 H   0  0  0  0  0  0  0  0  0  0  0  0
  138.7260   69.9440  222.5683 H   0  0  0  0  0  0  0  0  0  0  0  0
  138.3505   68.4538  224.5686 H   0  0  0  0  0  0  0  0  0  0  0  0
  140.0406   68.4685  223.9501 H   0  0  0  0  0  0  0  0  0  0  0  0
  138.7526   67.8926  226.8727 H   0  0  0  0  0  0  0  0  0  0  0  0
  139.5899   68.6300  229.1056 H   0  0  0  0  0  0  0  0  0  0  0  0
  141.0956   70.6155  229.2827 H   0  0  0  0  0  0  0  0  0  0  0  0
  141.7615   71.8679  227.2301 H   0  0  0  0  0  0  0  0  0  0  0  0
  141.1750   72.4038  224.8881 H   0  0  0  0  0  0  0  0  0  0  0  0
  141.9845   70.8778  224.3092 H   0  0  0  0  0  0  0  0  0  0  0  0
  142.3090   73.8245  219.5072 H   0  0  0  0  0  0  0  0  0  0  0  0
  1  2  2  0
  2  3  1  0
  3  4  2  0
  4  5  1  0
  5  6  1  0
  6  7  1  0
  7  8  1  0
  8  9  1  0
  9 10  2  0
 10 11  1  0
 11 12  1  0
 12 13  1  0
 13 14  1  0
 14 15  1  0
 15 16  2  0
 16 17  1  0
 17 18  2  0
 18 19  1  0
 19 20  2  0
 20 21  1  0
 11 22  2  0
 22 23  1  0
 23 24  1  0
 24 25  1  0
 25 26  1  0
 26 27  1  0
 27 28  2  0
 28 29  1  0
 29 30  2  0
 30 31  1  0
 31 32  2  0
 32 33  1  0
 23 34  2  0
  5 35  2  0
 35  1  1  0
 34  9  1  0
 21 12  1  0
 33 24  1  0
 20 15  1  0
 32 27  1  0
  1 36  1  0
  2 37  1  0
  4 38  1  0
  6 39  1  0
  6 40  1  0
  7 41  1  0
  7 42  1  0
  8 43  1  0
 13 44  1  0
 13 45  1  0
 14 46  1  0
 14 47  1  0
 16 48  1  0
 17 49  1  0
 18 50  1  0
 19 51  1  0
 21 52  1  0
 21 53  1  0
 25 54  1  0
 25 55  1  0
 26 56  1  0
 26 57  1  0
 28 58  1  0
 29 59  1  0
 30 60  1  0
 31 61  1  0
 33 62  1  0
 33 63  1  0
 35 64  1  0
M  END
>  <UniqueID>  (8) 
593

>  <SMILES>  (8) 
c1cncc(CCNc2nc(N3CCc4ccccc4C3)nc(N3CCc4ccccc4C3)n2)c1

>  <Energy>  (8) 
72.57102426862981

>  <Genealogy>  (8) 
c1cncc(CCNc2nc(N3CCc4ccccc4C3)nc(N3CCc4ccccc4C3)n2)c1 (3D coordinates assigned)
c1cncc(CCNc2nc(N3CCc4ccccc4C3)nc(N3CCc4ccccc4C3)n2)c1 (nonaromatic ring conformer: 72.57102426862981 kcal/mol)

>  <smiles>  (8) 
c1cncc(CCNc2nc(N3CCc4ccccc4C3)nc(N3CCc4ccccc4C3)n2)c1

>  <score_type>  (8) 
oracle

>  <origin>  (8) 
autodockgpu

>  <m_score__min__energy>  (8) 
-10.68

>  <m_primary>  (8) 
energy

>  <meeko>  (8) 
{"free_energy": -9.74, "intermolecular_energy": -11.53, "internal_energy": -1.16, "cluster_size": 10, "cluster_id": 1, "rank_in_cluster": 7}

>  <energy>  (8) 
-9.71

>  <cluster_rmsd>  (8) 
1.8

>  <rmsd>  (8) 
269.29

>  <cluster>  (8) 
1

$$$$
RCQFLYQWKFFJSS-SREBMQDQNA-N
     RDKit          3D

 64 69  0  0  0  0  0  0  0  0999 V2000
  145.4790   74.1040  221.0800 C   0  0  0  0  0  0  0  0  0  0  0  0
  146.3340   73.0540  220.7410 C   0  0  0  0  0  0  0  0  0  0  0  0
  146.1140   72.3350  219.6060 N   0  0  0  0  0  0  0  0  0  0  0  0
  145.0660   72.6050  218.7780 C   0  0  0  0  0  0  0  0  0  0  0  0
  144.1840   73.6560  219.0760 C   0  0  0  0  0  0  0  0  0  0  0  0
  143.0220   73.9710  218.1650 C   0  0  0  0  0  0  0  0  0  0  0  0
  142.1210   72.7380  217.9850 C   0  0  0  0  0  0  0  0  0  0  0  0
  140.7540   73.0060  218.4410 N   0  0  0  0  0  0  0  0  0  0  0  0
  140.4520   73.4050  219.7840 C   0  0  0  0  0  0  0  0  0  0  0  0
  140.1320   72.4650  220.7090 N   0  0  0  0  0  0  0  0  0  0  0  0
  139.8550   72.8260  221.9900 C   0  0  0  0  0  0  0  0  0  0  0  0
  139.5670   71.8270  222.9860 N   0  0  0  0  0  0  0  0  0  0  0  0
  138.5770   70.7730  222.6860 C   0  0  0  0  0  0  0  0  0  0  0  0
  138.0880   70.0680  223.9540 C   0  0  0  0  0  0  0  0  0  0  0  0
  139.2610   69.6390  224.7850 C   0  0  0  0  0  0  0  0  0  0  0  0
  139.2780   68.3990  225.4430 C   0  0  0  0  0  0  0  0  0  0  0  0
  140.3770   68.0400  226.2310 C   0  0  0  0  0  0  0  0  0  0  0  0
  141.4480   68.9260  226.3840 C   0  0  0  0  0  0  0  0  0  0  0  0
  141.4270   70.1700  225.7470 C   0  0  0  0  0  0  0  0  0  0  0  0
  140.3390   70.5270  224.9340 C   0  0  0  0  0  0  0  0  0  0  0  0
  140.2740   71.8820  224.2810 C   0  0  0  0  0  0  0  0  0  0  0  0
  139.8640   74.1420  222.3280 N   0  0  0  0  0  0  0  0  0  0  0  0
  140.1610   75.0940  221.4060 C   0  0  0  0  0  0  0  0  0  0  0  0
  140.1100   76.4910  221.7590 N   0  0  0  0  0  0  0  0  0  0  0  0
  139.2170   77.3850  221.0020 C   0  0  0  0  0  0  0  0  0  0  0  0
  138.8790   78.6460  221.7950 C   0  0  0  0  0  0  0  0  0  0  0  0
  140.1400   79.3060  222.2660 C   0  0  0  0  0  0  0  0  0  0  0  0
  140.2480   80.7060  222.2980 C   0  0  0  0  0  0  0  0  0  0  0  0
  141.4240   81.3090  222.7520 C   0  0  0  0  0  0  0  0  0  0  0  0
  142.4900   80.5190  223.1940 C   0  0  0  0  0  0  0  0  0  0  0  0
  142.3800   79.1240  223.1840 C   0  0  0  0  0  0  0  0  0  0  0  0
  141.2080   78.5090  222.7140 C   0  0  0  0  0  0  0  0  0  0  0  0
  141.0700   77.0060  222.7560 C   0  0  0  0  0  0  0  0  0  0  0  0
  140.4680   74.7160  220.1370 N   0  0  0  0  0  0  0  0  0  0  0  0
  144.4040   74.4090  220.2410 C   0  0  0  0  0  0  0  0  0  0  0  0
  145.6497   74.6853  221.9981 H   0  0  0  0  0  0  0  0  0  0  0  0
  147.1862   72.8073  221.3914 H   0  0  0  0  0  0  0  0  0  0  0  0
  144.9106   71.9980  217.8739 H   0  0  0  0  0  0  0  0  0  0  0  0
  142.4312   74.7888  218.6033 H   0  0  0  0  0  0  0  0  0  0  0  0
  143.4149   74.2679  217.1814 H   0  0  0  0  0  0  0  0  0  0  0  0
  142.0963   72.4647  216.9198 H   0  0  0  0  0  0  0  0  0  0  0  0
  142.5333   71.9158  218.5883 H   0  0  0  0  0  0  0  0  0  0  0  0
  139.9640   72.6970  217.8290 H   0  0  0  0  0  0  0  0  0  0  0  0
  137.7146   71.2299  222.1786 H   0  0  0  0  0  0  0  0  0  0  0  0
  139.0633   70.0222  222.0458 H   0  0  0  0  0  0  0  0  0  0  0  0
  137.4615   70.7591  224.5369 H   0  0  0  0  0  0  0  0  0  0  0  0
  137.5009   69.1816  223.6717 H   0  0  0  0  0  0  0  0  0  0  0  0
  138.4272   67.7096  225.3390 H   0  0  0  0  0  0  0  0  0  0  0  0
  140.3986   67.0602  226.7305 H   0  0  0  0  0  0  0  0  0  0  0  0
  142.3092   68.6433  227.0072 H   0  0  0  0  0  0  0  0  0  0  0  0
  142.2641   70.8706  225.8827 H   0  0  0  0  0  0  0  0  0  0  0  0
  139.7421   72.5753  224.9491 H   0  0  0  0  0  0  0  0  0  0  0  0
  141.3027   72.2256  224.0975 H   0  0  0  0  0  0  0  0  0  0  0  0
  139.7137   77.6754  220.0645 H   0  0  0  0  0  0  0  0  0  0  0  0
  138.2805   76.8447  220.7996 H   0  0  0  0  0  0  0  0  0  0  0  0
  138.3210   79.3426  221.1520 H   0  0  0  0  0  0  0  0  0  0  0  0
  138.2662   78.3723  222.6665 H   0  0  0  0  0  0  0  0  0  0  0  0
  139.4050   81.3292  221.9649 H   0  0  0  0  0  0  0  0  0  0  0  0
  141.5113   82.4055  222.7617 H   0  0  0  0  0  0  0  0  0  0  0  0
  143.4158   80.9946  223.5498 H   0  0  0  0  0  0  0  0  0  0  0  0
  143.2152   78.5063  223.5459 H   0  0  0  0  0  0  0  0  0  0  0  0
  142.0549   76.5571  222.5600 H   0  0  0  0  0  0  0  0  0  0  0  0
  140.6894   76.7362  223.7522 H   0  0  0  0  0  0  0  0  0  0  0  0
  143.7290   75.2401  220.4933 H   0  0  0  0  0  0  0  0  0  0  0  0
  1  2  2  0
  2  3  1  0
  3  4  2  0
  4  5  1  0
  5  6  1  0
  6  7  1  0
  7  8  1  0
  8  9  1  0
  9 10  2  0
 10 11  1  0
 11 12  1  0
 12 13  1  0
 13 14  1  0
 14 15  1  0
 15 16  2  0
 16 17  1  0
 17 18  2  0
 18 19  1  0
 19 20  2  0
 20 21  1  0
 11 22  2  0
 22 23  1  0
 23 24  1  0
 24 25  1  0
 25 26  1  0
 26 27  1  0
 27 28  2  0
 28 29  1  0
 29 30  2  0
 30 31  1  0
 31 32  2  0
 32 33  1  0
 23 34  2  0
  5 35  2  0
 35  1  1  0
 34  9  1  0
 21 12  1  0
 33 24  1  0
 20 15  1  0
 32 27  1  0
  1 36  1  0
  2 37  1  0
  4 38  1  0
  6 39  1  0
  6 40  1  0
  7 41  1  0
  7 42  1  0
  8 43  1  0
 13 44  1  0
 13 45  1  0
 14 46  1  0
 14 47  1  0
 16 48  1  0
 17 49  1  0
 18 50  1  0
 19 51  1  0
 21 52  1  0
 21 53  1  0
 25 54  1  0
 25 55  1  0
 26 56  1  0
 26 57  1  0
 28 58  1  0
 29 59  1  0
 30 60  1  0
 31 61  1  0
 33 62  1  0
 33 63  1  0
 35 64  1  0
M  END
>  <UniqueID>  (9) 
593

>  <SMILES>  (9) 
c1cncc(CCNc2nc(N3CCc4ccccc4C3)nc(N3CCc4ccccc4C3)n2)c1

>  <Energy>  (9) 
72.57102426862981

>  <Genealogy>  (9) 
c1cncc(CCNc2nc(N3CCc4ccccc4C3)nc(N3CCc4ccccc4C3)n2)c1 (3D coordinates assigned)
c1cncc(CCNc2nc(N3CCc4ccccc4C3)nc(N3CCc4ccccc4C3)n2)c1 (nonaromatic ring conformer: 72.57102426862981 kcal/mol)

>  <smiles>  (9) 
c1cncc(CCNc2nc(N3CCc4ccccc4C3)nc(N3CCc4ccccc4C3)n2)c1

>  <score_type>  (9) 
oracle

>  <origin>  (9) 
autodockgpu

>  <m_score__min__energy>  (9) 
-10.68

>  <m_primary>  (9) 
energy

>  <meeko>  (9) 
{"free_energy": -9.73, "intermolecular_energy": -11.52, "internal_energy": -1.2, "cluster_size": 10, "cluster_id": 2, "rank_in_cluster": 6}

>  <energy>  (9) 
-9.69

>  <cluster_rmsd>  (9) 
1.94

>  <rmsd>  (9) 
269.23

>  <cluster>  (9) 
1

$$$$
RCQFLYQWKFFJSS-SREBMQDQNA-N
     RDKit          3D

 64 69  0  0  0  0  0  0  0  0999 V2000
  144.9600   73.7410  220.8920 C   0  0  0  0  0  0  0  0  0  0  0  0
  145.9910   73.6240  219.9590 C   0  0  0  0  0  0  0  0  0  0  0  0
  145.9630   72.6280  219.0320 N   0  0  0  0  0  0  0  0  0  0  0  0
  144.9480   71.7190  218.9870 C   0  0  0  0  0  0  0  0  0  0  0  0
  143.8860   71.8010  219.9030 C   0  0  0  0  0  0  0  0  0  0  0  0
  142.7520   70.8060  219.8620 C   0  0  0  0  0  0  0  0  0  0  0  0
  141.8360   71.0730  218.6560 C   0  0  0  0  0  0  0  0  0  0  0  0
  140.9990   72.2560  218.8740 N   0  0  0  0  0  0  0  0  0  0  0  0
  140.6360   72.7150  220.1830 C   0  0  0  0  0  0  0  0  0  0  0  0
  140.4800   74.0440  220.4110 N   0  0  0  0  0  0  0  0  0  0  0  0
  140.1240   74.4940  221.6430 C   0  0  0  0  0  0  0  0  0  0  0  0
  139.9060   75.8980  221.8750 N   0  0  0  0  0  0  0  0  0  0  0  0
  138.6100   76.3470  222.4220 C   0  0  0  0  0  0  0  0  0  0  0  0
  138.3890   77.8480  222.2150 C   0  0  0  0  0  0  0  0  0  0  0  0
  139.5910   78.6110  222.6860 C   0  0  0  0  0  0  0  0  0  0  0  0
  139.4630   79.8210  223.3860 C   0  0  0  0  0  0  0  0  0  0  0  0
  140.6050   80.5210  223.7880 C   0  0  0  0  0  0  0  0  0  0  0  0
  141.8760   80.0300  223.4730 C   0  0  0  0  0  0  0  0  0  0  0  0
  142.0090   78.8350  222.7590 C   0  0  0  0  0  0  0  0  0  0  0  0
  140.8670   78.1140  222.3730 C   0  0  0  0  0  0  0  0  0  0  0  0
  140.9880   76.8520  221.5600 C   0  0  0  0  0  0  0  0  0  0  0  0
  139.9640   73.6040  222.6570 N   0  0  0  0  0  0  0  0  0  0  0  0
  140.1400   72.2730  222.4470 C   0  0  0  0  0  0  0  0  0  0  0  0
  140.0250   71.3420  223.5420 N   0  0  0  0  0  0  0  0  0  0  0  0
  138.9070   70.3830  223.5490 C   0  0  0  0  0  0  0  0  0  0  0  0
  139.2070   69.1730  224.4310 C   0  0  0  0  0  0  0  0  0  0  0  0
  139.6220   69.6290  225.7980 C   0  0  0  0  0  0  0  0  0  0  0  0
  139.2290   68.9160  226.9420 C   0  0  0  0  0  0  0  0  0  0  0  0
  139.6340   69.3440  228.2090 C   0  0  0  0  0  0  0  0  0  0  0  0
  140.4500   70.4720  228.3390 C   0  0  0  0  0  0  0  0  0  0  0  0
  140.8620   71.1740  227.2010 C   0  0  0  0  0  0  0  0  0  0  0  0
  140.4460   70.7610  225.9240 C   0  0  0  0  0  0  0  0  0  0  0  0
  140.9370   71.4860  224.6940 C   0  0  0  0  0  0  0  0  0  0  0  0
  140.4630   71.8350  221.2020 N   0  0  0  0  0  0  0  0  0  0  0  0
  143.9020   72.8290  220.8600 C   0  0  0  0  0  0  0  0  0  0  0  0
  144.9800   74.5428  221.6448 H   0  0  0  0  0  0  0  0  0  0  0  0
  146.8277   74.3380  219.9728 H   0  0  0  0  0  0  0  0  0  0  0  0
  144.9606   70.9194  218.2317 H   0  0  0  0  0  0  0  0  0  0  0  0
  143.1661   69.7900  219.7826 H   0  0  0  0  0  0  0  0  0  0  0  0
  142.1604   70.9068  220.7838 H   0  0  0  0  0  0  0  0  0  0  0  0
  142.4575   71.2336  217.7627 H   0  0  0  0  0  0  0  0  0  0  0  0
  141.1776   70.2022  218.5209 H   0  0  0  0  0  0  0  0  0  0  0  0
  140.4850   72.6510  218.0540 H   0  0  0  0  0  0  0  0  0  0  0  0
  137.8020   75.7963  221.9182 H   0  0  0  0  0  0  0  0  0  0  0  0
  138.6114   76.1499  223.5042 H   0  0  0  0  0  0  0  0  0  0  0  0
  138.2257   78.0485  221.1458 H   0  0  0  0  0  0  0  0  0  0  0  0
  137.5086   78.1672  222.7921 H   0  0  0  0  0  0  0  0  0  0  0  0
  138.4641   80.2187  223.6184 H   0  0  0  0  0  0  0  0  0  0  0  0
  140.5034   81.4594  224.3529 H   0  0  0  0  0  0  0  0  0  0  0  0
  142.7724   80.5846  223.7874 H   0  0  0  0  0  0  0  0  0  0  0  0
  143.0096   78.4590  222.4992 H   0  0  0  0  0  0  0  0  0  0  0  0
  140.9377   77.1091  220.4917 H   0  0  0  0  0  0  0  0  0  0  0  0
  141.9491   76.3758  221.8040 H   0  0  0  0  0  0  0  0  0  0  0  0
  138.0068   70.8875  223.9299 H   0  0  0  0  0  0  0  0  0  0  0  0
  138.7534   70.0275  222.5194 H   0  0  0  0  0  0  0  0  0  0  0  0
  138.3051   68.5486  224.5128 H   0  0  0  0  0  0  0  0  0  0  0  0
  140.0233   68.5894  223.9803 H   0  0  0  0  0  0  0  0  0  0  0  0
  138.6010   68.0186  226.8406 H   0  0  0  0  0  0  0  0  0  0  0  0
  139.3107   68.7932  229.1046 H   0  0  0  0  0  0  0  0  0  0  0  0
  140.7683   70.8078  229.3370 H   0  0  0  0  0  0  0  0  0  0  0  0
  141.5145   72.0532  227.3065 H   0  0  0  0  0  0  0  0  0  0  0  0
  141.0357   72.5553  224.9324 H   0  0  0  0  0  0  0  0  0  0  0  0
  141.9017   71.0401  224.4101 H   0  0  0  0  0  0  0  0  0  0  0  0
  143.0799   72.9162  221.5857 H   0  0  0  0  0  0  0  0  0  0  0  0
  1  2  2  0
  2  3  1  0
  3  4  2  0
  4  5  1  0
  5  6  1  0
  6  7  1  0
  7  8  1  0
  8  9  1  0
  9 10  2  0
 10 11  1  0
 11 12  1  0
 12 13  1  0
 13 14  1  0
 14 15  1  0
 15 16  2  0
 16 17  1  0
 17 18  2  0
 18 19  1  0
 19 20  2  0
 20 21  1  0
 11 22  2  0
 22 23  1  0
 23 24  1  0
 24 25  1  0
 25 26  1  0
 26 27  1  0
 27 28  2  0
 28 29  1  0
 29 30  2  0
 30 31  1  0
 31 32  2  0
 32 33  1  0
 23 34  2  0
  5 35  2  0
 35  1  1  0
 34  9  1  0
 21 12  1  0
 33 24  1  0
 20 15  1  0
 32 27  1  0
  1 36  1  0
  2 37  1  0
  4 38  1  0
  6 39  1  0
  6 40  1  0
  7 41  1  0
  7 42  1  0
  8 43  1  0
 13 44  1  0
 13 45  1  0
 14 46  1  0
 14 47  1  0
 16 48  1  0
 17 49  1  0
 18 50  1  0
 19 51  1  0
 21 52  1  0
 21 53  1  0
 25 54  1  0
 25 55  1  0
 26 56  1  0
 26 57  1  0
 28 58  1  0
 29 59  1  0
 30 60  1  0
 31 61  1  0
 33 62  1  0
 33 63  1  0
 35 64  1  0
M  END
>  <UniqueID>  (10) 
593

>  <SMILES>  (10) 
c1cncc(CCNc2nc(N3CCc4ccccc4C3)nc(N3CCc4ccccc4C3)n2)c1

>  <Energy>  (10) 
72.57102426862981

>  <Genealogy>  (10) 
c1cncc(CCNc2nc(N3CCc4ccccc4C3)nc(N3CCc4ccccc4C3)n2)c1 (3D coordinates assigned)
c1cncc(CCNc2nc(N3CCc4ccccc4C3)nc(N3CCc4ccccc4C3)n2)c1 (nonaromatic ring conformer: 72.57102426862981 kcal/mol)

>  <smiles>  (10) 
c1cncc(CCNc2nc(N3CCc4ccccc4C3)nc(N3CCc4ccccc4C3)n2)c1

>  <score_type>  (10) 
oracle

>  <origin>  (10) 
autodockgpu

>  <m_score__min__energy>  (10) 
-10.68

>  <m_primary>  (10) 
energy

>  <meeko>  (10) 
{"free_energy": -10.47, "intermolecular_energy": -12.26, "internal_energy": -1.25, "cluster_size": 10, "cluster_id": 1, "rank_in_cluster": 2}

>  <energy>  (10) 
-9.64

>  <cluster_rmsd>  (10) 
1.9

>  <rmsd>  (10) 
269.12

>  <cluster>  (10) 
1

$$$$
RCQFLYQWKFFJSS-SREBMQDQNA-N
     RDKit          3D

 64 69  0  0  0  0  0  0  0  0999 V2000
  145.0450   74.3070  220.6740 C   0  0  0  0  0  0  0  0  0  0  0  0
  146.1240   73.4540  220.9050 C   0  0  0  0  0  0  0  0  0  0  0  0
  146.3240   72.3730  220.1010 N   0  0  0  0  0  0  0  0  0  0  0  0
  145.4890   72.0870  219.0640 C   0  0  0  0  0  0  0  0  0  0  0  0
  144.3920   72.9220  218.7900 C   0  0  0  0  0  0  0  0  0  0  0  0
  143.4610   72.6210  217.6410 C   0  0  0  0  0  0  0  0  0  0  0  0
  142.4510   71.5280  218.0290 C   0  0  0  0  0  0  0  0  0  0  0  0
  141.1560   72.1070  218.3990 N   0  0  0  0  0  0  0  0  0  0  0  0
  140.9290   72.7470  219.6610 C   0  0  0  0  0  0  0  0  0  0  0  0
  140.4630   72.0210  220.7090 N   0  0  0  0  0  0  0  0  0  0  0  0
  140.2540   72.6110  221.9160 C   0  0  0  0  0  0  0  0  0  0  0  0
  139.8110   71.8330  223.0430 N   0  0  0  0  0  0  0  0  0  0  0  0
  138.5960   71.0040  222.9150 C   0  0  0  0  0  0  0  0  0  0  0  0
  138.0380   70.5890  224.2800 C   0  0  0  0  0  0  0  0  0  0  0  0
  139.1340   70.0100  225.1240 C   0  0  0  0  0  0  0  0  0  0  0  0
  138.9150   68.8880  225.9400 C   0  0  0  0  0  0  0  0  0  0  0  0
  139.9510   68.3880  226.7360 C   0  0  0  0  0  0  0  0  0  0  0  0
  141.1990   69.0180  226.7380 C   0  0  0  0  0  0  0  0  0  0  0  0
  141.4170   70.1470  225.9430 C   0  0  0  0  0  0  0  0  0  0  0  0
  140.3890   70.6400  225.1230 C   0  0  0  0  0  0  0  0  0  0  0  0
  140.5880   71.8840  224.2980 C   0  0  0  0  0  0  0  0  0  0  0  0
  140.4780   73.9440  222.0540 N   0  0  0  0  0  0  0  0  0  0  0  0
  140.9230   74.6850  221.0060 C   0  0  0  0  0  0  0  0  0  0  0  0
  141.1010   76.1100  221.1460 N   0  0  0  0  0  0  0  0  0  0  0  0
  141.7850   76.8510  220.0720 C   0  0  0  0  0  0  0  0  0  0  0  0
  141.4360   78.3370  220.1020 C   0  0  0  0  0  0  0  0  0  0  0  0
  141.6840   78.8910  221.4730 C   0  0  0  0  0  0  0  0  0  0  0  0
  142.1960   80.1880  221.6410 C   0  0  0  0  0  0  0  0  0  0  0  0
  142.4100   80.6980  222.9250 C   0  0  0  0  0  0  0  0  0  0  0  0
  142.0950   79.9240  224.0460 C   0  0  0  0  0  0  0  0  0  0  0  0
  141.5650   78.6390  223.8850 C   0  0  0  0  0  0  0  0  0  0  0  0
  141.3620   78.1120  222.5990 C   0  0  0  0  0  0  0  0  0  0  0  0
  140.7380   76.7480  222.4270 C   0  0  0  0  0  0  0  0  0  0  0  0
  141.1590   74.0760  219.8150 N   0  0  0  0  0  0  0  0  0  0  0  0
  144.1800   74.0430  219.6090 C   0  0  0  0  0  0  0  0  0  0  0  0
  144.8767   75.1786  221.3236 H   0  0  0  0  0  0  0  0  0  0  0  0
  146.8143   73.6546  221.7376 H   0  0  0  0  0  0  0  0  0  0  0  0
  145.6734   71.2005  218.4394 H   0  0  0  0  0  0  0  0  0  0  0  0
  142.9151   73.5366  217.3697 H   0  0  0  0  0  0  0  0  0  0  0  0
  144.0570   72.2639  216.7882 H   0  0  0  0  0  0  0  0  0  0  0  0
  142.3096   70.8508  217.1738 H   0  0  0  0  0  0  0  0  0  0  0  0
  142.8476   70.9809  218.8970 H   0  0  0  0  0  0  0  0  0  0  0  0
  140.3250   71.8620  217.8130 H   0  0  0  0  0  0  0  0  0  0  0  0
  137.8281   71.5799  222.3776 H   0  0  0  0  0  0  0  0  0  0  0  0
  138.8648   70.0897  222.3656 H   0  0  0  0  0  0  0  0  0  0  0  0
  137.6156   71.4704  224.7848 H   0  0  0  0  0  0  0  0  0  0  0  0
  137.2532   69.8319  224.1358 H   0  0  0  0  0  0  0  0  0  0  0  0
  137.9282   68.4021  225.9532 H   0  0  0  0  0  0  0  0  0  0  0  0
  139.7835   67.4983  227.3609 H   0  0  0  0  0  0  0  0  0  0  0  0
  142.0113   68.6244  227.3666 H   0  0  0  0  0  0  0  0  0  0  0  0
  142.3951   70.6500  225.9597 H   0  0  0  0  0  0  0  0  0  0  0  0
  140.2635   72.7567  224.8837 H   0  0  0  0  0  0  0  0  0  0  0  0
  141.6547   71.9593  224.0400 H   0  0  0  0  0  0  0  0  0  0  0  0
  142.8720   76.7373  220.1966 H   0  0  0  0  0  0  0  0  0  0  0  0
  141.4543   76.4400  219.1068 H   0  0  0  0  0  0  0  0  0  0  0  0
  142.0612   78.8734  219.3731 H   0  0  0  0  0  0  0  0  0  0  0  0
  140.3739   78.4652  219.8459 H   0  0  0  0  0  0  0  0  0  0  0  0
  142.4292   80.8041  220.7601 H   0  0  0  0  0  0  0  0  0  0  0  0
  142.8262   81.7081  223.0533 H   0  0  0  0  0  0  0  0  0  0  0  0
  142.2641   80.3258  225.0559 H   0  0  0  0  0  0  0  0  0  0  0  0
  141.3061   78.0388  224.7697 H   0  0  0  0  0  0  0  0  0  0  0  0
  141.0755   76.1008  223.2500 H   0  0  0  0  0  0  0  0  0  0  0  0
  139.6460   76.8803  222.4333 H   0  0  0  0  0  0  0  0  0  0  0  0
  143.3313   74.7144  219.4116 H   0  0  0  0  0  0  0  0  0  0  0  0
  1  2  2  0
  2  3  1  0
  3  4  2  0
  4  5  1  0
  5  6  1  0
  6  7  1  0
  7  8  1  0
  8  9  1  0
  9 10  2  0
 10 11  1  0
 11 12  1  0
 12 13  1  0
 13 14  1  0
 14 15  1  0
 15 16  2  0
 16 17  1  0
 17 18  2  0
 18 19  1  0
 19 20  2  0
 20 21  1  0
 11 22  2  0
 22 23  1  0
 23 24  1  0
 24 25  1  0
 25 26  1  0
 26 27  1  0
 27 28  2  0
 28 29  1  0
 29 30  2  0
 30 31  1  0
 31 32  2  0
 32 33  1  0
 23 34  2  0
  5 35  2  0
 35  1  1  0
 34  9  1  0
 21 12  1  0
 33 24  1  0
 20 15  1  0
 32 27  1  0
  1 36  1  0
  2 37  1  0
  4 38  1  0
  6 39  1  0
  6 40  1  0
  7 41  1  0
  7 42  1  0
  8 43  1  0
 13 44  1  0
 13 45  1  0
 14 46  1  0
 14 47  1  0
 16 48  1  0
 17 49  1  0
 18 50  1  0
 19 51  1  0
 21 52  1  0
 21 53  1  0
 25 54  1  0
 25 55  1  0
 26 56  1  0
 26 57  1  0
 28 58  1  0
 29 59  1  0
 30 60  1  0
 31 61  1  0
 33 62  1  0
 33 63  1  0
 35 64  1  0
M  END
>  <UniqueID>  (11) 
593

>  <SMILES>  (11) 
c1cncc(CCNc2nc(N3CCc4ccccc4C3)nc(N3CCc4ccccc4C3)n2)c1

>  <Energy>  (11) 
72.57102426862981

>  <Genealogy>  (11) 
c1cncc(CCNc2nc(N3CCc4ccccc4C3)nc(N3CCc4ccccc4C3)n2)c1 (3D coordinates assigned)
c1cncc(CCNc2nc(N3CCc4ccccc4C3)nc(N3CCc4ccccc4C3)n2)c1 (nonaromatic ring conformer: 72.57102426862981 kcal/mol)

>  <smiles>  (11) 
c1cncc(CCNc2nc(N3CCc4ccccc4C3)nc(N3CCc4ccccc4C3)n2)c1

>  <score_type>  (11) 
oracle

>  <origin>  (11) 
autodockgpu

>  <m_score__min__energy>  (11) 
-10.68

>  <m_primary>  (11) 
energy

>  <meeko>  (11) 
{"free_energy": -9.92, "intermolecular_energy": -11.71, "internal_energy": -1.43, "cluster_size": 10, "cluster_id": 1, "rank_in_cluster": 4}

>  <energy>  (11) 
-10.59

>  <cluster_rmsd>  (11) 
0.0

>  <rmsd>  (11) 
269.38

>  <cluster>  (11) 
2

$$$$
RCQFLYQWKFFJSS-SREBMQDQNA-N
     RDKit          3D

 64 69  0  0  0  0  0  0  0  0999 V2000
  140.8350   67.4160  227.2130 C   0  0  0  0  0  0  0  0  0  0  0  0
  140.8830   68.1960  228.3690 C   0  0  0  0  0  0  0  0  0  0  0  0
  140.4670   69.4920  228.3350 N   0  0  0  0  0  0  0  0  0  0  0  0
  140.0020   70.0660  227.1900 C   0  0  0  0  0  0  0  0  0  0  0  0
  139.9300   69.3170  226.0040 C   0  0  0  0  0  0  0  0  0  0  0  0
  139.4110   69.9370  224.7290 C   0  0  0  0  0  0  0  0  0  0  0  0
  139.8240   71.4160  224.6350 C   0  0  0  0  0  0  0  0  0  0  0  0
  139.4450   71.9940  223.3430 N   0  0  0  0  0  0  0  0  0  0  0  0
  140.3850   72.6570  222.4880 C   0  0  0  0  0  0  0  0  0  0  0  0
  141.3320   71.9330  221.8400 N   0  0  0  0  0  0  0  0  0  0  0  0
  142.2230   72.5460  221.0160 C   0  0  0  0  0  0  0  0  0  0  0  0
  143.1960   71.7750  220.2860 N   0  0  0  0  0  0  0  0  0  0  0  0
  144.5650   72.3040  220.1290 C   0  0  0  0  0  0  0  0  0  0  0  0
  145.3280   71.5940  219.0070 C   0  0  0  0  0  0  0  0  0  0  0  0
  145.2220   70.1080  219.1780 C   0  0  0  0  0  0  0  0  0  0  0  0
  146.3190   69.2630  218.9430 C   0  0  0  0  0  0  0  0  0  0  0  0
  146.1790   67.8780  219.0860 C   0  0  0  0  0  0  0  0  0  0  0  0
  144.9410   67.3320  219.4410 C   0  0  0  0  0  0  0  0  0  0  0  0
  143.8410   68.1670  219.6570 C   0  0  0  0  0  0  0  0  0  0  0  0
  143.9790   69.5600  219.5390 C   0  0  0  0  0  0  0  0  0  0  0  0
  142.7960   70.4730  219.7180 C   0  0  0  0  0  0  0  0  0  0  0  0
  142.1810   73.8970  220.8770 N   0  0  0  0  0  0  0  0  0  0  0  0
  141.2520   74.6350  221.5380 C   0  0  0  0  0  0  0  0  0  0  0  0
  141.2520   76.0730  221.4300 N   0  0  0  0  0  0  0  0  0  0  0  0
  141.8250   76.6980  220.2250 C   0  0  0  0  0  0  0  0  0  0  0  0
  141.2920   78.1140  220.0170 C   0  0  0  0  0  0  0  0  0  0  0  0
  141.4850   78.9200  221.2670 C   0  0  0  0  0  0  0  0  0  0  0  0
  141.8330   80.2790  221.1970 C   0  0  0  0  0  0  0  0  0  0  0  0
  141.9970   81.0220  222.3690 C   0  0  0  0  0  0  0  0  0  0  0  0
  141.7950   80.4190  223.6140 C   0  0  0  0  0  0  0  0  0  0  0  0
  141.4290   79.0700  223.6890 C   0  0  0  0  0  0  0  0  0  0  0  0
  141.2780   78.3110  222.5170 C   0  0  0  0  0  0  0  0  0  0  0  0
  140.8270   76.8720  222.5970 C   0  0  0  0  0  0  0  0  0  0  0  0
  140.3470   74.0050  222.3320 N   0  0  0  0  0  0  0  0  0  0  0  0
  140.3510   67.9770  226.0280 C   0  0  0  0  0  0  0  0  0  0  0  0
  141.1747   66.3700  227.2342 H   0  0  0  0  0  0  0  0  0  0  0  0
  141.2572   67.7635  229.3086 H   0  0  0  0  0  0  0  0  0  0  0  0
  139.6822   71.1185  227.1945 H   0  0  0  0  0  0  0  0  0  0  0  0
  139.8245   69.3914  223.8680 H   0  0  0  0  0  0  0  0  0  0  0  0
  138.3127   69.8762  224.7283 H   0  0  0  0  0  0  0  0  0  0  0  0
  139.3267   71.9786  225.4388 H   0  0  0  0  0  0  0  0  0  0  0  0
  140.9177   71.4779  224.7354 H   0  0  0  0  0  0  0  0  0  0  0  0
  138.4260   72.1070  223.1370 H   0  0  0  0  0  0  0  0  0  0  0  0
  144.5066   73.3773  219.8951 H   0  0  0  0  0  0  0  0  0  0  0  0
  145.1065   72.1315  221.0708 H   0  0  0  0  0  0  0  0  0  0  0  0
  144.8986   71.8808  218.0358 H   0  0  0  0  0  0  0  0  0  0  0  0
  146.3871   71.8883  219.0470 H   0  0  0  0  0  0  0  0  0  0  0  0
  147.2884   69.6900  218.6465 H   0  0  0  0  0  0  0  0  0  0  0  0
  147.0431   67.2181  218.9191 H   0  0  0  0  0  0  0  0  0  0  0  0
  144.8328   66.2428  219.5504 H   0  0  0  0  0  0  0  0  0  0  0  0
  142.8653   67.7324  219.9199 H   0  0  0  0  0  0  0  0  0  0  0  0
  142.3231   70.6407  218.7391 H   0  0  0  0  0  0  0  0  0  0  0  0
  142.0941   69.9939  220.4164 H   0  0  0  0  0  0  0  0  0  0  0  0
  142.9190   76.7406  220.3312 H   0  0  0  0  0  0  0  0  0  0  0  0
  141.5375   76.0913  219.3536 H   0  0  0  0  0  0  0  0  0  0  0  0
  141.8359   78.5905  219.1880 H   0  0  0  0  0  0  0  0  0  0  0  0
  140.2192   78.0661  219.7786 H   0  0  0  0  0  0  0  0  0  0  0  0
  141.9767   80.7592  220.2179 H   0  0  0  0  0  0  0  0  0  0  0  0
  142.2852   82.0820  222.3120 H   0  0  0  0  0  0  0  0  0  0  0  0
  141.9238   81.0053  224.5358 H   0  0  0  0  0  0  0  0  0  0  0  0
  141.2589   78.6024  224.6700 H   0  0  0  0  0  0  0  0  0  0  0  0
  141.2521   76.4205  223.5056 H   0  0  0  0  0  0  0  0  0  0  0  0
  139.7272   76.8704  222.6165 H   0  0  0  0  0  0  0  0  0  0  0  0
  140.2996   67.3686  225.1130 H   0  0  0  0  0  0  0  0  0  0  0  0
  1  2  2  0
  2  3  1  0
  3  4  2  0
  4  5  1  0
  5  6  1  0
  6  7  1  0
  7  8  1  0
  8  9  1  0
  9 10  2  0
 10 11  1  0
 11 12  1  0
 12 13  1  0
 13 14  1  0
 14 15  1  0
 15 16  2  0
 16 17  1  0
 17 18  2  0
 18 19  1  0
 19 20  2  0
 20 21  1  0
 11 22  2  0
 22 23  1  0
 23 24  1  0
 24 25  1  0
 25 26  1  0
 26 27  1  0
 27 28  2  0
 28 29  1  0
 29 30  2  0
 30 31  1  0
 31 32  2  0
 32 33  1  0
 23 34  2  0
  5 35  2  0
 35  1  1  0
 34  9  1  0
 21 12  1  0
 33 24  1  0
 20 15  1  0
 32 27  1  0
  1 36  1  0
  2 37  1  0
  4 38  1  0
  6 39  1  0
  6 40  1  0
  7 41  1  0
  7 42  1  0
  8 43  1  0
 13 44  1  0
 13 45  1  0
 14 46  1  0
 14 47  1  0
 16 48  1  0
 17 49  1  0
 18 50  1  0
 19 51  1  0
 21 52  1  0
 21 53  1  0
 25 54  1  0
 25 55  1  0
 26 56  1  0
 26 57  1  0
 28 58  1  0
 29 59  1  0
 30 60  1  0
 31 61  1  0
 33 62  1  0
 33 63  1  0
 35 64  1  0
M  END
>  <UniqueID>  (12) 
593

>  <SMILES>  (12) 
c1cncc(CCNc2nc(N3CCc4ccccc4C3)nc(N3CCc4ccccc4C3)n2)c1

>  <Energy>  (12) 
72.57102426862981

>  <Genealogy>  (12) 
c1cncc(CCNc2nc(N3CCc4ccccc4C3)nc(N3CCc4ccccc4C3)n2)c1 (3D coordinates assigned)
c1cncc(CCNc2nc(N3CCc4ccccc4C3)nc(N3CCc4ccccc4C3)n2)c1 (nonaromatic ring conformer: 72.57102426862981 kcal/mol)

>  <smiles>  (12) 
c1cncc(CCNc2nc(N3CCc4ccccc4C3)nc(N3CCc4ccccc4C3)n2)c1

>  <score_type>  (12) 
oracle

>  <origin>  (12) 
autodockgpu

>  <m_score__min__energy>  (12) 
-10.68

>  <m_primary>  (12) 
energy

>  <meeko>  (12) 
{"free_energy": -10.43, "intermolecular_energy": -12.22, "internal_energy": -0.79, "cluster_size": 10, "cluster_id": 1, "rank_in_cluster": 3}

>  <energy>  (12) 
-10.49

>  <cluster_rmsd>  (12) 
0.26

>  <rmsd>  (12) 
269.33

>  <cluster>  (12) 
2

$$$$
RCQFLYQWKFFJSS-SREBMQDQNA-N
     RDKit          3D

 64 69  0  0  0  0  0  0  0  0999 V2000
  145.4820   73.3520  221.1460 C   0  0  0  0  0  0  0  0  0  0  0  0
  145.2140   74.6000  220.5800 C   0  0  0  0  0  0  0  0  0  0  0  0
  144.1490   74.7570  219.7480 N   0  0  0  0  0  0  0  0  0  0  0  0
  143.3240   73.7180  219.4340 C   0  0  0  0  0  0  0  0  0  0  0  0
  143.5520   72.4460  219.9850 C   0  0  0  0  0  0  0  0  0  0  0  0
  142.6440   71.2870  219.6540 C   0  0  0  0  0  0  0  0  0  0  0  0
  141.7650   71.6140  218.4340 C   0  0  0  0  0  0  0  0  0  0  0  0
  140.5740   72.3730  218.8250 N   0  0  0  0  0  0  0  0  0  0  0  0
  140.3470   72.8160  220.1690 C   0  0  0  0  0  0  0  0  0  0  0  0
  140.2660   74.1450  220.4350 N   0  0  0  0  0  0  0  0  0  0  0  0
  140.0400   74.5810  221.7020 C   0  0  0  0  0  0  0  0  0  0  0  0
  139.9010   75.9870  221.9780 N   0  0  0  0  0  0  0  0  0  0  0  0
  138.7030   76.4680  222.6940 C   0  0  0  0  0  0  0  0  0  0  0  0
  138.5090   77.9790  222.5380 C   0  0  0  0  0  0  0  0  0  0  0  0
  139.7870   78.6940  222.8600 C   0  0  0  0  0  0  0  0  0  0  0  0
  139.7910   79.8950  223.5870 C   0  0  0  0  0  0  0  0  0  0  0  0
  140.9990   80.5510  223.8480 C   0  0  0  0  0  0  0  0  0  0  0  0
  142.2010   80.0240  223.3650 C   0  0  0  0  0  0  0  0  0  0  0  0
  142.2000   78.8380  222.6240 C   0  0  0  0  0  0  0  0  0  0  0  0
  140.9950   78.1610  222.3780 C   0  0  0  0  0  0  0  0  0  0  0  0
  140.9670   76.9110  221.5400 C   0  0  0  0  0  0  0  0  0  0  0  0
  139.9320   73.6750  222.7090 N   0  0  0  0  0  0  0  0  0  0  0  0
  140.0320   72.3440  222.4590 C   0  0  0  0  0  0  0  0  0  0  0  0
  139.9760   71.3930  223.5420 N   0  0  0  0  0  0  0  0  0  0  0  0
  138.9140   70.3720  223.5400 C   0  0  0  0  0  0  0  0  0  0  0  0
  139.2860   69.1700  224.4050 C   0  0  0  0  0  0  0  0  0  0  0  0
  139.6800   69.6310  225.7770 C   0  0  0  0  0  0  0  0  0  0  0  0
  139.3320   68.8820  226.9120 C   0  0  0  0  0  0  0  0  0  0  0  0
  139.7170   69.3160  228.1840 C   0  0  0  0  0  0  0  0  0  0  0  0
  140.4670   70.4870  228.3260 C   0  0  0  0  0  0  0  0  0  0  0  0
  140.8340   71.2260  227.1970 C   0  0  0  0  0  0  0  0  0  0  0  0
  140.4380   70.8070  225.9160 C   0  0  0  0  0  0  0  0  0  0  0  0
  140.8820   71.5750  224.6940 C   0  0  0  0  0  0  0  0  0  0  0  0
  140.2270   71.9210  221.1830 N   0  0  0  0  0  0  0  0  0  0  0  0
  144.6440   72.2740  220.8510 C   0  0  0  0  0  0  0  0  0  0  0  0
  146.3436   73.2192  221.8168 H   0  0  0  0  0  0  0  0  0  0  0  0
  145.8648   75.4573  220.8071 H   0  0  0  0  0  0  0  0  0  0  0  0
  142.4786   73.8759  218.7482 H   0  0  0  0  0  0  0  0  0  0  0  0
  143.2566   70.4011  219.4304 H   0  0  0  0  0  0  0  0  0  0  0  0
  141.9910   71.0922  220.5176 H   0  0  0  0  0  0  0  0  0  0  0  0
  142.3513   72.2101  217.7192 H   0  0  0  0  0  0  0  0  0  0  0  0
  141.4396   70.6680  217.9765 H   0  0  0  0  0  0  0  0  0  0  0  0
  139.7740   72.4100  218.1520 H   0  0  0  0  0  0  0  0  0  0  0  0
  137.8182   75.9530  222.2916 H   0  0  0  0  0  0  0  0  0  0  0  0
  138.8372   76.2516  223.7641 H   0  0  0  0  0  0  0  0  0  0  0  0
  138.2164   78.2040  221.5018 H   0  0  0  0  0  0  0  0  0  0  0  0
  137.7218   78.3160  223.2284 H   0  0  0  0  0  0  0  0  0  0  0  0
  138.8443   80.3203  223.9515 H   0  0  0  0  0  0  0  0  0  0  0  0
  141.0032   81.4821  224.4337 H   0  0  0  0  0  0  0  0  0  0  0  0
  143.1491   80.5434  223.5684 H   0  0  0  0  0  0  0  0  0  0  0  0
  143.1457   78.4346  222.2329 H   0  0  0  0  0  0  0  0  0  0  0  0
  140.7899   77.1886  220.4905 H   0  0  0  0  0  0  0  0  0  0  0  0
  141.9341   76.3991  221.6529 H   0  0  0  0  0  0  0  0  0  0  0  0
  137.9882   70.8196  223.9305 H   0  0  0  0  0  0  0  0  0  0  0  0
  138.7764   70.0217  222.5064 H   0  0  0  0  0  0  0  0  0  0  0  0
  138.4215   68.4942  224.4815 H   0  0  0  0  0  0  0  0  0  0  0  0
  140.1325   68.6400  223.9439 H   0  0  0  0  0  0  0  0  0  0  0  0
  138.7554   67.9519  226.8004 H   0  0  0  0  0  0  0  0  0  0  0  0
  139.4296   68.7358  229.0733 H   0  0  0  0  0  0  0  0  0  0  0  0
  140.7690   70.8277  229.3274 H   0  0  0  0  0  0  0  0  0  0  0  0
  141.4356   72.1397  227.3125 H   0  0  0  0  0  0  0  0  0  0  0  0
  140.9192   72.6451  224.9460 H   0  0  0  0  0  0  0  0  0  0  0  0
  141.8699   71.1894  224.4019 H   0  0  0  0  0  0  0  0  0  0  0  0
  144.8399   71.2882  221.2980 H   0  0  0  0  0  0  0  0  0  0  0  0
  1  2  2  0
  2  3  1  0
  3  4  2  0
  4  5  1  0
  5  6  1  0
  6  7  1  0
  7  8  1  0
  8  9  1  0
  9 10  2  0
 10 11  1  0
 11 12  1  0
 12 13  1  0
 13 14  1  0
 14 15  1  0
 15 16  2  0
 16 17  1  0
 17 18  2  0
 18 19  1  0
 19 20  2  0
 20 21  1  0
 11 22  2  0
 22 23  1  0
 23 24  1  0
 24 25  1  0
 25 26  1  0
 26 27  1  0
 27 28  2  0
 28 29  1  0
 29 30  2  0
 30 31  1  0
 31 32  2  0
 32 33  1  0
 23 34  2  0
  5 35  2  0
 35  1  1  0
 34  9  1  0
 21 12  1  0
 33 24  1  0
 20 15  1  0
 32 27  1  0
  1 36  1  0
  2 37  1  0
  4 38  1  0
  6 39  1  0
  6 40  1  0
  7 41  1  0
  7 42  1  0
  8 43  1  0
 13 44  1  0
 13 45  1  0
 14 46  1  0
 14 47  1  0
 16 48  1  0
 17 49  1  0
 18 50  1  0
 19 51  1  0
 21 52  1  0
 21 53  1  0
 25 54  1  0
 25 55  1  0
 26 56  1  0
 26 57  1  0
 28 58  1  0
 29 59  1  0
 30 60  1  0
 31 61  1  0
 33 62  1  0
 33 63  1  0
 35 64  1  0
M  END
>  <UniqueID>  (13) 
593

>  <SMILES>  (13) 
c1cncc(CCNc2nc(N3CCc4ccccc4C3)nc(N3CCc4ccccc4C3)n2)c1

>  <Energy>  (13) 
72.57102426862981

>  <Genealogy>  (13) 
c1cncc(CCNc2nc(N3CCc4ccccc4C3)nc(N3CCc4ccccc4C3)n2)c1 (3D coordinates assigned)
c1cncc(CCNc2nc(N3CCc4ccccc4C3)nc(N3CCc4ccccc4C3)n2)c1 (nonaromatic ring conformer: 72.57102426862981 kcal/mol)

>  <smiles>  (13) 
c1cncc(CCNc2nc(N3CCc4ccccc4C3)nc(N3CCc4ccccc4C3)n2)c1

>  <score_type>  (13) 
oracle

>  <origin>  (13) 
autodockgpu

>  <m_score__min__energy>  (13) 
-10.68

>  <m_primary>  (13) 
energy

>  <meeko>  (13) 
{"free_energy": -9.75, "intermolecular_energy": -11.54, "internal_energy": -1.38, "cluster_size": 10, "cluster_id": 1, "rank_in_cluster": 6}

>  <energy>  (13) 
-10.47

>  <cluster_rmsd>  (13) 
0.27

>  <rmsd>  (13) 
269.32

>  <cluster>  (13) 
2

$$$$
RCQFLYQWKFFJSS-SREBMQDQNA-N
     RDKit          3D

 64 69  0  0  0  0  0  0  0  0999 V2000
  145.1690   74.1500  220.8500 C   0  0  0  0  0  0  0  0  0  0  0  0
  146.2990   73.4240  220.4730 C   0  0  0  0  0  0  0  0  0  0  0  0
  146.2850   72.6840  219.3300 N   0  0  0  0  0  0  0  0  0  0  0  0
  145.1830   72.6200  218.5310 C   0  0  0  0  0  0  0  0  0  0  0  0
  144.0240   73.3400  218.8680 C   0  0  0  0  0  0  0  0  0  0  0  0
  142.7980   73.2850  217.9900 C   0  0  0  0  0  0  0  0  0  0  0  0
  141.9620   72.0320  218.2990 C   0  0  0  0  0  0  0  0  0  0  0  0
  140.6250   72.3890  218.7810 N   0  0  0  0  0  0  0  0  0  0  0  0
  140.3820   72.8480  220.1170 C   0  0  0  0  0  0  0  0  0  0  0  0
  140.3060   74.1810  220.3670 N   0  0  0  0  0  0  0  0  0  0  0  0
  140.0650   74.6320  221.6260 C   0  0  0  0  0  0  0  0  0  0  0  0
  139.9320   76.0420  221.8850 N   0  0  0  0  0  0  0  0  0  0  0  0
  138.6800   76.5510  222.4800 C   0  0  0  0  0  0  0  0  0  0  0  0
  138.5350   78.0650  222.3030 C   0  0  0  0  0  0  0  0  0  0  0  0
  139.7910   78.7540  222.7460 C   0  0  0  0  0  0  0  0  0  0  0  0
  139.7510   79.9580  223.4680 C   0  0  0  0  0  0  0  0  0  0  0  0
  140.9420   80.5880  223.8440 C   0  0  0  0  0  0  0  0  0  0  0  0
  142.1730   80.0330  223.4810 C   0  0  0  0  0  0  0  0  0  0  0  0
  142.2190   78.8450  222.7450 C   0  0  0  0  0  0  0  0  0  0  0  0
  141.0280   78.1930  222.3850 C   0  0  0  0  0  0  0  0  0  0  0  0
  141.0540   76.9410  221.5500 C   0  0  0  0  0  0  0  0  0  0  0  0
  139.9390   73.7380  222.6420 N   0  0  0  0  0  0  0  0  0  0  0  0
  140.0350   72.4030  222.4080 C   0  0  0  0  0  0  0  0  0  0  0  0
  139.9580   71.4650  223.5000 N   0  0  0  0  0  0  0  0  0  0  0  0
  138.9120   70.4290  223.4780 C   0  0  0  0  0  0  0  0  0  0  0  0
  139.2740   69.2430  224.3690 C   0  0  0  0  0  0  0  0  0  0  0  0
  139.6180   69.7260  225.7460 C   0  0  0  0  0  0  0  0  0  0  0  0
  139.2460   68.9850  226.8800 C   0  0  0  0  0  0  0  0  0  0  0  0
  139.5860   69.4400  228.1570 C   0  0  0  0  0  0  0  0  0  0  0  0
  140.3140   70.6240  228.3080 C   0  0  0  0  0  0  0  0  0  0  0  0
  140.7050   71.3550  227.1810 C   0  0  0  0  0  0  0  0  0  0  0  0
  140.3550   70.9140  225.8940 C   0  0  0  0  0  0  0  0  0  0  0  0
  140.8260   71.6740  224.6770 C   0  0  0  0  0  0  0  0  0  0  0  0
  140.2440   71.9650  221.1390 N   0  0  0  0  0  0  0  0  0  0  0  0
  144.0300   74.1120  220.0420 C   0  0  0  0  0  0  0  0  0  0  0  0
  145.1748   74.7464  221.7743 H   0  0  0  0  0  0  0  0  0  0  0  0
  147.2025   73.4494  221.0999 H   0  0  0  0  0  0  0  0  0  0  0  0
  145.2006   72.0034  217.6202 H   0  0  0  0  0  0  0  0  0  0  0  0
  142.1853   74.1808  218.1694 H   0  0  0  0  0  0  0  0  0  0  0  0
  143.1184   73.2451  216.9385 H   0  0  0  0  0  0  0  0  0  0  0  0
  141.8639   71.4318  217.3824 H   0  0  0  0  0  0  0  0  0  0  0  0
  142.4734   71.4592  219.0867 H   0  0  0  0  0  0  0  0  0  0  0  0
  139.8030   72.1040  218.2010 H   0  0  0  0  0  0  0  0  0  0  0  0
  137.8278   76.0534  221.9940 H   0  0  0  0  0  0  0  0  0  0  0  0
  138.7042   76.3357  223.5585 H   0  0  0  0  0  0  0  0  0  0  0  0
  138.3491   78.2920  221.2428 H   0  0  0  0  0  0  0  0  0  0  0  0
  137.6922   78.4216  222.9133 H   0  0  0  0  0  0  0  0  0  0  0  0
  138.7831   80.4056  223.7378 H   0  0  0  0  0  0  0  0  0  0  0  0
  140.9101   81.5210  224.4258 H   0  0  0  0  0  0  0  0  0  0  0  0
  143.1079   80.5324  223.7753 H   0  0  0  0  0  0  0  0  0  0  0  0
  143.1892   78.4204  222.4475 H   0  0  0  0  0  0  0  0  0  0  0  0
  140.9844   77.2186  220.4879 H   0  0  0  0  0  0  0  0  0  0  0  0
  141.9947   76.4092  221.7558 H   0  0  0  0  0  0  0  0  0  0  0  0
  137.9682   70.8676  223.8341 H   0  0  0  0  0  0  0  0  0  0  0  0
  138.8118   70.0643  222.4451 H   0  0  0  0  0  0  0  0  0  0  0  0
  138.4173   68.5554  224.4270 H   0  0  0  0  0  0  0  0  0  0  0  0
  140.1420   68.7200  223.9411 H   0  0  0  0  0  0  0  0  0  0  0  0
  138.6863   68.0453  226.7627 H   0  0  0  0  0  0  0  0  0  0  0  0
  139.2805   68.8659  229.0442 H   0  0  0  0  0  0  0  0  0  0  0  0
  140.5796   70.9812  229.3139 H   0  0  0  0  0  0  0  0  0  0  0  0
  141.2890   72.2791  227.3032 H   0  0  0  0  0  0  0  0  0  0  0  0
  140.8404   72.7474  224.9169 H   0  0  0  0  0  0  0  0  0  0  0  0
  141.8280   71.2997  224.4202 H   0  0  0  0  0  0  0  0  0  0  0  0
  143.1363   74.6874  220.3254 H   0  0  0  0  0  0  0  0  0  0  0  0
  1  2  2  0
  2  3  1  0
  3  4  2  0
  4  5  1  0
  5  6  1  0
  6  7  1  0
  7  8  1  0
  8  9  1  0
  9 10  2  0
 10 11  1  0
 11 12  1  0
 12 13  1  0
 13 14  1  0
 14 15  1  0
 15 16  2  0
 16 17  1  0
 17 18  2  0
 18 19  1  0
 19 20  2  0
 20 21  1  0
 11 22  2  0
 22 23  1  0
 23 24  1  0
 24 25  1  0
 25 26  1  0
 26 27  1  0
 27 28  2  0
 28 29  1  0
 29 30  2  0
 30 31  1  0
 31 32  2  0
 32 33  1  0
 23 34  2  0
  5 35  2  0
 35  1  1  0
 34  9  1  0
 21 12  1  0
 33 24  1  0
 20 15  1  0
 32 27  1  0
  1 36  1  0
  2 37  1  0
  4 38  1  0
  6 39  1  0
  6 40  1  0
  7 41  1  0
  7 42  1  0
  8 43  1  0
 13 44  1  0
 13 45  1  0
 14 46  1  0
 14 47  1  0
 16 48  1  0
 17 49  1  0
 18 50  1  0
 19 51  1  0
 21 52  1  0
 21 53  1  0
 25 54  1  0
 25 55  1  0
 26 56  1  0
 26 57  1  0
 28 58  1  0
 29 59  1  0
 30 60  1  0
 31 61  1  0
 33 62  1  0
 33 63  1  0
 35 64  1  0
M  END
>  <UniqueID>  (14) 
593

>  <SMILES>  (14) 
c1cncc(CCNc2nc(N3CCc4ccccc4C3)nc(N3CCc4ccccc4C3)n2)c1

>  <Energy>  (14) 
72.57102426862981

>  <Genealogy>  (14) 
c1cncc(CCNc2nc(N3CCc4ccccc4C3)nc(N3CCc4ccccc4C3)n2)c1 (3D coordinates assigned)
c1cncc(CCNc2nc(N3CCc4ccccc4C3)nc(N3CCc4ccccc4C3)n2)c1 (nonaromatic ring conformer: 72.57102426862981 kcal/mol)

>  <smiles>  (14) 
c1cncc(CCNc2nc(N3CCc4ccccc4C3)nc(N3CCc4ccccc4C3)n2)c1

>  <score_type>  (14) 
oracle

>  <origin>  (14) 
autodockgpu

>  <m_score__min__energy>  (14) 
-10.68

>  <m_primary>  (14) 
energy

>  <meeko>  (14) 
{"free_energy": -10.49, "intermolecular_energy": -12.28, "internal_energy": -1.21, "cluster_size": 10, "cluster_id": 2, "rank_in_cluster": 2}

>  <energy>  (14) 
-10.34

>  <cluster_rmsd>  (14) 
0.42

>  <rmsd>  (14) 
269.34

>  <cluster>  (14) 
2

$$$$
RCQFLYQWKFFJSS-SREBMQDQNA-N
     RDKit          3D

 64 69  0  0  0  0  0  0  0  0999 V2000
  142.0440   77.3370  217.6540 C   0  0  0  0  0  0  0  0  0  0  0  0
  142.5230   77.8570  218.8560 C   0  0  0  0  0  0  0  0  0  0  0  0
  143.3130   77.0950  219.6620 N   0  0  0  0  0  0  0  0  0  0  0  0
  143.6530   75.8170  219.3330 C   0  0  0  0  0  0  0  0  0  0  0  0
  143.1980   75.2540  218.1280 C   0  0  0  0  0  0  0  0  0  0  0  0
  143.5700   73.8420  217.7460 C   0  0  0  0  0  0  0  0  0  0  0  0
  144.1130   73.0740  218.9630 C   0  0  0  0  0  0  0  0  0  0  0  0
  143.0780   72.2270  219.5630 N   0  0  0  0  0  0  0  0  0  0  0  0
  142.1470   72.7170  220.5360 C   0  0  0  0  0  0  0  0  0  0  0  0
  141.5480   71.8500  221.3910 N   0  0  0  0  0  0  0  0  0  0  0  0
  140.6720   72.3000  222.3270 C   0  0  0  0  0  0  0  0  0  0  0  0
  140.0750   71.3900  223.2700 N   0  0  0  0  0  0  0  0  0  0  0  0
  139.1610   70.3390  222.7790 C   0  0  0  0  0  0  0  0  0  0  0  0
  138.3100   69.7480  223.9060 C   0  0  0  0  0  0  0  0  0  0  0  0
  139.1870   69.3590  225.0590 C   0  0  0  0  0  0  0  0  0  0  0  0
  138.9660   68.1740  225.7790 C   0  0  0  0  0  0  0  0  0  0  0  0
  139.7870   67.8530  226.8660 C   0  0  0  0  0  0  0  0  0  0  0  0
  140.8120   68.7230  227.2510 C   0  0  0  0  0  0  0  0  0  0  0  0
  141.0230   69.9130  226.5490 C   0  0  0  0  0  0  0  0  0  0  0  0
  140.2200   70.2300  225.4410 C   0  0  0  0  0  0  0  0  0  0  0  0
  140.3980   71.5310  224.7040 C   0  0  0  0  0  0  0  0  0  0  0  0
  140.3710   73.6240  222.3750 N   0  0  0  0  0  0  0  0  0  0  0  0
  140.9470   74.4990  221.5110 C   0  0  0  0  0  0  0  0  0  0  0  0
  140.5770   75.8930  221.5300 N   0  0  0  0  0  0  0  0  0  0  0  0
  139.8580   76.4560  220.3750 C   0  0  0  0  0  0  0  0  0  0  0  0
  139.0960   77.7260  220.7490 C   0  0  0  0  0  0  0  0  0  0  0  0
  140.0220   78.6970  221.4180 C   0  0  0  0  0  0  0  0  0  0  0  0
  139.9040   80.0770  221.1840 C   0  0  0  0  0  0  0  0  0  0  0  0
  140.7650   80.9730  221.8250 C   0  0  0  0  0  0  0  0  0  0  0  0
  141.7320   80.4980  222.7160 C   0  0  0  0  0  0  0  0  0  0  0  0
  141.8400   79.1260  222.9680 C   0  0  0  0  0  0  0  0  0  0  0  0
  140.9900   78.2170  222.3170 C   0  0  0  0  0  0  0  0  0  0  0  0
  141.0710   76.7430  222.6330 C   0  0  0  0  0  0  0  0  0  0  0  0
  141.8450   74.0390  220.6010 N   0  0  0  0  0  0  0  0  0  0  0  0
  142.3870   76.0330  217.2860 C   0  0  0  0  0  0  0  0  0  0  0  0
  141.4023   77.9474  217.0016 H   0  0  0  0  0  0  0  0  0  0  0  0
  142.2625   78.8835  219.1533 H   0  0  0  0  0  0  0  0  0  0  0  0
  144.2846   75.2249  220.0116 H   0  0  0  0  0  0  0  0  0  0  0  0
  142.6783   73.3252  217.3615 H   0  0  0  0  0  0  0  0  0  0  0  0
  144.3525   73.8793  216.9738 H   0  0  0  0  0  0  0  0  0  0  0  0
  144.9527   72.4403  218.6414 H   0  0  0  0  0  0  0  0  0  0  0  0
  144.4433   73.8049  219.7158 H   0  0  0  0  0  0  0  0  0  0  0  0
  143.1560   71.1920  219.4330 H   0  0  0  0  0  0  0  0  0  0  0  0
  138.4936   70.7744  222.0207 H   0  0  0  0  0  0  0  0  0  0  0  0
  139.7715   69.5291  222.3532 H   0  0  0  0  0  0  0  0  0  0  0  0
  137.5779   70.4974  224.2414 H   0  0  0  0  0  0  0  0  0  0  0  0
  137.7854   68.8558  223.5334 H   0  0  0  0  0  0  0  0  0  0  0  0
  138.1480   67.4983  225.4889 H   0  0  0  0  0  0  0  0  0  0  0  0
  139.6259   66.9153  227.4181 H   0  0  0  0  0  0  0  0  0  0  0  0
  141.4535   68.4702  228.1081 H   0  0  0  0  0  0  0  0  0  0  0  0
  141.8195   70.6027  226.8649 H   0  0  0  0  0  0  0  0  0  0  0  0
  139.7330   72.2867  225.1474 H   0  0  0  0  0  0  0  0  0  0  0  0
  141.4513   71.8358  224.7919 H   0  0  0  0  0  0  0  0  0  0  0  0
  140.5848   76.6958  219.5849 H   0  0  0  0  0  0  0  0  0  0  0  0
  139.1297   75.7088  220.0267 H   0  0  0  0  0  0  0  0  0  0  0  0
  138.6819   78.1845  219.8389 H   0  0  0  0  0  0  0  0  0  0  0  0
  138.2795   77.4688  221.4397 H   0  0  0  0  0  0  0  0  0  0  0  0
  139.1331   80.4533  220.4955 H   0  0  0  0  0  0  0  0  0  0  0  0
  140.6815   82.0520  221.6282 H   0  0  0  0  0  0  0  0  0  0  0  0
  142.4088   81.2039  223.2196 H   0  0  0  0  0  0  0  0  0  0  0  0
  142.5940   78.7576  223.6792 H   0  0  0  0  0  0  0  0  0  0  0  0
  142.1211   76.4837  222.8333 H   0  0  0  0  0  0  0  0  0  0  0  0
  140.4305   76.5561  223.5076 H   0  0  0  0  0  0  0  0  0  0  0  0
  142.0215   75.6162  216.3359 H   0  0  0  0  0  0  0  0  0  0  0  0
  1  2  2  0
  2  3  1  0
  3  4  2  0
  4  5  1  0
  5  6  1  0
  6  7  1  0
  7  8  1  0
  8  9  1  0
  9 10  2  0
 10 11  1  0
 11 12  1  0
 12 13  1  0
 13 14  1  0
 14 15  1  0
 15 16  2  0
 16 17  1  0
 17 18  2  0
 18 19  1  0
 19 20  2  0
 20 21  1  0
 11 22  2  0
 22 23  1  0
 23 24  1  0
 24 25  1  0
 25 26  1  0
 26 27  1  0
 27 28  2  0
 28 29  1  0
 29 30  2  0
 30 31  1  0
 31 32  2  0
 32 33  1  0
 23 34  2  0
  5 35  2  0
 35  1  1  0
 34  9  1  0
 21 12  1  0
 33 24  1  0
 20 15  1  0
 32 27  1  0
  1 36  1  0
  2 37  1  0
  4 38  1  0
  6 39  1  0
  6 40  1  0
  7 41  1  0
  7 42  1  0
  8 43  1  0
 13 44  1  0
 13 45  1  0
 14 46  1  0
 14 47  1  0
 16 48  1  0
 17 49  1  0
 18 50  1  0
 19 51  1  0
 21 52  1  0
 21 53  1  0
 25 54  1  0
 25 55  1  0
 26 56  1  0
 26 57  1  0
 28 58  1  0
 29 59  1  0
 30 60  1  0
 31 61  1  0
 33 62  1  0
 33 63  1  0
 35 64  1  0
M  END
>  <UniqueID>  (15) 
593

>  <SMILES>  (15) 
c1cncc(CCNc2nc(N3CCc4ccccc4C3)nc(N3CCc4ccccc4C3)n2)c1

>  <Energy>  (15) 
72.57102426862981

>  <Genealogy>  (15) 
c1cncc(CCNc2nc(N3CCc4ccccc4C3)nc(N3CCc4ccccc4C3)n2)c1 (3D coordinates assigned)
c1cncc(CCNc2nc(N3CCc4ccccc4C3)nc(N3CCc4ccccc4C3)n2)c1 (nonaromatic ring conformer: 72.57102426862981 kcal/mol)

>  <smiles>  (15) 
c1cncc(CCNc2nc(N3CCc4ccccc4C3)nc(N3CCc4ccccc4C3)n2)c1

>  <score_type>  (15) 
oracle

>  <origin>  (15) 
autodockgpu

>  <m_score__min__energy>  (15) 
-10.68

>  <m_primary>  (15) 
energy

>  <meeko>  (15) 
{"free_energy": -8.33, "intermolecular_energy": -10.12, "internal_energy": -1.87, "cluster_size": 10, "cluster_id": 2, "rank_in_cluster": 9}

>  <energy>  (15) 
-9.98

>  <cluster_rmsd>  (15) 
0.53

>  <rmsd>  (15) 
269.32

>  <cluster>  (15) 
2

$$$$
RCQFLYQWKFFJSS-SREBMQDQNA-N
     RDKit          3D

 64 69  0  0  0  0  0  0  0  0999 V2000
  142.7410   76.8630  217.5110 C   0  0  0  0  0  0  0  0  0  0  0  0
  142.9960   77.2620  218.8230 C   0  0  0  0  0  0  0  0  0  0  0  0
  143.4540   76.3600  219.7340 N   0  0  0  0  0  0  0  0  0  0  0  0
  143.6690   75.0550  219.4050 C   0  0  0  0  0  0  0  0  0  0  0  0
  143.4310   74.6090  218.0940 C   0  0  0  0  0  0  0  0  0  0  0  0
  143.6700   73.1690  217.7130 C   0  0  0  0  0  0  0  0  0  0  0  0
  143.3040   72.2290  218.8740 C   0  0  0  0  0  0  0  0  0  0  0  0
  141.8560   72.1980  219.0970 N   0  0  0  0  0  0  0  0  0  0  0  0
  141.2560   72.6020  220.3340 C   0  0  0  0  0  0  0  0  0  0  0  0
  140.9570   73.9100  220.5410 N   0  0  0  0  0  0  0  0  0  0  0  0
  140.3770   74.3080  221.7050 C   0  0  0  0  0  0  0  0  0  0  0  0
  140.0120   75.6860  221.9060 N   0  0  0  0  0  0  0  0  0  0  0  0
  138.6590   76.0080  222.4030 C   0  0  0  0  0  0  0  0  0  0  0  0
  138.2960   77.4770  222.1650 C   0  0  0  0  0  0  0  0  0  0  0  0
  139.3990   78.3630  222.6630 C   0  0  0  0  0  0  0  0  0  0  0  0
  139.1260   79.5630  223.3390 C   0  0  0  0  0  0  0  0  0  0  0  0
  140.1780   80.3790  223.7670 C   0  0  0  0  0  0  0  0  0  0  0  0
  141.5010   80.0140  223.5020 C   0  0  0  0  0  0  0  0  0  0  0  0
  141.7780   78.8310  222.8120 C   0  0  0  0  0  0  0  0  0  0  0  0
  140.7280   77.9930  222.4000 C   0  0  0  0  0  0  0  0  0  0  0  0
  141.0030   76.7400  221.6120 C   0  0  0  0  0  0  0  0  0  0  0  0
  140.1330   73.3890  222.6750 N   0  0  0  0  0  0  0  0  0  0  0  0
  140.4470   72.0810  222.4880 C   0  0  0  0  0  0  0  0  0  0  0  0
  140.2380   71.1240  223.5470 N   0  0  0  0  0  0  0  0  0  0  0  0
  139.0620   70.2390  223.4860 C   0  0  0  0  0  0  0  0  0  0  0  0
  139.2560   68.9840  224.3340 C   0  0  0  0  0  0  0  0  0  0  0  0
  139.6540   69.3680  225.7280 C   0  0  0  0  0  0  0  0  0  0  0  0
  139.1790   68.6440  226.8340 C   0  0  0  0  0  0  0  0  0  0  0  0
  139.5690   69.0040  228.1280 C   0  0  0  0  0  0  0  0  0  0  0  0
  140.4490   70.0730  228.3210 C   0  0  0  0  0  0  0  0  0  0  0  0
  140.9410   70.7840  227.2220 C   0  0  0  0  0  0  0  0  0  0  0  0
  140.5430   70.4410  225.9190 C   0  0  0  0  0  0  0  0  0  0  0  0
  141.1190   71.1720  224.7310 C   0  0  0  0  0  0  0  0  0  0  0  0
  140.9970   71.6930  221.3080 N   0  0  0  0  0  0  0  0  0  0  0  0
  142.9650   75.5330  217.1440 C   0  0  0  0  0  0  0  0  0  0  0  0
  142.3674   77.5877  216.7726 H   0  0  0  0  0  0  0  0  0  0  0  0
  142.8268   78.3070  219.1220 H   0  0  0  0  0  0  0  0  0  0  0  0
  144.0297   74.3492  220.1677 H   0  0  0  0  0  0  0  0  0  0  0  0
  143.0511   72.9199  216.8384 H   0  0  0  0  0  0  0  0  0  0  0  0
  144.7365   73.0391  217.4769 H   0  0  0  0  0  0  0  0  0  0  0  0
  143.6518   71.2130  218.6358 H   0  0  0  0  0  0  0  0  0  0  0  0
  143.7885   72.6015  219.7886 H   0  0  0  0  0  0  0  0  0  0  0  0
  141.2660   71.6720  218.4120 H   0  0  0  0  0  0  0  0  0  0  0  0
  137.9283   75.3724  221.8814 H   0  0  0  0  0  0  0  0  0  0  0  0
  138.6424   75.8248  223.4875 H   0  0  0  0  0  0  0  0  0  0  0  0
  138.1501   77.6467  221.0880 H   0  0  0  0  0  0  0  0  0  0  0  0
  137.3689   77.7133  222.7078 H   0  0  0  0  0  0  0  0  0  0  0  0
  138.0849   79.8612  223.5319 H   0  0  0  0  0  0  0  0  0  0  0  0
  139.9640   81.3096  224.3131 H   0  0  0  0  0  0  0  0  0  0  0  0
  142.3260   80.6596  223.8375 H   0  0  0  0  0  0  0  0  0  0  0  0
  142.8197   78.5552  222.5910 H   0  0  0  0  0  0  0  0  0  0  0  0
  140.9642   76.9773  220.5386 H   0  0  0  0  0  0  0  0  0  0  0  0
  141.9980   76.3662  221.8954 H   0  0  0  0  0  0  0  0  0  0  0  0
  138.1834   70.7874  223.8564 H   0  0  0  0  0  0  0  0  0  0  0  0
  138.9202   69.9282  222.4404 H   0  0  0  0  0  0  0  0  0  0  0  0
  138.3143   68.4164  224.3666 H   0  0  0  0  0  0  0  0  0  0  0  0
  140.0479   68.3640  223.8885 H   0  0  0  0  0  0  0  0  0  0  0  0
  138.4993   67.7926  226.6822 H   0  0  0  0  0  0  0  0  0  0  0  0
  139.1833   68.4460  228.9939 H   0  0  0  0  0  0  0  0  0  0  0  0
  140.7549   70.3553  229.3392 H   0  0  0  0  0  0  0  0  0  0  0  0
  141.6432   71.6161  227.3785 H   0  0  0  0  0  0  0  0  0  0  0  0
  141.2771   72.2245  225.0089 H   0  0  0  0  0  0  0  0  0  0  0  0
  142.0625   70.6746  224.4619 H   0  0  0  0  0  0  0  0  0  0  0  0
  142.7761   75.2094  216.1098 H   0  0  0  0  0  0  0  0  0  0  0  0
  1  2  2  0
  2  3  1  0
  3  4  2  0
  4  5  1  0
  5  6  1  0
  6  7  1  0
  7  8  1  0
  8  9  1  0
  9 10  2  0
 10 11  1  0
 11 12  1  0
 12 13  1  0
 13 14  1  0
 14 15  1  0
 15 16  2  0
 16 17  1  0
 17 18  2  0
 18 19  1  0
 19 20  2  0
 20 21  1  0
 11 22  2  0
 22 23  1  0
 23 24  1  0
 24 25  1  0
 25 26  1  0
 26 27  1  0
 27 28  2  0
 28 29  1  0
 29 30  2  0
 30 31  1  0
 31 32  2  0
 32 33  1  0
 23 34  2  0
  5 35  2  0
 35  1  1  0
 34  9  1  0
 21 12  1  0
 33 24  1  0
 20 15  1  0
 32 27  1  0
  1 36  1  0
  2 37  1  0
  4 38  1  0
  6 39  1  0
  6 40  1  0
  7 41  1  0
  7 42  1  0
  8 43  1  0
 13 44  1  0
 13 45  1  0
 14 46  1  0
 14 47  1  0
 16 48  1  0
 17 49  1  0
 18 50  1  0
 19 51  1  0
 21 52  1  0
 21 53  1  0
 25 54  1  0
 25 55  1  0
 26 56  1  0
 26 57  1  0
 28 58  1  0
 29 59  1  0
 30 60  1  0
 31 61  1  0
 33 62  1  0
 33 63  1  0
 35 64  1  0
M  END
>  <UniqueID>  (16) 
593

>  <SMILES>  (16) 
c1cncc(CCNc2nc(N3CCc4ccccc4C3)nc(N3CCc4ccccc4C3)n2)c1

>  <Energy>  (16) 
72.57102426862981

>  <Genealogy>  (16) 
c1cncc(CCNc2nc(N3CCc4ccccc4C3)nc(N3CCc4ccccc4C3)n2)c1 (3D coordinates assigned)
c1cncc(CCNc2nc(N3CCc4ccccc4C3)nc(N3CCc4ccccc4C3)n2)c1 (nonaromatic ring conformer: 72.57102426862981 kcal/mol)

>  <smiles>  (16) 
c1cncc(CCNc2nc(N3CCc4ccccc4C3)nc(N3CCc4ccccc4C3)n2)c1

>  <score_type>  (16) 
oracle

>  <origin>  (16) 
autodockgpu

>  <m_score__min__energy>  (16) 
-10.68

>  <m_primary>  (16) 
energy

>  <meeko>  (16) 
{"free_energy": -9.02, "intermolecular_energy": -10.81, "internal_energy": -1.52, "cluster_size": 10, "cluster_id": 2, "rank_in_cluster": 8}

>  <energy>  (16) 
-9.73

>  <cluster_rmsd>  (16) 
0.96

>  <rmsd>  (16) 
269.1

>  <cluster>  (16) 
2

$$$$
RCQFLYQWKFFJSS-SREBMQDQNA-N
     RDKit          3D

 64 69  0  0  0  0  0  0  0  0999 V2000
  145.2440   73.7580  221.2120 C   0  0  0  0  0  0  0  0  0  0  0  0
  146.3220   73.2510  220.4860 C   0  0  0  0  0  0  0  0  0  0  0  0
  146.1790   72.9670  219.1620 N   0  0  0  0  0  0  0  0  0  0  0  0
  144.9970   73.1560  218.5120 C   0  0  0  0  0  0  0  0  0  0  0  0
  143.8860   73.6710  219.2020 C   0  0  0  0  0  0  0  0  0  0  0  0
  142.5720   73.8930  218.4940 C   0  0  0  0  0  0  0  0  0  0  0  0
  141.9140   72.5500  218.1330 C   0  0  0  0  0  0  0  0  0  0  0  0
  140.6180   72.3950  218.8000 N   0  0  0  0  0  0  0  0  0  0  0  0
  140.3780   72.8560  220.1360 C   0  0  0  0  0  0  0  0  0  0  0  0
  140.2970   74.1880  220.3850 N   0  0  0  0  0  0  0  0  0  0  0  0
  140.0580   74.6400  221.6440 C   0  0  0  0  0  0  0  0  0  0  0  0
  139.9190   76.0500  221.9010 N   0  0  0  0  0  0  0  0  0  0  0  0
  138.6690   76.5540  222.5050 C   0  0  0  0  0  0  0  0  0  0  0  0
  138.5150   78.0660  222.3250 C   0  0  0  0  0  0  0  0  0  0  0  0
  139.7710   78.7620  222.7580 C   0  0  0  0  0  0  0  0  0  0  0  0
  139.7300   79.9680  223.4780 C   0  0  0  0  0  0  0  0  0  0  0  0
  140.9200   80.6050  223.8430 C   0  0  0  0  0  0  0  0  0  0  0  0
  142.1520   80.0560  223.4720 C   0  0  0  0  0  0  0  0  0  0  0  0
  142.1980   78.8670  222.7390 C   0  0  0  0  0  0  0  0  0  0  0  0
  141.0080   78.2080  222.3890 C   0  0  0  0  0  0  0  0  0  0  0  0
  141.0340   76.9540  221.5560 C   0  0  0  0  0  0  0  0  0  0  0  0
  139.9390   73.7470  222.6610 N   0  0  0  0  0  0  0  0  0  0  0  0
  140.0400   72.4130  222.4290 C   0  0  0  0  0  0  0  0  0  0  0  0
  139.9710   71.4760  223.5230 N   0  0  0  0  0  0  0  0  0  0  0  0
  138.9290   70.4340  223.5050 C   0  0  0  0  0  0  0  0  0  0  0  0
  139.2990   69.2520  224.3970 C   0  0  0  0  0  0  0  0  0  0  0  0
  139.6460   69.7380  225.7720 C   0  0  0  0  0  0  0  0  0  0  0  0
  139.2800   68.9980  226.9090 C   0  0  0  0  0  0  0  0  0  0  0  0
  139.6210   69.4560  228.1840 C   0  0  0  0  0  0  0  0  0  0  0  0
  140.3450   70.6430  228.3310 C   0  0  0  0  0  0  0  0  0  0  0  0
  140.7290   71.3740  227.2020 C   0  0  0  0  0  0  0  0  0  0  0  0
  140.3770   70.9300  225.9160 C   0  0  0  0  0  0  0  0  0  0  0  0
  140.8410   71.6900  224.6970 C   0  0  0  0  0  0  0  0  0  0  0  0
  140.2470   71.9740  221.1600 N   0  0  0  0  0  0  0  0  0  0  0  0
  144.0240   73.9740  220.5660 C   0  0  0  0  0  0  0  0  0  0  0  0
  145.3534   73.9855  222.2826 H   0  0  0  0  0  0  0  0  0  0  0  0
  147.2882   73.0805  220.9835 H   0  0  0  0  0  0  0  0  0  0  0  0
  144.9117   72.9050  217.4444 H   0  0  0  0  0  0  0  0  0  0  0  0
  141.8980   74.4595  219.1534 H   0  0  0  0  0  0  0  0  0  0  0  0
  142.7606   74.4544  217.5671 H   0  0  0  0  0  0  0  0  0  0  0  0
  141.7641   72.5058  217.0442 H   0  0  0  0  0  0  0  0  0  0  0  0
  142.5761   71.7380  218.4682 H   0  0  0  0  0  0  0  0  0  0  0  0
  139.9190   71.7490  218.3690 H   0  0  0  0  0  0  0  0  0  0  0  0
  137.8155   76.0506  222.0274 H   0  0  0  0  0  0  0  0  0  0  0  0
  138.7029   76.3417  223.5838 H   0  0  0  0  0  0  0  0  0  0  0  0
  138.3209   78.2893  221.2655 H   0  0  0  0  0  0  0  0  0  0  0  0
  137.6743   78.4202  222.9396 H   0  0  0  0  0  0  0  0  0  0  0  0
  138.7618   80.4109  223.7545 H   0  0  0  0  0  0  0  0  0  0  0  0
  140.8873   81.5392  224.4228 H   0  0  0  0  0  0  0  0  0  0  0  0
  143.0864   80.5612  223.7578 H   0  0  0  0  0  0  0  0  0  0  0  0
  143.1681   78.4464  222.4356 H   0  0  0  0  0  0  0  0  0  0  0  0
  140.9551   77.2291  220.4939 H   0  0  0  0  0  0  0  0  0  0  0  0
  141.9788   76.4273  221.7559 H   0  0  0  0  0  0  0  0  0  0  0  0
  137.9838   70.8685  223.8625 H   0  0  0  0  0  0  0  0  0  0  0  0
  138.8280   70.0670  222.4729 H   0  0  0  0  0  0  0  0  0  0  0  0
  138.4454   68.5610  224.4592 H   0  0  0  0  0  0  0  0  0  0  0  0
  140.1680   68.7325  223.9670 H   0  0  0  0  0  0  0  0  0  0  0  0
  138.7237   68.0559  226.7949 H   0  0  0  0  0  0  0  0  0  0  0  0
  139.3197   68.8823  229.0729 H   0  0  0  0  0  0  0  0  0  0  0  0
  140.6129   71.0024  229.3355 H   0  0  0  0  0  0  0  0  0  0  0  0
  141.3093   72.3008  227.3213 H   0  0  0  0  0  0  0  0  0  0  0  0
  140.8516   72.7638  224.9354 H   0  0  0  0  0  0  0  0  0  0  0  0
  141.8437   71.3194  224.4378 H   0  0  0  0  0  0  0  0  0  0  0  0
  143.1703   74.3821  221.1270 H   0  0  0  0  0  0  0  0  0  0  0  0
  1  2  2  0
  2  3  1  0
  3  4  2  0
  4  5  1  0
  5  6  1  0
  6  7  1  0
  7  8  1  0
  8  9  1  0
  9 10  2  0
 10 11  1  0
 11 12  1  0
 12 13  1  0
 13 14  1  0
 14 15  1  0
 15 16  2  0
 16 17  1  0
 17 18  2  0
 18 19  1  0
 19 20  2  0
 20 21  1  0
 11 22  2  0
 22 23  1  0
 23 24  1  0
 24 25  1  0
 25 26  1  0
 26 27  1  0
 27 28  2  0
 28 29  1  0
 29 30  2  0
 30 31  1  0
 31 32  2  0
 32 33  1  0
 23 34  2  0
  5 35  2  0
 35  1  1  0
 34  9  1  0
 21 12  1  0
 33 24  1  0
 20 15  1  0
 32 27  1  0
  1 36  1  0
  2 37  1  0
  4 38  1  0
  6 39  1  0
  6 40  1  0
  7 41  1  0
  7 42  1  0
  8 43  1  0
 13 44  1  0
 13 45  1  0
 14 46  1  0
 14 47  1  0
 16 48  1  0
 17 49  1  0
 18 50  1  0
 19 51  1  0
 21 52  1  0
 21 53  1  0
 25 54  1  0
 25 55  1  0
 26 56  1  0
 26 57  1  0
 28 58  1  0
 29 59  1  0
 30 60  1  0
 31 61  1  0
 33 62  1  0
 33 63  1  0
 35 64  1  0
M  END
>  <UniqueID>  (17) 
593

>  <SMILES>  (17) 
c1cncc(CCNc2nc(N3CCc4ccccc4C3)nc(N3CCc4ccccc4C3)n2)c1

>  <Energy>  (17) 
72.57102426862981

>  <Genealogy>  (17) 
c1cncc(CCNc2nc(N3CCc4ccccc4C3)nc(N3CCc4ccccc4C3)n2)c1 (3D coordinates assigned)
c1cncc(CCNc2nc(N3CCc4ccccc4C3)nc(N3CCc4ccccc4C3)n2)c1 (nonaromatic ring conformer: 72.57102426862981 kcal/mol)

>  <smiles>  (17) 
c1cncc(CCNc2nc(N3CCc4ccccc4C3)nc(N3CCc4ccccc4C3)n2)c1

>  <score_type>  (17) 
oracle

>  <origin>  (17) 
autodockgpu

>  <m_score__min__energy>  (17) 
-10.68

>  <m_primary>  (17) 
energy

>  <meeko>  (17) 
{"free_energy": -10.59, "intermolecular_energy": -12.38, "internal_energy": -1.27, "cluster_size": 10, "cluster_id": 2, "rank_in_cluster": 1}

>  <energy>  (17) 
-9.33

>  <cluster_rmsd>  (17) 
1.4

>  <rmsd>  (17) 
269.25

>  <cluster>  (17) 
2

$$$$
RCQFLYQWKFFJSS-SREBMQDQNA-N
     RDKit          3D

 64 69  0  0  0  0  0  0  0  0999 V2000
  145.2060   74.1570  220.8990 C   0  0  0  0  0  0  0  0  0  0  0  0
  146.3180   73.4180  220.4930 C   0  0  0  0  0  0  0  0  0  0  0  0
  146.2860   72.7240  219.3230 N   0  0  0  0  0  0  0  0  0  0  0  0
  145.1830   72.7200  218.5210 C   0  0  0  0  0  0  0  0  0  0  0  0
  144.0430   73.4550  218.8860 C   0  0  0  0  0  0  0  0  0  0  0  0
  142.8170   73.4650  218.0070 C   0  0  0  0  0  0  0  0  0  0  0  0
  141.9770   72.1960  218.2270 C   0  0  0  0  0  0  0  0  0  0  0  0
  140.6370   72.5230  218.7220 N   0  0  0  0  0  0  0  0  0  0  0  0
  140.3920   72.9400  220.0710 C   0  0  0  0  0  0  0  0  0  0  0  0
  140.3130   74.2630  220.3630 N   0  0  0  0  0  0  0  0  0  0  0  0
  140.0700   74.6740  221.6350 C   0  0  0  0  0  0  0  0  0  0  0  0
  139.9330   76.0750  221.9380 N   0  0  0  0  0  0  0  0  0  0  0  0
  138.7560   76.5380  222.7000 C   0  0  0  0  0  0  0  0  0  0  0  0
  138.5490   78.0500  222.5740 C   0  0  0  0  0  0  0  0  0  0  0  0
  139.8340   78.7670  222.8660 C   0  0  0  0  0  0  0  0  0  0  0  0
  139.8560   79.9570  223.6110 C   0  0  0  0  0  0  0  0  0  0  0  0
  141.0680   80.6150  223.8430 C   0  0  0  0  0  0  0  0  0  0  0  0
  142.2560   80.1020  223.3130 C   0  0  0  0  0  0  0  0  0  0  0  0
  142.2370   78.9290  222.5540 C   0  0  0  0  0  0  0  0  0  0  0  0
  141.0280   78.2490  222.3370 C   0  0  0  0  0  0  0  0  0  0  0  0
  140.9790   77.0120  221.4800 C   0  0  0  0  0  0  0  0  0  0  0  0
  139.9430   73.7480  222.6220 N   0  0  0  0  0  0  0  0  0  0  0  0
  140.0420   72.4220  222.3460 C   0  0  0  0  0  0  0  0  0  0  0  0
  139.9650   71.4500  223.4080 N   0  0  0  0  0  0  0  0  0  0  0  0
  138.8960   70.4370  223.3720 C   0  0  0  0  0  0  0  0  0  0  0  0
  139.2490   69.2150  224.2170 C   0  0  0  0  0  0  0  0  0  0  0  0
  139.6300   69.6440  225.6020 C   0  0  0  0  0  0  0  0  0  0  0  0
  139.2630   68.8740  226.7180 C   0  0  0  0  0  0  0  0  0  0  0  0
  139.6360   69.2790  228.0030 C   0  0  0  0  0  0  0  0  0  0  0  0
  140.3920   70.4420  228.1780 C   0  0  0  0  0  0  0  0  0  0  0  0
  140.7780   71.2010  227.0680 C   0  0  0  0  0  0  0  0  0  0  0  0
  140.3940   70.8120  225.7740 C   0  0  0  0  0  0  0  0  0  0  0  0
  140.8590   71.6010  224.5740 C   0  0  0  0  0  0  0  0  0  0  0  0
  140.2530   72.0250  221.0640 N   0  0  0  0  0  0  0  0  0  0  0  0
  144.0670   74.1800  220.0890 C   0  0  0  0  0  0  0  0  0  0  0  0
  145.2256   74.7155  221.8465 H   0  0  0  0  0  0  0  0  0  0  0  0
  147.2217   73.3965  221.1197 H   0  0  0  0  0  0  0  0  0  0  0  0
  145.1861   72.1400  217.5863 H   0  0  0  0  0  0  0  0  0  0  0  0
  142.2069   74.3477  218.2490 H   0  0  0  0  0  0  0  0  0  0  0  0
  143.1375   73.4977  216.9552 H   0  0  0  0  0  0  0  0  0  0  0  0
  141.8847   71.6575  217.2723 H   0  0  0  0  0  0  0  0  0  0  0  0
  142.4819   71.5718  218.9790 H   0  0  0  0  0  0  0  0  0  0  0  0
  139.8170   72.2450  218.1350 H   0  0  0  0  0  0  0  0  0  0  0  0
  137.8614   76.0241  222.3184 H   0  0  0  0  0  0  0  0  0  0  0  0
  138.9260   76.3058  223.7617 H   0  0  0  0  0  0  0  0  0  0  0  0
  138.2219   78.2895  221.5514 H   0  0  0  0  0  0  0  0  0  0  0  0
  137.7826   78.3720  223.2944 H   0  0  0  0  0  0  0  0  0  0  0  0
  138.9196   80.3718  224.0123 H   0  0  0  0  0  0  0  0  0  0  0  0
  141.0868   81.5368  224.4429 H   0  0  0  0  0  0  0  0  0  0  0  0
  143.2077   80.6231  223.4940 H   0  0  0  0  0  0  0  0  0  0  0  0
  143.1714   78.5374  222.1255 H   0  0  0  0  0  0  0  0  0  0  0  0
  140.7658   77.3053  220.4415 H   0  0  0  0  0  0  0  0  0  0  0  0
  141.9520   76.5041  221.5526 H   0  0  0  0  0  0  0  0  0  0  0  0
  137.9685   70.8832  223.7601 H   0  0  0  0  0  0  0  0  0  0  0  0
  138.7688   70.1088  222.3298 H   0  0  0  0  0  0  0  0  0  0  0  0
  138.3787   68.5444  224.2695 H   0  0  0  0  0  0  0  0  0  0  0  0
  140.0973   68.6886  223.7551 H   0  0  0  0  0  0  0  0  0  0  0  0
  138.6811   67.9507  226.5806 H   0  0  0  0  0  0  0  0  0  0  0  0
  139.3346   68.6825  228.8767 H   0  0  0  0  0  0  0  0  0  0  0  0
  140.6836   70.7606  229.1896 H   0  0  0  0  0  0  0  0  0  0  0  0
  141.3854   72.1071  227.2093 H   0  0  0  0  0  0  0  0  0  0  0  0
  140.9019   72.6654  224.8484 H   0  0  0  0  0  0  0  0  0  0  0  0
  141.8473   71.2136  224.2858 H   0  0  0  0  0  0  0  0  0  0  0  0
  143.1880   74.7668  220.3941 H   0  0  0  0  0  0  0  0  0  0  0  0
  1  2  2  0
  2  3  1  0
  3  4  2  0
  4  5  1  0
  5  6  1  0
  6  7  1  0
  7  8  1  0
  8  9  1  0
  9 10  2  0
 10 11  1  0
 11 12  1  0
 12 13  1  0
 13 14  1  0
 14 15  1  0
 15 16  2  0
 16 17  1  0
 17 18  2  0
 18 19  1  0
 19 20  2  0
 20 21  1  0
 11 22  2  0
 22 23  1  0
 23 24  1  0
 24 25  1  0
 25 26  1  0
 26 27  1  0
 27 28  2  0
 28 29  1  0
 29 30  2  0
 30 31  1  0
 31 32  2  0
 32 33  1  0
 23 34  2  0
  5 35  2  0
 35  1  1  0
 34  9  1  0
 21 12  1  0
 33 24  1  0
 20 15  1  0
 32 27  1  0
  1 36  1  0
  2 37  1  0
  4 38  1  0
  6 39  1  0
  6 40  1  0
  7 41  1  0
  7 42  1  0
  8 43  1  0
 13 44  1  0
 13 45  1  0
 14 46  1  0
 14 47  1  0
 16 48  1  0
 17 49  1  0
 18 50  1  0
 19 51  1  0
 21 52  1  0
 21 53  1  0
 25 54  1  0
 25 55  1  0
 26 56  1  0
 26 57  1  0
 28 58  1  0
 29 59  1  0
 30 60  1  0
 31 61  1  0
 33 62  1  0
 33 63  1  0
 35 64  1  0
M  END
>  <UniqueID>  (18) 
593

>  <SMILES>  (18) 
c1cncc(CCNc2nc(N3CCc4ccccc4C3)nc(N3CCc4ccccc4C3)n2)c1

>  <Energy>  (18) 
72.57102426862981

>  <Genealogy>  (18) 
c1cncc(CCNc2nc(N3CCc4ccccc4C3)nc(N3CCc4ccccc4C3)n2)c1 (3D coordinates assigned)
c1cncc(CCNc2nc(N3CCc4ccccc4C3)nc(N3CCc4ccccc4C3)n2)c1 (nonaromatic ring conformer: 72.57102426862981 kcal/mol)

>  <smiles>  (18) 
c1cncc(CCNc2nc(N3CCc4ccccc4C3)nc(N3CCc4ccccc4C3)n2)c1

>  <score_type>  (18) 
oracle

>  <origin>  (18) 
autodockgpu

>  <m_score__min__energy>  (18) 
-10.68

>  <m_primary>  (18) 
energy

>  <meeko>  (18) 
{"free_energy": -10.47, "intermolecular_energy": -12.26, "internal_energy": -1.22, "cluster_size": 10, "cluster_id": 2, "rank_in_cluster": 3}

>  <energy>  (18) 
-9.02

>  <cluster_rmsd>  (18) 
1.42

>  <rmsd>  (18) 
269.15

>  <cluster>  (18) 
2

$$$$
RCQFLYQWKFFJSS-SREBMQDQNA-N
     RDKit          3D

 64 69  0  0  0  0  0  0  0  0999 V2000
  144.6490   74.0040  220.8310 C   0  0  0  0  0  0  0  0  0  0  0  0
  145.9850   73.6910  220.5770 C   0  0  0  0  0  0  0  0  0  0  0  0
  146.3210   72.9920  219.4590 N   0  0  0  0  0  0  0  0  0  0  0  0
  145.3810   72.5710  218.5660 C   0  0  0  0  0  0  0  0  0  0  0  0
  144.0240   72.8690  218.7780 C   0  0  0  0  0  0  0  0  0  0  0  0
  142.9710   72.4160  217.7960 C   0  0  0  0  0  0  0  0  0  0  0  0
  141.8840   71.5890  218.5030 C   0  0  0  0  0  0  0  0  0  0  0  0
  140.7220   72.4150  218.8410 N   0  0  0  0  0  0  0  0  0  0  0  0
  140.4500   72.8550  220.1780 C   0  0  0  0  0  0  0  0  0  0  0  0
  140.3500   74.1830  220.4420 N   0  0  0  0  0  0  0  0  0  0  0  0
  140.0810   74.6160  221.7020 C   0  0  0  0  0  0  0  0  0  0  0  0
  139.9220   76.0210  221.9740 N   0  0  0  0  0  0  0  0  0  0  0  0
  138.7230   76.4840  222.7010 C   0  0  0  0  0  0  0  0  0  0  0  0
  138.5030   77.9910  222.5420 C   0  0  0  0  0  0  0  0  0  0  0  0
  139.7730   78.7280  222.8470 C   0  0  0  0  0  0  0  0  0  0  0  0
  139.7650   79.9320  223.5700 C   0  0  0  0  0  0  0  0  0  0  0  0
  140.9640   80.6080  223.8160 C   0  0  0  0  0  0  0  0  0  0  0  0
  142.1700   80.0990  223.3220 C   0  0  0  0  0  0  0  0  0  0  0  0
  142.1800   78.9110  222.5850 C   0  0  0  0  0  0  0  0  0  0  0  0
  140.9840   78.2130  222.3550 C   0  0  0  0  0  0  0  0  0  0  0  0
  140.9670   76.9600  221.5210 C   0  0  0  0  0  0  0  0  0  0  0  0
  139.9490   73.7080  222.7040 N   0  0  0  0  0  0  0  0  0  0  0  0
  140.0680   72.3780  222.4570 C   0  0  0  0  0  0  0  0  0  0  0  0
  139.9860   71.4260  223.5370 N   0  0  0  0  0  0  0  0  0  0  0  0
  138.8540   70.4840  223.5720 C   0  0  0  0  0  0  0  0  0  0  0  0
  139.1720   69.2520  224.4160 C   0  0  0  0  0  0  0  0  0  0  0  0
  139.6520   69.6730  225.7730 C   0  0  0  0  0  0  0  0  0  0  0  0
  139.2960   68.9420  226.9180 C   0  0  0  0  0  0  0  0  0  0  0  0
  139.7610   69.3380  228.1760 C   0  0  0  0  0  0  0  0  0  0  0  0
  140.5980   70.4510  228.2930 C   0  0  0  0  0  0  0  0  0  0  0  0
  140.9730   71.1710  227.1530 C   0  0  0  0  0  0  0  0  0  0  0  0
  140.4970   70.7910  225.8870 C   0  0  0  0  0  0  0  0  0  0  0  0
  140.9480   71.5330  224.6520 C   0  0  0  0  0  0  0  0  0  0  0  0
  140.3060   71.9580  221.1870 N   0  0  0  0  0  0  0  0  0  0  0  0
  143.6660   73.5960  219.9250 C   0  0  0  0  0  0  0  0  0  0  0  0
  144.3723   74.5661  221.7351 H   0  0  0  0  0  0  0  0  0  0  0  0
  146.7674   74.0098  221.2814 H   0  0  0  0  0  0  0  0  0  0  0  0
  145.6850   71.9972  217.6781 H   0  0  0  0  0  0  0  0  0  0  0  0
  142.5074   73.2989  217.3316 H   0  0  0  0  0  0  0  0  0  0  0  0
  143.4499   71.7876  217.0307 H   0  0  0  0  0  0  0  0  0  0  0  0
  141.5631   70.7747  217.8366 H   0  0  0  0  0  0  0  0  0  0  0  0
  142.3061   71.1856  219.4352 H   0  0  0  0  0  0  0  0  0  0  0  0
  139.9640   72.5090  218.1270 H   0  0  0  0  0  0  0  0  0  0  0  0
  137.8429   75.9532  222.3091 H   0  0  0  0  0  0  0  0  0  0  0  0
  138.8710   76.2729  223.7704 H   0  0  0  0  0  0  0  0  0  0  0  0
  138.1951   78.2075  221.5084 H   0  0  0  0  0  0  0  0  0  0  0  0
  137.7184   78.3178  223.2403 H   0  0  0  0  0  0  0  0  0  0  0  0
  138.8153   80.3433  223.9428 H   0  0  0  0  0  0  0  0  0  0  0  0
  140.9591   81.5411  224.3986 H   0  0  0  0  0  0  0  0  0  0  0  0
  143.1116   80.6343  223.5138 H   0  0  0  0  0  0  0  0  0  0  0  0
  143.1277   78.5222  222.1842 H   0  0  0  0  0  0  0  0  0  0  0  0
  140.7733   77.2313  220.4727 H   0  0  0  0  0  0  0  0  0  0  0  0
  141.9436   76.4644  221.6240 H   0  0  0  0  0  0  0  0  0  0  0  0
  137.9787   70.9939  224.0008 H   0  0  0  0  0  0  0  0  0  0  0  0
  138.6513   70.1523  222.5430 H   0  0  0  0  0  0  0  0  0  0  0  0
  138.2646   68.6396  224.5239 H   0  0  0  0  0  0  0  0  0  0  0  0
  139.9592   68.6659  223.9191 H   0  0  0  0  0  0  0  0  0  0  0  0
  138.6502   68.0563  226.8252 H   0  0  0  0  0  0  0  0  0  0  0  0
  139.4680   68.7734  229.0734 H   0  0  0  0  0  0  0  0  0  0  0  0
  140.9628   70.7618  229.2831 H   0  0  0  0  0  0  0  0  0  0  0  0
  141.6432   72.0380  227.2486 H   0  0  0  0  0  0  0  0  0  0  0  0
  141.0739   72.5956  224.9068 H   0  0  0  0  0  0  0  0  0  0  0  0
  141.8928   71.0785  224.3191 H   0  0  0  0  0  0  0  0  0  0  0  0
  142.6107   73.8446  220.1106 H   0  0  0  0  0  0  0  0  0  0  0  0
  1  2  2  0
  2  3  1  0
  3  4  2  0
  4  5  1  0
  5  6  1  0
  6  7  1  0
  7  8  1  0
  8  9  1  0
  9 10  2  0
 10 11  1  0
 11 12  1  0
 12 13  1  0
 13 14  1  0
 14 15  1  0
 15 16  2  0
 16 17  1  0
 17 18  2  0
 18 19  1  0
 19 20  2  0
 20 21  1  0
 11 22  2  0
 22 23  1  0
 23 24  1  0
 24 25  1  0
 25 26  1  0
 26 27  1  0
 27 28  2  0
 28 29  1  0
 29 30  2  0
 30 31  1  0
 31 32  2  0
 32 33  1  0
 23 34  2  0
  5 35  2  0
 35  1  1  0
 34  9  1  0
 21 12  1  0
 33 24  1  0
 20 15  1  0
 32 27  1  0
  1 36  1  0
  2 37  1  0
  4 38  1  0
  6 39  1  0
  6 40  1  0
  7 41  1  0
  7 42  1  0
  8 43  1  0
 13 44  1  0
 13 45  1  0
 14 46  1  0
 14 47  1  0
 16 48  1  0
 17 49  1  0
 18 50  1  0
 19 51  1  0
 21 52  1  0
 21 53  1  0
 25 54  1  0
 25 55  1  0
 26 56  1  0
 26 57  1  0
 28 58  1  0
 29 59  1  0
 30 60  1  0
 31 61  1  0
 33 62  1  0
 33 63  1  0
 35 64  1  0
M  END
>  <UniqueID>  (19) 
593

>  <SMILES>  (19) 
c1cncc(CCNc2nc(N3CCc4ccccc4C3)nc(N3CCc4ccccc4C3)n2)c1

>  <Energy>  (19) 
72.57102426862981

>  <Genealogy>  (19) 
c1cncc(CCNc2nc(N3CCc4ccccc4C3)nc(N3CCc4ccccc4C3)n2)c1 (3D coordinates assigned)
c1cncc(CCNc2nc(N3CCc4ccccc4C3)nc(N3CCc4ccccc4C3)n2)c1 (nonaromatic ring conformer: 72.57102426862981 kcal/mol)

>  <smiles>  (19) 
c1cncc(CCNc2nc(N3CCc4ccccc4C3)nc(N3CCc4ccccc4C3)n2)c1

>  <score_type>  (19) 
oracle

>  <origin>  (19) 
autodockgpu

>  <m_score__min__energy>  (19) 
-10.68

>  <m_primary>  (19) 
energy

>  <meeko>  (19) 
{"free_energy": -10.34, "intermolecular_energy": -12.13, "internal_energy": -1.22, "cluster_size": 10, "cluster_id": 2, "rank_in_cluster": 4}

>  <energy>  (19) 
-8.33

>  <cluster_rmsd>  (19) 
1.94

>  <rmsd>  (19) 
269.01

>  <cluster>  (19) 
2

$$$$
RCQFLYQWKFFJSS-SREBMQDQNA-N
     RDKit          3D

 64 69  0  0  0  0  0  0  0  0999 V2000
  144.9370   73.7570  221.1770 C   0  0  0  0  0  0  0  0  0  0  0  0
  146.1480   73.0650  221.1320 C   0  0  0  0  0  0  0  0  0  0  0  0
  146.4080   72.2130  220.1030 N   0  0  0  0  0  0  0  0  0  0  0  0
  145.5080   72.0020  219.1010 C   0  0  0  0  0  0  0  0  0  0  0  0
  144.2790   72.6820  219.1020 C   0  0  0  0  0  0  0  0  0  0  0  0
  143.2750   72.4650  217.9970 C   0  0  0  0  0  0  0  0  0  0  0  0
  142.1210   71.5680  218.4770 C   0  0  0  0  0  0  0  0  0  0  0  0
  140.9160   72.3550  218.7570 N   0  0  0  0  0  0  0  0  0  0  0  0
  140.5750   72.8020  220.0760 C   0  0  0  0  0  0  0  0  0  0  0  0
  140.4420   74.1300  220.3220 N   0  0  0  0  0  0  0  0  0  0  0  0
  140.1070   74.5690  221.5650 C   0  0  0  0  0  0  0  0  0  0  0  0
  139.9140   75.9730  221.8170 N   0  0  0  0  0  0  0  0  0  0  0  0
  138.6280   76.4350  222.3760 C   0  0  0  0  0  0  0  0  0  0  0  0
  138.4310   77.9430  222.1920 C   0  0  0  0  0  0  0  0  0  0  0  0
  139.6480   78.6780  222.6680 C   0  0  0  0  0  0  0  0  0  0  0  0
  139.5430   79.8810  223.3860 C   0  0  0  0  0  0  0  0  0  0  0  0
  140.6980   80.5560  223.7930 C   0  0  0  0  0  0  0  0  0  0  0  0
  141.9590   80.0470  223.4650 C   0  0  0  0  0  0  0  0  0  0  0  0
  142.0690   78.8610  222.7340 C   0  0  0  0  0  0  0  0  0  0  0  0
  140.9140   78.1650  222.3430 C   0  0  0  0  0  0  0  0  0  0  0  0
  141.0100   76.9130  221.5110 C   0  0  0  0  0  0  0  0  0  0  0  0
  139.9440   73.6670  222.5680 N   0  0  0  0  0  0  0  0  0  0  0  0
  140.0960   72.3370  222.3390 C   0  0  0  0  0  0  0  0  0  0  0  0
  139.9790   71.3930  223.4220 N   0  0  0  0  0  0  0  0  0  0  0  0
  138.8400   70.4600  223.4350 C   0  0  0  0  0  0  0  0  0  0  0  0
  139.1270   69.2310  224.2950 C   0  0  0  0  0  0  0  0  0  0  0  0
  139.5750   69.6580  225.6610 C   0  0  0  0  0  0  0  0  0  0  0  0
  139.1850   68.9370  226.8010 C   0  0  0  0  0  0  0  0  0  0  0  0
  139.6210   69.3380  228.0670 C   0  0  0  0  0  0  0  0  0  0  0  0
  140.4630   70.4460  228.1990 C   0  0  0  0  0  0  0  0  0  0  0  0
  140.8720   71.1550  227.0640 C   0  0  0  0  0  0  0  0  0  0  0  0
  140.4260   70.7700  225.7890 C   0  0  0  0  0  0  0  0  0  0  0  0
  140.9130   71.5010  224.5610 C   0  0  0  0  0  0  0  0  0  0  0  0
  140.3990   71.9110  221.0850 N   0  0  0  0  0  0  0  0  0  0  0  0
  144.0020   73.5690  220.1560 C   0  0  0  0  0  0  0  0  0  0  0  0
  144.7206   74.4440  222.0084 H   0  0  0  0  0  0  0  0  0  0  0  0
  146.8929   73.2082  221.9287 H   0  0  0  0  0  0  0  0  0  0  0  0
  145.7448   71.2977  218.2899 H   0  0  0  0  0  0  0  0  0  0  0  0
  142.8690   73.4377  217.6823 H   0  0  0  0  0  0  0  0  0  0  0  0
  143.7794   71.9702  217.1539 H   0  0  0  0  0  0  0  0  0  0  0  0
  141.8926   70.8288  217.6951 H   0  0  0  0  0  0  0  0  0  0  0  0
  142.4329   71.0680  219.4058 H   0  0  0  0  0  0  0  0  0  0  0  0
  140.1840   72.4120  218.0130 H   0  0  0  0  0  0  0  0  0  0  0  0
  137.8090   75.9052  221.8676 H   0  0  0  0  0  0  0  0  0  0  0  0
  138.6304   76.2218  223.4551 H   0  0  0  0  0  0  0  0  0  0  0  0
  138.2659   78.1620  221.1267 H   0  0  0  0  0  0  0  0  0  0  0  0
  137.5588   78.2686  222.7779 H   0  0  0  0  0  0  0  0  0  0  0  0
  138.5518   80.2921  223.6281 H   0  0  0  0  0  0  0  0  0  0  0  0
  140.6149   81.4879  224.3715 H   0  0  0  0  0  0  0  0  0  0  0  0
  142.8662   80.5815  223.7832 H   0  0  0  0  0  0  0  0  0  0  0  0
  143.0621   78.4722  222.4645 H   0  0  0  0  0  0  0  0  0  0  0  0
  140.9591   77.1866  220.4468 H   0  0  0  0  0  0  0  0  0  0  0  0
  141.9640   76.4172  221.7435 H   0  0  0  0  0  0  0  0  0  0  0  0
  137.9582   70.9794  223.8383 H   0  0  0  0  0  0  0  0  0  0  0  0
  138.6609   70.1227  222.4034 H   0  0  0  0  0  0  0  0  0  0  0  0
  138.2126   68.6260  224.3835 H   0  0  0  0  0  0  0  0  0  0  0  0
  139.9221   68.6357  223.8224 H   0  0  0  0  0  0  0  0  0  0  0  0
  138.5354   68.0553  226.6976 H   0  0  0  0  0  0  0  0  0  0  0  0
  139.3013   68.7812  228.9602 H   0  0  0  0  0  0  0  0  0  0  0  0
  140.8044   70.7609  229.1961 H   0  0  0  0  0  0  0  0  0  0  0  0
  141.5459   72.0178  227.1708 H   0  0  0  0  0  0  0  0  0  0  0  0
  141.0393   72.5645  224.8122 H   0  0  0  0  0  0  0  0  0  0  0  0
  141.8628   71.0380  224.2552 H   0  0  0  0  0  0  0  0  0  0  0  0
  143.0479   74.1160  220.1773 H   0  0  0  0  0  0  0  0  0  0  0  0
  1  2  2  0
  2  3  1  0
  3  4  2  0
  4  5  1  0
  5  6  1  0
  6  7  1  0
  7  8  1  0
  8  9  1  0
  9 10  2  0
 10 11  1  0
 11 12  1  0
 12 13  1  0
 13 14  1  0
 14 15  1  0
 15 16  2  0
 16 17  1  0
 17 18  2  0
 18 19  1  0
 19 20  2  0
 20 21  1  0
 11 22  2  0
 22 23  1  0
 23 24  1  0
 24 25  1  0
 25 26  1  0
 26 27  1  0
 27 28  2  0
 28 29  1  0
 29 30  2  0
 30 31  1  0
 31 32  2  0
 32 33  1  0
 23 34  2  0
  5 35  2  0
 35  1  1  0
 34  9  1  0
 21 12  1  0
 33 24  1  0
 20 15  1  0
 32 27  1  0
  1 36  1  0
  2 37  1  0
  4 38  1  0
  6 39  1  0
  6 40  1  0
  7 41  1  0
  7 42  1  0
  8 43  1  0
 13 44  1  0
 13 45  1  0
 14 46  1  0
 14 47  1  0
 16 48  1  0
 17 49  1  0
 18 50  1  0
 19 51  1  0
 21 52  1  0
 21 53  1  0
 25 54  1  0
 25 55  1  0
 26 56  1  0
 26 57  1  0
 28 58  1  0
 29 59  1  0
 30 60  1  0
 31 61  1  0
 33 62  1  0
 33 63  1  0
 35 64  1  0
M  END
>  <UniqueID>  (20) 
593

>  <SMILES>  (20) 
c1cncc(CCNc2nc(N3CCc4ccccc4C3)nc(N3CCc4ccccc4C3)n2)c1

>  <Energy>  (20) 
72.57102426862981

>  <Genealogy>  (20) 
c1cncc(CCNc2nc(N3CCc4ccccc4C3)nc(N3CCc4ccccc4C3)n2)c1 (3D coordinates assigned)
c1cncc(CCNc2nc(N3CCc4ccccc4C3)nc(N3CCc4ccccc4C3)n2)c1 (nonaromatic ring conformer: 72.57102426862981 kcal/mol)

>  <smiles>  (20) 
c1cncc(CCNc2nc(N3CCc4ccccc4C3)nc(N3CCc4ccccc4C3)n2)c1

>  <score_type>  (20) 
oracle

>  <origin>  (20) 
autodockgpu

>  <m_score__min__energy>  (20) 
-10.68

>  <m_primary>  (20) 
energy

>  <meeko>  (20) 
{"free_energy": -9.98, "intermolecular_energy": -11.77, "internal_energy": -1.22, "cluster_size": 10, "cluster_id": 2, "rank_in_cluster": 5}

>  <energy>  (20) 
-8.12

>  <cluster_rmsd>  (20) 
1.58

>  <rmsd>  (20) 
268.95

>  <cluster>  (20) 
2

$$$$
RCQFLYQWKFFJSS-SREBMQDQNA-N
     RDKit          3D

 64 69  0  0  0  0  0  0  0  0999 V2000
  141.0550   70.9510  228.2600 C   0  0  0  0  0  0  0  0  0  0  0  0
  140.9390   69.5630  228.3370 C   0  0  0  0  0  0  0  0  0  0  0  0
  140.7230   68.8320  227.2090 N   0  0  0  0  0  0  0  0  0  0  0  0
  140.6070   69.4200  225.9850 C   0  0  0  0  0  0  0  0  0  0  0  0
  140.7230   70.8150  225.8590 C   0  0  0  0  0  0  0  0  0  0  0  0
  140.6020   71.4810  224.5100 C   0  0  0  0  0  0  0  0  0  0  0  0
  139.1380   71.4940  224.0370 C   0  0  0  0  0  0  0  0  0  0  0  0
  139.0180   72.0660  222.6930 N   0  0  0  0  0  0  0  0  0  0  0  0
  140.1060   72.7280  222.0360 C   0  0  0  0  0  0  0  0  0  0  0  0
  141.1050   71.9930  221.4840 N   0  0  0  0  0  0  0  0  0  0  0  0
  142.1380   72.6050  220.8460 C   0  0  0  0  0  0  0  0  0  0  0  0
  143.1720   71.8280  220.2140 N   0  0  0  0  0  0  0  0  0  0  0  0
  144.5660   72.3130  220.2520 C   0  0  0  0  0  0  0  0  0  0  0  0
  145.4440   71.6180  219.2080 C   0  0  0  0  0  0  0  0  0  0  0  0
  145.2710   70.1320  219.3030 C   0  0  0  0  0  0  0  0  0  0  0  0
  146.3630   69.2580  219.1740 C   0  0  0  0  0  0  0  0  0  0  0  0
  146.1640   67.8750  219.2430 C   0  0  0  0  0  0  0  0  0  0  0  0
  144.8760   67.3600  219.4150 C   0  0  0  0  0  0  0  0  0  0  0  0
  143.7830   68.2250  219.5240 C   0  0  0  0  0  0  0  0  0  0  0  0
  143.9770   69.6150  219.4820 C   0  0  0  0  0  0  0  0  0  0  0  0
  142.8080   70.5620  219.5470 C   0  0  0  0  0  0  0  0  0  0  0  0
  142.1810   73.9630  220.7990 N   0  0  0  0  0  0  0  0  0  0  0  0
  141.1990   74.7090  221.3660 C   0  0  0  0  0  0  0  0  0  0  0  0
  141.2830   76.1480  221.3620 N   0  0  0  0  0  0  0  0  0  0  0  0
  141.9110   76.8230  220.2130 C   0  0  0  0  0  0  0  0  0  0  0  0
  141.4640   78.2790  220.1010 C   0  0  0  0  0  0  0  0  0  0  0  0
  141.6810   78.9810  221.4070 C   0  0  0  0  0  0  0  0  0  0  0  0
  142.1070   80.3190  221.4400 C   0  0  0  0  0  0  0  0  0  0  0  0
  142.2930   80.9660  222.6650 C   0  0  0  0  0  0  0  0  0  0  0  0
  142.0350   80.2890  223.8610 C   0  0  0  0  0  0  0  0  0  0  0  0
  141.5910   78.9620  223.8330 C   0  0  0  0  0  0  0  0  0  0  0  0
  141.4170   78.2980  222.6080 C   0  0  0  0  0  0  0  0  0  0  0  0
  140.8840   76.8860  222.5780 C   0  0  0  0  0  0  0  0  0  0  0  0
  140.1560   74.0830  221.9720 N   0  0  0  0  0  0  0  0  0  0  0  0
  140.9520   71.5780  227.0160 C   0  0  0  0  0  0  0  0  0  0  0  0
  141.2258   71.5456  229.1695 H   0  0  0  0  0  0  0  0  0  0  0  0
  141.0222   69.0583  229.3108 H   0  0  0  0  0  0  0  0  0  0  0  0
  140.4222   68.8017  225.0942 H   0  0  0  0  0  0  0  0  0  0  0  0
  140.9661   72.5163  224.5849 H   0  0  0  0  0  0  0  0  0  0  0  0
  141.2028   70.9158  223.7823 H   0  0  0  0  0  0  0  0  0  0  0  0
  138.7568   70.4623  224.0227 H   0  0  0  0  0  0  0  0  0  0  0  0
  138.5539   72.1149  224.7322 H   0  0  0  0  0  0  0  0  0  0  0  0
  138.0590   72.1770  222.2920 H   0  0  0  0  0  0  0  0  0  0  0  0
  144.5708   73.3954  220.0562 H   0  0  0  0  0  0  0  0  0  0  0  0
  144.9774   72.0866  221.2467 H   0  0  0  0  0  0  0  0  0  0  0  0
  145.1518   71.9556  218.2027 H   0  0  0  0  0  0  0  0  0  0  0  0
  146.4979   71.8724  219.3941 H   0  0  0  0  0  0  0  0  0  0  0  0
  147.3747   69.6610  219.0187 H   0  0  0  0  0  0  0  0  0  0  0  0
  147.0223   67.1919  219.1618 H   0  0  0  0  0  0  0  0  0  0  0  0
  144.7220   66.2720  219.4647 H   0  0  0  0  0  0  0  0  0  0  0  0
  142.7689   67.8157  219.6429 H   0  0  0  0  0  0  0  0  0  0  0  0
  142.4691   70.7819  218.5239 H   0  0  0  0  0  0  0  0  0  0  0  0
  142.0082   70.0826  220.1306 H   0  0  0  0  0  0  0  0  0  0  0  0
  143.0037   76.7938  220.3358 H   0  0  0  0  0  0  0  0  0  0  0  0
  141.6036   76.2981  219.2965 H   0  0  0  0  0  0  0  0  0  0  0  0
  142.0486   78.7806  219.3157 H   0  0  0  0  0  0  0  0  0  0  0  0
  140.3944   78.3109  219.8460 H   0  0  0  0  0  0  0  0  0  0  0  0
  142.2946   80.8587  220.5001 H   0  0  0  0  0  0  0  0  0  0  0  0
  142.6427   82.0087  222.6882 H   0  0  0  0  0  0  0  0  0  0  0  0
  142.1811   80.7996  224.8243 H   0  0  0  0  0  0  0  0  0  0  0  0
  141.3773   78.4365  224.7754 H   0  0  0  0  0  0  0  0  0  0  0  0
  141.2669   76.3473  223.4573 H   0  0  0  0  0  0  0  0  0  0  0  0
  139.7857   76.9470  222.5824 H   0  0  0  0  0  0  0  0  0  0  0  0
  141.0504   72.6711  226.9423 H   0  0  0  0  0  0  0  0  0  0  0  0
  1  2  2  0
  2  3  1  0
  3  4  2  0
  4  5  1  0
  5  6  1  0
  6  7  1  0
  7  8  1  0
  8  9  1  0
  9 10  2  0
 10 11  1  0
 11 12  1  0
 12 13  1  0
 13 14  1  0
 14 15  1  0
 15 16  2  0
 16 17  1  0
 17 18  2  0
 18 19  1  0
 19 20  2  0
 20 21  1  0
 11 22  2  0
 22 23  1  0
 23 24  1  0
 24 25  1  0
 25 26  1  0
 26 27  1  0
 27 28  2  0
 28 29  1  0
 29 30  2  0
 30 31  1  0
 31 32  2  0
 32 33  1  0
 23 34  2  0
  5 35  2  0
 35  1  1  0
 34  9  1  0
 21 12  1  0
 33 24  1  0
 20 15  1  0
 32 27  1  0
  1 36  1  0
  2 37  1  0
  4 38  1  0
  6 39  1  0
  6 40  1  0
  7 41  1  0
  7 42  1  0
  8 43  1  0
 13 44  1  0
 13 45  1  0
 14 46  1  0
 14 47  1  0
 16 48  1  0
 17 49  1  0
 18 50  1  0
 19 51  1  0
 21 52  1  0
 21 53  1  0
 25 54  1  0
 25 55  1  0
 26 56  1  0
 26 57  1  0
 28 58  1  0
 29 59  1  0
 30 60  1  0
 31 61  1  0
 33 62  1  0
 33 63  1  0
 35 64  1  0
M  END
>  <UniqueID>  (21) 
594

>  <SMILES>  (21) 
c1cncc(CCNc2nc(N3CCc4ccccc4C3)nc(N3CCc4ccccc4C3)n2)c1

>  <Energy>  (21) 
72.72591798484763

>  <Genealogy>  (21) 
c1cncc(CCNc2nc(N3CCc4ccccc4C3)nc(N3CCc4ccccc4C3)n2)c1 (3D coordinates assigned)
c1cncc(CCNc2nc(N3CCc4ccccc4C3)nc(N3CCc4ccccc4C3)n2)c1 (nonaromatic ring conformer: 72.72591798484763 kcal/mol)

>  <smiles>  (21) 
c1cncc(CCNc2nc(N3CCc4ccccc4C3)nc(N3CCc4ccccc4C3)n2)c1

>  <score_type>  (21) 
oracle

>  <origin>  (21) 
autodockgpu

>  <m_score__min__energy>  (21) 
-10.68

>  <m_primary>  (21) 
energy

>  <meeko>  (21) 
{"free_energy": -10.68, "intermolecular_energy": -12.47, "internal_energy": -0.93, "cluster_size": 10, "cluster_id": 1, "rank_in_cluster": 1}

>  <energy>  (21) 
-10.68

>  <cluster_rmsd>  (21) 
0.0

>  <rmsd>  (21) 
269.53

>  <cluster>  (21) 
1

$$$$
RCQFLYQWKFFJSS-SREBMQDQNA-N
     RDKit          3D

 64 69  0  0  0  0  0  0  0  0999 V2000
  146.3000   72.8270  221.0310 C   0  0  0  0  0  0  0  0  0  0  0  0
  145.8510   74.1330  221.2270 C   0  0  0  0  0  0  0  0  0  0  0  0
  144.9020   74.6590  220.4040 N   0  0  0  0  0  0  0  0  0  0  0  0
  144.3710   73.9440  219.3730 C   0  0  0  0  0  0  0  0  0  0  0  0
  144.7880   72.6220  219.1420 C   0  0  0  0  0  0  0  0  0  0  0  0
  144.2050   71.8150  218.0080 C   0  0  0  0  0  0  0  0  0  0  0  0
  142.9630   71.0370  218.4760 C   0  0  0  0  0  0  0  0  0  0  0  0
  141.7880   71.9080  218.5570 N   0  0  0  0  0  0  0  0  0  0  0  0
  141.4060   72.5790  219.7650 C   0  0  0  0  0  0  0  0  0  0  0  0
  140.8630   71.8690  220.7860 N   0  0  0  0  0  0  0  0  0  0  0  0
  140.5060   72.4890  221.9420 C   0  0  0  0  0  0  0  0  0  0  0  0
  139.9790   71.7310  223.0470 N   0  0  0  0  0  0  0  0  0  0  0  0
  138.7930   70.8760  222.8350 C   0  0  0  0  0  0  0  0  0  0  0  0
  138.1250   70.4850  224.1560 C   0  0  0  0  0  0  0  0  0  0  0  0
  139.1520   69.9460  225.1070 C   0  0  0  0  0  0  0  0  0  0  0  0
  138.8800   68.8410  225.9290 C   0  0  0  0  0  0  0  0  0  0  0  0
  139.8500   68.3790  226.8240 C   0  0  0  0  0  0  0  0  0  0  0  0
  141.0830   69.0320  226.9190 C   0  0  0  0  0  0  0  0  0  0  0  0
  141.3520   70.1440  226.1170 C   0  0  0  0  0  0  0  0  0  0  0  0
  140.3920   70.5990  225.1980 C   0  0  0  0  0  0  0  0  0  0  0  0
  140.6420   71.8260  224.3620 C   0  0  0  0  0  0  0  0  0  0  0  0
  140.6640   73.8340  222.0530 N   0  0  0  0  0  0  0  0  0  0  0  0
  141.1870   74.5580  221.0300 C   0  0  0  0  0  0  0  0  0  0  0  0
  141.2950   75.9930  221.1340 N   0  0  0  0  0  0  0  0  0  0  0  0
  142.0140   76.7310  220.0810 C   0  0  0  0  0  0  0  0  0  0  0  0
  141.6010   78.2010  220.0420 C   0  0  0  0  0  0  0  0  0  0  0  0
  141.7370   78.8060  221.4070 C   0  0  0  0  0  0  0  0  0  0  0  0
  142.1820   80.1290  221.5640 C   0  0  0  0  0  0  0  0  0  0  0  0
  142.2910   80.6850  222.8420 C   0  0  0  0  0  0  0  0  0  0  0  0
  141.9380   79.9320  223.9650 C   0  0  0  0  0  0  0  0  0  0  0  0
  141.4750   78.6200  223.8130 C   0  0  0  0  0  0  0  0  0  0  0  0
  141.3770   78.0470  222.5350 C   0  0  0  0  0  0  0  0  0  0  0  0
  140.8240   76.6520  222.3680 C   0  0  0  0  0  0  0  0  0  0  0  0
  141.5680   73.9210  219.8920 N   0  0  0  0  0  0  0  0  0  0  0  0
  145.7620   72.0670  219.9890 C   0  0  0  0  0  0  0  0  0  0  0  0
  147.0700   72.3996  221.6901 H   0  0  0  0  0  0  0  0  0  0  0  0
  146.2639   74.7387  222.0472 H   0  0  0  0  0  0  0  0  0  0  0  0
  143.6140   74.4026  218.7198 H   0  0  0  0  0  0  0  0  0  0  0  0
  143.9190   72.4942  217.1913 H   0  0  0  0  0  0  0  0  0  0  0  0
  144.9617   71.0965  217.6599 H   0  0  0  0  0  0  0  0  0  0  0  0
  142.7587   70.2254  217.7622 H   0  0  0  0  0  0  0  0  0  0  0  0
  143.1646   70.6322  219.4787 H   0  0  0  0  0  0  0  0  0  0  0  0
  141.0960   71.8720  217.7740 H   0  0  0  0  0  0  0  0  0  0  0  0
  138.0658   71.4239  222.2177 H   0  0  0  0  0  0  0  0  0  0  0  0
  139.1238   69.9536  222.3352 H   0  0  0  0  0  0  0  0  0  0  0  0
  137.6468   71.3709  224.5992 H   0  0  0  0  0  0  0  0  0  0  0  0
  137.3675   69.7108  223.9638 H   0  0  0  0  0  0  0  0  0  0  0  0
  137.9034   68.3384  225.8690 H   0  0  0  0  0  0  0  0  0  0  0  0
  139.6430   67.5012  227.4538 H   0  0  0  0  0  0  0  0  0  0  0  0
  141.8429   68.6693  227.6268 H   0  0  0  0  0  0  0  0  0  0  0  0
  142.3173   70.6641  226.2054 H   0  0  0  0  0  0  0  0  0  0  0  0
  140.2536   72.7064  224.8949 H   0  0  0  0  0  0  0  0  0  0  0  0
  141.7257   71.9143  224.1956 H   0  0  0  0  0  0  0  0  0  0  0  0
  143.0948   76.6690  220.2762 H   0  0  0  0  0  0  0  0  0  0  0  0
  141.7632   76.2775  219.1107 H   0  0  0  0  0  0  0  0  0  0  0  0
  142.2482   78.7430  219.3368 H   0  0  0  0  0  0  0  0  0  0  0  0
  140.5528   78.2740  219.7165 H   0  0  0  0  0  0  0  0  0  0  0  0
  142.4451   80.7285  220.6800 H   0  0  0  0  0  0  0  0  0  0  0  0
  142.6549   81.7159  222.9637 H   0  0  0  0  0  0  0  0  0  0  0  0
  142.0242   80.3711  224.9699 H   0  0  0  0  0  0  0  0  0  0  0  0
  141.1866   78.0351  224.6988 H   0  0  0  0  0  0  0  0  0  0  0  0
  141.1351   76.0451  223.2311 H   0  0  0  0  0  0  0  0  0  0  0  0
  139.7293   76.7359  222.3010 H   0  0  0  0  0  0  0  0  0  0  0  0
  146.1016   71.0326  219.8316 H   0  0  0  0  0  0  0  0  0  0  0  0
  1  2  2  0
  2  3  1  0
  3  4  2  0
  4  5  1  0
  5  6  1  0
  6  7  1  0
  7  8  1  0
  8  9  1  0
  9 10  2  0
 10 11  1  0
 11 12  1  0
 12 13  1  0
 13 14  1  0
 14 15  1  0
 15 16  2  0
 16 17  1  0
 17 18  2  0
 18 19  1  0
 19 20  2  0
 20 21  1  0
 11 22  2  0
 22 23  1  0
 23 24  1  0
 24 25  1  0
 25 26  1  0
 26 27  1  0
 27 28  2  0
 28 29  1  0
 29 30  2  0
 30 31  1  0
 31 32  2  0
 32 33  1  0
 23 34  2  0
  5 35  2  0
 35  1  1  0
 34  9  1  0
 21 12  1  0
 33 24  1  0
 20 15  1  0
 32 27  1  0
  1 36  1  0
  2 37  1  0
  4 38  1  0
  6 39  1  0
  6 40  1  0
  7 41  1  0
  7 42  1  0
  8 43  1  0
 13 44  1  0
 13 45  1  0
 14 46  1  0
 14 47  1  0
 16 48  1  0
 17 49  1  0
 18 50  1  0
 19 51  1  0
 21 52  1  0
 21 53  1  0
 25 54  1  0
 25 55  1  0
 26 56  1  0
 26 57  1  0
 28 58  1  0
 29 59  1  0
 30 60  1  0
 31 61  1  0
 33 62  1  0
 33 63  1  0
 35 64  1  0
M  END
>  <UniqueID>  (22) 
594

>  <SMILES>  (22) 
c1cncc(CCNc2nc(N3CCc4ccccc4C3)nc(N3CCc4ccccc4C3)n2)c1

>  <Energy>  (22) 
72.72591798484763

>  <Genealogy>  (22) 
c1cncc(CCNc2nc(N3CCc4ccccc4C3)nc(N3CCc4ccccc4C3)n2)c1 (3D coordinates assigned)
c1cncc(CCNc2nc(N3CCc4ccccc4C3)nc(N3CCc4ccccc4C3)n2)c1 (nonaromatic ring conformer: 72.72591798484763 kcal/mol)

>  <smiles>  (22) 
c1cncc(CCNc2nc(N3CCc4ccccc4C3)nc(N3CCc4ccccc4C3)n2)c1

>  <score_type>  (22) 
oracle

>  <origin>  (22) 
autodockgpu

>  <m_score__min__energy>  (22) 
-10.68

>  <m_primary>  (22) 
energy

>  <meeko>  (22) 
{"free_energy": -9.71, "intermolecular_energy": -11.5, "internal_energy": -1.39, "cluster_size": 10, "cluster_id": 1, "rank_in_cluster": 8}

>  <energy>  (22) 
-10.47

>  <cluster_rmsd>  (22) 
1.96

>  <rmsd>  (22) 
269.34

>  <cluster>  (22) 
1

$$$$
RCQFLYQWKFFJSS-SREBMQDQNA-N
     RDKit          3D

 64 69  0  0  0  0  0  0  0  0999 V2000
  143.3130   76.7070  219.3660 C   0  0  0  0  0  0  0  0  0  0  0  0
  143.1150   76.8160  217.9890 C   0  0  0  0  0  0  0  0  0  0  0  0
  143.2980   75.7320  217.1860 N   0  0  0  0  0  0  0  0  0  0  0  0
  143.6820   74.5240  217.6870 C   0  0  0  0  0  0  0  0  0  0  0  0
  143.8860   74.3660  219.0680 C   0  0  0  0  0  0  0  0  0  0  0  0
  144.3040   73.0330  219.6400 C   0  0  0  0  0  0  0  0  0  0  0  0
  143.4400   71.8980  219.0650 C   0  0  0  0  0  0  0  0  0  0  0  0
  142.0130   72.2230  219.1460 N   0  0  0  0  0  0  0  0  0  0  0  0
  141.3770   72.6120  220.3700 C   0  0  0  0  0  0  0  0  0  0  0  0
  141.0530   73.9140  220.5760 N   0  0  0  0  0  0  0  0  0  0  0  0
  140.4390   74.2970  221.7260 C   0  0  0  0  0  0  0  0  0  0  0  0
  140.0460   75.6680  221.9250 N   0  0  0  0  0  0  0  0  0  0  0  0
  138.6760   75.9660  222.3870 C   0  0  0  0  0  0  0  0  0  0  0  0
  138.2960   77.4300  222.1470 C   0  0  0  0  0  0  0  0  0  0  0  0
  139.3710   78.3300  222.6790 C   0  0  0  0  0  0  0  0  0  0  0  0
  139.0610   79.5220  223.3530 C   0  0  0  0  0  0  0  0  0  0  0  0
  140.0880   80.3530  223.8140 C   0  0  0  0  0  0  0  0  0  0  0  0
  141.4240   80.0100  223.5820 C   0  0  0  0  0  0  0  0  0  0  0  0
  141.7370   78.8350  222.8940 C   0  0  0  0  0  0  0  0  0  0  0  0
  140.7130   77.9830  222.4500 C   0  0  0  0  0  0  0  0  0  0  0  0
  141.0280   76.7380  221.6630 C   0  0  0  0  0  0  0  0  0  0  0  0
  140.1860   73.3700  222.6870 N   0  0  0  0  0  0  0  0  0  0  0  0
  140.5260   72.0680  222.5020 C   0  0  0  0  0  0  0  0  0  0  0  0
  140.3070   71.1020  223.5510 N   0  0  0  0  0  0  0  0  0  0  0  0
  139.1160   70.2370  223.4870 C   0  0  0  0  0  0  0  0  0  0  0  0
  139.2940   68.9700  224.3210 C   0  0  0  0  0  0  0  0  0  0  0  0
  139.7070   69.3310  225.7160 C   0  0  0  0  0  0  0  0  0  0  0  0
  139.2270   68.6030  226.8170 C   0  0  0  0  0  0  0  0  0  0  0  0
  139.6300   68.9420  228.1120 C   0  0  0  0  0  0  0  0  0  0  0  0
  140.5280   69.9940  228.3120 C   0  0  0  0  0  0  0  0  0  0  0  0
  141.0260   70.7090  227.2180 C   0  0  0  0  0  0  0  0  0  0  0  0
  140.6140   70.3870  225.9140 C   0  0  0  0  0  0  0  0  0  0  0  0
  141.1960   71.1220  224.7300 C   0  0  0  0  0  0  0  0  0  0  0  0
  141.1100   71.6940  221.3340 N   0  0  0  0  0  0  0  0  0  0  0  0
  143.6930   75.4760  219.9080 C   0  0  0  0  0  0  0  0  0  0  0  0
  143.1714   77.5812  220.0184 H   0  0  0  0  0  0  0  0  0  0  0  0
  142.8108   77.7786  217.5520 H   0  0  0  0  0  0  0  0  0  0  0  0
  143.8325   73.6712  217.0087 H   0  0  0  0  0  0  0  0  0  0  0  0
  145.3584   72.8469  219.3880 H   0  0  0  0  0  0  0  0  0  0  0  0
  144.1707   73.0598  220.7316 H   0  0  0  0  0  0  0  0  0  0  0  0
  143.7122   71.7389  218.0112 H   0  0  0  0  0  0  0  0  0  0  0  0
  143.6234   70.9882  219.6554 H   0  0  0  0  0  0  0  0  0  0  0  0
  141.4050   71.9630  218.3360 H   0  0  0  0  0  0  0  0  0  0  0  0
  137.9696   75.3218  221.8429 H   0  0  0  0  0  0  0  0  0  0  0  0
  138.6336   75.7768  223.4698 H   0  0  0  0  0  0  0  0  0  0  0  0
  138.1762   77.6035  221.0674 H   0  0  0  0  0  0  0  0  0  0  0  0
  137.3510   77.6486  222.6658 H   0  0  0  0  0  0  0  0  0  0  0  0
  138.0104   79.8027  223.5187 H   0  0  0  0  0  0  0  0  0  0  0  0
  139.8445   81.2768  224.3593 H   0  0  0  0  0  0  0  0  0  0  0  0
  142.2298   80.6666  223.9419 H   0  0  0  0  0  0  0  0  0  0  0  0
  142.7884   78.5767  222.6996 H   0  0  0  0  0  0  0  0  0  0  0  0
  141.0142   76.9806  220.5902 H   0  0  0  0  0  0  0  0  0  0  0  0
  142.0206   76.3776  221.9710 H   0  0  0  0  0  0  0  0  0  0  0  0
  138.2484   70.7958  223.8679 H   0  0  0  0  0  0  0  0  0  0  0  0
  138.9634   69.9397  222.4390 H   0  0  0  0  0  0  0  0  0  0  0  0
  138.3430   68.4182  224.3535 H   0  0  0  0  0  0  0  0  0  0  0  0
  140.0730   68.3421  223.8638 H   0  0  0  0  0  0  0  0  0  0  0  0
  138.5326   67.7644  226.6600 H   0  0  0  0  0  0  0  0  0  0  0  0
  139.2402   68.3805  228.9738 H   0  0  0  0  0  0  0  0  0  0  0  0
  140.8437   70.2601  229.3316 H   0  0  0  0  0  0  0  0  0  0  0  0
  141.7434   71.5271  227.3793 H   0  0  0  0  0  0  0  0  0  0  0  0
  141.3736   72.1685  225.0186 H   0  0  0  0  0  0  0  0  0  0  0  0
  142.1295   70.6121  224.4497 H   0  0  0  0  0  0  0  0  0  0  0  0
  143.8412   75.3759  220.9934 H   0  0  0  0  0  0  0  0  0  0  0  0
  1  2  2  0
  2  3  1  0
  3  4  2  0
  4  5  1  0
  5  6  1  0
  6  7  1  0
  7  8  1  0
  8  9  1  0
  9 10  2  0
 10 11  1  0
 11 12  1  0
 12 13  1  0
 13 14  1  0
 14 15  1  0
 15 16  2  0
 16 17  1  0
 17 18  2  0
 18 19  1  0
 19 20  2  0
 20 21  1  0
 11 22  2  0
 22 23  1  0
 23 24  1  0
 24 25  1  0
 25 26  1  0
 26 27  1  0
 27 28  2  0
 28 29  1  0
 29 30  2  0
 30 31  1  0
 31 32  2  0
 32 33  1  0
 23 34  2  0
  5 35  2  0
 35  1  1  0
 34  9  1  0
 21 12  1  0
 33 24  1  0
 20 15  1  0
 32 27  1  0
  1 36  1  0
  2 37  1  0
  4 38  1  0
  6 39  1  0
  6 40  1  0
  7 41  1  0
  7 42  1  0
  8 43  1  0
 13 44  1  0
 13 45  1  0
 14 46  1  0
 14 47  1  0
 16 48  1  0
 17 49  1  0
 18 50  1  0
 19 51  1  0
 21 52  1  0
 21 53  1  0
 25 54  1  0
 25 55  1  0
 26 56  1  0
 26 57  1  0
 28 58  1  0
 29 59  1  0
 30 60  1  0
 31 61  1  0
 33 62  1  0
 33 63  1  0
 35 64  1  0
M  END
>  <UniqueID>  (23) 
594

>  <SMILES>  (23) 
c1cncc(CCNc2nc(N3CCc4ccccc4C3)nc(N3CCc4ccccc4C3)n2)c1

>  <Energy>  (23) 
72.72591798484763

>  <Genealogy>  (23) 
c1cncc(CCNc2nc(N3CCc4ccccc4C3)nc(N3CCc4ccccc4C3)n2)c1 (3D coordinates assigned)
c1cncc(CCNc2nc(N3CCc4ccccc4C3)nc(N3CCc4ccccc4C3)n2)c1 (nonaromatic ring conformer: 72.72591798484763 kcal/mol)

>  <smiles>  (23) 
c1cncc(CCNc2nc(N3CCc4ccccc4C3)nc(N3CCc4ccccc4C3)n2)c1

>  <score_type>  (23) 
oracle

>  <origin>  (23) 
autodockgpu

>  <m_score__min__energy>  (23) 
-10.68

>  <m_primary>  (23) 
energy

>  <meeko>  (23) 
{"free_energy": -9.33, "intermolecular_energy": -11.12, "internal_energy": -1.54, "cluster_size": 10, "cluster_id": 2, "rank_in_cluster": 7}

>  <energy>  (23) 
-10.43

>  <cluster_rmsd>  (23) 
0.76

>  <rmsd>  (23) 
269.48

>  <cluster>  (23) 
1

$$$$
RCQFLYQWKFFJSS-SREBMQDQNA-N
     RDKit          3D

 64 69  0  0  0  0  0  0  0  0999 V2000
  143.1640   76.8040  219.7070 C   0  0  0  0  0  0  0  0  0  0  0  0
  142.1740   77.7620  219.4860 C   0  0  0  0  0  0  0  0  0  0  0  0
  141.1330   77.4870  218.6530 N   0  0  0  0  0  0  0  0  0  0  0  0
  141.0260   76.2900  218.0100 C   0  0  0  0  0  0  0  0  0  0  0  0
  141.9970   75.2940  218.2070 C   0  0  0  0  0  0  0  0  0  0  0  0
  141.8890   73.9610  217.5070 C   0  0  0  0  0  0  0  0  0  0  0  0
  142.5360   72.8480  218.3500 C   0  0  0  0  0  0  0  0  0  0  0  0
  141.5270   72.0920  219.0970 N   0  0  0  0  0  0  0  0  0  0  0  0
  140.9940   72.5430  220.3490 C   0  0  0  0  0  0  0  0  0  0  0  0
  140.6610   71.6370  221.3030 N   0  0  0  0  0  0  0  0  0  0  0  0
  140.1660   72.0490  222.5000 C   0  0  0  0  0  0  0  0  0  0  0  0
  139.8620   71.0940  223.5340 N   0  0  0  0  0  0  0  0  0  0  0  0
  139.5020   69.7120  223.1570 C   0  0  0  0  0  0  0  0  0  0  0  0
  138.8170   68.9650  224.3050 C   0  0  0  0  0  0  0  0  0  0  0  0
  139.6250   69.1060  225.5610 C   0  0  0  0  0  0  0  0  0  0  0  0
  139.7990   68.0290  226.4450 C   0  0  0  0  0  0  0  0  0  0  0  0
  140.5370   68.2010  227.6210 C   0  0  0  0  0  0  0  0  0  0  0  0
  141.0820   69.4520  227.9290 C   0  0  0  0  0  0  0  0  0  0  0  0
  140.8950   70.5320  227.0620 C   0  0  0  0  0  0  0  0  0  0  0  0
  140.1770   70.3610  225.8670 C   0  0  0  0  0  0  0  0  0  0  0  0
  139.9210   71.5240  224.9450 C   0  0  0  0  0  0  0  0  0  0  0  0
  139.9700   73.3750  222.7190 N   0  0  0  0  0  0  0  0  0  0  0  0
  140.2780   74.2900  221.7640 C   0  0  0  0  0  0  0  0  0  0  0  0
  140.0120   75.6900  221.9820 N   0  0  0  0  0  0  0  0  0  0  0  0
  138.8210   76.2950  221.3610 C   0  0  0  0  0  0  0  0  0  0  0  0
  138.3950   77.5710  222.0830 C   0  0  0  0  0  0  0  0  0  0  0  0
  139.5620   78.5070  222.1960 C   0  0  0  0  0  0  0  0  0  0  0  0
  139.3830   79.8940  222.0680 C   0  0  0  0  0  0  0  0  0  0  0  0
  140.4760   80.7570  222.1880 C   0  0  0  0  0  0  0  0  0  0  0  0
  141.7470   80.2410  222.4560 C   0  0  0  0  0  0  0  0  0  0  0  0
  141.9280   78.8620  222.6050 C   0  0  0  0  0  0  0  0  0  0  0  0
  140.8380   77.9860  222.4690 C   0  0  0  0  0  0  0  0  0  0  0  0
  141.0240   76.5030  222.6860 C   0  0  0  0  0  0  0  0  0  0  0  0
  140.8030   73.8660  220.5840 N   0  0  0  0  0  0  0  0  0  0  0  0
  143.0720   75.5640  219.0700 C   0  0  0  0  0  0  0  0  0  0  0  0
  144.0089   77.0230  220.3764 H   0  0  0  0  0  0  0  0  0  0  0  0
  142.2347   78.7403  219.9853 H   0  0  0  0  0  0  0  0  0  0  0  0
  140.1775   76.1034  217.3353 H   0  0  0  0  0  0  0  0  0  0  0  0
  140.8271   73.7220  217.3479 H   0  0  0  0  0  0  0  0  0  0  0  0
  142.4153   74.0249  216.5432 H   0  0  0  0  0  0  0  0  0  0  0  0
  143.0769   72.1612  217.6824 H   0  0  0  0  0  0  0  0  0  0  0  0
  143.2250   73.3135  219.0701 H   0  0  0  0  0  0  0  0  0  0  0  0
  141.3470   71.1020  218.8130 H   0  0  0  0  0  0  0  0  0  0  0  0
  138.8177   69.7453  222.2964 H   0  0  0  0  0  0  0  0  0  0  0  0
  140.4290   69.1752  222.9071 H   0  0  0  0  0  0  0  0  0  0  0  0
  137.8141   69.3867  224.4674 H   0  0  0  0  0  0  0  0  0  0  0  0
  138.7350   67.8993  224.0452 H   0  0  0  0  0  0  0  0  0  0  0  0
  139.3549   67.0498  226.2128 H   0  0  0  0  0  0  0  0  0  0  0  0
  140.6888   67.3521  228.3038 H   0  0  0  0  0  0  0  0  0  0  0  0
  141.6591   69.5860  228.8558 H   0  0  0  0  0  0  0  0  0  0  0  0
  141.3110   71.5181  227.3160 H   0  0  0  0  0  0  0  0  0  0  0  0
  138.9628   71.9910  225.2166 H   0  0  0  0  0  0  0  0  0  0  0  0
  140.7501   72.2388  225.0532 H   0  0  0  0  0  0  0  0  0  0  0  0
  139.0498   76.5378  220.3128 H   0  0  0  0  0  0  0  0  0  0  0  0
  137.9949   75.5716  221.4265 H   0  0  0  0  0  0  0  0  0  0  0  0
  137.5891   78.0595  221.5156 H   0  0  0  0  0  0  0  0  0  0  0  0
  138.0371   77.3147  223.0911 H   0  0  0  0  0  0  0  0  0  0  0  0
  138.3804   80.3022  221.8728 H   0  0  0  0  0  0  0  0  0  0  0  0
  140.3359   81.8418  222.0716 H   0  0  0  0  0  0  0  0  0  0  0  0
  142.6067   80.9207  222.5499 H   0  0  0  0  0  0  0  0  0  0  0  0
  142.9277   78.4618  222.8295 H   0  0  0  0  0  0  0  0  0  0  0  0
  142.0212   76.2167  222.3203 H   0  0  0  0  0  0  0  0  0  0  0  0
  140.9132   76.3096  223.7632 H   0  0  0  0  0  0  0  0  0  0  0  0
  143.8422   74.7983  219.2444 H   0  0  0  0  0  0  0  0  0  0  0  0
  1  2  2  0
  2  3  1  0
  3  4  2  0
  4  5  1  0
  5  6  1  0
  6  7  1  0
  7  8  1  0
  8  9  1  0
  9 10  2  0
 10 11  1  0
 11 12  1  0
 12 13  1  0
 13 14  1  0
 14 15  1  0
 15 16  2  0
 16 17  1  0
 17 18  2  0
 18 19  1  0
 19 20  2  0
 20 21  1  0
 11 22  2  0
 22 23  1  0
 23 24  1  0
 24 25  1  0
 25 26  1  0
 26 27  1  0
 27 28  2  0
 28 29  1  0
 29 30  2  0
 30 31  1  0
 31 32  2  0
 32 33  1  0
 23 34  2  0
  5 35  2  0
 35  1  1  0
 34  9  1  0
 21 12  1  0
 33 24  1  0
 20 15  1  0
 32 27  1  0
  1 36  1  0
  2 37  1  0
  4 38  1  0
  6 39  1  0
  6 40  1  0
  7 41  1  0
  7 42  1  0
  8 43  1  0
 13 44  1  0
 13 45  1  0
 14 46  1  0
 14 47  1  0
 16 48  1  0
 17 49  1  0
 18 50  1  0
 19 51  1  0
 21 52  1  0
 21 53  1  0
 25 54  1  0
 25 55  1  0
 26 56  1  0
 26 57  1  0
 28 58  1  0
 29 59  1  0
 30 60  1  0
 31 61  1  0
 33 62  1  0
 33 63  1  0
 35 64  1  0
M  END
>  <UniqueID>  (24) 
594

>  <SMILES>  (24) 
c1cncc(CCNc2nc(N3CCc4ccccc4C3)nc(N3CCc4ccccc4C3)n2)c1

>  <Energy>  (24) 
72.72591798484763

>  <Genealogy>  (24) 
c1cncc(CCNc2nc(N3CCc4ccccc4C3)nc(N3CCc4ccccc4C3)n2)c1 (3D coordinates assigned)
c1cncc(CCNc2nc(N3CCc4ccccc4C3)nc(N3CCc4ccccc4C3)n2)c1 (nonaromatic ring conformer: 72.72591798484763 kcal/mol)

>  <smiles>  (24) 
c1cncc(CCNc2nc(N3CCc4ccccc4C3)nc(N3CCc4ccccc4C3)n2)c1

>  <score_type>  (24) 
oracle

>  <origin>  (24) 
autodockgpu

>  <m_score__min__energy>  (24) 
-10.68

>  <m_primary>  (24) 
energy

>  <meeko>  (24) 
{"free_energy": -8.12, "intermolecular_energy": -9.91, "internal_energy": -2.05, "cluster_size": 10, "cluster_id": 2, "rank_in_cluster": 10}

>  <energy>  (24) 
-9.92

>  <cluster_rmsd>  (24) 
1.92

>  <rmsd>  (24) 
269.15

>  <cluster>  (24) 
1

$$$$
RCQFLYQWKFFJSS-SREBMQDQNA-N
     RDKit          3D

 64 69  0  0  0  0  0  0  0  0999 V2000
  144.8930   74.4790  220.4930 C   0  0  0  0  0  0  0  0  0  0  0  0
  146.0140   73.7240  220.8400 C   0  0  0  0  0  0  0  0  0  0  0  0
  146.3080   72.5850  220.1550 N   0  0  0  0  0  0  0  0  0  0  0  0
  145.5280   72.1440  219.1280 C   0  0  0  0  0  0  0  0  0  0  0  0
  144.3920   72.8750  218.7400 C   0  0  0  0  0  0  0  0  0  0  0  0
  143.5220   72.4040  217.6010 C   0  0  0  0  0  0  0  0  0  0  0  0
  142.4710   71.3970  218.0990 C   0  0  0  0  0  0  0  0  0  0  0  0
  141.2010   72.0600  218.4040 N   0  0  0  0  0  0  0  0  0  0  0  0
  140.9510   72.7120  219.6560 C   0  0  0  0  0  0  0  0  0  0  0  0
  140.4690   71.9940  220.7030 N   0  0  0  0  0  0  0  0  0  0  0  0
  140.2380   72.5940  221.9010 C   0  0  0  0  0  0  0  0  0  0  0  0
  139.7770   71.8260  223.0280 N   0  0  0  0  0  0  0  0  0  0  0  0
  138.5580   71.0040  222.8910 C   0  0  0  0  0  0  0  0  0  0  0  0
  137.9830   70.6000  224.2510 C   0  0  0  0  0  0  0  0  0  0  0  0
  139.0650   70.0190  225.1110 C   0  0  0  0  0  0  0  0  0  0  0  0
  138.8290   68.9030  225.9310 C   0  0  0  0  0  0  0  0  0  0  0  0
  139.8530   68.4010  226.7410 C   0  0  0  0  0  0  0  0  0  0  0  0
  141.1050   69.0240  226.7540 C   0  0  0  0  0  0  0  0  0  0  0  0
  141.3390   70.1470  225.9550 C   0  0  0  0  0  0  0  0  0  0  0  0
  140.3240   70.6420  225.1200 C   0  0  0  0  0  0  0  0  0  0  0  0
  140.5400   71.8790  224.2910 C   0  0  0  0  0  0  0  0  0  0  0  0
  140.4580   73.9290  222.0300 N   0  0  0  0  0  0  0  0  0  0  0  0
  140.9200   74.6620  220.9840 C   0  0  0  0  0  0  0  0  0  0  0  0
  141.0940   76.0870  221.1130 N   0  0  0  0  0  0  0  0  0  0  0  0
  141.7880   76.8210  220.0410 C   0  0  0  0  0  0  0  0  0  0  0  0
  141.4350   78.3070  220.0550 C   0  0  0  0  0  0  0  0  0  0  0  0
  141.6670   78.8730  221.4240 C   0  0  0  0  0  0  0  0  0  0  0  0
  142.1750   80.1720  221.5870 C   0  0  0  0  0  0  0  0  0  0  0  0
  142.3730   80.6930  222.8690 C   0  0  0  0  0  0  0  0  0  0  0  0
  142.0480   79.9270  223.9930 C   0  0  0  0  0  0  0  0  0  0  0  0
  141.5230   78.6400  223.8370 C   0  0  0  0  0  0  0  0  0  0  0  0
  141.3350   78.1020  222.5530 C   0  0  0  0  0  0  0  0  0  0  0  0
  140.7150   76.7360  222.3850 C   0  0  0  0  0  0  0  0  0  0  0  0
  141.1760   74.0420  219.8020 N   0  0  0  0  0  0  0  0  0  0  0  0
  144.0830   74.0560  219.4360 C   0  0  0  0  0  0  0  0  0  0  0  0
  144.6494   75.3981  221.0461 H   0  0  0  0  0  0  0  0  0  0  0  0
  146.6609   74.0496  221.6680 H   0  0  0  0  0  0  0  0  0  0  0  0
  145.7882   71.2138  218.6016 H   0  0  0  0  0  0  0  0  0  0  0  0
  143.0099   73.2699  217.1560 H   0  0  0  0  0  0  0  0  0  0  0  0
  144.1578   71.9097  216.8517 H   0  0  0  0  0  0  0  0  0  0  0  0
  142.3018   70.6403  217.3187 H   0  0  0  0  0  0  0  0  0  0  0  0
  142.8481   70.9287  219.0201 H   0  0  0  0  0  0  0  0  0  0  0  0
  140.3860   71.8730  217.7750 H   0  0  0  0  0  0  0  0  0  0  0  0
  137.7997   71.5819  222.3423 H   0  0  0  0  0  0  0  0  0  0  0  0
  138.8269   70.0852  222.3493 H   0  0  0  0  0  0  0  0  0  0  0  0
  137.5604   71.4867  224.7461 H   0  0  0  0  0  0  0  0  0  0  0  0
  137.1957   69.8465  224.1016 H   0  0  0  0  0  0  0  0  0  0  0  0
  137.8388   68.4239  225.9361 H   0  0  0  0  0  0  0  0  0  0  0  0
  139.6733   67.5154  227.3683 H   0  0  0  0  0  0  0  0  0  0  0  0
  141.9076   68.6294  227.3945 H   0  0  0  0  0  0  0  0  0  0  0  0
  142.3200   70.6439  225.9803 H   0  0  0  0  0  0  0  0  0  0  0  0
  140.2146   72.7570  224.8682 H   0  0  0  0  0  0  0  0  0  0  0  0
  141.6099   71.9459  224.0445 H   0  0  0  0  0  0  0  0  0  0  0  0
  142.8738   76.7110  220.1786 H   0  0  0  0  0  0  0  0  0  0  0  0
  141.4690   76.4014  219.0755 H   0  0  0  0  0  0  0  0  0  0  0  0
  142.0667   78.8389  219.3284 H   0  0  0  0  0  0  0  0  0  0  0  0
  140.3754   78.4304  219.7865 H   0  0  0  0  0  0  0  0  0  0  0  0
  142.4177   80.7810  220.7037 H   0  0  0  0  0  0  0  0  0  0  0  0
  142.7844   81.7055  222.9937 H   0  0  0  0  0  0  0  0  0  0  0  0
  142.2055   80.3373  225.0014 H   0  0  0  0  0  0  0  0  0  0  0  0
  141.2561   78.0464  224.7238 H   0  0  0  0  0  0  0  0  0  0  0  0
  141.0435   76.0963  223.2174 H   0  0  0  0  0  0  0  0  0  0  0  0
  139.6229   76.8670  222.3770 H   0  0  0  0  0  0  0  0  0  0  0  0
  143.2020   74.6484  219.1482 H   0  0  0  0  0  0  0  0  0  0  0  0
  1  2  2  0
  2  3  1  0
  3  4  2  0
  4  5  1  0
  5  6  1  0
  6  7  1  0
  7  8  1  0
  8  9  1  0
  9 10  2  0
 10 11  1  0
 11 12  1  0
 12 13  1  0
 13 14  1  0
 14 15  1  0
 15 16  2  0
 16 17  1  0
 17 18  2  0
 18 19  1  0
 19 20  2  0
 20 21  1  0
 11 22  2  0
 22 23  1  0
 23 24  1  0
 24 25  1  0
 25 26  1  0
 26 27  1  0
 27 28  2  0
 28 29  1  0
 29 30  2  0
 30 31  1  0
 31 32  2  0
 32 33  1  0
 23 34  2  0
  5 35  2  0
 35  1  1  0
 34  9  1  0
 21 12  1  0
 33 24  1  0
 20 15  1  0
 32 27  1  0
  1 36  1  0
  2 37  1  0
  4 38  1  0
  6 39  1  0
  6 40  1  0
  7 41  1  0
  7 42  1  0
  8 43  1  0
 13 44  1  0
 13 45  1  0
 14 46  1  0
 14 47  1  0
 16 48  1  0
 17 49  1  0
 18 50  1  0
 19 51  1  0
 21 52  1  0
 21 53  1  0
 25 54  1  0
 25 55  1  0
 26 56  1  0
 26 57  1  0
 28 58  1  0
 29 59  1  0
 30 60  1  0
 31 61  1  0
 33 62  1  0
 33 63  1  0
 35 64  1  0
M  END
>  <UniqueID>  (25) 
594

>  <SMILES>  (25) 
c1cncc(CCNc2nc(N3CCc4ccccc4C3)nc(N3CCc4ccccc4C3)n2)c1

>  <Energy>  (25) 
72.72591798484763

>  <Genealogy>  (25) 
c1cncc(CCNc2nc(N3CCc4ccccc4C3)nc(N3CCc4ccccc4C3)n2)c1 (3D coordinates assigned)
c1cncc(CCNc2nc(N3CCc4ccccc4C3)nc(N3CCc4ccccc4C3)n2)c1 (nonaromatic ring conformer: 72.72591798484763 kcal/mol)

>  <smiles>  (25) 
c1cncc(CCNc2nc(N3CCc4ccccc4C3)nc(N3CCc4ccccc4C3)n2)c1

>  <score_type>  (25) 
oracle

>  <origin>  (25) 
autodockgpu

>  <m_score__min__energy>  (25) 
-10.68

>  <m_primary>  (25) 
energy

>  <meeko>  (25) 
{"free_energy": -9.92, "intermolecular_energy": -11.71, "internal_energy": -1.41, "cluster_size": 10, "cluster_id": 1, "rank_in_cluster": 5}

>  <energy>  (25) 
-9.92

>  <cluster_rmsd>  (25) 
1.93

>  <rmsd>  (25) 
269.12

>  <cluster>  (25) 
1

$$$$
RCQFLYQWKFFJSS-SREBMQDQNA-N
     RDKit          3D

 64 69  0  0  0  0  0  0  0  0999 V2000
  144.9200   74.4870  220.4680 C   0  0  0  0  0  0  0  0  0  0  0  0
  146.1400   73.8100  220.4960 C   0  0  0  0  0  0  0  0  0  0  0  0
  146.3190   72.6960  219.7340 N   0  0  0  0  0  0  0  0  0  0  0  0
  145.3300   72.2060  218.9350 C   0  0  0  0  0  0  0  0  0  0  0  0
  144.0870   72.8590  218.8700 C   0  0  0  0  0  0  0  0  0  0  0  0
  142.9830   72.3330  217.9860 C   0  0  0  0  0  0  0  0  0  0  0  0
  142.5970   70.9000  218.3900 C   0  0  0  0  0  0  0  0  0  0  0  0
  141.2980   70.8700  219.0680 N   0  0  0  0  0  0  0  0  0  0  0  0
  141.0030   71.6870  220.2080 C   0  0  0  0  0  0  0  0  0  0  0  0
  140.5910   71.1060  221.3640 N   0  0  0  0  0  0  0  0  0  0  0  0
  140.3180   71.8660  222.4580 C   0  0  0  0  0  0  0  0  0  0  0  0
  139.9330   71.2490  223.7000 N   0  0  0  0  0  0  0  0  0  0  0  0
  139.1710   69.9840  223.6710 C   0  0  0  0  0  0  0  0  0  0  0  0
  138.4930   69.6930  225.0130 C   0  0  0  0  0  0  0  0  0  0  0  0
  139.4880   69.8260  226.1270 C   0  0  0  0  0  0  0  0  0  0  0  0
  139.5030   68.9290  227.2080 C   0  0  0  0  0  0  0  0  0  0  0  0
  140.4280   69.0970  228.2440 C   0  0  0  0  0  0  0  0  0  0  0  0
  141.3220   70.1720  228.2180 C   0  0  0  0  0  0  0  0  0  0  0  0
  141.2980   71.0790  227.1550 C   0  0  0  0  0  0  0  0  0  0  0  0
  140.3890   70.9040  226.0980 C   0  0  0  0  0  0  0  0  0  0  0  0
  140.3130   71.8980  224.9700 C   0  0  0  0  0  0  0  0  0  0  0  0
  140.4250   73.2180  222.3730 N   0  0  0  0  0  0  0  0  0  0  0  0
  140.8150   73.8120  221.2150 C   0  0  0  0  0  0  0  0  0  0  0  0
  140.8690   75.2500  221.1170 N   0  0  0  0  0  0  0  0  0  0  0  0
  141.3480   75.8620  219.8660 C   0  0  0  0  0  0  0  0  0  0  0  0
  140.8610   77.3020  219.7200 C   0  0  0  0  0  0  0  0  0  0  0  0
  141.2100   78.0850  220.9500 C   0  0  0  0  0  0  0  0  0  0  0  0
  141.6080   79.4290  220.8550 C   0  0  0  0  0  0  0  0  0  0  0  0
  141.9180   80.1520  222.0100 C   0  0  0  0  0  0  0  0  0  0  0  0
  141.8120   79.5450  223.2650 C   0  0  0  0  0  0  0  0  0  0  0  0
  141.3960   78.2130  223.3670 C   0  0  0  0  0  0  0  0  0  0  0  0
  141.0980   77.4730  222.2100 C   0  0  0  0  0  0  0  0  0  0  0  0
  140.5950   76.0540  222.3250 C   0  0  0  0  0  0  0  0  0  0  0  0
  141.1160   73.0380  220.1400 N   0  0  0  0  0  0  0  0  0  0  0  0
  143.8930   74.0130  219.6470 C   0  0  0  0  0  0  0  0  0  0  0  0
  144.7682   75.3844  221.0857 H   0  0  0  0  0  0  0  0  0  0  0  0
  146.9575   74.1766  221.1341 H   0  0  0  0  0  0  0  0  0  0  0  0
  145.5047   71.2976  218.3397 H   0  0  0  0  0  0  0  0  0  0  0  0
  142.1021   72.9847  218.0824 H   0  0  0  0  0  0  0  0  0  0  0  0
  143.3389   72.3226  216.9452 H   0  0  0  0  0  0  0  0  0  0  0  0
  142.5442   70.2748  217.4865 H   0  0  0  0  0  0  0  0  0  0  0  0
  143.3599   70.5172  219.0838 H   0  0  0  0  0  0  0  0  0  0  0  0
  140.6460   70.0840  218.8430 H   0  0  0  0  0  0  0  0  0  0  0  0
  138.3991   70.0520  222.8903 H   0  0  0  0  0  0  0  0  0  0  0  0
  139.8767   69.1665  223.4620 H   0  0  0  0  0  0  0  0  0  0  0  0
  137.6723   70.4084  225.1697 H   0  0  0  0  0  0  0  0  0  0  0  0
  138.0955   68.6674  225.0030 H   0  0  0  0  0  0  0  0  0  0  0  0
  138.7873   68.0943  227.2399 H   0  0  0  0  0  0  0  0  0  0  0  0
  140.4521   68.3826  229.0801 H   0  0  0  0  0  0  0  0  0  0  0  0
  142.0456   70.3040  229.0359 H   0  0  0  0  0  0  0  0  0  0  0  0
  141.9925   71.9320  227.1458 H   0  0  0  0  0  0  0  0  0  0  0  0
  139.5630   72.6634  225.2184 H   0  0  0  0  0  0  0  0  0  0  0  0
  141.3075   72.3502  224.8417 H   0  0  0  0  0  0  0  0  0  0  0  0
  142.4480   75.8556  219.8642 H   0  0  0  0  0  0  0  0  0  0  0  0
  140.9495   75.2778  219.0235 H   0  0  0  0  0  0  0  0  0  0  0  0
  141.3425   77.7631  218.8451 H   0  0  0  0  0  0  0  0  0  0  0  0
  139.7691   77.3037  219.5869 H   0  0  0  0  0  0  0  0  0  0  0  0
  141.6757   79.9131  219.8696 H   0  0  0  0  0  0  0  0  0  0  0  0
  142.2456   81.1992  221.9317 H   0  0  0  0  0  0  0  0  0  0  0  0
  142.0560   80.1154  224.1734 H   0  0  0  0  0  0  0  0  0  0  0  0
  141.3018   77.7430  224.3571 H   0  0  0  0  0  0  0  0  0  0  0  0
  141.0868   75.5754  223.1847 H   0  0  0  0  0  0  0  0  0  0  0  0
  139.5033   76.0989  222.4523 H   0  0  0  0  0  0  0  0  0  0  0  0
  142.9308   74.5447  219.6092 H   0  0  0  0  0  0  0  0  0  0  0  0
  1  2  2  0
  2  3  1  0
  3  4  2  0
  4  5  1  0
  5  6  1  0
  6  7  1  0
  7  8  1  0
  8  9  1  0
  9 10  2  0
 10 11  1  0
 11 12  1  0
 12 13  1  0
 13 14  1  0
 14 15  1  0
 15 16  2  0
 16 17  1  0
 17 18  2  0
 18 19  1  0
 19 20  2  0
 20 21  1  0
 11 22  2  0
 22 23  1  0
 23 24  1  0
 24 25  1  0
 25 26  1  0
 26 27  1  0
 27 28  2  0
 28 29  1  0
 29 30  2  0
 30 31  1  0
 31 32  2  0
 32 33  1  0
 23 34  2  0
  5 35  2  0
 35  1  1  0
 34  9  1  0
 21 12  1  0
 33 24  1  0
 20 15  1  0
 32 27  1  0
  1 36  1  0
  2 37  1  0
  4 38  1  0
  6 39  1  0
  6 40  1  0
  7 41  1  0
  7 42  1  0
  8 43  1  0
 13 44  1  0
 13 45  1  0
 14 46  1  0
 14 47  1  0
 16 48  1  0
 17 49  1  0
 18 50  1  0
 19 51  1  0
 21 52  1  0
 21 53  1  0
 25 54  1  0
 25 55  1  0
 26 56  1  0
 26 57  1  0
 28 58  1  0
 29 59  1  0
 30 60  1  0
 31 61  1  0
 33 62  1  0
 33 63  1  0
 35 64  1  0
M  END
>  <UniqueID>  (26) 
594

>  <SMILES>  (26) 
c1cncc(CCNc2nc(N3CCc4ccccc4C3)nc(N3CCc4ccccc4C3)n2)c1

>  <Energy>  (26) 
72.72591798484763

>  <Genealogy>  (26) 
c1cncc(CCNc2nc(N3CCc4ccccc4C3)nc(N3CCc4ccccc4C3)n2)c1 (3D coordinates assigned)
c1cncc(CCNc2nc(N3CCc4ccccc4C3)nc(N3CCc4ccccc4C3)n2)c1 (nonaromatic ring conformer: 72.72591798484763 kcal/mol)

>  <smiles>  (26) 
c1cncc(CCNc2nc(N3CCc4ccccc4C3)nc(N3CCc4ccccc4C3)n2)c1

>  <score_type>  (26) 
oracle

>  <origin>  (26) 
autodockgpu

>  <m_score__min__energy>  (26) 
-10.68

>  <m_primary>  (26) 
energy

>  <meeko>  (26) 
{"free_energy": -9.69, "intermolecular_energy": -11.48, "internal_energy": -1.41, "cluster_size": 10, "cluster_id": 1, "rank_in_cluster": 9}

>  <energy>  (26) 
-9.75

>  <cluster_rmsd>  (26) 
1.88

>  <rmsd>  (26) 
269.39

>  <cluster>  (26) 
1

$$$$
RCQFLYQWKFFJSS-SREBMQDQNA-N
     RDKit          3D

 64 69  0  0  0  0  0  0  0  0999 V2000
  145.2150   73.6040  221.1090 C   0  0  0  0  0  0  0  0  0  0  0  0
  146.1940   73.7430  220.1250 C   0  0  0  0  0  0  0  0  0  0  0  0
  146.2890   72.8280  219.1230 N   0  0  0  0  0  0  0  0  0  0  0  0
  145.4510   71.7560  219.0480 C   0  0  0  0  0  0  0  0  0  0  0  0
  144.4450   71.5780  220.0130 C   0  0  0  0  0  0  0  0  0  0  0  0
  143.5050   70.4000  219.9410 C   0  0  0  0  0  0  0  0  0  0  0  0
  142.6510   70.4610  218.6640 C   0  0  0  0  0  0  0  0  0  0  0  0
  141.6050   71.4820  218.7700 N   0  0  0  0  0  0  0  0  0  0  0  0
  141.3040   72.1540  220.0000 C   0  0  0  0  0  0  0  0  0  0  0  0
  140.8180   71.4450  221.0510 N   0  0  0  0  0  0  0  0  0  0  0  0
  140.5380   72.0640  222.2290 C   0  0  0  0  0  0  0  0  0  0  0  0
  140.0730   71.3070  223.3610 N   0  0  0  0  0  0  0  0  0  0  0  0
  139.4100   70.0070  223.1370 C   0  0  0  0  0  0  0  0  0  0  0  0
  138.6220   69.5460  224.3660 C   0  0  0  0  0  0  0  0  0  0  0  0
  139.4850   69.6330  225.5890 C   0  0  0  0  0  0  0  0  0  0  0  0
  139.4540   68.6370  226.5800 C   0  0  0  0  0  0  0  0  0  0  0  0
  140.2540   68.7610  227.7210 C   0  0  0  0  0  0  0  0  0  0  0  0
  141.0670   69.8870  227.8890 C   0  0  0  0  0  0  0  0  0  0  0  0
  141.0860   70.8890  226.9150 C   0  0  0  0  0  0  0  0  0  0  0  0
  140.3050   70.7610  225.7550 C   0  0  0  0  0  0  0  0  0  0  0  0
  140.2740   71.8530  224.7190 C   0  0  0  0  0  0  0  0  0  0  0  0
  140.7140   73.4080  222.3330 N   0  0  0  0  0  0  0  0  0  0  0  0
  141.1790   74.1310  221.2810 C   0  0  0  0  0  0  0  0  0  0  0  0
  141.3060   75.5640  221.3820 N   0  0  0  0  0  0  0  0  0  0  0  0
  140.4540   76.2900  222.3400 C   0  0  0  0  0  0  0  0  0  0  0  0
  141.0480   77.6480  222.7060 C   0  0  0  0  0  0  0  0  0  0  0  0
  141.3550   78.4230  221.4600 C   0  0  0  0  0  0  0  0  0  0  0  0
  141.1590   79.8130  221.4140 C   0  0  0  0  0  0  0  0  0  0  0  0
  141.4620   80.5260  220.2500 C   0  0  0  0  0  0  0  0  0  0  0  0
  141.9800   79.8590  219.1360 C   0  0  0  0  0  0  0  0  0  0  0  0
  142.1970   78.4780  219.1840 C   0  0  0  0  0  0  0  0  0  0  0  0
  141.8800   77.7500  220.3430 C   0  0  0  0  0  0  0  0  0  0  0  0
  142.1680   76.2700  220.4120 C   0  0  0  0  0  0  0  0  0  0  0  0
  141.4850   73.4930  220.1210 N   0  0  0  0  0  0  0  0  0  0  0  0
  144.3340   72.5200  221.0490 C   0  0  0  0  0  0  0  0  0  0  0  0
  145.1370   74.3393  221.9234 H   0  0  0  0  0  0  0  0  0  0  0  0
  146.8903   74.5939  220.1594 H   0  0  0  0  0  0  0  0  0  0  0  0
  145.5622   71.0285  218.2305 H   0  0  0  0  0  0  0  0  0  0  0  0
  144.0920   69.4697  219.9383 H   0  0  0  0  0  0  0  0  0  0  0  0
  142.8366   70.4281  220.8142 H   0  0  0  0  0  0  0  0  0  0  0  0
  143.3009   70.7014  217.8097 H   0  0  0  0  0  0  0  0  0  0  0  0
  142.1678   69.4829  218.5229 H   0  0  0  0  0  0  0  0  0  0  0  0
  140.9260   71.5720  217.9810 H   0  0  0  0  0  0  0  0  0  0  0  0
  138.7184   70.1028  222.2870 H   0  0  0  0  0  0  0  0  0  0  0  0
  140.1898   69.2585  222.9329 H   0  0  0  0  0  0  0  0  0  0  0  0
  137.7397   70.1899  224.4959 H   0  0  0  0  0  0  0  0  0  0  0  0
  138.3038   68.5030  224.2213 H   0  0  0  0  0  0  0  0  0  0  0  0
  138.8009   67.7602  226.4586 H   0  0  0  0  0  0  0  0  0  0  0  0
  140.2437   67.9719  228.4872 H   0  0  0  0  0  0  0  0  0  0  0  0
  141.6921   69.9838  228.7889 H   0  0  0  0  0  0  0  0  0  0  0  0
  141.7145   71.7805  227.0574 H   0  0  0  0  0  0  0  0  0  0  0  0
  139.4498   72.5432  224.9521 H   0  0  0  0  0  0  0  0  0  0  0  0
  141.2415   72.3759  224.7404 H   0  0  0  0  0  0  0  0  0  0  0  0
  139.4623   76.4441  221.8897 H   0  0  0  0  0  0  0  0  0  0  0  0
  140.3803   75.6887  223.2582 H   0  0  0  0  0  0  0  0  0  0  0  0
  140.3254   78.2097  223.3162 H   0  0  0  0  0  0  0  0  0  0  0  0
  141.9765   77.4955  223.2757 H   0  0  0  0  0  0  0  0  0  0  0  0
  140.7665   80.3416  222.2952 H   0  0  0  0  0  0  0  0  0  0  0  0
  141.2927   81.6122  220.2108 H   0  0  0  0  0  0  0  0  0  0  0  0
  142.2172   80.4209  218.2206 H   0  0  0  0  0  0  0  0  0  0  0  0
  142.6179   77.9594  218.3100 H   0  0  0  0  0  0  0  0  0  0  0  0
  142.0063   75.8336  219.4153 H   0  0  0  0  0  0  0  0  0  0  0  0
  143.2093   76.1503  220.7456 H   0  0  0  0  0  0  0  0  0  0  0  0
  143.5525   72.4046  221.8145 H   0  0  0  0  0  0  0  0  0  0  0  0
  1  2  2  0
  2  3  1  0
  3  4  2  0
  4  5  1  0
  5  6  1  0
  6  7  1  0
  7  8  1  0
  8  9  1  0
  9 10  2  0
 10 11  1  0
 11 12  1  0
 12 13  1  0
 13 14  1  0
 14 15  1  0
 15 16  2  0
 16 17  1  0
 17 18  2  0
 18 19  1  0
 19 20  2  0
 20 21  1  0
 11 22  2  0
 22 23  1  0
 23 24  1  0
 24 25  1  0
 25 26  1  0
 26 27  1  0
 27 28  2  0
 28 29  1  0
 29 30  2  0
 30 31  1  0
 31 32  2  0
 32 33  1  0
 23 34  2  0
  5 35  2  0
 35  1  1  0
 34  9  1  0
 21 12  1  0
 33 24  1  0
 20 15  1  0
 32 27  1  0
  1 36  1  0
  2 37  1  0
  4 38  1  0
  6 39  1  0
  6 40  1  0
  7 41  1  0
  7 42  1  0
  8 43  1  0
 13 44  1  0
 13 45  1  0
 14 46  1  0
 14 47  1  0
 16 48  1  0
 17 49  1  0
 18 50  1  0
 19 51  1  0
 21 52  1  0
 21 53  1  0
 25 54  1  0
 25 55  1  0
 26 56  1  0
 26 57  1  0
 28 58  1  0
 29 59  1  0
 30 60  1  0
 31 61  1  0
 33 62  1  0
 33 63  1  0
 35 64  1  0
M  END
>  <UniqueID>  (27) 
594

>  <SMILES>  (27) 
c1cncc(CCNc2nc(N3CCc4ccccc4C3)nc(N3CCc4ccccc4C3)n2)c1

>  <Energy>  (27) 
72.72591798484763

>  <Genealogy>  (27) 
c1cncc(CCNc2nc(N3CCc4ccccc4C3)nc(N3CCc4ccccc4C3)n2)c1 (3D coordinates assigned)
c1cncc(CCNc2nc(N3CCc4ccccc4C3)nc(N3CCc4ccccc4C3)n2)c1 (nonaromatic ring conformer: 72.72591798484763 kcal/mol)

>  <smiles>  (27) 
c1cncc(CCNc2nc(N3CCc4ccccc4C3)nc(N3CCc4ccccc4C3)n2)c1

>  <score_type>  (27) 
oracle

>  <origin>  (27) 
autodockgpu

>  <m_score__min__energy>  (27) 
-10.68

>  <m_primary>  (27) 
energy

>  <meeko>  (27) 
{"free_energy": -9.64, "intermolecular_energy": -11.43, "internal_energy": -1.51, "cluster_size": 10, "cluster_id": 1, "rank_in_cluster": 10}

>  <energy>  (27) 
-9.74

>  <cluster_rmsd>  (27) 
1.97

>  <rmsd>  (27) 
269.38

>  <cluster>  (27) 
1

$$$$
RCQFLYQWKFFJSS-SREBMQDQNA-N
     RDKit          3D

 64 69  0  0  0  0  0  0  0  0999 V2000
  144.1580   74.8130  220.0580 C   0  0  0  0  0  0  0  0  0  0  0  0
  145.4770   74.6310  220.4770 C   0  0  0  0  0  0  0  0  0  0  0  0
  145.9610   73.3760  220.6820 N   0  0  0  0  0  0  0  0  0  0  0  0
  145.1870   72.2690  220.4960 C   0  0  0  0  0  0  0  0  0  0  0  0
  143.8550   72.4040  220.0680 C   0  0  0  0  0  0  0  0  0  0  0  0
  142.9870   71.1880  219.8520 C   0  0  0  0  0  0  0  0  0  0  0  0
  142.1200   71.3540  218.5920 C   0  0  0  0  0  0  0  0  0  0  0  0
  140.9450   72.1870  218.8610 N   0  0  0  0  0  0  0  0  0  0  0  0
  140.5970   72.6300  220.1790 C   0  0  0  0  0  0  0  0  0  0  0  0
  140.4200   73.9550  220.4180 N   0  0  0  0  0  0  0  0  0  0  0  0
  140.0780   74.3900  221.6600 C   0  0  0  0  0  0  0  0  0  0  0  0
  139.8380   75.7880  221.9050 N   0  0  0  0  0  0  0  0  0  0  0  0
  138.5540   76.2060  222.5030 C   0  0  0  0  0  0  0  0  0  0  0  0
  138.2920   77.7020  222.3100 C   0  0  0  0  0  0  0  0  0  0  0  0
  139.4940   78.4900  222.7380 C   0  0  0  0  0  0  0  0  0  0  0  0
  139.3650   79.6950  223.4470 C   0  0  0  0  0  0  0  0  0  0  0  0
  140.5060   80.4200  223.8090 C   0  0  0  0  0  0  0  0  0  0  0  0
  141.7740   79.9570  223.4440 C   0  0  0  0  0  0  0  0  0  0  0  0
  141.9070   78.7690  222.7210 C   0  0  0  0  0  0  0  0  0  0  0  0
  140.7680   78.0230  222.3760 C   0  0  0  0  0  0  0  0  0  0  0  0
  140.8860   76.7670  221.5540 C   0  0  0  0  0  0  0  0  0  0  0  0
  139.9530   73.4900  222.6700 N   0  0  0  0  0  0  0  0  0  0  0  0
  140.1500   72.1650  222.4480 C   0  0  0  0  0  0  0  0  0  0  0  0
  140.0730   71.2240  223.5380 N   0  0  0  0  0  0  0  0  0  0  0  0
  138.9380   70.2860  223.5920 C   0  0  0  0  0  0  0  0  0  0  0  0
  139.2590   69.0620  224.4470 C   0  0  0  0  0  0  0  0  0  0  0  0
  139.7510   69.4950  225.7950 C   0  0  0  0  0  0  0  0  0  0  0  0
  139.4020   68.7770  226.9510 C   0  0  0  0  0  0  0  0  0  0  0  0
  139.8780   69.1840  228.2000 C   0  0  0  0  0  0  0  0  0  0  0  0
  140.7210   70.2960  228.2990 C   0  0  0  0  0  0  0  0  0  0  0  0
  141.0880   71.0020  227.1490 C   0  0  0  0  0  0  0  0  0  0  0  0
  140.6010   70.6110  225.8910 C   0  0  0  0  0  0  0  0  0  0  0  0
  141.0440   71.3390  224.6450 C   0  0  0  0  0  0  0  0  0  0  0  0
  140.4590   71.7410  221.1950 N   0  0  0  0  0  0  0  0  0  0  0  0
  143.3470   73.6940  219.8470 C   0  0  0  0  0  0  0  0  0  0  0  0
  143.7610   75.8259  219.8956 H   0  0  0  0  0  0  0  0  0  0  0  0
  146.1262   75.5036  220.6417 H   0  0  0  0  0  0  0  0  0  0  0  0
  145.6056   71.2688  220.6812 H   0  0  0  0  0  0  0  0  0  0  0  0
  143.6291   70.3027  219.7342 H   0  0  0  0  0  0  0  0  0  0  0  0
  142.3254   71.0673  220.7225 H   0  0  0  0  0  0  0  0  0  0  0  0
  142.7220   71.8276  217.8025 H   0  0  0  0  0  0  0  0  0  0  0  0
  141.7751   70.3591  218.2740 H   0  0  0  0  0  0  0  0  0  0  0  0
  140.2310   72.2850  218.1040 H   0  0  0  0  0  0  0  0  0  0  0  0
  137.7398   75.6387  222.0285 H   0  0  0  0  0  0  0  0  0  0  0  0
  138.6011   76.0057  223.5836 H   0  0  0  0  0  0  0  0  0  0  0  0
  138.0839   77.9019  221.2485 H   0  0  0  0  0  0  0  0  0  0  0  0
  137.4272   78.0000  222.9210 H   0  0  0  0  0  0  0  0  0  0  0  0
  138.3668   80.0693  223.7180 H   0  0  0  0  0  0  0  0  0  0  0  0
  140.4053   81.3543  224.3808 H   0  0  0  0  0  0  0  0  0  0  0  0
  142.6694   80.5299  223.7270 H   0  0  0  0  0  0  0  0  0  0  0  0
  142.9053   78.4173  222.4214 H   0  0  0  0  0  0  0  0  0  0  0  0
  140.7900   77.0266  220.4894 H   0  0  0  0  0  0  0  0  0  0  0  0
  141.8658   76.3114  221.7601 H   0  0  0  0  0  0  0  0  0  0  0  0
  138.0678   70.8034  224.0221 H   0  0  0  0  0  0  0  0  0  0  0  0
  138.7260   69.9440  222.5683 H   0  0  0  0  0  0  0  0  0  0  0  0
  138.3505   68.4538  224.5686 H   0  0  0  0  0  0  0  0  0  0  0  0
  140.0406   68.4685  223.9501 H   0  0  0  0  0  0  0  0  0  0  0  0
  138.7526   67.8926  226.8727 H   0  0  0  0  0  0  0  0  0  0  0  0
  139.5899   68.6300  229.1056 H   0  0  0  0  0  0  0  0  0  0  0  0
  141.0956   70.6155  229.2827 H   0  0  0  0  0  0  0  0  0  0  0  0
  141.7615   71.8679  227.2301 H   0  0  0  0  0  0  0  0  0  0  0  0
  141.1750   72.4038  224.8881 H   0  0  0  0  0  0  0  0  0  0  0  0
  141.9845   70.8778  224.3092 H   0  0  0  0  0  0  0  0  0  0  0  0
  142.3090   73.8245  219.5072 H   0  0  0  0  0  0  0  0  0  0  0  0
  1  2  2  0
  2  3  1  0
  3  4  2  0
  4  5  1  0
  5  6  1  0
  6  7  1  0
  7  8  1  0
  8  9  1  0
  9 10  2  0
 10 11  1  0
 11 12  1  0
 12 13  1  0
 13 14  1  0
 14 15  1  0
 15 16  2  0
 16 17  1  0
 17 18  2  0
 18 19  1  0
 19 20  2  0
 20 21  1  0
 11 22  2  0
 22 23  1  0
 23 24  1  0
 24 25  1  0
 25 26  1  0
 26 27  1  0
 27 28  2  0
 28 29  1  0
 29 30  2  0
 30 31  1  0
 31 32  2  0
 32 33  1  0
 23 34  2  0
  5 35  2  0
 35  1  1  0
 34  9  1  0
 21 12  1  0
 33 24  1  0
 20 15  1  0
 32 27  1  0
  1 36  1  0
  2 37  1  0
  4 38  1  0
  6 39  1  0
  6 40  1  0
  7 41  1  0
  7 42  1  0
  8 43  1  0
 13 44  1  0
 13 45  1  0
 14 46  1  0
 14 47  1  0
 16 48  1  0
 17 49  1  0
 18 50  1  0
 19 51  1  0
 21 52  1  0
 21 53  1  0
 25 54  1  0
 25 55  1  0
 26 56  1  0
 26 57  1  0
 28 58  1  0
 29 59  1  0
 30 60  1  0
 31 61  1  0
 33 62  1  0
 33 63  1  0
 35 64  1  0
M  END
>  <UniqueID>  (28) 
594

>  <SMILES>  (28) 
c1cncc(CCNc2nc(N3CCc4ccccc4C3)nc(N3CCc4ccccc4C3)n2)c1

>  <Energy>  (28) 
72.72591798484763

>  <Genealogy>  (28) 
c1cncc(CCNc2nc(N3CCc4ccccc4C3)nc(N3CCc4ccccc4C3)n2)c1 (3D coordinates assigned)
c1cncc(CCNc2nc(N3CCc4ccccc4C3)nc(N3CCc4ccccc4C3)n2)c1 (nonaromatic ring conformer: 72.72591798484763 kcal/mol)

>  <smiles>  (28) 
c1cncc(CCNc2nc(N3CCc4ccccc4C3)nc(N3CCc4ccccc4C3)n2)c1

>  <score_type>  (28) 
oracle

>  <origin>  (28) 
autodockgpu

>  <m_score__min__energy>  (28) 
-10.68

>  <m_primary>  (28) 
energy

>  <meeko>  (28) 
{"free_energy": -9.74, "intermolecular_energy": -11.53, "internal_energy": -1.16, "cluster_size": 10, "cluster_id": 1, "rank_in_cluster": 7}

>  <energy>  (28) 
-9.71

>  <cluster_rmsd>  (28) 
1.8

>  <rmsd>  (28) 
269.29

>  <cluster>  (28) 
1

$$$$
RCQFLYQWKFFJSS-SREBMQDQNA-N
     RDKit          3D

 64 69  0  0  0  0  0  0  0  0999 V2000
  145.4790   74.1040  221.0800 C   0  0  0  0  0  0  0  0  0  0  0  0
  146.3340   73.0540  220.7410 C   0  0  0  0  0  0  0  0  0  0  0  0
  146.1140   72.3350  219.6060 N   0  0  0  0  0  0  0  0  0  0  0  0
  145.0660   72.6050  218.7780 C   0  0  0  0  0  0  0  0  0  0  0  0
  144.1840   73.6560  219.0760 C   0  0  0  0  0  0  0  0  0  0  0  0
  143.0220   73.9710  218.1650 C   0  0  0  0  0  0  0  0  0  0  0  0
  142.1210   72.7380  217.9850 C   0  0  0  0  0  0  0  0  0  0  0  0
  140.7540   73.0060  218.4410 N   0  0  0  0  0  0  0  0  0  0  0  0
  140.4520   73.4050  219.7840 C   0  0  0  0  0  0  0  0  0  0  0  0
  140.1320   72.4650  220.7090 N   0  0  0  0  0  0  0  0  0  0  0  0
  139.8550   72.8260  221.9900 C   0  0  0  0  0  0  0  0  0  0  0  0
  139.5670   71.8270  222.9860 N   0  0  0  0  0  0  0  0  0  0  0  0
  138.5770   70.7730  222.6860 C   0  0  0  0  0  0  0  0  0  0  0  0
  138.0880   70.0680  223.9540 C   0  0  0  0  0  0  0  0  0  0  0  0
  139.2610   69.6390  224.7850 C   0  0  0  0  0  0  0  0  0  0  0  0
  139.2780   68.3990  225.4430 C   0  0  0  0  0  0  0  0  0  0  0  0
  140.3770   68.0400  226.2310 C   0  0  0  0  0  0  0  0  0  0  0  0
  141.4480   68.9260  226.3840 C   0  0  0  0  0  0  0  0  0  0  0  0
  141.4270   70.1700  225.7470 C   0  0  0  0  0  0  0  0  0  0  0  0
  140.3390   70.5270  224.9340 C   0  0  0  0  0  0  0  0  0  0  0  0
  140.2740   71.8820  224.2810 C   0  0  0  0  0  0  0  0  0  0  0  0
  139.8640   74.1420  222.3280 N   0  0  0  0  0  0  0  0  0  0  0  0
  140.1610   75.0940  221.4060 C   0  0  0  0  0  0  0  0  0  0  0  0
  140.1100   76.4910  221.7590 N   0  0  0  0  0  0  0  0  0  0  0  0
  139.2170   77.3850  221.0020 C   0  0  0  0  0  0  0  0  0  0  0  0
  138.8790   78.6460  221.7950 C   0  0  0  0  0  0  0  0  0  0  0  0
  140.1400   79.3060  222.2660 C   0  0  0  0  0  0  0  0  0  0  0  0
  140.2480   80.7060  222.2980 C   0  0  0  0  0  0  0  0  0  0  0  0
  141.4240   81.3090  222.7520 C   0  0  0  0  0  0  0  0  0  0  0  0
  142.4900   80.5190  223.1940 C   0  0  0  0  0  0  0  0  0  0  0  0
  142.3800   79.1240  223.1840 C   0  0  0  0  0  0  0  0  0  0  0  0
  141.2080   78.5090  222.7140 C   0  0  0  0  0  0  0  0  0  0  0  0
  141.0700   77.0060  222.7560 C   0  0  0  0  0  0  0  0  0  0  0  0
  140.4680   74.7160  220.1370 N   0  0  0  0  0  0  0  0  0  0  0  0
  144.4040   74.4090  220.2410 C   0  0  0  0  0  0  0  0  0  0  0  0
  145.6497   74.6853  221.9981 H   0  0  0  0  0  0  0  0  0  0  0  0
  147.1862   72.8073  221.3914 H   0  0  0  0  0  0  0  0  0  0  0  0
  144.9106   71.9980  217.8739 H   0  0  0  0  0  0  0  0  0  0  0  0
  142.4312   74.7888  218.6033 H   0  0  0  0  0  0  0  0  0  0  0  0
  143.4149   74.2679  217.1814 H   0  0  0  0  0  0  0  0  0  0  0  0
  142.0963   72.4647  216.9198 H   0  0  0  0  0  0  0  0  0  0  0  0
  142.5333   71.9158  218.5883 H   0  0  0  0  0  0  0  0  0  0  0  0
  139.9640   72.6970  217.8290 H   0  0  0  0  0  0  0  0  0  0  0  0
  137.7146   71.2299  222.1786 H   0  0  0  0  0  0  0  0  0  0  0  0
  139.0633   70.0222  222.0458 H   0  0  0  0  0  0  0  0  0  0  0  0
  137.4615   70.7591  224.5369 H   0  0  0  0  0  0  0  0  0  0  0  0
  137.5009   69.1816  223.6717 H   0  0  0  0  0  0  0  0  0  0  0  0
  138.4272   67.7096  225.3390 H   0  0  0  0  0  0  0  0  0  0  0  0
  140.3986   67.0602  226.7305 H   0  0  0  0  0  0  0  0  0  0  0  0
  142.3092   68.6433  227.0072 H   0  0  0  0  0  0  0  0  0  0  0  0
  142.2641   70.8706  225.8827 H   0  0  0  0  0  0  0  0  0  0  0  0
  139.7421   72.5753  224.9491 H   0  0  0  0  0  0  0  0  0  0  0  0
  141.3027   72.2256  224.0975 H   0  0  0  0  0  0  0  0  0  0  0  0
  139.7137   77.6754  220.0645 H   0  0  0  0  0  0  0  0  0  0  0  0
  138.2805   76.8447  220.7996 H   0  0  0  0  0  0  0  0  0  0  0  0
  138.3210   79.3426  221.1520 H   0  0  0  0  0  0  0  0  0  0  0  0
  138.2662   78.3723  222.6665 H   0  0  0  0  0  0  0  0  0  0  0  0
  139.4050   81.3292  221.9649 H   0  0  0  0  0  0  0  0  0  0  0  0
  141.5113   82.4055  222.7617 H   0  0  0  0  0  0  0  0  0  0  0  0
  143.4158   80.9946  223.5498 H   0  0  0  0  0  0  0  0  0  0  0  0
  143.2152   78.5063  223.5459 H   0  0  0  0  0  0  0  0  0  0  0  0
  142.0549   76.5571  222.5600 H   0  0  0  0  0  0  0  0  0  0  0  0
  140.6894   76.7362  223.7522 H   0  0  0  0  0  0  0  0  0  0  0  0
  143.7290   75.2401  220.4933 H   0  0  0  0  0  0  0  0  0  0  0  0
  1  2  2  0
  2  3  1  0
  3  4  2  0
  4  5  1  0
  5  6  1  0
  6  7  1  0
  7  8  1  0
  8  9  1  0
  9 10  2  0
 10 11  1  0
 11 12  1  0
 12 13  1  0
 13 14  1  0
 14 15  1  0
 15 16  2  0
 16 17  1  0
 17 18  2  0
 18 19  1  0
 19 20  2  0
 20 21  1  0
 11 22  2  0
 22 23  1  0
 23 24  1  0
 24 25  1  0
 25 26  1  0
 26 27  1  0
 27 28  2  0
 28 29  1  0
 29 30  2  0
 30 31  1  0
 31 32  2  0
 32 33  1  0
 23 34  2  0
  5 35  2  0
 35  1  1  0
 34  9  1  0
 21 12  1  0
 33 24  1  0
 20 15  1  0
 32 27  1  0
  1 36  1  0
  2 37  1  0
  4 38  1  0
  6 39  1  0
  6 40  1  0
  7 41  1  0
  7 42  1  0
  8 43  1  0
 13 44  1  0
 13 45  1  0
 14 46  1  0
 14 47  1  0
 16 48  1  0
 17 49  1  0
 18 50  1  0
 19 51  1  0
 21 52  1  0
 21 53  1  0
 25 54  1  0
 25 55  1  0
 26 56  1  0
 26 57  1  0
 28 58  1  0
 29 59  1  0
 30 60  1  0
 31 61  1  0
 33 62  1  0
 33 63  1  0
 35 64  1  0
M  END
>  <UniqueID>  (29) 
594

>  <SMILES>  (29) 
c1cncc(CCNc2nc(N3CCc4ccccc4C3)nc(N3CCc4ccccc4C3)n2)c1

>  <Energy>  (29) 
72.72591798484763

>  <Genealogy>  (29) 
c1cncc(CCNc2nc(N3CCc4ccccc4C3)nc(N3CCc4ccccc4C3)n2)c1 (3D coordinates assigned)
c1cncc(CCNc2nc(N3CCc4ccccc4C3)nc(N3CCc4ccccc4C3)n2)c1 (nonaromatic ring conformer: 72.72591798484763 kcal/mol)

>  <smiles>  (29) 
c1cncc(CCNc2nc(N3CCc4ccccc4C3)nc(N3CCc4ccccc4C3)n2)c1

>  <score_type>  (29) 
oracle

>  <origin>  (29) 
autodockgpu

>  <m_score__min__energy>  (29) 
-10.68

>  <m_primary>  (29) 
energy

>  <meeko>  (29) 
{"free_energy": -9.73, "intermolecular_energy": -11.52, "internal_energy": -1.2, "cluster_size": 10, "cluster_id": 2, "rank_in_cluster": 6}

>  <energy>  (29) 
-9.69

>  <cluster_rmsd>  (29) 
1.94

>  <rmsd>  (29) 
269.23

>  <cluster>  (29) 
1

$$$$
RCQFLYQWKFFJSS-SREBMQDQNA-N
     RDKit          3D

 64 69  0  0  0  0  0  0  0  0999 V2000
  144.9600   73.7410  220.8920 C   0  0  0  0  0  0  0  0  0  0  0  0
  145.9910   73.6240  219.9590 C   0  0  0  0  0  0  0  0  0  0  0  0
  145.9630   72.6280  219.0320 N   0  0  0  0  0  0  0  0  0  0  0  0
  144.9480   71.7190  218.9870 C   0  0  0  0  0  0  0  0  0  0  0  0
  143.8860   71.8010  219.9030 C   0  0  0  0  0  0  0  0  0  0  0  0
  142.7520   70.8060  219.8620 C   0  0  0  0  0  0  0  0  0  0  0  0
  141.8360   71.0730  218.6560 C   0  0  0  0  0  0  0  0  0  0  0  0
  140.9990   72.2560  218.8740 N   0  0  0  0  0  0  0  0  0  0  0  0
  140.6360   72.7150  220.1830 C   0  0  0  0  0  0  0  0  0  0  0  0
  140.4800   74.0440  220.4110 N   0  0  0  0  0  0  0  0  0  0  0  0
  140.1240   74.4940  221.6430 C   0  0  0  0  0  0  0  0  0  0  0  0
  139.9060   75.8980  221.8750 N   0  0  0  0  0  0  0  0  0  0  0  0
  138.6100   76.3470  222.4220 C   0  0  0  0  0  0  0  0  0  0  0  0
  138.3890   77.8480  222.2150 C   0  0  0  0  0  0  0  0  0  0  0  0
  139.5910   78.6110  222.6860 C   0  0  0  0  0  0  0  0  0  0  0  0
  139.4630   79.8210  223.3860 C   0  0  0  0  0  0  0  0  0  0  0  0
  140.6050   80.5210  223.7880 C   0  0  0  0  0  0  0  0  0  0  0  0
  141.8760   80.0300  223.4730 C   0  0  0  0  0  0  0  0  0  0  0  0
  142.0090   78.8350  222.7590 C   0  0  0  0  0  0  0  0  0  0  0  0
  140.8670   78.1140  222.3730 C   0  0  0  0  0  0  0  0  0  0  0  0
  140.9880   76.8520  221.5600 C   0  0  0  0  0  0  0  0  0  0  0  0
  139.9640   73.6040  222.6570 N   0  0  0  0  0  0  0  0  0  0  0  0
  140.1400   72.2730  222.4470 C   0  0  0  0  0  0  0  0  0  0  0  0
  140.0250   71.3420  223.5420 N   0  0  0  0  0  0  0  0  0  0  0  0
  138.9070   70.3830  223.5490 C   0  0  0  0  0  0  0  0  0  0  0  0
  139.2070   69.1730  224.4310 C   0  0  0  0  0  0  0  0  0  0  0  0
  139.6220   69.6290  225.7980 C   0  0  0  0  0  0  0  0  0  0  0  0
  139.2290   68.9160  226.9420 C   0  0  0  0  0  0  0  0  0  0  0  0
  139.6340   69.3440  228.2090 C   0  0  0  0  0  0  0  0  0  0  0  0
  140.4500   70.4720  228.3390 C   0  0  0  0  0  0  0  0  0  0  0  0
  140.8620   71.1740  227.2010 C   0  0  0  0  0  0  0  0  0  0  0  0
  140.4460   70.7610  225.9240 C   0  0  0  0  0  0  0  0  0  0  0  0
  140.9370   71.4860  224.6940 C   0  0  0  0  0  0  0  0  0  0  0  0
  140.4630   71.8350  221.2020 N   0  0  0  0  0  0  0  0  0  0  0  0
  143.9020   72.8290  220.8600 C   0  0  0  0  0  0  0  0  0  0  0  0
  144.9800   74.5428  221.6448 H   0  0  0  0  0  0  0  0  0  0  0  0
  146.8277   74.3380  219.9728 H   0  0  0  0  0  0  0  0  0  0  0  0
  144.9606   70.9194  218.2317 H   0  0  0  0  0  0  0  0  0  0  0  0
  143.1661   69.7900  219.7826 H   0  0  0  0  0  0  0  0  0  0  0  0
  142.1604   70.9068  220.7838 H   0  0  0  0  0  0  0  0  0  0  0  0
  142.4575   71.2336  217.7627 H   0  0  0  0  0  0  0  0  0  0  0  0
  141.1776   70.2022  218.5209 H   0  0  0  0  0  0  0  0  0  0  0  0
  140.4850   72.6510  218.0540 H   0  0  0  0  0  0  0  0  0  0  0  0
  137.8020   75.7963  221.9182 H   0  0  0  0  0  0  0  0  0  0  0  0
  138.6114   76.1499  223.5042 H   0  0  0  0  0  0  0  0  0  0  0  0
  138.2257   78.0485  221.1458 H   0  0  0  0  0  0  0  0  0  0  0  0
  137.5086   78.1672  222.7921 H   0  0  0  0  0  0  0  0  0  0  0  0
  138.4641   80.2187  223.6184 H   0  0  0  0  0  0  0  0  0  0  0  0
  140.5034   81.4594  224.3529 H   0  0  0  0  0  0  0  0  0  0  0  0
  142.7724   80.5846  223.7874 H   0  0  0  0  0  0  0  0  0  0  0  0
  143.0096   78.4590  222.4992 H   0  0  0  0  0  0  0  0  0  0  0  0
  140.9377   77.1091  220.4917 H   0  0  0  0  0  0  0  0  0  0  0  0
  141.9491   76.3758  221.8040 H   0  0  0  0  0  0  0  0  0  0  0  0
  138.0068   70.8875  223.9299 H   0  0  0  0  0  0  0  0  0  0  0  0
  138.7534   70.0275  222.5194 H   0  0  0  0  0  0  0  0  0  0  0  0
  138.3051   68.5486  224.5128 H   0  0  0  0  0  0  0  0  0  0  0  0
  140.0233   68.5894  223.9803 H   0  0  0  0  0  0  0  0  0  0  0  0
  138.6010   68.0186  226.8406 H   0  0  0  0  0  0  0  0  0  0  0  0
  139.3107   68.7932  229.1046 H   0  0  0  0  0  0  0  0  0  0  0  0
  140.7683   70.8078  229.3370 H   0  0  0  0  0  0  0  0  0  0  0  0
  141.5145   72.0532  227.3065 H   0  0  0  0  0  0  0  0  0  0  0  0
  141.0357   72.5553  224.9324 H   0  0  0  0  0  0  0  0  0  0  0  0
  141.9017   71.0401  224.4101 H   0  0  0  0  0  0  0  0  0  0  0  0
  143.0799   72.9162  221.5857 H   0  0  0  0  0  0  0  0  0  0  0  0
  1  2  2  0
  2  3  1  0
  3  4  2  0
  4  5  1  0
  5  6  1  0
  6  7  1  0
  7  8  1  0
  8  9  1  0
  9 10  2  0
 10 11  1  0
 11 12  1  0
 12 13  1  0
 13 14  1  0
 14 15  1  0
 15 16  2  0
 16 17  1  0
 17 18  2  0
 18 19  1  0
 19 20  2  0
 20 21  1  0
 11 22  2  0
 22 23  1  0
 23 24  1  0
 24 25  1  0
 25 26  1  0
 26 27  1  0
 27 28  2  0
 28 29  1  0
 29 30  2  0
 30 31  1  0
 31 32  2  0
 32 33  1  0
 23 34  2  0
  5 35  2  0
 35  1  1  0
 34  9  1  0
 21 12  1  0
 33 24  1  0
 20 15  1  0
 32 27  1  0
  1 36  1  0
  2 37  1  0
  4 38  1  0
  6 39  1  0
  6 40  1  0
  7 41  1  0
  7 42  1  0
  8 43  1  0
 13 44  1  0
 13 45  1  0
 14 46  1  0
 14 47  1  0
 16 48  1  0
 17 49  1  0
 18 50  1  0
 19 51  1  0
 21 52  1  0
 21 53  1  0
 25 54  1  0
 25 55  1  0
 26 56  1  0
 26 57  1  0
 28 58  1  0
 29 59  1  0
 30 60  1  0
 31 61  1  0
 33 62  1  0
 33 63  1  0
 35 64  1  0
M  END
>  <UniqueID>  (30) 
594

>  <SMILES>  (30) 
c1cncc(CCNc2nc(N3CCc4ccccc4C3)nc(N3CCc4ccccc4C3)n2)c1

>  <Energy>  (30) 
72.72591798484763

>  <Genealogy>  (30) 
c1cncc(CCNc2nc(N3CCc4ccccc4C3)nc(N3CCc4ccccc4C3)n2)c1 (3D coordinates assigned)
c1cncc(CCNc2nc(N3CCc4ccccc4C3)nc(N3CCc4ccccc4C3)n2)c1 (nonaromatic ring conformer: 72.72591798484763 kcal/mol)

>  <smiles>  (30) 
c1cncc(CCNc2nc(N3CCc4ccccc4C3)nc(N3CCc4ccccc4C3)n2)c1

>  <score_type>  (30) 
oracle

>  <origin>  (30) 
autodockgpu

>  <m_score__min__energy>  (30) 
-10.68

>  <m_primary>  (30) 
energy

>  <meeko>  (30) 
{"free_energy": -10.47, "intermolecular_energy": -12.26, "internal_energy": -1.25, "cluster_size": 10, "cluster_id": 1, "rank_in_cluster": 2}

>  <energy>  (30) 
-9.64

>  <cluster_rmsd>  (30) 
1.9

>  <rmsd>  (30) 
269.12

>  <cluster>  (30) 
1

$$$$
RCQFLYQWKFFJSS-SREBMQDQNA-N
     RDKit          3D

 64 69  0  0  0  0  0  0  0  0999 V2000
  145.0450   74.3070  220.6740 C   0  0  0  0  0  0  0  0  0  0  0  0
  146.1240   73.4540  220.9050 C   0  0  0  0  0  0  0  0  0  0  0  0
  146.3240   72.3730  220.1010 N   0  0  0  0  0  0  0  0  0  0  0  0
  145.4890   72.0870  219.0640 C   0  0  0  0  0  0  0  0  0  0  0  0
  144.3920   72.9220  218.7900 C   0  0  0  0  0  0  0  0  0  0  0  0
  143.4610   72.6210  217.6410 C   0  0  0  0  0  0  0  0  0  0  0  0
  142.4510   71.5280  218.0290 C   0  0  0  0  0  0  0  0  0  0  0  0
  141.1560   72.1070  218.3990 N   0  0  0  0  0  0  0  0  0  0  0  0
  140.9290   72.7470  219.6610 C   0  0  0  0  0  0  0  0  0  0  0  0
  140.4630   72.0210  220.7090 N   0  0  0  0  0  0  0  0  0  0  0  0
  140.2540   72.6110  221.9160 C   0  0  0  0  0  0  0  0  0  0  0  0
  139.8110   71.8330  223.0430 N   0  0  0  0  0  0  0  0  0  0  0  0
  138.5960   71.0040  222.9150 C   0  0  0  0  0  0  0  0  0  0  0  0
  138.0380   70.5890  224.2800 C   0  0  0  0  0  0  0  0  0  0  0  0
  139.1340   70.0100  225.1240 C   0  0  0  0  0  0  0  0  0  0  0  0
  138.9150   68.8880  225.9400 C   0  0  0  0  0  0  0  0  0  0  0  0
  139.9510   68.3880  226.7360 C   0  0  0  0  0  0  0  0  0  0  0  0
  141.1990   69.0180  226.7380 C   0  0  0  0  0  0  0  0  0  0  0  0
  141.4170   70.1470  225.9430 C   0  0  0  0  0  0  0  0  0  0  0  0
  140.3890   70.6400  225.1230 C   0  0  0  0  0  0  0  0  0  0  0  0
  140.5880   71.8840  224.2980 C   0  0  0  0  0  0  0  0  0  0  0  0
  140.4780   73.9440  222.0540 N   0  0  0  0  0  0  0  0  0  0  0  0
  140.9230   74.6850  221.0060 C   0  0  0  0  0  0  0  0  0  0  0  0
  141.1010   76.1100  221.1460 N   0  0  0  0  0  0  0  0  0  0  0  0
  141.7850   76.8510  220.0720 C   0  0  0  0  0  0  0  0  0  0  0  0
  141.4360   78.3370  220.1020 C   0  0  0  0  0  0  0  0  0  0  0  0
  141.6840   78.8910  221.4730 C   0  0  0  0  0  0  0  0  0  0  0  0
  142.1960   80.1880  221.6410 C   0  0  0  0  0  0  0  0  0  0  0  0
  142.4100   80.6980  222.9250 C   0  0  0  0  0  0  0  0  0  0  0  0
  142.0950   79.9240  224.0460 C   0  0  0  0  0  0  0  0  0  0  0  0
  141.5650   78.6390  223.8850 C   0  0  0  0  0  0  0  0  0  0  0  0
  141.3620   78.1120  222.5990 C   0  0  0  0  0  0  0  0  0  0  0  0
  140.7380   76.7480  222.4270 C   0  0  0  0  0  0  0  0  0  0  0  0
  141.1590   74.0760  219.8150 N   0  0  0  0  0  0  0  0  0  0  0  0
  144.1800   74.0430  219.6090 C   0  0  0  0  0  0  0  0  0  0  0  0
  144.8767   75.1786  221.3236 H   0  0  0  0  0  0  0  0  0  0  0  0
  146.8143   73.6546  221.7376 H   0  0  0  0  0  0  0  0  0  0  0  0
  145.6734   71.2005  218.4394 H   0  0  0  0  0  0  0  0  0  0  0  0
  142.9151   73.5366  217.3697 H   0  0  0  0  0  0  0  0  0  0  0  0
  144.0570   72.2639  216.7882 H   0  0  0  0  0  0  0  0  0  0  0  0
  142.3096   70.8508  217.1738 H   0  0  0  0  0  0  0  0  0  0  0  0
  142.8476   70.9809  218.8970 H   0  0  0  0  0  0  0  0  0  0  0  0
  140.3250   71.8620  217.8130 H   0  0  0  0  0  0  0  0  0  0  0  0
  137.8281   71.5799  222.3776 H   0  0  0  0  0  0  0  0  0  0  0  0
  138.8648   70.0897  222.3656 H   0  0  0  0  0  0  0  0  0  0  0  0
  137.6156   71.4704  224.7848 H   0  0  0  0  0  0  0  0  0  0  0  0
  137.2532   69.8319  224.1358 H   0  0  0  0  0  0  0  0  0  0  0  0
  137.9282   68.4021  225.9532 H   0  0  0  0  0  0  0  0  0  0  0  0
  139.7835   67.4983  227.3609 H   0  0  0  0  0  0  0  0  0  0  0  0
  142.0113   68.6244  227.3666 H   0  0  0  0  0  0  0  0  0  0  0  0
  142.3951   70.6500  225.9597 H   0  0  0  0  0  0  0  0  0  0  0  0
  140.2635   72.7567  224.8837 H   0  0  0  0  0  0  0  0  0  0  0  0
  141.6547   71.9593  224.0400 H   0  0  0  0  0  0  0  0  0  0  0  0
  142.8720   76.7373  220.1966 H   0  0  0  0  0  0  0  0  0  0  0  0
  141.4543   76.4400  219.1068 H   0  0  0  0  0  0  0  0  0  0  0  0
  142.0612   78.8734  219.3731 H   0  0  0  0  0  0  0  0  0  0  0  0
  140.3739   78.4652  219.8459 H   0  0  0  0  0  0  0  0  0  0  0  0
  142.4292   80.8041  220.7601 H   0  0  0  0  0  0  0  0  0  0  0  0
  142.8262   81.7081  223.0533 H   0  0  0  0  0  0  0  0  0  0  0  0
  142.2641   80.3258  225.0559 H   0  0  0  0  0  0  0  0  0  0  0  0
  141.3061   78.0388  224.7697 H   0  0  0  0  0  0  0  0  0  0  0  0
  141.0755   76.1008  223.2500 H   0  0  0  0  0  0  0  0  0  0  0  0
  139.6460   76.8803  222.4333 H   0  0  0  0  0  0  0  0  0  0  0  0
  143.3313   74.7144  219.4116 H   0  0  0  0  0  0  0  0  0  0  0  0
  1  2  2  0
  2  3  1  0
  3  4  2  0
  4  5  1  0
  5  6  1  0
  6  7  1  0
  7  8  1  0
  8  9  1  0
  9 10  2  0
 10 11  1  0
 11 12  1  0
 12 13  1  0
 13 14  1  0
 14 15  1  0
 15 16  2  0
 16 17  1  0
 17 18  2  0
 18 19  1  0
 19 20  2  0
 20 21  1  0
 11 22  2  0
 22 23  1  0
 23 24  1  0
 24 25  1  0
 25 26  1  0
 26 27  1  0
 27 28  2  0
 28 29  1  0
 29 30  2  0
 30 31  1  0
 31 32  2  0
 32 33  1  0
 23 34  2  0
  5 35  2  0
 35  1  1  0
 34  9  1  0
 21 12  1  0
 33 24  1  0
 20 15  1  0
 32 27  1  0
  1 36  1  0
  2 37  1  0
  4 38  1  0
  6 39  1  0
  6 40  1  0
  7 41  1  0
  7 42  1  0
  8 43  1  0
 13 44  1  0
 13 45  1  0
 14 46  1  0
 14 47  1  0
 16 48  1  0
 17 49  1  0
 18 50  1  0
 19 51  1  0
 21 52  1  0
 21 53  1  0
 25 54  1  0
 25 55  1  0
 26 56  1  0
 26 57  1  0
 28 58  1  0
 29 59  1  0
 30 60  1  0
 31 61  1  0
 33 62  1  0
 33 63  1  0
 35 64  1  0
M  END
>  <UniqueID>  (31) 
594

>  <SMILES>  (31) 
c1cncc(CCNc2nc(N3CCc4ccccc4C3)nc(N3CCc4ccccc4C3)n2)c1

>  <Energy>  (31) 
72.72591798484763

>  <Genealogy>  (31) 
c1cncc(CCNc2nc(N3CCc4ccccc4C3)nc(N3CCc4ccccc4C3)n2)c1 (3D coordinates assigned)
c1cncc(CCNc2nc(N3CCc4ccccc4C3)nc(N3CCc4ccccc4C3)n2)c1 (nonaromatic ring conformer: 72.72591798484763 kcal/mol)

>  <smiles>  (31) 
c1cncc(CCNc2nc(N3CCc4ccccc4C3)nc(N3CCc4ccccc4C3)n2)c1

>  <score_type>  (31) 
oracle

>  <origin>  (31) 
autodockgpu

>  <m_score__min__energy>  (31) 
-10.68

>  <m_primary>  (31) 
energy

>  <meeko>  (31) 
{"free_energy": -9.92, "intermolecular_energy": -11.71, "internal_energy": -1.43, "cluster_size": 10, "cluster_id": 1, "rank_in_cluster": 4}

>  <energy>  (31) 
-10.59

>  <cluster_rmsd>  (31) 
0.0

>  <rmsd>  (31) 
269.38

>  <cluster>  (31) 
2

$$$$
RCQFLYQWKFFJSS-SREBMQDQNA-N
     RDKit          3D

 64 69  0  0  0  0  0  0  0  0999 V2000
  140.8350   67.4160  227.2130 C   0  0  0  0  0  0  0  0  0  0  0  0
  140.8830   68.1960  228.3690 C   0  0  0  0  0  0  0  0  0  0  0  0
  140.4670   69.4920  228.3350 N   0  0  0  0  0  0  0  0  0  0  0  0
  140.0020   70.0660  227.1900 C   0  0  0  0  0  0  0  0  0  0  0  0
  139.9300   69.3170  226.0040 C   0  0  0  0  0  0  0  0  0  0  0  0
  139.4110   69.9370  224.7290 C   0  0  0  0  0  0  0  0  0  0  0  0
  139.8240   71.4160  224.6350 C   0  0  0  0  0  0  0  0  0  0  0  0
  139.4450   71.9940  223.3430 N   0  0  0  0  0  0  0  0  0  0  0  0
  140.3850   72.6570  222.4880 C   0  0  0  0  0  0  0  0  0  0  0  0
  141.3320   71.9330  221.8400 N   0  0  0  0  0  0  0  0  0  0  0  0
  142.2230   72.5460  221.0160 C   0  0  0  0  0  0  0  0  0  0  0  0
  143.1960   71.7750  220.2860 N   0  0  0  0  0  0  0  0  0  0  0  0
  144.5650   72.3040  220.1290 C   0  0  0  0  0  0  0  0  0  0  0  0
  145.3280   71.5940  219.0070 C   0  0  0  0  0  0  0  0  0  0  0  0
  145.2220   70.1080  219.1780 C   0  0  0  0  0  0  0  0  0  0  0  0
  146.3190   69.2630  218.9430 C   0  0  0  0  0  0  0  0  0  0  0  0
  146.1790   67.8780  219.0860 C   0  0  0  0  0  0  0  0  0  0  0  0
  144.9410   67.3320  219.4410 C   0  0  0  0  0  0  0  0  0  0  0  0
  143.8410   68.1670  219.6570 C   0  0  0  0  0  0  0  0  0  0  0  0
  143.9790   69.5600  219.5390 C   0  0  0  0  0  0  0  0  0  0  0  0
  142.7960   70.4730  219.7180 C   0  0  0  0  0  0  0  0  0  0  0  0
  142.1810   73.8970  220.8770 N   0  0  0  0  0  0  0  0  0  0  0  0
  141.2520   74.6350  221.5380 C   0  0  0  0  0  0  0  0  0  0  0  0
  141.2520   76.0730  221.4300 N   0  0  0  0  0  0  0  0  0  0  0  0
  141.8250   76.6980  220.2250 C   0  0  0  0  0  0  0  0  0  0  0  0
  141.2920   78.1140  220.0170 C   0  0  0  0  0  0  0  0  0  0  0  0
  141.4850   78.9200  221.2670 C   0  0  0  0  0  0  0  0  0  0  0  0
  141.8330   80.2790  221.1970 C   0  0  0  0  0  0  0  0  0  0  0  0
  141.9970   81.0220  222.3690 C   0  0  0  0  0  0  0  0  0  0  0  0
  141.7950   80.4190  223.6140 C   0  0  0  0  0  0  0  0  0  0  0  0
  141.4290   79.0700  223.6890 C   0  0  0  0  0  0  0  0  0  0  0  0
  141.2780   78.3110  222.5170 C   0  0  0  0  0  0  0  0  0  0  0  0
  140.8270   76.8720  222.5970 C   0  0  0  0  0  0  0  0  0  0  0  0
  140.3470   74.0050  222.3320 N   0  0  0  0  0  0  0  0  0  0  0  0
  140.3510   67.9770  226.0280 C   0  0  0  0  0  0  0  0  0  0  0  0
  141.1747   66.3700  227.2342 H   0  0  0  0  0  0  0  0  0  0  0  0
  141.2572   67.7635  229.3086 H   0  0  0  0  0  0  0  0  0  0  0  0
  139.6822   71.1185  227.1945 H   0  0  0  0  0  0  0  0  0  0  0  0
  139.8245   69.3914  223.8680 H   0  0  0  0  0  0  0  0  0  0  0  0
  138.3127   69.8762  224.7283 H   0  0  0  0  0  0  0  0  0  0  0  0
  139.3267   71.9786  225.4388 H   0  0  0  0  0  0  0  0  0  0  0  0
  140.9177   71.4779  224.7354 H   0  0  0  0  0  0  0  0  0  0  0  0
  138.4260   72.1070  223.1370 H   0  0  0  0  0  0  0  0  0  0  0  0
  144.5066   73.3773  219.8951 H   0  0  0  0  0  0  0  0  0  0  0  0
  145.1065   72.1315  221.0708 H   0  0  0  0  0  0  0  0  0  0  0  0
  144.8986   71.8808  218.0358 H   0  0  0  0  0  0  0  0  0  0  0  0
  146.3871   71.8883  219.0470 H   0  0  0  0  0  0  0  0  0  0  0  0
  147.2884   69.6900  218.6465 H   0  0  0  0  0  0  0  0  0  0  0  0
  147.0431   67.2181  218.9191 H   0  0  0  0  0  0  0  0  0  0  0  0
  144.8328   66.2428  219.5504 H   0  0  0  0  0  0  0  0  0  0  0  0
  142.8653   67.7324  219.9199 H   0  0  0  0  0  0  0  0  0  0  0  0
  142.3231   70.6407  218.7391 H   0  0  0  0  0  0  0  0  0  0  0  0
  142.0941   69.9939  220.4164 H   0  0  0  0  0  0  0  0  0  0  0  0
  142.9190   76.7406  220.3312 H   0  0  0  0  0  0  0  0  0  0  0  0
  141.5375   76.0913  219.3536 H   0  0  0  0  0  0  0  0  0  0  0  0
  141.8359   78.5905  219.1880 H   0  0  0  0  0  0  0  0  0  0  0  0
  140.2192   78.0661  219.7786 H   0  0  0  0  0  0  0  0  0  0  0  0
  141.9767   80.7592  220.2179 H   0  0  0  0  0  0  0  0  0  0  0  0
  142.2852   82.0820  222.3120 H   0  0  0  0  0  0  0  0  0  0  0  0
  141.9238   81.0053  224.5358 H   0  0  0  0  0  0  0  0  0  0  0  0
  141.2589   78.6024  224.6700 H   0  0  0  0  0  0  0  0  0  0  0  0
  141.2521   76.4205  223.5056 H   0  0  0  0  0  0  0  0  0  0  0  0
  139.7272   76.8704  222.6165 H   0  0  0  0  0  0  0  0  0  0  0  0
  140.2996   67.3686  225.1130 H   0  0  0  0  0  0  0  0  0  0  0  0
  1  2  2  0
  2  3  1  0
  3  4  2  0
  4  5  1  0
  5  6  1  0
  6  7  1  0
  7  8  1  0
  8  9  1  0
  9 10  2  0
 10 11  1  0
 11 12  1  0
 12 13  1  0
 13 14  1  0
 14 15  1  0
 15 16  2  0
 16 17  1  0
 17 18  2  0
 18 19  1  0
 19 20  2  0
 20 21  1  0
 11 22  2  0
 22 23  1  0
 23 24  1  0
 24 25  1  0
 25 26  1  0
 26 27  1  0
 27 28  2  0
 28 29  1  0
 29 30  2  0
 30 31  1  0
 31 32  2  0
 32 33  1  0
 23 34  2  0
  5 35  2  0
 35  1  1  0
 34  9  1  0
 21 12  1  0
 33 24  1  0
 20 15  1  0
 32 27  1  0
  1 36  1  0
  2 37  1  0
  4 38  1  0
  6 39  1  0
  6 40  1  0
  7 41  1  0
  7 42  1  0
  8 43  1  0
 13 44  1  0
 13 45  1  0
 14 46  1  0
 14 47  1  0
 16 48  1  0
 17 49  1  0
 18 50  1  0
 19 51  1  0
 21 52  1  0
 21 53  1  0
 25 54  1  0
 25 55  1  0
 26 56  1  0
 26 57  1  0
 28 58  1  0
 29 59  1  0
 30 60  1  0
 31 61  1  0
 33 62  1  0
 33 63  1  0
 35 64  1  0
M  END
>  <UniqueID>  (32) 
594

>  <SMILES>  (32) 
c1cncc(CCNc2nc(N3CCc4ccccc4C3)nc(N3CCc4ccccc4C3)n2)c1

>  <Energy>  (32) 
72.72591798484763

>  <Genealogy>  (32) 
c1cncc(CCNc2nc(N3CCc4ccccc4C3)nc(N3CCc4ccccc4C3)n2)c1 (3D coordinates assigned)
c1cncc(CCNc2nc(N3CCc4ccccc4C3)nc(N3CCc4ccccc4C3)n2)c1 (nonaromatic ring conformer: 72.72591798484763 kcal/mol)

>  <smiles>  (32) 
c1cncc(CCNc2nc(N3CCc4ccccc4C3)nc(N3CCc4ccccc4C3)n2)c1

>  <score_type>  (32) 
oracle

>  <origin>  (32) 
autodockgpu

>  <m_score__min__energy>  (32) 
-10.68

>  <m_primary>  (32) 
energy

>  <meeko>  (32) 
{"free_energy": -10.43, "intermolecular_energy": -12.22, "internal_energy": -0.79, "cluster_size": 10, "cluster_id": 1, "rank_in_cluster": 3}

>  <energy>  (32) 
-10.49

>  <cluster_rmsd>  (32) 
0.26

>  <rmsd>  (32) 
269.33

>  <cluster>  (32) 
2

$$$$
RCQFLYQWKFFJSS-SREBMQDQNA-N
     RDKit          3D

 64 69  0  0  0  0  0  0  0  0999 V2000
  145.4820   73.3520  221.1460 C   0  0  0  0  0  0  0  0  0  0  0  0
  145.2140   74.6000  220.5800 C   0  0  0  0  0  0  0  0  0  0  0  0
  144.1490   74.7570  219.7480 N   0  0  0  0  0  0  0  0  0  0  0  0
  143.3240   73.7180  219.4340 C   0  0  0  0  0  0  0  0  0  0  0  0
  143.5520   72.4460  219.9850 C   0  0  0  0  0  0  0  0  0  0  0  0
  142.6440   71.2870  219.6540 C   0  0  0  0  0  0  0  0  0  0  0  0
  141.7650   71.6140  218.4340 C   0  0  0  0  0  0  0  0  0  0  0  0
  140.5740   72.3730  218.8250 N   0  0  0  0  0  0  0  0  0  0  0  0
  140.3470   72.8160  220.1690 C   0  0  0  0  0  0  0  0  0  0  0  0
  140.2660   74.1450  220.4350 N   0  0  0  0  0  0  0  0  0  0  0  0
  140.0400   74.5810  221.7020 C   0  0  0  0  0  0  0  0  0  0  0  0
  139.9010   75.9870  221.9780 N   0  0  0  0  0  0  0  0  0  0  0  0
  138.7030   76.4680  222.6940 C   0  0  0  0  0  0  0  0  0  0  0  0
  138.5090   77.9790  222.5380 C   0  0  0  0  0  0  0  0  0  0  0  0
  139.7870   78.6940  222.8600 C   0  0  0  0  0  0  0  0  0  0  0  0
  139.7910   79.8950  223.5870 C   0  0  0  0  0  0  0  0  0  0  0  0
  140.9990   80.5510  223.8480 C   0  0  0  0  0  0  0  0  0  0  0  0
  142.2010   80.0240  223.3650 C   0  0  0  0  0  0  0  0  0  0  0  0
  142.2000   78.8380  222.6240 C   0  0  0  0  0  0  0  0  0  0  0  0
  140.9950   78.1610  222.3780 C   0  0  0  0  0  0  0  0  0  0  0  0
  140.9670   76.9110  221.5400 C   0  0  0  0  0  0  0  0  0  0  0  0
  139.9320   73.6750  222.7090 N   0  0  0  0  0  0  0  0  0  0  0  0
  140.0320   72.3440  222.4590 C   0  0  0  0  0  0  0  0  0  0  0  0
  139.9760   71.3930  223.5420 N   0  0  0  0  0  0  0  0  0  0  0  0
  138.9140   70.3720  223.5400 C   0  0  0  0  0  0  0  0  0  0  0  0
  139.2860   69.1700  224.4050 C   0  0  0  0  0  0  0  0  0  0  0  0
  139.6800   69.6310  225.7770 C   0  0  0  0  0  0  0  0  0  0  0  0
  139.3320   68.8820  226.9120 C   0  0  0  0  0  0  0  0  0  0  0  0
  139.7170   69.3160  228.1840 C   0  0  0  0  0  0  0  0  0  0  0  0
  140.4670   70.4870  228.3260 C   0  0  0  0  0  0  0  0  0  0  0  0
  140.8340   71.2260  227.1970 C   0  0  0  0  0  0  0  0  0  0  0  0
  140.4380   70.8070  225.9160 C   0  0  0  0  0  0  0  0  0  0  0  0
  140.8820   71.5750  224.6940 C   0  0  0  0  0  0  0  0  0  0  0  0
  140.2270   71.9210  221.1830 N   0  0  0  0  0  0  0  0  0  0  0  0
  144.6440   72.2740  220.8510 C   0  0  0  0  0  0  0  0  0  0  0  0
  146.3436   73.2192  221.8168 H   0  0  0  0  0  0  0  0  0  0  0  0
  145.8648   75.4573  220.8071 H   0  0  0  0  0  0  0  0  0  0  0  0
  142.4786   73.8759  218.7482 H   0  0  0  0  0  0  0  0  0  0  0  0
  143.2566   70.4011  219.4304 H   0  0  0  0  0  0  0  0  0  0  0  0
  141.9910   71.0922  220.5176 H   0  0  0  0  0  0  0  0  0  0  0  0
  142.3513   72.2101  217.7192 H   0  0  0  0  0  0  0  0  0  0  0  0
  141.4396   70.6680  217.9765 H   0  0  0  0  0  0  0  0  0  0  0  0
  139.7740   72.4100  218.1520 H   0  0  0  0  0  0  0  0  0  0  0  0
  137.8182   75.9530  222.2916 H   0  0  0  0  0  0  0  0  0  0  0  0
  138.8372   76.2516  223.7641 H   0  0  0  0  0  0  0  0  0  0  0  0
  138.2164   78.2040  221.5018 H   0  0  0  0  0  0  0  0  0  0  0  0
  137.7218   78.3160  223.2284 H   0  0  0  0  0  0  0  0  0  0  0  0
  138.8443   80.3203  223.9515 H   0  0  0  0  0  0  0  0  0  0  0  0
  141.0032   81.4821  224.4337 H   0  0  0  0  0  0  0  0  0  0  0  0
  143.1491   80.5434  223.5684 H   0  0  0  0  0  0  0  0  0  0  0  0
  143.1457   78.4346  222.2329 H   0  0  0  0  0  0  0  0  0  0  0  0
  140.7899   77.1886  220.4905 H   0  0  0  0  0  0  0  0  0  0  0  0
  141.9341   76.3991  221.6529 H   0  0  0  0  0  0  0  0  0  0  0  0
  137.9882   70.8196  223.9305 H   0  0  0  0  0  0  0  0  0  0  0  0
  138.7764   70.0217  222.5064 H   0  0  0  0  0  0  0  0  0  0  0  0
  138.4215   68.4942  224.4815 H   0  0  0  0  0  0  0  0  0  0  0  0
  140.1325   68.6400  223.9439 H   0  0  0  0  0  0  0  0  0  0  0  0
  138.7554   67.9519  226.8004 H   0  0  0  0  0  0  0  0  0  0  0  0
  139.4296   68.7358  229.0733 H   0  0  0  0  0  0  0  0  0  0  0  0
  140.7690   70.8277  229.3274 H   0  0  0  0  0  0  0  0  0  0  0  0
  141.4356   72.1397  227.3125 H   0  0  0  0  0  0  0  0  0  0  0  0
  140.9192   72.6451  224.9460 H   0  0  0  0  0  0  0  0  0  0  0  0
  141.8699   71.1894  224.4019 H   0  0  0  0  0  0  0  0  0  0  0  0
  144.8399   71.2882  221.2980 H   0  0  0  0  0  0  0  0  0  0  0  0
  1  2  2  0
  2  3  1  0
  3  4  2  0
  4  5  1  0
  5  6  1  0
  6  7  1  0
  7  8  1  0
  8  9  1  0
  9 10  2  0
 10 11  1  0
 11 12  1  0
 12 13  1  0
 13 14  1  0
 14 15  1  0
 15 16  2  0
 16 17  1  0
 17 18  2  0
 18 19  1  0
 19 20  2  0
 20 21  1  0
 11 22  2  0
 22 23  1  0
 23 24  1  0
 24 25  1  0
 25 26  1  0
 26 27  1  0
 27 28  2  0
 28 29  1  0
 29 30  2  0
 30 31  1  0
 31 32  2  0
 32 33  1  0
 23 34  2  0
  5 35  2  0
 35  1  1  0
 34  9  1  0
 21 12  1  0
 33 24  1  0
 20 15  1  0
 32 27  1  0
  1 36  1  0
  2 37  1  0
  4 38  1  0
  6 39  1  0
  6 40  1  0
  7 41  1  0
  7 42  1  0
  8 43  1  0
 13 44  1  0
 13 45  1  0
 14 46  1  0
 14 47  1  0
 16 48  1  0
 17 49  1  0
 18 50  1  0
 19 51  1  0
 21 52  1  0
 21 53  1  0
 25 54  1  0
 25 55  1  0
 26 56  1  0
 26 57  1  0
 28 58  1  0
 29 59  1  0
 30 60  1  0
 31 61  1  0
 33 62  1  0
 33 63  1  0
 35 64  1  0
M  END
>  <UniqueID>  (33) 
594

>  <SMILES>  (33) 
c1cncc(CCNc2nc(N3CCc4ccccc4C3)nc(N3CCc4ccccc4C3)n2)c1

>  <Energy>  (33) 
72.72591798484763

>  <Genealogy>  (33) 
c1cncc(CCNc2nc(N3CCc4ccccc4C3)nc(N3CCc4ccccc4C3)n2)c1 (3D coordinates assigned)
c1cncc(CCNc2nc(N3CCc4ccccc4C3)nc(N3CCc4ccccc4C3)n2)c1 (nonaromatic ring conformer: 72.72591798484763 kcal/mol)

>  <smiles>  (33) 
c1cncc(CCNc2nc(N3CCc4ccccc4C3)nc(N3CCc4ccccc4C3)n2)c1

>  <score_type>  (33) 
oracle

>  <origin>  (33) 
autodockgpu

>  <m_score__min__energy>  (33) 
-10.68

>  <m_primary>  (33) 
energy

>  <meeko>  (33) 
{"free_energy": -9.75, "intermolecular_energy": -11.54, "internal_energy": -1.38, "cluster_size": 10, "cluster_id": 1, "rank_in_cluster": 6}

>  <energy>  (33) 
-10.47

>  <cluster_rmsd>  (33) 
0.27

>  <rmsd>  (33) 
269.32

>  <cluster>  (33) 
2

$$$$
RCQFLYQWKFFJSS-SREBMQDQNA-N
     RDKit          3D

 64 69  0  0  0  0  0  0  0  0999 V2000
  145.1690   74.1500  220.8500 C   0  0  0  0  0  0  0  0  0  0  0  0
  146.2990   73.4240  220.4730 C   0  0  0  0  0  0  0  0  0  0  0  0
  146.2850   72.6840  219.3300 N   0  0  0  0  0  0  0  0  0  0  0  0
  145.1830   72.6200  218.5310 C   0  0  0  0  0  0  0  0  0  0  0  0
  144.0240   73.3400  218.8680 C   0  0  0  0  0  0  0  0  0  0  0  0
  142.7980   73.2850  217.9900 C   0  0  0  0  0  0  0  0  0  0  0  0
  141.9620   72.0320  218.2990 C   0  0  0  0  0  0  0  0  0  0  0  0
  140.6250   72.3890  218.7810 N   0  0  0  0  0  0  0  0  0  0  0  0
  140.3820   72.8480  220.1170 C   0  0  0  0  0  0  0  0  0  0  0  0
  140.3060   74.1810  220.3670 N   0  0  0  0  0  0  0  0  0  0  0  0
  140.0650   74.6320  221.6260 C   0  0  0  0  0  0  0  0  0  0  0  0
  139.9320   76.0420  221.8850 N   0  0  0  0  0  0  0  0  0  0  0  0
  138.6800   76.5510  222.4800 C   0  0  0  0  0  0  0  0  0  0  0  0
  138.5350   78.0650  222.3030 C   0  0  0  0  0  0  0  0  0  0  0  0
  139.7910   78.7540  222.7460 C   0  0  0  0  0  0  0  0  0  0  0  0
  139.7510   79.9580  223.4680 C   0  0  0  0  0  0  0  0  0  0  0  0
  140.9420   80.5880  223.8440 C   0  0  0  0  0  0  0  0  0  0  0  0
  142.1730   80.0330  223.4810 C   0  0  0  0  0  0  0  0  0  0  0  0
  142.2190   78.8450  222.7450 C   0  0  0  0  0  0  0  0  0  0  0  0
  141.0280   78.1930  222.3850 C   0  0  0  0  0  0  0  0  0  0  0  0
  141.0540   76.9410  221.5500 C   0  0  0  0  0  0  0  0  0  0  0  0
  139.9390   73.7380  222.6420 N   0  0  0  0  0  0  0  0  0  0  0  0
  140.0350   72.4030  222.4080 C   0  0  0  0  0  0  0  0  0  0  0  0
  139.9580   71.4650  223.5000 N   0  0  0  0  0  0  0  0  0  0  0  0
  138.9120   70.4290  223.4780 C   0  0  0  0  0  0  0  0  0  0  0  0
  139.2740   69.2430  224.3690 C   0  0  0  0  0  0  0  0  0  0  0  0
  139.6180   69.7260  225.7460 C   0  0  0  0  0  0  0  0  0  0  0  0
  139.2460   68.9850  226.8800 C   0  0  0  0  0  0  0  0  0  0  0  0
  139.5860   69.4400  228.1570 C   0  0  0  0  0  0  0  0  0  0  0  0
  140.3140   70.6240  228.3080 C   0  0  0  0  0  0  0  0  0  0  0  0
  140.7050   71.3550  227.1810 C   0  0  0  0  0  0  0  0  0  0  0  0
  140.3550   70.9140  225.8940 C   0  0  0  0  0  0  0  0  0  0  0  0
  140.8260   71.6740  224.6770 C   0  0  0  0  0  0  0  0  0  0  0  0
  140.2440   71.9650  221.1390 N   0  0  0  0  0  0  0  0  0  0  0  0
  144.0300   74.1120  220.0420 C   0  0  0  0  0  0  0  0  0  0  0  0
  145.1748   74.7464  221.7743 H   0  0  0  0  0  0  0  0  0  0  0  0
  147.2025   73.4494  221.0999 H   0  0  0  0  0  0  0  0  0  0  0  0
  145.2006   72.0034  217.6202 H   0  0  0  0  0  0  0  0  0  0  0  0
  142.1853   74.1808  218.1694 H   0  0  0  0  0  0  0  0  0  0  0  0
  143.1184   73.2451  216.9385 H   0  0  0  0  0  0  0  0  0  0  0  0
  141.8639   71.4318  217.3824 H   0  0  0  0  0  0  0  0  0  0  0  0
  142.4734   71.4592  219.0867 H   0  0  0  0  0  0  0  0  0  0  0  0
  139.8030   72.1040  218.2010 H   0  0  0  0  0  0  0  0  0  0  0  0
  137.8278   76.0534  221.9940 H   0  0  0  0  0  0  0  0  0  0  0  0
  138.7042   76.3357  223.5585 H   0  0  0  0  0  0  0  0  0  0  0  0
  138.3491   78.2920  221.2428 H   0  0  0  0  0  0  0  0  0  0  0  0
  137.6922   78.4216  222.9133 H   0  0  0  0  0  0  0  0  0  0  0  0
  138.7831   80.4056  223.7378 H   0  0  0  0  0  0  0  0  0  0  0  0
  140.9101   81.5210  224.4258 H   0  0  0  0  0  0  0  0  0  0  0  0
  143.1079   80.5324  223.7753 H   0  0  0  0  0  0  0  0  0  0  0  0
  143.1892   78.4204  222.4475 H   0  0  0  0  0  0  0  0  0  0  0  0
  140.9844   77.2186  220.4879 H   0  0  0  0  0  0  0  0  0  0  0  0
  141.9947   76.4092  221.7558 H   0  0  0  0  0  0  0  0  0  0  0  0
  137.9682   70.8676  223.8341 H   0  0  0  0  0  0  0  0  0  0  0  0
  138.8118   70.0643  222.4451 H   0  0  0  0  0  0  0  0  0  0  0  0
  138.4173   68.5554  224.4270 H   0  0  0  0  0  0  0  0  0  0  0  0
  140.1420   68.7200  223.9411 H   0  0  0  0  0  0  0  0  0  0  0  0
  138.6863   68.0453  226.7627 H   0  0  0  0  0  0  0  0  0  0  0  0
  139.2805   68.8659  229.0442 H   0  0  0  0  0  0  0  0  0  0  0  0
  140.5796   70.9812  229.3139 H   0  0  0  0  0  0  0  0  0  0  0  0
  141.2890   72.2791  227.3032 H   0  0  0  0  0  0  0  0  0  0  0  0
  140.8404   72.7474  224.9169 H   0  0  0  0  0  0  0  0  0  0  0  0
  141.8280   71.2997  224.4202 H   0  0  0  0  0  0  0  0  0  0  0  0
  143.1363   74.6874  220.3254 H   0  0  0  0  0  0  0  0  0  0  0  0
  1  2  2  0
  2  3  1  0
  3  4  2  0
  4  5  1  0
  5  6  1  0
  6  7  1  0
  7  8  1  0
  8  9  1  0
  9 10  2  0
 10 11  1  0
 11 12  1  0
 12 13  1  0
 13 14  1  0
 14 15  1  0
 15 16  2  0
 16 17  1  0
 17 18  2  0
 18 19  1  0
 19 20  2  0
 20 21  1  0
 11 22  2  0
 22 23  1  0
 23 24  1  0
 24 25  1  0
 25 26  1  0
 26 27  1  0
 27 28  2  0
 28 29  1  0
 29 30  2  0
 30 31  1  0
 31 32  2  0
 32 33  1  0
 23 34  2  0
  5 35  2  0
 35  1  1  0
 34  9  1  0
 21 12  1  0
 33 24  1  0
 20 15  1  0
 32 27  1  0
  1 36  1  0
  2 37  1  0
  4 38  1  0
  6 39  1  0
  6 40  1  0
  7 41  1  0
  7 42  1  0
  8 43  1  0
 13 44  1  0
 13 45  1  0
 14 46  1  0
 14 47  1  0
 16 48  1  0
 17 49  1  0
 18 50  1  0
 19 51  1  0
 21 52  1  0
 21 53  1  0
 25 54  1  0
 25 55  1  0
 26 56  1  0
 26 57  1  0
 28 58  1  0
 29 59  1  0
 30 60  1  0
 31 61  1  0
 33 62  1  0
 33 63  1  0
 35 64  1  0
M  END
>  <UniqueID>  (34) 
594

>  <SMILES>  (34) 
c1cncc(CCNc2nc(N3CCc4ccccc4C3)nc(N3CCc4ccccc4C3)n2)c1

>  <Energy>  (34) 
72.72591798484763

>  <Genealogy>  (34) 
c1cncc(CCNc2nc(N3CCc4ccccc4C3)nc(N3CCc4ccccc4C3)n2)c1 (3D coordinates assigned)
c1cncc(CCNc2nc(N3CCc4ccccc4C3)nc(N3CCc4ccccc4C3)n2)c1 (nonaromatic ring conformer: 72.72591798484763 kcal/mol)

>  <smiles>  (34) 
c1cncc(CCNc2nc(N3CCc4ccccc4C3)nc(N3CCc4ccccc4C3)n2)c1

>  <score_type>  (34) 
oracle

>  <origin>  (34) 
autodockgpu

>  <m_score__min__energy>  (34) 
-10.68

>  <m_primary>  (34) 
energy

>  <meeko>  (34) 
{"free_energy": -10.49, "intermolecular_energy": -12.28, "internal_energy": -1.21, "cluster_size": 10, "cluster_id": 2, "rank_in_cluster": 2}

>  <energy>  (34) 
-10.34

>  <cluster_rmsd>  (34) 
0.42

>  <rmsd>  (34) 
269.34

>  <cluster>  (34) 
2

$$$$
RCQFLYQWKFFJSS-SREBMQDQNA-N
     RDKit          3D

 64 69  0  0  0  0  0  0  0  0999 V2000
  142.0440   77.3370  217.6540 C   0  0  0  0  0  0  0  0  0  0  0  0
  142.5230   77.8570  218.8560 C   0  0  0  0  0  0  0  0  0  0  0  0
  143.3130   77.0950  219.6620 N   0  0  0  0  0  0  0  0  0  0  0  0
  143.6530   75.8170  219.3330 C   0  0  0  0  0  0  0  0  0  0  0  0
  143.1980   75.2540  218.1280 C   0  0  0  0  0  0  0  0  0  0  0  0
  143.5700   73.8420  217.7460 C   0  0  0  0  0  0  0  0  0  0  0  0
  144.1130   73.0740  218.9630 C   0  0  0  0  0  0  0  0  0  0  0  0
  143.0780   72.2270  219.5630 N   0  0  0  0  0  0  0  0  0  0  0  0
  142.1470   72.7170  220.5360 C   0  0  0  0  0  0  0  0  0  0  0  0
  141.5480   71.8500  221.3910 N   0  0  0  0  0  0  0  0  0  0  0  0
  140.6720   72.3000  222.3270 C   0  0  0  0  0  0  0  0  0  0  0  0
  140.0750   71.3900  223.2700 N   0  0  0  0  0  0  0  0  0  0  0  0
  139.1610   70.3390  222.7790 C   0  0  0  0  0  0  0  0  0  0  0  0
  138.3100   69.7480  223.9060 C   0  0  0  0  0  0  0  0  0  0  0  0
  139.1870   69.3590  225.0590 C   0  0  0  0  0  0  0  0  0  0  0  0
  138.9660   68.1740  225.7790 C   0  0  0  0  0  0  0  0  0  0  0  0
  139.7870   67.8530  226.8660 C   0  0  0  0  0  0  0  0  0  0  0  0
  140.8120   68.7230  227.2510 C   0  0  0  0  0  0  0  0  0  0  0  0
  141.0230   69.9130  226.5490 C   0  0  0  0  0  0  0  0  0  0  0  0
  140.2200   70.2300  225.4410 C   0  0  0  0  0  0  0  0  0  0  0  0
  140.3980   71.5310  224.7040 C   0  0  0  0  0  0  0  0  0  0  0  0
  140.3710   73.6240  222.3750 N   0  0  0  0  0  0  0  0  0  0  0  0
  140.9470   74.4990  221.5110 C   0  0  0  0  0  0  0  0  0  0  0  0
  140.5770   75.8930  221.5300 N   0  0  0  0  0  0  0  0  0  0  0  0
  139.8580   76.4560  220.3750 C   0  0  0  0  0  0  0  0  0  0  0  0
  139.0960   77.7260  220.7490 C   0  0  0  0  0  0  0  0  0  0  0  0
  140.0220   78.6970  221.4180 C   0  0  0  0  0  0  0  0  0  0  0  0
  139.9040   80.0770  221.1840 C   0  0  0  0  0  0  0  0  0  0  0  0
  140.7650   80.9730  221.8250 C   0  0  0  0  0  0  0  0  0  0  0  0
  141.7320   80.4980  222.7160 C   0  0  0  0  0  0  0  0  0  0  0  0
  141.8400   79.1260  222.9680 C   0  0  0  0  0  0  0  0  0  0  0  0
  140.9900   78.2170  222.3170 C   0  0  0  0  0  0  0  0  0  0  0  0
  141.0710   76.7430  222.6330 C   0  0  0  0  0  0  0  0  0  0  0  0
  141.8450   74.0390  220.6010 N   0  0  0  0  0  0  0  0  0  0  0  0
  142.3870   76.0330  217.2860 C   0  0  0  0  0  0  0  0  0  0  0  0
  141.4023   77.9474  217.0016 H   0  0  0  0  0  0  0  0  0  0  0  0
  142.2625   78.8835  219.1533 H   0  0  0  0  0  0  0  0  0  0  0  0
  144.2846   75.2249  220.0116 H   0  0  0  0  0  0  0  0  0  0  0  0
  142.6783   73.3252  217.3615 H   0  0  0  0  0  0  0  0  0  0  0  0
  144.3525   73.8793  216.9738 H   0  0  0  0  0  0  0  0  0  0  0  0
  144.9527   72.4403  218.6414 H   0  0  0  0  0  0  0  0  0  0  0  0
  144.4433   73.8049  219.7158 H   0  0  0  0  0  0  0  0  0  0  0  0
  143.1560   71.1920  219.4330 H   0  0  0  0  0  0  0  0  0  0  0  0
  138.4936   70.7744  222.0207 H   0  0  0  0  0  0  0  0  0  0  0  0
  139.7715   69.5291  222.3532 H   0  0  0  0  0  0  0  0  0  0  0  0
  137.5779   70.4974  224.2414 H   0  0  0  0  0  0  0  0  0  0  0  0
  137.7854   68.8558  223.5334 H   0  0  0  0  0  0  0  0  0  0  0  0
  138.1480   67.4983  225.4889 H   0  0  0  0  0  0  0  0  0  0  0  0
  139.6259   66.9153  227.4181 H   0  0  0  0  0  0  0  0  0  0  0  0
  141.4535   68.4702  228.1081 H   0  0  0  0  0  0  0  0  0  0  0  0
  141.8195   70.6027  226.8649 H   0  0  0  0  0  0  0  0  0  0  0  0
  139.7330   72.2867  225.1474 H   0  0  0  0  0  0  0  0  0  0  0  0
  141.4513   71.8358  224.7919 H   0  0  0  0  0  0  0  0  0  0  0  0
  140.5848   76.6958  219.5849 H   0  0  0  0  0  0  0  0  0  0  0  0
  139.1297   75.7088  220.0267 H   0  0  0  0  0  0  0  0  0  0  0  0
  138.6819   78.1845  219.8389 H   0  0  0  0  0  0  0  0  0  0  0  0
  138.2795   77.4688  221.4397 H   0  0  0  0  0  0  0  0  0  0  0  0
  139.1331   80.4533  220.4955 H   0  0  0  0  0  0  0  0  0  0  0  0
  140.6815   82.0520  221.6282 H   0  0  0  0  0  0  0  0  0  0  0  0
  142.4088   81.2039  223.2196 H   0  0  0  0  0  0  0  0  0  0  0  0
  142.5940   78.7576  223.6792 H   0  0  0  0  0  0  0  0  0  0  0  0
  142.1211   76.4837  222.8333 H   0  0  0  0  0  0  0  0  0  0  0  0
  140.4305   76.5561  223.5076 H   0  0  0  0  0  0  0  0  0  0  0  0
  142.0215   75.6162  216.3359 H   0  0  0  0  0  0  0  0  0  0  0  0
  1  2  2  0
  2  3  1  0
  3  4  2  0
  4  5  1  0
  5  6  1  0
  6  7  1  0
  7  8  1  0
  8  9  1  0
  9 10  2  0
 10 11  1  0
 11 12  1  0
 12 13  1  0
 13 14  1  0
 14 15  1  0
 15 16  2  0
 16 17  1  0
 17 18  2  0
 18 19  1  0
 19 20  2  0
 20 21  1  0
 11 22  2  0
 22 23  1  0
 23 24  1  0
 24 25  1  0
 25 26  1  0
 26 27  1  0
 27 28  2  0
 28 29  1  0
 29 30  2  0
 30 31  1  0
 31 32  2  0
 32 33  1  0
 23 34  2  0
  5 35  2  0
 35  1  1  0
 34  9  1  0
 21 12  1  0
 33 24  1  0
 20 15  1  0
 32 27  1  0
  1 36  1  0
  2 37  1  0
  4 38  1  0
  6 39  1  0
  6 40  1  0
  7 41  1  0
  7 42  1  0
  8 43  1  0
 13 44  1  0
 13 45  1  0
 14 46  1  0
 14 47  1  0
 16 48  1  0
 17 49  1  0
 18 50  1  0
 19 51  1  0
 21 52  1  0
 21 53  1  0
 25 54  1  0
 25 55  1  0
 26 56  1  0
 26 57  1  0
 28 58  1  0
 29 59  1  0
 30 60  1  0
 31 61  1  0
 33 62  1  0
 33 63  1  0
 35 64  1  0
M  END
>  <UniqueID>  (35) 
594

>  <SMILES>  (35) 
c1cncc(CCNc2nc(N3CCc4ccccc4C3)nc(N3CCc4ccccc4C3)n2)c1

>  <Energy>  (35) 
72.72591798484763

>  <Genealogy>  (35) 
c1cncc(CCNc2nc(N3CCc4ccccc4C3)nc(N3CCc4ccccc4C3)n2)c1 (3D coordinates assigned)
c1cncc(CCNc2nc(N3CCc4ccccc4C3)nc(N3CCc4ccccc4C3)n2)c1 (nonaromatic ring conformer: 72.72591798484763 kcal/mol)

>  <smiles>  (35) 
c1cncc(CCNc2nc(N3CCc4ccccc4C3)nc(N3CCc4ccccc4C3)n2)c1

>  <score_type>  (35) 
oracle

>  <origin>  (35) 
autodockgpu

>  <m_score__min__energy>  (35) 
-10.68

>  <m_primary>  (35) 
energy

>  <meeko>  (35) 
{"free_energy": -8.33, "intermolecular_energy": -10.12, "internal_energy": -1.87, "cluster_size": 10, "cluster_id": 2, "rank_in_cluster": 9}

>  <energy>  (35) 
-9.98

>  <cluster_rmsd>  (35) 
0.53

>  <rmsd>  (35) 
269.32

>  <cluster>  (35) 
2

$$$$
RCQFLYQWKFFJSS-SREBMQDQNA-N
     RDKit          3D

 64 69  0  0  0  0  0  0  0  0999 V2000
  142.7410   76.8630  217.5110 C   0  0  0  0  0  0  0  0  0  0  0  0
  142.9960   77.2620  218.8230 C   0  0  0  0  0  0  0  0  0  0  0  0
  143.4540   76.3600  219.7340 N   0  0  0  0  0  0  0  0  0  0  0  0
  143.6690   75.0550  219.4050 C   0  0  0  0  0  0  0  0  0  0  0  0
  143.4310   74.6090  218.0940 C   0  0  0  0  0  0  0  0  0  0  0  0
  143.6700   73.1690  217.7130 C   0  0  0  0  0  0  0  0  0  0  0  0
  143.3040   72.2290  218.8740 C   0  0  0  0  0  0  0  0  0  0  0  0
  141.8560   72.1980  219.0970 N   0  0  0  0  0  0  0  0  0  0  0  0
  141.2560   72.6020  220.3340 C   0  0  0  0  0  0  0  0  0  0  0  0
  140.9570   73.9100  220.5410 N   0  0  0  0  0  0  0  0  0  0  0  0
  140.3770   74.3080  221.7050 C   0  0  0  0  0  0  0  0  0  0  0  0
  140.0120   75.6860  221.9060 N   0  0  0  0  0  0  0  0  0  0  0  0
  138.6590   76.0080  222.4030 C   0  0  0  0  0  0  0  0  0  0  0  0
  138.2960   77.4770  222.1650 C   0  0  0  0  0  0  0  0  0  0  0  0
  139.3990   78.3630  222.6630 C   0  0  0  0  0  0  0  0  0  0  0  0
  139.1260   79.5630  223.3390 C   0  0  0  0  0  0  0  0  0  0  0  0
  140.1780   80.3790  223.7670 C   0  0  0  0  0  0  0  0  0  0  0  0
  141.5010   80.0140  223.5020 C   0  0  0  0  0  0  0  0  0  0  0  0
  141.7780   78.8310  222.8120 C   0  0  0  0  0  0  0  0  0  0  0  0
  140.7280   77.9930  222.4000 C   0  0  0  0  0  0  0  0  0  0  0  0
  141.0030   76.7400  221.6120 C   0  0  0  0  0  0  0  0  0  0  0  0
  140.1330   73.3890  222.6750 N   0  0  0  0  0  0  0  0  0  0  0  0
  140.4470   72.0810  222.4880 C   0  0  0  0  0  0  0  0  0  0  0  0
  140.2380   71.1240  223.5470 N   0  0  0  0  0  0  0  0  0  0  0  0
  139.0620   70.2390  223.4860 C   0  0  0  0  0  0  0  0  0  0  0  0
  139.2560   68.9840  224.3340 C   0  0  0  0  0  0  0  0  0  0  0  0
  139.6540   69.3680  225.7280 C   0  0  0  0  0  0  0  0  0  0  0  0
  139.1790   68.6440  226.8340 C   0  0  0  0  0  0  0  0  0  0  0  0
  139.5690   69.0040  228.1280 C   0  0  0  0  0  0  0  0  0  0  0  0
  140.4490   70.0730  228.3210 C   0  0  0  0  0  0  0  0  0  0  0  0
  140.9410   70.7840  227.2220 C   0  0  0  0  0  0  0  0  0  0  0  0
  140.5430   70.4410  225.9190 C   0  0  0  0  0  0  0  0  0  0  0  0
  141.1190   71.1720  224.7310 C   0  0  0  0  0  0  0  0  0  0  0  0
  140.9970   71.6930  221.3080 N   0  0  0  0  0  0  0  0  0  0  0  0
  142.9650   75.5330  217.1440 C   0  0  0  0  0  0  0  0  0  0  0  0
  142.3674   77.5877  216.7726 H   0  0  0  0  0  0  0  0  0  0  0  0
  142.8268   78.3070  219.1220 H   0  0  0  0  0  0  0  0  0  0  0  0
  144.0297   74.3492  220.1677 H   0  0  0  0  0  0  0  0  0  0  0  0
  143.0511   72.9199  216.8384 H   0  0  0  0  0  0  0  0  0  0  0  0
  144.7365   73.0391  217.4769 H   0  0  0  0  0  0  0  0  0  0  0  0
  143.6518   71.2130  218.6358 H   0  0  0  0  0  0  0  0  0  0  0  0
  143.7885   72.6015  219.7886 H   0  0  0  0  0  0  0  0  0  0  0  0
  141.2660   71.6720  218.4120 H   0  0  0  0  0  0  0  0  0  0  0  0
  137.9283   75.3724  221.8814 H   0  0  0  0  0  0  0  0  0  0  0  0
  138.6424   75.8248  223.4875 H   0  0  0  0  0  0  0  0  0  0  0  0
  138.1501   77.6467  221.0880 H   0  0  0  0  0  0  0  0  0  0  0  0
  137.3689   77.7133  222.7078 H   0  0  0  0  0  0  0  0  0  0  0  0
  138.0849   79.8612  223.5319 H   0  0  0  0  0  0  0  0  0  0  0  0
  139.9640   81.3096  224.3131 H   0  0  0  0  0  0  0  0  0  0  0  0
  142.3260   80.6596  223.8375 H   0  0  0  0  0  0  0  0  0  0  0  0
  142.8197   78.5552  222.5910 H   0  0  0  0  0  0  0  0  0  0  0  0
  140.9642   76.9773  220.5386 H   0  0  0  0  0  0  0  0  0  0  0  0
  141.9980   76.3662  221.8954 H   0  0  0  0  0  0  0  0  0  0  0  0
  138.1834   70.7874  223.8564 H   0  0  0  0  0  0  0  0  0  0  0  0
  138.9202   69.9282  222.4404 H   0  0  0  0  0  0  0  0  0  0  0  0
  138.3143   68.4164  224.3666 H   0  0  0  0  0  0  0  0  0  0  0  0
  140.0479   68.3640  223.8885 H   0  0  0  0  0  0  0  0  0  0  0  0
  138.4993   67.7926  226.6822 H   0  0  0  0  0  0  0  0  0  0  0  0
  139.1833   68.4460  228.9939 H   0  0  0  0  0  0  0  0  0  0  0  0
  140.7549   70.3553  229.3392 H   0  0  0  0  0  0  0  0  0  0  0  0
  141.6432   71.6161  227.3785 H   0  0  0  0  0  0  0  0  0  0  0  0
  141.2771   72.2245  225.0089 H   0  0  0  0  0  0  0  0  0  0  0  0
  142.0625   70.6746  224.4619 H   0  0  0  0  0  0  0  0  0  0  0  0
  142.7761   75.2094  216.1098 H   0  0  0  0  0  0  0  0  0  0  0  0
  1  2  2  0
  2  3  1  0
  3  4  2  0
  4  5  1  0
  5  6  1  0
  6  7  1  0
  7  8  1  0
  8  9  1  0
  9 10  2  0
 10 11  1  0
 11 12  1  0
 12 13  1  0
 13 14  1  0
 14 15  1  0
 15 16  2  0
 16 17  1  0
 17 18  2  0
 18 19  1  0
 19 20  2  0
 20 21  1  0
 11 22  2  0
 22 23  1  0
 23 24  1  0
 24 25  1  0
 25 26  1  0
 26 27  1  0
 27 28  2  0
 28 29  1  0
 29 30  2  0
 30 31  1  0
 31 32  2  0
 32 33  1  0
 23 34  2  0
  5 35  2  0
 35  1  1  0
 34  9  1  0
 21 12  1  0
 33 24  1  0
 20 15  1  0
 32 27  1  0
  1 36  1  0
  2 37  1  0
  4 38  1  0
  6 39  1  0
  6 40  1  0
  7 41  1  0
  7 42  1  0
  8 43  1  0
 13 44  1  0
 13 45  1  0
 14 46  1  0
 14 47  1  0
 16 48  1  0
 17 49  1  0
 18 50  1  0
 19 51  1  0
 21 52  1  0
 21 53  1  0
 25 54  1  0
 25 55  1  0
 26 56  1  0
 26 57  1  0
 28 58  1  0
 29 59  1  0
 30 60  1  0
 31 61  1  0
 33 62  1  0
 33 63  1  0
 35 64  1  0
M  END
>  <UniqueID>  (36) 
594

>  <SMILES>  (36) 
c1cncc(CCNc2nc(N3CCc4ccccc4C3)nc(N3CCc4ccccc4C3)n2)c1

>  <Energy>  (36) 
72.72591798484763

>  <Genealogy>  (36) 
c1cncc(CCNc2nc(N3CCc4ccccc4C3)nc(N3CCc4ccccc4C3)n2)c1 (3D coordinates assigned)
c1cncc(CCNc2nc(N3CCc4ccccc4C3)nc(N3CCc4ccccc4C3)n2)c1 (nonaromatic ring conformer: 72.72591798484763 kcal/mol)

>  <smiles>  (36) 
c1cncc(CCNc2nc(N3CCc4ccccc4C3)nc(N3CCc4ccccc4C3)n2)c1

>  <score_type>  (36) 
oracle

>  <origin>  (36) 
autodockgpu

>  <m_score__min__energy>  (36) 
-10.68

>  <m_primary>  (36) 
energy

>  <meeko>  (36) 
{"free_energy": -9.02, "intermolecular_energy": -10.81, "internal_energy": -1.52, "cluster_size": 10, "cluster_id": 2, "rank_in_cluster": 8}

>  <energy>  (36) 
-9.73

>  <cluster_rmsd>  (36) 
0.96

>  <rmsd>  (36) 
269.1

>  <cluster>  (36) 
2

$$$$
RCQFLYQWKFFJSS-SREBMQDQNA-N
     RDKit          3D

 64 69  0  0  0  0  0  0  0  0999 V2000
  145.2440   73.7580  221.2120 C   0  0  0  0  0  0  0  0  0  0  0  0
  146.3220   73.2510  220.4860 C   0  0  0  0  0  0  0  0  0  0  0  0
  146.1790   72.9670  219.1620 N   0  0  0  0  0  0  0  0  0  0  0  0
  144.9970   73.1560  218.5120 C   0  0  0  0  0  0  0  0  0  0  0  0
  143.8860   73.6710  219.2020 C   0  0  0  0  0  0  0  0  0  0  0  0
  142.5720   73.8930  218.4940 C   0  0  0  0  0  0  0  0  0  0  0  0
  141.9140   72.5500  218.1330 C   0  0  0  0  0  0  0  0  0  0  0  0
  140.6180   72.3950  218.8000 N   0  0  0  0  0  0  0  0  0  0  0  0
  140.3780   72.8560  220.1360 C   0  0  0  0  0  0  0  0  0  0  0  0
  140.2970   74.1880  220.3850 N   0  0  0  0  0  0  0  0  0  0  0  0
  140.0580   74.6400  221.6440 C   0  0  0  0  0  0  0  0  0  0  0  0
  139.9190   76.0500  221.9010 N   0  0  0  0  0  0  0  0  0  0  0  0
  138.6690   76.5540  222.5050 C   0  0  0  0  0  0  0  0  0  0  0  0
  138.5150   78.0660  222.3250 C   0  0  0  0  0  0  0  0  0  0  0  0
  139.7710   78.7620  222.7580 C   0  0  0  0  0  0  0  0  0  0  0  0
  139.7300   79.9680  223.4780 C   0  0  0  0  0  0  0  0  0  0  0  0
  140.9200   80.6050  223.8430 C   0  0  0  0  0  0  0  0  0  0  0  0
  142.1520   80.0560  223.4720 C   0  0  0  0  0  0  0  0  0  0  0  0
  142.1980   78.8670  222.7390 C   0  0  0  0  0  0  0  0  0  0  0  0
  141.0080   78.2080  222.3890 C   0  0  0  0  0  0  0  0  0  0  0  0
  141.0340   76.9540  221.5560 C   0  0  0  0  0  0  0  0  0  0  0  0
  139.9390   73.7470  222.6610 N   0  0  0  0  0  0  0  0  0  0  0  0
  140.0400   72.4130  222.4290 C   0  0  0  0  0  0  0  0  0  0  0  0
  139.9710   71.4760  223.5230 N   0  0  0  0  0  0  0  0  0  0  0  0
  138.9290   70.4340  223.5050 C   0  0  0  0  0  0  0  0  0  0  0  0
  139.2990   69.2520  224.3970 C   0  0  0  0  0  0  0  0  0  0  0  0
  139.6460   69.7380  225.7720 C   0  0  0  0  0  0  0  0  0  0  0  0
  139.2800   68.9980  226.9090 C   0  0  0  0  0  0  0  0  0  0  0  0
  139.6210   69.4560  228.1840 C   0  0  0  0  0  0  0  0  0  0  0  0
  140.3450   70.6430  228.3310 C   0  0  0  0  0  0  0  0  0  0  0  0
  140.7290   71.3740  227.2020 C   0  0  0  0  0  0  0  0  0  0  0  0
  140.3770   70.9300  225.9160 C   0  0  0  0  0  0  0  0  0  0  0  0
  140.8410   71.6900  224.6970 C   0  0  0  0  0  0  0  0  0  0  0  0
  140.2470   71.9740  221.1600 N   0  0  0  0  0  0  0  0  0  0  0  0
  144.0240   73.9740  220.5660 C   0  0  0  0  0  0  0  0  0  0  0  0
  145.3534   73.9855  222.2826 H   0  0  0  0  0  0  0  0  0  0  0  0
  147.2882   73.0805  220.9835 H   0  0  0  0  0  0  0  0  0  0  0  0
  144.9117   72.9050  217.4444 H   0  0  0  0  0  0  0  0  0  0  0  0
  141.8980   74.4595  219.1534 H   0  0  0  0  0  0  0  0  0  0  0  0
  142.7606   74.4544  217.5671 H   0  0  0  0  0  0  0  0  0  0  0  0
  141.7641   72.5058  217.0442 H   0  0  0  0  0  0  0  0  0  0  0  0
  142.5761   71.7380  218.4682 H   0  0  0  0  0  0  0  0  0  0  0  0
  139.9190   71.7490  218.3690 H   0  0  0  0  0  0  0  0  0  0  0  0
  137.8155   76.0506  222.0274 H   0  0  0  0  0  0  0  0  0  0  0  0
  138.7029   76.3417  223.5838 H   0  0  0  0  0  0  0  0  0  0  0  0
  138.3209   78.2893  221.2655 H   0  0  0  0  0  0  0  0  0  0  0  0
  137.6743   78.4202  222.9396 H   0  0  0  0  0  0  0  0  0  0  0  0
  138.7618   80.4109  223.7545 H   0  0  0  0  0  0  0  0  0  0  0  0
  140.8873   81.5392  224.4228 H   0  0  0  0  0  0  0  0  0  0  0  0
  143.0864   80.5612  223.7578 H   0  0  0  0  0  0  0  0  0  0  0  0
  143.1681   78.4464  222.4356 H   0  0  0  0  0  0  0  0  0  0  0  0
  140.9551   77.2291  220.4939 H   0  0  0  0  0  0  0  0  0  0  0  0
  141.9788   76.4273  221.7559 H   0  0  0  0  0  0  0  0  0  0  0  0
  137.9838   70.8685  223.8625 H   0  0  0  0  0  0  0  0  0  0  0  0
  138.8280   70.0670  222.4729 H   0  0  0  0  0  0  0  0  0  0  0  0
  138.4454   68.5610  224.4592 H   0  0  0  0  0  0  0  0  0  0  0  0
  140.1680   68.7325  223.9670 H   0  0  0  0  0  0  0  0  0  0  0  0
  138.7237   68.0559  226.7949 H   0  0  0  0  0  0  0  0  0  0  0  0
  139.3197   68.8823  229.0729 H   0  0  0  0  0  0  0  0  0  0  0  0
  140.6129   71.0024  229.3355 H   0  0  0  0  0  0  0  0  0  0  0  0
  141.3093   72.3008  227.3213 H   0  0  0  0  0  0  0  0  0  0  0  0
  140.8516   72.7638  224.9354 H   0  0  0  0  0  0  0  0  0  0  0  0
  141.8437   71.3194  224.4378 H   0  0  0  0  0  0  0  0  0  0  0  0
  143.1703   74.3821  221.1270 H   0  0  0  0  0  0  0  0  0  0  0  0
  1  2  2  0
  2  3  1  0
  3  4  2  0
  4  5  1  0
  5  6  1  0
  6  7  1  0
  7  8  1  0
  8  9  1  0
  9 10  2  0
 10 11  1  0
 11 12  1  0
 12 13  1  0
 13 14  1  0
 14 15  1  0
 15 16  2  0
 16 17  1  0
 17 18  2  0
 18 19  1  0
 19 20  2  0
 20 21  1  0
 11 22  2  0
 22 23  1  0
 23 24  1  0
 24 25  1  0
 25 26  1  0
 26 27  1  0
 27 28  2  0
 28 29  1  0
 29 30  2  0
 30 31  1  0
 31 32  2  0
 32 33  1  0
 23 34  2  0
  5 35  2  0
 35  1  1  0
 34  9  1  0
 21 12  1  0
 33 24  1  0
 20 15  1  0
 32 27  1  0
  1 36  1  0
  2 37  1  0
  4 38  1  0
  6 39  1  0
  6 40  1  0
  7 41  1  0
  7 42  1  0
  8 43  1  0
 13 44  1  0
 13 45  1  0
 14 46  1  0
 14 47  1  0
 16 48  1  0
 17 49  1  0
 18 50  1  0
 19 51  1  0
 21 52  1  0
 21 53  1  0
 25 54  1  0
 25 55  1  0
 26 56  1  0
 26 57  1  0
 28 58  1  0
 29 59  1  0
 30 60  1  0
 31 61  1  0
 33 62  1  0
 33 63  1  0
 35 64  1  0
M  END
>  <UniqueID>  (37) 
594

>  <SMILES>  (37) 
c1cncc(CCNc2nc(N3CCc4ccccc4C3)nc(N3CCc4ccccc4C3)n2)c1

>  <Energy>  (37) 
72.72591798484763

>  <Genealogy>  (37) 
c1cncc(CCNc2nc(N3CCc4ccccc4C3)nc(N3CCc4ccccc4C3)n2)c1 (3D coordinates assigned)
c1cncc(CCNc2nc(N3CCc4ccccc4C3)nc(N3CCc4ccccc4C3)n2)c1 (nonaromatic ring conformer: 72.72591798484763 kcal/mol)

>  <smiles>  (37) 
c1cncc(CCNc2nc(N3CCc4ccccc4C3)nc(N3CCc4ccccc4C3)n2)c1

>  <score_type>  (37) 
oracle

>  <origin>  (37) 
autodockgpu

>  <m_score__min__energy>  (37) 
-10.68

>  <m_primary>  (37) 
energy

>  <meeko>  (37) 
{"free_energy": -10.59, "intermolecular_energy": -12.38, "internal_energy": -1.27, "cluster_size": 10, "cluster_id": 2, "rank_in_cluster": 1}

>  <energy>  (37) 
-9.33

>  <cluster_rmsd>  (37) 
1.4

>  <rmsd>  (37) 
269.25

>  <cluster>  (37) 
2

$$$$
RCQFLYQWKFFJSS-SREBMQDQNA-N
     RDKit          3D

 64 69  0  0  0  0  0  0  0  0999 V2000
  145.2060   74.1570  220.8990 C   0  0  0  0  0  0  0  0  0  0  0  0
  146.3180   73.4180  220.4930 C   0  0  0  0  0  0  0  0  0  0  0  0
  146.2860   72.7240  219.3230 N   0  0  0  0  0  0  0  0  0  0  0  0
  145.1830   72.7200  218.5210 C   0  0  0  0  0  0  0  0  0  0  0  0
  144.0430   73.4550  218.8860 C   0  0  0  0  0  0  0  0  0  0  0  0
  142.8170   73.4650  218.0070 C   0  0  0  0  0  0  0  0  0  0  0  0
  141.9770   72.1960  218.2270 C   0  0  0  0  0  0  0  0  0  0  0  0
  140.6370   72.5230  218.7220 N   0  0  0  0  0  0  0  0  0  0  0  0
  140.3920   72.9400  220.0710 C   0  0  0  0  0  0  0  0  0  0  0  0
  140.3130   74.2630  220.3630 N   0  0  0  0  0  0  0  0  0  0  0  0
  140.0700   74.6740  221.6350 C   0  0  0  0  0  0  0  0  0  0  0  0
  139.9330   76.0750  221.9380 N   0  0  0  0  0  0  0  0  0  0  0  0
  138.7560   76.5380  222.7000 C   0  0  0  0  0  0  0  0  0  0  0  0
  138.5490   78.0500  222.5740 C   0  0  0  0  0  0  0  0  0  0  0  0
  139.8340   78.7670  222.8660 C   0  0  0  0  0  0  0  0  0  0  0  0
  139.8560   79.9570  223.6110 C   0  0  0  0  0  0  0  0  0  0  0  0
  141.0680   80.6150  223.8430 C   0  0  0  0  0  0  0  0  0  0  0  0
  142.2560   80.1020  223.3130 C   0  0  0  0  0  0  0  0  0  0  0  0
  142.2370   78.9290  222.5540 C   0  0  0  0  0  0  0  0  0  0  0  0
  141.0280   78.2490  222.3370 C   0  0  0  0  0  0  0  0  0  0  0  0
  140.9790   77.0120  221.4800 C   0  0  0  0  0  0  0  0  0  0  0  0
  139.9430   73.7480  222.6220 N   0  0  0  0  0  0  0  0  0  0  0  0
  140.0420   72.4220  222.3460 C   0  0  0  0  0  0  0  0  0  0  0  0
  139.9650   71.4500  223.4080 N   0  0  0  0  0  0  0  0  0  0  0  0
  138.8960   70.4370  223.3720 C   0  0  0  0  0  0  0  0  0  0  0  0
  139.2490   69.2150  224.2170 C   0  0  0  0  0  0  0  0  0  0  0  0
  139.6300   69.6440  225.6020 C   0  0  0  0  0  0  0  0  0  0  0  0
  139.2630   68.8740  226.7180 C   0  0  0  0  0  0  0  0  0  0  0  0
  139.6360   69.2790  228.0030 C   0  0  0  0  0  0  0  0  0  0  0  0
  140.3920   70.4420  228.1780 C   0  0  0  0  0  0  0  0  0  0  0  0
  140.7780   71.2010  227.0680 C   0  0  0  0  0  0  0  0  0  0  0  0
  140.3940   70.8120  225.7740 C   0  0  0  0  0  0  0  0  0  0  0  0
  140.8590   71.6010  224.5740 C   0  0  0  0  0  0  0  0  0  0  0  0
  140.2530   72.0250  221.0640 N   0  0  0  0  0  0  0  0  0  0  0  0
  144.0670   74.1800  220.0890 C   0  0  0  0  0  0  0  0  0  0  0  0
  145.2256   74.7155  221.8465 H   0  0  0  0  0  0  0  0  0  0  0  0
  147.2217   73.3965  221.1197 H   0  0  0  0  0  0  0  0  0  0  0  0
  145.1861   72.1400  217.5863 H   0  0  0  0  0  0  0  0  0  0  0  0
  142.2069   74.3477  218.2490 H   0  0  0  0  0  0  0  0  0  0  0  0
  143.1375   73.4977  216.9552 H   0  0  0  0  0  0  0  0  0  0  0  0
  141.8847   71.6575  217.2723 H   0  0  0  0  0  0  0  0  0  0  0  0
  142.4819   71.5718  218.9790 H   0  0  0  0  0  0  0  0  0  0  0  0
  139.8170   72.2450  218.1350 H   0  0  0  0  0  0  0  0  0  0  0  0
  137.8614   76.0241  222.3184 H   0  0  0  0  0  0  0  0  0  0  0  0
  138.9260   76.3058  223.7617 H   0  0  0  0  0  0  0  0  0  0  0  0
  138.2219   78.2895  221.5514 H   0  0  0  0  0  0  0  0  0  0  0  0
  137.7826   78.3720  223.2944 H   0  0  0  0  0  0  0  0  0  0  0  0
  138.9196   80.3718  224.0123 H   0  0  0  0  0  0  0  0  0  0  0  0
  141.0868   81.5368  224.4429 H   0  0  0  0  0  0  0  0  0  0  0  0
  143.2077   80.6231  223.4940 H   0  0  0  0  0  0  0  0  0  0  0  0
  143.1714   78.5374  222.1255 H   0  0  0  0  0  0  0  0  0  0  0  0
  140.7658   77.3053  220.4415 H   0  0  0  0  0  0  0  0  0  0  0  0
  141.9520   76.5041  221.5526 H   0  0  0  0  0  0  0  0  0  0  0  0
  137.9685   70.8832  223.7601 H   0  0  0  0  0  0  0  0  0  0  0  0
  138.7688   70.1088  222.3298 H   0  0  0  0  0  0  0  0  0  0  0  0
  138.3787   68.5444  224.2695 H   0  0  0  0  0  0  0  0  0  0  0  0
  140.0973   68.6886  223.7551 H   0  0  0  0  0  0  0  0  0  0  0  0
  138.6811   67.9507  226.5806 H   0  0  0  0  0  0  0  0  0  0  0  0
  139.3346   68.6825  228.8767 H   0  0  0  0  0  0  0  0  0  0  0  0
  140.6836   70.7606  229.1896 H   0  0  0  0  0  0  0  0  0  0  0  0
  141.3854   72.1071  227.2093 H   0  0  0  0  0  0  0  0  0  0  0  0
  140.9019   72.6654  224.8484 H   0  0  0  0  0  0  0  0  0  0  0  0
  141.8473   71.2136  224.2858 H   0  0  0  0  0  0  0  0  0  0  0  0
  143.1880   74.7668  220.3941 H   0  0  0  0  0  0  0  0  0  0  0  0
  1  2  2  0
  2  3  1  0
  3  4  2  0
  4  5  1  0
  5  6  1  0
  6  7  1  0
  7  8  1  0
  8  9  1  0
  9 10  2  0
 10 11  1  0
 11 12  1  0
 12 13  1  0
 13 14  1  0
 14 15  1  0
 15 16  2  0
 16 17  1  0
 17 18  2  0
 18 19  1  0
 19 20  2  0
 20 21  1  0
 11 22  2  0
 22 23  1  0
 23 24  1  0
 24 25  1  0
 25 26  1  0
 26 27  1  0
 27 28  2  0
 28 29  1  0
 29 30  2  0
 30 31  1  0
 31 32  2  0
 32 33  1  0
 23 34  2  0
  5 35  2  0
 35  1  1  0
 34  9  1  0
 21 12  1  0
 33 24  1  0
 20 15  1  0
 32 27  1  0
  1 36  1  0
  2 37  1  0
  4 38  1  0
  6 39  1  0
  6 40  1  0
  7 41  1  0
  7 42  1  0
  8 43  1  0
 13 44  1  0
 13 45  1  0
 14 46  1  0
 14 47  1  0
 16 48  1  0
 17 49  1  0
 18 50  1  0
 19 51  1  0
 21 52  1  0
 21 53  1  0
 25 54  1  0
 25 55  1  0
 26 56  1  0
 26 57  1  0
 28 58  1  0
 29 59  1  0
 30 60  1  0
 31 61  1  0
 33 62  1  0
 33 63  1  0
 35 64  1  0
M  END
>  <UniqueID>  (38) 
594

>  <SMILES>  (38) 
c1cncc(CCNc2nc(N3CCc4ccccc4C3)nc(N3CCc4ccccc4C3)n2)c1

>  <Energy>  (38) 
72.72591798484763

>  <Genealogy>  (38) 
c1cncc(CCNc2nc(N3CCc4ccccc4C3)nc(N3CCc4ccccc4C3)n2)c1 (3D coordinates assigned)
c1cncc(CCNc2nc(N3CCc4ccccc4C3)nc(N3CCc4ccccc4C3)n2)c1 (nonaromatic ring conformer: 72.72591798484763 kcal/mol)

>  <smiles>  (38) 
c1cncc(CCNc2nc(N3CCc4ccccc4C3)nc(N3CCc4ccccc4C3)n2)c1

>  <score_type>  (38) 
oracle

>  <origin>  (38) 
autodockgpu

>  <m_score__min__energy>  (38) 
-10.68

>  <m_primary>  (38) 
energy

>  <meeko>  (38) 
{"free_energy": -10.47, "intermolecular_energy": -12.26, "internal_energy": -1.22, "cluster_size": 10, "cluster_id": 2, "rank_in_cluster": 3}

>  <energy>  (38) 
-9.02

>  <cluster_rmsd>  (38) 
1.42

>  <rmsd>  (38) 
269.15

>  <cluster>  (38) 
2

$$$$
RCQFLYQWKFFJSS-SREBMQDQNA-N
     RDKit          3D

 64 69  0  0  0  0  0  0  0  0999 V2000
  144.6490   74.0040  220.8310 C   0  0  0  0  0  0  0  0  0  0  0  0
  145.9850   73.6910  220.5770 C   0  0  0  0  0  0  0  0  0  0  0  0
  146.3210   72.9920  219.4590 N   0  0  0  0  0  0  0  0  0  0  0  0
  145.3810   72.5710  218.5660 C   0  0  0  0  0  0  0  0  0  0  0  0
  144.0240   72.8690  218.7780 C   0  0  0  0  0  0  0  0  0  0  0  0
  142.9710   72.4160  217.7960 C   0  0  0  0  0  0  0  0  0  0  0  0
  141.8840   71.5890  218.5030 C   0  0  0  0  0  0  0  0  0  0  0  0
  140.7220   72.4150  218.8410 N   0  0  0  0  0  0  0  0  0  0  0  0
  140.4500   72.8550  220.1780 C   0  0  0  0  0  0  0  0  0  0  0  0
  140.3500   74.1830  220.4420 N   0  0  0  0  0  0  0  0  0  0  0  0
  140.0810   74.6160  221.7020 C   0  0  0  0  0  0  0  0  0  0  0  0
  139.9220   76.0210  221.9740 N   0  0  0  0  0  0  0  0  0  0  0  0
  138.7230   76.4840  222.7010 C   0  0  0  0  0  0  0  0  0  0  0  0
  138.5030   77.9910  222.5420 C   0  0  0  0  0  0  0  0  0  0  0  0
  139.7730   78.7280  222.8470 C   0  0  0  0  0  0  0  0  0  0  0  0
  139.7650   79.9320  223.5700 C   0  0  0  0  0  0  0  0  0  0  0  0
  140.9640   80.6080  223.8160 C   0  0  0  0  0  0  0  0  0  0  0  0
  142.1700   80.0990  223.3220 C   0  0  0  0  0  0  0  0  0  0  0  0
  142.1800   78.9110  222.5850 C   0  0  0  0  0  0  0  0  0  0  0  0
  140.9840   78.2130  222.3550 C   0  0  0  0  0  0  0  0  0  0  0  0
  140.9670   76.9600  221.5210 C   0  0  0  0  0  0  0  0  0  0  0  0
  139.9490   73.7080  222.7040 N   0  0  0  0  0  0  0  0  0  0  0  0
  140.0680   72.3780  222.4570 C   0  0  0  0  0  0  0  0  0  0  0  0
  139.9860   71.4260  223.5370 N   0  0  0  0  0  0  0  0  0  0  0  0
  138.8540   70.4840  223.5720 C   0  0  0  0  0  0  0  0  0  0  0  0
  139.1720   69.2520  224.4160 C   0  0  0  0  0  0  0  0  0  0  0  0
  139.6520   69.6730  225.7730 C   0  0  0  0  0  0  0  0  0  0  0  0
  139.2960   68.9420  226.9180 C   0  0  0  0  0  0  0  0  0  0  0  0
  139.7610   69.3380  228.1760 C   0  0  0  0  0  0  0  0  0  0  0  0
  140.5980   70.4510  228.2930 C   0  0  0  0  0  0  0  0  0  0  0  0
  140.9730   71.1710  227.1530 C   0  0  0  0  0  0  0  0  0  0  0  0
  140.4970   70.7910  225.8870 C   0  0  0  0  0  0  0  0  0  0  0  0
  140.9480   71.5330  224.6520 C   0  0  0  0  0  0  0  0  0  0  0  0
  140.3060   71.9580  221.1870 N   0  0  0  0  0  0  0  0  0  0  0  0
  143.6660   73.5960  219.9250 C   0  0  0  0  0  0  0  0  0  0  0  0
  144.3723   74.5661  221.7351 H   0  0  0  0  0  0  0  0  0  0  0  0
  146.7674   74.0098  221.2814 H   0  0  0  0  0  0  0  0  0  0  0  0
  145.6850   71.9972  217.6781 H   0  0  0  0  0  0  0  0  0  0  0  0
  142.5074   73.2989  217.3316 H   0  0  0  0  0  0  0  0  0  0  0  0
  143.4499   71.7876  217.0307 H   0  0  0  0  0  0  0  0  0  0  0  0
  141.5631   70.7747  217.8366 H   0  0  0  0  0  0  0  0  0  0  0  0
  142.3061   71.1856  219.4352 H   0  0  0  0  0  0  0  0  0  0  0  0
  139.9640   72.5090  218.1270 H   0  0  0  0  0  0  0  0  0  0  0  0
  137.8429   75.9532  222.3091 H   0  0  0  0  0  0  0  0  0  0  0  0
  138.8710   76.2729  223.7704 H   0  0  0  0  0  0  0  0  0  0  0  0
  138.1951   78.2075  221.5084 H   0  0  0  0  0  0  0  0  0  0  0  0
  137.7184   78.3178  223.2403 H   0  0  0  0  0  0  0  0  0  0  0  0
  138.8153   80.3433  223.9428 H   0  0  0  0  0  0  0  0  0  0  0  0
  140.9591   81.5411  224.3986 H   0  0  0  0  0  0  0  0  0  0  0  0
  143.1116   80.6343  223.5138 H   0  0  0  0  0  0  0  0  0  0  0  0
  143.1277   78.5222  222.1842 H   0  0  0  0  0  0  0  0  0  0  0  0
  140.7733   77.2313  220.4727 H   0  0  0  0  0  0  0  0  0  0  0  0
  141.9436   76.4644  221.6240 H   0  0  0  0  0  0  0  0  0  0  0  0
  137.9787   70.9939  224.0008 H   0  0  0  0  0  0  0  0  0  0  0  0
  138.6513   70.1523  222.5430 H   0  0  0  0  0  0  0  0  0  0  0  0
  138.2646   68.6396  224.5239 H   0  0  0  0  0  0  0  0  0  0  0  0
  139.9592   68.6659  223.9191 H   0  0  0  0  0  0  0  0  0  0  0  0
  138.6502   68.0563  226.8252 H   0  0  0  0  0  0  0  0  0  0  0  0
  139.4680   68.7734  229.0734 H   0  0  0  0  0  0  0  0  0  0  0  0
  140.9628   70.7618  229.2831 H   0  0  0  0  0  0  0  0  0  0  0  0
  141.6432   72.0380  227.2486 H   0  0  0  0  0  0  0  0  0  0  0  0
  141.0739   72.5956  224.9068 H   0  0  0  0  0  0  0  0  0  0  0  0
  141.8928   71.0785  224.3191 H   0  0  0  0  0  0  0  0  0  0  0  0
  142.6107   73.8446  220.1106 H   0  0  0  0  0  0  0  0  0  0  0  0
  1  2  2  0
  2  3  1  0
  3  4  2  0
  4  5  1  0
  5  6  1  0
  6  7  1  0
  7  8  1  0
  8  9  1  0
  9 10  2  0
 10 11  1  0
 11 12  1  0
 12 13  1  0
 13 14  1  0
 14 15  1  0
 15 16  2  0
 16 17  1  0
 17 18  2  0
 18 19  1  0
 19 20  2  0
 20 21  1  0
 11 22  2  0
 22 23  1  0
 23 24  1  0
 24 25  1  0
 25 26  1  0
 26 27  1  0
 27 28  2  0
 28 29  1  0
 29 30  2  0
 30 31  1  0
 31 32  2  0
 32 33  1  0
 23 34  2  0
  5 35  2  0
 35  1  1  0
 34  9  1  0
 21 12  1  0
 33 24  1  0
 20 15  1  0
 32 27  1  0
  1 36  1  0
  2 37  1  0
  4 38  1  0
  6 39  1  0
  6 40  1  0
  7 41  1  0
  7 42  1  0
  8 43  1  0
 13 44  1  0
 13 45  1  0
 14 46  1  0
 14 47  1  0
 16 48  1  0
 17 49  1  0
 18 50  1  0
 19 51  1  0
 21 52  1  0
 21 53  1  0
 25 54  1  0
 25 55  1  0
 26 56  1  0
 26 57  1  0
 28 58  1  0
 29 59  1  0
 30 60  1  0
 31 61  1  0
 33 62  1  0
 33 63  1  0
 35 64  1  0
M  END
>  <UniqueID>  (39) 
594

>  <SMILES>  (39) 
c1cncc(CCNc2nc(N3CCc4ccccc4C3)nc(N3CCc4ccccc4C3)n2)c1

>  <Energy>  (39) 
72.72591798484763

>  <Genealogy>  (39) 
c1cncc(CCNc2nc(N3CCc4ccccc4C3)nc(N3CCc4ccccc4C3)n2)c1 (3D coordinates assigned)
c1cncc(CCNc2nc(N3CCc4ccccc4C3)nc(N3CCc4ccccc4C3)n2)c1 (nonaromatic ring conformer: 72.72591798484763 kcal/mol)

>  <smiles>  (39) 
c1cncc(CCNc2nc(N3CCc4ccccc4C3)nc(N3CCc4ccccc4C3)n2)c1

>  <score_type>  (39) 
oracle

>  <origin>  (39) 
autodockgpu

>  <m_score__min__energy>  (39) 
-10.68

>  <m_primary>  (39) 
energy

>  <meeko>  (39) 
{"free_energy": -10.34, "intermolecular_energy": -12.13, "internal_energy": -1.22, "cluster_size": 10, "cluster_id": 2, "rank_in_cluster": 4}

>  <energy>  (39) 
-8.33

>  <cluster_rmsd>  (39) 
1.94

>  <rmsd>  (39) 
269.01

>  <cluster>  (39) 
2

$$$$
RCQFLYQWKFFJSS-SREBMQDQNA-N
     RDKit          3D

 64 69  0  0  0  0  0  0  0  0999 V2000
  144.9370   73.7570  221.1770 C   0  0  0  0  0  0  0  0  0  0  0  0
  146.1480   73.0650  221.1320 C   0  0  0  0  0  0  0  0  0  0  0  0
  146.4080   72.2130  220.1030 N   0  0  0  0  0  0  0  0  0  0  0  0
  145.5080   72.0020  219.1010 C   0  0  0  0  0  0  0  0  0  0  0  0
  144.2790   72.6820  219.1020 C   0  0  0  0  0  0  0  0  0  0  0  0
  143.2750   72.4650  217.9970 C   0  0  0  0  0  0  0  0  0  0  0  0
  142.1210   71.5680  218.4770 C   0  0  0  0  0  0  0  0  0  0  0  0
  140.9160   72.3550  218.7570 N   0  0  0  0  0  0  0  0  0  0  0  0
  140.5750   72.8020  220.0760 C   0  0  0  0  0  0  0  0  0  0  0  0
  140.4420   74.1300  220.3220 N   0  0  0  0  0  0  0  0  0  0  0  0
  140.1070   74.5690  221.5650 C   0  0  0  0  0  0  0  0  0  0  0  0
  139.9140   75.9730  221.8170 N   0  0  0  0  0  0  0  0  0  0  0  0
  138.6280   76.4350  222.3760 C   0  0  0  0  0  0  0  0  0  0  0  0
  138.4310   77.9430  222.1920 C   0  0  0  0  0  0  0  0  0  0  0  0
  139.6480   78.6780  222.6680 C   0  0  0  0  0  0  0  0  0  0  0  0
  139.5430   79.8810  223.3860 C   0  0  0  0  0  0  0  0  0  0  0  0
  140.6980   80.5560  223.7930 C   0  0  0  0  0  0  0  0  0  0  0  0
  141.9590   80.0470  223.4650 C   0  0  0  0  0  0  0  0  0  0  0  0
  142.0690   78.8610  222.7340 C   0  0  0  0  0  0  0  0  0  0  0  0
  140.9140   78.1650  222.3430 C   0  0  0  0  0  0  0  0  0  0  0  0
  141.0100   76.9130  221.5110 C   0  0  0  0  0  0  0  0  0  0  0  0
  139.9440   73.6670  222.5680 N   0  0  0  0  0  0  0  0  0  0  0  0
  140.0960   72.3370  222.3390 C   0  0  0  0  0  0  0  0  0  0  0  0
  139.9790   71.3930  223.4220 N   0  0  0  0  0  0  0  0  0  0  0  0
  138.8400   70.4600  223.4350 C   0  0  0  0  0  0  0  0  0  0  0  0
  139.1270   69.2310  224.2950 C   0  0  0  0  0  0  0  0  0  0  0  0
  139.5750   69.6580  225.6610 C   0  0  0  0  0  0  0  0  0  0  0  0
  139.1850   68.9370  226.8010 C   0  0  0  0  0  0  0  0  0  0  0  0
  139.6210   69.3380  228.0670 C   0  0  0  0  0  0  0  0  0  0  0  0
  140.4630   70.4460  228.1990 C   0  0  0  0  0  0  0  0  0  0  0  0
  140.8720   71.1550  227.0640 C   0  0  0  0  0  0  0  0  0  0  0  0
  140.4260   70.7700  225.7890 C   0  0  0  0  0  0  0  0  0  0  0  0
  140.9130   71.5010  224.5610 C   0  0  0  0  0  0  0  0  0  0  0  0
  140.3990   71.9110  221.0850 N   0  0  0  0  0  0  0  0  0  0  0  0
  144.0020   73.5690  220.1560 C   0  0  0  0  0  0  0  0  0  0  0  0
  144.7206   74.4440  222.0084 H   0  0  0  0  0  0  0  0  0  0  0  0
  146.8929   73.2082  221.9287 H   0  0  0  0  0  0  0  0  0  0  0  0
  145.7448   71.2977  218.2899 H   0  0  0  0  0  0  0  0  0  0  0  0
  142.8690   73.4377  217.6823 H   0  0  0  0  0  0  0  0  0  0  0  0
  143.7794   71.9702  217.1539 H   0  0  0  0  0  0  0  0  0  0  0  0
  141.8926   70.8288  217.6951 H   0  0  0  0  0  0  0  0  0  0  0  0
  142.4329   71.0680  219.4058 H   0  0  0  0  0  0  0  0  0  0  0  0
  140.1840   72.4120  218.0130 H   0  0  0  0  0  0  0  0  0  0  0  0
  137.8090   75.9052  221.8676 H   0  0  0  0  0  0  0  0  0  0  0  0
  138.6304   76.2218  223.4551 H   0  0  0  0  0  0  0  0  0  0  0  0
  138.2659   78.1620  221.1267 H   0  0  0  0  0  0  0  0  0  0  0  0
  137.5588   78.2686  222.7779 H   0  0  0  0  0  0  0  0  0  0  0  0
  138.5518   80.2921  223.6281 H   0  0  0  0  0  0  0  0  0  0  0  0
  140.6149   81.4879  224.3715 H   0  0  0  0  0  0  0  0  0  0  0  0
  142.8662   80.5815  223.7832 H   0  0  0  0  0  0  0  0  0  0  0  0
  143.0621   78.4722  222.4645 H   0  0  0  0  0  0  0  0  0  0  0  0
  140.9591   77.1866  220.4468 H   0  0  0  0  0  0  0  0  0  0  0  0
  141.9640   76.4172  221.7435 H   0  0  0  0  0  0  0  0  0  0  0  0
  137.9582   70.9794  223.8383 H   0  0  0  0  0  0  0  0  0  0  0  0
  138.6609   70.1227  222.4034 H   0  0  0  0  0  0  0  0  0  0  0  0
  138.2126   68.6260  224.3835 H   0  0  0  0  0  0  0  0  0  0  0  0
  139.9221   68.6357  223.8224 H   0  0  0  0  0  0  0  0  0  0  0  0
  138.5354   68.0553  226.6976 H   0  0  0  0  0  0  0  0  0  0  0  0
  139.3013   68.7812  228.9602 H   0  0  0  0  0  0  0  0  0  0  0  0
  140.8044   70.7609  229.1961 H   0  0  0  0  0  0  0  0  0  0  0  0
  141.5459   72.0178  227.1708 H   0  0  0  0  0  0  0  0  0  0  0  0
  141.0393   72.5645  224.8122 H   0  0  0  0  0  0  0  0  0  0  0  0
  141.8628   71.0380  224.2552 H   0  0  0  0  0  0  0  0  0  0  0  0
  143.0479   74.1160  220.1773 H   0  0  0  0  0  0  0  0  0  0  0  0
  1  2  2  0
  2  3  1  0
  3  4  2  0
  4  5  1  0
  5  6  1  0
  6  7  1  0
  7  8  1  0
  8  9  1  0
  9 10  2  0
 10 11  1  0
 11 12  1  0
 12 13  1  0
 13 14  1  0
 14 15  1  0
 15 16  2  0
 16 17  1  0
 17 18  2  0
 18 19  1  0
 19 20  2  0
 20 21  1  0
 11 22  2  0
 22 23  1  0
 23 24  1  0
 24 25  1  0
 25 26  1  0
 26 27  1  0
 27 28  2  0
 28 29  1  0
 29 30  2  0
 30 31  1  0
 31 32  2  0
 32 33  1  0
 23 34  2  0
  5 35  2  0
 35  1  1  0
 34  9  1  0
 21 12  1  0
 33 24  1  0
 20 15  1  0
 32 27  1  0
  1 36  1  0
  2 37  1  0
  4 38  1  0
  6 39  1  0
  6 40  1  0
  7 41  1  0
  7 42  1  0
  8 43  1  0
 13 44  1  0
 13 45  1  0
 14 46  1  0
 14 47  1  0
 16 48  1  0
 17 49  1  0
 18 50  1  0
 19 51  1  0
 21 52  1  0
 21 53  1  0
 25 54  1  0
 25 55  1  0
 26 56  1  0
 26 57  1  0
 28 58  1  0
 29 59  1  0
 30 60  1  0
 31 61  1  0
 33 62  1  0
 33 63  1  0
 35 64  1  0
M  END
>  <UniqueID>  (40) 
594

>  <SMILES>  (40) 
c1cncc(CCNc2nc(N3CCc4ccccc4C3)nc(N3CCc4ccccc4C3)n2)c1

>  <Energy>  (40) 
72.72591798484763

>  <Genealogy>  (40) 
c1cncc(CCNc2nc(N3CCc4ccccc4C3)nc(N3CCc4ccccc4C3)n2)c1 (3D coordinates assigned)
c1cncc(CCNc2nc(N3CCc4ccccc4C3)nc(N3CCc4ccccc4C3)n2)c1 (nonaromatic ring conformer: 72.72591798484763 kcal/mol)

>  <smiles>  (40) 
c1cncc(CCNc2nc(N3CCc4ccccc4C3)nc(N3CCc4ccccc4C3)n2)c1

>  <score_type>  (40) 
oracle

>  <origin>  (40) 
autodockgpu

>  <m_score__min__energy>  (40) 
-10.68

>  <m_primary>  (40) 
energy

>  <meeko>  (40) 
{"free_energy": -9.98, "intermolecular_energy": -11.77, "internal_energy": -1.22, "cluster_size": 10, "cluster_id": 2, "rank_in_cluster": 5}

>  <energy>  (40) 
-8.12

>  <cluster_rmsd>  (40) 
1.58

>  <rmsd>  (40) 
268.95

>  <cluster>  (40) 
2

$$$$
RCQFLYQWKFFJSS-SREBMQDQNA-N
     RDKit          3D

 64 69  0  0  0  0  0  0  0  0999 V2000
  141.0550   70.9510  228.2600 C   0  0  0  0  0  0  0  0  0  0  0  0
  140.9390   69.5630  228.3370 C   0  0  0  0  0  0  0  0  0  0  0  0
  140.7230   68.8320  227.2090 N   0  0  0  0  0  0  0  0  0  0  0  0
  140.6070   69.4200  225.9850 C   0  0  0  0  0  0  0  0  0  0  0  0
  140.7230   70.8150  225.8590 C   0  0  0  0  0  0  0  0  0  0  0  0
  140.6020   71.4810  224.5100 C   0  0  0  0  0  0  0  0  0  0  0  0
  139.1380   71.4940  224.0370 C   0  0  0  0  0  0  0  0  0  0  0  0
  139.0180   72.0660  222.6930 N   0  0  0  0  0  0  0  0  0  0  0  0
  140.1060   72.7280  222.0360 C   0  0  0  0  0  0  0  0  0  0  0  0
  141.1050   71.9930  221.4840 N   0  0  0  0  0  0  0  0  0  0  0  0
  142.1380   72.6050  220.8460 C   0  0  0  0  0  0  0  0  0  0  0  0
  143.1720   71.8280  220.2140 N   0  0  0  0  0  0  0  0  0  0  0  0
  144.5660   72.3130  220.2520 C   0  0  0  0  0  0  0  0  0  0  0  0
  145.4440   71.6180  219.2080 C   0  0  0  0  0  0  0  0  0  0  0  0
  145.2710   70.1320  219.3030 C   0  0  0  0  0  0  0  0  0  0  0  0
  146.3630   69.2580  219.1740 C   0  0  0  0  0  0  0  0  0  0  0  0
  146.1640   67.8750  219.2430 C   0  0  0  0  0  0  0  0  0  0  0  0
  144.8760   67.3600  219.4150 C   0  0  0  0  0  0  0  0  0  0  0  0
  143.7830   68.2250  219.5240 C   0  0  0  0  0  0  0  0  0  0  0  0
  143.9770   69.6150  219.4820 C   0  0  0  0  0  0  0  0  0  0  0  0
  142.8080   70.5620  219.5470 C   0  0  0  0  0  0  0  0  0  0  0  0
  142.1810   73.9630  220.7990 N   0  0  0  0  0  0  0  0  0  0  0  0
  141.1990   74.7090  221.3660 C   0  0  0  0  0  0  0  0  0  0  0  0
  141.2830   76.1480  221.3620 N   0  0  0  0  0  0  0  0  0  0  0  0
  141.9110   76.8230  220.2130 C   0  0  0  0  0  0  0  0  0  0  0  0
  141.4640   78.2790  220.1010 C   0  0  0  0  0  0  0  0  0  0  0  0
  141.6810   78.9810  221.4070 C   0  0  0  0  0  0  0  0  0  0  0  0
  142.1070   80.3190  221.4400 C   0  0  0  0  0  0  0  0  0  0  0  0
  142.2930   80.9660  222.6650 C   0  0  0  0  0  0  0  0  0  0  0  0
  142.0350   80.2890  223.8610 C   0  0  0  0  0  0  0  0  0  0  0  0
  141.5910   78.9620  223.8330 C   0  0  0  0  0  0  0  0  0  0  0  0
  141.4170   78.2980  222.6080 C   0  0  0  0  0  0  0  0  0  0  0  0
  140.8840   76.8860  222.5780 C   0  0  0  0  0  0  0  0  0  0  0  0
  140.1560   74.0830  221.9720 N   0  0  0  0  0  0  0  0  0  0  0  0
  140.9520   71.5780  227.0160 C   0  0  0  0  0  0  0  0  0  0  0  0
  141.2258   71.5456  229.1695 H   0  0  0  0  0  0  0  0  0  0  0  0
  141.0222   69.0583  229.3108 H   0  0  0  0  0  0  0  0  0  0  0  0
  140.4222   68.8017  225.0942 H   0  0  0  0  0  0  0  0  0  0  0  0
  140.9661   72.5163  224.5849 H   0  0  0  0  0  0  0  0  0  0  0  0
  141.2028   70.9158  223.7823 H   0  0  0  0  0  0  0  0  0  0  0  0
  138.7568   70.4623  224.0227 H   0  0  0  0  0  0  0  0  0  0  0  0
  138.5539   72.1149  224.7322 H   0  0  0  0  0  0  0  0  0  0  0  0
  138.0590   72.1770  222.2920 H   0  0  0  0  0  0  0  0  0  0  0  0
  144.5708   73.3954  220.0562 H   0  0  0  0  0  0  0  0  0  0  0  0
  144.9774   72.0866  221.2467 H   0  0  0  0  0  0  0  0  0  0  0  0
  145.1518   71.9556  218.2027 H   0  0  0  0  0  0  0  0  0  0  0  0
  146.4979   71.8724  219.3941 H   0  0  0  0  0  0  0  0  0  0  0  0
  147.3747   69.6610  219.0187 H   0  0  0  0  0  0  0  0  0  0  0  0
  147.0223   67.1919  219.1618 H   0  0  0  0  0  0  0  0  0  0  0  0
  144.7220   66.2720  219.4647 H   0  0  0  0  0  0  0  0  0  0  0  0
  142.7689   67.8157  219.6429 H   0  0  0  0  0  0  0  0  0  0  0  0
  142.4691   70.7819  218.5239 H   0  0  0  0  0  0  0  0  0  0  0  0
  142.0082   70.0826  220.1306 H   0  0  0  0  0  0  0  0  0  0  0  0
  143.0037   76.7938  220.3358 H   0  0  0  0  0  0  0  0  0  0  0  0
  141.6036   76.2981  219.2965 H   0  0  0  0  0  0  0  0  0  0  0  0
  142.0486   78.7806  219.3157 H   0  0  0  0  0  0  0  0  0  0  0  0
  140.3944   78.3109  219.8460 H   0  0  0  0  0  0  0  0  0  0  0  0
  142.2946   80.8587  220.5001 H   0  0  0  0  0  0  0  0  0  0  0  0
  142.6427   82.0087  222.6882 H   0  0  0  0  0  0  0  0  0  0  0  0
  142.1811   80.7996  224.8243 H   0  0  0  0  0  0  0  0  0  0  0  0
  141.3773   78.4365  224.7754 H   0  0  0  0  0  0  0  0  0  0  0  0
  141.2669   76.3473  223.4573 H   0  0  0  0  0  0  0  0  0  0  0  0
  139.7857   76.9470  222.5824 H   0  0  0  0  0  0  0  0  0  0  0  0
  141.0504   72.6711  226.9423 H   0  0  0  0  0  0  0  0  0  0  0  0
  1  2  2  0
  2  3  1  0
  3  4  2  0
  4  5  1  0
  5  6  1  0
  6  7  1  0
  7  8  1  0
  8  9  1  0
  9 10  2  0
 10 11  1  0
 11 12  1  0
 12 13  1  0
 13 14  1  0
 14 15  1  0
 15 16  2  0
 16 17  1  0
 17 18  2  0
 18 19  1  0
 19 20  2  0
 20 21  1  0
 11 22  2  0
 22 23  1  0
 23 24  1  0
 24 25  1  0
 25 26  1  0
 26 27  1  0
 27 28  2  0
 28 29  1  0
 29 30  2  0
 30 31  1  0
 31 32  2  0
 32 33  1  0
 23 34  2  0
  5 35  2  0
 35  1  1  0
 34  9  1  0
 21 12  1  0
 33 24  1  0
 20 15  1  0
 32 27  1  0
  1 36  1  0
  2 37  1  0
  4 38  1  0
  6 39  1  0
  6 40  1  0
  7 41  1  0
  7 42  1  0
  8 43  1  0
 13 44  1  0
 13 45  1  0
 14 46  1  0
 14 47  1  0
 16 48  1  0
 17 49  1  0
 18 50  1  0
 19 51  1  0
 21 52  1  0
 21 53  1  0
 25 54  1  0
 25 55  1  0
 26 56  1  0
 26 57  1  0
 28 58  1  0
 29 59  1  0
 30 60  1  0
 31 61  1  0
 33 62  1  0
 33 63  1  0
 35 64  1  0
M  END
>  <UniqueID>  (41) 
595

>  <SMILES>  (41) 
c1cncc(CCNc2nc(N3CCc4ccccc4C3)nc(N3CCc4ccccc4C3)n2)c1

>  <Energy>  (41) 
73.69619201064873

>  <Genealogy>  (41) 
c1cncc(CCNc2nc(N3CCc4ccccc4C3)nc(N3CCc4ccccc4C3)n2)c1 (3D coordinates assigned)
c1cncc(CCNc2nc(N3CCc4ccccc4C3)nc(N3CCc4ccccc4C3)n2)c1 (nonaromatic ring conformer: 73.69619201064873 kcal/mol)

>  <smiles>  (41) 
c1cncc(CCNc2nc(N3CCc4ccccc4C3)nc(N3CCc4ccccc4C3)n2)c1

>  <score_type>  (41) 
oracle

>  <origin>  (41) 
autodockgpu

>  <m_score__min__energy>  (41) 
-10.68

>  <m_primary>  (41) 
energy

>  <meeko>  (41) 
{"free_energy": -10.68, "intermolecular_energy": -12.47, "internal_energy": -0.93, "cluster_size": 10, "cluster_id": 1, "rank_in_cluster": 1}

>  <energy>  (41) 
-10.68

>  <cluster_rmsd>  (41) 
0.0

>  <rmsd>  (41) 
269.53

>  <cluster>  (41) 
1

$$$$
RCQFLYQWKFFJSS-SREBMQDQNA-N
     RDKit          3D

 64 69  0  0  0  0  0  0  0  0999 V2000
  146.3000   72.8270  221.0310 C   0  0  0  0  0  0  0  0  0  0  0  0
  145.8510   74.1330  221.2270 C   0  0  0  0  0  0  0  0  0  0  0  0
  144.9020   74.6590  220.4040 N   0  0  0  0  0  0  0  0  0  0  0  0
  144.3710   73.9440  219.3730 C   0  0  0  0  0  0  0  0  0  0  0  0
  144.7880   72.6220  219.1420 C   0  0  0  0  0  0  0  0  0  0  0  0
  144.2050   71.8150  218.0080 C   0  0  0  0  0  0  0  0  0  0  0  0
  142.9630   71.0370  218.4760 C   0  0  0  0  0  0  0  0  0  0  0  0
  141.7880   71.9080  218.5570 N   0  0  0  0  0  0  0  0  0  0  0  0
  141.4060   72.5790  219.7650 C   0  0  0  0  0  0  0  0  0  0  0  0
  140.8630   71.8690  220.7860 N   0  0  0  0  0  0  0  0  0  0  0  0
  140.5060   72.4890  221.9420 C   0  0  0  0  0  0  0  0  0  0  0  0
  139.9790   71.7310  223.0470 N   0  0  0  0  0  0  0  0  0  0  0  0
  138.7930   70.8760  222.8350 C   0  0  0  0  0  0  0  0  0  0  0  0
  138.1250   70.4850  224.1560 C   0  0  0  0  0  0  0  0  0  0  0  0
  139.1520   69.9460  225.1070 C   0  0  0  0  0  0  0  0  0  0  0  0
  138.8800   68.8410  225.9290 C   0  0  0  0  0  0  0  0  0  0  0  0
  139.8500   68.3790  226.8240 C   0  0  0  0  0  0  0  0  0  0  0  0
  141.0830   69.0320  226.9190 C   0  0  0  0  0  0  0  0  0  0  0  0
  141.3520   70.1440  226.1170 C   0  0  0  0  0  0  0  0  0  0  0  0
  140.3920   70.5990  225.1980 C   0  0  0  0  0  0  0  0  0  0  0  0
  140.6420   71.8260  224.3620 C   0  0  0  0  0  0  0  0  0  0  0  0
  140.6640   73.8340  222.0530 N   0  0  0  0  0  0  0  0  0  0  0  0
  141.1870   74.5580  221.0300 C   0  0  0  0  0  0  0  0  0  0  0  0
  141.2950   75.9930  221.1340 N   0  0  0  0  0  0  0  0  0  0  0  0
  142.0140   76.7310  220.0810 C   0  0  0  0  0  0  0  0  0  0  0  0
  141.6010   78.2010  220.0420 C   0  0  0  0  0  0  0  0  0  0  0  0
  141.7370   78.8060  221.4070 C   0  0  0  0  0  0  0  0  0  0  0  0
  142.1820   80.1290  221.5640 C   0  0  0  0  0  0  0  0  0  0  0  0
  142.2910   80.6850  222.8420 C   0  0  0  0  0  0  0  0  0  0  0  0
  141.9380   79.9320  223.9650 C   0  0  0  0  0  0  0  0  0  0  0  0
  141.4750   78.6200  223.8130 C   0  0  0  0  0  0  0  0  0  0  0  0
  141.3770   78.0470  222.5350 C   0  0  0  0  0  0  0  0  0  0  0  0
  140.8240   76.6520  222.3680 C   0  0  0  0  0  0  0  0  0  0  0  0
  141.5680   73.9210  219.8920 N   0  0  0  0  0  0  0  0  0  0  0  0
  145.7620   72.0670  219.9890 C   0  0  0  0  0  0  0  0  0  0  0  0
  147.0700   72.3996  221.6901 H   0  0  0  0  0  0  0  0  0  0  0  0
  146.2639   74.7387  222.0472 H   0  0  0  0  0  0  0  0  0  0  0  0
  143.6140   74.4026  218.7198 H   0  0  0  0  0  0  0  0  0  0  0  0
  143.9190   72.4942  217.1913 H   0  0  0  0  0  0  0  0  0  0  0  0
  144.9617   71.0965  217.6599 H   0  0  0  0  0  0  0  0  0  0  0  0
  142.7587   70.2254  217.7622 H   0  0  0  0  0  0  0  0  0  0  0  0
  143.1646   70.6322  219.4787 H   0  0  0  0  0  0  0  0  0  0  0  0
  141.0960   71.8720  217.7740 H   0  0  0  0  0  0  0  0  0  0  0  0
  138.0658   71.4239  222.2177 H   0  0  0  0  0  0  0  0  0  0  0  0
  139.1238   69.9536  222.3352 H   0  0  0  0  0  0  0  0  0  0  0  0
  137.6468   71.3709  224.5992 H   0  0  0  0  0  0  0  0  0  0  0  0
  137.3675   69.7108  223.9638 H   0  0  0  0  0  0  0  0  0  0  0  0
  137.9034   68.3384  225.8690 H   0  0  0  0  0  0  0  0  0  0  0  0
  139.6430   67.5012  227.4538 H   0  0  0  0  0  0  0  0  0  0  0  0
  141.8429   68.6693  227.6268 H   0  0  0  0  0  0  0  0  0  0  0  0
  142.3173   70.6641  226.2054 H   0  0  0  0  0  0  0  0  0  0  0  0
  140.2536   72.7064  224.8949 H   0  0  0  0  0  0  0  0  0  0  0  0
  141.7257   71.9143  224.1956 H   0  0  0  0  0  0  0  0  0  0  0  0
  143.0948   76.6690  220.2762 H   0  0  0  0  0  0  0  0  0  0  0  0
  141.7632   76.2775  219.1107 H   0  0  0  0  0  0  0  0  0  0  0  0
  142.2482   78.7430  219.3368 H   0  0  0  0  0  0  0  0  0  0  0  0
  140.5528   78.2740  219.7165 H   0  0  0  0  0  0  0  0  0  0  0  0
  142.4451   80.7285  220.6800 H   0  0  0  0  0  0  0  0  0  0  0  0
  142.6549   81.7159  222.9637 H   0  0  0  0  0  0  0  0  0  0  0  0
  142.0242   80.3711  224.9699 H   0  0  0  0  0  0  0  0  0  0  0  0
  141.1866   78.0351  224.6988 H   0  0  0  0  0  0  0  0  0  0  0  0
  141.1351   76.0451  223.2311 H   0  0  0  0  0  0  0  0  0  0  0  0
  139.7293   76.7359  222.3010 H   0  0  0  0  0  0  0  0  0  0  0  0
  146.1016   71.0326  219.8316 H   0  0  0  0  0  0  0  0  0  0  0  0
  1  2  2  0
  2  3  1  0
  3  4  2  0
  4  5  1  0
  5  6  1  0
  6  7  1  0
  7  8  1  0
  8  9  1  0
  9 10  2  0
 10 11  1  0
 11 12  1  0
 12 13  1  0
 13 14  1  0
 14 15  1  0
 15 16  2  0
 16 17  1  0
 17 18  2  0
 18 19  1  0
 19 20  2  0
 20 21  1  0
 11 22  2  0
 22 23  1  0
 23 24  1  0
 24 25  1  0
 25 26  1  0
 26 27  1  0
 27 28  2  0
 28 29  1  0
 29 30  2  0
 30 31  1  0
 31 32  2  0
 32 33  1  0
 23 34  2  0
  5 35  2  0
 35  1  1  0
 34  9  1  0
 21 12  1  0
 33 24  1  0
 20 15  1  0
 32 27  1  0
  1 36  1  0
  2 37  1  0
  4 38  1  0
  6 39  1  0
  6 40  1  0
  7 41  1  0
  7 42  1  0
  8 43  1  0
 13 44  1  0
 13 45  1  0
 14 46  1  0
 14 47  1  0
 16 48  1  0
 17 49  1  0
 18 50  1  0
 19 51  1  0
 21 52  1  0
 21 53  1  0
 25 54  1  0
 25 55  1  0
 26 56  1  0
 26 57  1  0
 28 58  1  0
 29 59  1  0
 30 60  1  0
 31 61  1  0
 33 62  1  0
 33 63  1  0
 35 64  1  0
M  END
>  <UniqueID>  (42) 
595

>  <SMILES>  (42) 
c1cncc(CCNc2nc(N3CCc4ccccc4C3)nc(N3CCc4ccccc4C3)n2)c1

>  <Energy>  (42) 
73.69619201064873

>  <Genealogy>  (42) 
c1cncc(CCNc2nc(N3CCc4ccccc4C3)nc(N3CCc4ccccc4C3)n2)c1 (3D coordinates assigned)
c1cncc(CCNc2nc(N3CCc4ccccc4C3)nc(N3CCc4ccccc4C3)n2)c1 (nonaromatic ring conformer: 73.69619201064873 kcal/mol)

>  <smiles>  (42) 
c1cncc(CCNc2nc(N3CCc4ccccc4C3)nc(N3CCc4ccccc4C3)n2)c1

>  <score_type>  (42) 
oracle

>  <origin>  (42) 
autodockgpu

>  <m_score__min__energy>  (42) 
-10.68

>  <m_primary>  (42) 
energy

>  <meeko>  (42) 
{"free_energy": -9.71, "intermolecular_energy": -11.5, "internal_energy": -1.39, "cluster_size": 10, "cluster_id": 1, "rank_in_cluster": 8}

>  <energy>  (42) 
-10.47

>  <cluster_rmsd>  (42) 
1.96

>  <rmsd>  (42) 
269.34

>  <cluster>  (42) 
1

$$$$
RCQFLYQWKFFJSS-SREBMQDQNA-N
     RDKit          3D

 64 69  0  0  0  0  0  0  0  0999 V2000
  143.3130   76.7070  219.3660 C   0  0  0  0  0  0  0  0  0  0  0  0
  143.1150   76.8160  217.9890 C   0  0  0  0  0  0  0  0  0  0  0  0
  143.2980   75.7320  217.1860 N   0  0  0  0  0  0  0  0  0  0  0  0
  143.6820   74.5240  217.6870 C   0  0  0  0  0  0  0  0  0  0  0  0
  143.8860   74.3660  219.0680 C   0  0  0  0  0  0  0  0  0  0  0  0
  144.3040   73.0330  219.6400 C   0  0  0  0  0  0  0  0  0  0  0  0
  143.4400   71.8980  219.0650 C   0  0  0  0  0  0  0  0  0  0  0  0
  142.0130   72.2230  219.1460 N   0  0  0  0  0  0  0  0  0  0  0  0
  141.3770   72.6120  220.3700 C   0  0  0  0  0  0  0  0  0  0  0  0
  141.0530   73.9140  220.5760 N   0  0  0  0  0  0  0  0  0  0  0  0
  140.4390   74.2970  221.7260 C   0  0  0  0  0  0  0  0  0  0  0  0
  140.0460   75.6680  221.9250 N   0  0  0  0  0  0  0  0  0  0  0  0
  138.6760   75.9660  222.3870 C   0  0  0  0  0  0  0  0  0  0  0  0
  138.2960   77.4300  222.1470 C   0  0  0  0  0  0  0  0  0  0  0  0
  139.3710   78.3300  222.6790 C   0  0  0  0  0  0  0  0  0  0  0  0
  139.0610   79.5220  223.3530 C   0  0  0  0  0  0  0  0  0  0  0  0
  140.0880   80.3530  223.8140 C   0  0  0  0  0  0  0  0  0  0  0  0
  141.4240   80.0100  223.5820 C   0  0  0  0  0  0  0  0  0  0  0  0
  141.7370   78.8350  222.8940 C   0  0  0  0  0  0  0  0  0  0  0  0
  140.7130   77.9830  222.4500 C   0  0  0  0  0  0  0  0  0  0  0  0
  141.0280   76.7380  221.6630 C   0  0  0  0  0  0  0  0  0  0  0  0
  140.1860   73.3700  222.6870 N   0  0  0  0  0  0  0  0  0  0  0  0
  140.5260   72.0680  222.5020 C   0  0  0  0  0  0  0  0  0  0  0  0
  140.3070   71.1020  223.5510 N   0  0  0  0  0  0  0  0  0  0  0  0
  139.1160   70.2370  223.4870 C   0  0  0  0  0  0  0  0  0  0  0  0
  139.2940   68.9700  224.3210 C   0  0  0  0  0  0  0  0  0  0  0  0
  139.7070   69.3310  225.7160 C   0  0  0  0  0  0  0  0  0  0  0  0
  139.2270   68.6030  226.8170 C   0  0  0  0  0  0  0  0  0  0  0  0
  139.6300   68.9420  228.1120 C   0  0  0  0  0  0  0  0  0  0  0  0
  140.5280   69.9940  228.3120 C   0  0  0  0  0  0  0  0  0  0  0  0
  141.0260   70.7090  227.2180 C   0  0  0  0  0  0  0  0  0  0  0  0
  140.6140   70.3870  225.9140 C   0  0  0  0  0  0  0  0  0  0  0  0
  141.1960   71.1220  224.7300 C   0  0  0  0  0  0  0  0  0  0  0  0
  141.1100   71.6940  221.3340 N   0  0  0  0  0  0  0  0  0  0  0  0
  143.6930   75.4760  219.9080 C   0  0  0  0  0  0  0  0  0  0  0  0
  143.1714   77.5812  220.0184 H   0  0  0  0  0  0  0  0  0  0  0  0
  142.8108   77.7786  217.5520 H   0  0  0  0  0  0  0  0  0  0  0  0
  143.8325   73.6712  217.0087 H   0  0  0  0  0  0  0  0  0  0  0  0
  145.3584   72.8469  219.3880 H   0  0  0  0  0  0  0  0  0  0  0  0
  144.1707   73.0598  220.7316 H   0  0  0  0  0  0  0  0  0  0  0  0
  143.7122   71.7389  218.0112 H   0  0  0  0  0  0  0  0  0  0  0  0
  143.6234   70.9882  219.6554 H   0  0  0  0  0  0  0  0  0  0  0  0
  141.4050   71.9630  218.3360 H   0  0  0  0  0  0  0  0  0  0  0  0
  137.9696   75.3218  221.8429 H   0  0  0  0  0  0  0  0  0  0  0  0
  138.6336   75.7768  223.4698 H   0  0  0  0  0  0  0  0  0  0  0  0
  138.1762   77.6035  221.0674 H   0  0  0  0  0  0  0  0  0  0  0  0
  137.3510   77.6486  222.6658 H   0  0  0  0  0  0  0  0  0  0  0  0
  138.0104   79.8027  223.5187 H   0  0  0  0  0  0  0  0  0  0  0  0
  139.8445   81.2768  224.3593 H   0  0  0  0  0  0  0  0  0  0  0  0
  142.2298   80.6666  223.9419 H   0  0  0  0  0  0  0  0  0  0  0  0
  142.7884   78.5767  222.6996 H   0  0  0  0  0  0  0  0  0  0  0  0
  141.0142   76.9806  220.5902 H   0  0  0  0  0  0  0  0  0  0  0  0
  142.0206   76.3776  221.9710 H   0  0  0  0  0  0  0  0  0  0  0  0
  138.2484   70.7958  223.8679 H   0  0  0  0  0  0  0  0  0  0  0  0
  138.9634   69.9397  222.4390 H   0  0  0  0  0  0  0  0  0  0  0  0
  138.3430   68.4182  224.3535 H   0  0  0  0  0  0  0  0  0  0  0  0
  140.0730   68.3421  223.8638 H   0  0  0  0  0  0  0  0  0  0  0  0
  138.5326   67.7644  226.6600 H   0  0  0  0  0  0  0  0  0  0  0  0
  139.2402   68.3805  228.9738 H   0  0  0  0  0  0  0  0  0  0  0  0
  140.8437   70.2601  229.3316 H   0  0  0  0  0  0  0  0  0  0  0  0
  141.7434   71.5271  227.3793 H   0  0  0  0  0  0  0  0  0  0  0  0
  141.3736   72.1685  225.0186 H   0  0  0  0  0  0  0  0  0  0  0  0
  142.1295   70.6121  224.4497 H   0  0  0  0  0  0  0  0  0  0  0  0
  143.8412   75.3759  220.9934 H   0  0  0  0  0  0  0  0  0  0  0  0
  1  2  2  0
  2  3  1  0
  3  4  2  0
  4  5  1  0
  5  6  1  0
  6  7  1  0
  7  8  1  0
  8  9  1  0
  9 10  2  0
 10 11  1  0
 11 12  1  0
 12 13  1  0
 13 14  1  0
 14 15  1  0
 15 16  2  0
 16 17  1  0
 17 18  2  0
 18 19  1  0
 19 20  2  0
 20 21  1  0
 11 22  2  0
 22 23  1  0
 23 24  1  0
 24 25  1  0
 25 26  1  0
 26 27  1  0
 27 28  2  0
 28 29  1  0
 29 30  2  0
 30 31  1  0
 31 32  2  0
 32 33  1  0
 23 34  2  0
  5 35  2  0
 35  1  1  0
 34  9  1  0
 21 12  1  0
 33 24  1  0
 20 15  1  0
 32 27  1  0
  1 36  1  0
  2 37  1  0
  4 38  1  0
  6 39  1  0
  6 40  1  0
  7 41  1  0
  7 42  1  0
  8 43  1  0
 13 44  1  0
 13 45  1  0
 14 46  1  0
 14 47  1  0
 16 48  1  0
 17 49  1  0
 18 50  1  0
 19 51  1  0
 21 52  1  0
 21 53  1  0
 25 54  1  0
 25 55  1  0
 26 56  1  0
 26 57  1  0
 28 58  1  0
 29 59  1  0
 30 60  1  0
 31 61  1  0
 33 62  1  0
 33 63  1  0
 35 64  1  0
M  END
>  <UniqueID>  (43) 
595

>  <SMILES>  (43) 
c1cncc(CCNc2nc(N3CCc4ccccc4C3)nc(N3CCc4ccccc4C3)n2)c1

>  <Energy>  (43) 
73.69619201064873

>  <Genealogy>  (43) 
c1cncc(CCNc2nc(N3CCc4ccccc4C3)nc(N3CCc4ccccc4C3)n2)c1 (3D coordinates assigned)
c1cncc(CCNc2nc(N3CCc4ccccc4C3)nc(N3CCc4ccccc4C3)n2)c1 (nonaromatic ring conformer: 73.69619201064873 kcal/mol)

>  <smiles>  (43) 
c1cncc(CCNc2nc(N3CCc4ccccc4C3)nc(N3CCc4ccccc4C3)n2)c1

>  <score_type>  (43) 
oracle

>  <origin>  (43) 
autodockgpu

>  <m_score__min__energy>  (43) 
-10.68

>  <m_primary>  (43) 
energy

>  <meeko>  (43) 
{"free_energy": -9.33, "intermolecular_energy": -11.12, "internal_energy": -1.54, "cluster_size": 10, "cluster_id": 2, "rank_in_cluster": 7}

>  <energy>  (43) 
-10.43

>  <cluster_rmsd>  (43) 
0.76

>  <rmsd>  (43) 
269.48

>  <cluster>  (43) 
1

$$$$
RCQFLYQWKFFJSS-SREBMQDQNA-N
     RDKit          3D

 64 69  0  0  0  0  0  0  0  0999 V2000
  143.1640   76.8040  219.7070 C   0  0  0  0  0  0  0  0  0  0  0  0
  142.1740   77.7620  219.4860 C   0  0  0  0  0  0  0  0  0  0  0  0
  141.1330   77.4870  218.6530 N   0  0  0  0  0  0  0  0  0  0  0  0
  141.0260   76.2900  218.0100 C   0  0  0  0  0  0  0  0  0  0  0  0
  141.9970   75.2940  218.2070 C   0  0  0  0  0  0  0  0  0  0  0  0
  141.8890   73.9610  217.5070 C   0  0  0  0  0  0  0  0  0  0  0  0
  142.5360   72.8480  218.3500 C   0  0  0  0  0  0  0  0  0  0  0  0
  141.5270   72.0920  219.0970 N   0  0  0  0  0  0  0  0  0  0  0  0
  140.9940   72.5430  220.3490 C   0  0  0  0  0  0  0  0  0  0  0  0
  140.6610   71.6370  221.3030 N   0  0  0  0  0  0  0  0  0  0  0  0
  140.1660   72.0490  222.5000 C   0  0  0  0  0  0  0  0  0  0  0  0
  139.8620   71.0940  223.5340 N   0  0  0  0  0  0  0  0  0  0  0  0
  139.5020   69.7120  223.1570 C   0  0  0  0  0  0  0  0  0  0  0  0
  138.8170   68.9650  224.3050 C   0  0  0  0  0  0  0  0  0  0  0  0
  139.6250   69.1060  225.5610 C   0  0  0  0  0  0  0  0  0  0  0  0
  139.7990   68.0290  226.4450 C   0  0  0  0  0  0  0  0  0  0  0  0
  140.5370   68.2010  227.6210 C   0  0  0  0  0  0  0  0  0  0  0  0
  141.0820   69.4520  227.9290 C   0  0  0  0  0  0  0  0  0  0  0  0
  140.8950   70.5320  227.0620 C   0  0  0  0  0  0  0  0  0  0  0  0
  140.1770   70.3610  225.8670 C   0  0  0  0  0  0  0  0  0  0  0  0
  139.9210   71.5240  224.9450 C   0  0  0  0  0  0  0  0  0  0  0  0
  139.9700   73.3750  222.7190 N   0  0  0  0  0  0  0  0  0  0  0  0
  140.2780   74.2900  221.7640 C   0  0  0  0  0  0  0  0  0  0  0  0
  140.0120   75.6900  221.9820 N   0  0  0  0  0  0  0  0  0  0  0  0
  138.8210   76.2950  221.3610 C   0  0  0  0  0  0  0  0  0  0  0  0
  138.3950   77.5710  222.0830 C   0  0  0  0  0  0  0  0  0  0  0  0
  139.5620   78.5070  222.1960 C   0  0  0  0  0  0  0  0  0  0  0  0
  139.3830   79.8940  222.0680 C   0  0  0  0  0  0  0  0  0  0  0  0
  140.4760   80.7570  222.1880 C   0  0  0  0  0  0  0  0  0  0  0  0
  141.7470   80.2410  222.4560 C   0  0  0  0  0  0  0  0  0  0  0  0
  141.9280   78.8620  222.6050 C   0  0  0  0  0  0  0  0  0  0  0  0
  140.8380   77.9860  222.4690 C   0  0  0  0  0  0  0  0  0  0  0  0
  141.0240   76.5030  222.6860 C   0  0  0  0  0  0  0  0  0  0  0  0
  140.8030   73.8660  220.5840 N   0  0  0  0  0  0  0  0  0  0  0  0
  143.0720   75.5640  219.0700 C   0  0  0  0  0  0  0  0  0  0  0  0
  144.0089   77.0230  220.3764 H   0  0  0  0  0  0  0  0  0  0  0  0
  142.2347   78.7403  219.9853 H   0  0  0  0  0  0  0  0  0  0  0  0
  140.1775   76.1034  217.3353 H   0  0  0  0  0  0  0  0  0  0  0  0
  140.8271   73.7220  217.3479 H   0  0  0  0  0  0  0  0  0  0  0  0
  142.4153   74.0249  216.5432 H   0  0  0  0  0  0  0  0  0  0  0  0
  143.0769   72.1612  217.6824 H   0  0  0  0  0  0  0  0  0  0  0  0
  143.2250   73.3135  219.0701 H   0  0  0  0  0  0  0  0  0  0  0  0
  141.3470   71.1020  218.8130 H   0  0  0  0  0  0  0  0  0  0  0  0
  138.8177   69.7453  222.2964 H   0  0  0  0  0  0  0  0  0  0  0  0
  140.4290   69.1752  222.9071 H   0  0  0  0  0  0  0  0  0  0  0  0
  137.8141   69.3867  224.4674 H   0  0  0  0  0  0  0  0  0  0  0  0
  138.7350   67.8993  224.0452 H   0  0  0  0  0  0  0  0  0  0  0  0
  139.3549   67.0498  226.2128 H   0  0  0  0  0  0  0  0  0  0  0  0
  140.6888   67.3521  228.3038 H   0  0  0  0  0  0  0  0  0  0  0  0
  141.6591   69.5860  228.8558 H   0  0  0  0  0  0  0  0  0  0  0  0
  141.3110   71.5181  227.3160 H   0  0  0  0  0  0  0  0  0  0  0  0
  138.9628   71.9910  225.2166 H   0  0  0  0  0  0  0  0  0  0  0  0
  140.7501   72.2388  225.0532 H   0  0  0  0  0  0  0  0  0  0  0  0
  139.0498   76.5378  220.3128 H   0  0  0  0  0  0  0  0  0  0  0  0
  137.9949   75.5716  221.4265 H   0  0  0  0  0  0  0  0  0  0  0  0
  137.5891   78.0595  221.5156 H   0  0  0  0  0  0  0  0  0  0  0  0
  138.0371   77.3147  223.0911 H   0  0  0  0  0  0  0  0  0  0  0  0
  138.3804   80.3022  221.8728 H   0  0  0  0  0  0  0  0  0  0  0  0
  140.3359   81.8418  222.0716 H   0  0  0  0  0  0  0  0  0  0  0  0
  142.6067   80.9207  222.5499 H   0  0  0  0  0  0  0  0  0  0  0  0
  142.9277   78.4618  222.8295 H   0  0  0  0  0  0  0  0  0  0  0  0
  142.0212   76.2167  222.3203 H   0  0  0  0  0  0  0  0  0  0  0  0
  140.9132   76.3096  223.7632 H   0  0  0  0  0  0  0  0  0  0  0  0
  143.8422   74.7983  219.2444 H   0  0  0  0  0  0  0  0  0  0  0  0
  1  2  2  0
  2  3  1  0
  3  4  2  0
  4  5  1  0
  5  6  1  0
  6  7  1  0
  7  8  1  0
  8  9  1  0
  9 10  2  0
 10 11  1  0
 11 12  1  0
 12 13  1  0
 13 14  1  0
 14 15  1  0
 15 16  2  0
 16 17  1  0
 17 18  2  0
 18 19  1  0
 19 20  2  0
 20 21  1  0
 11 22  2  0
 22 23  1  0
 23 24  1  0
 24 25  1  0
 25 26  1  0
 26 27  1  0
 27 28  2  0
 28 29  1  0
 29 30  2  0
 30 31  1  0
 31 32  2  0
 32 33  1  0
 23 34  2  0
  5 35  2  0
 35  1  1  0
 34  9  1  0
 21 12  1  0
 33 24  1  0
 20 15  1  0
 32 27  1  0
  1 36  1  0
  2 37  1  0
  4 38  1  0
  6 39  1  0
  6 40  1  0
  7 41  1  0
  7 42  1  0
  8 43  1  0
 13 44  1  0
 13 45  1  0
 14 46  1  0
 14 47  1  0
 16 48  1  0
 17 49  1  0
 18 50  1  0
 19 51  1  0
 21 52  1  0
 21 53  1  0
 25 54  1  0
 25 55  1  0
 26 56  1  0
 26 57  1  0
 28 58  1  0
 29 59  1  0
 30 60  1  0
 31 61  1  0
 33 62  1  0
 33 63  1  0
 35 64  1  0
M  END
>  <UniqueID>  (44) 
595

>  <SMILES>  (44) 
c1cncc(CCNc2nc(N3CCc4ccccc4C3)nc(N3CCc4ccccc4C3)n2)c1

>  <Energy>  (44) 
73.69619201064873

>  <Genealogy>  (44) 
c1cncc(CCNc2nc(N3CCc4ccccc4C3)nc(N3CCc4ccccc4C3)n2)c1 (3D coordinates assigned)
c1cncc(CCNc2nc(N3CCc4ccccc4C3)nc(N3CCc4ccccc4C3)n2)c1 (nonaromatic ring conformer: 73.69619201064873 kcal/mol)

>  <smiles>  (44) 
c1cncc(CCNc2nc(N3CCc4ccccc4C3)nc(N3CCc4ccccc4C3)n2)c1

>  <score_type>  (44) 
oracle

>  <origin>  (44) 
autodockgpu

>  <m_score__min__energy>  (44) 
-10.68

>  <m_primary>  (44) 
energy

>  <meeko>  (44) 
{"free_energy": -8.12, "intermolecular_energy": -9.91, "internal_energy": -2.05, "cluster_size": 10, "cluster_id": 2, "rank_in_cluster": 10}

>  <energy>  (44) 
-9.92

>  <cluster_rmsd>  (44) 
1.92

>  <rmsd>  (44) 
269.15

>  <cluster>  (44) 
1

$$$$
RCQFLYQWKFFJSS-SREBMQDQNA-N
     RDKit          3D

 64 69  0  0  0  0  0  0  0  0999 V2000
  144.8930   74.4790  220.4930 C   0  0  0  0  0  0  0  0  0  0  0  0
  146.0140   73.7240  220.8400 C   0  0  0  0  0  0  0  0  0  0  0  0
  146.3080   72.5850  220.1550 N   0  0  0  0  0  0  0  0  0  0  0  0
  145.5280   72.1440  219.1280 C   0  0  0  0  0  0  0  0  0  0  0  0
  144.3920   72.8750  218.7400 C   0  0  0  0  0  0  0  0  0  0  0  0
  143.5220   72.4040  217.6010 C   0  0  0  0  0  0  0  0  0  0  0  0
  142.4710   71.3970  218.0990 C   0  0  0  0  0  0  0  0  0  0  0  0
  141.2010   72.0600  218.4040 N   0  0  0  0  0  0  0  0  0  0  0  0
  140.9510   72.7120  219.6560 C   0  0  0  0  0  0  0  0  0  0  0  0
  140.4690   71.9940  220.7030 N   0  0  0  0  0  0  0  0  0  0  0  0
  140.2380   72.5940  221.9010 C   0  0  0  0  0  0  0  0  0  0  0  0
  139.7770   71.8260  223.0280 N   0  0  0  0  0  0  0  0  0  0  0  0
  138.5580   71.0040  222.8910 C   0  0  0  0  0  0  0  0  0  0  0  0
  137.9830   70.6000  224.2510 C   0  0  0  0  0  0  0  0  0  0  0  0
  139.0650   70.0190  225.1110 C   0  0  0  0  0  0  0  0  0  0  0  0
  138.8290   68.9030  225.9310 C   0  0  0  0  0  0  0  0  0  0  0  0
  139.8530   68.4010  226.7410 C   0  0  0  0  0  0  0  0  0  0  0  0
  141.1050   69.0240  226.7540 C   0  0  0  0  0  0  0  0  0  0  0  0
  141.3390   70.1470  225.9550 C   0  0  0  0  0  0  0  0  0  0  0  0
  140.3240   70.6420  225.1200 C   0  0  0  0  0  0  0  0  0  0  0  0
  140.5400   71.8790  224.2910 C   0  0  0  0  0  0  0  0  0  0  0  0
  140.4580   73.9290  222.0300 N   0  0  0  0  0  0  0  0  0  0  0  0
  140.9200   74.6620  220.9840 C   0  0  0  0  0  0  0  0  0  0  0  0
  141.0940   76.0870  221.1130 N   0  0  0  0  0  0  0  0  0  0  0  0
  141.7880   76.8210  220.0410 C   0  0  0  0  0  0  0  0  0  0  0  0
  141.4350   78.3070  220.0550 C   0  0  0  0  0  0  0  0  0  0  0  0
  141.6670   78.8730  221.4240 C   0  0  0  0  0  0  0  0  0  0  0  0
  142.1750   80.1720  221.5870 C   0  0  0  0  0  0  0  0  0  0  0  0
  142.3730   80.6930  222.8690 C   0  0  0  0  0  0  0  0  0  0  0  0
  142.0480   79.9270  223.9930 C   0  0  0  0  0  0  0  0  0  0  0  0
  141.5230   78.6400  223.8370 C   0  0  0  0  0  0  0  0  0  0  0  0
  141.3350   78.1020  222.5530 C   0  0  0  0  0  0  0  0  0  0  0  0
  140.7150   76.7360  222.3850 C   0  0  0  0  0  0  0  0  0  0  0  0
  141.1760   74.0420  219.8020 N   0  0  0  0  0  0  0  0  0  0  0  0
  144.0830   74.0560  219.4360 C   0  0  0  0  0  0  0  0  0  0  0  0
  144.6494   75.3981  221.0461 H   0  0  0  0  0  0  0  0  0  0  0  0
  146.6609   74.0496  221.6680 H   0  0  0  0  0  0  0  0  0  0  0  0
  145.7882   71.2138  218.6016 H   0  0  0  0  0  0  0  0  0  0  0  0
  143.0099   73.2699  217.1560 H   0  0  0  0  0  0  0  0  0  0  0  0
  144.1578   71.9097  216.8517 H   0  0  0  0  0  0  0  0  0  0  0  0
  142.3018   70.6403  217.3187 H   0  0  0  0  0  0  0  0  0  0  0  0
  142.8481   70.9287  219.0201 H   0  0  0  0  0  0  0  0  0  0  0  0
  140.3860   71.8730  217.7750 H   0  0  0  0  0  0  0  0  0  0  0  0
  137.7997   71.5819  222.3423 H   0  0  0  0  0  0  0  0  0  0  0  0
  138.8269   70.0852  222.3493 H   0  0  0  0  0  0  0  0  0  0  0  0
  137.5604   71.4867  224.7461 H   0  0  0  0  0  0  0  0  0  0  0  0
  137.1957   69.8465  224.1016 H   0  0  0  0  0  0  0  0  0  0  0  0
  137.8388   68.4239  225.9361 H   0  0  0  0  0  0  0  0  0  0  0  0
  139.6733   67.5154  227.3683 H   0  0  0  0  0  0  0  0  0  0  0  0
  141.9076   68.6294  227.3945 H   0  0  0  0  0  0  0  0  0  0  0  0
  142.3200   70.6439  225.9803 H   0  0  0  0  0  0  0  0  0  0  0  0
  140.2146   72.7570  224.8682 H   0  0  0  0  0  0  0  0  0  0  0  0
  141.6099   71.9459  224.0445 H   0  0  0  0  0  0  0  0  0  0  0  0
  142.8738   76.7110  220.1786 H   0  0  0  0  0  0  0  0  0  0  0  0
  141.4690   76.4014  219.0755 H   0  0  0  0  0  0  0  0  0  0  0  0
  142.0667   78.8389  219.3284 H   0  0  0  0  0  0  0  0  0  0  0  0
  140.3754   78.4304  219.7865 H   0  0  0  0  0  0  0  0  0  0  0  0
  142.4177   80.7810  220.7037 H   0  0  0  0  0  0  0  0  0  0  0  0
  142.7844   81.7055  222.9937 H   0  0  0  0  0  0  0  0  0  0  0  0
  142.2055   80.3373  225.0014 H   0  0  0  0  0  0  0  0  0  0  0  0
  141.2561   78.0464  224.7238 H   0  0  0  0  0  0  0  0  0  0  0  0
  141.0435   76.0963  223.2174 H   0  0  0  0  0  0  0  0  0  0  0  0
  139.6229   76.8670  222.3770 H   0  0  0  0  0  0  0  0  0  0  0  0
  143.2020   74.6484  219.1482 H   0  0  0  0  0  0  0  0  0  0  0  0
  1  2  2  0
  2  3  1  0
  3  4  2  0
  4  5  1  0
  5  6  1  0
  6  7  1  0
  7  8  1  0
  8  9  1  0
  9 10  2  0
 10 11  1  0
 11 12  1  0
 12 13  1  0
 13 14  1  0
 14 15  1  0
 15 16  2  0
 16 17  1  0
 17 18  2  0
 18 19  1  0
 19 20  2  0
 20 21  1  0
 11 22  2  0
 22 23  1  0
 23 24  1  0
 24 25  1  0
 25 26  1  0
 26 27  1  0
 27 28  2  0
 28 29  1  0
 29 30  2  0
 30 31  1  0
 31 32  2  0
 32 33  1  0
 23 34  2  0
  5 35  2  0
 35  1  1  0
 34  9  1  0
 21 12  1  0
 33 24  1  0
 20 15  1  0
 32 27  1  0
  1 36  1  0
  2 37  1  0
  4 38  1  0
  6 39  1  0
  6 40  1  0
  7 41  1  0
  7 42  1  0
  8 43  1  0
 13 44  1  0
 13 45  1  0
 14 46  1  0
 14 47  1  0
 16 48  1  0
 17 49  1  0
 18 50  1  0
 19 51  1  0
 21 52  1  0
 21 53  1  0
 25 54  1  0
 25 55  1  0
 26 56  1  0
 26 57  1  0
 28 58  1  0
 29 59  1  0
 30 60  1  0
 31 61  1  0
 33 62  1  0
 33 63  1  0
 35 64  1  0
M  END
>  <UniqueID>  (45) 
595

>  <SMILES>  (45) 
c1cncc(CCNc2nc(N3CCc4ccccc4C3)nc(N3CCc4ccccc4C3)n2)c1

>  <Energy>  (45) 
73.69619201064873

>  <Genealogy>  (45) 
c1cncc(CCNc2nc(N3CCc4ccccc4C3)nc(N3CCc4ccccc4C3)n2)c1 (3D coordinates assigned)
c1cncc(CCNc2nc(N3CCc4ccccc4C3)nc(N3CCc4ccccc4C3)n2)c1 (nonaromatic ring conformer: 73.69619201064873 kcal/mol)

>  <smiles>  (45) 
c1cncc(CCNc2nc(N3CCc4ccccc4C3)nc(N3CCc4ccccc4C3)n2)c1

>  <score_type>  (45) 
oracle

>  <origin>  (45) 
autodockgpu

>  <m_score__min__energy>  (45) 
-10.68

>  <m_primary>  (45) 
energy

>  <meeko>  (45) 
{"free_energy": -9.92, "intermolecular_energy": -11.71, "internal_energy": -1.41, "cluster_size": 10, "cluster_id": 1, "rank_in_cluster": 5}

>  <energy>  (45) 
-9.92

>  <cluster_rmsd>  (45) 
1.93

>  <rmsd>  (45) 
269.12

>  <cluster>  (45) 
1

$$$$
RCQFLYQWKFFJSS-SREBMQDQNA-N
     RDKit          3D

 64 69  0  0  0  0  0  0  0  0999 V2000
  144.9200   74.4870  220.4680 C   0  0  0  0  0  0  0  0  0  0  0  0
  146.1400   73.8100  220.4960 C   0  0  0  0  0  0  0  0  0  0  0  0
  146.3190   72.6960  219.7340 N   0  0  0  0  0  0  0  0  0  0  0  0
  145.3300   72.2060  218.9350 C   0  0  0  0  0  0  0  0  0  0  0  0
  144.0870   72.8590  218.8700 C   0  0  0  0  0  0  0  0  0  0  0  0
  142.9830   72.3330  217.9860 C   0  0  0  0  0  0  0  0  0  0  0  0
  142.5970   70.9000  218.3900 C   0  0  0  0  0  0  0  0  0  0  0  0
  141.2980   70.8700  219.0680 N   0  0  0  0  0  0  0  0  0  0  0  0
  141.0030   71.6870  220.2080 C   0  0  0  0  0  0  0  0  0  0  0  0
  140.5910   71.1060  221.3640 N   0  0  0  0  0  0  0  0  0  0  0  0
  140.3180   71.8660  222.4580 C   0  0  0  0  0  0  0  0  0  0  0  0
  139.9330   71.2490  223.7000 N   0  0  0  0  0  0  0  0  0  0  0  0
  139.1710   69.9840  223.6710 C   0  0  0  0  0  0  0  0  0  0  0  0
  138.4930   69.6930  225.0130 C   0  0  0  0  0  0  0  0  0  0  0  0
  139.4880   69.8260  226.1270 C   0  0  0  0  0  0  0  0  0  0  0  0
  139.5030   68.9290  227.2080 C   0  0  0  0  0  0  0  0  0  0  0  0
  140.4280   69.0970  228.2440 C   0  0  0  0  0  0  0  0  0  0  0  0
  141.3220   70.1720  228.2180 C   0  0  0  0  0  0  0  0  0  0  0  0
  141.2980   71.0790  227.1550 C   0  0  0  0  0  0  0  0  0  0  0  0
  140.3890   70.9040  226.0980 C   0  0  0  0  0  0  0  0  0  0  0  0
  140.3130   71.8980  224.9700 C   0  0  0  0  0  0  0  0  0  0  0  0
  140.4250   73.2180  222.3730 N   0  0  0  0  0  0  0  0  0  0  0  0
  140.8150   73.8120  221.2150 C   0  0  0  0  0  0  0  0  0  0  0  0
  140.8690   75.2500  221.1170 N   0  0  0  0  0  0  0  0  0  0  0  0
  141.3480   75.8620  219.8660 C   0  0  0  0  0  0  0  0  0  0  0  0
  140.8610   77.3020  219.7200 C   0  0  0  0  0  0  0  0  0  0  0  0
  141.2100   78.0850  220.9500 C   0  0  0  0  0  0  0  0  0  0  0  0
  141.6080   79.4290  220.8550 C   0  0  0  0  0  0  0  0  0  0  0  0
  141.9180   80.1520  222.0100 C   0  0  0  0  0  0  0  0  0  0  0  0
  141.8120   79.5450  223.2650 C   0  0  0  0  0  0  0  0  0  0  0  0
  141.3960   78.2130  223.3670 C   0  0  0  0  0  0  0  0  0  0  0  0
  141.0980   77.4730  222.2100 C   0  0  0  0  0  0  0  0  0  0  0  0
  140.5950   76.0540  222.3250 C   0  0  0  0  0  0  0  0  0  0  0  0
  141.1160   73.0380  220.1400 N   0  0  0  0  0  0  0  0  0  0  0  0
  143.8930   74.0130  219.6470 C   0  0  0  0  0  0  0  0  0  0  0  0
  144.7682   75.3844  221.0857 H   0  0  0  0  0  0  0  0  0  0  0  0
  146.9575   74.1766  221.1341 H   0  0  0  0  0  0  0  0  0  0  0  0
  145.5047   71.2976  218.3397 H   0  0  0  0  0  0  0  0  0  0  0  0
  142.1021   72.9847  218.0824 H   0  0  0  0  0  0  0  0  0  0  0  0
  143.3389   72.3226  216.9452 H   0  0  0  0  0  0  0  0  0  0  0  0
  142.5442   70.2748  217.4865 H   0  0  0  0  0  0  0  0  0  0  0  0
  143.3599   70.5172  219.0838 H   0  0  0  0  0  0  0  0  0  0  0  0
  140.6460   70.0840  218.8430 H   0  0  0  0  0  0  0  0  0  0  0  0
  138.3991   70.0520  222.8903 H   0  0  0  0  0  0  0  0  0  0  0  0
  139.8767   69.1665  223.4620 H   0  0  0  0  0  0  0  0  0  0  0  0
  137.6723   70.4084  225.1697 H   0  0  0  0  0  0  0  0  0  0  0  0
  138.0955   68.6674  225.0030 H   0  0  0  0  0  0  0  0  0  0  0  0
  138.7873   68.0943  227.2399 H   0  0  0  0  0  0  0  0  0  0  0  0
  140.4521   68.3826  229.0801 H   0  0  0  0  0  0  0  0  0  0  0  0
  142.0456   70.3040  229.0359 H   0  0  0  0  0  0  0  0  0  0  0  0
  141.9925   71.9320  227.1458 H   0  0  0  0  0  0  0  0  0  0  0  0
  139.5630   72.6634  225.2184 H   0  0  0  0  0  0  0  0  0  0  0  0
  141.3075   72.3502  224.8417 H   0  0  0  0  0  0  0  0  0  0  0  0
  142.4480   75.8556  219.8642 H   0  0  0  0  0  0  0  0  0  0  0  0
  140.9495   75.2778  219.0235 H   0  0  0  0  0  0  0  0  0  0  0  0
  141.3425   77.7631  218.8451 H   0  0  0  0  0  0  0  0  0  0  0  0
  139.7691   77.3037  219.5869 H   0  0  0  0  0  0  0  0  0  0  0  0
  141.6757   79.9131  219.8696 H   0  0  0  0  0  0  0  0  0  0  0  0
  142.2456   81.1992  221.9317 H   0  0  0  0  0  0  0  0  0  0  0  0
  142.0560   80.1154  224.1734 H   0  0  0  0  0  0  0  0  0  0  0  0
  141.3018   77.7430  224.3571 H   0  0  0  0  0  0  0  0  0  0  0  0
  141.0868   75.5754  223.1847 H   0  0  0  0  0  0  0  0  0  0  0  0
  139.5033   76.0989  222.4523 H   0  0  0  0  0  0  0  0  0  0  0  0
  142.9308   74.5447  219.6092 H   0  0  0  0  0  0  0  0  0  0  0  0
  1  2  2  0
  2  3  1  0
  3  4  2  0
  4  5  1  0
  5  6  1  0
  6  7  1  0
  7  8  1  0
  8  9  1  0
  9 10  2  0
 10 11  1  0
 11 12  1  0
 12 13  1  0
 13 14  1  0
 14 15  1  0
 15 16  2  0
 16 17  1  0
 17 18  2  0
 18 19  1  0
 19 20  2  0
 20 21  1  0
 11 22  2  0
 22 23  1  0
 23 24  1  0
 24 25  1  0
 25 26  1  0
 26 27  1  0
 27 28  2  0
 28 29  1  0
 29 30  2  0
 30 31  1  0
 31 32  2  0
 32 33  1  0
 23 34  2  0
  5 35  2  0
 35  1  1  0
 34  9  1  0
 21 12  1  0
 33 24  1  0
 20 15  1  0
 32 27  1  0
  1 36  1  0
  2 37  1  0
  4 38  1  0
  6 39  1  0
  6 40  1  0
  7 41  1  0
  7 42  1  0
  8 43  1  0
 13 44  1  0
 13 45  1  0
 14 46  1  0
 14 47  1  0
 16 48  1  0
 17 49  1  0
 18 50  1  0
 19 51  1  0
 21 52  1  0
 21 53  1  0
 25 54  1  0
 25 55  1  0
 26 56  1  0
 26 57  1  0
 28 58  1  0
 29 59  1  0
 30 60  1  0
 31 61  1  0
 33 62  1  0
 33 63  1  0
 35 64  1  0
M  END
>  <UniqueID>  (46) 
595

>  <SMILES>  (46) 
c1cncc(CCNc2nc(N3CCc4ccccc4C3)nc(N3CCc4ccccc4C3)n2)c1

>  <Energy>  (46) 
73.69619201064873

>  <Genealogy>  (46) 
c1cncc(CCNc2nc(N3CCc4ccccc4C3)nc(N3CCc4ccccc4C3)n2)c1 (3D coordinates assigned)
c1cncc(CCNc2nc(N3CCc4ccccc4C3)nc(N3CCc4ccccc4C3)n2)c1 (nonaromatic ring conformer: 73.69619201064873 kcal/mol)

>  <smiles>  (46) 
c1cncc(CCNc2nc(N3CCc4ccccc4C3)nc(N3CCc4ccccc4C3)n2)c1

>  <score_type>  (46) 
oracle

>  <origin>  (46) 
autodockgpu

>  <m_score__min__energy>  (46) 
-10.68

>  <m_primary>  (46) 
energy

>  <meeko>  (46) 
{"free_energy": -9.69, "intermolecular_energy": -11.48, "internal_energy": -1.41, "cluster_size": 10, "cluster_id": 1, "rank_in_cluster": 9}

>  <energy>  (46) 
-9.75

>  <cluster_rmsd>  (46) 
1.88

>  <rmsd>  (46) 
269.39

>  <cluster>  (46) 
1

$$$$
RCQFLYQWKFFJSS-SREBMQDQNA-N
     RDKit          3D

 64 69  0  0  0  0  0  0  0  0999 V2000
  145.2150   73.6040  221.1090 C   0  0  0  0  0  0  0  0  0  0  0  0
  146.1940   73.7430  220.1250 C   0  0  0  0  0  0  0  0  0  0  0  0
  146.2890   72.8280  219.1230 N   0  0  0  0  0  0  0  0  0  0  0  0
  145.4510   71.7560  219.0480 C   0  0  0  0  0  0  0  0  0  0  0  0
  144.4450   71.5780  220.0130 C   0  0  0  0  0  0  0  0  0  0  0  0
  143.5050   70.4000  219.9410 C   0  0  0  0  0  0  0  0  0  0  0  0
  142.6510   70.4610  218.6640 C   0  0  0  0  0  0  0  0  0  0  0  0
  141.6050   71.4820  218.7700 N   0  0  0  0  0  0  0  0  0  0  0  0
  141.3040   72.1540  220.0000 C   0  0  0  0  0  0  0  0  0  0  0  0
  140.8180   71.4450  221.0510 N   0  0  0  0  0  0  0  0  0  0  0  0
  140.5380   72.0640  222.2290 C   0  0  0  0  0  0  0  0  0  0  0  0
  140.0730   71.3070  223.3610 N   0  0  0  0  0  0  0  0  0  0  0  0
  139.4100   70.0070  223.1370 C   0  0  0  0  0  0  0  0  0  0  0  0
  138.6220   69.5460  224.3660 C   0  0  0  0  0  0  0  0  0  0  0  0
  139.4850   69.6330  225.5890 C   0  0  0  0  0  0  0  0  0  0  0  0
  139.4540   68.6370  226.5800 C   0  0  0  0  0  0  0  0  0  0  0  0
  140.2540   68.7610  227.7210 C   0  0  0  0  0  0  0  0  0  0  0  0
  141.0670   69.8870  227.8890 C   0  0  0  0  0  0  0  0  0  0  0  0
  141.0860   70.8890  226.9150 C   0  0  0  0  0  0  0  0  0  0  0  0
  140.3050   70.7610  225.7550 C   0  0  0  0  0  0  0  0  0  0  0  0
  140.2740   71.8530  224.7190 C   0  0  0  0  0  0  0  0  0  0  0  0
  140.7140   73.4080  222.3330 N   0  0  0  0  0  0  0  0  0  0  0  0
  141.1790   74.1310  221.2810 C   0  0  0  0  0  0  0  0  0  0  0  0
  141.3060   75.5640  221.3820 N   0  0  0  0  0  0  0  0  0  0  0  0
  140.4540   76.2900  222.3400 C   0  0  0  0  0  0  0  0  0  0  0  0
  141.0480   77.6480  222.7060 C   0  0  0  0  0  0  0  0  0  0  0  0
  141.3550   78.4230  221.4600 C   0  0  0  0  0  0  0  0  0  0  0  0
  141.1590   79.8130  221.4140 C   0  0  0  0  0  0  0  0  0  0  0  0
  141.4620   80.5260  220.2500 C   0  0  0  0  0  0  0  0  0  0  0  0
  141.9800   79.8590  219.1360 C   0  0  0  0  0  0  0  0  0  0  0  0
  142.1970   78.4780  219.1840 C   0  0  0  0  0  0  0  0  0  0  0  0
  141.8800   77.7500  220.3430 C   0  0  0  0  0  0  0  0  0  0  0  0
  142.1680   76.2700  220.4120 C   0  0  0  0  0  0  0  0  0  0  0  0
  141.4850   73.4930  220.1210 N   0  0  0  0  0  0  0  0  0  0  0  0
  144.3340   72.5200  221.0490 C   0  0  0  0  0  0  0  0  0  0  0  0
  145.1370   74.3393  221.9234 H   0  0  0  0  0  0  0  0  0  0  0  0
  146.8903   74.5939  220.1594 H   0  0  0  0  0  0  0  0  0  0  0  0
  145.5622   71.0285  218.2305 H   0  0  0  0  0  0  0  0  0  0  0  0
  144.0920   69.4697  219.9383 H   0  0  0  0  0  0  0  0  0  0  0  0
  142.8366   70.4281  220.8142 H   0  0  0  0  0  0  0  0  0  0  0  0
  143.3009   70.7014  217.8097 H   0  0  0  0  0  0  0  0  0  0  0  0
  142.1678   69.4829  218.5229 H   0  0  0  0  0  0  0  0  0  0  0  0
  140.9260   71.5720  217.9810 H   0  0  0  0  0  0  0  0  0  0  0  0
  138.7184   70.1028  222.2870 H   0  0  0  0  0  0  0  0  0  0  0  0
  140.1898   69.2585  222.9329 H   0  0  0  0  0  0  0  0  0  0  0  0
  137.7397   70.1899  224.4959 H   0  0  0  0  0  0  0  0  0  0  0  0
  138.3038   68.5030  224.2213 H   0  0  0  0  0  0  0  0  0  0  0  0
  138.8009   67.7602  226.4586 H   0  0  0  0  0  0  0  0  0  0  0  0
  140.2437   67.9719  228.4872 H   0  0  0  0  0  0  0  0  0  0  0  0
  141.6921   69.9838  228.7889 H   0  0  0  0  0  0  0  0  0  0  0  0
  141.7145   71.7805  227.0574 H   0  0  0  0  0  0  0  0  0  0  0  0
  139.4498   72.5432  224.9521 H   0  0  0  0  0  0  0  0  0  0  0  0
  141.2415   72.3759  224.7404 H   0  0  0  0  0  0  0  0  0  0  0  0
  139.4623   76.4441  221.8897 H   0  0  0  0  0  0  0  0  0  0  0  0
  140.3803   75.6887  223.2582 H   0  0  0  0  0  0  0  0  0  0  0  0
  140.3254   78.2097  223.3162 H   0  0  0  0  0  0  0  0  0  0  0  0
  141.9765   77.4955  223.2757 H   0  0  0  0  0  0  0  0  0  0  0  0
  140.7665   80.3416  222.2952 H   0  0  0  0  0  0  0  0  0  0  0  0
  141.2927   81.6122  220.2108 H   0  0  0  0  0  0  0  0  0  0  0  0
  142.2172   80.4209  218.2206 H   0  0  0  0  0  0  0  0  0  0  0  0
  142.6179   77.9594  218.3100 H   0  0  0  0  0  0  0  0  0  0  0  0
  142.0063   75.8336  219.4153 H   0  0  0  0  0  0  0  0  0  0  0  0
  143.2093   76.1503  220.7456 H   0  0  0  0  0  0  0  0  0  0  0  0
  143.5525   72.4046  221.8145 H   0  0  0  0  0  0  0  0  0  0  0  0
  1  2  2  0
  2  3  1  0
  3  4  2  0
  4  5  1  0
  5  6  1  0
  6  7  1  0
  7  8  1  0
  8  9  1  0
  9 10  2  0
 10 11  1  0
 11 12  1  0
 12 13  1  0
 13 14  1  0
 14 15  1  0
 15 16  2  0
 16 17  1  0
 17 18  2  0
 18 19  1  0
 19 20  2  0
 20 21  1  0
 11 22  2  0
 22 23  1  0
 23 24  1  0
 24 25  1  0
 25 26  1  0
 26 27  1  0
 27 28  2  0
 28 29  1  0
 29 30  2  0
 30 31  1  0
 31 32  2  0
 32 33  1  0
 23 34  2  0
  5 35  2  0
 35  1  1  0
 34  9  1  0
 21 12  1  0
 33 24  1  0
 20 15  1  0
 32 27  1  0
  1 36  1  0
  2 37  1  0
  4 38  1  0
  6 39  1  0
  6 40  1  0
  7 41  1  0
  7 42  1  0
  8 43  1  0
 13 44  1  0
 13 45  1  0
 14 46  1  0
 14 47  1  0
 16 48  1  0
 17 49  1  0
 18 50  1  0
 19 51  1  0
 21 52  1  0
 21 53  1  0
 25 54  1  0
 25 55  1  0
 26 56  1  0
 26 57  1  0
 28 58  1  0
 29 59  1  0
 30 60  1  0
 31 61  1  0
 33 62  1  0
 33 63  1  0
 35 64  1  0
M  END
>  <UniqueID>  (47) 
595

>  <SMILES>  (47) 
c1cncc(CCNc2nc(N3CCc4ccccc4C3)nc(N3CCc4ccccc4C3)n2)c1

>  <Energy>  (47) 
73.69619201064873

>  <Genealogy>  (47) 
c1cncc(CCNc2nc(N3CCc4ccccc4C3)nc(N3CCc4ccccc4C3)n2)c1 (3D coordinates assigned)
c1cncc(CCNc2nc(N3CCc4ccccc4C3)nc(N3CCc4ccccc4C3)n2)c1 (nonaromatic ring conformer: 73.69619201064873 kcal/mol)

>  <smiles>  (47) 
c1cncc(CCNc2nc(N3CCc4ccccc4C3)nc(N3CCc4ccccc4C3)n2)c1

>  <score_type>  (47) 
oracle

>  <origin>  (47) 
autodockgpu

>  <m_score__min__energy>  (47) 
-10.68

>  <m_primary>  (47) 
energy

>  <meeko>  (47) 
{"free_energy": -9.64, "intermolecular_energy": -11.43, "internal_energy": -1.51, "cluster_size": 10, "cluster_id": 1, "rank_in_cluster": 10}

>  <energy>  (47) 
-9.74

>  <cluster_rmsd>  (47) 
1.97

>  <rmsd>  (47) 
269.38

>  <cluster>  (47) 
1

$$$$
RCQFLYQWKFFJSS-SREBMQDQNA-N
     RDKit          3D

 64 69  0  0  0  0  0  0  0  0999 V2000
  144.1580   74.8130  220.0580 C   0  0  0  0  0  0  0  0  0  0  0  0
  145.4770   74.6310  220.4770 C   0  0  0  0  0  0  0  0  0  0  0  0
  145.9610   73.3760  220.6820 N   0  0  0  0  0  0  0  0  0  0  0  0
  145.1870   72.2690  220.4960 C   0  0  0  0  0  0  0  0  0  0  0  0
  143.8550   72.4040  220.0680 C   0  0  0  0  0  0  0  0  0  0  0  0
  142.9870   71.1880  219.8520 C   0  0  0  0  0  0  0  0  0  0  0  0
  142.1200   71.3540  218.5920 C   0  0  0  0  0  0  0  0  0  0  0  0
  140.9450   72.1870  218.8610 N   0  0  0  0  0  0  0  0  0  0  0  0
  140.5970   72.6300  220.1790 C   0  0  0  0  0  0  0  0  0  0  0  0
  140.4200   73.9550  220.4180 N   0  0  0  0  0  0  0  0  0  0  0  0
  140.0780   74.3900  221.6600 C   0  0  0  0  0  0  0  0  0  0  0  0
  139.8380   75.7880  221.9050 N   0  0  0  0  0  0  0  0  0  0  0  0
  138.5540   76.2060  222.5030 C   0  0  0  0  0  0  0  0  0  0  0  0
  138.2920   77.7020  222.3100 C   0  0  0  0  0  0  0  0  0  0  0  0
  139.4940   78.4900  222.7380 C   0  0  0  0  0  0  0  0  0  0  0  0
  139.3650   79.6950  223.4470 C   0  0  0  0  0  0  0  0  0  0  0  0
  140.5060   80.4200  223.8090 C   0  0  0  0  0  0  0  0  0  0  0  0
  141.7740   79.9570  223.4440 C   0  0  0  0  0  0  0  0  0  0  0  0
  141.9070   78.7690  222.7210 C   0  0  0  0  0  0  0  0  0  0  0  0
  140.7680   78.0230  222.3760 C   0  0  0  0  0  0  0  0  0  0  0  0
  140.8860   76.7670  221.5540 C   0  0  0  0  0  0  0  0  0  0  0  0
  139.9530   73.4900  222.6700 N   0  0  0  0  0  0  0  0  0  0  0  0
  140.1500   72.1650  222.4480 C   0  0  0  0  0  0  0  0  0  0  0  0
  140.0730   71.2240  223.5380 N   0  0  0  0  0  0  0  0  0  0  0  0
  138.9380   70.2860  223.5920 C   0  0  0  0  0  0  0  0  0  0  0  0
  139.2590   69.0620  224.4470 C   0  0  0  0  0  0  0  0  0  0  0  0
  139.7510   69.4950  225.7950 C   0  0  0  0  0  0  0  0  0  0  0  0
  139.4020   68.7770  226.9510 C   0  0  0  0  0  0  0  0  0  0  0  0
  139.8780   69.1840  228.2000 C   0  0  0  0  0  0  0  0  0  0  0  0
  140.7210   70.2960  228.2990 C   0  0  0  0  0  0  0  0  0  0  0  0
  141.0880   71.0020  227.1490 C   0  0  0  0  0  0  0  0  0  0  0  0
  140.6010   70.6110  225.8910 C   0  0  0  0  0  0  0  0  0  0  0  0
  141.0440   71.3390  224.6450 C   0  0  0  0  0  0  0  0  0  0  0  0
  140.4590   71.7410  221.1950 N   0  0  0  0  0  0  0  0  0  0  0  0
  143.3470   73.6940  219.8470 C   0  0  0  0  0  0  0  0  0  0  0  0
  143.7610   75.8259  219.8956 H   0  0  0  0  0  0  0  0  0  0  0  0
  146.1262   75.5036  220.6417 H   0  0  0  0  0  0  0  0  0  0  0  0
  145.6056   71.2688  220.6812 H   0  0  0  0  0  0  0  0  0  0  0  0
  143.6291   70.3027  219.7342 H   0  0  0  0  0  0  0  0  0  0  0  0
  142.3254   71.0673  220.7225 H   0  0  0  0  0  0  0  0  0  0  0  0
  142.7220   71.8276  217.8025 H   0  0  0  0  0  0  0  0  0  0  0  0
  141.7751   70.3591  218.2740 H   0  0  0  0  0  0  0  0  0  0  0  0
  140.2310   72.2850  218.1040 H   0  0  0  0  0  0  0  0  0  0  0  0
  137.7398   75.6387  222.0285 H   0  0  0  0  0  0  0  0  0  0  0  0
  138.6011   76.0057  223.5836 H   0  0  0  0  0  0  0  0  0  0  0  0
  138.0839   77.9019  221.2485 H   0  0  0  0  0  0  0  0  0  0  0  0
  137.4272   78.0000  222.9210 H   0  0  0  0  0  0  0  0  0  0  0  0
  138.3668   80.0693  223.7180 H   0  0  0  0  0  0  0  0  0  0  0  0
  140.4053   81.3543  224.3808 H   0  0  0  0  0  0  0  0  0  0  0  0
  142.6694   80.5299  223.7270 H   0  0  0  0  0  0  0  0  0  0  0  0
  142.9053   78.4173  222.4214 H   0  0  0  0  0  0  0  0  0  0  0  0
  140.7900   77.0266  220.4894 H   0  0  0  0  0  0  0  0  0  0  0  0
  141.8658   76.3114  221.7601 H   0  0  0  0  0  0  0  0  0  0  0  0
  138.0678   70.8034  224.0221 H   0  0  0  0  0  0  0  0  0  0  0  0
  138.7260   69.9440  222.5683 H   0  0  0  0  0  0  0  0  0  0  0  0
  138.3505   68.4538  224.5686 H   0  0  0  0  0  0  0  0  0  0  0  0
  140.0406   68.4685  223.9501 H   0  0  0  0  0  0  0  0  0  0  0  0
  138.7526   67.8926  226.8727 H   0  0  0  0  0  0  0  0  0  0  0  0
  139.5899   68.6300  229.1056 H   0  0  0  0  0  0  0  0  0  0  0  0
  141.0956   70.6155  229.2827 H   0  0  0  0  0  0  0  0  0  0  0  0
  141.7615   71.8679  227.2301 H   0  0  0  0  0  0  0  0  0  0  0  0
  141.1750   72.4038  224.8881 H   0  0  0  0  0  0  0  0  0  0  0  0
  141.9845   70.8778  224.3092 H   0  0  0  0  0  0  0  0  0  0  0  0
  142.3090   73.8245  219.5072 H   0  0  0  0  0  0  0  0  0  0  0  0
  1  2  2  0
  2  3  1  0
  3  4  2  0
  4  5  1  0
  5  6  1  0
  6  7  1  0
  7  8  1  0
  8  9  1  0
  9 10  2  0
 10 11  1  0
 11 12  1  0
 12 13  1  0
 13 14  1  0
 14 15  1  0
 15 16  2  0
 16 17  1  0
 17 18  2  0
 18 19  1  0
 19 20  2  0
 20 21  1  0
 11 22  2  0
 22 23  1  0
 23 24  1  0
 24 25  1  0
 25 26  1  0
 26 27  1  0
 27 28  2  0
 28 29  1  0
 29 30  2  0
 30 31  1  0
 31 32  2  0
 32 33  1  0
 23 34  2  0
  5 35  2  0
 35  1  1  0
 34  9  1  0
 21 12  1  0
 33 24  1  0
 20 15  1  0
 32 27  1  0
  1 36  1  0
  2 37  1  0
  4 38  1  0
  6 39  1  0
  6 40  1  0
  7 41  1  0
  7 42  1  0
  8 43  1  0
 13 44  1  0
 13 45  1  0
 14 46  1  0
 14 47  1  0
 16 48  1  0
 17 49  1  0
 18 50  1  0
 19 51  1  0
 21 52  1  0
 21 53  1  0
 25 54  1  0
 25 55  1  0
 26 56  1  0
 26 57  1  0
 28 58  1  0
 29 59  1  0
 30 60  1  0
 31 61  1  0
 33 62  1  0
 33 63  1  0
 35 64  1  0
M  END
>  <UniqueID>  (48) 
595

>  <SMILES>  (48) 
c1cncc(CCNc2nc(N3CCc4ccccc4C3)nc(N3CCc4ccccc4C3)n2)c1

>  <Energy>  (48) 
73.69619201064873

>  <Genealogy>  (48) 
c1cncc(CCNc2nc(N3CCc4ccccc4C3)nc(N3CCc4ccccc4C3)n2)c1 (3D coordinates assigned)
c1cncc(CCNc2nc(N3CCc4ccccc4C3)nc(N3CCc4ccccc4C3)n2)c1 (nonaromatic ring conformer: 73.69619201064873 kcal/mol)

>  <smiles>  (48) 
c1cncc(CCNc2nc(N3CCc4ccccc4C3)nc(N3CCc4ccccc4C3)n2)c1

>  <score_type>  (48) 
oracle

>  <origin>  (48) 
autodockgpu

>  <m_score__min__energy>  (48) 
-10.68

>  <m_primary>  (48) 
energy

>  <meeko>  (48) 
{"free_energy": -9.74, "intermolecular_energy": -11.53, "internal_energy": -1.16, "cluster_size": 10, "cluster_id": 1, "rank_in_cluster": 7}

>  <energy>  (48) 
-9.71

>  <cluster_rmsd>  (48) 
1.8

>  <rmsd>  (48) 
269.29

>  <cluster>  (48) 
1

$$$$
RCQFLYQWKFFJSS-SREBMQDQNA-N
     RDKit          3D

 64 69  0  0  0  0  0  0  0  0999 V2000
  145.4790   74.1040  221.0800 C   0  0  0  0  0  0  0  0  0  0  0  0
  146.3340   73.0540  220.7410 C   0  0  0  0  0  0  0  0  0  0  0  0
  146.1140   72.3350  219.6060 N   0  0  0  0  0  0  0  0  0  0  0  0
  145.0660   72.6050  218.7780 C   0  0  0  0  0  0  0  0  0  0  0  0
  144.1840   73.6560  219.0760 C   0  0  0  0  0  0  0  0  0  0  0  0
  143.0220   73.9710  218.1650 C   0  0  0  0  0  0  0  0  0  0  0  0
  142.1210   72.7380  217.9850 C   0  0  0  0  0  0  0  0  0  0  0  0
  140.7540   73.0060  218.4410 N   0  0  0  0  0  0  0  0  0  0  0  0
  140.4520   73.4050  219.7840 C   0  0  0  0  0  0  0  0  0  0  0  0
  140.1320   72.4650  220.7090 N   0  0  0  0  0  0  0  0  0  0  0  0
  139.8550   72.8260  221.9900 C   0  0  0  0  0  0  0  0  0  0  0  0
  139.5670   71.8270  222.9860 N   0  0  0  0  0  0  0  0  0  0  0  0
  138.5770   70.7730  222.6860 C   0  0  0  0  0  0  0  0  0  0  0  0
  138.0880   70.0680  223.9540 C   0  0  0  0  0  0  0  0  0  0  0  0
  139.2610   69.6390  224.7850 C   0  0  0  0  0  0  0  0  0  0  0  0
  139.2780   68.3990  225.4430 C   0  0  0  0  0  0  0  0  0  0  0  0
  140.3770   68.0400  226.2310 C   0  0  0  0  0  0  0  0  0  0  0  0
  141.4480   68.9260  226.3840 C   0  0  0  0  0  0  0  0  0  0  0  0
  141.4270   70.1700  225.7470 C   0  0  0  0  0  0  0  0  0  0  0  0
  140.3390   70.5270  224.9340 C   0  0  0  0  0  0  0  0  0  0  0  0
  140.2740   71.8820  224.2810 C   0  0  0  0  0  0  0  0  0  0  0  0
  139.8640   74.1420  222.3280 N   0  0  0  0  0  0  0  0  0  0  0  0
  140.1610   75.0940  221.4060 C   0  0  0  0  0  0  0  0  0  0  0  0
  140.1100   76.4910  221.7590 N   0  0  0  0  0  0  0  0  0  0  0  0
  139.2170   77.3850  221.0020 C   0  0  0  0  0  0  0  0  0  0  0  0
  138.8790   78.6460  221.7950 C   0  0  0  0  0  0  0  0  0  0  0  0
  140.1400   79.3060  222.2660 C   0  0  0  0  0  0  0  0  0  0  0  0
  140.2480   80.7060  222.2980 C   0  0  0  0  0  0  0  0  0  0  0  0
  141.4240   81.3090  222.7520 C   0  0  0  0  0  0  0  0  0  0  0  0
  142.4900   80.5190  223.1940 C   0  0  0  0  0  0  0  0  0  0  0  0
  142.3800   79.1240  223.1840 C   0  0  0  0  0  0  0  0  0  0  0  0
  141.2080   78.5090  222.7140 C   0  0  0  0  0  0  0  0  0  0  0  0
  141.0700   77.0060  222.7560 C   0  0  0  0  0  0  0  0  0  0  0  0
  140.4680   74.7160  220.1370 N   0  0  0  0  0  0  0  0  0  0  0  0
  144.4040   74.4090  220.2410 C   0  0  0  0  0  0  0  0  0  0  0  0
  145.6497   74.6853  221.9981 H   0  0  0  0  0  0  0  0  0  0  0  0
  147.1862   72.8073  221.3914 H   0  0  0  0  0  0  0  0  0  0  0  0
  144.9106   71.9980  217.8739 H   0  0  0  0  0  0  0  0  0  0  0  0
  142.4312   74.7888  218.6033 H   0  0  0  0  0  0  0  0  0  0  0  0
  143.4149   74.2679  217.1814 H   0  0  0  0  0  0  0  0  0  0  0  0
  142.0963   72.4647  216.9198 H   0  0  0  0  0  0  0  0  0  0  0  0
  142.5333   71.9158  218.5883 H   0  0  0  0  0  0  0  0  0  0  0  0
  139.9640   72.6970  217.8290 H   0  0  0  0  0  0  0  0  0  0  0  0
  137.7146   71.2299  222.1786 H   0  0  0  0  0  0  0  0  0  0  0  0
  139.0633   70.0222  222.0458 H   0  0  0  0  0  0  0  0  0  0  0  0
  137.4615   70.7591  224.5369 H   0  0  0  0  0  0  0  0  0  0  0  0
  137.5009   69.1816  223.6717 H   0  0  0  0  0  0  0  0  0  0  0  0
  138.4272   67.7096  225.3390 H   0  0  0  0  0  0  0  0  0  0  0  0
  140.3986   67.0602  226.7305 H   0  0  0  0  0  0  0  0  0  0  0  0
  142.3092   68.6433  227.0072 H   0  0  0  0  0  0  0  0  0  0  0  0
  142.2641   70.8706  225.8827 H   0  0  0  0  0  0  0  0  0  0  0  0
  139.7421   72.5753  224.9491 H   0  0  0  0  0  0  0  0  0  0  0  0
  141.3027   72.2256  224.0975 H   0  0  0  0  0  0  0  0  0  0  0  0
  139.7137   77.6754  220.0645 H   0  0  0  0  0  0  0  0  0  0  0  0
  138.2805   76.8447  220.7996 H   0  0  0  0  0  0  0  0  0  0  0  0
  138.3210   79.3426  221.1520 H   0  0  0  0  0  0  0  0  0  0  0  0
  138.2662   78.3723  222.6665 H   0  0  0  0  0  0  0  0  0  0  0  0
  139.4050   81.3292  221.9649 H   0  0  0  0  0  0  0  0  0  0  0  0
  141.5113   82.4055  222.7617 H   0  0  0  0  0  0  0  0  0  0  0  0
  143.4158   80.9946  223.5498 H   0  0  0  0  0  0  0  0  0  0  0  0
  143.2152   78.5063  223.5459 H   0  0  0  0  0  0  0  0  0  0  0  0
  142.0549   76.5571  222.5600 H   0  0  0  0  0  0  0  0  0  0  0  0
  140.6894   76.7362  223.7522 H   0  0  0  0  0  0  0  0  0  0  0  0
  143.7290   75.2401  220.4933 H   0  0  0  0  0  0  0  0  0  0  0  0
  1  2  2  0
  2  3  1  0
  3  4  2  0
  4  5  1  0
  5  6  1  0
  6  7  1  0
  7  8  1  0
  8  9  1  0
  9 10  2  0
 10 11  1  0
 11 12  1  0
 12 13  1  0
 13 14  1  0
 14 15  1  0
 15 16  2  0
 16 17  1  0
 17 18  2  0
 18 19  1  0
 19 20  2  0
 20 21  1  0
 11 22  2  0
 22 23  1  0
 23 24  1  0
 24 25  1  0
 25 26  1  0
 26 27  1  0
 27 28  2  0
 28 29  1  0
 29 30  2  0
 30 31  1  0
 31 32  2  0
 32 33  1  0
 23 34  2  0
  5 35  2  0
 35  1  1  0
 34  9  1  0
 21 12  1  0
 33 24  1  0
 20 15  1  0
 32 27  1  0
  1 36  1  0
  2 37  1  0
  4 38  1  0
  6 39  1  0
  6 40  1  0
  7 41  1  0
  7 42  1  0
  8 43  1  0
 13 44  1  0
 13 45  1  0
 14 46  1  0
 14 47  1  0
 16 48  1  0
 17 49  1  0
 18 50  1  0
 19 51  1  0
 21 52  1  0
 21 53  1  0
 25 54  1  0
 25 55  1  0
 26 56  1  0
 26 57  1  0
 28 58  1  0
 29 59  1  0
 30 60  1  0
 31 61  1  0
 33 62  1  0
 33 63  1  0
 35 64  1  0
M  END
>  <UniqueID>  (49) 
595

>  <SMILES>  (49) 
c1cncc(CCNc2nc(N3CCc4ccccc4C3)nc(N3CCc4ccccc4C3)n2)c1

>  <Energy>  (49) 
73.69619201064873

>  <Genealogy>  (49) 
c1cncc(CCNc2nc(N3CCc4ccccc4C3)nc(N3CCc4ccccc4C3)n2)c1 (3D coordinates assigned)
c1cncc(CCNc2nc(N3CCc4ccccc4C3)nc(N3CCc4ccccc4C3)n2)c1 (nonaromatic ring conformer: 73.69619201064873 kcal/mol)

>  <smiles>  (49) 
c1cncc(CCNc2nc(N3CCc4ccccc4C3)nc(N3CCc4ccccc4C3)n2)c1

>  <score_type>  (49) 
oracle

>  <origin>  (49) 
autodockgpu

>  <m_score__min__energy>  (49) 
-10.68

>  <m_primary>  (49) 
energy

>  <meeko>  (49) 
{"free_energy": -9.73, "intermolecular_energy": -11.52, "internal_energy": -1.2, "cluster_size": 10, "cluster_id": 2, "rank_in_cluster": 6}

>  <energy>  (49) 
-9.69

>  <cluster_rmsd>  (49) 
1.94

>  <rmsd>  (49) 
269.23

>  <cluster>  (49) 
1

$$$$
RCQFLYQWKFFJSS-SREBMQDQNA-N
     RDKit          3D

 64 69  0  0  0  0  0  0  0  0999 V2000
  144.9600   73.7410  220.8920 C   0  0  0  0  0  0  0  0  0  0  0  0
  145.9910   73.6240  219.9590 C   0  0  0  0  0  0  0  0  0  0  0  0
  145.9630   72.6280  219.0320 N   0  0  0  0  0  0  0  0  0  0  0  0
  144.9480   71.7190  218.9870 C   0  0  0  0  0  0  0  0  0  0  0  0
  143.8860   71.8010  219.9030 C   0  0  0  0  0  0  0  0  0  0  0  0
  142.7520   70.8060  219.8620 C   0  0  0  0  0  0  0  0  0  0  0  0
  141.8360   71.0730  218.6560 C   0  0  0  0  0  0  0  0  0  0  0  0
  140.9990   72.2560  218.8740 N   0  0  0  0  0  0  0  0  0  0  0  0
  140.6360   72.7150  220.1830 C   0  0  0  0  0  0  0  0  0  0  0  0
  140.4800   74.0440  220.4110 N   0  0  0  0  0  0  0  0  0  0  0  0
  140.1240   74.4940  221.6430 C   0  0  0  0  0  0  0  0  0  0  0  0
  139.9060   75.8980  221.8750 N   0  0  0  0  0  0  0  0  0  0  0  0
  138.6100   76.3470  222.4220 C   0  0  0  0  0  0  0  0  0  0  0  0
  138.3890   77.8480  222.2150 C   0  0  0  0  0  0  0  0  0  0  0  0
  139.5910   78.6110  222.6860 C   0  0  0  0  0  0  0  0  0  0  0  0
  139.4630   79.8210  223.3860 C   0  0  0  0  0  0  0  0  0  0  0  0
  140.6050   80.5210  223.7880 C   0  0  0  0  0  0  0  0  0  0  0  0
  141.8760   80.0300  223.4730 C   0  0  0  0  0  0  0  0  0  0  0  0
  142.0090   78.8350  222.7590 C   0  0  0  0  0  0  0  0  0  0  0  0
  140.8670   78.1140  222.3730 C   0  0  0  0  0  0  0  0  0  0  0  0
  140.9880   76.8520  221.5600 C   0  0  0  0  0  0  0  0  0  0  0  0
  139.9640   73.6040  222.6570 N   0  0  0  0  0  0  0  0  0  0  0  0
  140.1400   72.2730  222.4470 C   0  0  0  0  0  0  0  0  0  0  0  0
  140.0250   71.3420  223.5420 N   0  0  0  0  0  0  0  0  0  0  0  0
  138.9070   70.3830  223.5490 C   0  0  0  0  0  0  0  0  0  0  0  0
  139.2070   69.1730  224.4310 C   0  0  0  0  0  0  0  0  0  0  0  0
  139.6220   69.6290  225.7980 C   0  0  0  0  0  0  0  0  0  0  0  0
  139.2290   68.9160  226.9420 C   0  0  0  0  0  0  0  0  0  0  0  0
  139.6340   69.3440  228.2090 C   0  0  0  0  0  0  0  0  0  0  0  0
  140.4500   70.4720  228.3390 C   0  0  0  0  0  0  0  0  0  0  0  0
  140.8620   71.1740  227.2010 C   0  0  0  0  0  0  0  0  0  0  0  0
  140.4460   70.7610  225.9240 C   0  0  0  0  0  0  0  0  0  0  0  0
  140.9370   71.4860  224.6940 C   0  0  0  0  0  0  0  0  0  0  0  0
  140.4630   71.8350  221.2020 N   0  0  0  0  0  0  0  0  0  0  0  0
  143.9020   72.8290  220.8600 C   0  0  0  0  0  0  0  0  0  0  0  0
  144.9800   74.5428  221.6448 H   0  0  0  0  0  0  0  0  0  0  0  0
  146.8277   74.3380  219.9728 H   0  0  0  0  0  0  0  0  0  0  0  0
  144.9606   70.9194  218.2317 H   0  0  0  0  0  0  0  0  0  0  0  0
  143.1661   69.7900  219.7826 H   0  0  0  0  0  0  0  0  0  0  0  0
  142.1604   70.9068  220.7838 H   0  0  0  0  0  0  0  0  0  0  0  0
  142.4575   71.2336  217.7627 H   0  0  0  0  0  0  0  0  0  0  0  0
  141.1776   70.2022  218.5209 H   0  0  0  0  0  0  0  0  0  0  0  0
  140.4850   72.6510  218.0540 H   0  0  0  0  0  0  0  0  0  0  0  0
  137.8020   75.7963  221.9182 H   0  0  0  0  0  0  0  0  0  0  0  0
  138.6114   76.1499  223.5042 H   0  0  0  0  0  0  0  0  0  0  0  0
  138.2257   78.0485  221.1458 H   0  0  0  0  0  0  0  0  0  0  0  0
  137.5086   78.1672  222.7921 H   0  0  0  0  0  0  0  0  0  0  0  0
  138.4641   80.2187  223.6184 H   0  0  0  0  0  0  0  0  0  0  0  0
  140.5034   81.4594  224.3529 H   0  0  0  0  0  0  0  0  0  0  0  0
  142.7724   80.5846  223.7874 H   0  0  0  0  0  0  0  0  0  0  0  0
  143.0096   78.4590  222.4992 H   0  0  0  0  0  0  0  0  0  0  0  0
  140.9377   77.1091  220.4917 H   0  0  0  0  0  0  0  0  0  0  0  0
  141.9491   76.3758  221.8040 H   0  0  0  0  0  0  0  0  0  0  0  0
  138.0068   70.8875  223.9299 H   0  0  0  0  0  0  0  0  0  0  0  0
  138.7534   70.0275  222.5194 H   0  0  0  0  0  0  0  0  0  0  0  0
  138.3051   68.5486  224.5128 H   0  0  0  0  0  0  0  0  0  0  0  0
  140.0233   68.5894  223.9803 H   0  0  0  0  0  0  0  0  0  0  0  0
  138.6010   68.0186  226.8406 H   0  0  0  0  0  0  0  0  0  0  0  0
  139.3107   68.7932  229.1046 H   0  0  0  0  0  0  0  0  0  0  0  0
  140.7683   70.8078  229.3370 H   0  0  0  0  0  0  0  0  0  0  0  0
  141.5145   72.0532  227.3065 H   0  0  0  0  0  0  0  0  0  0  0  0
  141.0357   72.5553  224.9324 H   0  0  0  0  0  0  0  0  0  0  0  0
  141.9017   71.0401  224.4101 H   0  0  0  0  0  0  0  0  0  0  0  0
  143.0799   72.9162  221.5857 H   0  0  0  0  0  0  0  0  0  0  0  0
  1  2  2  0
  2  3  1  0
  3  4  2  0
  4  5  1  0
  5  6  1  0
  6  7  1  0
  7  8  1  0
  8  9  1  0
  9 10  2  0
 10 11  1  0
 11 12  1  0
 12 13  1  0
 13 14  1  0
 14 15  1  0
 15 16  2  0
 16 17  1  0
 17 18  2  0
 18 19  1  0
 19 20  2  0
 20 21  1  0
 11 22  2  0
 22 23  1  0
 23 24  1  0
 24 25  1  0
 25 26  1  0
 26 27  1  0
 27 28  2  0
 28 29  1  0
 29 30  2  0
 30 31  1  0
 31 32  2  0
 32 33  1  0
 23 34  2  0
  5 35  2  0
 35  1  1  0
 34  9  1  0
 21 12  1  0
 33 24  1  0
 20 15  1  0
 32 27  1  0
  1 36  1  0
  2 37  1  0
  4 38  1  0
  6 39  1  0
  6 40  1  0
  7 41  1  0
  7 42  1  0
  8 43  1  0
 13 44  1  0
 13 45  1  0
 14 46  1  0
 14 47  1  0
 16 48  1  0
 17 49  1  0
 18 50  1  0
 19 51  1  0
 21 52  1  0
 21 53  1  0
 25 54  1  0
 25 55  1  0
 26 56  1  0
 26 57  1  0
 28 58  1  0
 29 59  1  0
 30 60  1  0
 31 61  1  0
 33 62  1  0
 33 63  1  0
 35 64  1  0
M  END
>  <UniqueID>  (50) 
595

>  <SMILES>  (50) 
c1cncc(CCNc2nc(N3CCc4ccccc4C3)nc(N3CCc4ccccc4C3)n2)c1

>  <Energy>  (50) 
73.69619201064873

>  <Genealogy>  (50) 
c1cncc(CCNc2nc(N3CCc4ccccc4C3)nc(N3CCc4ccccc4C3)n2)c1 (3D coordinates assigned)
c1cncc(CCNc2nc(N3CCc4ccccc4C3)nc(N3CCc4ccccc4C3)n2)c1 (nonaromatic ring conformer: 73.69619201064873 kcal/mol)

>  <smiles>  (50) 
c1cncc(CCNc2nc(N3CCc4ccccc4C3)nc(N3CCc4ccccc4C3)n2)c1

>  <score_type>  (50) 
oracle

>  <origin>  (50) 
autodockgpu

>  <m_score__min__energy>  (50) 
-10.68

>  <m_primary>  (50) 
energy

>  <meeko>  (50) 
{"free_energy": -10.47, "intermolecular_energy": -12.26, "internal_energy": -1.25, "cluster_size": 10, "cluster_id": 1, "rank_in_cluster": 2}

>  <energy>  (50) 
-9.64

>  <cluster_rmsd>  (50) 
1.9

>  <rmsd>  (50) 
269.12

>  <cluster>  (50) 
1

$$$$
RCQFLYQWKFFJSS-SREBMQDQNA-N
     RDKit          3D

 64 69  0  0  0  0  0  0  0  0999 V2000
  145.0450   74.3070  220.6740 C   0  0  0  0  0  0  0  0  0  0  0  0
  146.1240   73.4540  220.9050 C   0  0  0  0  0  0  0  0  0  0  0  0
  146.3240   72.3730  220.1010 N   0  0  0  0  0  0  0  0  0  0  0  0
  145.4890   72.0870  219.0640 C   0  0  0  0  0  0  0  0  0  0  0  0
  144.3920   72.9220  218.7900 C   0  0  0  0  0  0  0  0  0  0  0  0
  143.4610   72.6210  217.6410 C   0  0  0  0  0  0  0  0  0  0  0  0
  142.4510   71.5280  218.0290 C   0  0  0  0  0  0  0  0  0  0  0  0
  141.1560   72.1070  218.3990 N   0  0  0  0  0  0  0  0  0  0  0  0
  140.9290   72.7470  219.6610 C   0  0  0  0  0  0  0  0  0  0  0  0
  140.4630   72.0210  220.7090 N   0  0  0  0  0  0  0  0  0  0  0  0
  140.2540   72.6110  221.9160 C   0  0  0  0  0  0  0  0  0  0  0  0
  139.8110   71.8330  223.0430 N   0  0  0  0  0  0  0  0  0  0  0  0
  138.5960   71.0040  222.9150 C   0  0  0  0  0  0  0  0  0  0  0  0
  138.0380   70.5890  224.2800 C   0  0  0  0  0  0  0  0  0  0  0  0
  139.1340   70.0100  225.1240 C   0  0  0  0  0  0  0  0  0  0  0  0
  138.9150   68.8880  225.9400 C   0  0  0  0  0  0  0  0  0  0  0  0
  139.9510   68.3880  226.7360 C   0  0  0  0  0  0  0  0  0  0  0  0
  141.1990   69.0180  226.7380 C   0  0  0  0  0  0  0  0  0  0  0  0
  141.4170   70.1470  225.9430 C   0  0  0  0  0  0  0  0  0  0  0  0
  140.3890   70.6400  225.1230 C   0  0  0  0  0  0  0  0  0  0  0  0
  140.5880   71.8840  224.2980 C   0  0  0  0  0  0  0  0  0  0  0  0
  140.4780   73.9440  222.0540 N   0  0  0  0  0  0  0  0  0  0  0  0
  140.9230   74.6850  221.0060 C   0  0  0  0  0  0  0  0  0  0  0  0
  141.1010   76.1100  221.1460 N   0  0  0  0  0  0  0  0  0  0  0  0
  141.7850   76.8510  220.0720 C   0  0  0  0  0  0  0  0  0  0  0  0
  141.4360   78.3370  220.1020 C   0  0  0  0  0  0  0  0  0  0  0  0
  141.6840   78.8910  221.4730 C   0  0  0  0  0  0  0  0  0  0  0  0
  142.1960   80.1880  221.6410 C   0  0  0  0  0  0  0  0  0  0  0  0
  142.4100   80.6980  222.9250 C   0  0  0  0  0  0  0  0  0  0  0  0
  142.0950   79.9240  224.0460 C   0  0  0  0  0  0  0  0  0  0  0  0
  141.5650   78.6390  223.8850 C   0  0  0  0  0  0  0  0  0  0  0  0
  141.3620   78.1120  222.5990 C   0  0  0  0  0  0  0  0  0  0  0  0
  140.7380   76.7480  222.4270 C   0  0  0  0  0  0  0  0  0  0  0  0
  141.1590   74.0760  219.8150 N   0  0  0  0  0  0  0  0  0  0  0  0
  144.1800   74.0430  219.6090 C   0  0  0  0  0  0  0  0  0  0  0  0
  144.8767   75.1786  221.3236 H   0  0  0  0  0  0  0  0  0  0  0  0
  146.8143   73.6546  221.7376 H   0  0  0  0  0  0  0  0  0  0  0  0
  145.6734   71.2005  218.4394 H   0  0  0  0  0  0  0  0  0  0  0  0
  142.9151   73.5366  217.3697 H   0  0  0  0  0  0  0  0  0  0  0  0
  144.0570   72.2639  216.7882 H   0  0  0  0  0  0  0  0  0  0  0  0
  142.3096   70.8508  217.1738 H   0  0  0  0  0  0  0  0  0  0  0  0
  142.8476   70.9809  218.8970 H   0  0  0  0  0  0  0  0  0  0  0  0
  140.3250   71.8620  217.8130 H   0  0  0  0  0  0  0  0  0  0  0  0
  137.8281   71.5799  222.3776 H   0  0  0  0  0  0  0  0  0  0  0  0
  138.8648   70.0897  222.3656 H   0  0  0  0  0  0  0  0  0  0  0  0
  137.6156   71.4704  224.7848 H   0  0  0  0  0  0  0  0  0  0  0  0
  137.2532   69.8319  224.1358 H   0  0  0  0  0  0  0  0  0  0  0  0
  137.9282   68.4021  225.9532 H   0  0  0  0  0  0  0  0  0  0  0  0
  139.7835   67.4983  227.3609 H   0  0  0  0  0  0  0  0  0  0  0  0
  142.0113   68.6244  227.3666 H   0  0  0  0  0  0  0  0  0  0  0  0
  142.3951   70.6500  225.9597 H   0  0  0  0  0  0  0  0  0  0  0  0
  140.2635   72.7567  224.8837 H   0  0  0  0  0  0  0  0  0  0  0  0
  141.6547   71.9593  224.0400 H   0  0  0  0  0  0  0  0  0  0  0  0
  142.8720   76.7373  220.1966 H   0  0  0  0  0  0  0  0  0  0  0  0
  141.4543   76.4400  219.1068 H   0  0  0  0  0  0  0  0  0  0  0  0
  142.0612   78.8734  219.3731 H   0  0  0  0  0  0  0  0  0  0  0  0
  140.3739   78.4652  219.8459 H   0  0  0  0  0  0  0  0  0  0  0  0
  142.4292   80.8041  220.7601 H   0  0  0  0  0  0  0  0  0  0  0  0
  142.8262   81.7081  223.0533 H   0  0  0  0  0  0  0  0  0  0  0  0
  142.2641   80.3258  225.0559 H   0  0  0  0  0  0  0  0  0  0  0  0
  141.3061   78.0388  224.7697 H   0  0  0  0  0  0  0  0  0  0  0  0
  141.0755   76.1008  223.2500 H   0  0  0  0  0  0  0  0  0  0  0  0
  139.6460   76.8803  222.4333 H   0  0  0  0  0  0  0  0  0  0  0  0
  143.3313   74.7144  219.4116 H   0  0  0  0  0  0  0  0  0  0  0  0
  1  2  2  0
  2  3  1  0
  3  4  2  0
  4  5  1  0
  5  6  1  0
  6  7  1  0
  7  8  1  0
  8  9  1  0
  9 10  2  0
 10 11  1  0
 11 12  1  0
 12 13  1  0
 13 14  1  0
 14 15  1  0
 15 16  2  0
 16 17  1  0
 17 18  2  0
 18 19  1  0
 19 20  2  0
 20 21  1  0
 11 22  2  0
 22 23  1  0
 23 24  1  0
 24 25  1  0
 25 26  1  0
 26 27  1  0
 27 28  2  0
 28 29  1  0
 29 30  2  0
 30 31  1  0
 31 32  2  0
 32 33  1  0
 23 34  2  0
  5 35  2  0
 35  1  1  0
 34  9  1  0
 21 12  1  0
 33 24  1  0
 20 15  1  0
 32 27  1  0
  1 36  1  0
  2 37  1  0
  4 38  1  0
  6 39  1  0
  6 40  1  0
  7 41  1  0
  7 42  1  0
  8 43  1  0
 13 44  1  0
 13 45  1  0
 14 46  1  0
 14 47  1  0
 16 48  1  0
 17 49  1  0
 18 50  1  0
 19 51  1  0
 21 52  1  0
 21 53  1  0
 25 54  1  0
 25 55  1  0
 26 56  1  0
 26 57  1  0
 28 58  1  0
 29 59  1  0
 30 60  1  0
 31 61  1  0
 33 62  1  0
 33 63  1  0
 35 64  1  0
M  END
>  <UniqueID>  (51) 
595

>  <SMILES>  (51) 
c1cncc(CCNc2nc(N3CCc4ccccc4C3)nc(N3CCc4ccccc4C3)n2)c1

>  <Energy>  (51) 
73.69619201064873

>  <Genealogy>  (51) 
c1cncc(CCNc2nc(N3CCc4ccccc4C3)nc(N3CCc4ccccc4C3)n2)c1 (3D coordinates assigned)
c1cncc(CCNc2nc(N3CCc4ccccc4C3)nc(N3CCc4ccccc4C3)n2)c1 (nonaromatic ring conformer: 73.69619201064873 kcal/mol)

>  <smiles>  (51) 
c1cncc(CCNc2nc(N3CCc4ccccc4C3)nc(N3CCc4ccccc4C3)n2)c1

>  <score_type>  (51) 
oracle

>  <origin>  (51) 
autodockgpu

>  <m_score__min__energy>  (51) 
-10.68

>  <m_primary>  (51) 
energy

>  <meeko>  (51) 
{"free_energy": -9.92, "intermolecular_energy": -11.71, "internal_energy": -1.43, "cluster_size": 10, "cluster_id": 1, "rank_in_cluster": 4}

>  <energy>  (51) 
-10.59

>  <cluster_rmsd>  (51) 
0.0

>  <rmsd>  (51) 
269.38

>  <cluster>  (51) 
2

$$$$
RCQFLYQWKFFJSS-SREBMQDQNA-N
     RDKit          3D

 64 69  0  0  0  0  0  0  0  0999 V2000
  140.8350   67.4160  227.2130 C   0  0  0  0  0  0  0  0  0  0  0  0
  140.8830   68.1960  228.3690 C   0  0  0  0  0  0  0  0  0  0  0  0
  140.4670   69.4920  228.3350 N   0  0  0  0  0  0  0  0  0  0  0  0
  140.0020   70.0660  227.1900 C   0  0  0  0  0  0  0  0  0  0  0  0
  139.9300   69.3170  226.0040 C   0  0  0  0  0  0  0  0  0  0  0  0
  139.4110   69.9370  224.7290 C   0  0  0  0  0  0  0  0  0  0  0  0
  139.8240   71.4160  224.6350 C   0  0  0  0  0  0  0  0  0  0  0  0
  139.4450   71.9940  223.3430 N   0  0  0  0  0  0  0  0  0  0  0  0
  140.3850   72.6570  222.4880 C   0  0  0  0  0  0  0  0  0  0  0  0
  141.3320   71.9330  221.8400 N   0  0  0  0  0  0  0  0  0  0  0  0
  142.2230   72.5460  221.0160 C   0  0  0  0  0  0  0  0  0  0  0  0
  143.1960   71.7750  220.2860 N   0  0  0  0  0  0  0  0  0  0  0  0
  144.5650   72.3040  220.1290 C   0  0  0  0  0  0  0  0  0  0  0  0
  145.3280   71.5940  219.0070 C   0  0  0  0  0  0  0  0  0  0  0  0
  145.2220   70.1080  219.1780 C   0  0  0  0  0  0  0  0  0  0  0  0
  146.3190   69.2630  218.9430 C   0  0  0  0  0  0  0  0  0  0  0  0
  146.1790   67.8780  219.0860 C   0  0  0  0  0  0  0  0  0  0  0  0
  144.9410   67.3320  219.4410 C   0  0  0  0  0  0  0  0  0  0  0  0
  143.8410   68.1670  219.6570 C   0  0  0  0  0  0  0  0  0  0  0  0
  143.9790   69.5600  219.5390 C   0  0  0  0  0  0  0  0  0  0  0  0
  142.7960   70.4730  219.7180 C   0  0  0  0  0  0  0  0  0  0  0  0
  142.1810   73.8970  220.8770 N   0  0  0  0  0  0  0  0  0  0  0  0
  141.2520   74.6350  221.5380 C   0  0  0  0  0  0  0  0  0  0  0  0
  141.2520   76.0730  221.4300 N   0  0  0  0  0  0  0  0  0  0  0  0
  141.8250   76.6980  220.2250 C   0  0  0  0  0  0  0  0  0  0  0  0
  141.2920   78.1140  220.0170 C   0  0  0  0  0  0  0  0  0  0  0  0
  141.4850   78.9200  221.2670 C   0  0  0  0  0  0  0  0  0  0  0  0
  141.8330   80.2790  221.1970 C   0  0  0  0  0  0  0  0  0  0  0  0
  141.9970   81.0220  222.3690 C   0  0  0  0  0  0  0  0  0  0  0  0
  141.7950   80.4190  223.6140 C   0  0  0  0  0  0  0  0  0  0  0  0
  141.4290   79.0700  223.6890 C   0  0  0  0  0  0  0  0  0  0  0  0
  141.2780   78.3110  222.5170 C   0  0  0  0  0  0  0  0  0  0  0  0
  140.8270   76.8720  222.5970 C   0  0  0  0  0  0  0  0  0  0  0  0
  140.3470   74.0050  222.3320 N   0  0  0  0  0  0  0  0  0  0  0  0
  140.3510   67.9770  226.0280 C   0  0  0  0  0  0  0  0  0  0  0  0
  141.1747   66.3700  227.2342 H   0  0  0  0  0  0  0  0  0  0  0  0
  141.2572   67.7635  229.3086 H   0  0  0  0  0  0  0  0  0  0  0  0
  139.6822   71.1185  227.1945 H   0  0  0  0  0  0  0  0  0  0  0  0
  139.8245   69.3914  223.8680 H   0  0  0  0  0  0  0  0  0  0  0  0
  138.3127   69.8762  224.7283 H   0  0  0  0  0  0  0  0  0  0  0  0
  139.3267   71.9786  225.4388 H   0  0  0  0  0  0  0  0  0  0  0  0
  140.9177   71.4779  224.7354 H   0  0  0  0  0  0  0  0  0  0  0  0
  138.4260   72.1070  223.1370 H   0  0  0  0  0  0  0  0  0  0  0  0
  144.5066   73.3773  219.8951 H   0  0  0  0  0  0  0  0  0  0  0  0
  145.1065   72.1315  221.0708 H   0  0  0  0  0  0  0  0  0  0  0  0
  144.8986   71.8808  218.0358 H   0  0  0  0  0  0  0  0  0  0  0  0
  146.3871   71.8883  219.0470 H   0  0  0  0  0  0  0  0  0  0  0  0
  147.2884   69.6900  218.6465 H   0  0  0  0  0  0  0  0  0  0  0  0
  147.0431   67.2181  218.9191 H   0  0  0  0  0  0  0  0  0  0  0  0
  144.8328   66.2428  219.5504 H   0  0  0  0  0  0  0  0  0  0  0  0
  142.8653   67.7324  219.9199 H   0  0  0  0  0  0  0  0  0  0  0  0
  142.3231   70.6407  218.7391 H   0  0  0  0  0  0  0  0  0  0  0  0
  142.0941   69.9939  220.4164 H   0  0  0  0  0  0  0  0  0  0  0  0
  142.9190   76.7406  220.3312 H   0  0  0  0  0  0  0  0  0  0  0  0
  141.5375   76.0913  219.3536 H   0  0  0  0  0  0  0  0  0  0  0  0
  141.8359   78.5905  219.1880 H   0  0  0  0  0  0  0  0  0  0  0  0
  140.2192   78.0661  219.7786 H   0  0  0  0  0  0  0  0  0  0  0  0
  141.9767   80.7592  220.2179 H   0  0  0  0  0  0  0  0  0  0  0  0
  142.2852   82.0820  222.3120 H   0  0  0  0  0  0  0  0  0  0  0  0
  141.9238   81.0053  224.5358 H   0  0  0  0  0  0  0  0  0  0  0  0
  141.2589   78.6024  224.6700 H   0  0  0  0  0  0  0  0  0  0  0  0
  141.2521   76.4205  223.5056 H   0  0  0  0  0  0  0  0  0  0  0  0
  139.7272   76.8704  222.6165 H   0  0  0  0  0  0  0  0  0  0  0  0
  140.2996   67.3686  225.1130 H   0  0  0  0  0  0  0  0  0  0  0  0
  1  2  2  0
  2  3  1  0
  3  4  2  0
  4  5  1  0
  5  6  1  0
  6  7  1  0
  7  8  1  0
  8  9  1  0
  9 10  2  0
 10 11  1  0
 11 12  1  0
 12 13  1  0
 13 14  1  0
 14 15  1  0
 15 16  2  0
 16 17  1  0
 17 18  2  0
 18 19  1  0
 19 20  2  0
 20 21  1  0
 11 22  2  0
 22 23  1  0
 23 24  1  0
 24 25  1  0
 25 26  1  0
 26 27  1  0
 27 28  2  0
 28 29  1  0
 29 30  2  0
 30 31  1  0
 31 32  2  0
 32 33  1  0
 23 34  2  0
  5 35  2  0
 35  1  1  0
 34  9  1  0
 21 12  1  0
 33 24  1  0
 20 15  1  0
 32 27  1  0
  1 36  1  0
  2 37  1  0
  4 38  1  0
  6 39  1  0
  6 40  1  0
  7 41  1  0
  7 42  1  0
  8 43  1  0
 13 44  1  0
 13 45  1  0
 14 46  1  0
 14 47  1  0
 16 48  1  0
 17 49  1  0
 18 50  1  0
 19 51  1  0
 21 52  1  0
 21 53  1  0
 25 54  1  0
 25 55  1  0
 26 56  1  0
 26 57  1  0
 28 58  1  0
 29 59  1  0
 30 60  1  0
 31 61  1  0
 33 62  1  0
 33 63  1  0
 35 64  1  0
M  END
>  <UniqueID>  (52) 
595

>  <SMILES>  (52) 
c1cncc(CCNc2nc(N3CCc4ccccc4C3)nc(N3CCc4ccccc4C3)n2)c1

>  <Energy>  (52) 
73.69619201064873

>  <Genealogy>  (52) 
c1cncc(CCNc2nc(N3CCc4ccccc4C3)nc(N3CCc4ccccc4C3)n2)c1 (3D coordinates assigned)
c1cncc(CCNc2nc(N3CCc4ccccc4C3)nc(N3CCc4ccccc4C3)n2)c1 (nonaromatic ring conformer: 73.69619201064873 kcal/mol)

>  <smiles>  (52) 
c1cncc(CCNc2nc(N3CCc4ccccc4C3)nc(N3CCc4ccccc4C3)n2)c1

>  <score_type>  (52) 
oracle

>  <origin>  (52) 
autodockgpu

>  <m_score__min__energy>  (52) 
-10.68

>  <m_primary>  (52) 
energy

>  <meeko>  (52) 
{"free_energy": -10.43, "intermolecular_energy": -12.22, "internal_energy": -0.79, "cluster_size": 10, "cluster_id": 1, "rank_in_cluster": 3}

>  <energy>  (52) 
-10.49

>  <cluster_rmsd>  (52) 
0.26

>  <rmsd>  (52) 
269.33

>  <cluster>  (52) 
2

$$$$
RCQFLYQWKFFJSS-SREBMQDQNA-N
     RDKit          3D

 64 69  0  0  0  0  0  0  0  0999 V2000
  145.4820   73.3520  221.1460 C   0  0  0  0  0  0  0  0  0  0  0  0
  145.2140   74.6000  220.5800 C   0  0  0  0  0  0  0  0  0  0  0  0
  144.1490   74.7570  219.7480 N   0  0  0  0  0  0  0  0  0  0  0  0
  143.3240   73.7180  219.4340 C   0  0  0  0  0  0  0  0  0  0  0  0
  143.5520   72.4460  219.9850 C   0  0  0  0  0  0  0  0  0  0  0  0
  142.6440   71.2870  219.6540 C   0  0  0  0  0  0  0  0  0  0  0  0
  141.7650   71.6140  218.4340 C   0  0  0  0  0  0  0  0  0  0  0  0
  140.5740   72.3730  218.8250 N   0  0  0  0  0  0  0  0  0  0  0  0
  140.3470   72.8160  220.1690 C   0  0  0  0  0  0  0  0  0  0  0  0
  140.2660   74.1450  220.4350 N   0  0  0  0  0  0  0  0  0  0  0  0
  140.0400   74.5810  221.7020 C   0  0  0  0  0  0  0  0  0  0  0  0
  139.9010   75.9870  221.9780 N   0  0  0  0  0  0  0  0  0  0  0  0
  138.7030   76.4680  222.6940 C   0  0  0  0  0  0  0  0  0  0  0  0
  138.5090   77.9790  222.5380 C   0  0  0  0  0  0  0  0  0  0  0  0
  139.7870   78.6940  222.8600 C   0  0  0  0  0  0  0  0  0  0  0  0
  139.7910   79.8950  223.5870 C   0  0  0  0  0  0  0  0  0  0  0  0
  140.9990   80.5510  223.8480 C   0  0  0  0  0  0  0  0  0  0  0  0
  142.2010   80.0240  223.3650 C   0  0  0  0  0  0  0  0  0  0  0  0
  142.2000   78.8380  222.6240 C   0  0  0  0  0  0  0  0  0  0  0  0
  140.9950   78.1610  222.3780 C   0  0  0  0  0  0  0  0  0  0  0  0
  140.9670   76.9110  221.5400 C   0  0  0  0  0  0  0  0  0  0  0  0
  139.9320   73.6750  222.7090 N   0  0  0  0  0  0  0  0  0  0  0  0
  140.0320   72.3440  222.4590 C   0  0  0  0  0  0  0  0  0  0  0  0
  139.9760   71.3930  223.5420 N   0  0  0  0  0  0  0  0  0  0  0  0
  138.9140   70.3720  223.5400 C   0  0  0  0  0  0  0  0  0  0  0  0
  139.2860   69.1700  224.4050 C   0  0  0  0  0  0  0  0  0  0  0  0
  139.6800   69.6310  225.7770 C   0  0  0  0  0  0  0  0  0  0  0  0
  139.3320   68.8820  226.9120 C   0  0  0  0  0  0  0  0  0  0  0  0
  139.7170   69.3160  228.1840 C   0  0  0  0  0  0  0  0  0  0  0  0
  140.4670   70.4870  228.3260 C   0  0  0  0  0  0  0  0  0  0  0  0
  140.8340   71.2260  227.1970 C   0  0  0  0  0  0  0  0  0  0  0  0
  140.4380   70.8070  225.9160 C   0  0  0  0  0  0  0  0  0  0  0  0
  140.8820   71.5750  224.6940 C   0  0  0  0  0  0  0  0  0  0  0  0
  140.2270   71.9210  221.1830 N   0  0  0  0  0  0  0  0  0  0  0  0
  144.6440   72.2740  220.8510 C   0  0  0  0  0  0  0  0  0  0  0  0
  146.3436   73.2192  221.8168 H   0  0  0  0  0  0  0  0  0  0  0  0
  145.8648   75.4573  220.8071 H   0  0  0  0  0  0  0  0  0  0  0  0
  142.4786   73.8759  218.7482 H   0  0  0  0  0  0  0  0  0  0  0  0
  143.2566   70.4011  219.4304 H   0  0  0  0  0  0  0  0  0  0  0  0
  141.9910   71.0922  220.5176 H   0  0  0  0  0  0  0  0  0  0  0  0
  142.3513   72.2101  217.7192 H   0  0  0  0  0  0  0  0  0  0  0  0
  141.4396   70.6680  217.9765 H   0  0  0  0  0  0  0  0  0  0  0  0
  139.7740   72.4100  218.1520 H   0  0  0  0  0  0  0  0  0  0  0  0
  137.8182   75.9530  222.2916 H   0  0  0  0  0  0  0  0  0  0  0  0
  138.8372   76.2516  223.7641 H   0  0  0  0  0  0  0  0  0  0  0  0
  138.2164   78.2040  221.5018 H   0  0  0  0  0  0  0  0  0  0  0  0
  137.7218   78.3160  223.2284 H   0  0  0  0  0  0  0  0  0  0  0  0
  138.8443   80.3203  223.9515 H   0  0  0  0  0  0  0  0  0  0  0  0
  141.0032   81.4821  224.4337 H   0  0  0  0  0  0  0  0  0  0  0  0
  143.1491   80.5434  223.5684 H   0  0  0  0  0  0  0  0  0  0  0  0
  143.1457   78.4346  222.2329 H   0  0  0  0  0  0  0  0  0  0  0  0
  140.7899   77.1886  220.4905 H   0  0  0  0  0  0  0  0  0  0  0  0
  141.9341   76.3991  221.6529 H   0  0  0  0  0  0  0  0  0  0  0  0
  137.9882   70.8196  223.9305 H   0  0  0  0  0  0  0  0  0  0  0  0
  138.7764   70.0217  222.5064 H   0  0  0  0  0  0  0  0  0  0  0  0
  138.4215   68.4942  224.4815 H   0  0  0  0  0  0  0  0  0  0  0  0
  140.1325   68.6400  223.9439 H   0  0  0  0  0  0  0  0  0  0  0  0
  138.7554   67.9519  226.8004 H   0  0  0  0  0  0  0  0  0  0  0  0
  139.4296   68.7358  229.0733 H   0  0  0  0  0  0  0  0  0  0  0  0
  140.7690   70.8277  229.3274 H   0  0  0  0  0  0  0  0  0  0  0  0
  141.4356   72.1397  227.3125 H   0  0  0  0  0  0  0  0  0  0  0  0
  140.9192   72.6451  224.9460 H   0  0  0  0  0  0  0  0  0  0  0  0
  141.8699   71.1894  224.4019 H   0  0  0  0  0  0  0  0  0  0  0  0
  144.8399   71.2882  221.2980 H   0  0  0  0  0  0  0  0  0  0  0  0
  1  2  2  0
  2  3  1  0
  3  4  2  0
  4  5  1  0
  5  6  1  0
  6  7  1  0
  7  8  1  0
  8  9  1  0
  9 10  2  0
 10 11  1  0
 11 12  1  0
 12 13  1  0
 13 14  1  0
 14 15  1  0
 15 16  2  0
 16 17  1  0
 17 18  2  0
 18 19  1  0
 19 20  2  0
 20 21  1  0
 11 22  2  0
 22 23  1  0
 23 24  1  0
 24 25  1  0
 25 26  1  0
 26 27  1  0
 27 28  2  0
 28 29  1  0
 29 30  2  0
 30 31  1  0
 31 32  2  0
 32 33  1  0
 23 34  2  0
  5 35  2  0
 35  1  1  0
 34  9  1  0
 21 12  1  0
 33 24  1  0
 20 15  1  0
 32 27  1  0
  1 36  1  0
  2 37  1  0
  4 38  1  0
  6 39  1  0
  6 40  1  0
  7 41  1  0
  7 42  1  0
  8 43  1  0
 13 44  1  0
 13 45  1  0
 14 46  1  0
 14 47  1  0
 16 48  1  0
 17 49  1  0
 18 50  1  0
 19 51  1  0
 21 52  1  0
 21 53  1  0
 25 54  1  0
 25 55  1  0
 26 56  1  0
 26 57  1  0
 28 58  1  0
 29 59  1  0
 30 60  1  0
 31 61  1  0
 33 62  1  0
 33 63  1  0
 35 64  1  0
M  END
>  <UniqueID>  (53) 
595

>  <SMILES>  (53) 
c1cncc(CCNc2nc(N3CCc4ccccc4C3)nc(N3CCc4ccccc4C3)n2)c1

>  <Energy>  (53) 
73.69619201064873

>  <Genealogy>  (53) 
c1cncc(CCNc2nc(N3CCc4ccccc4C3)nc(N3CCc4ccccc4C3)n2)c1 (3D coordinates assigned)
c1cncc(CCNc2nc(N3CCc4ccccc4C3)nc(N3CCc4ccccc4C3)n2)c1 (nonaromatic ring conformer: 73.69619201064873 kcal/mol)

>  <smiles>  (53) 
c1cncc(CCNc2nc(N3CCc4ccccc4C3)nc(N3CCc4ccccc4C3)n2)c1

>  <score_type>  (53) 
oracle

>  <origin>  (53) 
autodockgpu

>  <m_score__min__energy>  (53) 
-10.68

>  <m_primary>  (53) 
energy

>  <meeko>  (53) 
{"free_energy": -9.75, "intermolecular_energy": -11.54, "internal_energy": -1.38, "cluster_size": 10, "cluster_id": 1, "rank_in_cluster": 6}

>  <energy>  (53) 
-10.47

>  <cluster_rmsd>  (53) 
0.27

>  <rmsd>  (53) 
269.32

>  <cluster>  (53) 
2

$$$$
RCQFLYQWKFFJSS-SREBMQDQNA-N
     RDKit          3D

 64 69  0  0  0  0  0  0  0  0999 V2000
  145.1690   74.1500  220.8500 C   0  0  0  0  0  0  0  0  0  0  0  0
  146.2990   73.4240  220.4730 C   0  0  0  0  0  0  0  0  0  0  0  0
  146.2850   72.6840  219.3300 N   0  0  0  0  0  0  0  0  0  0  0  0
  145.1830   72.6200  218.5310 C   0  0  0  0  0  0  0  0  0  0  0  0
  144.0240   73.3400  218.8680 C   0  0  0  0  0  0  0  0  0  0  0  0
  142.7980   73.2850  217.9900 C   0  0  0  0  0  0  0  0  0  0  0  0
  141.9620   72.0320  218.2990 C   0  0  0  0  0  0  0  0  0  0  0  0
  140.6250   72.3890  218.7810 N   0  0  0  0  0  0  0  0  0  0  0  0
  140.3820   72.8480  220.1170 C   0  0  0  0  0  0  0  0  0  0  0  0
  140.3060   74.1810  220.3670 N   0  0  0  0  0  0  0  0  0  0  0  0
  140.0650   74.6320  221.6260 C   0  0  0  0  0  0  0  0  0  0  0  0
  139.9320   76.0420  221.8850 N   0  0  0  0  0  0  0  0  0  0  0  0
  138.6800   76.5510  222.4800 C   0  0  0  0  0  0  0  0  0  0  0  0
  138.5350   78.0650  222.3030 C   0  0  0  0  0  0  0  0  0  0  0  0
  139.7910   78.7540  222.7460 C   0  0  0  0  0  0  0  0  0  0  0  0
  139.7510   79.9580  223.4680 C   0  0  0  0  0  0  0  0  0  0  0  0
  140.9420   80.5880  223.8440 C   0  0  0  0  0  0  0  0  0  0  0  0
  142.1730   80.0330  223.4810 C   0  0  0  0  0  0  0  0  0  0  0  0
  142.2190   78.8450  222.7450 C   0  0  0  0  0  0  0  0  0  0  0  0
  141.0280   78.1930  222.3850 C   0  0  0  0  0  0  0  0  0  0  0  0
  141.0540   76.9410  221.5500 C   0  0  0  0  0  0  0  0  0  0  0  0
  139.9390   73.7380  222.6420 N   0  0  0  0  0  0  0  0  0  0  0  0
  140.0350   72.4030  222.4080 C   0  0  0  0  0  0  0  0  0  0  0  0
  139.9580   71.4650  223.5000 N   0  0  0  0  0  0  0  0  0  0  0  0
  138.9120   70.4290  223.4780 C   0  0  0  0  0  0  0  0  0  0  0  0
  139.2740   69.2430  224.3690 C   0  0  0  0  0  0  0  0  0  0  0  0
  139.6180   69.7260  225.7460 C   0  0  0  0  0  0  0  0  0  0  0  0
  139.2460   68.9850  226.8800 C   0  0  0  0  0  0  0  0  0  0  0  0
  139.5860   69.4400  228.1570 C   0  0  0  0  0  0  0  0  0  0  0  0
  140.3140   70.6240  228.3080 C   0  0  0  0  0  0  0  0  0  0  0  0
  140.7050   71.3550  227.1810 C   0  0  0  0  0  0  0  0  0  0  0  0
  140.3550   70.9140  225.8940 C   0  0  0  0  0  0  0  0  0  0  0  0
  140.8260   71.6740  224.6770 C   0  0  0  0  0  0  0  0  0  0  0  0
  140.2440   71.9650  221.1390 N   0  0  0  0  0  0  0  0  0  0  0  0
  144.0300   74.1120  220.0420 C   0  0  0  0  0  0  0  0  0  0  0  0
  145.1748   74.7464  221.7743 H   0  0  0  0  0  0  0  0  0  0  0  0
  147.2025   73.4494  221.0999 H   0  0  0  0  0  0  0  0  0  0  0  0
  145.2006   72.0034  217.6202 H   0  0  0  0  0  0  0  0  0  0  0  0
  142.1853   74.1808  218.1694 H   0  0  0  0  0  0  0  0  0  0  0  0
  143.1184   73.2451  216.9385 H   0  0  0  0  0  0  0  0  0  0  0  0
  141.8639   71.4318  217.3824 H   0  0  0  0  0  0  0  0  0  0  0  0
  142.4734   71.4592  219.0867 H   0  0  0  0  0  0  0  0  0  0  0  0
  139.8030   72.1040  218.2010 H   0  0  0  0  0  0  0  0  0  0  0  0
  137.8278   76.0534  221.9940 H   0  0  0  0  0  0  0  0  0  0  0  0
  138.7042   76.3357  223.5585 H   0  0  0  0  0  0  0  0  0  0  0  0
  138.3491   78.2920  221.2428 H   0  0  0  0  0  0  0  0  0  0  0  0
  137.6922   78.4216  222.9133 H   0  0  0  0  0  0  0  0  0  0  0  0
  138.7831   80.4056  223.7378 H   0  0  0  0  0  0  0  0  0  0  0  0
  140.9101   81.5210  224.4258 H   0  0  0  0  0  0  0  0  0  0  0  0
  143.1079   80.5324  223.7753 H   0  0  0  0  0  0  0  0  0  0  0  0
  143.1892   78.4204  222.4475 H   0  0  0  0  0  0  0  0  0  0  0  0
  140.9844   77.2186  220.4879 H   0  0  0  0  0  0  0  0  0  0  0  0
  141.9947   76.4092  221.7558 H   0  0  0  0  0  0  0  0  0  0  0  0
  137.9682   70.8676  223.8341 H   0  0  0  0  0  0  0  0  0  0  0  0
  138.8118   70.0643  222.4451 H   0  0  0  0  0  0  0  0  0  0  0  0
  138.4173   68.5554  224.4270 H   0  0  0  0  0  0  0  0  0  0  0  0
  140.1420   68.7200  223.9411 H   0  0  0  0  0  0  0  0  0  0  0  0
  138.6863   68.0453  226.7627 H   0  0  0  0  0  0  0  0  0  0  0  0
  139.2805   68.8659  229.0442 H   0  0  0  0  0  0  0  0  0  0  0  0
  140.5796   70.9812  229.3139 H   0  0  0  0  0  0  0  0  0  0  0  0
  141.2890   72.2791  227.3032 H   0  0  0  0  0  0  0  0  0  0  0  0
  140.8404   72.7474  224.9169 H   0  0  0  0  0  0  0  0  0  0  0  0
  141.8280   71.2997  224.4202 H   0  0  0  0  0  0  0  0  0  0  0  0
  143.1363   74.6874  220.3254 H   0  0  0  0  0  0  0  0  0  0  0  0
  1  2  2  0
  2  3  1  0
  3  4  2  0
  4  5  1  0
  5  6  1  0
  6  7  1  0
  7  8  1  0
  8  9  1  0
  9 10  2  0
 10 11  1  0
 11 12  1  0
 12 13  1  0
 13 14  1  0
 14 15  1  0
 15 16  2  0
 16 17  1  0
 17 18  2  0
 18 19  1  0
 19 20  2  0
 20 21  1  0
 11 22  2  0
 22 23  1  0
 23 24  1  0
 24 25  1  0
 25 26  1  0
 26 27  1  0
 27 28  2  0
 28 29  1  0
 29 30  2  0
 30 31  1  0
 31 32  2  0
 32 33  1  0
 23 34  2  0
  5 35  2  0
 35  1  1  0
 34  9  1  0
 21 12  1  0
 33 24  1  0
 20 15  1  0
 32 27  1  0
  1 36  1  0
  2 37  1  0
  4 38  1  0
  6 39  1  0
  6 40  1  0
  7 41  1  0
  7 42  1  0
  8 43  1  0
 13 44  1  0
 13 45  1  0
 14 46  1  0
 14 47  1  0
 16 48  1  0
 17 49  1  0
 18 50  1  0
 19 51  1  0
 21 52  1  0
 21 53  1  0
 25 54  1  0
 25 55  1  0
 26 56  1  0
 26 57  1  0
 28 58  1  0
 29 59  1  0
 30 60  1  0
 31 61  1  0
 33 62  1  0
 33 63  1  0
 35 64  1  0
M  END
>  <UniqueID>  (54) 
595

>  <SMILES>  (54) 
c1cncc(CCNc2nc(N3CCc4ccccc4C3)nc(N3CCc4ccccc4C3)n2)c1

>  <Energy>  (54) 
73.69619201064873

>  <Genealogy>  (54) 
c1cncc(CCNc2nc(N3CCc4ccccc4C3)nc(N3CCc4ccccc4C3)n2)c1 (3D coordinates assigned)
c1cncc(CCNc2nc(N3CCc4ccccc4C3)nc(N3CCc4ccccc4C3)n2)c1 (nonaromatic ring conformer: 73.69619201064873 kcal/mol)

>  <smiles>  (54) 
c1cncc(CCNc2nc(N3CCc4ccccc4C3)nc(N3CCc4ccccc4C3)n2)c1

>  <score_type>  (54) 
oracle

>  <origin>  (54) 
autodockgpu

>  <m_score__min__energy>  (54) 
-10.68

>  <m_primary>  (54) 
energy

>  <meeko>  (54) 
{"free_energy": -10.49, "intermolecular_energy": -12.28, "internal_energy": -1.21, "cluster_size": 10, "cluster_id": 2, "rank_in_cluster": 2}

>  <energy>  (54) 
-10.34

>  <cluster_rmsd>  (54) 
0.42

>  <rmsd>  (54) 
269.34

>  <cluster>  (54) 
2

$$$$
RCQFLYQWKFFJSS-SREBMQDQNA-N
     RDKit          3D

 64 69  0  0  0  0  0  0  0  0999 V2000
  142.0440   77.3370  217.6540 C   0  0  0  0  0  0  0  0  0  0  0  0
  142.5230   77.8570  218.8560 C   0  0  0  0  0  0  0  0  0  0  0  0
  143.3130   77.0950  219.6620 N   0  0  0  0  0  0  0  0  0  0  0  0
  143.6530   75.8170  219.3330 C   0  0  0  0  0  0  0  0  0  0  0  0
  143.1980   75.2540  218.1280 C   0  0  0  0  0  0  0  0  0  0  0  0
  143.5700   73.8420  217.7460 C   0  0  0  0  0  0  0  0  0  0  0  0
  144.1130   73.0740  218.9630 C   0  0  0  0  0  0  0  0  0  0  0  0
  143.0780   72.2270  219.5630 N   0  0  0  0  0  0  0  0  0  0  0  0
  142.1470   72.7170  220.5360 C   0  0  0  0  0  0  0  0  0  0  0  0
  141.5480   71.8500  221.3910 N   0  0  0  0  0  0  0  0  0  0  0  0
  140.6720   72.3000  222.3270 C   0  0  0  0  0  0  0  0  0  0  0  0
  140.0750   71.3900  223.2700 N   0  0  0  0  0  0  0  0  0  0  0  0
  139.1610   70.3390  222.7790 C   0  0  0  0  0  0  0  0  0  0  0  0
  138.3100   69.7480  223.9060 C   0  0  0  0  0  0  0  0  0  0  0  0
  139.1870   69.3590  225.0590 C   0  0  0  0  0  0  0  0  0  0  0  0
  138.9660   68.1740  225.7790 C   0  0  0  0  0  0  0  0  0  0  0  0
  139.7870   67.8530  226.8660 C   0  0  0  0  0  0  0  0  0  0  0  0
  140.8120   68.7230  227.2510 C   0  0  0  0  0  0  0  0  0  0  0  0
  141.0230   69.9130  226.5490 C   0  0  0  0  0  0  0  0  0  0  0  0
  140.2200   70.2300  225.4410 C   0  0  0  0  0  0  0  0  0  0  0  0
  140.3980   71.5310  224.7040 C   0  0  0  0  0  0  0  0  0  0  0  0
  140.3710   73.6240  222.3750 N   0  0  0  0  0  0  0  0  0  0  0  0
  140.9470   74.4990  221.5110 C   0  0  0  0  0  0  0  0  0  0  0  0
  140.5770   75.8930  221.5300 N   0  0  0  0  0  0  0  0  0  0  0  0
  139.8580   76.4560  220.3750 C   0  0  0  0  0  0  0  0  0  0  0  0
  139.0960   77.7260  220.7490 C   0  0  0  0  0  0  0  0  0  0  0  0
  140.0220   78.6970  221.4180 C   0  0  0  0  0  0  0  0  0  0  0  0
  139.9040   80.0770  221.1840 C   0  0  0  0  0  0  0  0  0  0  0  0
  140.7650   80.9730  221.8250 C   0  0  0  0  0  0  0  0  0  0  0  0
  141.7320   80.4980  222.7160 C   0  0  0  0  0  0  0  0  0  0  0  0
  141.8400   79.1260  222.9680 C   0  0  0  0  0  0  0  0  0  0  0  0
  140.9900   78.2170  222.3170 C   0  0  0  0  0  0  0  0  0  0  0  0
  141.0710   76.7430  222.6330 C   0  0  0  0  0  0  0  0  0  0  0  0
  141.8450   74.0390  220.6010 N   0  0  0  0  0  0  0  0  0  0  0  0
  142.3870   76.0330  217.2860 C   0  0  0  0  0  0  0  0  0  0  0  0
  141.4023   77.9474  217.0016 H   0  0  0  0  0  0  0  0  0  0  0  0
  142.2625   78.8835  219.1533 H   0  0  0  0  0  0  0  0  0  0  0  0
  144.2846   75.2249  220.0116 H   0  0  0  0  0  0  0  0  0  0  0  0
  142.6783   73.3252  217.3615 H   0  0  0  0  0  0  0  0  0  0  0  0
  144.3525   73.8793  216.9738 H   0  0  0  0  0  0  0  0  0  0  0  0
  144.9527   72.4403  218.6414 H   0  0  0  0  0  0  0  0  0  0  0  0
  144.4433   73.8049  219.7158 H   0  0  0  0  0  0  0  0  0  0  0  0
  143.1560   71.1920  219.4330 H   0  0  0  0  0  0  0  0  0  0  0  0
  138.4936   70.7744  222.0207 H   0  0  0  0  0  0  0  0  0  0  0  0
  139.7715   69.5291  222.3532 H   0  0  0  0  0  0  0  0  0  0  0  0
  137.5779   70.4974  224.2414 H   0  0  0  0  0  0  0  0  0  0  0  0
  137.7854   68.8558  223.5334 H   0  0  0  0  0  0  0  0  0  0  0  0
  138.1480   67.4983  225.4889 H   0  0  0  0  0  0  0  0  0  0  0  0
  139.6259   66.9153  227.4181 H   0  0  0  0  0  0  0  0  0  0  0  0
  141.4535   68.4702  228.1081 H   0  0  0  0  0  0  0  0  0  0  0  0
  141.8195   70.6027  226.8649 H   0  0  0  0  0  0  0  0  0  0  0  0
  139.7330   72.2867  225.1474 H   0  0  0  0  0  0  0  0  0  0  0  0
  141.4513   71.8358  224.7919 H   0  0  0  0  0  0  0  0  0  0  0  0
  140.5848   76.6958  219.5849 H   0  0  0  0  0  0  0  0  0  0  0  0
  139.1297   75.7088  220.0267 H   0  0  0  0  0  0  0  0  0  0  0  0
  138.6819   78.1845  219.8389 H   0  0  0  0  0  0  0  0  0  0  0  0
  138.2795   77.4688  221.4397 H   0  0  0  0  0  0  0  0  0  0  0  0
  139.1331   80.4533  220.4955 H   0  0  0  0  0  0  0  0  0  0  0  0
  140.6815   82.0520  221.6282 H   0  0  0  0  0  0  0  0  0  0  0  0
  142.4088   81.2039  223.2196 H   0  0  0  0  0  0  0  0  0  0  0  0
  142.5940   78.7576  223.6792 H   0  0  0  0  0  0  0  0  0  0  0  0
  142.1211   76.4837  222.8333 H   0  0  0  0  0  0  0  0  0  0  0  0
  140.4305   76.5561  223.5076 H   0  0  0  0  0  0  0  0  0  0  0  0
  142.0215   75.6162  216.3359 H   0  0  0  0  0  0  0  0  0  0  0  0
  1  2  2  0
  2  3  1  0
  3  4  2  0
  4  5  1  0
  5  6  1  0
  6  7  1  0
  7  8  1  0
  8  9  1  0
  9 10  2  0
 10 11  1  0
 11 12  1  0
 12 13  1  0
 13 14  1  0
 14 15  1  0
 15 16  2  0
 16 17  1  0
 17 18  2  0
 18 19  1  0
 19 20  2  0
 20 21  1  0
 11 22  2  0
 22 23  1  0
 23 24  1  0
 24 25  1  0
 25 26  1  0
 26 27  1  0
 27 28  2  0
 28 29  1  0
 29 30  2  0
 30 31  1  0
 31 32  2  0
 32 33  1  0
 23 34  2  0
  5 35  2  0
 35  1  1  0
 34  9  1  0
 21 12  1  0
 33 24  1  0
 20 15  1  0
 32 27  1  0
  1 36  1  0
  2 37  1  0
  4 38  1  0
  6 39  1  0
  6 40  1  0
  7 41  1  0
  7 42  1  0
  8 43  1  0
 13 44  1  0
 13 45  1  0
 14 46  1  0
 14 47  1  0
 16 48  1  0
 17 49  1  0
 18 50  1  0
 19 51  1  0
 21 52  1  0
 21 53  1  0
 25 54  1  0
 25 55  1  0
 26 56  1  0
 26 57  1  0
 28 58  1  0
 29 59  1  0
 30 60  1  0
 31 61  1  0
 33 62  1  0
 33 63  1  0
 35 64  1  0
M  END
>  <UniqueID>  (55) 
595

>  <SMILES>  (55) 
c1cncc(CCNc2nc(N3CCc4ccccc4C3)nc(N3CCc4ccccc4C3)n2)c1

>  <Energy>  (55) 
73.69619201064873

>  <Genealogy>  (55) 
c1cncc(CCNc2nc(N3CCc4ccccc4C3)nc(N3CCc4ccccc4C3)n2)c1 (3D coordinates assigned)
c1cncc(CCNc2nc(N3CCc4ccccc4C3)nc(N3CCc4ccccc4C3)n2)c1 (nonaromatic ring conformer: 73.69619201064873 kcal/mol)

>  <smiles>  (55) 
c1cncc(CCNc2nc(N3CCc4ccccc4C3)nc(N3CCc4ccccc4C3)n2)c1

>  <score_type>  (55) 
oracle

>  <origin>  (55) 
autodockgpu

>  <m_score__min__energy>  (55) 
-10.68

>  <m_primary>  (55) 
energy

>  <meeko>  (55) 
{"free_energy": -8.33, "intermolecular_energy": -10.12, "internal_energy": -1.87, "cluster_size": 10, "cluster_id": 2, "rank_in_cluster": 9}

>  <energy>  (55) 
-9.98

>  <cluster_rmsd>  (55) 
0.53

>  <rmsd>  (55) 
269.32

>  <cluster>  (55) 
2

$$$$
RCQFLYQWKFFJSS-SREBMQDQNA-N
     RDKit          3D

 64 69  0  0  0  0  0  0  0  0999 V2000
  142.7410   76.8630  217.5110 C   0  0  0  0  0  0  0  0  0  0  0  0
  142.9960   77.2620  218.8230 C   0  0  0  0  0  0  0  0  0  0  0  0
  143.4540   76.3600  219.7340 N   0  0  0  0  0  0  0  0  0  0  0  0
  143.6690   75.0550  219.4050 C   0  0  0  0  0  0  0  0  0  0  0  0
  143.4310   74.6090  218.0940 C   0  0  0  0  0  0  0  0  0  0  0  0
  143.6700   73.1690  217.7130 C   0  0  0  0  0  0  0  0  0  0  0  0
  143.3040   72.2290  218.8740 C   0  0  0  0  0  0  0  0  0  0  0  0
  141.8560   72.1980  219.0970 N   0  0  0  0  0  0  0  0  0  0  0  0
  141.2560   72.6020  220.3340 C   0  0  0  0  0  0  0  0  0  0  0  0
  140.9570   73.9100  220.5410 N   0  0  0  0  0  0  0  0  0  0  0  0
  140.3770   74.3080  221.7050 C   0  0  0  0  0  0  0  0  0  0  0  0
  140.0120   75.6860  221.9060 N   0  0  0  0  0  0  0  0  0  0  0  0
  138.6590   76.0080  222.4030 C   0  0  0  0  0  0  0  0  0  0  0  0
  138.2960   77.4770  222.1650 C   0  0  0  0  0  0  0  0  0  0  0  0
  139.3990   78.3630  222.6630 C   0  0  0  0  0  0  0  0  0  0  0  0
  139.1260   79.5630  223.3390 C   0  0  0  0  0  0  0  0  0  0  0  0
  140.1780   80.3790  223.7670 C   0  0  0  0  0  0  0  0  0  0  0  0
  141.5010   80.0140  223.5020 C   0  0  0  0  0  0  0  0  0  0  0  0
  141.7780   78.8310  222.8120 C   0  0  0  0  0  0  0  0  0  0  0  0
  140.7280   77.9930  222.4000 C   0  0  0  0  0  0  0  0  0  0  0  0
  141.0030   76.7400  221.6120 C   0  0  0  0  0  0  0  0  0  0  0  0
  140.1330   73.3890  222.6750 N   0  0  0  0  0  0  0  0  0  0  0  0
  140.4470   72.0810  222.4880 C   0  0  0  0  0  0  0  0  0  0  0  0
  140.2380   71.1240  223.5470 N   0  0  0  0  0  0  0  0  0  0  0  0
  139.0620   70.2390  223.4860 C   0  0  0  0  0  0  0  0  0  0  0  0
  139.2560   68.9840  224.3340 C   0  0  0  0  0  0  0  0  0  0  0  0
  139.6540   69.3680  225.7280 C   0  0  0  0  0  0  0  0  0  0  0  0
  139.1790   68.6440  226.8340 C   0  0  0  0  0  0  0  0  0  0  0  0
  139.5690   69.0040  228.1280 C   0  0  0  0  0  0  0  0  0  0  0  0
  140.4490   70.0730  228.3210 C   0  0  0  0  0  0  0  0  0  0  0  0
  140.9410   70.7840  227.2220 C   0  0  0  0  0  0  0  0  0  0  0  0
  140.5430   70.4410  225.9190 C   0  0  0  0  0  0  0  0  0  0  0  0
  141.1190   71.1720  224.7310 C   0  0  0  0  0  0  0  0  0  0  0  0
  140.9970   71.6930  221.3080 N   0  0  0  0  0  0  0  0  0  0  0  0
  142.9650   75.5330  217.1440 C   0  0  0  0  0  0  0  0  0  0  0  0
  142.3674   77.5877  216.7726 H   0  0  0  0  0  0  0  0  0  0  0  0
  142.8268   78.3070  219.1220 H   0  0  0  0  0  0  0  0  0  0  0  0
  144.0297   74.3492  220.1677 H   0  0  0  0  0  0  0  0  0  0  0  0
  143.0511   72.9199  216.8384 H   0  0  0  0  0  0  0  0  0  0  0  0
  144.7365   73.0391  217.4769 H   0  0  0  0  0  0  0  0  0  0  0  0
  143.6518   71.2130  218.6358 H   0  0  0  0  0  0  0  0  0  0  0  0
  143.7885   72.6015  219.7886 H   0  0  0  0  0  0  0  0  0  0  0  0
  141.2660   71.6720  218.4120 H   0  0  0  0  0  0  0  0  0  0  0  0
  137.9283   75.3724  221.8814 H   0  0  0  0  0  0  0  0  0  0  0  0
  138.6424   75.8248  223.4875 H   0  0  0  0  0  0  0  0  0  0  0  0
  138.1501   77.6467  221.0880 H   0  0  0  0  0  0  0  0  0  0  0  0
  137.3689   77.7133  222.7078 H   0  0  0  0  0  0  0  0  0  0  0  0
  138.0849   79.8612  223.5319 H   0  0  0  0  0  0  0  0  0  0  0  0
  139.9640   81.3096  224.3131 H   0  0  0  0  0  0  0  0  0  0  0  0
  142.3260   80.6596  223.8375 H   0  0  0  0  0  0  0  0  0  0  0  0
  142.8197   78.5552  222.5910 H   0  0  0  0  0  0  0  0  0  0  0  0
  140.9642   76.9773  220.5386 H   0  0  0  0  0  0  0  0  0  0  0  0
  141.9980   76.3662  221.8954 H   0  0  0  0  0  0  0  0  0  0  0  0
  138.1834   70.7874  223.8564 H   0  0  0  0  0  0  0  0  0  0  0  0
  138.9202   69.9282  222.4404 H   0  0  0  0  0  0  0  0  0  0  0  0
  138.3143   68.4164  224.3666 H   0  0  0  0  0  0  0  0  0  0  0  0
  140.0479   68.3640  223.8885 H   0  0  0  0  0  0  0  0  0  0  0  0
  138.4993   67.7926  226.6822 H   0  0  0  0  0  0  0  0  0  0  0  0
  139.1833   68.4460  228.9939 H   0  0  0  0  0  0  0  0  0  0  0  0
  140.7549   70.3553  229.3392 H   0  0  0  0  0  0  0  0  0  0  0  0
  141.6432   71.6161  227.3785 H   0  0  0  0  0  0  0  0  0  0  0  0
  141.2771   72.2245  225.0089 H   0  0  0  0  0  0  0  0  0  0  0  0
  142.0625   70.6746  224.4619 H   0  0  0  0  0  0  0  0  0  0  0  0
  142.7761   75.2094  216.1098 H   0  0  0  0  0  0  0  0  0  0  0  0
  1  2  2  0
  2  3  1  0
  3  4  2  0
  4  5  1  0
  5  6  1  0
  6  7  1  0
  7  8  1  0
  8  9  1  0
  9 10  2  0
 10 11  1  0
 11 12  1  0
 12 13  1  0
 13 14  1  0
 14 15  1  0
 15 16  2  0
 16 17  1  0
 17 18  2  0
 18 19  1  0
 19 20  2  0
 20 21  1  0
 11 22  2  0
 22 23  1  0
 23 24  1  0
 24 25  1  0
 25 26  1  0
 26 27  1  0
 27 28  2  0
 28 29  1  0
 29 30  2  0
 30 31  1  0
 31 32  2  0
 32 33  1  0
 23 34  2  0
  5 35  2  0
 35  1  1  0
 34  9  1  0
 21 12  1  0
 33 24  1  0
 20 15  1  0
 32 27  1  0
  1 36  1  0
  2 37  1  0
  4 38  1  0
  6 39  1  0
  6 40  1  0
  7 41  1  0
  7 42  1  0
  8 43  1  0
 13 44  1  0
 13 45  1  0
 14 46  1  0
 14 47  1  0
 16 48  1  0
 17 49  1  0
 18 50  1  0
 19 51  1  0
 21 52  1  0
 21 53  1  0
 25 54  1  0
 25 55  1  0
 26 56  1  0
 26 57  1  0
 28 58  1  0
 29 59  1  0
 30 60  1  0
 31 61  1  0
 33 62  1  0
 33 63  1  0
 35 64  1  0
M  END
>  <UniqueID>  (56) 
595

>  <SMILES>  (56) 
c1cncc(CCNc2nc(N3CCc4ccccc4C3)nc(N3CCc4ccccc4C3)n2)c1

>  <Energy>  (56) 
73.69619201064873

>  <Genealogy>  (56) 
c1cncc(CCNc2nc(N3CCc4ccccc4C3)nc(N3CCc4ccccc4C3)n2)c1 (3D coordinates assigned)
c1cncc(CCNc2nc(N3CCc4ccccc4C3)nc(N3CCc4ccccc4C3)n2)c1 (nonaromatic ring conformer: 73.69619201064873 kcal/mol)

>  <smiles>  (56) 
c1cncc(CCNc2nc(N3CCc4ccccc4C3)nc(N3CCc4ccccc4C3)n2)c1

>  <score_type>  (56) 
oracle

>  <origin>  (56) 
autodockgpu

>  <m_score__min__energy>  (56) 
-10.68

>  <m_primary>  (56) 
energy

>  <meeko>  (56) 
{"free_energy": -9.02, "intermolecular_energy": -10.81, "internal_energy": -1.52, "cluster_size": 10, "cluster_id": 2, "rank_in_cluster": 8}

>  <energy>  (56) 
-9.73

>  <cluster_rmsd>  (56) 
0.96

>  <rmsd>  (56) 
269.1

>  <cluster>  (56) 
2

$$$$
RCQFLYQWKFFJSS-SREBMQDQNA-N
     RDKit          3D

 64 69  0  0  0  0  0  0  0  0999 V2000
  145.2440   73.7580  221.2120 C   0  0  0  0  0  0  0  0  0  0  0  0
  146.3220   73.2510  220.4860 C   0  0  0  0  0  0  0  0  0  0  0  0
  146.1790   72.9670  219.1620 N   0  0  0  0  0  0  0  0  0  0  0  0
  144.9970   73.1560  218.5120 C   0  0  0  0  0  0  0  0  0  0  0  0
  143.8860   73.6710  219.2020 C   0  0  0  0  0  0  0  0  0  0  0  0
  142.5720   73.8930  218.4940 C   0  0  0  0  0  0  0  0  0  0  0  0
  141.9140   72.5500  218.1330 C   0  0  0  0  0  0  0  0  0  0  0  0
  140.6180   72.3950  218.8000 N   0  0  0  0  0  0  0  0  0  0  0  0
  140.3780   72.8560  220.1360 C   0  0  0  0  0  0  0  0  0  0  0  0
  140.2970   74.1880  220.3850 N   0  0  0  0  0  0  0  0  0  0  0  0
  140.0580   74.6400  221.6440 C   0  0  0  0  0  0  0  0  0  0  0  0
  139.9190   76.0500  221.9010 N   0  0  0  0  0  0  0  0  0  0  0  0
  138.6690   76.5540  222.5050 C   0  0  0  0  0  0  0  0  0  0  0  0
  138.5150   78.0660  222.3250 C   0  0  0  0  0  0  0  0  0  0  0  0
  139.7710   78.7620  222.7580 C   0  0  0  0  0  0  0  0  0  0  0  0
  139.7300   79.9680  223.4780 C   0  0  0  0  0  0  0  0  0  0  0  0
  140.9200   80.6050  223.8430 C   0  0  0  0  0  0  0  0  0  0  0  0
  142.1520   80.0560  223.4720 C   0  0  0  0  0  0  0  0  0  0  0  0
  142.1980   78.8670  222.7390 C   0  0  0  0  0  0  0  0  0  0  0  0
  141.0080   78.2080  222.3890 C   0  0  0  0  0  0  0  0  0  0  0  0
  141.0340   76.9540  221.5560 C   0  0  0  0  0  0  0  0  0  0  0  0
  139.9390   73.7470  222.6610 N   0  0  0  0  0  0  0  0  0  0  0  0
  140.0400   72.4130  222.4290 C   0  0  0  0  0  0  0  0  0  0  0  0
  139.9710   71.4760  223.5230 N   0  0  0  0  0  0  0  0  0  0  0  0
  138.9290   70.4340  223.5050 C   0  0  0  0  0  0  0  0  0  0  0  0
  139.2990   69.2520  224.3970 C   0  0  0  0  0  0  0  0  0  0  0  0
  139.6460   69.7380  225.7720 C   0  0  0  0  0  0  0  0  0  0  0  0
  139.2800   68.9980  226.9090 C   0  0  0  0  0  0  0  0  0  0  0  0
  139.6210   69.4560  228.1840 C   0  0  0  0  0  0  0  0  0  0  0  0
  140.3450   70.6430  228.3310 C   0  0  0  0  0  0  0  0  0  0  0  0
  140.7290   71.3740  227.2020 C   0  0  0  0  0  0  0  0  0  0  0  0
  140.3770   70.9300  225.9160 C   0  0  0  0  0  0  0  0  0  0  0  0
  140.8410   71.6900  224.6970 C   0  0  0  0  0  0  0  0  0  0  0  0
  140.2470   71.9740  221.1600 N   0  0  0  0  0  0  0  0  0  0  0  0
  144.0240   73.9740  220.5660 C   0  0  0  0  0  0  0  0  0  0  0  0
  145.3534   73.9855  222.2826 H   0  0  0  0  0  0  0  0  0  0  0  0
  147.2882   73.0805  220.9835 H   0  0  0  0  0  0  0  0  0  0  0  0
  144.9117   72.9050  217.4444 H   0  0  0  0  0  0  0  0  0  0  0  0
  141.8980   74.4595  219.1534 H   0  0  0  0  0  0  0  0  0  0  0  0
  142.7606   74.4544  217.5671 H   0  0  0  0  0  0  0  0  0  0  0  0
  141.7641   72.5058  217.0442 H   0  0  0  0  0  0  0  0  0  0  0  0
  142.5761   71.7380  218.4682 H   0  0  0  0  0  0  0  0  0  0  0  0
  139.9190   71.7490  218.3690 H   0  0  0  0  0  0  0  0  0  0  0  0
  137.8155   76.0506  222.0274 H   0  0  0  0  0  0  0  0  0  0  0  0
  138.7029   76.3417  223.5838 H   0  0  0  0  0  0  0  0  0  0  0  0
  138.3209   78.2893  221.2655 H   0  0  0  0  0  0  0  0  0  0  0  0
  137.6743   78.4202  222.9396 H   0  0  0  0  0  0  0  0  0  0  0  0
  138.7618   80.4109  223.7545 H   0  0  0  0  0  0  0  0  0  0  0  0
  140.8873   81.5392  224.4228 H   0  0  0  0  0  0  0  0  0  0  0  0
  143.0864   80.5612  223.7578 H   0  0  0  0  0  0  0  0  0  0  0  0
  143.1681   78.4464  222.4356 H   0  0  0  0  0  0  0  0  0  0  0  0
  140.9551   77.2291  220.4939 H   0  0  0  0  0  0  0  0  0  0  0  0
  141.9788   76.4273  221.7559 H   0  0  0  0  0  0  0  0  0  0  0  0
  137.9838   70.8685  223.8625 H   0  0  0  0  0  0  0  0  0  0  0  0
  138.8280   70.0670  222.4729 H   0  0  0  0  0  0  0  0  0  0  0  0
  138.4454   68.5610  224.4592 H   0  0  0  0  0  0  0  0  0  0  0  0
  140.1680   68.7325  223.9670 H   0  0  0  0  0  0  0  0  0  0  0  0
  138.7237   68.0559  226.7949 H   0  0  0  0  0  0  0  0  0  0  0  0
  139.3197   68.8823  229.0729 H   0  0  0  0  0  0  0  0  0  0  0  0
  140.6129   71.0024  229.3355 H   0  0  0  0  0  0  0  0  0  0  0  0
  141.3093   72.3008  227.3213 H   0  0  0  0  0  0  0  0  0  0  0  0
  140.8516   72.7638  224.9354 H   0  0  0  0  0  0  0  0  0  0  0  0
  141.8437   71.3194  224.4378 H   0  0  0  0  0  0  0  0  0  0  0  0
  143.1703   74.3821  221.1270 H   0  0  0  0  0  0  0  0  0  0  0  0
  1  2  2  0
  2  3  1  0
  3  4  2  0
  4  5  1  0
  5  6  1  0
  6  7  1  0
  7  8  1  0
  8  9  1  0
  9 10  2  0
 10 11  1  0
 11 12  1  0
 12 13  1  0
 13 14  1  0
 14 15  1  0
 15 16  2  0
 16 17  1  0
 17 18  2  0
 18 19  1  0
 19 20  2  0
 20 21  1  0
 11 22  2  0
 22 23  1  0
 23 24  1  0
 24 25  1  0
 25 26  1  0
 26 27  1  0
 27 28  2  0
 28 29  1  0
 29 30  2  0
 30 31  1  0
 31 32  2  0
 32 33  1  0
 23 34  2  0
  5 35  2  0
 35  1  1  0
 34  9  1  0
 21 12  1  0
 33 24  1  0
 20 15  1  0
 32 27  1  0
  1 36  1  0
  2 37  1  0
  4 38  1  0
  6 39  1  0
  6 40  1  0
  7 41  1  0
  7 42  1  0
  8 43  1  0
 13 44  1  0
 13 45  1  0
 14 46  1  0
 14 47  1  0
 16 48  1  0
 17 49  1  0
 18 50  1  0
 19 51  1  0
 21 52  1  0
 21 53  1  0
 25 54  1  0
 25 55  1  0
 26 56  1  0
 26 57  1  0
 28 58  1  0
 29 59  1  0
 30 60  1  0
 31 61  1  0
 33 62  1  0
 33 63  1  0
 35 64  1  0
M  END
>  <UniqueID>  (57) 
595

>  <SMILES>  (57) 
c1cncc(CCNc2nc(N3CCc4ccccc4C3)nc(N3CCc4ccccc4C3)n2)c1

>  <Energy>  (57) 
73.69619201064873

>  <Genealogy>  (57) 
c1cncc(CCNc2nc(N3CCc4ccccc4C3)nc(N3CCc4ccccc4C3)n2)c1 (3D coordinates assigned)
c1cncc(CCNc2nc(N3CCc4ccccc4C3)nc(N3CCc4ccccc4C3)n2)c1 (nonaromatic ring conformer: 73.69619201064873 kcal/mol)

>  <smiles>  (57) 
c1cncc(CCNc2nc(N3CCc4ccccc4C3)nc(N3CCc4ccccc4C3)n2)c1

>  <score_type>  (57) 
oracle

>  <origin>  (57) 
autodockgpu

>  <m_score__min__energy>  (57) 
-10.68

>  <m_primary>  (57) 
energy

>  <meeko>  (57) 
{"free_energy": -10.59, "intermolecular_energy": -12.38, "internal_energy": -1.27, "cluster_size": 10, "cluster_id": 2, "rank_in_cluster": 1}

>  <energy>  (57) 
-9.33

>  <cluster_rmsd>  (57) 
1.4

>  <rmsd>  (57) 
269.25

>  <cluster>  (57) 
2

$$$$
RCQFLYQWKFFJSS-SREBMQDQNA-N
     RDKit          3D

 64 69  0  0  0  0  0  0  0  0999 V2000
  145.2060   74.1570  220.8990 C   0  0  0  0  0  0  0  0  0  0  0  0
  146.3180   73.4180  220.4930 C   0  0  0  0  0  0  0  0  0  0  0  0
  146.2860   72.7240  219.3230 N   0  0  0  0  0  0  0  0  0  0  0  0
  145.1830   72.7200  218.5210 C   0  0  0  0  0  0  0  0  0  0  0  0
  144.0430   73.4550  218.8860 C   0  0  0  0  0  0  0  0  0  0  0  0
  142.8170   73.4650  218.0070 C   0  0  0  0  0  0  0  0  0  0  0  0
  141.9770   72.1960  218.2270 C   0  0  0  0  0  0  0  0  0  0  0  0
  140.6370   72.5230  218.7220 N   0  0  0  0  0  0  0  0  0  0  0  0
  140.3920   72.9400  220.0710 C   0  0  0  0  0  0  0  0  0  0  0  0
  140.3130   74.2630  220.3630 N   0  0  0  0  0  0  0  0  0  0  0  0
  140.0700   74.6740  221.6350 C   0  0  0  0  0  0  0  0  0  0  0  0
  139.9330   76.0750  221.9380 N   0  0  0  0  0  0  0  0  0  0  0  0
  138.7560   76.5380  222.7000 C   0  0  0  0  0  0  0  0  0  0  0  0
  138.5490   78.0500  222.5740 C   0  0  0  0  0  0  0  0  0  0  0  0
  139.8340   78.7670  222.8660 C   0  0  0  0  0  0  0  0  0  0  0  0
  139.8560   79.9570  223.6110 C   0  0  0  0  0  0  0  0  0  0  0  0
  141.0680   80.6150  223.8430 C   0  0  0  0  0  0  0  0  0  0  0  0
  142.2560   80.1020  223.3130 C   0  0  0  0  0  0  0  0  0  0  0  0
  142.2370   78.9290  222.5540 C   0  0  0  0  0  0  0  0  0  0  0  0
  141.0280   78.2490  222.3370 C   0  0  0  0  0  0  0  0  0  0  0  0
  140.9790   77.0120  221.4800 C   0  0  0  0  0  0  0  0  0  0  0  0
  139.9430   73.7480  222.6220 N   0  0  0  0  0  0  0  0  0  0  0  0
  140.0420   72.4220  222.3460 C   0  0  0  0  0  0  0  0  0  0  0  0
  139.9650   71.4500  223.4080 N   0  0  0  0  0  0  0  0  0  0  0  0
  138.8960   70.4370  223.3720 C   0  0  0  0  0  0  0  0  0  0  0  0
  139.2490   69.2150  224.2170 C   0  0  0  0  0  0  0  0  0  0  0  0
  139.6300   69.6440  225.6020 C   0  0  0  0  0  0  0  0  0  0  0  0
  139.2630   68.8740  226.7180 C   0  0  0  0  0  0  0  0  0  0  0  0
  139.6360   69.2790  228.0030 C   0  0  0  0  0  0  0  0  0  0  0  0
  140.3920   70.4420  228.1780 C   0  0  0  0  0  0  0  0  0  0  0  0
  140.7780   71.2010  227.0680 C   0  0  0  0  0  0  0  0  0  0  0  0
  140.3940   70.8120  225.7740 C   0  0  0  0  0  0  0  0  0  0  0  0
  140.8590   71.6010  224.5740 C   0  0  0  0  0  0  0  0  0  0  0  0
  140.2530   72.0250  221.0640 N   0  0  0  0  0  0  0  0  0  0  0  0
  144.0670   74.1800  220.0890 C   0  0  0  0  0  0  0  0  0  0  0  0
  145.2256   74.7155  221.8465 H   0  0  0  0  0  0  0  0  0  0  0  0
  147.2217   73.3965  221.1197 H   0  0  0  0  0  0  0  0  0  0  0  0
  145.1861   72.1400  217.5863 H   0  0  0  0  0  0  0  0  0  0  0  0
  142.2069   74.3477  218.2490 H   0  0  0  0  0  0  0  0  0  0  0  0
  143.1375   73.4977  216.9552 H   0  0  0  0  0  0  0  0  0  0  0  0
  141.8847   71.6575  217.2723 H   0  0  0  0  0  0  0  0  0  0  0  0
  142.4819   71.5718  218.9790 H   0  0  0  0  0  0  0  0  0  0  0  0
  139.8170   72.2450  218.1350 H   0  0  0  0  0  0  0  0  0  0  0  0
  137.8614   76.0241  222.3184 H   0  0  0  0  0  0  0  0  0  0  0  0
  138.9260   76.3058  223.7617 H   0  0  0  0  0  0  0  0  0  0  0  0
  138.2219   78.2895  221.5514 H   0  0  0  0  0  0  0  0  0  0  0  0
  137.7826   78.3720  223.2944 H   0  0  0  0  0  0  0  0  0  0  0  0
  138.9196   80.3718  224.0123 H   0  0  0  0  0  0  0  0  0  0  0  0
  141.0868   81.5368  224.4429 H   0  0  0  0  0  0  0  0  0  0  0  0
  143.2077   80.6231  223.4940 H   0  0  0  0  0  0  0  0  0  0  0  0
  143.1714   78.5374  222.1255 H   0  0  0  0  0  0  0  0  0  0  0  0
  140.7658   77.3053  220.4415 H   0  0  0  0  0  0  0  0  0  0  0  0
  141.9520   76.5041  221.5526 H   0  0  0  0  0  0  0  0  0  0  0  0
  137.9685   70.8832  223.7601 H   0  0  0  0  0  0  0  0  0  0  0  0
  138.7688   70.1088  222.3298 H   0  0  0  0  0  0  0  0  0  0  0  0
  138.3787   68.5444  224.2695 H   0  0  0  0  0  0  0  0  0  0  0  0
  140.0973   68.6886  223.7551 H   0  0  0  0  0  0  0  0  0  0  0  0
  138.6811   67.9507  226.5806 H   0  0  0  0  0  0  0  0  0  0  0  0
  139.3346   68.6825  228.8767 H   0  0  0  0  0  0  0  0  0  0  0  0
  140.6836   70.7606  229.1896 H   0  0  0  0  0  0  0  0  0  0  0  0
  141.3854   72.1071  227.2093 H   0  0  0  0  0  0  0  0  0  0  0  0
  140.9019   72.6654  224.8484 H   0  0  0  0  0  0  0  0  0  0  0  0
  141.8473   71.2136  224.2858 H   0  0  0  0  0  0  0  0  0  0  0  0
  143.1880   74.7668  220.3941 H   0  0  0  0  0  0  0  0  0  0  0  0
  1  2  2  0
  2  3  1  0
  3  4  2  0
  4  5  1  0
  5  6  1  0
  6  7  1  0
  7  8  1  0
  8  9  1  0
  9 10  2  0
 10 11  1  0
 11 12  1  0
 12 13  1  0
 13 14  1  0
 14 15  1  0
 15 16  2  0
 16 17  1  0
 17 18  2  0
 18 19  1  0
 19 20  2  0
 20 21  1  0
 11 22  2  0
 22 23  1  0
 23 24  1  0
 24 25  1  0
 25 26  1  0
 26 27  1  0
 27 28  2  0
 28 29  1  0
 29 30  2  0
 30 31  1  0
 31 32  2  0
 32 33  1  0
 23 34  2  0
  5 35  2  0
 35  1  1  0
 34  9  1  0
 21 12  1  0
 33 24  1  0
 20 15  1  0
 32 27  1  0
  1 36  1  0
  2 37  1  0
  4 38  1  0
  6 39  1  0
  6 40  1  0
  7 41  1  0
  7 42  1  0
  8 43  1  0
 13 44  1  0
 13 45  1  0
 14 46  1  0
 14 47  1  0
 16 48  1  0
 17 49  1  0
 18 50  1  0
 19 51  1  0
 21 52  1  0
 21 53  1  0
 25 54  1  0
 25 55  1  0
 26 56  1  0
 26 57  1  0
 28 58  1  0
 29 59  1  0
 30 60  1  0
 31 61  1  0
 33 62  1  0
 33 63  1  0
 35 64  1  0
M  END
>  <UniqueID>  (58) 
595

>  <SMILES>  (58) 
c1cncc(CCNc2nc(N3CCc4ccccc4C3)nc(N3CCc4ccccc4C3)n2)c1

>  <Energy>  (58) 
73.69619201064873

>  <Genealogy>  (58) 
c1cncc(CCNc2nc(N3CCc4ccccc4C3)nc(N3CCc4ccccc4C3)n2)c1 (3D coordinates assigned)
c1cncc(CCNc2nc(N3CCc4ccccc4C3)nc(N3CCc4ccccc4C3)n2)c1 (nonaromatic ring conformer: 73.69619201064873 kcal/mol)

>  <smiles>  (58) 
c1cncc(CCNc2nc(N3CCc4ccccc4C3)nc(N3CCc4ccccc4C3)n2)c1

>  <score_type>  (58) 
oracle

>  <origin>  (58) 
autodockgpu

>  <m_score__min__energy>  (58) 
-10.68

>  <m_primary>  (58) 
energy

>  <meeko>  (58) 
{"free_energy": -10.47, "intermolecular_energy": -12.26, "internal_energy": -1.22, "cluster_size": 10, "cluster_id": 2, "rank_in_cluster": 3}

>  <energy>  (58) 
-9.02

>  <cluster_rmsd>  (58) 
1.42

>  <rmsd>  (58) 
269.15

>  <cluster>  (58) 
2

$$$$
RCQFLYQWKFFJSS-SREBMQDQNA-N
     RDKit          3D

 64 69  0  0  0  0  0  0  0  0999 V2000
  144.6490   74.0040  220.8310 C   0  0  0  0  0  0  0  0  0  0  0  0
  145.9850   73.6910  220.5770 C   0  0  0  0  0  0  0  0  0  0  0  0
  146.3210   72.9920  219.4590 N   0  0  0  0  0  0  0  0  0  0  0  0
  145.3810   72.5710  218.5660 C   0  0  0  0  0  0  0  0  0  0  0  0
  144.0240   72.8690  218.7780 C   0  0  0  0  0  0  0  0  0  0  0  0
  142.9710   72.4160  217.7960 C   0  0  0  0  0  0  0  0  0  0  0  0
  141.8840   71.5890  218.5030 C   0  0  0  0  0  0  0  0  0  0  0  0
  140.7220   72.4150  218.8410 N   0  0  0  0  0  0  0  0  0  0  0  0
  140.4500   72.8550  220.1780 C   0  0  0  0  0  0  0  0  0  0  0  0
  140.3500   74.1830  220.4420 N   0  0  0  0  0  0  0  0  0  0  0  0
  140.0810   74.6160  221.7020 C   0  0  0  0  0  0  0  0  0  0  0  0
  139.9220   76.0210  221.9740 N   0  0  0  0  0  0  0  0  0  0  0  0
  138.7230   76.4840  222.7010 C   0  0  0  0  0  0  0  0  0  0  0  0
  138.5030   77.9910  222.5420 C   0  0  0  0  0  0  0  0  0  0  0  0
  139.7730   78.7280  222.8470 C   0  0  0  0  0  0  0  0  0  0  0  0
  139.7650   79.9320  223.5700 C   0  0  0  0  0  0  0  0  0  0  0  0
  140.9640   80.6080  223.8160 C   0  0  0  0  0  0  0  0  0  0  0  0
  142.1700   80.0990  223.3220 C   0  0  0  0  0  0  0  0  0  0  0  0
  142.1800   78.9110  222.5850 C   0  0  0  0  0  0  0  0  0  0  0  0
  140.9840   78.2130  222.3550 C   0  0  0  0  0  0  0  0  0  0  0  0
  140.9670   76.9600  221.5210 C   0  0  0  0  0  0  0  0  0  0  0  0
  139.9490   73.7080  222.7040 N   0  0  0  0  0  0  0  0  0  0  0  0
  140.0680   72.3780  222.4570 C   0  0  0  0  0  0  0  0  0  0  0  0
  139.9860   71.4260  223.5370 N   0  0  0  0  0  0  0  0  0  0  0  0
  138.8540   70.4840  223.5720 C   0  0  0  0  0  0  0  0  0  0  0  0
  139.1720   69.2520  224.4160 C   0  0  0  0  0  0  0  0  0  0  0  0
  139.6520   69.6730  225.7730 C   0  0  0  0  0  0  0  0  0  0  0  0
  139.2960   68.9420  226.9180 C   0  0  0  0  0  0  0  0  0  0  0  0
  139.7610   69.3380  228.1760 C   0  0  0  0  0  0  0  0  0  0  0  0
  140.5980   70.4510  228.2930 C   0  0  0  0  0  0  0  0  0  0  0  0
  140.9730   71.1710  227.1530 C   0  0  0  0  0  0  0  0  0  0  0  0
  140.4970   70.7910  225.8870 C   0  0  0  0  0  0  0  0  0  0  0  0
  140.9480   71.5330  224.6520 C   0  0  0  0  0  0  0  0  0  0  0  0
  140.3060   71.9580  221.1870 N   0  0  0  0  0  0  0  0  0  0  0  0
  143.6660   73.5960  219.9250 C   0  0  0  0  0  0  0  0  0  0  0  0
  144.3723   74.5661  221.7351 H   0  0  0  0  0  0  0  0  0  0  0  0
  146.7674   74.0098  221.2814 H   0  0  0  0  0  0  0  0  0  0  0  0
  145.6850   71.9972  217.6781 H   0  0  0  0  0  0  0  0  0  0  0  0
  142.5074   73.2989  217.3316 H   0  0  0  0  0  0  0  0  0  0  0  0
  143.4499   71.7876  217.0307 H   0  0  0  0  0  0  0  0  0  0  0  0
  141.5631   70.7747  217.8366 H   0  0  0  0  0  0  0  0  0  0  0  0
  142.3061   71.1856  219.4352 H   0  0  0  0  0  0  0  0  0  0  0  0
  139.9640   72.5090  218.1270 H   0  0  0  0  0  0  0  0  0  0  0  0
  137.8429   75.9532  222.3091 H   0  0  0  0  0  0  0  0  0  0  0  0
  138.8710   76.2729  223.7704 H   0  0  0  0  0  0  0  0  0  0  0  0
  138.1951   78.2075  221.5084 H   0  0  0  0  0  0  0  0  0  0  0  0
  137.7184   78.3178  223.2403 H   0  0  0  0  0  0  0  0  0  0  0  0
  138.8153   80.3433  223.9428 H   0  0  0  0  0  0  0  0  0  0  0  0
  140.9591   81.5411  224.3986 H   0  0  0  0  0  0  0  0  0  0  0  0
  143.1116   80.6343  223.5138 H   0  0  0  0  0  0  0  0  0  0  0  0
  143.1277   78.5222  222.1842 H   0  0  0  0  0  0  0  0  0  0  0  0
  140.7733   77.2313  220.4727 H   0  0  0  0  0  0  0  0  0  0  0  0
  141.9436   76.4644  221.6240 H   0  0  0  0  0  0  0  0  0  0  0  0
  137.9787   70.9939  224.0008 H   0  0  0  0  0  0  0  0  0  0  0  0
  138.6513   70.1523  222.5430 H   0  0  0  0  0  0  0  0  0  0  0  0
  138.2646   68.6396  224.5239 H   0  0  0  0  0  0  0  0  0  0  0  0
  139.9592   68.6659  223.9191 H   0  0  0  0  0  0  0  0  0  0  0  0
  138.6502   68.0563  226.8252 H   0  0  0  0  0  0  0  0  0  0  0  0
  139.4680   68.7734  229.0734 H   0  0  0  0  0  0  0  0  0  0  0  0
  140.9628   70.7618  229.2831 H   0  0  0  0  0  0  0  0  0  0  0  0
  141.6432   72.0380  227.2486 H   0  0  0  0  0  0  0  0  0  0  0  0
  141.0739   72.5956  224.9068 H   0  0  0  0  0  0  0  0  0  0  0  0
  141.8928   71.0785  224.3191 H   0  0  0  0  0  0  0  0  0  0  0  0
  142.6107   73.8446  220.1106 H   0  0  0  0  0  0  0  0  0  0  0  0
  1  2  2  0
  2  3  1  0
  3  4  2  0
  4  5  1  0
  5  6  1  0
  6  7  1  0
  7  8  1  0
  8  9  1  0
  9 10  2  0
 10 11  1  0
 11 12  1  0
 12 13  1  0
 13 14  1  0
 14 15  1  0
 15 16  2  0
 16 17  1  0
 17 18  2  0
 18 19  1  0
 19 20  2  0
 20 21  1  0
 11 22  2  0
 22 23  1  0
 23 24  1  0
 24 25  1  0
 25 26  1  0
 26 27  1  0
 27 28  2  0
 28 29  1  0
 29 30  2  0
 30 31  1  0
 31 32  2  0
 32 33  1  0
 23 34  2  0
  5 35  2  0
 35  1  1  0
 34  9  1  0
 21 12  1  0
 33 24  1  0
 20 15  1  0
 32 27  1  0
  1 36  1  0
  2 37  1  0
  4 38  1  0
  6 39  1  0
  6 40  1  0
  7 41  1  0
  7 42  1  0
  8 43  1  0
 13 44  1  0
 13 45  1  0
 14 46  1  0
 14 47  1  0
 16 48  1  0
 17 49  1  0
 18 50  1  0
 19 51  1  0
 21 52  1  0
 21 53  1  0
 25 54  1  0
 25 55  1  0
 26 56  1  0
 26 57  1  0
 28 58  1  0
 29 59  1  0
 30 60  1  0
 31 61  1  0
 33 62  1  0
 33 63  1  0
 35 64  1  0
M  END
>  <UniqueID>  (59) 
595

>  <SMILES>  (59) 
c1cncc(CCNc2nc(N3CCc4ccccc4C3)nc(N3CCc4ccccc4C3)n2)c1

>  <Energy>  (59) 
73.69619201064873

>  <Genealogy>  (59) 
c1cncc(CCNc2nc(N3CCc4ccccc4C3)nc(N3CCc4ccccc4C3)n2)c1 (3D coordinates assigned)
c1cncc(CCNc2nc(N3CCc4ccccc4C3)nc(N3CCc4ccccc4C3)n2)c1 (nonaromatic ring conformer: 73.69619201064873 kcal/mol)

>  <smiles>  (59) 
c1cncc(CCNc2nc(N3CCc4ccccc4C3)nc(N3CCc4ccccc4C3)n2)c1

>  <score_type>  (59) 
oracle

>  <origin>  (59) 
autodockgpu

>  <m_score__min__energy>  (59) 
-10.68

>  <m_primary>  (59) 
energy

>  <meeko>  (59) 
{"free_energy": -10.34, "intermolecular_energy": -12.13, "internal_energy": -1.22, "cluster_size": 10, "cluster_id": 2, "rank_in_cluster": 4}

>  <energy>  (59) 
-8.33

>  <cluster_rmsd>  (59) 
1.94

>  <rmsd>  (59) 
269.01

>  <cluster>  (59) 
2

$$$$
RCQFLYQWKFFJSS-SREBMQDQNA-N
     RDKit          3D

 64 69  0  0  0  0  0  0  0  0999 V2000
  144.9370   73.7570  221.1770 C   0  0  0  0  0  0  0  0  0  0  0  0
  146.1480   73.0650  221.1320 C   0  0  0  0  0  0  0  0  0  0  0  0
  146.4080   72.2130  220.1030 N   0  0  0  0  0  0  0  0  0  0  0  0
  145.5080   72.0020  219.1010 C   0  0  0  0  0  0  0  0  0  0  0  0
  144.2790   72.6820  219.1020 C   0  0  0  0  0  0  0  0  0  0  0  0
  143.2750   72.4650  217.9970 C   0  0  0  0  0  0  0  0  0  0  0  0
  142.1210   71.5680  218.4770 C   0  0  0  0  0  0  0  0  0  0  0  0
  140.9160   72.3550  218.7570 N   0  0  0  0  0  0  0  0  0  0  0  0
  140.5750   72.8020  220.0760 C   0  0  0  0  0  0  0  0  0  0  0  0
  140.4420   74.1300  220.3220 N   0  0  0  0  0  0  0  0  0  0  0  0
  140.1070   74.5690  221.5650 C   0  0  0  0  0  0  0  0  0  0  0  0
  139.9140   75.9730  221.8170 N   0  0  0  0  0  0  0  0  0  0  0  0
  138.6280   76.4350  222.3760 C   0  0  0  0  0  0  0  0  0  0  0  0
  138.4310   77.9430  222.1920 C   0  0  0  0  0  0  0  0  0  0  0  0
  139.6480   78.6780  222.6680 C   0  0  0  0  0  0  0  0  0  0  0  0
  139.5430   79.8810  223.3860 C   0  0  0  0  0  0  0  0  0  0  0  0
  140.6980   80.5560  223.7930 C   0  0  0  0  0  0  0  0  0  0  0  0
  141.9590   80.0470  223.4650 C   0  0  0  0  0  0  0  0  0  0  0  0
  142.0690   78.8610  222.7340 C   0  0  0  0  0  0  0  0  0  0  0  0
  140.9140   78.1650  222.3430 C   0  0  0  0  0  0  0  0  0  0  0  0
  141.0100   76.9130  221.5110 C   0  0  0  0  0  0  0  0  0  0  0  0
  139.9440   73.6670  222.5680 N   0  0  0  0  0  0  0  0  0  0  0  0
  140.0960   72.3370  222.3390 C   0  0  0  0  0  0  0  0  0  0  0  0
  139.9790   71.3930  223.4220 N   0  0  0  0  0  0  0  0  0  0  0  0
  138.8400   70.4600  223.4350 C   0  0  0  0  0  0  0  0  0  0  0  0
  139.1270   69.2310  224.2950 C   0  0  0  0  0  0  0  0  0  0  0  0
  139.5750   69.6580  225.6610 C   0  0  0  0  0  0  0  0  0  0  0  0
  139.1850   68.9370  226.8010 C   0  0  0  0  0  0  0  0  0  0  0  0
  139.6210   69.3380  228.0670 C   0  0  0  0  0  0  0  0  0  0  0  0
  140.4630   70.4460  228.1990 C   0  0  0  0  0  0  0  0  0  0  0  0
  140.8720   71.1550  227.0640 C   0  0  0  0  0  0  0  0  0  0  0  0
  140.4260   70.7700  225.7890 C   0  0  0  0  0  0  0  0  0  0  0  0
  140.9130   71.5010  224.5610 C   0  0  0  0  0  0  0  0  0  0  0  0
  140.3990   71.9110  221.0850 N   0  0  0  0  0  0  0  0  0  0  0  0
  144.0020   73.5690  220.1560 C   0  0  0  0  0  0  0  0  0  0  0  0
  144.7206   74.4440  222.0084 H   0  0  0  0  0  0  0  0  0  0  0  0
  146.8929   73.2082  221.9287 H   0  0  0  0  0  0  0  0  0  0  0  0
  145.7448   71.2977  218.2899 H   0  0  0  0  0  0  0  0  0  0  0  0
  142.8690   73.4377  217.6823 H   0  0  0  0  0  0  0  0  0  0  0  0
  143.7794   71.9702  217.1539 H   0  0  0  0  0  0  0  0  0  0  0  0
  141.8926   70.8288  217.6951 H   0  0  0  0  0  0  0  0  0  0  0  0
  142.4329   71.0680  219.4058 H   0  0  0  0  0  0  0  0  0  0  0  0
  140.1840   72.4120  218.0130 H   0  0  0  0  0  0  0  0  0  0  0  0
  137.8090   75.9052  221.8676 H   0  0  0  0  0  0  0  0  0  0  0  0
  138.6304   76.2218  223.4551 H   0  0  0  0  0  0  0  0  0  0  0  0
  138.2659   78.1620  221.1267 H   0  0  0  0  0  0  0  0  0  0  0  0
  137.5588   78.2686  222.7779 H   0  0  0  0  0  0  0  0  0  0  0  0
  138.5518   80.2921  223.6281 H   0  0  0  0  0  0  0  0  0  0  0  0
  140.6149   81.4879  224.3715 H   0  0  0  0  0  0  0  0  0  0  0  0
  142.8662   80.5815  223.7832 H   0  0  0  0  0  0  0  0  0  0  0  0
  143.0621   78.4722  222.4645 H   0  0  0  0  0  0  0  0  0  0  0  0
  140.9591   77.1866  220.4468 H   0  0  0  0  0  0  0  0  0  0  0  0
  141.9640   76.4172  221.7435 H   0  0  0  0  0  0  0  0  0  0  0  0
  137.9582   70.9794  223.8383 H   0  0  0  0  0  0  0  0  0  0  0  0
  138.6609   70.1227  222.4034 H   0  0  0  0  0  0  0  0  0  0  0  0
  138.2126   68.6260  224.3835 H   0  0  0  0  0  0  0  0  0  0  0  0
  139.9221   68.6357  223.8224 H   0  0  0  0  0  0  0  0  0  0  0  0
  138.5354   68.0553  226.6976 H   0  0  0  0  0  0  0  0  0  0  0  0
  139.3013   68.7812  228.9602 H   0  0  0  0  0  0  0  0  0  0  0  0
  140.8044   70.7609  229.1961 H   0  0  0  0  0  0  0  0  0  0  0  0
  141.5459   72.0178  227.1708 H   0  0  0  0  0  0  0  0  0  0  0  0
  141.0393   72.5645  224.8122 H   0  0  0  0  0  0  0  0  0  0  0  0
  141.8628   71.0380  224.2552 H   0  0  0  0  0  0  0  0  0  0  0  0
  143.0479   74.1160  220.1773 H   0  0  0  0  0  0  0  0  0  0  0  0
  1  2  2  0
  2  3  1  0
  3  4  2  0
  4  5  1  0
  5  6  1  0
  6  7  1  0
  7  8  1  0
  8  9  1  0
  9 10  2  0
 10 11  1  0
 11 12  1  0
 12 13  1  0
 13 14  1  0
 14 15  1  0
 15 16  2  0
 16 17  1  0
 17 18  2  0
 18 19  1  0
 19 20  2  0
 20 21  1  0
 11 22  2  0
 22 23  1  0
 23 24  1  0
 24 25  1  0
 25 26  1  0
 26 27  1  0
 27 28  2  0
 28 29  1  0
 29 30  2  0
 30 31  1  0
 31 32  2  0
 32 33  1  0
 23 34  2  0
  5 35  2  0
 35  1  1  0
 34  9  1  0
 21 12  1  0
 33 24  1  0
 20 15  1  0
 32 27  1  0
  1 36  1  0
  2 37  1  0
  4 38  1  0
  6 39  1  0
  6 40  1  0
  7 41  1  0
  7 42  1  0
  8 43  1  0
 13 44  1  0
 13 45  1  0
 14 46  1  0
 14 47  1  0
 16 48  1  0
 17 49  1  0
 18 50  1  0
 19 51  1  0
 21 52  1  0
 21 53  1  0
 25 54  1  0
 25 55  1  0
 26 56  1  0
 26 57  1  0
 28 58  1  0
 29 59  1  0
 30 60  1  0
 31 61  1  0
 33 62  1  0
 33 63  1  0
 35 64  1  0
M  END
>  <UniqueID>  (60) 
595

>  <SMILES>  (60) 
c1cncc(CCNc2nc(N3CCc4ccccc4C3)nc(N3CCc4ccccc4C3)n2)c1

>  <Energy>  (60) 
73.69619201064873

>  <Genealogy>  (60) 
c1cncc(CCNc2nc(N3CCc4ccccc4C3)nc(N3CCc4ccccc4C3)n2)c1 (3D coordinates assigned)
c1cncc(CCNc2nc(N3CCc4ccccc4C3)nc(N3CCc4ccccc4C3)n2)c1 (nonaromatic ring conformer: 73.69619201064873 kcal/mol)

>  <smiles>  (60) 
c1cncc(CCNc2nc(N3CCc4ccccc4C3)nc(N3CCc4ccccc4C3)n2)c1

>  <score_type>  (60) 
oracle

>  <origin>  (60) 
autodockgpu

>  <m_score__min__energy>  (60) 
-10.68

>  <m_primary>  (60) 
energy

>  <meeko>  (60) 
{"free_energy": -9.98, "intermolecular_energy": -11.77, "internal_energy": -1.22, "cluster_size": 10, "cluster_id": 2, "rank_in_cluster": 5}

>  <energy>  (60) 
-8.12

>  <cluster_rmsd>  (60) 
1.58

>  <rmsd>  (60) 
268.95

>  <cluster>  (60) 
2

$$$$
RCQFLYQWKFFJSS-SREBMQDQNA-N
     RDKit          3D

 64 69  0  0  0  0  0  0  0  0999 V2000
  141.0550   70.9510  228.2600 C   0  0  0  0  0  0  0  0  0  0  0  0
  140.9390   69.5630  228.3370 C   0  0  0  0  0  0  0  0  0  0  0  0
  140.7230   68.8320  227.2090 N   0  0  0  0  0  0  0  0  0  0  0  0
  140.6070   69.4200  225.9850 C   0  0  0  0  0  0  0  0  0  0  0  0
  140.7230   70.8150  225.8590 C   0  0  0  0  0  0  0  0  0  0  0  0
  140.6020   71.4810  224.5100 C   0  0  0  0  0  0  0  0  0  0  0  0
  139.1380   71.4940  224.0370 C   0  0  0  0  0  0  0  0  0  0  0  0
  139.0180   72.0660  222.6930 N   0  0  0  0  0  0  0  0  0  0  0  0
  140.1060   72.7280  222.0360 C   0  0  0  0  0  0  0  0  0  0  0  0
  141.1050   71.9930  221.4840 N   0  0  0  0  0  0  0  0  0  0  0  0
  142.1380   72.6050  220.8460 C   0  0  0  0  0  0  0  0  0  0  0  0
  143.1720   71.8280  220.2140 N   0  0  0  0  0  0  0  0  0  0  0  0
  144.5660   72.3130  220.2520 C   0  0  0  0  0  0  0  0  0  0  0  0
  145.4440   71.6180  219.2080 C   0  0  0  0  0  0  0  0  0  0  0  0
  145.2710   70.1320  219.3030 C   0  0  0  0  0  0  0  0  0  0  0  0
  146.3630   69.2580  219.1740 C   0  0  0  0  0  0  0  0  0  0  0  0
  146.1640   67.8750  219.2430 C   0  0  0  0  0  0  0  0  0  0  0  0
  144.8760   67.3600  219.4150 C   0  0  0  0  0  0  0  0  0  0  0  0
  143.7830   68.2250  219.5240 C   0  0  0  0  0  0  0  0  0  0  0  0
  143.9770   69.6150  219.4820 C   0  0  0  0  0  0  0  0  0  0  0  0
  142.8080   70.5620  219.5470 C   0  0  0  0  0  0  0  0  0  0  0  0
  142.1810   73.9630  220.7990 N   0  0  0  0  0  0  0  0  0  0  0  0
  141.1990   74.7090  221.3660 C   0  0  0  0  0  0  0  0  0  0  0  0
  141.2830   76.1480  221.3620 N   0  0  0  0  0  0  0  0  0  0  0  0
  141.9110   76.8230  220.2130 C   0  0  0  0  0  0  0  0  0  0  0  0
  141.4640   78.2790  220.1010 C   0  0  0  0  0  0  0  0  0  0  0  0
  141.6810   78.9810  221.4070 C   0  0  0  0  0  0  0  0  0  0  0  0
  142.1070   80.3190  221.4400 C   0  0  0  0  0  0  0  0  0  0  0  0
  142.2930   80.9660  222.6650 C   0  0  0  0  0  0  0  0  0  0  0  0
  142.0350   80.2890  223.8610 C   0  0  0  0  0  0  0  0  0  0  0  0
  141.5910   78.9620  223.8330 C   0  0  0  0  0  0  0  0  0  0  0  0
  141.4170   78.2980  222.6080 C   0  0  0  0  0  0  0  0  0  0  0  0
  140.8840   76.8860  222.5780 C   0  0  0  0  0  0  0  0  0  0  0  0
  140.1560   74.0830  221.9720 N   0  0  0  0  0  0  0  0  0  0  0  0
  140.9520   71.5780  227.0160 C   0  0  0  0  0  0  0  0  0  0  0  0
  141.2258   71.5456  229.1695 H   0  0  0  0  0  0  0  0  0  0  0  0
  141.0222   69.0583  229.3108 H   0  0  0  0  0  0  0  0  0  0  0  0
  140.4222   68.8017  225.0942 H   0  0  0  0  0  0  0  0  0  0  0  0
  140.9661   72.5163  224.5849 H   0  0  0  0  0  0  0  0  0  0  0  0
  141.2028   70.9158  223.7823 H   0  0  0  0  0  0  0  0  0  0  0  0
  138.7568   70.4623  224.0227 H   0  0  0  0  0  0  0  0  0  0  0  0
  138.5539   72.1149  224.7322 H   0  0  0  0  0  0  0  0  0  0  0  0
  138.0590   72.1770  222.2920 H   0  0  0  0  0  0  0  0  0  0  0  0
  144.5708   73.3954  220.0562 H   0  0  0  0  0  0  0  0  0  0  0  0
  144.9774   72.0866  221.2467 H   0  0  0  0  0  0  0  0  0  0  0  0
  145.1518   71.9556  218.2027 H   0  0  0  0  0  0  0  0  0  0  0  0
  146.4979   71.8724  219.3941 H   0  0  0  0  0  0  0  0  0  0  0  0
  147.3747   69.6610  219.0187 H   0  0  0  0  0  0  0  0  0  0  0  0
  147.0223   67.1919  219.1618 H   0  0  0  0  0  0  0  0  0  0  0  0
  144.7220   66.2720  219.4647 H   0  0  0  0  0  0  0  0  0  0  0  0
  142.7689   67.8157  219.6429 H   0  0  0  0  0  0  0  0  0  0  0  0
  142.4691   70.7819  218.5239 H   0  0  0  0  0  0  0  0  0  0  0  0
  142.0082   70.0826  220.1306 H   0  0  0  0  0  0  0  0  0  0  0  0
  143.0037   76.7938  220.3358 H   0  0  0  0  0  0  0  0  0  0  0  0
  141.6036   76.2981  219.2965 H   0  0  0  0  0  0  0  0  0  0  0  0
  142.0486   78.7806  219.3157 H   0  0  0  0  0  0  0  0  0  0  0  0
  140.3944   78.3109  219.8460 H   0  0  0  0  0  0  0  0  0  0  0  0
  142.2946   80.8587  220.5001 H   0  0  0  0  0  0  0  0  0  0  0  0
  142.6427   82.0087  222.6882 H   0  0  0  0  0  0  0  0  0  0  0  0
  142.1811   80.7996  224.8243 H   0  0  0  0  0  0  0  0  0  0  0  0
  141.3773   78.4365  224.7754 H   0  0  0  0  0  0  0  0  0  0  0  0
  141.2669   76.3473  223.4573 H   0  0  0  0  0  0  0  0  0  0  0  0
  139.7857   76.9470  222.5824 H   0  0  0  0  0  0  0  0  0  0  0  0
  141.0504   72.6711  226.9423 H   0  0  0  0  0  0  0  0  0  0  0  0
  1  2  2  0
  2  3  1  0
  3  4  2  0
  4  5  1  0
  5  6  1  0
  6  7  1  0
  7  8  1  0
  8  9  1  0
  9 10  2  0
 10 11  1  0
 11 12  1  0
 12 13  1  0
 13 14  1  0
 14 15  1  0
 15 16  2  0
 16 17  1  0
 17 18  2  0
 18 19  1  0
 19 20  2  0
 20 21  1  0
 11 22  2  0
 22 23  1  0
 23 24  1  0
 24 25  1  0
 25 26  1  0
 26 27  1  0
 27 28  2  0
 28 29  1  0
 29 30  2  0
 30 31  1  0
 31 32  2  0
 32 33  1  0
 23 34  2  0
  5 35  2  0
 35  1  1  0
 34  9  1  0
 21 12  1  0
 33 24  1  0
 20 15  1  0
 32 27  1  0
  1 36  1  0
  2 37  1  0
  4 38  1  0
  6 39  1  0
  6 40  1  0
  7 41  1  0
  7 42  1  0
  8 43  1  0
 13 44  1  0
 13 45  1  0
 14 46  1  0
 14 47  1  0
 16 48  1  0
 17 49  1  0
 18 50  1  0
 19 51  1  0
 21 52  1  0
 21 53  1  0
 25 54  1  0
 25 55  1  0
 26 56  1  0
 26 57  1  0
 28 58  1  0
 29 59  1  0
 30 60  1  0
 31 61  1  0
 33 62  1  0
 33 63  1  0
 35 64  1  0
M  END
>  <UniqueID>  (61) 
596

>  <SMILES>  (61) 
c1cncc(CCNc2nc(N3CCc4ccccc4C3)nc(N3CCc4ccccc4C3)n2)c1

>  <Energy>  (61) 
74.35336836705626

>  <Genealogy>  (61) 
c1cncc(CCNc2nc(N3CCc4ccccc4C3)nc(N3CCc4ccccc4C3)n2)c1 (3D coordinates assigned)
c1cncc(CCNc2nc(N3CCc4ccccc4C3)nc(N3CCc4ccccc4C3)n2)c1 (nonaromatic ring conformer: 74.35336836705626 kcal/mol)

>  <smiles>  (61) 
c1cncc(CCNc2nc(N3CCc4ccccc4C3)nc(N3CCc4ccccc4C3)n2)c1

>  <score_type>  (61) 
oracle

>  <origin>  (61) 
autodockgpu

>  <m_score__min__energy>  (61) 
-10.68

>  <m_primary>  (61) 
energy

>  <meeko>  (61) 
{"free_energy": -10.68, "intermolecular_energy": -12.47, "internal_energy": -0.93, "cluster_size": 10, "cluster_id": 1, "rank_in_cluster": 1}

>  <energy>  (61) 
-10.68

>  <cluster_rmsd>  (61) 
0.0

>  <rmsd>  (61) 
269.53

>  <cluster>  (61) 
1

$$$$
RCQFLYQWKFFJSS-SREBMQDQNA-N
     RDKit          3D

 64 69  0  0  0  0  0  0  0  0999 V2000
  146.3000   72.8270  221.0310 C   0  0  0  0  0  0  0  0  0  0  0  0
  145.8510   74.1330  221.2270 C   0  0  0  0  0  0  0  0  0  0  0  0
  144.9020   74.6590  220.4040 N   0  0  0  0  0  0  0  0  0  0  0  0
  144.3710   73.9440  219.3730 C   0  0  0  0  0  0  0  0  0  0  0  0
  144.7880   72.6220  219.1420 C   0  0  0  0  0  0  0  0  0  0  0  0
  144.2050   71.8150  218.0080 C   0  0  0  0  0  0  0  0  0  0  0  0
  142.9630   71.0370  218.4760 C   0  0  0  0  0  0  0  0  0  0  0  0
  141.7880   71.9080  218.5570 N   0  0  0  0  0  0  0  0  0  0  0  0
  141.4060   72.5790  219.7650 C   0  0  0  0  0  0  0  0  0  0  0  0
  140.8630   71.8690  220.7860 N   0  0  0  0  0  0  0  0  0  0  0  0
  140.5060   72.4890  221.9420 C   0  0  0  0  0  0  0  0  0  0  0  0
  139.9790   71.7310  223.0470 N   0  0  0  0  0  0  0  0  0  0  0  0
  138.7930   70.8760  222.8350 C   0  0  0  0  0  0  0  0  0  0  0  0
  138.1250   70.4850  224.1560 C   0  0  0  0  0  0  0  0  0  0  0  0
  139.1520   69.9460  225.1070 C   0  0  0  0  0  0  0  0  0  0  0  0
  138.8800   68.8410  225.9290 C   0  0  0  0  0  0  0  0  0  0  0  0
  139.8500   68.3790  226.8240 C   0  0  0  0  0  0  0  0  0  0  0  0
  141.0830   69.0320  226.9190 C   0  0  0  0  0  0  0  0  0  0  0  0
  141.3520   70.1440  226.1170 C   0  0  0  0  0  0  0  0  0  0  0  0
  140.3920   70.5990  225.1980 C   0  0  0  0  0  0  0  0  0  0  0  0
  140.6420   71.8260  224.3620 C   0  0  0  0  0  0  0  0  0  0  0  0
  140.6640   73.8340  222.0530 N   0  0  0  0  0  0  0  0  0  0  0  0
  141.1870   74.5580  221.0300 C   0  0  0  0  0  0  0  0  0  0  0  0
  141.2950   75.9930  221.1340 N   0  0  0  0  0  0  0  0  0  0  0  0
  142.0140   76.7310  220.0810 C   0  0  0  0  0  0  0  0  0  0  0  0
  141.6010   78.2010  220.0420 C   0  0  0  0  0  0  0  0  0  0  0  0
  141.7370   78.8060  221.4070 C   0  0  0  0  0  0  0  0  0  0  0  0
  142.1820   80.1290  221.5640 C   0  0  0  0  0  0  0  0  0  0  0  0
  142.2910   80.6850  222.8420 C   0  0  0  0  0  0  0  0  0  0  0  0
  141.9380   79.9320  223.9650 C   0  0  0  0  0  0  0  0  0  0  0  0
  141.4750   78.6200  223.8130 C   0  0  0  0  0  0  0  0  0  0  0  0
  141.3770   78.0470  222.5350 C   0  0  0  0  0  0  0  0  0  0  0  0
  140.8240   76.6520  222.3680 C   0  0  0  0  0  0  0  0  0  0  0  0
  141.5680   73.9210  219.8920 N   0  0  0  0  0  0  0  0  0  0  0  0
  145.7620   72.0670  219.9890 C   0  0  0  0  0  0  0  0  0  0  0  0
  147.0700   72.3996  221.6901 H   0  0  0  0  0  0  0  0  0  0  0  0
  146.2639   74.7387  222.0472 H   0  0  0  0  0  0  0  0  0  0  0  0
  143.6140   74.4026  218.7198 H   0  0  0  0  0  0  0  0  0  0  0  0
  143.9190   72.4942  217.1913 H   0  0  0  0  0  0  0  0  0  0  0  0
  144.9617   71.0965  217.6599 H   0  0  0  0  0  0  0  0  0  0  0  0
  142.7587   70.2254  217.7622 H   0  0  0  0  0  0  0  0  0  0  0  0
  143.1646   70.6322  219.4787 H   0  0  0  0  0  0  0  0  0  0  0  0
  141.0960   71.8720  217.7740 H   0  0  0  0  0  0  0  0  0  0  0  0
  138.0658   71.4239  222.2177 H   0  0  0  0  0  0  0  0  0  0  0  0
  139.1238   69.9536  222.3352 H   0  0  0  0  0  0  0  0  0  0  0  0
  137.6468   71.3709  224.5992 H   0  0  0  0  0  0  0  0  0  0  0  0
  137.3675   69.7108  223.9638 H   0  0  0  0  0  0  0  0  0  0  0  0
  137.9034   68.3384  225.8690 H   0  0  0  0  0  0  0  0  0  0  0  0
  139.6430   67.5012  227.4538 H   0  0  0  0  0  0  0  0  0  0  0  0
  141.8429   68.6693  227.6268 H   0  0  0  0  0  0  0  0  0  0  0  0
  142.3173   70.6641  226.2054 H   0  0  0  0  0  0  0  0  0  0  0  0
  140.2536   72.7064  224.8949 H   0  0  0  0  0  0  0  0  0  0  0  0
  141.7257   71.9143  224.1956 H   0  0  0  0  0  0  0  0  0  0  0  0
  143.0948   76.6690  220.2762 H   0  0  0  0  0  0  0  0  0  0  0  0
  141.7632   76.2775  219.1107 H   0  0  0  0  0  0  0  0  0  0  0  0
  142.2482   78.7430  219.3368 H   0  0  0  0  0  0  0  0  0  0  0  0
  140.5528   78.2740  219.7165 H   0  0  0  0  0  0  0  0  0  0  0  0
  142.4451   80.7285  220.6800 H   0  0  0  0  0  0  0  0  0  0  0  0
  142.6549   81.7159  222.9637 H   0  0  0  0  0  0  0  0  0  0  0  0
  142.0242   80.3711  224.9699 H   0  0  0  0  0  0  0  0  0  0  0  0
  141.1866   78.0351  224.6988 H   0  0  0  0  0  0  0  0  0  0  0  0
  141.1351   76.0451  223.2311 H   0  0  0  0  0  0  0  0  0  0  0  0
  139.7293   76.7359  222.3010 H   0  0  0  0  0  0  0  0  0  0  0  0
  146.1016   71.0326  219.8316 H   0  0  0  0  0  0  0  0  0  0  0  0
  1  2  2  0
  2  3  1  0
  3  4  2  0
  4  5  1  0
  5  6  1  0
  6  7  1  0
  7  8  1  0
  8  9  1  0
  9 10  2  0
 10 11  1  0
 11 12  1  0
 12 13  1  0
 13 14  1  0
 14 15  1  0
 15 16  2  0
 16 17  1  0
 17 18  2  0
 18 19  1  0
 19 20  2  0
 20 21  1  0
 11 22  2  0
 22 23  1  0
 23 24  1  0
 24 25  1  0
 25 26  1  0
 26 27  1  0
 27 28  2  0
 28 29  1  0
 29 30  2  0
 30 31  1  0
 31 32  2  0
 32 33  1  0
 23 34  2  0
  5 35  2  0
 35  1  1  0
 34  9  1  0
 21 12  1  0
 33 24  1  0
 20 15  1  0
 32 27  1  0
  1 36  1  0
  2 37  1  0
  4 38  1  0
  6 39  1  0
  6 40  1  0
  7 41  1  0
  7 42  1  0
  8 43  1  0
 13 44  1  0
 13 45  1  0
 14 46  1  0
 14 47  1  0
 16 48  1  0
 17 49  1  0
 18 50  1  0
 19 51  1  0
 21 52  1  0
 21 53  1  0
 25 54  1  0
 25 55  1  0
 26 56  1  0
 26 57  1  0
 28 58  1  0
 29 59  1  0
 30 60  1  0
 31 61  1  0
 33 62  1  0
 33 63  1  0
 35 64  1  0
M  END
>  <UniqueID>  (62) 
596

>  <SMILES>  (62) 
c1cncc(CCNc2nc(N3CCc4ccccc4C3)nc(N3CCc4ccccc4C3)n2)c1

>  <Energy>  (62) 
74.35336836705626

>  <Genealogy>  (62) 
c1cncc(CCNc2nc(N3CCc4ccccc4C3)nc(N3CCc4ccccc4C3)n2)c1 (3D coordinates assigned)
c1cncc(CCNc2nc(N3CCc4ccccc4C3)nc(N3CCc4ccccc4C3)n2)c1 (nonaromatic ring conformer: 74.35336836705626 kcal/mol)

>  <smiles>  (62) 
c1cncc(CCNc2nc(N3CCc4ccccc4C3)nc(N3CCc4ccccc4C3)n2)c1

>  <score_type>  (62) 
oracle

>  <origin>  (62) 
autodockgpu

>  <m_score__min__energy>  (62) 
-10.68

>  <m_primary>  (62) 
energy

>  <meeko>  (62) 
{"free_energy": -9.71, "intermolecular_energy": -11.5, "internal_energy": -1.39, "cluster_size": 10, "cluster_id": 1, "rank_in_cluster": 8}

>  <energy>  (62) 
-10.47

>  <cluster_rmsd>  (62) 
1.96

>  <rmsd>  (62) 
269.34

>  <cluster>  (62) 
1

$$$$
RCQFLYQWKFFJSS-SREBMQDQNA-N
     RDKit          3D

 64 69  0  0  0  0  0  0  0  0999 V2000
  143.3130   76.7070  219.3660 C   0  0  0  0  0  0  0  0  0  0  0  0
  143.1150   76.8160  217.9890 C   0  0  0  0  0  0  0  0  0  0  0  0
  143.2980   75.7320  217.1860 N   0  0  0  0  0  0  0  0  0  0  0  0
  143.6820   74.5240  217.6870 C   0  0  0  0  0  0  0  0  0  0  0  0
  143.8860   74.3660  219.0680 C   0  0  0  0  0  0  0  0  0  0  0  0
  144.3040   73.0330  219.6400 C   0  0  0  0  0  0  0  0  0  0  0  0
  143.4400   71.8980  219.0650 C   0  0  0  0  0  0  0  0  0  0  0  0
  142.0130   72.2230  219.1460 N   0  0  0  0  0  0  0  0  0  0  0  0
  141.3770   72.6120  220.3700 C   0  0  0  0  0  0  0  0  0  0  0  0
  141.0530   73.9140  220.5760 N   0  0  0  0  0  0  0  0  0  0  0  0
  140.4390   74.2970  221.7260 C   0  0  0  0  0  0  0  0  0  0  0  0
  140.0460   75.6680  221.9250 N   0  0  0  0  0  0  0  0  0  0  0  0
  138.6760   75.9660  222.3870 C   0  0  0  0  0  0  0  0  0  0  0  0
  138.2960   77.4300  222.1470 C   0  0  0  0  0  0  0  0  0  0  0  0
  139.3710   78.3300  222.6790 C   0  0  0  0  0  0  0  0  0  0  0  0
  139.0610   79.5220  223.3530 C   0  0  0  0  0  0  0  0  0  0  0  0
  140.0880   80.3530  223.8140 C   0  0  0  0  0  0  0  0  0  0  0  0
  141.4240   80.0100  223.5820 C   0  0  0  0  0  0  0  0  0  0  0  0
  141.7370   78.8350  222.8940 C   0  0  0  0  0  0  0  0  0  0  0  0
  140.7130   77.9830  222.4500 C   0  0  0  0  0  0  0  0  0  0  0  0
  141.0280   76.7380  221.6630 C   0  0  0  0  0  0  0  0  0  0  0  0
  140.1860   73.3700  222.6870 N   0  0  0  0  0  0  0  0  0  0  0  0
  140.5260   72.0680  222.5020 C   0  0  0  0  0  0  0  0  0  0  0  0
  140.3070   71.1020  223.5510 N   0  0  0  0  0  0  0  0  0  0  0  0
  139.1160   70.2370  223.4870 C   0  0  0  0  0  0  0  0  0  0  0  0
  139.2940   68.9700  224.3210 C   0  0  0  0  0  0  0  0  0  0  0  0
  139.7070   69.3310  225.7160 C   0  0  0  0  0  0  0  0  0  0  0  0
  139.2270   68.6030  226.8170 C   0  0  0  0  0  0  0  0  0  0  0  0
  139.6300   68.9420  228.1120 C   0  0  0  0  0  0  0  0  0  0  0  0
  140.5280   69.9940  228.3120 C   0  0  0  0  0  0  0  0  0  0  0  0
  141.0260   70.7090  227.2180 C   0  0  0  0  0  0  0  0  0  0  0  0
  140.6140   70.3870  225.9140 C   0  0  0  0  0  0  0  0  0  0  0  0
  141.1960   71.1220  224.7300 C   0  0  0  0  0  0  0  0  0  0  0  0
  141.1100   71.6940  221.3340 N   0  0  0  0  0  0  0  0  0  0  0  0
  143.6930   75.4760  219.9080 C   0  0  0  0  0  0  0  0  0  0  0  0
  143.1714   77.5812  220.0184 H   0  0  0  0  0  0  0  0  0  0  0  0
  142.8108   77.7786  217.5520 H   0  0  0  0  0  0  0  0  0  0  0  0
  143.8325   73.6712  217.0087 H   0  0  0  0  0  0  0  0  0  0  0  0
  145.3584   72.8469  219.3880 H   0  0  0  0  0  0  0  0  0  0  0  0
  144.1707   73.0598  220.7316 H   0  0  0  0  0  0  0  0  0  0  0  0
  143.7122   71.7389  218.0112 H   0  0  0  0  0  0  0  0  0  0  0  0
  143.6234   70.9882  219.6554 H   0  0  0  0  0  0  0  0  0  0  0  0
  141.4050   71.9630  218.3360 H   0  0  0  0  0  0  0  0  0  0  0  0
  137.9696   75.3218  221.8429 H   0  0  0  0  0  0  0  0  0  0  0  0
  138.6336   75.7768  223.4698 H   0  0  0  0  0  0  0  0  0  0  0  0
  138.1762   77.6035  221.0674 H   0  0  0  0  0  0  0  0  0  0  0  0
  137.3510   77.6486  222.6658 H   0  0  0  0  0  0  0  0  0  0  0  0
  138.0104   79.8027  223.5187 H   0  0  0  0  0  0  0  0  0  0  0  0
  139.8445   81.2768  224.3593 H   0  0  0  0  0  0  0  0  0  0  0  0
  142.2298   80.6666  223.9419 H   0  0  0  0  0  0  0  0  0  0  0  0
  142.7884   78.5767  222.6996 H   0  0  0  0  0  0  0  0  0  0  0  0
  141.0142   76.9806  220.5902 H   0  0  0  0  0  0  0  0  0  0  0  0
  142.0206   76.3776  221.9710 H   0  0  0  0  0  0  0  0  0  0  0  0
  138.2484   70.7958  223.8679 H   0  0  0  0  0  0  0  0  0  0  0  0
  138.9634   69.9397  222.4390 H   0  0  0  0  0  0  0  0  0  0  0  0
  138.3430   68.4182  224.3535 H   0  0  0  0  0  0  0  0  0  0  0  0
  140.0730   68.3421  223.8638 H   0  0  0  0  0  0  0  0  0  0  0  0
  138.5326   67.7644  226.6600 H   0  0  0  0  0  0  0  0  0  0  0  0
  139.2402   68.3805  228.9738 H   0  0  0  0  0  0  0  0  0  0  0  0
  140.8437   70.2601  229.3316 H   0  0  0  0  0  0  0  0  0  0  0  0
  141.7434   71.5271  227.3793 H   0  0  0  0  0  0  0  0  0  0  0  0
  141.3736   72.1685  225.0186 H   0  0  0  0  0  0  0  0  0  0  0  0
  142.1295   70.6121  224.4497 H   0  0  0  0  0  0  0  0  0  0  0  0
  143.8412   75.3759  220.9934 H   0  0  0  0  0  0  0  0  0  0  0  0
  1  2  2  0
  2  3  1  0
  3  4  2  0
  4  5  1  0
  5  6  1  0
  6  7  1  0
  7  8  1  0
  8  9  1  0
  9 10  2  0
 10 11  1  0
 11 12  1  0
 12 13  1  0
 13 14  1  0
 14 15  1  0
 15 16  2  0
 16 17  1  0
 17 18  2  0
 18 19  1  0
 19 20  2  0
 20 21  1  0
 11 22  2  0
 22 23  1  0
 23 24  1  0
 24 25  1  0
 25 26  1  0
 26 27  1  0
 27 28  2  0
 28 29  1  0
 29 30  2  0
 30 31  1  0
 31 32  2  0
 32 33  1  0
 23 34  2  0
  5 35  2  0
 35  1  1  0
 34  9  1  0
 21 12  1  0
 33 24  1  0
 20 15  1  0
 32 27  1  0
  1 36  1  0
  2 37  1  0
  4 38  1  0
  6 39  1  0
  6 40  1  0
  7 41  1  0
  7 42  1  0
  8 43  1  0
 13 44  1  0
 13 45  1  0
 14 46  1  0
 14 47  1  0
 16 48  1  0
 17 49  1  0
 18 50  1  0
 19 51  1  0
 21 52  1  0
 21 53  1  0
 25 54  1  0
 25 55  1  0
 26 56  1  0
 26 57  1  0
 28 58  1  0
 29 59  1  0
 30 60  1  0
 31 61  1  0
 33 62  1  0
 33 63  1  0
 35 64  1  0
M  END
>  <UniqueID>  (63) 
596

>  <SMILES>  (63) 
c1cncc(CCNc2nc(N3CCc4ccccc4C3)nc(N3CCc4ccccc4C3)n2)c1

>  <Energy>  (63) 
74.35336836705626

>  <Genealogy>  (63) 
c1cncc(CCNc2nc(N3CCc4ccccc4C3)nc(N3CCc4ccccc4C3)n2)c1 (3D coordinates assigned)
c1cncc(CCNc2nc(N3CCc4ccccc4C3)nc(N3CCc4ccccc4C3)n2)c1 (nonaromatic ring conformer: 74.35336836705626 kcal/mol)

>  <smiles>  (63) 
c1cncc(CCNc2nc(N3CCc4ccccc4C3)nc(N3CCc4ccccc4C3)n2)c1

>  <score_type>  (63) 
oracle

>  <origin>  (63) 
autodockgpu

>  <m_score__min__energy>  (63) 
-10.68

>  <m_primary>  (63) 
energy

>  <meeko>  (63) 
{"free_energy": -9.33, "intermolecular_energy": -11.12, "internal_energy": -1.54, "cluster_size": 10, "cluster_id": 2, "rank_in_cluster": 7}

>  <energy>  (63) 
-10.43

>  <cluster_rmsd>  (63) 
0.76

>  <rmsd>  (63) 
269.48

>  <cluster>  (63) 
1

$$$$
RCQFLYQWKFFJSS-SREBMQDQNA-N
     RDKit          3D

 64 69  0  0  0  0  0  0  0  0999 V2000
  143.1640   76.8040  219.7070 C   0  0  0  0  0  0  0  0  0  0  0  0
  142.1740   77.7620  219.4860 C   0  0  0  0  0  0  0  0  0  0  0  0
  141.1330   77.4870  218.6530 N   0  0  0  0  0  0  0  0  0  0  0  0
  141.0260   76.2900  218.0100 C   0  0  0  0  0  0  0  0  0  0  0  0
  141.9970   75.2940  218.2070 C   0  0  0  0  0  0  0  0  0  0  0  0
  141.8890   73.9610  217.5070 C   0  0  0  0  0  0  0  0  0  0  0  0
  142.5360   72.8480  218.3500 C   0  0  0  0  0  0  0  0  0  0  0  0
  141.5270   72.0920  219.0970 N   0  0  0  0  0  0  0  0  0  0  0  0
  140.9940   72.5430  220.3490 C   0  0  0  0  0  0  0  0  0  0  0  0
  140.6610   71.6370  221.3030 N   0  0  0  0  0  0  0  0  0  0  0  0
  140.1660   72.0490  222.5000 C   0  0  0  0  0  0  0  0  0  0  0  0
  139.8620   71.0940  223.5340 N   0  0  0  0  0  0  0  0  0  0  0  0
  139.5020   69.7120  223.1570 C   0  0  0  0  0  0  0  0  0  0  0  0
  138.8170   68.9650  224.3050 C   0  0  0  0  0  0  0  0  0  0  0  0
  139.6250   69.1060  225.5610 C   0  0  0  0  0  0  0  0  0  0  0  0
  139.7990   68.0290  226.4450 C   0  0  0  0  0  0  0  0  0  0  0  0
  140.5370   68.2010  227.6210 C   0  0  0  0  0  0  0  0  0  0  0  0
  141.0820   69.4520  227.9290 C   0  0  0  0  0  0  0  0  0  0  0  0
  140.8950   70.5320  227.0620 C   0  0  0  0  0  0  0  0  0  0  0  0
  140.1770   70.3610  225.8670 C   0  0  0  0  0  0  0  0  0  0  0  0
  139.9210   71.5240  224.9450 C   0  0  0  0  0  0  0  0  0  0  0  0
  139.9700   73.3750  222.7190 N   0  0  0  0  0  0  0  0  0  0  0  0
  140.2780   74.2900  221.7640 C   0  0  0  0  0  0  0  0  0  0  0  0
  140.0120   75.6900  221.9820 N   0  0  0  0  0  0  0  0  0  0  0  0
  138.8210   76.2950  221.3610 C   0  0  0  0  0  0  0  0  0  0  0  0
  138.3950   77.5710  222.0830 C   0  0  0  0  0  0  0  0  0  0  0  0
  139.5620   78.5070  222.1960 C   0  0  0  0  0  0  0  0  0  0  0  0
  139.3830   79.8940  222.0680 C   0  0  0  0  0  0  0  0  0  0  0  0
  140.4760   80.7570  222.1880 C   0  0  0  0  0  0  0  0  0  0  0  0
  141.7470   80.2410  222.4560 C   0  0  0  0  0  0  0  0  0  0  0  0
  141.9280   78.8620  222.6050 C   0  0  0  0  0  0  0  0  0  0  0  0
  140.8380   77.9860  222.4690 C   0  0  0  0  0  0  0  0  0  0  0  0
  141.0240   76.5030  222.6860 C   0  0  0  0  0  0  0  0  0  0  0  0
  140.8030   73.8660  220.5840 N   0  0  0  0  0  0  0  0  0  0  0  0
  143.0720   75.5640  219.0700 C   0  0  0  0  0  0  0  0  0  0  0  0
  144.0089   77.0230  220.3764 H   0  0  0  0  0  0  0  0  0  0  0  0
  142.2347   78.7403  219.9853 H   0  0  0  0  0  0  0  0  0  0  0  0
  140.1775   76.1034  217.3353 H   0  0  0  0  0  0  0  0  0  0  0  0
  140.8271   73.7220  217.3479 H   0  0  0  0  0  0  0  0  0  0  0  0
  142.4153   74.0249  216.5432 H   0  0  0  0  0  0  0  0  0  0  0  0
  143.0769   72.1612  217.6824 H   0  0  0  0  0  0  0  0  0  0  0  0
  143.2250   73.3135  219.0701 H   0  0  0  0  0  0  0  0  0  0  0  0
  141.3470   71.1020  218.8130 H   0  0  0  0  0  0  0  0  0  0  0  0
  138.8177   69.7453  222.2964 H   0  0  0  0  0  0  0  0  0  0  0  0
  140.4290   69.1752  222.9071 H   0  0  0  0  0  0  0  0  0  0  0  0
  137.8141   69.3867  224.4674 H   0  0  0  0  0  0  0  0  0  0  0  0
  138.7350   67.8993  224.0452 H   0  0  0  0  0  0  0  0  0  0  0  0
  139.3549   67.0498  226.2128 H   0  0  0  0  0  0  0  0  0  0  0  0
  140.6888   67.3521  228.3038 H   0  0  0  0  0  0  0  0  0  0  0  0
  141.6591   69.5860  228.8558 H   0  0  0  0  0  0  0  0  0  0  0  0
  141.3110   71.5181  227.3160 H   0  0  0  0  0  0  0  0  0  0  0  0
  138.9628   71.9910  225.2166 H   0  0  0  0  0  0  0  0  0  0  0  0
  140.7501   72.2388  225.0532 H   0  0  0  0  0  0  0  0  0  0  0  0
  139.0498   76.5378  220.3128 H   0  0  0  0  0  0  0  0  0  0  0  0
  137.9949   75.5716  221.4265 H   0  0  0  0  0  0  0  0  0  0  0  0
  137.5891   78.0595  221.5156 H   0  0  0  0  0  0  0  0  0  0  0  0
  138.0371   77.3147  223.0911 H   0  0  0  0  0  0  0  0  0  0  0  0
  138.3804   80.3022  221.8728 H   0  0  0  0  0  0  0  0  0  0  0  0
  140.3359   81.8418  222.0716 H   0  0  0  0  0  0  0  0  0  0  0  0
  142.6067   80.9207  222.5499 H   0  0  0  0  0  0  0  0  0  0  0  0
  142.9277   78.4618  222.8295 H   0  0  0  0  0  0  0  0  0  0  0  0
  142.0212   76.2167  222.3203 H   0  0  0  0  0  0  0  0  0  0  0  0
  140.9132   76.3096  223.7632 H   0  0  0  0  0  0  0  0  0  0  0  0
  143.8422   74.7983  219.2444 H   0  0  0  0  0  0  0  0  0  0  0  0
  1  2  2  0
  2  3  1  0
  3  4  2  0
  4  5  1  0
  5  6  1  0
  6  7  1  0
  7  8  1  0
  8  9  1  0
  9 10  2  0
 10 11  1  0
 11 12  1  0
 12 13  1  0
 13 14  1  0
 14 15  1  0
 15 16  2  0
 16 17  1  0
 17 18  2  0
 18 19  1  0
 19 20  2  0
 20 21  1  0
 11 22  2  0
 22 23  1  0
 23 24  1  0
 24 25  1  0
 25 26  1  0
 26 27  1  0
 27 28  2  0
 28 29  1  0
 29 30  2  0
 30 31  1  0
 31 32  2  0
 32 33  1  0
 23 34  2  0
  5 35  2  0
 35  1  1  0
 34  9  1  0
 21 12  1  0
 33 24  1  0
 20 15  1  0
 32 27  1  0
  1 36  1  0
  2 37  1  0
  4 38  1  0
  6 39  1  0
  6 40  1  0
  7 41  1  0
  7 42  1  0
  8 43  1  0
 13 44  1  0
 13 45  1  0
 14 46  1  0
 14 47  1  0
 16 48  1  0
 17 49  1  0
 18 50  1  0
 19 51  1  0
 21 52  1  0
 21 53  1  0
 25 54  1  0
 25 55  1  0
 26 56  1  0
 26 57  1  0
 28 58  1  0
 29 59  1  0
 30 60  1  0
 31 61  1  0
 33 62  1  0
 33 63  1  0
 35 64  1  0
M  END
>  <UniqueID>  (64) 
596

>  <SMILES>  (64) 
c1cncc(CCNc2nc(N3CCc4ccccc4C3)nc(N3CCc4ccccc4C3)n2)c1

>  <Energy>  (64) 
74.35336836705626

>  <Genealogy>  (64) 
c1cncc(CCNc2nc(N3CCc4ccccc4C3)nc(N3CCc4ccccc4C3)n2)c1 (3D coordinates assigned)
c1cncc(CCNc2nc(N3CCc4ccccc4C3)nc(N3CCc4ccccc4C3)n2)c1 (nonaromatic ring conformer: 74.35336836705626 kcal/mol)

>  <smiles>  (64) 
c1cncc(CCNc2nc(N3CCc4ccccc4C3)nc(N3CCc4ccccc4C3)n2)c1

>  <score_type>  (64) 
oracle

>  <origin>  (64) 
autodockgpu

>  <m_score__min__energy>  (64) 
-10.68

>  <m_primary>  (64) 
energy

>  <meeko>  (64) 
{"free_energy": -8.12, "intermolecular_energy": -9.91, "internal_energy": -2.05, "cluster_size": 10, "cluster_id": 2, "rank_in_cluster": 10}

>  <energy>  (64) 
-9.92

>  <cluster_rmsd>  (64) 
1.92

>  <rmsd>  (64) 
269.15

>  <cluster>  (64) 
1

$$$$
RCQFLYQWKFFJSS-SREBMQDQNA-N
     RDKit          3D

 64 69  0  0  0  0  0  0  0  0999 V2000
  144.8930   74.4790  220.4930 C   0  0  0  0  0  0  0  0  0  0  0  0
  146.0140   73.7240  220.8400 C   0  0  0  0  0  0  0  0  0  0  0  0
  146.3080   72.5850  220.1550 N   0  0  0  0  0  0  0  0  0  0  0  0
  145.5280   72.1440  219.1280 C   0  0  0  0  0  0  0  0  0  0  0  0
  144.3920   72.8750  218.7400 C   0  0  0  0  0  0  0  0  0  0  0  0
  143.5220   72.4040  217.6010 C   0  0  0  0  0  0  0  0  0  0  0  0
  142.4710   71.3970  218.0990 C   0  0  0  0  0  0  0  0  0  0  0  0
  141.2010   72.0600  218.4040 N   0  0  0  0  0  0  0  0  0  0  0  0
  140.9510   72.7120  219.6560 C   0  0  0  0  0  0  0  0  0  0  0  0
  140.4690   71.9940  220.7030 N   0  0  0  0  0  0  0  0  0  0  0  0
  140.2380   72.5940  221.9010 C   0  0  0  0  0  0  0  0  0  0  0  0
  139.7770   71.8260  223.0280 N   0  0  0  0  0  0  0  0  0  0  0  0
  138.5580   71.0040  222.8910 C   0  0  0  0  0  0  0  0  0  0  0  0
  137.9830   70.6000  224.2510 C   0  0  0  0  0  0  0  0  0  0  0  0
  139.0650   70.0190  225.1110 C   0  0  0  0  0  0  0  0  0  0  0  0
  138.8290   68.9030  225.9310 C   0  0  0  0  0  0  0  0  0  0  0  0
  139.8530   68.4010  226.7410 C   0  0  0  0  0  0  0  0  0  0  0  0
  141.1050   69.0240  226.7540 C   0  0  0  0  0  0  0  0  0  0  0  0
  141.3390   70.1470  225.9550 C   0  0  0  0  0  0  0  0  0  0  0  0
  140.3240   70.6420  225.1200 C   0  0  0  0  0  0  0  0  0  0  0  0
  140.5400   71.8790  224.2910 C   0  0  0  0  0  0  0  0  0  0  0  0
  140.4580   73.9290  222.0300 N   0  0  0  0  0  0  0  0  0  0  0  0
  140.9200   74.6620  220.9840 C   0  0  0  0  0  0  0  0  0  0  0  0
  141.0940   76.0870  221.1130 N   0  0  0  0  0  0  0  0  0  0  0  0
  141.7880   76.8210  220.0410 C   0  0  0  0  0  0  0  0  0  0  0  0
  141.4350   78.3070  220.0550 C   0  0  0  0  0  0  0  0  0  0  0  0
  141.6670   78.8730  221.4240 C   0  0  0  0  0  0  0  0  0  0  0  0
  142.1750   80.1720  221.5870 C   0  0  0  0  0  0  0  0  0  0  0  0
  142.3730   80.6930  222.8690 C   0  0  0  0  0  0  0  0  0  0  0  0
  142.0480   79.9270  223.9930 C   0  0  0  0  0  0  0  0  0  0  0  0
  141.5230   78.6400  223.8370 C   0  0  0  0  0  0  0  0  0  0  0  0
  141.3350   78.1020  222.5530 C   0  0  0  0  0  0  0  0  0  0  0  0
  140.7150   76.7360  222.3850 C   0  0  0  0  0  0  0  0  0  0  0  0
  141.1760   74.0420  219.8020 N   0  0  0  0  0  0  0  0  0  0  0  0
  144.0830   74.0560  219.4360 C   0  0  0  0  0  0  0  0  0  0  0  0
  144.6494   75.3981  221.0461 H   0  0  0  0  0  0  0  0  0  0  0  0
  146.6609   74.0496  221.6680 H   0  0  0  0  0  0  0  0  0  0  0  0
  145.7882   71.2138  218.6016 H   0  0  0  0  0  0  0  0  0  0  0  0
  143.0099   73.2699  217.1560 H   0  0  0  0  0  0  0  0  0  0  0  0
  144.1578   71.9097  216.8517 H   0  0  0  0  0  0  0  0  0  0  0  0
  142.3018   70.6403  217.3187 H   0  0  0  0  0  0  0  0  0  0  0  0
  142.8481   70.9287  219.0201 H   0  0  0  0  0  0  0  0  0  0  0  0
  140.3860   71.8730  217.7750 H   0  0  0  0  0  0  0  0  0  0  0  0
  137.7997   71.5819  222.3423 H   0  0  0  0  0  0  0  0  0  0  0  0
  138.8269   70.0852  222.3493 H   0  0  0  0  0  0  0  0  0  0  0  0
  137.5604   71.4867  224.7461 H   0  0  0  0  0  0  0  0  0  0  0  0
  137.1957   69.8465  224.1016 H   0  0  0  0  0  0  0  0  0  0  0  0
  137.8388   68.4239  225.9361 H   0  0  0  0  0  0  0  0  0  0  0  0
  139.6733   67.5154  227.3683 H   0  0  0  0  0  0  0  0  0  0  0  0
  141.9076   68.6294  227.3945 H   0  0  0  0  0  0  0  0  0  0  0  0
  142.3200   70.6439  225.9803 H   0  0  0  0  0  0  0  0  0  0  0  0
  140.2146   72.7570  224.8682 H   0  0  0  0  0  0  0  0  0  0  0  0
  141.6099   71.9459  224.0445 H   0  0  0  0  0  0  0  0  0  0  0  0
  142.8738   76.7110  220.1786 H   0  0  0  0  0  0  0  0  0  0  0  0
  141.4690   76.4014  219.0755 H   0  0  0  0  0  0  0  0  0  0  0  0
  142.0667   78.8389  219.3284 H   0  0  0  0  0  0  0  0  0  0  0  0
  140.3754   78.4304  219.7865 H   0  0  0  0  0  0  0  0  0  0  0  0
  142.4177   80.7810  220.7037 H   0  0  0  0  0  0  0  0  0  0  0  0
  142.7844   81.7055  222.9937 H   0  0  0  0  0  0  0  0  0  0  0  0
  142.2055   80.3373  225.0014 H   0  0  0  0  0  0  0  0  0  0  0  0
  141.2561   78.0464  224.7238 H   0  0  0  0  0  0  0  0  0  0  0  0
  141.0435   76.0963  223.2174 H   0  0  0  0  0  0  0  0  0  0  0  0
  139.6229   76.8670  222.3770 H   0  0  0  0  0  0  0  0  0  0  0  0
  143.2020   74.6484  219.1482 H   0  0  0  0  0  0  0  0  0  0  0  0
  1  2  2  0
  2  3  1  0
  3  4  2  0
  4  5  1  0
  5  6  1  0
  6  7  1  0
  7  8  1  0
  8  9  1  0
  9 10  2  0
 10 11  1  0
 11 12  1  0
 12 13  1  0
 13 14  1  0
 14 15  1  0
 15 16  2  0
 16 17  1  0
 17 18  2  0
 18 19  1  0
 19 20  2  0
 20 21  1  0
 11 22  2  0
 22 23  1  0
 23 24  1  0
 24 25  1  0
 25 26  1  0
 26 27  1  0
 27 28  2  0
 28 29  1  0
 29 30  2  0
 30 31  1  0
 31 32  2  0
 32 33  1  0
 23 34  2  0
  5 35  2  0
 35  1  1  0
 34  9  1  0
 21 12  1  0
 33 24  1  0
 20 15  1  0
 32 27  1  0
  1 36  1  0
  2 37  1  0
  4 38  1  0
  6 39  1  0
  6 40  1  0
  7 41  1  0
  7 42  1  0
  8 43  1  0
 13 44  1  0
 13 45  1  0
 14 46  1  0
 14 47  1  0
 16 48  1  0
 17 49  1  0
 18 50  1  0
 19 51  1  0
 21 52  1  0
 21 53  1  0
 25 54  1  0
 25 55  1  0
 26 56  1  0
 26 57  1  0
 28 58  1  0
 29 59  1  0
 30 60  1  0
 31 61  1  0
 33 62  1  0
 33 63  1  0
 35 64  1  0
M  END
>  <UniqueID>  (65) 
596

>  <SMILES>  (65) 
c1cncc(CCNc2nc(N3CCc4ccccc4C3)nc(N3CCc4ccccc4C3)n2)c1

>  <Energy>  (65) 
74.35336836705626

>  <Genealogy>  (65) 
c1cncc(CCNc2nc(N3CCc4ccccc4C3)nc(N3CCc4ccccc4C3)n2)c1 (3D coordinates assigned)
c1cncc(CCNc2nc(N3CCc4ccccc4C3)nc(N3CCc4ccccc4C3)n2)c1 (nonaromatic ring conformer: 74.35336836705626 kcal/mol)

>  <smiles>  (65) 
c1cncc(CCNc2nc(N3CCc4ccccc4C3)nc(N3CCc4ccccc4C3)n2)c1

>  <score_type>  (65) 
oracle

>  <origin>  (65) 
autodockgpu

>  <m_score__min__energy>  (65) 
-10.68

>  <m_primary>  (65) 
energy

>  <meeko>  (65) 
{"free_energy": -9.92, "intermolecular_energy": -11.71, "internal_energy": -1.41, "cluster_size": 10, "cluster_id": 1, "rank_in_cluster": 5}

>  <energy>  (65) 
-9.92

>  <cluster_rmsd>  (65) 
1.93

>  <rmsd>  (65) 
269.12

>  <cluster>  (65) 
1

$$$$
RCQFLYQWKFFJSS-SREBMQDQNA-N
     RDKit          3D

 64 69  0  0  0  0  0  0  0  0999 V2000
  144.9200   74.4870  220.4680 C   0  0  0  0  0  0  0  0  0  0  0  0
  146.1400   73.8100  220.4960 C   0  0  0  0  0  0  0  0  0  0  0  0
  146.3190   72.6960  219.7340 N   0  0  0  0  0  0  0  0  0  0  0  0
  145.3300   72.2060  218.9350 C   0  0  0  0  0  0  0  0  0  0  0  0
  144.0870   72.8590  218.8700 C   0  0  0  0  0  0  0  0  0  0  0  0
  142.9830   72.3330  217.9860 C   0  0  0  0  0  0  0  0  0  0  0  0
  142.5970   70.9000  218.3900 C   0  0  0  0  0  0  0  0  0  0  0  0
  141.2980   70.8700  219.0680 N   0  0  0  0  0  0  0  0  0  0  0  0
  141.0030   71.6870  220.2080 C   0  0  0  0  0  0  0  0  0  0  0  0
  140.5910   71.1060  221.3640 N   0  0  0  0  0  0  0  0  0  0  0  0
  140.3180   71.8660  222.4580 C   0  0  0  0  0  0  0  0  0  0  0  0
  139.9330   71.2490  223.7000 N   0  0  0  0  0  0  0  0  0  0  0  0
  139.1710   69.9840  223.6710 C   0  0  0  0  0  0  0  0  0  0  0  0
  138.4930   69.6930  225.0130 C   0  0  0  0  0  0  0  0  0  0  0  0
  139.4880   69.8260  226.1270 C   0  0  0  0  0  0  0  0  0  0  0  0
  139.5030   68.9290  227.2080 C   0  0  0  0  0  0  0  0  0  0  0  0
  140.4280   69.0970  228.2440 C   0  0  0  0  0  0  0  0  0  0  0  0
  141.3220   70.1720  228.2180 C   0  0  0  0  0  0  0  0  0  0  0  0
  141.2980   71.0790  227.1550 C   0  0  0  0  0  0  0  0  0  0  0  0
  140.3890   70.9040  226.0980 C   0  0  0  0  0  0  0  0  0  0  0  0
  140.3130   71.8980  224.9700 C   0  0  0  0  0  0  0  0  0  0  0  0
  140.4250   73.2180  222.3730 N   0  0  0  0  0  0  0  0  0  0  0  0
  140.8150   73.8120  221.2150 C   0  0  0  0  0  0  0  0  0  0  0  0
  140.8690   75.2500  221.1170 N   0  0  0  0  0  0  0  0  0  0  0  0
  141.3480   75.8620  219.8660 C   0  0  0  0  0  0  0  0  0  0  0  0
  140.8610   77.3020  219.7200 C   0  0  0  0  0  0  0  0  0  0  0  0
  141.2100   78.0850  220.9500 C   0  0  0  0  0  0  0  0  0  0  0  0
  141.6080   79.4290  220.8550 C   0  0  0  0  0  0  0  0  0  0  0  0
  141.9180   80.1520  222.0100 C   0  0  0  0  0  0  0  0  0  0  0  0
  141.8120   79.5450  223.2650 C   0  0  0  0  0  0  0  0  0  0  0  0
  141.3960   78.2130  223.3670 C   0  0  0  0  0  0  0  0  0  0  0  0
  141.0980   77.4730  222.2100 C   0  0  0  0  0  0  0  0  0  0  0  0
  140.5950   76.0540  222.3250 C   0  0  0  0  0  0  0  0  0  0  0  0
  141.1160   73.0380  220.1400 N   0  0  0  0  0  0  0  0  0  0  0  0
  143.8930   74.0130  219.6470 C   0  0  0  0  0  0  0  0  0  0  0  0
  144.7682   75.3844  221.0857 H   0  0  0  0  0  0  0  0  0  0  0  0
  146.9575   74.1766  221.1341 H   0  0  0  0  0  0  0  0  0  0  0  0
  145.5047   71.2976  218.3397 H   0  0  0  0  0  0  0  0  0  0  0  0
  142.1021   72.9847  218.0824 H   0  0  0  0  0  0  0  0  0  0  0  0
  143.3389   72.3226  216.9452 H   0  0  0  0  0  0  0  0  0  0  0  0
  142.5442   70.2748  217.4865 H   0  0  0  0  0  0  0  0  0  0  0  0
  143.3599   70.5172  219.0838 H   0  0  0  0  0  0  0  0  0  0  0  0
  140.6460   70.0840  218.8430 H   0  0  0  0  0  0  0  0  0  0  0  0
  138.3991   70.0520  222.8903 H   0  0  0  0  0  0  0  0  0  0  0  0
  139.8767   69.1665  223.4620 H   0  0  0  0  0  0  0  0  0  0  0  0
  137.6723   70.4084  225.1697 H   0  0  0  0  0  0  0  0  0  0  0  0
  138.0955   68.6674  225.0030 H   0  0  0  0  0  0  0  0  0  0  0  0
  138.7873   68.0943  227.2399 H   0  0  0  0  0  0  0  0  0  0  0  0
  140.4521   68.3826  229.0801 H   0  0  0  0  0  0  0  0  0  0  0  0
  142.0456   70.3040  229.0359 H   0  0  0  0  0  0  0  0  0  0  0  0
  141.9925   71.9320  227.1458 H   0  0  0  0  0  0  0  0  0  0  0  0
  139.5630   72.6634  225.2184 H   0  0  0  0  0  0  0  0  0  0  0  0
  141.3075   72.3502  224.8417 H   0  0  0  0  0  0  0  0  0  0  0  0
  142.4480   75.8556  219.8642 H   0  0  0  0  0  0  0  0  0  0  0  0
  140.9495   75.2778  219.0235 H   0  0  0  0  0  0  0  0  0  0  0  0
  141.3425   77.7631  218.8451 H   0  0  0  0  0  0  0  0  0  0  0  0
  139.7691   77.3037  219.5869 H   0  0  0  0  0  0  0  0  0  0  0  0
  141.6757   79.9131  219.8696 H   0  0  0  0  0  0  0  0  0  0  0  0
  142.2456   81.1992  221.9317 H   0  0  0  0  0  0  0  0  0  0  0  0
  142.0560   80.1154  224.1734 H   0  0  0  0  0  0  0  0  0  0  0  0
  141.3018   77.7430  224.3571 H   0  0  0  0  0  0  0  0  0  0  0  0
  141.0868   75.5754  223.1847 H   0  0  0  0  0  0  0  0  0  0  0  0
  139.5033   76.0989  222.4523 H   0  0  0  0  0  0  0  0  0  0  0  0
  142.9308   74.5447  219.6092 H   0  0  0  0  0  0  0  0  0  0  0  0
  1  2  2  0
  2  3  1  0
  3  4  2  0
  4  5  1  0
  5  6  1  0
  6  7  1  0
  7  8  1  0
  8  9  1  0
  9 10  2  0
 10 11  1  0
 11 12  1  0
 12 13  1  0
 13 14  1  0
 14 15  1  0
 15 16  2  0
 16 17  1  0
 17 18  2  0
 18 19  1  0
 19 20  2  0
 20 21  1  0
 11 22  2  0
 22 23  1  0
 23 24  1  0
 24 25  1  0
 25 26  1  0
 26 27  1  0
 27 28  2  0
 28 29  1  0
 29 30  2  0
 30 31  1  0
 31 32  2  0
 32 33  1  0
 23 34  2  0
  5 35  2  0
 35  1  1  0
 34  9  1  0
 21 12  1  0
 33 24  1  0
 20 15  1  0
 32 27  1  0
  1 36  1  0
  2 37  1  0
  4 38  1  0
  6 39  1  0
  6 40  1  0
  7 41  1  0
  7 42  1  0
  8 43  1  0
 13 44  1  0
 13 45  1  0
 14 46  1  0
 14 47  1  0
 16 48  1  0
 17 49  1  0
 18 50  1  0
 19 51  1  0
 21 52  1  0
 21 53  1  0
 25 54  1  0
 25 55  1  0
 26 56  1  0
 26 57  1  0
 28 58  1  0
 29 59  1  0
 30 60  1  0
 31 61  1  0
 33 62  1  0
 33 63  1  0
 35 64  1  0
M  END
>  <UniqueID>  (66) 
596

>  <SMILES>  (66) 
c1cncc(CCNc2nc(N3CCc4ccccc4C3)nc(N3CCc4ccccc4C3)n2)c1

>  <Energy>  (66) 
74.35336836705626

>  <Genealogy>  (66) 
c1cncc(CCNc2nc(N3CCc4ccccc4C3)nc(N3CCc4ccccc4C3)n2)c1 (3D coordinates assigned)
c1cncc(CCNc2nc(N3CCc4ccccc4C3)nc(N3CCc4ccccc4C3)n2)c1 (nonaromatic ring conformer: 74.35336836705626 kcal/mol)

>  <smiles>  (66) 
c1cncc(CCNc2nc(N3CCc4ccccc4C3)nc(N3CCc4ccccc4C3)n2)c1

>  <score_type>  (66) 
oracle

>  <origin>  (66) 
autodockgpu

>  <m_score__min__energy>  (66) 
-10.68

>  <m_primary>  (66) 
energy

>  <meeko>  (66) 
{"free_energy": -9.69, "intermolecular_energy": -11.48, "internal_energy": -1.41, "cluster_size": 10, "cluster_id": 1, "rank_in_cluster": 9}

>  <energy>  (66) 
-9.75

>  <cluster_rmsd>  (66) 
1.88

>  <rmsd>  (66) 
269.39

>  <cluster>  (66) 
1

$$$$
RCQFLYQWKFFJSS-SREBMQDQNA-N
     RDKit          3D

 64 69  0  0  0  0  0  0  0  0999 V2000
  145.2150   73.6040  221.1090 C   0  0  0  0  0  0  0  0  0  0  0  0
  146.1940   73.7430  220.1250 C   0  0  0  0  0  0  0  0  0  0  0  0
  146.2890   72.8280  219.1230 N   0  0  0  0  0  0  0  0  0  0  0  0
  145.4510   71.7560  219.0480 C   0  0  0  0  0  0  0  0  0  0  0  0
  144.4450   71.5780  220.0130 C   0  0  0  0  0  0  0  0  0  0  0  0
  143.5050   70.4000  219.9410 C   0  0  0  0  0  0  0  0  0  0  0  0
  142.6510   70.4610  218.6640 C   0  0  0  0  0  0  0  0  0  0  0  0
  141.6050   71.4820  218.7700 N   0  0  0  0  0  0  0  0  0  0  0  0
  141.3040   72.1540  220.0000 C   0  0  0  0  0  0  0  0  0  0  0  0
  140.8180   71.4450  221.0510 N   0  0  0  0  0  0  0  0  0  0  0  0
  140.5380   72.0640  222.2290 C   0  0  0  0  0  0  0  0  0  0  0  0
  140.0730   71.3070  223.3610 N   0  0  0  0  0  0  0  0  0  0  0  0
  139.4100   70.0070  223.1370 C   0  0  0  0  0  0  0  0  0  0  0  0
  138.6220   69.5460  224.3660 C   0  0  0  0  0  0  0  0  0  0  0  0
  139.4850   69.6330  225.5890 C   0  0  0  0  0  0  0  0  0  0  0  0
  139.4540   68.6370  226.5800 C   0  0  0  0  0  0  0  0  0  0  0  0
  140.2540   68.7610  227.7210 C   0  0  0  0  0  0  0  0  0  0  0  0
  141.0670   69.8870  227.8890 C   0  0  0  0  0  0  0  0  0  0  0  0
  141.0860   70.8890  226.9150 C   0  0  0  0  0  0  0  0  0  0  0  0
  140.3050   70.7610  225.7550 C   0  0  0  0  0  0  0  0  0  0  0  0
  140.2740   71.8530  224.7190 C   0  0  0  0  0  0  0  0  0  0  0  0
  140.7140   73.4080  222.3330 N   0  0  0  0  0  0  0  0  0  0  0  0
  141.1790   74.1310  221.2810 C   0  0  0  0  0  0  0  0  0  0  0  0
  141.3060   75.5640  221.3820 N   0  0  0  0  0  0  0  0  0  0  0  0
  140.4540   76.2900  222.3400 C   0  0  0  0  0  0  0  0  0  0  0  0
  141.0480   77.6480  222.7060 C   0  0  0  0  0  0  0  0  0  0  0  0
  141.3550   78.4230  221.4600 C   0  0  0  0  0  0  0  0  0  0  0  0
  141.1590   79.8130  221.4140 C   0  0  0  0  0  0  0  0  0  0  0  0
  141.4620   80.5260  220.2500 C   0  0  0  0  0  0  0  0  0  0  0  0
  141.9800   79.8590  219.1360 C   0  0  0  0  0  0  0  0  0  0  0  0
  142.1970   78.4780  219.1840 C   0  0  0  0  0  0  0  0  0  0  0  0
  141.8800   77.7500  220.3430 C   0  0  0  0  0  0  0  0  0  0  0  0
  142.1680   76.2700  220.4120 C   0  0  0  0  0  0  0  0  0  0  0  0
  141.4850   73.4930  220.1210 N   0  0  0  0  0  0  0  0  0  0  0  0
  144.3340   72.5200  221.0490 C   0  0  0  0  0  0  0  0  0  0  0  0
  145.1370   74.3393  221.9234 H   0  0  0  0  0  0  0  0  0  0  0  0
  146.8903   74.5939  220.1594 H   0  0  0  0  0  0  0  0  0  0  0  0
  145.5622   71.0285  218.2305 H   0  0  0  0  0  0  0  0  0  0  0  0
  144.0920   69.4697  219.9383 H   0  0  0  0  0  0  0  0  0  0  0  0
  142.8366   70.4281  220.8142 H   0  0  0  0  0  0  0  0  0  0  0  0
  143.3009   70.7014  217.8097 H   0  0  0  0  0  0  0  0  0  0  0  0
  142.1678   69.4829  218.5229 H   0  0  0  0  0  0  0  0  0  0  0  0
  140.9260   71.5720  217.9810 H   0  0  0  0  0  0  0  0  0  0  0  0
  138.7184   70.1028  222.2870 H   0  0  0  0  0  0  0  0  0  0  0  0
  140.1898   69.2585  222.9329 H   0  0  0  0  0  0  0  0  0  0  0  0
  137.7397   70.1899  224.4959 H   0  0  0  0  0  0  0  0  0  0  0  0
  138.3038   68.5030  224.2213 H   0  0  0  0  0  0  0  0  0  0  0  0
  138.8009   67.7602  226.4586 H   0  0  0  0  0  0  0  0  0  0  0  0
  140.2437   67.9719  228.4872 H   0  0  0  0  0  0  0  0  0  0  0  0
  141.6921   69.9838  228.7889 H   0  0  0  0  0  0  0  0  0  0  0  0
  141.7145   71.7805  227.0574 H   0  0  0  0  0  0  0  0  0  0  0  0
  139.4498   72.5432  224.9521 H   0  0  0  0  0  0  0  0  0  0  0  0
  141.2415   72.3759  224.7404 H   0  0  0  0  0  0  0  0  0  0  0  0
  139.4623   76.4441  221.8897 H   0  0  0  0  0  0  0  0  0  0  0  0
  140.3803   75.6887  223.2582 H   0  0  0  0  0  0  0  0  0  0  0  0
  140.3254   78.2097  223.3162 H   0  0  0  0  0  0  0  0  0  0  0  0
  141.9765   77.4955  223.2757 H   0  0  0  0  0  0  0  0  0  0  0  0
  140.7665   80.3416  222.2952 H   0  0  0  0  0  0  0  0  0  0  0  0
  141.2927   81.6122  220.2108 H   0  0  0  0  0  0  0  0  0  0  0  0
  142.2172   80.4209  218.2206 H   0  0  0  0  0  0  0  0  0  0  0  0
  142.6179   77.9594  218.3100 H   0  0  0  0  0  0  0  0  0  0  0  0
  142.0063   75.8336  219.4153 H   0  0  0  0  0  0  0  0  0  0  0  0
  143.2093   76.1503  220.7456 H   0  0  0  0  0  0  0  0  0  0  0  0
  143.5525   72.4046  221.8145 H   0  0  0  0  0  0  0  0  0  0  0  0
  1  2  2  0
  2  3  1  0
  3  4  2  0
  4  5  1  0
  5  6  1  0
  6  7  1  0
  7  8  1  0
  8  9  1  0
  9 10  2  0
 10 11  1  0
 11 12  1  0
 12 13  1  0
 13 14  1  0
 14 15  1  0
 15 16  2  0
 16 17  1  0
 17 18  2  0
 18 19  1  0
 19 20  2  0
 20 21  1  0
 11 22  2  0
 22 23  1  0
 23 24  1  0
 24 25  1  0
 25 26  1  0
 26 27  1  0
 27 28  2  0
 28 29  1  0
 29 30  2  0
 30 31  1  0
 31 32  2  0
 32 33  1  0
 23 34  2  0
  5 35  2  0
 35  1  1  0
 34  9  1  0
 21 12  1  0
 33 24  1  0
 20 15  1  0
 32 27  1  0
  1 36  1  0
  2 37  1  0
  4 38  1  0
  6 39  1  0
  6 40  1  0
  7 41  1  0
  7 42  1  0
  8 43  1  0
 13 44  1  0
 13 45  1  0
 14 46  1  0
 14 47  1  0
 16 48  1  0
 17 49  1  0
 18 50  1  0
 19 51  1  0
 21 52  1  0
 21 53  1  0
 25 54  1  0
 25 55  1  0
 26 56  1  0
 26 57  1  0
 28 58  1  0
 29 59  1  0
 30 60  1  0
 31 61  1  0
 33 62  1  0
 33 63  1  0
 35 64  1  0
M  END
>  <UniqueID>  (67) 
596

>  <SMILES>  (67) 
c1cncc(CCNc2nc(N3CCc4ccccc4C3)nc(N3CCc4ccccc4C3)n2)c1

>  <Energy>  (67) 
74.35336836705626

>  <Genealogy>  (67) 
c1cncc(CCNc2nc(N3CCc4ccccc4C3)nc(N3CCc4ccccc4C3)n2)c1 (3D coordinates assigned)
c1cncc(CCNc2nc(N3CCc4ccccc4C3)nc(N3CCc4ccccc4C3)n2)c1 (nonaromatic ring conformer: 74.35336836705626 kcal/mol)

>  <smiles>  (67) 
c1cncc(CCNc2nc(N3CCc4ccccc4C3)nc(N3CCc4ccccc4C3)n2)c1

>  <score_type>  (67) 
oracle

>  <origin>  (67) 
autodockgpu

>  <m_score__min__energy>  (67) 
-10.68

>  <m_primary>  (67) 
energy

>  <meeko>  (67) 
{"free_energy": -9.64, "intermolecular_energy": -11.43, "internal_energy": -1.51, "cluster_size": 10, "cluster_id": 1, "rank_in_cluster": 10}

>  <energy>  (67) 
-9.74

>  <cluster_rmsd>  (67) 
1.97

>  <rmsd>  (67) 
269.38

>  <cluster>  (67) 
1

$$$$
RCQFLYQWKFFJSS-SREBMQDQNA-N
     RDKit          3D

 64 69  0  0  0  0  0  0  0  0999 V2000
  144.1580   74.8130  220.0580 C   0  0  0  0  0  0  0  0  0  0  0  0
  145.4770   74.6310  220.4770 C   0  0  0  0  0  0  0  0  0  0  0  0
  145.9610   73.3760  220.6820 N   0  0  0  0  0  0  0  0  0  0  0  0
  145.1870   72.2690  220.4960 C   0  0  0  0  0  0  0  0  0  0  0  0
  143.8550   72.4040  220.0680 C   0  0  0  0  0  0  0  0  0  0  0  0
  142.9870   71.1880  219.8520 C   0  0  0  0  0  0  0  0  0  0  0  0
  142.1200   71.3540  218.5920 C   0  0  0  0  0  0  0  0  0  0  0  0
  140.9450   72.1870  218.8610 N   0  0  0  0  0  0  0  0  0  0  0  0
  140.5970   72.6300  220.1790 C   0  0  0  0  0  0  0  0  0  0  0  0
  140.4200   73.9550  220.4180 N   0  0  0  0  0  0  0  0  0  0  0  0
  140.0780   74.3900  221.6600 C   0  0  0  0  0  0  0  0  0  0  0  0
  139.8380   75.7880  221.9050 N   0  0  0  0  0  0  0  0  0  0  0  0
  138.5540   76.2060  222.5030 C   0  0  0  0  0  0  0  0  0  0  0  0
  138.2920   77.7020  222.3100 C   0  0  0  0  0  0  0  0  0  0  0  0
  139.4940   78.4900  222.7380 C   0  0  0  0  0  0  0  0  0  0  0  0
  139.3650   79.6950  223.4470 C   0  0  0  0  0  0  0  0  0  0  0  0
  140.5060   80.4200  223.8090 C   0  0  0  0  0  0  0  0  0  0  0  0
  141.7740   79.9570  223.4440 C   0  0  0  0  0  0  0  0  0  0  0  0
  141.9070   78.7690  222.7210 C   0  0  0  0  0  0  0  0  0  0  0  0
  140.7680   78.0230  222.3760 C   0  0  0  0  0  0  0  0  0  0  0  0
  140.8860   76.7670  221.5540 C   0  0  0  0  0  0  0  0  0  0  0  0
  139.9530   73.4900  222.6700 N   0  0  0  0  0  0  0  0  0  0  0  0
  140.1500   72.1650  222.4480 C   0  0  0  0  0  0  0  0  0  0  0  0
  140.0730   71.2240  223.5380 N   0  0  0  0  0  0  0  0  0  0  0  0
  138.9380   70.2860  223.5920 C   0  0  0  0  0  0  0  0  0  0  0  0
  139.2590   69.0620  224.4470 C   0  0  0  0  0  0  0  0  0  0  0  0
  139.7510   69.4950  225.7950 C   0  0  0  0  0  0  0  0  0  0  0  0
  139.4020   68.7770  226.9510 C   0  0  0  0  0  0  0  0  0  0  0  0
  139.8780   69.1840  228.2000 C   0  0  0  0  0  0  0  0  0  0  0  0
  140.7210   70.2960  228.2990 C   0  0  0  0  0  0  0  0  0  0  0  0
  141.0880   71.0020  227.1490 C   0  0  0  0  0  0  0  0  0  0  0  0
  140.6010   70.6110  225.8910 C   0  0  0  0  0  0  0  0  0  0  0  0
  141.0440   71.3390  224.6450 C   0  0  0  0  0  0  0  0  0  0  0  0
  140.4590   71.7410  221.1950 N   0  0  0  0  0  0  0  0  0  0  0  0
  143.3470   73.6940  219.8470 C   0  0  0  0  0  0  0  0  0  0  0  0
  143.7610   75.8259  219.8956 H   0  0  0  0  0  0  0  0  0  0  0  0
  146.1262   75.5036  220.6417 H   0  0  0  0  0  0  0  0  0  0  0  0
  145.6056   71.2688  220.6812 H   0  0  0  0  0  0  0  0  0  0  0  0
  143.6291   70.3027  219.7342 H   0  0  0  0  0  0  0  0  0  0  0  0
  142.3254   71.0673  220.7225 H   0  0  0  0  0  0  0  0  0  0  0  0
  142.7220   71.8276  217.8025 H   0  0  0  0  0  0  0  0  0  0  0  0
  141.7751   70.3591  218.2740 H   0  0  0  0  0  0  0  0  0  0  0  0
  140.2310   72.2850  218.1040 H   0  0  0  0  0  0  0  0  0  0  0  0
  137.7398   75.6387  222.0285 H   0  0  0  0  0  0  0  0  0  0  0  0
  138.6011   76.0057  223.5836 H   0  0  0  0  0  0  0  0  0  0  0  0
  138.0839   77.9019  221.2485 H   0  0  0  0  0  0  0  0  0  0  0  0
  137.4272   78.0000  222.9210 H   0  0  0  0  0  0  0  0  0  0  0  0
  138.3668   80.0693  223.7180 H   0  0  0  0  0  0  0  0  0  0  0  0
  140.4053   81.3543  224.3808 H   0  0  0  0  0  0  0  0  0  0  0  0
  142.6694   80.5299  223.7270 H   0  0  0  0  0  0  0  0  0  0  0  0
  142.9053   78.4173  222.4214 H   0  0  0  0  0  0  0  0  0  0  0  0
  140.7900   77.0266  220.4894 H   0  0  0  0  0  0  0  0  0  0  0  0
  141.8658   76.3114  221.7601 H   0  0  0  0  0  0  0  0  0  0  0  0
  138.0678   70.8034  224.0221 H   0  0  0  0  0  0  0  0  0  0  0  0
  138.7260   69.9440  222.5683 H   0  0  0  0  0  0  0  0  0  0  0  0
  138.3505   68.4538  224.5686 H   0  0  0  0  0  0  0  0  0  0  0  0
  140.0406   68.4685  223.9501 H   0  0  0  0  0  0  0  0  0  0  0  0
  138.7526   67.8926  226.8727 H   0  0  0  0  0  0  0  0  0  0  0  0
  139.5899   68.6300  229.1056 H   0  0  0  0  0  0  0  0  0  0  0  0
  141.0956   70.6155  229.2827 H   0  0  0  0  0  0  0  0  0  0  0  0
  141.7615   71.8679  227.2301 H   0  0  0  0  0  0  0  0  0  0  0  0
  141.1750   72.4038  224.8881 H   0  0  0  0  0  0  0  0  0  0  0  0
  141.9845   70.8778  224.3092 H   0  0  0  0  0  0  0  0  0  0  0  0
  142.3090   73.8245  219.5072 H   0  0  0  0  0  0  0  0  0  0  0  0
  1  2  2  0
  2  3  1  0
  3  4  2  0
  4  5  1  0
  5  6  1  0
  6  7  1  0
  7  8  1  0
  8  9  1  0
  9 10  2  0
 10 11  1  0
 11 12  1  0
 12 13  1  0
 13 14  1  0
 14 15  1  0
 15 16  2  0
 16 17  1  0
 17 18  2  0
 18 19  1  0
 19 20  2  0
 20 21  1  0
 11 22  2  0
 22 23  1  0
 23 24  1  0
 24 25  1  0
 25 26  1  0
 26 27  1  0
 27 28  2  0
 28 29  1  0
 29 30  2  0
 30 31  1  0
 31 32  2  0
 32 33  1  0
 23 34  2  0
  5 35  2  0
 35  1  1  0
 34  9  1  0
 21 12  1  0
 33 24  1  0
 20 15  1  0
 32 27  1  0
  1 36  1  0
  2 37  1  0
  4 38  1  0
  6 39  1  0
  6 40  1  0
  7 41  1  0
  7 42  1  0
  8 43  1  0
 13 44  1  0
 13 45  1  0
 14 46  1  0
 14 47  1  0
 16 48  1  0
 17 49  1  0
 18 50  1  0
 19 51  1  0
 21 52  1  0
 21 53  1  0
 25 54  1  0
 25 55  1  0
 26 56  1  0
 26 57  1  0
 28 58  1  0
 29 59  1  0
 30 60  1  0
 31 61  1  0
 33 62  1  0
 33 63  1  0
 35 64  1  0
M  END
>  <UniqueID>  (68) 
596

>  <SMILES>  (68) 
c1cncc(CCNc2nc(N3CCc4ccccc4C3)nc(N3CCc4ccccc4C3)n2)c1

>  <Energy>  (68) 
74.35336836705626

>  <Genealogy>  (68) 
c1cncc(CCNc2nc(N3CCc4ccccc4C3)nc(N3CCc4ccccc4C3)n2)c1 (3D coordinates assigned)
c1cncc(CCNc2nc(N3CCc4ccccc4C3)nc(N3CCc4ccccc4C3)n2)c1 (nonaromatic ring conformer: 74.35336836705626 kcal/mol)

>  <smiles>  (68) 
c1cncc(CCNc2nc(N3CCc4ccccc4C3)nc(N3CCc4ccccc4C3)n2)c1

>  <score_type>  (68) 
oracle

>  <origin>  (68) 
autodockgpu

>  <m_score__min__energy>  (68) 
-10.68

>  <m_primary>  (68) 
energy

>  <meeko>  (68) 
{"free_energy": -9.74, "intermolecular_energy": -11.53, "internal_energy": -1.16, "cluster_size": 10, "cluster_id": 1, "rank_in_cluster": 7}

>  <energy>  (68) 
-9.71

>  <cluster_rmsd>  (68) 
1.8

>  <rmsd>  (68) 
269.29

>  <cluster>  (68) 
1

$$$$
RCQFLYQWKFFJSS-SREBMQDQNA-N
     RDKit          3D

 64 69  0  0  0  0  0  0  0  0999 V2000
  145.4790   74.1040  221.0800 C   0  0  0  0  0  0  0  0  0  0  0  0
  146.3340   73.0540  220.7410 C   0  0  0  0  0  0  0  0  0  0  0  0
  146.1140   72.3350  219.6060 N   0  0  0  0  0  0  0  0  0  0  0  0
  145.0660   72.6050  218.7780 C   0  0  0  0  0  0  0  0  0  0  0  0
  144.1840   73.6560  219.0760 C   0  0  0  0  0  0  0  0  0  0  0  0
  143.0220   73.9710  218.1650 C   0  0  0  0  0  0  0  0  0  0  0  0
  142.1210   72.7380  217.9850 C   0  0  0  0  0  0  0  0  0  0  0  0
  140.7540   73.0060  218.4410 N   0  0  0  0  0  0  0  0  0  0  0  0
  140.4520   73.4050  219.7840 C   0  0  0  0  0  0  0  0  0  0  0  0
  140.1320   72.4650  220.7090 N   0  0  0  0  0  0  0  0  0  0  0  0
  139.8550   72.8260  221.9900 C   0  0  0  0  0  0  0  0  0  0  0  0
  139.5670   71.8270  222.9860 N   0  0  0  0  0  0  0  0  0  0  0  0
  138.5770   70.7730  222.6860 C   0  0  0  0  0  0  0  0  0  0  0  0
  138.0880   70.0680  223.9540 C   0  0  0  0  0  0  0  0  0  0  0  0
  139.2610   69.6390  224.7850 C   0  0  0  0  0  0  0  0  0  0  0  0
  139.2780   68.3990  225.4430 C   0  0  0  0  0  0  0  0  0  0  0  0
  140.3770   68.0400  226.2310 C   0  0  0  0  0  0  0  0  0  0  0  0
  141.4480   68.9260  226.3840 C   0  0  0  0  0  0  0  0  0  0  0  0
  141.4270   70.1700  225.7470 C   0  0  0  0  0  0  0  0  0  0  0  0
  140.3390   70.5270  224.9340 C   0  0  0  0  0  0  0  0  0  0  0  0
  140.2740   71.8820  224.2810 C   0  0  0  0  0  0  0  0  0  0  0  0
  139.8640   74.1420  222.3280 N   0  0  0  0  0  0  0  0  0  0  0  0
  140.1610   75.0940  221.4060 C   0  0  0  0  0  0  0  0  0  0  0  0
  140.1100   76.4910  221.7590 N   0  0  0  0  0  0  0  0  0  0  0  0
  139.2170   77.3850  221.0020 C   0  0  0  0  0  0  0  0  0  0  0  0
  138.8790   78.6460  221.7950 C   0  0  0  0  0  0  0  0  0  0  0  0
  140.1400   79.3060  222.2660 C   0  0  0  0  0  0  0  0  0  0  0  0
  140.2480   80.7060  222.2980 C   0  0  0  0  0  0  0  0  0  0  0  0
  141.4240   81.3090  222.7520 C   0  0  0  0  0  0  0  0  0  0  0  0
  142.4900   80.5190  223.1940 C   0  0  0  0  0  0  0  0  0  0  0  0
  142.3800   79.1240  223.1840 C   0  0  0  0  0  0  0  0  0  0  0  0
  141.2080   78.5090  222.7140 C   0  0  0  0  0  0  0  0  0  0  0  0
  141.0700   77.0060  222.7560 C   0  0  0  0  0  0  0  0  0  0  0  0
  140.4680   74.7160  220.1370 N   0  0  0  0  0  0  0  0  0  0  0  0
  144.4040   74.4090  220.2410 C   0  0  0  0  0  0  0  0  0  0  0  0
  145.6497   74.6853  221.9981 H   0  0  0  0  0  0  0  0  0  0  0  0
  147.1862   72.8073  221.3914 H   0  0  0  0  0  0  0  0  0  0  0  0
  144.9106   71.9980  217.8739 H   0  0  0  0  0  0  0  0  0  0  0  0
  142.4312   74.7888  218.6033 H   0  0  0  0  0  0  0  0  0  0  0  0
  143.4149   74.2679  217.1814 H   0  0  0  0  0  0  0  0  0  0  0  0
  142.0963   72.4647  216.9198 H   0  0  0  0  0  0  0  0  0  0  0  0
  142.5333   71.9158  218.5883 H   0  0  0  0  0  0  0  0  0  0  0  0
  139.9640   72.6970  217.8290 H   0  0  0  0  0  0  0  0  0  0  0  0
  137.7146   71.2299  222.1786 H   0  0  0  0  0  0  0  0  0  0  0  0
  139.0633   70.0222  222.0458 H   0  0  0  0  0  0  0  0  0  0  0  0
  137.4615   70.7591  224.5369 H   0  0  0  0  0  0  0  0  0  0  0  0
  137.5009   69.1816  223.6717 H   0  0  0  0  0  0  0  0  0  0  0  0
  138.4272   67.7096  225.3390 H   0  0  0  0  0  0  0  0  0  0  0  0
  140.3986   67.0602  226.7305 H   0  0  0  0  0  0  0  0  0  0  0  0
  142.3092   68.6433  227.0072 H   0  0  0  0  0  0  0  0  0  0  0  0
  142.2641   70.8706  225.8827 H   0  0  0  0  0  0  0  0  0  0  0  0
  139.7421   72.5753  224.9491 H   0  0  0  0  0  0  0  0  0  0  0  0
  141.3027   72.2256  224.0975 H   0  0  0  0  0  0  0  0  0  0  0  0
  139.7137   77.6754  220.0645 H   0  0  0  0  0  0  0  0  0  0  0  0
  138.2805   76.8447  220.7996 H   0  0  0  0  0  0  0  0  0  0  0  0
  138.3210   79.3426  221.1520 H   0  0  0  0  0  0  0  0  0  0  0  0
  138.2662   78.3723  222.6665 H   0  0  0  0  0  0  0  0  0  0  0  0
  139.4050   81.3292  221.9649 H   0  0  0  0  0  0  0  0  0  0  0  0
  141.5113   82.4055  222.7617 H   0  0  0  0  0  0  0  0  0  0  0  0
  143.4158   80.9946  223.5498 H   0  0  0  0  0  0  0  0  0  0  0  0
  143.2152   78.5063  223.5459 H   0  0  0  0  0  0  0  0  0  0  0  0
  142.0549   76.5571  222.5600 H   0  0  0  0  0  0  0  0  0  0  0  0
  140.6894   76.7362  223.7522 H   0  0  0  0  0  0  0  0  0  0  0  0
  143.7290   75.2401  220.4933 H   0  0  0  0  0  0  0  0  0  0  0  0
  1  2  2  0
  2  3  1  0
  3  4  2  0
  4  5  1  0
  5  6  1  0
  6  7  1  0
  7  8  1  0
  8  9  1  0
  9 10  2  0
 10 11  1  0
 11 12  1  0
 12 13  1  0
 13 14  1  0
 14 15  1  0
 15 16  2  0
 16 17  1  0
 17 18  2  0
 18 19  1  0
 19 20  2  0
 20 21  1  0
 11 22  2  0
 22 23  1  0
 23 24  1  0
 24 25  1  0
 25 26  1  0
 26 27  1  0
 27 28  2  0
 28 29  1  0
 29 30  2  0
 30 31  1  0
 31 32  2  0
 32 33  1  0
 23 34  2  0
  5 35  2  0
 35  1  1  0
 34  9  1  0
 21 12  1  0
 33 24  1  0
 20 15  1  0
 32 27  1  0
  1 36  1  0
  2 37  1  0
  4 38  1  0
  6 39  1  0
  6 40  1  0
  7 41  1  0
  7 42  1  0
  8 43  1  0
 13 44  1  0
 13 45  1  0
 14 46  1  0
 14 47  1  0
 16 48  1  0
 17 49  1  0
 18 50  1  0
 19 51  1  0
 21 52  1  0
 21 53  1  0
 25 54  1  0
 25 55  1  0
 26 56  1  0
 26 57  1  0
 28 58  1  0
 29 59  1  0
 30 60  1  0
 31 61  1  0
 33 62  1  0
 33 63  1  0
 35 64  1  0
M  END
>  <UniqueID>  (69) 
596

>  <SMILES>  (69) 
c1cncc(CCNc2nc(N3CCc4ccccc4C3)nc(N3CCc4ccccc4C3)n2)c1

>  <Energy>  (69) 
74.35336836705626

>  <Genealogy>  (69) 
c1cncc(CCNc2nc(N3CCc4ccccc4C3)nc(N3CCc4ccccc4C3)n2)c1 (3D coordinates assigned)
c1cncc(CCNc2nc(N3CCc4ccccc4C3)nc(N3CCc4ccccc4C3)n2)c1 (nonaromatic ring conformer: 74.35336836705626 kcal/mol)

>  <smiles>  (69) 
c1cncc(CCNc2nc(N3CCc4ccccc4C3)nc(N3CCc4ccccc4C3)n2)c1

>  <score_type>  (69) 
oracle

>  <origin>  (69) 
autodockgpu

>  <m_score__min__energy>  (69) 
-10.68

>  <m_primary>  (69) 
energy

>  <meeko>  (69) 
{"free_energy": -9.73, "intermolecular_energy": -11.52, "internal_energy": -1.2, "cluster_size": 10, "cluster_id": 2, "rank_in_cluster": 6}

>  <energy>  (69) 
-9.69

>  <cluster_rmsd>  (69) 
1.94

>  <rmsd>  (69) 
269.23

>  <cluster>  (69) 
1

$$$$
RCQFLYQWKFFJSS-SREBMQDQNA-N
     RDKit          3D

 64 69  0  0  0  0  0  0  0  0999 V2000
  144.9600   73.7410  220.8920 C   0  0  0  0  0  0  0  0  0  0  0  0
  145.9910   73.6240  219.9590 C   0  0  0  0  0  0  0  0  0  0  0  0
  145.9630   72.6280  219.0320 N   0  0  0  0  0  0  0  0  0  0  0  0
  144.9480   71.7190  218.9870 C   0  0  0  0  0  0  0  0  0  0  0  0
  143.8860   71.8010  219.9030 C   0  0  0  0  0  0  0  0  0  0  0  0
  142.7520   70.8060  219.8620 C   0  0  0  0  0  0  0  0  0  0  0  0
  141.8360   71.0730  218.6560 C   0  0  0  0  0  0  0  0  0  0  0  0
  140.9990   72.2560  218.8740 N   0  0  0  0  0  0  0  0  0  0  0  0
  140.6360   72.7150  220.1830 C   0  0  0  0  0  0  0  0  0  0  0  0
  140.4800   74.0440  220.4110 N   0  0  0  0  0  0  0  0  0  0  0  0
  140.1240   74.4940  221.6430 C   0  0  0  0  0  0  0  0  0  0  0  0
  139.9060   75.8980  221.8750 N   0  0  0  0  0  0  0  0  0  0  0  0
  138.6100   76.3470  222.4220 C   0  0  0  0  0  0  0  0  0  0  0  0
  138.3890   77.8480  222.2150 C   0  0  0  0  0  0  0  0  0  0  0  0
  139.5910   78.6110  222.6860 C   0  0  0  0  0  0  0  0  0  0  0  0
  139.4630   79.8210  223.3860 C   0  0  0  0  0  0  0  0  0  0  0  0
  140.6050   80.5210  223.7880 C   0  0  0  0  0  0  0  0  0  0  0  0
  141.8760   80.0300  223.4730 C   0  0  0  0  0  0  0  0  0  0  0  0
  142.0090   78.8350  222.7590 C   0  0  0  0  0  0  0  0  0  0  0  0
  140.8670   78.1140  222.3730 C   0  0  0  0  0  0  0  0  0  0  0  0
  140.9880   76.8520  221.5600 C   0  0  0  0  0  0  0  0  0  0  0  0
  139.9640   73.6040  222.6570 N   0  0  0  0  0  0  0  0  0  0  0  0
  140.1400   72.2730  222.4470 C   0  0  0  0  0  0  0  0  0  0  0  0
  140.0250   71.3420  223.5420 N   0  0  0  0  0  0  0  0  0  0  0  0
  138.9070   70.3830  223.5490 C   0  0  0  0  0  0  0  0  0  0  0  0
  139.2070   69.1730  224.4310 C   0  0  0  0  0  0  0  0  0  0  0  0
  139.6220   69.6290  225.7980 C   0  0  0  0  0  0  0  0  0  0  0  0
  139.2290   68.9160  226.9420 C   0  0  0  0  0  0  0  0  0  0  0  0
  139.6340   69.3440  228.2090 C   0  0  0  0  0  0  0  0  0  0  0  0
  140.4500   70.4720  228.3390 C   0  0  0  0  0  0  0  0  0  0  0  0
  140.8620   71.1740  227.2010 C   0  0  0  0  0  0  0  0  0  0  0  0
  140.4460   70.7610  225.9240 C   0  0  0  0  0  0  0  0  0  0  0  0
  140.9370   71.4860  224.6940 C   0  0  0  0  0  0  0  0  0  0  0  0
  140.4630   71.8350  221.2020 N   0  0  0  0  0  0  0  0  0  0  0  0
  143.9020   72.8290  220.8600 C   0  0  0  0  0  0  0  0  0  0  0  0
  144.9800   74.5428  221.6448 H   0  0  0  0  0  0  0  0  0  0  0  0
  146.8277   74.3380  219.9728 H   0  0  0  0  0  0  0  0  0  0  0  0
  144.9606   70.9194  218.2317 H   0  0  0  0  0  0  0  0  0  0  0  0
  143.1661   69.7900  219.7826 H   0  0  0  0  0  0  0  0  0  0  0  0
  142.1604   70.9068  220.7838 H   0  0  0  0  0  0  0  0  0  0  0  0
  142.4575   71.2336  217.7627 H   0  0  0  0  0  0  0  0  0  0  0  0
  141.1776   70.2022  218.5209 H   0  0  0  0  0  0  0  0  0  0  0  0
  140.4850   72.6510  218.0540 H   0  0  0  0  0  0  0  0  0  0  0  0
  137.8020   75.7963  221.9182 H   0  0  0  0  0  0  0  0  0  0  0  0
  138.6114   76.1499  223.5042 H   0  0  0  0  0  0  0  0  0  0  0  0
  138.2257   78.0485  221.1458 H   0  0  0  0  0  0  0  0  0  0  0  0
  137.5086   78.1672  222.7921 H   0  0  0  0  0  0  0  0  0  0  0  0
  138.4641   80.2187  223.6184 H   0  0  0  0  0  0  0  0  0  0  0  0
  140.5034   81.4594  224.3529 H   0  0  0  0  0  0  0  0  0  0  0  0
  142.7724   80.5846  223.7874 H   0  0  0  0  0  0  0  0  0  0  0  0
  143.0096   78.4590  222.4992 H   0  0  0  0  0  0  0  0  0  0  0  0
  140.9377   77.1091  220.4917 H   0  0  0  0  0  0  0  0  0  0  0  0
  141.9491   76.3758  221.8040 H   0  0  0  0  0  0  0  0  0  0  0  0
  138.0068   70.8875  223.9299 H   0  0  0  0  0  0  0  0  0  0  0  0
  138.7534   70.0275  222.5194 H   0  0  0  0  0  0  0  0  0  0  0  0
  138.3051   68.5486  224.5128 H   0  0  0  0  0  0  0  0  0  0  0  0
  140.0233   68.5894  223.9803 H   0  0  0  0  0  0  0  0  0  0  0  0
  138.6010   68.0186  226.8406 H   0  0  0  0  0  0  0  0  0  0  0  0
  139.3107   68.7932  229.1046 H   0  0  0  0  0  0  0  0  0  0  0  0
  140.7683   70.8078  229.3370 H   0  0  0  0  0  0  0  0  0  0  0  0
  141.5145   72.0532  227.3065 H   0  0  0  0  0  0  0  0  0  0  0  0
  141.0357   72.5553  224.9324 H   0  0  0  0  0  0  0  0  0  0  0  0
  141.9017   71.0401  224.4101 H   0  0  0  0  0  0  0  0  0  0  0  0
  143.0799   72.9162  221.5857 H   0  0  0  0  0  0  0  0  0  0  0  0
  1  2  2  0
  2  3  1  0
  3  4  2  0
  4  5  1  0
  5  6  1  0
  6  7  1  0
  7  8  1  0
  8  9  1  0
  9 10  2  0
 10 11  1  0
 11 12  1  0
 12 13  1  0
 13 14  1  0
 14 15  1  0
 15 16  2  0
 16 17  1  0
 17 18  2  0
 18 19  1  0
 19 20  2  0
 20 21  1  0
 11 22  2  0
 22 23  1  0
 23 24  1  0
 24 25  1  0
 25 26  1  0
 26 27  1  0
 27 28  2  0
 28 29  1  0
 29 30  2  0
 30 31  1  0
 31 32  2  0
 32 33  1  0
 23 34  2  0
  5 35  2  0
 35  1  1  0
 34  9  1  0
 21 12  1  0
 33 24  1  0
 20 15  1  0
 32 27  1  0
  1 36  1  0
  2 37  1  0
  4 38  1  0
  6 39  1  0
  6 40  1  0
  7 41  1  0
  7 42  1  0
  8 43  1  0
 13 44  1  0
 13 45  1  0
 14 46  1  0
 14 47  1  0
 16 48  1  0
 17 49  1  0
 18 50  1  0
 19 51  1  0
 21 52  1  0
 21 53  1  0
 25 54  1  0
 25 55  1  0
 26 56  1  0
 26 57  1  0
 28 58  1  0
 29 59  1  0
 30 60  1  0
 31 61  1  0
 33 62  1  0
 33 63  1  0
 35 64  1  0
M  END
>  <UniqueID>  (70) 
596

>  <SMILES>  (70) 
c1cncc(CCNc2nc(N3CCc4ccccc4C3)nc(N3CCc4ccccc4C3)n2)c1

>  <Energy>  (70) 
74.35336836705626

>  <Genealogy>  (70) 
c1cncc(CCNc2nc(N3CCc4ccccc4C3)nc(N3CCc4ccccc4C3)n2)c1 (3D coordinates assigned)
c1cncc(CCNc2nc(N3CCc4ccccc4C3)nc(N3CCc4ccccc4C3)n2)c1 (nonaromatic ring conformer: 74.35336836705626 kcal/mol)

>  <smiles>  (70) 
c1cncc(CCNc2nc(N3CCc4ccccc4C3)nc(N3CCc4ccccc4C3)n2)c1

>  <score_type>  (70) 
oracle

>  <origin>  (70) 
autodockgpu

>  <m_score__min__energy>  (70) 
-10.68

>  <m_primary>  (70) 
energy

>  <meeko>  (70) 
{"free_energy": -10.47, "intermolecular_energy": -12.26, "internal_energy": -1.25, "cluster_size": 10, "cluster_id": 1, "rank_in_cluster": 2}

>  <energy>  (70) 
-9.64

>  <cluster_rmsd>  (70) 
1.9

>  <rmsd>  (70) 
269.12

>  <cluster>  (70) 
1

$$$$
RCQFLYQWKFFJSS-SREBMQDQNA-N
     RDKit          3D

 64 69  0  0  0  0  0  0  0  0999 V2000
  145.0450   74.3070  220.6740 C   0  0  0  0  0  0  0  0  0  0  0  0
  146.1240   73.4540  220.9050 C   0  0  0  0  0  0  0  0  0  0  0  0
  146.3240   72.3730  220.1010 N   0  0  0  0  0  0  0  0  0  0  0  0
  145.4890   72.0870  219.0640 C   0  0  0  0  0  0  0  0  0  0  0  0
  144.3920   72.9220  218.7900 C   0  0  0  0  0  0  0  0  0  0  0  0
  143.4610   72.6210  217.6410 C   0  0  0  0  0  0  0  0  0  0  0  0
  142.4510   71.5280  218.0290 C   0  0  0  0  0  0  0  0  0  0  0  0
  141.1560   72.1070  218.3990 N   0  0  0  0  0  0  0  0  0  0  0  0
  140.9290   72.7470  219.6610 C   0  0  0  0  0  0  0  0  0  0  0  0
  140.4630   72.0210  220.7090 N   0  0  0  0  0  0  0  0  0  0  0  0
  140.2540   72.6110  221.9160 C   0  0  0  0  0  0  0  0  0  0  0  0
  139.8110   71.8330  223.0430 N   0  0  0  0  0  0  0  0  0  0  0  0
  138.5960   71.0040  222.9150 C   0  0  0  0  0  0  0  0  0  0  0  0
  138.0380   70.5890  224.2800 C   0  0  0  0  0  0  0  0  0  0  0  0
  139.1340   70.0100  225.1240 C   0  0  0  0  0  0  0  0  0  0  0  0
  138.9150   68.8880  225.9400 C   0  0  0  0  0  0  0  0  0  0  0  0
  139.9510   68.3880  226.7360 C   0  0  0  0  0  0  0  0  0  0  0  0
  141.1990   69.0180  226.7380 C   0  0  0  0  0  0  0  0  0  0  0  0
  141.4170   70.1470  225.9430 C   0  0  0  0  0  0  0  0  0  0  0  0
  140.3890   70.6400  225.1230 C   0  0  0  0  0  0  0  0  0  0  0  0
  140.5880   71.8840  224.2980 C   0  0  0  0  0  0  0  0  0  0  0  0
  140.4780   73.9440  222.0540 N   0  0  0  0  0  0  0  0  0  0  0  0
  140.9230   74.6850  221.0060 C   0  0  0  0  0  0  0  0  0  0  0  0
  141.1010   76.1100  221.1460 N   0  0  0  0  0  0  0  0  0  0  0  0
  141.7850   76.8510  220.0720 C   0  0  0  0  0  0  0  0  0  0  0  0
  141.4360   78.3370  220.1020 C   0  0  0  0  0  0  0  0  0  0  0  0
  141.6840   78.8910  221.4730 C   0  0  0  0  0  0  0  0  0  0  0  0
  142.1960   80.1880  221.6410 C   0  0  0  0  0  0  0  0  0  0  0  0
  142.4100   80.6980  222.9250 C   0  0  0  0  0  0  0  0  0  0  0  0
  142.0950   79.9240  224.0460 C   0  0  0  0  0  0  0  0  0  0  0  0
  141.5650   78.6390  223.8850 C   0  0  0  0  0  0  0  0  0  0  0  0
  141.3620   78.1120  222.5990 C   0  0  0  0  0  0  0  0  0  0  0  0
  140.7380   76.7480  222.4270 C   0  0  0  0  0  0  0  0  0  0  0  0
  141.1590   74.0760  219.8150 N   0  0  0  0  0  0  0  0  0  0  0  0
  144.1800   74.0430  219.6090 C   0  0  0  0  0  0  0  0  0  0  0  0
  144.8767   75.1786  221.3236 H   0  0  0  0  0  0  0  0  0  0  0  0
  146.8143   73.6546  221.7376 H   0  0  0  0  0  0  0  0  0  0  0  0
  145.6734   71.2005  218.4394 H   0  0  0  0  0  0  0  0  0  0  0  0
  142.9151   73.5366  217.3697 H   0  0  0  0  0  0  0  0  0  0  0  0
  144.0570   72.2639  216.7882 H   0  0  0  0  0  0  0  0  0  0  0  0
  142.3096   70.8508  217.1738 H   0  0  0  0  0  0  0  0  0  0  0  0
  142.8476   70.9809  218.8970 H   0  0  0  0  0  0  0  0  0  0  0  0
  140.3250   71.8620  217.8130 H   0  0  0  0  0  0  0  0  0  0  0  0
  137.8281   71.5799  222.3776 H   0  0  0  0  0  0  0  0  0  0  0  0
  138.8648   70.0897  222.3656 H   0  0  0  0  0  0  0  0  0  0  0  0
  137.6156   71.4704  224.7848 H   0  0  0  0  0  0  0  0  0  0  0  0
  137.2532   69.8319  224.1358 H   0  0  0  0  0  0  0  0  0  0  0  0
  137.9282   68.4021  225.9532 H   0  0  0  0  0  0  0  0  0  0  0  0
  139.7835   67.4983  227.3609 H   0  0  0  0  0  0  0  0  0  0  0  0
  142.0113   68.6244  227.3666 H   0  0  0  0  0  0  0  0  0  0  0  0
  142.3951   70.6500  225.9597 H   0  0  0  0  0  0  0  0  0  0  0  0
  140.2635   72.7567  224.8837 H   0  0  0  0  0  0  0  0  0  0  0  0
  141.6547   71.9593  224.0400 H   0  0  0  0  0  0  0  0  0  0  0  0
  142.8720   76.7373  220.1966 H   0  0  0  0  0  0  0  0  0  0  0  0
  141.4543   76.4400  219.1068 H   0  0  0  0  0  0  0  0  0  0  0  0
  142.0612   78.8734  219.3731 H   0  0  0  0  0  0  0  0  0  0  0  0
  140.3739   78.4652  219.8459 H   0  0  0  0  0  0  0  0  0  0  0  0
  142.4292   80.8041  220.7601 H   0  0  0  0  0  0  0  0  0  0  0  0
  142.8262   81.7081  223.0533 H   0  0  0  0  0  0  0  0  0  0  0  0
  142.2641   80.3258  225.0559 H   0  0  0  0  0  0  0  0  0  0  0  0
  141.3061   78.0388  224.7697 H   0  0  0  0  0  0  0  0  0  0  0  0
  141.0755   76.1008  223.2500 H   0  0  0  0  0  0  0  0  0  0  0  0
  139.6460   76.8803  222.4333 H   0  0  0  0  0  0  0  0  0  0  0  0
  143.3313   74.7144  219.4116 H   0  0  0  0  0  0  0  0  0  0  0  0
  1  2  2  0
  2  3  1  0
  3  4  2  0
  4  5  1  0
  5  6  1  0
  6  7  1  0
  7  8  1  0
  8  9  1  0
  9 10  2  0
 10 11  1  0
 11 12  1  0
 12 13  1  0
 13 14  1  0
 14 15  1  0
 15 16  2  0
 16 17  1  0
 17 18  2  0
 18 19  1  0
 19 20  2  0
 20 21  1  0
 11 22  2  0
 22 23  1  0
 23 24  1  0
 24 25  1  0
 25 26  1  0
 26 27  1  0
 27 28  2  0
 28 29  1  0
 29 30  2  0
 30 31  1  0
 31 32  2  0
 32 33  1  0
 23 34  2  0
  5 35  2  0
 35  1  1  0
 34  9  1  0
 21 12  1  0
 33 24  1  0
 20 15  1  0
 32 27  1  0
  1 36  1  0
  2 37  1  0
  4 38  1  0
  6 39  1  0
  6 40  1  0
  7 41  1  0
  7 42  1  0
  8 43  1  0
 13 44  1  0
 13 45  1  0
 14 46  1  0
 14 47  1  0
 16 48  1  0
 17 49  1  0
 18 50  1  0
 19 51  1  0
 21 52  1  0
 21 53  1  0
 25 54  1  0
 25 55  1  0
 26 56  1  0
 26 57  1  0
 28 58  1  0
 29 59  1  0
 30 60  1  0
 31 61  1  0
 33 62  1  0
 33 63  1  0
 35 64  1  0
M  END
>  <UniqueID>  (71) 
596

>  <SMILES>  (71) 
c1cncc(CCNc2nc(N3CCc4ccccc4C3)nc(N3CCc4ccccc4C3)n2)c1

>  <Energy>  (71) 
74.35336836705626

>  <Genealogy>  (71) 
c1cncc(CCNc2nc(N3CCc4ccccc4C3)nc(N3CCc4ccccc4C3)n2)c1 (3D coordinates assigned)
c1cncc(CCNc2nc(N3CCc4ccccc4C3)nc(N3CCc4ccccc4C3)n2)c1 (nonaromatic ring conformer: 74.35336836705626 kcal/mol)

>  <smiles>  (71) 
c1cncc(CCNc2nc(N3CCc4ccccc4C3)nc(N3CCc4ccccc4C3)n2)c1

>  <score_type>  (71) 
oracle

>  <origin>  (71) 
autodockgpu

>  <m_score__min__energy>  (71) 
-10.68

>  <m_primary>  (71) 
energy

>  <meeko>  (71) 
{"free_energy": -9.92, "intermolecular_energy": -11.71, "internal_energy": -1.43, "cluster_size": 10, "cluster_id": 1, "rank_in_cluster": 4}

>  <energy>  (71) 
-10.59

>  <cluster_rmsd>  (71) 
0.0

>  <rmsd>  (71) 
269.38

>  <cluster>  (71) 
2

$$$$
RCQFLYQWKFFJSS-SREBMQDQNA-N
     RDKit          3D

 64 69  0  0  0  0  0  0  0  0999 V2000
  140.8350   67.4160  227.2130 C   0  0  0  0  0  0  0  0  0  0  0  0
  140.8830   68.1960  228.3690 C   0  0  0  0  0  0  0  0  0  0  0  0
  140.4670   69.4920  228.3350 N   0  0  0  0  0  0  0  0  0  0  0  0
  140.0020   70.0660  227.1900 C   0  0  0  0  0  0  0  0  0  0  0  0
  139.9300   69.3170  226.0040 C   0  0  0  0  0  0  0  0  0  0  0  0
  139.4110   69.9370  224.7290 C   0  0  0  0  0  0  0  0  0  0  0  0
  139.8240   71.4160  224.6350 C   0  0  0  0  0  0  0  0  0  0  0  0
  139.4450   71.9940  223.3430 N   0  0  0  0  0  0  0  0  0  0  0  0
  140.3850   72.6570  222.4880 C   0  0  0  0  0  0  0  0  0  0  0  0
  141.3320   71.9330  221.8400 N   0  0  0  0  0  0  0  0  0  0  0  0
  142.2230   72.5460  221.0160 C   0  0  0  0  0  0  0  0  0  0  0  0
  143.1960   71.7750  220.2860 N   0  0  0  0  0  0  0  0  0  0  0  0
  144.5650   72.3040  220.1290 C   0  0  0  0  0  0  0  0  0  0  0  0
  145.3280   71.5940  219.0070 C   0  0  0  0  0  0  0  0  0  0  0  0
  145.2220   70.1080  219.1780 C   0  0  0  0  0  0  0  0  0  0  0  0
  146.3190   69.2630  218.9430 C   0  0  0  0  0  0  0  0  0  0  0  0
  146.1790   67.8780  219.0860 C   0  0  0  0  0  0  0  0  0  0  0  0
  144.9410   67.3320  219.4410 C   0  0  0  0  0  0  0  0  0  0  0  0
  143.8410   68.1670  219.6570 C   0  0  0  0  0  0  0  0  0  0  0  0
  143.9790   69.5600  219.5390 C   0  0  0  0  0  0  0  0  0  0  0  0
  142.7960   70.4730  219.7180 C   0  0  0  0  0  0  0  0  0  0  0  0
  142.1810   73.8970  220.8770 N   0  0  0  0  0  0  0  0  0  0  0  0
  141.2520   74.6350  221.5380 C   0  0  0  0  0  0  0  0  0  0  0  0
  141.2520   76.0730  221.4300 N   0  0  0  0  0  0  0  0  0  0  0  0
  141.8250   76.6980  220.2250 C   0  0  0  0  0  0  0  0  0  0  0  0
  141.2920   78.1140  220.0170 C   0  0  0  0  0  0  0  0  0  0  0  0
  141.4850   78.9200  221.2670 C   0  0  0  0  0  0  0  0  0  0  0  0
  141.8330   80.2790  221.1970 C   0  0  0  0  0  0  0  0  0  0  0  0
  141.9970   81.0220  222.3690 C   0  0  0  0  0  0  0  0  0  0  0  0
  141.7950   80.4190  223.6140 C   0  0  0  0  0  0  0  0  0  0  0  0
  141.4290   79.0700  223.6890 C   0  0  0  0  0  0  0  0  0  0  0  0
  141.2780   78.3110  222.5170 C   0  0  0  0  0  0  0  0  0  0  0  0
  140.8270   76.8720  222.5970 C   0  0  0  0  0  0  0  0  0  0  0  0
  140.3470   74.0050  222.3320 N   0  0  0  0  0  0  0  0  0  0  0  0
  140.3510   67.9770  226.0280 C   0  0  0  0  0  0  0  0  0  0  0  0
  141.1747   66.3700  227.2342 H   0  0  0  0  0  0  0  0  0  0  0  0
  141.2572   67.7635  229.3086 H   0  0  0  0  0  0  0  0  0  0  0  0
  139.6822   71.1185  227.1945 H   0  0  0  0  0  0  0  0  0  0  0  0
  139.8245   69.3914  223.8680 H   0  0  0  0  0  0  0  0  0  0  0  0
  138.3127   69.8762  224.7283 H   0  0  0  0  0  0  0  0  0  0  0  0
  139.3267   71.9786  225.4388 H   0  0  0  0  0  0  0  0  0  0  0  0
  140.9177   71.4779  224.7354 H   0  0  0  0  0  0  0  0  0  0  0  0
  138.4260   72.1070  223.1370 H   0  0  0  0  0  0  0  0  0  0  0  0
  144.5066   73.3773  219.8951 H   0  0  0  0  0  0  0  0  0  0  0  0
  145.1065   72.1315  221.0708 H   0  0  0  0  0  0  0  0  0  0  0  0
  144.8986   71.8808  218.0358 H   0  0  0  0  0  0  0  0  0  0  0  0
  146.3871   71.8883  219.0470 H   0  0  0  0  0  0  0  0  0  0  0  0
  147.2884   69.6900  218.6465 H   0  0  0  0  0  0  0  0  0  0  0  0
  147.0431   67.2181  218.9191 H   0  0  0  0  0  0  0  0  0  0  0  0
  144.8328   66.2428  219.5504 H   0  0  0  0  0  0  0  0  0  0  0  0
  142.8653   67.7324  219.9199 H   0  0  0  0  0  0  0  0  0  0  0  0
  142.3231   70.6407  218.7391 H   0  0  0  0  0  0  0  0  0  0  0  0
  142.0941   69.9939  220.4164 H   0  0  0  0  0  0  0  0  0  0  0  0
  142.9190   76.7406  220.3312 H   0  0  0  0  0  0  0  0  0  0  0  0
  141.5375   76.0913  219.3536 H   0  0  0  0  0  0  0  0  0  0  0  0
  141.8359   78.5905  219.1880 H   0  0  0  0  0  0  0  0  0  0  0  0
  140.2192   78.0661  219.7786 H   0  0  0  0  0  0  0  0  0  0  0  0
  141.9767   80.7592  220.2179 H   0  0  0  0  0  0  0  0  0  0  0  0
  142.2852   82.0820  222.3120 H   0  0  0  0  0  0  0  0  0  0  0  0
  141.9238   81.0053  224.5358 H   0  0  0  0  0  0  0  0  0  0  0  0
  141.2589   78.6024  224.6700 H   0  0  0  0  0  0  0  0  0  0  0  0
  141.2521   76.4205  223.5056 H   0  0  0  0  0  0  0  0  0  0  0  0
  139.7272   76.8704  222.6165 H   0  0  0  0  0  0  0  0  0  0  0  0
  140.2996   67.3686  225.1130 H   0  0  0  0  0  0  0  0  0  0  0  0
  1  2  2  0
  2  3  1  0
  3  4  2  0
  4  5  1  0
  5  6  1  0
  6  7  1  0
  7  8  1  0
  8  9  1  0
  9 10  2  0
 10 11  1  0
 11 12  1  0
 12 13  1  0
 13 14  1  0
 14 15  1  0
 15 16  2  0
 16 17  1  0
 17 18  2  0
 18 19  1  0
 19 20  2  0
 20 21  1  0
 11 22  2  0
 22 23  1  0
 23 24  1  0
 24 25  1  0
 25 26  1  0
 26 27  1  0
 27 28  2  0
 28 29  1  0
 29 30  2  0
 30 31  1  0
 31 32  2  0
 32 33  1  0
 23 34  2  0
  5 35  2  0
 35  1  1  0
 34  9  1  0
 21 12  1  0
 33 24  1  0
 20 15  1  0
 32 27  1  0
  1 36  1  0
  2 37  1  0
  4 38  1  0
  6 39  1  0
  6 40  1  0
  7 41  1  0
  7 42  1  0
  8 43  1  0
 13 44  1  0
 13 45  1  0
 14 46  1  0
 14 47  1  0
 16 48  1  0
 17 49  1  0
 18 50  1  0
 19 51  1  0
 21 52  1  0
 21 53  1  0
 25 54  1  0
 25 55  1  0
 26 56  1  0
 26 57  1  0
 28 58  1  0
 29 59  1  0
 30 60  1  0
 31 61  1  0
 33 62  1  0
 33 63  1  0
 35 64  1  0
M  END
>  <UniqueID>  (72) 
596

>  <SMILES>  (72) 
c1cncc(CCNc2nc(N3CCc4ccccc4C3)nc(N3CCc4ccccc4C3)n2)c1

>  <Energy>  (72) 
74.35336836705626

>  <Genealogy>  (72) 
c1cncc(CCNc2nc(N3CCc4ccccc4C3)nc(N3CCc4ccccc4C3)n2)c1 (3D coordinates assigned)
c1cncc(CCNc2nc(N3CCc4ccccc4C3)nc(N3CCc4ccccc4C3)n2)c1 (nonaromatic ring conformer: 74.35336836705626 kcal/mol)

>  <smiles>  (72) 
c1cncc(CCNc2nc(N3CCc4ccccc4C3)nc(N3CCc4ccccc4C3)n2)c1

>  <score_type>  (72) 
oracle

>  <origin>  (72) 
autodockgpu

>  <m_score__min__energy>  (72) 
-10.68

>  <m_primary>  (72) 
energy

>  <meeko>  (72) 
{"free_energy": -10.43, "intermolecular_energy": -12.22, "internal_energy": -0.79, "cluster_size": 10, "cluster_id": 1, "rank_in_cluster": 3}

>  <energy>  (72) 
-10.49

>  <cluster_rmsd>  (72) 
0.26

>  <rmsd>  (72) 
269.33

>  <cluster>  (72) 
2

$$$$
RCQFLYQWKFFJSS-SREBMQDQNA-N
     RDKit          3D

 64 69  0  0  0  0  0  0  0  0999 V2000
  145.4820   73.3520  221.1460 C   0  0  0  0  0  0  0  0  0  0  0  0
  145.2140   74.6000  220.5800 C   0  0  0  0  0  0  0  0  0  0  0  0
  144.1490   74.7570  219.7480 N   0  0  0  0  0  0  0  0  0  0  0  0
  143.3240   73.7180  219.4340 C   0  0  0  0  0  0  0  0  0  0  0  0
  143.5520   72.4460  219.9850 C   0  0  0  0  0  0  0  0  0  0  0  0
  142.6440   71.2870  219.6540 C   0  0  0  0  0  0  0  0  0  0  0  0
  141.7650   71.6140  218.4340 C   0  0  0  0  0  0  0  0  0  0  0  0
  140.5740   72.3730  218.8250 N   0  0  0  0  0  0  0  0  0  0  0  0
  140.3470   72.8160  220.1690 C   0  0  0  0  0  0  0  0  0  0  0  0
  140.2660   74.1450  220.4350 N   0  0  0  0  0  0  0  0  0  0  0  0
  140.0400   74.5810  221.7020 C   0  0  0  0  0  0  0  0  0  0  0  0
  139.9010   75.9870  221.9780 N   0  0  0  0  0  0  0  0  0  0  0  0
  138.7030   76.4680  222.6940 C   0  0  0  0  0  0  0  0  0  0  0  0
  138.5090   77.9790  222.5380 C   0  0  0  0  0  0  0  0  0  0  0  0
  139.7870   78.6940  222.8600 C   0  0  0  0  0  0  0  0  0  0  0  0
  139.7910   79.8950  223.5870 C   0  0  0  0  0  0  0  0  0  0  0  0
  140.9990   80.5510  223.8480 C   0  0  0  0  0  0  0  0  0  0  0  0
  142.2010   80.0240  223.3650 C   0  0  0  0  0  0  0  0  0  0  0  0
  142.2000   78.8380  222.6240 C   0  0  0  0  0  0  0  0  0  0  0  0
  140.9950   78.1610  222.3780 C   0  0  0  0  0  0  0  0  0  0  0  0
  140.9670   76.9110  221.5400 C   0  0  0  0  0  0  0  0  0  0  0  0
  139.9320   73.6750  222.7090 N   0  0  0  0  0  0  0  0  0  0  0  0
  140.0320   72.3440  222.4590 C   0  0  0  0  0  0  0  0  0  0  0  0
  139.9760   71.3930  223.5420 N   0  0  0  0  0  0  0  0  0  0  0  0
  138.9140   70.3720  223.5400 C   0  0  0  0  0  0  0  0  0  0  0  0
  139.2860   69.1700  224.4050 C   0  0  0  0  0  0  0  0  0  0  0  0
  139.6800   69.6310  225.7770 C   0  0  0  0  0  0  0  0  0  0  0  0
  139.3320   68.8820  226.9120 C   0  0  0  0  0  0  0  0  0  0  0  0
  139.7170   69.3160  228.1840 C   0  0  0  0  0  0  0  0  0  0  0  0
  140.4670   70.4870  228.3260 C   0  0  0  0  0  0  0  0  0  0  0  0
  140.8340   71.2260  227.1970 C   0  0  0  0  0  0  0  0  0  0  0  0
  140.4380   70.8070  225.9160 C   0  0  0  0  0  0  0  0  0  0  0  0
  140.8820   71.5750  224.6940 C   0  0  0  0  0  0  0  0  0  0  0  0
  140.2270   71.9210  221.1830 N   0  0  0  0  0  0  0  0  0  0  0  0
  144.6440   72.2740  220.8510 C   0  0  0  0  0  0  0  0  0  0  0  0
  146.3436   73.2192  221.8168 H   0  0  0  0  0  0  0  0  0  0  0  0
  145.8648   75.4573  220.8071 H   0  0  0  0  0  0  0  0  0  0  0  0
  142.4786   73.8759  218.7482 H   0  0  0  0  0  0  0  0  0  0  0  0
  143.2566   70.4011  219.4304 H   0  0  0  0  0  0  0  0  0  0  0  0
  141.9910   71.0922  220.5176 H   0  0  0  0  0  0  0  0  0  0  0  0
  142.3513   72.2101  217.7192 H   0  0  0  0  0  0  0  0  0  0  0  0
  141.4396   70.6680  217.9765 H   0  0  0  0  0  0  0  0  0  0  0  0
  139.7740   72.4100  218.1520 H   0  0  0  0  0  0  0  0  0  0  0  0
  137.8182   75.9530  222.2916 H   0  0  0  0  0  0  0  0  0  0  0  0
  138.8372   76.2516  223.7641 H   0  0  0  0  0  0  0  0  0  0  0  0
  138.2164   78.2040  221.5018 H   0  0  0  0  0  0  0  0  0  0  0  0
  137.7218   78.3160  223.2284 H   0  0  0  0  0  0  0  0  0  0  0  0
  138.8443   80.3203  223.9515 H   0  0  0  0  0  0  0  0  0  0  0  0
  141.0032   81.4821  224.4337 H   0  0  0  0  0  0  0  0  0  0  0  0
  143.1491   80.5434  223.5684 H   0  0  0  0  0  0  0  0  0  0  0  0
  143.1457   78.4346  222.2329 H   0  0  0  0  0  0  0  0  0  0  0  0
  140.7899   77.1886  220.4905 H   0  0  0  0  0  0  0  0  0  0  0  0
  141.9341   76.3991  221.6529 H   0  0  0  0  0  0  0  0  0  0  0  0
  137.9882   70.8196  223.9305 H   0  0  0  0  0  0  0  0  0  0  0  0
  138.7764   70.0217  222.5064 H   0  0  0  0  0  0  0  0  0  0  0  0
  138.4215   68.4942  224.4815 H   0  0  0  0  0  0  0  0  0  0  0  0
  140.1325   68.6400  223.9439 H   0  0  0  0  0  0  0  0  0  0  0  0
  138.7554   67.9519  226.8004 H   0  0  0  0  0  0  0  0  0  0  0  0
  139.4296   68.7358  229.0733 H   0  0  0  0  0  0  0  0  0  0  0  0
  140.7690   70.8277  229.3274 H   0  0  0  0  0  0  0  0  0  0  0  0
  141.4356   72.1397  227.3125 H   0  0  0  0  0  0  0  0  0  0  0  0
  140.9192   72.6451  224.9460 H   0  0  0  0  0  0  0  0  0  0  0  0
  141.8699   71.1894  224.4019 H   0  0  0  0  0  0  0  0  0  0  0  0
  144.8399   71.2882  221.2980 H   0  0  0  0  0  0  0  0  0  0  0  0
  1  2  2  0
  2  3  1  0
  3  4  2  0
  4  5  1  0
  5  6  1  0
  6  7  1  0
  7  8  1  0
  8  9  1  0
  9 10  2  0
 10 11  1  0
 11 12  1  0
 12 13  1  0
 13 14  1  0
 14 15  1  0
 15 16  2  0
 16 17  1  0
 17 18  2  0
 18 19  1  0
 19 20  2  0
 20 21  1  0
 11 22  2  0
 22 23  1  0
 23 24  1  0
 24 25  1  0
 25 26  1  0
 26 27  1  0
 27 28  2  0
 28 29  1  0
 29 30  2  0
 30 31  1  0
 31 32  2  0
 32 33  1  0
 23 34  2  0
  5 35  2  0
 35  1  1  0
 34  9  1  0
 21 12  1  0
 33 24  1  0
 20 15  1  0
 32 27  1  0
  1 36  1  0
  2 37  1  0
  4 38  1  0
  6 39  1  0
  6 40  1  0
  7 41  1  0
  7 42  1  0
  8 43  1  0
 13 44  1  0
 13 45  1  0
 14 46  1  0
 14 47  1  0
 16 48  1  0
 17 49  1  0
 18 50  1  0
 19 51  1  0
 21 52  1  0
 21 53  1  0
 25 54  1  0
 25 55  1  0
 26 56  1  0
 26 57  1  0
 28 58  1  0
 29 59  1  0
 30 60  1  0
 31 61  1  0
 33 62  1  0
 33 63  1  0
 35 64  1  0
M  END
>  <UniqueID>  (73) 
596

>  <SMILES>  (73) 
c1cncc(CCNc2nc(N3CCc4ccccc4C3)nc(N3CCc4ccccc4C3)n2)c1

>  <Energy>  (73) 
74.35336836705626

>  <Genealogy>  (73) 
c1cncc(CCNc2nc(N3CCc4ccccc4C3)nc(N3CCc4ccccc4C3)n2)c1 (3D coordinates assigned)
c1cncc(CCNc2nc(N3CCc4ccccc4C3)nc(N3CCc4ccccc4C3)n2)c1 (nonaromatic ring conformer: 74.35336836705626 kcal/mol)

>  <smiles>  (73) 
c1cncc(CCNc2nc(N3CCc4ccccc4C3)nc(N3CCc4ccccc4C3)n2)c1

>  <score_type>  (73) 
oracle

>  <origin>  (73) 
autodockgpu

>  <m_score__min__energy>  (73) 
-10.68

>  <m_primary>  (73) 
energy

>  <meeko>  (73) 
{"free_energy": -9.75, "intermolecular_energy": -11.54, "internal_energy": -1.38, "cluster_size": 10, "cluster_id": 1, "rank_in_cluster": 6}

>  <energy>  (73) 
-10.47

>  <cluster_rmsd>  (73) 
0.27

>  <rmsd>  (73) 
269.32

>  <cluster>  (73) 
2

$$$$
RCQFLYQWKFFJSS-SREBMQDQNA-N
     RDKit          3D

 64 69  0  0  0  0  0  0  0  0999 V2000
  145.1690   74.1500  220.8500 C   0  0  0  0  0  0  0  0  0  0  0  0
  146.2990   73.4240  220.4730 C   0  0  0  0  0  0  0  0  0  0  0  0
  146.2850   72.6840  219.3300 N   0  0  0  0  0  0  0  0  0  0  0  0
  145.1830   72.6200  218.5310 C   0  0  0  0  0  0  0  0  0  0  0  0
  144.0240   73.3400  218.8680 C   0  0  0  0  0  0  0  0  0  0  0  0
  142.7980   73.2850  217.9900 C   0  0  0  0  0  0  0  0  0  0  0  0
  141.9620   72.0320  218.2990 C   0  0  0  0  0  0  0  0  0  0  0  0
  140.6250   72.3890  218.7810 N   0  0  0  0  0  0  0  0  0  0  0  0
  140.3820   72.8480  220.1170 C   0  0  0  0  0  0  0  0  0  0  0  0
  140.3060   74.1810  220.3670 N   0  0  0  0  0  0  0  0  0  0  0  0
  140.0650   74.6320  221.6260 C   0  0  0  0  0  0  0  0  0  0  0  0
  139.9320   76.0420  221.8850 N   0  0  0  0  0  0  0  0  0  0  0  0
  138.6800   76.5510  222.4800 C   0  0  0  0  0  0  0  0  0  0  0  0
  138.5350   78.0650  222.3030 C   0  0  0  0  0  0  0  0  0  0  0  0
  139.7910   78.7540  222.7460 C   0  0  0  0  0  0  0  0  0  0  0  0
  139.7510   79.9580  223.4680 C   0  0  0  0  0  0  0  0  0  0  0  0
  140.9420   80.5880  223.8440 C   0  0  0  0  0  0  0  0  0  0  0  0
  142.1730   80.0330  223.4810 C   0  0  0  0  0  0  0  0  0  0  0  0
  142.2190   78.8450  222.7450 C   0  0  0  0  0  0  0  0  0  0  0  0
  141.0280   78.1930  222.3850 C   0  0  0  0  0  0  0  0  0  0  0  0
  141.0540   76.9410  221.5500 C   0  0  0  0  0  0  0  0  0  0  0  0
  139.9390   73.7380  222.6420 N   0  0  0  0  0  0  0  0  0  0  0  0
  140.0350   72.4030  222.4080 C   0  0  0  0  0  0  0  0  0  0  0  0
  139.9580   71.4650  223.5000 N   0  0  0  0  0  0  0  0  0  0  0  0
  138.9120   70.4290  223.4780 C   0  0  0  0  0  0  0  0  0  0  0  0
  139.2740   69.2430  224.3690 C   0  0  0  0  0  0  0  0  0  0  0  0
  139.6180   69.7260  225.7460 C   0  0  0  0  0  0  0  0  0  0  0  0
  139.2460   68.9850  226.8800 C   0  0  0  0  0  0  0  0  0  0  0  0
  139.5860   69.4400  228.1570 C   0  0  0  0  0  0  0  0  0  0  0  0
  140.3140   70.6240  228.3080 C   0  0  0  0  0  0  0  0  0  0  0  0
  140.7050   71.3550  227.1810 C   0  0  0  0  0  0  0  0  0  0  0  0
  140.3550   70.9140  225.8940 C   0  0  0  0  0  0  0  0  0  0  0  0
  140.8260   71.6740  224.6770 C   0  0  0  0  0  0  0  0  0  0  0  0
  140.2440   71.9650  221.1390 N   0  0  0  0  0  0  0  0  0  0  0  0
  144.0300   74.1120  220.0420 C   0  0  0  0  0  0  0  0  0  0  0  0
  145.1748   74.7464  221.7743 H   0  0  0  0  0  0  0  0  0  0  0  0
  147.2025   73.4494  221.0999 H   0  0  0  0  0  0  0  0  0  0  0  0
  145.2006   72.0034  217.6202 H   0  0  0  0  0  0  0  0  0  0  0  0
  142.1853   74.1808  218.1694 H   0  0  0  0  0  0  0  0  0  0  0  0
  143.1184   73.2451  216.9385 H   0  0  0  0  0  0  0  0  0  0  0  0
  141.8639   71.4318  217.3824 H   0  0  0  0  0  0  0  0  0  0  0  0
  142.4734   71.4592  219.0867 H   0  0  0  0  0  0  0  0  0  0  0  0
  139.8030   72.1040  218.2010 H   0  0  0  0  0  0  0  0  0  0  0  0
  137.8278   76.0534  221.9940 H   0  0  0  0  0  0  0  0  0  0  0  0
  138.7042   76.3357  223.5585 H   0  0  0  0  0  0  0  0  0  0  0  0
  138.3491   78.2920  221.2428 H   0  0  0  0  0  0  0  0  0  0  0  0
  137.6922   78.4216  222.9133 H   0  0  0  0  0  0  0  0  0  0  0  0
  138.7831   80.4056  223.7378 H   0  0  0  0  0  0  0  0  0  0  0  0
  140.9101   81.5210  224.4258 H   0  0  0  0  0  0  0  0  0  0  0  0
  143.1079   80.5324  223.7753 H   0  0  0  0  0  0  0  0  0  0  0  0
  143.1892   78.4204  222.4475 H   0  0  0  0  0  0  0  0  0  0  0  0
  140.9844   77.2186  220.4879 H   0  0  0  0  0  0  0  0  0  0  0  0
  141.9947   76.4092  221.7558 H   0  0  0  0  0  0  0  0  0  0  0  0
  137.9682   70.8676  223.8341 H   0  0  0  0  0  0  0  0  0  0  0  0
  138.8118   70.0643  222.4451 H   0  0  0  0  0  0  0  0  0  0  0  0
  138.4173   68.5554  224.4270 H   0  0  0  0  0  0  0  0  0  0  0  0
  140.1420   68.7200  223.9411 H   0  0  0  0  0  0  0  0  0  0  0  0
  138.6863   68.0453  226.7627 H   0  0  0  0  0  0  0  0  0  0  0  0
  139.2805   68.8659  229.0442 H   0  0  0  0  0  0  0  0  0  0  0  0
  140.5796   70.9812  229.3139 H   0  0  0  0  0  0  0  0  0  0  0  0
  141.2890   72.2791  227.3032 H   0  0  0  0  0  0  0  0  0  0  0  0
  140.8404   72.7474  224.9169 H   0  0  0  0  0  0  0  0  0  0  0  0
  141.8280   71.2997  224.4202 H   0  0  0  0  0  0  0  0  0  0  0  0
  143.1363   74.6874  220.3254 H   0  0  0  0  0  0  0  0  0  0  0  0
  1  2  2  0
  2  3  1  0
  3  4  2  0
  4  5  1  0
  5  6  1  0
  6  7  1  0
  7  8  1  0
  8  9  1  0
  9 10  2  0
 10 11  1  0
 11 12  1  0
 12 13  1  0
 13 14  1  0
 14 15  1  0
 15 16  2  0
 16 17  1  0
 17 18  2  0
 18 19  1  0
 19 20  2  0
 20 21  1  0
 11 22  2  0
 22 23  1  0
 23 24  1  0
 24 25  1  0
 25 26  1  0
 26 27  1  0
 27 28  2  0
 28 29  1  0
 29 30  2  0
 30 31  1  0
 31 32  2  0
 32 33  1  0
 23 34  2  0
  5 35  2  0
 35  1  1  0
 34  9  1  0
 21 12  1  0
 33 24  1  0
 20 15  1  0
 32 27  1  0
  1 36  1  0
  2 37  1  0
  4 38  1  0
  6 39  1  0
  6 40  1  0
  7 41  1  0
  7 42  1  0
  8 43  1  0
 13 44  1  0
 13 45  1  0
 14 46  1  0
 14 47  1  0
 16 48  1  0
 17 49  1  0
 18 50  1  0
 19 51  1  0
 21 52  1  0
 21 53  1  0
 25 54  1  0
 25 55  1  0
 26 56  1  0
 26 57  1  0
 28 58  1  0
 29 59  1  0
 30 60  1  0
 31 61  1  0
 33 62  1  0
 33 63  1  0
 35 64  1  0
M  END
>  <UniqueID>  (74) 
596

>  <SMILES>  (74) 
c1cncc(CCNc2nc(N3CCc4ccccc4C3)nc(N3CCc4ccccc4C3)n2)c1

>  <Energy>  (74) 
74.35336836705626

>  <Genealogy>  (74) 
c1cncc(CCNc2nc(N3CCc4ccccc4C3)nc(N3CCc4ccccc4C3)n2)c1 (3D coordinates assigned)
c1cncc(CCNc2nc(N3CCc4ccccc4C3)nc(N3CCc4ccccc4C3)n2)c1 (nonaromatic ring conformer: 74.35336836705626 kcal/mol)

>  <smiles>  (74) 
c1cncc(CCNc2nc(N3CCc4ccccc4C3)nc(N3CCc4ccccc4C3)n2)c1

>  <score_type>  (74) 
oracle

>  <origin>  (74) 
autodockgpu

>  <m_score__min__energy>  (74) 
-10.68

>  <m_primary>  (74) 
energy

>  <meeko>  (74) 
{"free_energy": -10.49, "intermolecular_energy": -12.28, "internal_energy": -1.21, "cluster_size": 10, "cluster_id": 2, "rank_in_cluster": 2}

>  <energy>  (74) 
-10.34

>  <cluster_rmsd>  (74) 
0.42

>  <rmsd>  (74) 
269.34

>  <cluster>  (74) 
2

$$$$
RCQFLYQWKFFJSS-SREBMQDQNA-N
     RDKit          3D

 64 69  0  0  0  0  0  0  0  0999 V2000
  142.0440   77.3370  217.6540 C   0  0  0  0  0  0  0  0  0  0  0  0
  142.5230   77.8570  218.8560 C   0  0  0  0  0  0  0  0  0  0  0  0
  143.3130   77.0950  219.6620 N   0  0  0  0  0  0  0  0  0  0  0  0
  143.6530   75.8170  219.3330 C   0  0  0  0  0  0  0  0  0  0  0  0
  143.1980   75.2540  218.1280 C   0  0  0  0  0  0  0  0  0  0  0  0
  143.5700   73.8420  217.7460 C   0  0  0  0  0  0  0  0  0  0  0  0
  144.1130   73.0740  218.9630 C   0  0  0  0  0  0  0  0  0  0  0  0
  143.0780   72.2270  219.5630 N   0  0  0  0  0  0  0  0  0  0  0  0
  142.1470   72.7170  220.5360 C   0  0  0  0  0  0  0  0  0  0  0  0
  141.5480   71.8500  221.3910 N   0  0  0  0  0  0  0  0  0  0  0  0
  140.6720   72.3000  222.3270 C   0  0  0  0  0  0  0  0  0  0  0  0
  140.0750   71.3900  223.2700 N   0  0  0  0  0  0  0  0  0  0  0  0
  139.1610   70.3390  222.7790 C   0  0  0  0  0  0  0  0  0  0  0  0
  138.3100   69.7480  223.9060 C   0  0  0  0  0  0  0  0  0  0  0  0
  139.1870   69.3590  225.0590 C   0  0  0  0  0  0  0  0  0  0  0  0
  138.9660   68.1740  225.7790 C   0  0  0  0  0  0  0  0  0  0  0  0
  139.7870   67.8530  226.8660 C   0  0  0  0  0  0  0  0  0  0  0  0
  140.8120   68.7230  227.2510 C   0  0  0  0  0  0  0  0  0  0  0  0
  141.0230   69.9130  226.5490 C   0  0  0  0  0  0  0  0  0  0  0  0
  140.2200   70.2300  225.4410 C   0  0  0  0  0  0  0  0  0  0  0  0
  140.3980   71.5310  224.7040 C   0  0  0  0  0  0  0  0  0  0  0  0
  140.3710   73.6240  222.3750 N   0  0  0  0  0  0  0  0  0  0  0  0
  140.9470   74.4990  221.5110 C   0  0  0  0  0  0  0  0  0  0  0  0
  140.5770   75.8930  221.5300 N   0  0  0  0  0  0  0  0  0  0  0  0
  139.8580   76.4560  220.3750 C   0  0  0  0  0  0  0  0  0  0  0  0
  139.0960   77.7260  220.7490 C   0  0  0  0  0  0  0  0  0  0  0  0
  140.0220   78.6970  221.4180 C   0  0  0  0  0  0  0  0  0  0  0  0
  139.9040   80.0770  221.1840 C   0  0  0  0  0  0  0  0  0  0  0  0
  140.7650   80.9730  221.8250 C   0  0  0  0  0  0  0  0  0  0  0  0
  141.7320   80.4980  222.7160 C   0  0  0  0  0  0  0  0  0  0  0  0
  141.8400   79.1260  222.9680 C   0  0  0  0  0  0  0  0  0  0  0  0
  140.9900   78.2170  222.3170 C   0  0  0  0  0  0  0  0  0  0  0  0
  141.0710   76.7430  222.6330 C   0  0  0  0  0  0  0  0  0  0  0  0
  141.8450   74.0390  220.6010 N   0  0  0  0  0  0  0  0  0  0  0  0
  142.3870   76.0330  217.2860 C   0  0  0  0  0  0  0  0  0  0  0  0
  141.4023   77.9474  217.0016 H   0  0  0  0  0  0  0  0  0  0  0  0
  142.2625   78.8835  219.1533 H   0  0  0  0  0  0  0  0  0  0  0  0
  144.2846   75.2249  220.0116 H   0  0  0  0  0  0  0  0  0  0  0  0
  142.6783   73.3252  217.3615 H   0  0  0  0  0  0  0  0  0  0  0  0
  144.3525   73.8793  216.9738 H   0  0  0  0  0  0  0  0  0  0  0  0
  144.9527   72.4403  218.6414 H   0  0  0  0  0  0  0  0  0  0  0  0
  144.4433   73.8049  219.7158 H   0  0  0  0  0  0  0  0  0  0  0  0
  143.1560   71.1920  219.4330 H   0  0  0  0  0  0  0  0  0  0  0  0
  138.4936   70.7744  222.0207 H   0  0  0  0  0  0  0  0  0  0  0  0
  139.7715   69.5291  222.3532 H   0  0  0  0  0  0  0  0  0  0  0  0
  137.5779   70.4974  224.2414 H   0  0  0  0  0  0  0  0  0  0  0  0
  137.7854   68.8558  223.5334 H   0  0  0  0  0  0  0  0  0  0  0  0
  138.1480   67.4983  225.4889 H   0  0  0  0  0  0  0  0  0  0  0  0
  139.6259   66.9153  227.4181 H   0  0  0  0  0  0  0  0  0  0  0  0
  141.4535   68.4702  228.1081 H   0  0  0  0  0  0  0  0  0  0  0  0
  141.8195   70.6027  226.8649 H   0  0  0  0  0  0  0  0  0  0  0  0
  139.7330   72.2867  225.1474 H   0  0  0  0  0  0  0  0  0  0  0  0
  141.4513   71.8358  224.7919 H   0  0  0  0  0  0  0  0  0  0  0  0
  140.5848   76.6958  219.5849 H   0  0  0  0  0  0  0  0  0  0  0  0
  139.1297   75.7088  220.0267 H   0  0  0  0  0  0  0  0  0  0  0  0
  138.6819   78.1845  219.8389 H   0  0  0  0  0  0  0  0  0  0  0  0
  138.2795   77.4688  221.4397 H   0  0  0  0  0  0  0  0  0  0  0  0
  139.1331   80.4533  220.4955 H   0  0  0  0  0  0  0  0  0  0  0  0
  140.6815   82.0520  221.6282 H   0  0  0  0  0  0  0  0  0  0  0  0
  142.4088   81.2039  223.2196 H   0  0  0  0  0  0  0  0  0  0  0  0
  142.5940   78.7576  223.6792 H   0  0  0  0  0  0  0  0  0  0  0  0
  142.1211   76.4837  222.8333 H   0  0  0  0  0  0  0  0  0  0  0  0
  140.4305   76.5561  223.5076 H   0  0  0  0  0  0  0  0  0  0  0  0
  142.0215   75.6162  216.3359 H   0  0  0  0  0  0  0  0  0  0  0  0
  1  2  2  0
  2  3  1  0
  3  4  2  0
  4  5  1  0
  5  6  1  0
  6  7  1  0
  7  8  1  0
  8  9  1  0
  9 10  2  0
 10 11  1  0
 11 12  1  0
 12 13  1  0
 13 14  1  0
 14 15  1  0
 15 16  2  0
 16 17  1  0
 17 18  2  0
 18 19  1  0
 19 20  2  0
 20 21  1  0
 11 22  2  0
 22 23  1  0
 23 24  1  0
 24 25  1  0
 25 26  1  0
 26 27  1  0
 27 28  2  0
 28 29  1  0
 29 30  2  0
 30 31  1  0
 31 32  2  0
 32 33  1  0
 23 34  2  0
  5 35  2  0
 35  1  1  0
 34  9  1  0
 21 12  1  0
 33 24  1  0
 20 15  1  0
 32 27  1  0
  1 36  1  0
  2 37  1  0
  4 38  1  0
  6 39  1  0
  6 40  1  0
  7 41  1  0
  7 42  1  0
  8 43  1  0
 13 44  1  0
 13 45  1  0
 14 46  1  0
 14 47  1  0
 16 48  1  0
 17 49  1  0
 18 50  1  0
 19 51  1  0
 21 52  1  0
 21 53  1  0
 25 54  1  0
 25 55  1  0
 26 56  1  0
 26 57  1  0
 28 58  1  0
 29 59  1  0
 30 60  1  0
 31 61  1  0
 33 62  1  0
 33 63  1  0
 35 64  1  0
M  END
>  <UniqueID>  (75) 
596

>  <SMILES>  (75) 
c1cncc(CCNc2nc(N3CCc4ccccc4C3)nc(N3CCc4ccccc4C3)n2)c1

>  <Energy>  (75) 
74.35336836705626

>  <Genealogy>  (75) 
c1cncc(CCNc2nc(N3CCc4ccccc4C3)nc(N3CCc4ccccc4C3)n2)c1 (3D coordinates assigned)
c1cncc(CCNc2nc(N3CCc4ccccc4C3)nc(N3CCc4ccccc4C3)n2)c1 (nonaromatic ring conformer: 74.35336836705626 kcal/mol)

>  <smiles>  (75) 
c1cncc(CCNc2nc(N3CCc4ccccc4C3)nc(N3CCc4ccccc4C3)n2)c1

>  <score_type>  (75) 
oracle

>  <origin>  (75) 
autodockgpu

>  <m_score__min__energy>  (75) 
-10.68

>  <m_primary>  (75) 
energy

>  <meeko>  (75) 
{"free_energy": -8.33, "intermolecular_energy": -10.12, "internal_energy": -1.87, "cluster_size": 10, "cluster_id": 2, "rank_in_cluster": 9}

>  <energy>  (75) 
-9.98

>  <cluster_rmsd>  (75) 
0.53

>  <rmsd>  (75) 
269.32

>  <cluster>  (75) 
2

$$$$
RCQFLYQWKFFJSS-SREBMQDQNA-N
     RDKit          3D

 64 69  0  0  0  0  0  0  0  0999 V2000
  142.7410   76.8630  217.5110 C   0  0  0  0  0  0  0  0  0  0  0  0
  142.9960   77.2620  218.8230 C   0  0  0  0  0  0  0  0  0  0  0  0
  143.4540   76.3600  219.7340 N   0  0  0  0  0  0  0  0  0  0  0  0
  143.6690   75.0550  219.4050 C   0  0  0  0  0  0  0  0  0  0  0  0
  143.4310   74.6090  218.0940 C   0  0  0  0  0  0  0  0  0  0  0  0
  143.6700   73.1690  217.7130 C   0  0  0  0  0  0  0  0  0  0  0  0
  143.3040   72.2290  218.8740 C   0  0  0  0  0  0  0  0  0  0  0  0
  141.8560   72.1980  219.0970 N   0  0  0  0  0  0  0  0  0  0  0  0
  141.2560   72.6020  220.3340 C   0  0  0  0  0  0  0  0  0  0  0  0
  140.9570   73.9100  220.5410 N   0  0  0  0  0  0  0  0  0  0  0  0
  140.3770   74.3080  221.7050 C   0  0  0  0  0  0  0  0  0  0  0  0
  140.0120   75.6860  221.9060 N   0  0  0  0  0  0  0  0  0  0  0  0
  138.6590   76.0080  222.4030 C   0  0  0  0  0  0  0  0  0  0  0  0
  138.2960   77.4770  222.1650 C   0  0  0  0  0  0  0  0  0  0  0  0
  139.3990   78.3630  222.6630 C   0  0  0  0  0  0  0  0  0  0  0  0
  139.1260   79.5630  223.3390 C   0  0  0  0  0  0  0  0  0  0  0  0
  140.1780   80.3790  223.7670 C   0  0  0  0  0  0  0  0  0  0  0  0
  141.5010   80.0140  223.5020 C   0  0  0  0  0  0  0  0  0  0  0  0
  141.7780   78.8310  222.8120 C   0  0  0  0  0  0  0  0  0  0  0  0
  140.7280   77.9930  222.4000 C   0  0  0  0  0  0  0  0  0  0  0  0
  141.0030   76.7400  221.6120 C   0  0  0  0  0  0  0  0  0  0  0  0
  140.1330   73.3890  222.6750 N   0  0  0  0  0  0  0  0  0  0  0  0
  140.4470   72.0810  222.4880 C   0  0  0  0  0  0  0  0  0  0  0  0
  140.2380   71.1240  223.5470 N   0  0  0  0  0  0  0  0  0  0  0  0
  139.0620   70.2390  223.4860 C   0  0  0  0  0  0  0  0  0  0  0  0
  139.2560   68.9840  224.3340 C   0  0  0  0  0  0  0  0  0  0  0  0
  139.6540   69.3680  225.7280 C   0  0  0  0  0  0  0  0  0  0  0  0
  139.1790   68.6440  226.8340 C   0  0  0  0  0  0  0  0  0  0  0  0
  139.5690   69.0040  228.1280 C   0  0  0  0  0  0  0  0  0  0  0  0
  140.4490   70.0730  228.3210 C   0  0  0  0  0  0  0  0  0  0  0  0
  140.9410   70.7840  227.2220 C   0  0  0  0  0  0  0  0  0  0  0  0
  140.5430   70.4410  225.9190 C   0  0  0  0  0  0  0  0  0  0  0  0
  141.1190   71.1720  224.7310 C   0  0  0  0  0  0  0  0  0  0  0  0
  140.9970   71.6930  221.3080 N   0  0  0  0  0  0  0  0  0  0  0  0
  142.9650   75.5330  217.1440 C   0  0  0  0  0  0  0  0  0  0  0  0
  142.3674   77.5877  216.7726 H   0  0  0  0  0  0  0  0  0  0  0  0
  142.8268   78.3070  219.1220 H   0  0  0  0  0  0  0  0  0  0  0  0
  144.0297   74.3492  220.1677 H   0  0  0  0  0  0  0  0  0  0  0  0
  143.0511   72.9199  216.8384 H   0  0  0  0  0  0  0  0  0  0  0  0
  144.7365   73.0391  217.4769 H   0  0  0  0  0  0  0  0  0  0  0  0
  143.6518   71.2130  218.6358 H   0  0  0  0  0  0  0  0  0  0  0  0
  143.7885   72.6015  219.7886 H   0  0  0  0  0  0  0  0  0  0  0  0
  141.2660   71.6720  218.4120 H   0  0  0  0  0  0  0  0  0  0  0  0
  137.9283   75.3724  221.8814 H   0  0  0  0  0  0  0  0  0  0  0  0
  138.6424   75.8248  223.4875 H   0  0  0  0  0  0  0  0  0  0  0  0
  138.1501   77.6467  221.0880 H   0  0  0  0  0  0  0  0  0  0  0  0
  137.3689   77.7133  222.7078 H   0  0  0  0  0  0  0  0  0  0  0  0
  138.0849   79.8612  223.5319 H   0  0  0  0  0  0  0  0  0  0  0  0
  139.9640   81.3096  224.3131 H   0  0  0  0  0  0  0  0  0  0  0  0
  142.3260   80.6596  223.8375 H   0  0  0  0  0  0  0  0  0  0  0  0
  142.8197   78.5552  222.5910 H   0  0  0  0  0  0  0  0  0  0  0  0
  140.9642   76.9773  220.5386 H   0  0  0  0  0  0  0  0  0  0  0  0
  141.9980   76.3662  221.8954 H   0  0  0  0  0  0  0  0  0  0  0  0
  138.1834   70.7874  223.8564 H   0  0  0  0  0  0  0  0  0  0  0  0
  138.9202   69.9282  222.4404 H   0  0  0  0  0  0  0  0  0  0  0  0
  138.3143   68.4164  224.3666 H   0  0  0  0  0  0  0  0  0  0  0  0
  140.0479   68.3640  223.8885 H   0  0  0  0  0  0  0  0  0  0  0  0
  138.4993   67.7926  226.6822 H   0  0  0  0  0  0  0  0  0  0  0  0
  139.1833   68.4460  228.9939 H   0  0  0  0  0  0  0  0  0  0  0  0
  140.7549   70.3553  229.3392 H   0  0  0  0  0  0  0  0  0  0  0  0
  141.6432   71.6161  227.3785 H   0  0  0  0  0  0  0  0  0  0  0  0
  141.2771   72.2245  225.0089 H   0  0  0  0  0  0  0  0  0  0  0  0
  142.0625   70.6746  224.4619 H   0  0  0  0  0  0  0  0  0  0  0  0
  142.7761   75.2094  216.1098 H   0  0  0  0  0  0  0  0  0  0  0  0
  1  2  2  0
  2  3  1  0
  3  4  2  0
  4  5  1  0
  5  6  1  0
  6  7  1  0
  7  8  1  0
  8  9  1  0
  9 10  2  0
 10 11  1  0
 11 12  1  0
 12 13  1  0
 13 14  1  0
 14 15  1  0
 15 16  2  0
 16 17  1  0
 17 18  2  0
 18 19  1  0
 19 20  2  0
 20 21  1  0
 11 22  2  0
 22 23  1  0
 23 24  1  0
 24 25  1  0
 25 26  1  0
 26 27  1  0
 27 28  2  0
 28 29  1  0
 29 30  2  0
 30 31  1  0
 31 32  2  0
 32 33  1  0
 23 34  2  0
  5 35  2  0
 35  1  1  0
 34  9  1  0
 21 12  1  0
 33 24  1  0
 20 15  1  0
 32 27  1  0
  1 36  1  0
  2 37  1  0
  4 38  1  0
  6 39  1  0
  6 40  1  0
  7 41  1  0
  7 42  1  0
  8 43  1  0
 13 44  1  0
 13 45  1  0
 14 46  1  0
 14 47  1  0
 16 48  1  0
 17 49  1  0
 18 50  1  0
 19 51  1  0
 21 52  1  0
 21 53  1  0
 25 54  1  0
 25 55  1  0
 26 56  1  0
 26 57  1  0
 28 58  1  0
 29 59  1  0
 30 60  1  0
 31 61  1  0
 33 62  1  0
 33 63  1  0
 35 64  1  0
M  END
>  <UniqueID>  (76) 
596

>  <SMILES>  (76) 
c1cncc(CCNc2nc(N3CCc4ccccc4C3)nc(N3CCc4ccccc4C3)n2)c1

>  <Energy>  (76) 
74.35336836705626

>  <Genealogy>  (76) 
c1cncc(CCNc2nc(N3CCc4ccccc4C3)nc(N3CCc4ccccc4C3)n2)c1 (3D coordinates assigned)
c1cncc(CCNc2nc(N3CCc4ccccc4C3)nc(N3CCc4ccccc4C3)n2)c1 (nonaromatic ring conformer: 74.35336836705626 kcal/mol)

>  <smiles>  (76) 
c1cncc(CCNc2nc(N3CCc4ccccc4C3)nc(N3CCc4ccccc4C3)n2)c1

>  <score_type>  (76) 
oracle

>  <origin>  (76) 
autodockgpu

>  <m_score__min__energy>  (76) 
-10.68

>  <m_primary>  (76) 
energy

>  <meeko>  (76) 
{"free_energy": -9.02, "intermolecular_energy": -10.81, "internal_energy": -1.52, "cluster_size": 10, "cluster_id": 2, "rank_in_cluster": 8}

>  <energy>  (76) 
-9.73

>  <cluster_rmsd>  (76) 
0.96

>  <rmsd>  (76) 
269.1

>  <cluster>  (76) 
2

$$$$
RCQFLYQWKFFJSS-SREBMQDQNA-N
     RDKit          3D

 64 69  0  0  0  0  0  0  0  0999 V2000
  145.2440   73.7580  221.2120 C   0  0  0  0  0  0  0  0  0  0  0  0
  146.3220   73.2510  220.4860 C   0  0  0  0  0  0  0  0  0  0  0  0
  146.1790   72.9670  219.1620 N   0  0  0  0  0  0  0  0  0  0  0  0
  144.9970   73.1560  218.5120 C   0  0  0  0  0  0  0  0  0  0  0  0
  143.8860   73.6710  219.2020 C   0  0  0  0  0  0  0  0  0  0  0  0
  142.5720   73.8930  218.4940 C   0  0  0  0  0  0  0  0  0  0  0  0
  141.9140   72.5500  218.1330 C   0  0  0  0  0  0  0  0  0  0  0  0
  140.6180   72.3950  218.8000 N   0  0  0  0  0  0  0  0  0  0  0  0
  140.3780   72.8560  220.1360 C   0  0  0  0  0  0  0  0  0  0  0  0
  140.2970   74.1880  220.3850 N   0  0  0  0  0  0  0  0  0  0  0  0
  140.0580   74.6400  221.6440 C   0  0  0  0  0  0  0  0  0  0  0  0
  139.9190   76.0500  221.9010 N   0  0  0  0  0  0  0  0  0  0  0  0
  138.6690   76.5540  222.5050 C   0  0  0  0  0  0  0  0  0  0  0  0
  138.5150   78.0660  222.3250 C   0  0  0  0  0  0  0  0  0  0  0  0
  139.7710   78.7620  222.7580 C   0  0  0  0  0  0  0  0  0  0  0  0
  139.7300   79.9680  223.4780 C   0  0  0  0  0  0  0  0  0  0  0  0
  140.9200   80.6050  223.8430 C   0  0  0  0  0  0  0  0  0  0  0  0
  142.1520   80.0560  223.4720 C   0  0  0  0  0  0  0  0  0  0  0  0
  142.1980   78.8670  222.7390 C   0  0  0  0  0  0  0  0  0  0  0  0
  141.0080   78.2080  222.3890 C   0  0  0  0  0  0  0  0  0  0  0  0
  141.0340   76.9540  221.5560 C   0  0  0  0  0  0  0  0  0  0  0  0
  139.9390   73.7470  222.6610 N   0  0  0  0  0  0  0  0  0  0  0  0
  140.0400   72.4130  222.4290 C   0  0  0  0  0  0  0  0  0  0  0  0
  139.9710   71.4760  223.5230 N   0  0  0  0  0  0  0  0  0  0  0  0
  138.9290   70.4340  223.5050 C   0  0  0  0  0  0  0  0  0  0  0  0
  139.2990   69.2520  224.3970 C   0  0  0  0  0  0  0  0  0  0  0  0
  139.6460   69.7380  225.7720 C   0  0  0  0  0  0  0  0  0  0  0  0
  139.2800   68.9980  226.9090 C   0  0  0  0  0  0  0  0  0  0  0  0
  139.6210   69.4560  228.1840 C   0  0  0  0  0  0  0  0  0  0  0  0
  140.3450   70.6430  228.3310 C   0  0  0  0  0  0  0  0  0  0  0  0
  140.7290   71.3740  227.2020 C   0  0  0  0  0  0  0  0  0  0  0  0
  140.3770   70.9300  225.9160 C   0  0  0  0  0  0  0  0  0  0  0  0
  140.8410   71.6900  224.6970 C   0  0  0  0  0  0  0  0  0  0  0  0
  140.2470   71.9740  221.1600 N   0  0  0  0  0  0  0  0  0  0  0  0
  144.0240   73.9740  220.5660 C   0  0  0  0  0  0  0  0  0  0  0  0
  145.3534   73.9855  222.2826 H   0  0  0  0  0  0  0  0  0  0  0  0
  147.2882   73.0805  220.9835 H   0  0  0  0  0  0  0  0  0  0  0  0
  144.9117   72.9050  217.4444 H   0  0  0  0  0  0  0  0  0  0  0  0
  141.8980   74.4595  219.1534 H   0  0  0  0  0  0  0  0  0  0  0  0
  142.7606   74.4544  217.5671 H   0  0  0  0  0  0  0  0  0  0  0  0
  141.7641   72.5058  217.0442 H   0  0  0  0  0  0  0  0  0  0  0  0
  142.5761   71.7380  218.4682 H   0  0  0  0  0  0  0  0  0  0  0  0
  139.9190   71.7490  218.3690 H   0  0  0  0  0  0  0  0  0  0  0  0
  137.8155   76.0506  222.0274 H   0  0  0  0  0  0  0  0  0  0  0  0
  138.7029   76.3417  223.5838 H   0  0  0  0  0  0  0  0  0  0  0  0
  138.3209   78.2893  221.2655 H   0  0  0  0  0  0  0  0  0  0  0  0
  137.6743   78.4202  222.9396 H   0  0  0  0  0  0  0  0  0  0  0  0
  138.7618   80.4109  223.7545 H   0  0  0  0  0  0  0  0  0  0  0  0
  140.8873   81.5392  224.4228 H   0  0  0  0  0  0  0  0  0  0  0  0
  143.0864   80.5612  223.7578 H   0  0  0  0  0  0  0  0  0  0  0  0
  143.1681   78.4464  222.4356 H   0  0  0  0  0  0  0  0  0  0  0  0
  140.9551   77.2291  220.4939 H   0  0  0  0  0  0  0  0  0  0  0  0
  141.9788   76.4273  221.7559 H   0  0  0  0  0  0  0  0  0  0  0  0
  137.9838   70.8685  223.8625 H   0  0  0  0  0  0  0  0  0  0  0  0
  138.8280   70.0670  222.4729 H   0  0  0  0  0  0  0  0  0  0  0  0
  138.4454   68.5610  224.4592 H   0  0  0  0  0  0  0  0  0  0  0  0
  140.1680   68.7325  223.9670 H   0  0  0  0  0  0  0  0  0  0  0  0
  138.7237   68.0559  226.7949 H   0  0  0  0  0  0  0  0  0  0  0  0
  139.3197   68.8823  229.0729 H   0  0  0  0  0  0  0  0  0  0  0  0
  140.6129   71.0024  229.3355 H   0  0  0  0  0  0  0  0  0  0  0  0
  141.3093   72.3008  227.3213 H   0  0  0  0  0  0  0  0  0  0  0  0
  140.8516   72.7638  224.9354 H   0  0  0  0  0  0  0  0  0  0  0  0
  141.8437   71.3194  224.4378 H   0  0  0  0  0  0  0  0  0  0  0  0
  143.1703   74.3821  221.1270 H   0  0  0  0  0  0  0  0  0  0  0  0
  1  2  2  0
  2  3  1  0
  3  4  2  0
  4  5  1  0
  5  6  1  0
  6  7  1  0
  7  8  1  0
  8  9  1  0
  9 10  2  0
 10 11  1  0
 11 12  1  0
 12 13  1  0
 13 14  1  0
 14 15  1  0
 15 16  2  0
 16 17  1  0
 17 18  2  0
 18 19  1  0
 19 20  2  0
 20 21  1  0
 11 22  2  0
 22 23  1  0
 23 24  1  0
 24 25  1  0
 25 26  1  0
 26 27  1  0
 27 28  2  0
 28 29  1  0
 29 30  2  0
 30 31  1  0
 31 32  2  0
 32 33  1  0
 23 34  2  0
  5 35  2  0
 35  1  1  0
 34  9  1  0
 21 12  1  0
 33 24  1  0
 20 15  1  0
 32 27  1  0
  1 36  1  0
  2 37  1  0
  4 38  1  0
  6 39  1  0
  6 40  1  0
  7 41  1  0
  7 42  1  0
  8 43  1  0
 13 44  1  0
 13 45  1  0
 14 46  1  0
 14 47  1  0
 16 48  1  0
 17 49  1  0
 18 50  1  0
 19 51  1  0
 21 52  1  0
 21 53  1  0
 25 54  1  0
 25 55  1  0
 26 56  1  0
 26 57  1  0
 28 58  1  0
 29 59  1  0
 30 60  1  0
 31 61  1  0
 33 62  1  0
 33 63  1  0
 35 64  1  0
M  END
>  <UniqueID>  (77) 
596

>  <SMILES>  (77) 
c1cncc(CCNc2nc(N3CCc4ccccc4C3)nc(N3CCc4ccccc4C3)n2)c1

>  <Energy>  (77) 
74.35336836705626

>  <Genealogy>  (77) 
c1cncc(CCNc2nc(N3CCc4ccccc4C3)nc(N3CCc4ccccc4C3)n2)c1 (3D coordinates assigned)
c1cncc(CCNc2nc(N3CCc4ccccc4C3)nc(N3CCc4ccccc4C3)n2)c1 (nonaromatic ring conformer: 74.35336836705626 kcal/mol)

>  <smiles>  (77) 
c1cncc(CCNc2nc(N3CCc4ccccc4C3)nc(N3CCc4ccccc4C3)n2)c1

>  <score_type>  (77) 
oracle

>  <origin>  (77) 
autodockgpu

>  <m_score__min__energy>  (77) 
-10.68

>  <m_primary>  (77) 
energy

>  <meeko>  (77) 
{"free_energy": -10.59, "intermolecular_energy": -12.38, "internal_energy": -1.27, "cluster_size": 10, "cluster_id": 2, "rank_in_cluster": 1}

>  <energy>  (77) 
-9.33

>  <cluster_rmsd>  (77) 
1.4

>  <rmsd>  (77) 
269.25

>  <cluster>  (77) 
2

$$$$
RCQFLYQWKFFJSS-SREBMQDQNA-N
     RDKit          3D

 64 69  0  0  0  0  0  0  0  0999 V2000
  145.2060   74.1570  220.8990 C   0  0  0  0  0  0  0  0  0  0  0  0
  146.3180   73.4180  220.4930 C   0  0  0  0  0  0  0  0  0  0  0  0
  146.2860   72.7240  219.3230 N   0  0  0  0  0  0  0  0  0  0  0  0
  145.1830   72.7200  218.5210 C   0  0  0  0  0  0  0  0  0  0  0  0
  144.0430   73.4550  218.8860 C   0  0  0  0  0  0  0  0  0  0  0  0
  142.8170   73.4650  218.0070 C   0  0  0  0  0  0  0  0  0  0  0  0
  141.9770   72.1960  218.2270 C   0  0  0  0  0  0  0  0  0  0  0  0
  140.6370   72.5230  218.7220 N   0  0  0  0  0  0  0  0  0  0  0  0
  140.3920   72.9400  220.0710 C   0  0  0  0  0  0  0  0  0  0  0  0
  140.3130   74.2630  220.3630 N   0  0  0  0  0  0  0  0  0  0  0  0
  140.0700   74.6740  221.6350 C   0  0  0  0  0  0  0  0  0  0  0  0
  139.9330   76.0750  221.9380 N   0  0  0  0  0  0  0  0  0  0  0  0
  138.7560   76.5380  222.7000 C   0  0  0  0  0  0  0  0  0  0  0  0
  138.5490   78.0500  222.5740 C   0  0  0  0  0  0  0  0  0  0  0  0
  139.8340   78.7670  222.8660 C   0  0  0  0  0  0  0  0  0  0  0  0
  139.8560   79.9570  223.6110 C   0  0  0  0  0  0  0  0  0  0  0  0
  141.0680   80.6150  223.8430 C   0  0  0  0  0  0  0  0  0  0  0  0
  142.2560   80.1020  223.3130 C   0  0  0  0  0  0  0  0  0  0  0  0
  142.2370   78.9290  222.5540 C   0  0  0  0  0  0  0  0  0  0  0  0
  141.0280   78.2490  222.3370 C   0  0  0  0  0  0  0  0  0  0  0  0
  140.9790   77.0120  221.4800 C   0  0  0  0  0  0  0  0  0  0  0  0
  139.9430   73.7480  222.6220 N   0  0  0  0  0  0  0  0  0  0  0  0
  140.0420   72.4220  222.3460 C   0  0  0  0  0  0  0  0  0  0  0  0
  139.9650   71.4500  223.4080 N   0  0  0  0  0  0  0  0  0  0  0  0
  138.8960   70.4370  223.3720 C   0  0  0  0  0  0  0  0  0  0  0  0
  139.2490   69.2150  224.2170 C   0  0  0  0  0  0  0  0  0  0  0  0
  139.6300   69.6440  225.6020 C   0  0  0  0  0  0  0  0  0  0  0  0
  139.2630   68.8740  226.7180 C   0  0  0  0  0  0  0  0  0  0  0  0
  139.6360   69.2790  228.0030 C   0  0  0  0  0  0  0  0  0  0  0  0
  140.3920   70.4420  228.1780 C   0  0  0  0  0  0  0  0  0  0  0  0
  140.7780   71.2010  227.0680 C   0  0  0  0  0  0  0  0  0  0  0  0
  140.3940   70.8120  225.7740 C   0  0  0  0  0  0  0  0  0  0  0  0
  140.8590   71.6010  224.5740 C   0  0  0  0  0  0  0  0  0  0  0  0
  140.2530   72.0250  221.0640 N   0  0  0  0  0  0  0  0  0  0  0  0
  144.0670   74.1800  220.0890 C   0  0  0  0  0  0  0  0  0  0  0  0
  145.2256   74.7155  221.8465 H   0  0  0  0  0  0  0  0  0  0  0  0
  147.2217   73.3965  221.1197 H   0  0  0  0  0  0  0  0  0  0  0  0
  145.1861   72.1400  217.5863 H   0  0  0  0  0  0  0  0  0  0  0  0
  142.2069   74.3477  218.2490 H   0  0  0  0  0  0  0  0  0  0  0  0
  143.1375   73.4977  216.9552 H   0  0  0  0  0  0  0  0  0  0  0  0
  141.8847   71.6575  217.2723 H   0  0  0  0  0  0  0  0  0  0  0  0
  142.4819   71.5718  218.9790 H   0  0  0  0  0  0  0  0  0  0  0  0
  139.8170   72.2450  218.1350 H   0  0  0  0  0  0  0  0  0  0  0  0
  137.8614   76.0241  222.3184 H   0  0  0  0  0  0  0  0  0  0  0  0
  138.9260   76.3058  223.7617 H   0  0  0  0  0  0  0  0  0  0  0  0
  138.2219   78.2895  221.5514 H   0  0  0  0  0  0  0  0  0  0  0  0
  137.7826   78.3720  223.2944 H   0  0  0  0  0  0  0  0  0  0  0  0
  138.9196   80.3718  224.0123 H   0  0  0  0  0  0  0  0  0  0  0  0
  141.0868   81.5368  224.4429 H   0  0  0  0  0  0  0  0  0  0  0  0
  143.2077   80.6231  223.4940 H   0  0  0  0  0  0  0  0  0  0  0  0
  143.1714   78.5374  222.1255 H   0  0  0  0  0  0  0  0  0  0  0  0
  140.7658   77.3053  220.4415 H   0  0  0  0  0  0  0  0  0  0  0  0
  141.9520   76.5041  221.5526 H   0  0  0  0  0  0  0  0  0  0  0  0
  137.9685   70.8832  223.7601 H   0  0  0  0  0  0  0  0  0  0  0  0
  138.7688   70.1088  222.3298 H   0  0  0  0  0  0  0  0  0  0  0  0
  138.3787   68.5444  224.2695 H   0  0  0  0  0  0  0  0  0  0  0  0
  140.0973   68.6886  223.7551 H   0  0  0  0  0  0  0  0  0  0  0  0
  138.6811   67.9507  226.5806 H   0  0  0  0  0  0  0  0  0  0  0  0
  139.3346   68.6825  228.8767 H   0  0  0  0  0  0  0  0  0  0  0  0
  140.6836   70.7606  229.1896 H   0  0  0  0  0  0  0  0  0  0  0  0
  141.3854   72.1071  227.2093 H   0  0  0  0  0  0  0  0  0  0  0  0
  140.9019   72.6654  224.8484 H   0  0  0  0  0  0  0  0  0  0  0  0
  141.8473   71.2136  224.2858 H   0  0  0  0  0  0  0  0  0  0  0  0
  143.1880   74.7668  220.3941 H   0  0  0  0  0  0  0  0  0  0  0  0
  1  2  2  0
  2  3  1  0
  3  4  2  0
  4  5  1  0
  5  6  1  0
  6  7  1  0
  7  8  1  0
  8  9  1  0
  9 10  2  0
 10 11  1  0
 11 12  1  0
 12 13  1  0
 13 14  1  0
 14 15  1  0
 15 16  2  0
 16 17  1  0
 17 18  2  0
 18 19  1  0
 19 20  2  0
 20 21  1  0
 11 22  2  0
 22 23  1  0
 23 24  1  0
 24 25  1  0
 25 26  1  0
 26 27  1  0
 27 28  2  0
 28 29  1  0
 29 30  2  0
 30 31  1  0
 31 32  2  0
 32 33  1  0
 23 34  2  0
  5 35  2  0
 35  1  1  0
 34  9  1  0
 21 12  1  0
 33 24  1  0
 20 15  1  0
 32 27  1  0
  1 36  1  0
  2 37  1  0
  4 38  1  0
  6 39  1  0
  6 40  1  0
  7 41  1  0
  7 42  1  0
  8 43  1  0
 13 44  1  0
 13 45  1  0
 14 46  1  0
 14 47  1  0
 16 48  1  0
 17 49  1  0
 18 50  1  0
 19 51  1  0
 21 52  1  0
 21 53  1  0
 25 54  1  0
 25 55  1  0
 26 56  1  0
 26 57  1  0
 28 58  1  0
 29 59  1  0
 30 60  1  0
 31 61  1  0
 33 62  1  0
 33 63  1  0
 35 64  1  0
M  END
>  <UniqueID>  (78) 
596

>  <SMILES>  (78) 
c1cncc(CCNc2nc(N3CCc4ccccc4C3)nc(N3CCc4ccccc4C3)n2)c1

>  <Energy>  (78) 
74.35336836705626

>  <Genealogy>  (78) 
c1cncc(CCNc2nc(N3CCc4ccccc4C3)nc(N3CCc4ccccc4C3)n2)c1 (3D coordinates assigned)
c1cncc(CCNc2nc(N3CCc4ccccc4C3)nc(N3CCc4ccccc4C3)n2)c1 (nonaromatic ring conformer: 74.35336836705626 kcal/mol)

>  <smiles>  (78) 
c1cncc(CCNc2nc(N3CCc4ccccc4C3)nc(N3CCc4ccccc4C3)n2)c1

>  <score_type>  (78) 
oracle

>  <origin>  (78) 
autodockgpu

>  <m_score__min__energy>  (78) 
-10.68

>  <m_primary>  (78) 
energy

>  <meeko>  (78) 
{"free_energy": -10.47, "intermolecular_energy": -12.26, "internal_energy": -1.22, "cluster_size": 10, "cluster_id": 2, "rank_in_cluster": 3}

>  <energy>  (78) 
-9.02

>  <cluster_rmsd>  (78) 
1.42

>  <rmsd>  (78) 
269.15

>  <cluster>  (78) 
2

$$$$
RCQFLYQWKFFJSS-SREBMQDQNA-N
     RDKit          3D

 64 69  0  0  0  0  0  0  0  0999 V2000
  144.6490   74.0040  220.8310 C   0  0  0  0  0  0  0  0  0  0  0  0
  145.9850   73.6910  220.5770 C   0  0  0  0  0  0  0  0  0  0  0  0
  146.3210   72.9920  219.4590 N   0  0  0  0  0  0  0  0  0  0  0  0
  145.3810   72.5710  218.5660 C   0  0  0  0  0  0  0  0  0  0  0  0
  144.0240   72.8690  218.7780 C   0  0  0  0  0  0  0  0  0  0  0  0
  142.9710   72.4160  217.7960 C   0  0  0  0  0  0  0  0  0  0  0  0
  141.8840   71.5890  218.5030 C   0  0  0  0  0  0  0  0  0  0  0  0
  140.7220   72.4150  218.8410 N   0  0  0  0  0  0  0  0  0  0  0  0
  140.4500   72.8550  220.1780 C   0  0  0  0  0  0  0  0  0  0  0  0
  140.3500   74.1830  220.4420 N   0  0  0  0  0  0  0  0  0  0  0  0
  140.0810   74.6160  221.7020 C   0  0  0  0  0  0  0  0  0  0  0  0
  139.9220   76.0210  221.9740 N   0  0  0  0  0  0  0  0  0  0  0  0
  138.7230   76.4840  222.7010 C   0  0  0  0  0  0  0  0  0  0  0  0
  138.5030   77.9910  222.5420 C   0  0  0  0  0  0  0  0  0  0  0  0
  139.7730   78.7280  222.8470 C   0  0  0  0  0  0  0  0  0  0  0  0
  139.7650   79.9320  223.5700 C   0  0  0  0  0  0  0  0  0  0  0  0
  140.9640   80.6080  223.8160 C   0  0  0  0  0  0  0  0  0  0  0  0
  142.1700   80.0990  223.3220 C   0  0  0  0  0  0  0  0  0  0  0  0
  142.1800   78.9110  222.5850 C   0  0  0  0  0  0  0  0  0  0  0  0
  140.9840   78.2130  222.3550 C   0  0  0  0  0  0  0  0  0  0  0  0
  140.9670   76.9600  221.5210 C   0  0  0  0  0  0  0  0  0  0  0  0
  139.9490   73.7080  222.7040 N   0  0  0  0  0  0  0  0  0  0  0  0
  140.0680   72.3780  222.4570 C   0  0  0  0  0  0  0  0  0  0  0  0
  139.9860   71.4260  223.5370 N   0  0  0  0  0  0  0  0  0  0  0  0
  138.8540   70.4840  223.5720 C   0  0  0  0  0  0  0  0  0  0  0  0
  139.1720   69.2520  224.4160 C   0  0  0  0  0  0  0  0  0  0  0  0
  139.6520   69.6730  225.7730 C   0  0  0  0  0  0  0  0  0  0  0  0
  139.2960   68.9420  226.9180 C   0  0  0  0  0  0  0  0  0  0  0  0
  139.7610   69.3380  228.1760 C   0  0  0  0  0  0  0  0  0  0  0  0
  140.5980   70.4510  228.2930 C   0  0  0  0  0  0  0  0  0  0  0  0
  140.9730   71.1710  227.1530 C   0  0  0  0  0  0  0  0  0  0  0  0
  140.4970   70.7910  225.8870 C   0  0  0  0  0  0  0  0  0  0  0  0
  140.9480   71.5330  224.6520 C   0  0  0  0  0  0  0  0  0  0  0  0
  140.3060   71.9580  221.1870 N   0  0  0  0  0  0  0  0  0  0  0  0
  143.6660   73.5960  219.9250 C   0  0  0  0  0  0  0  0  0  0  0  0
  144.3723   74.5661  221.7351 H   0  0  0  0  0  0  0  0  0  0  0  0
  146.7674   74.0098  221.2814 H   0  0  0  0  0  0  0  0  0  0  0  0
  145.6850   71.9972  217.6781 H   0  0  0  0  0  0  0  0  0  0  0  0
  142.5074   73.2989  217.3316 H   0  0  0  0  0  0  0  0  0  0  0  0
  143.4499   71.7876  217.0307 H   0  0  0  0  0  0  0  0  0  0  0  0
  141.5631   70.7747  217.8366 H   0  0  0  0  0  0  0  0  0  0  0  0
  142.3061   71.1856  219.4352 H   0  0  0  0  0  0  0  0  0  0  0  0
  139.9640   72.5090  218.1270 H   0  0  0  0  0  0  0  0  0  0  0  0
  137.8429   75.9532  222.3091 H   0  0  0  0  0  0  0  0  0  0  0  0
  138.8710   76.2729  223.7704 H   0  0  0  0  0  0  0  0  0  0  0  0
  138.1951   78.2075  221.5084 H   0  0  0  0  0  0  0  0  0  0  0  0
  137.7184   78.3178  223.2403 H   0  0  0  0  0  0  0  0  0  0  0  0
  138.8153   80.3433  223.9428 H   0  0  0  0  0  0  0  0  0  0  0  0
  140.9591   81.5411  224.3986 H   0  0  0  0  0  0  0  0  0  0  0  0
  143.1116   80.6343  223.5138 H   0  0  0  0  0  0  0  0  0  0  0  0
  143.1277   78.5222  222.1842 H   0  0  0  0  0  0  0  0  0  0  0  0
  140.7733   77.2313  220.4727 H   0  0  0  0  0  0  0  0  0  0  0  0
  141.9436   76.4644  221.6240 H   0  0  0  0  0  0  0  0  0  0  0  0
  137.9787   70.9939  224.0008 H   0  0  0  0  0  0  0  0  0  0  0  0
  138.6513   70.1523  222.5430 H   0  0  0  0  0  0  0  0  0  0  0  0
  138.2646   68.6396  224.5239 H   0  0  0  0  0  0  0  0  0  0  0  0
  139.9592   68.6659  223.9191 H   0  0  0  0  0  0  0  0  0  0  0  0
  138.6502   68.0563  226.8252 H   0  0  0  0  0  0  0  0  0  0  0  0
  139.4680   68.7734  229.0734 H   0  0  0  0  0  0  0  0  0  0  0  0
  140.9628   70.7618  229.2831 H   0  0  0  0  0  0  0  0  0  0  0  0
  141.6432   72.0380  227.2486 H   0  0  0  0  0  0  0  0  0  0  0  0
  141.0739   72.5956  224.9068 H   0  0  0  0  0  0  0  0  0  0  0  0
  141.8928   71.0785  224.3191 H   0  0  0  0  0  0  0  0  0  0  0  0
  142.6107   73.8446  220.1106 H   0  0  0  0  0  0  0  0  0  0  0  0
  1  2  2  0
  2  3  1  0
  3  4  2  0
  4  5  1  0
  5  6  1  0
  6  7  1  0
  7  8  1  0
  8  9  1  0
  9 10  2  0
 10 11  1  0
 11 12  1  0
 12 13  1  0
 13 14  1  0
 14 15  1  0
 15 16  2  0
 16 17  1  0
 17 18  2  0
 18 19  1  0
 19 20  2  0
 20 21  1  0
 11 22  2  0
 22 23  1  0
 23 24  1  0
 24 25  1  0
 25 26  1  0
 26 27  1  0
 27 28  2  0
 28 29  1  0
 29 30  2  0
 30 31  1  0
 31 32  2  0
 32 33  1  0
 23 34  2  0
  5 35  2  0
 35  1  1  0
 34  9  1  0
 21 12  1  0
 33 24  1  0
 20 15  1  0
 32 27  1  0
  1 36  1  0
  2 37  1  0
  4 38  1  0
  6 39  1  0
  6 40  1  0
  7 41  1  0
  7 42  1  0
  8 43  1  0
 13 44  1  0
 13 45  1  0
 14 46  1  0
 14 47  1  0
 16 48  1  0
 17 49  1  0
 18 50  1  0
 19 51  1  0
 21 52  1  0
 21 53  1  0
 25 54  1  0
 25 55  1  0
 26 56  1  0
 26 57  1  0
 28 58  1  0
 29 59  1  0
 30 60  1  0
 31 61  1  0
 33 62  1  0
 33 63  1  0
 35 64  1  0
M  END
>  <UniqueID>  (79) 
596

>  <SMILES>  (79) 
c1cncc(CCNc2nc(N3CCc4ccccc4C3)nc(N3CCc4ccccc4C3)n2)c1

>  <Energy>  (79) 
74.35336836705626

>  <Genealogy>  (79) 
c1cncc(CCNc2nc(N3CCc4ccccc4C3)nc(N3CCc4ccccc4C3)n2)c1 (3D coordinates assigned)
c1cncc(CCNc2nc(N3CCc4ccccc4C3)nc(N3CCc4ccccc4C3)n2)c1 (nonaromatic ring conformer: 74.35336836705626 kcal/mol)

>  <smiles>  (79) 
c1cncc(CCNc2nc(N3CCc4ccccc4C3)nc(N3CCc4ccccc4C3)n2)c1

>  <score_type>  (79) 
oracle

>  <origin>  (79) 
autodockgpu

>  <m_score__min__energy>  (79) 
-10.68

>  <m_primary>  (79) 
energy

>  <meeko>  (79) 
{"free_energy": -10.34, "intermolecular_energy": -12.13, "internal_energy": -1.22, "cluster_size": 10, "cluster_id": 2, "rank_in_cluster": 4}

>  <energy>  (79) 
-8.33

>  <cluster_rmsd>  (79) 
1.94

>  <rmsd>  (79) 
269.01

>  <cluster>  (79) 
2

$$$$
RCQFLYQWKFFJSS-SREBMQDQNA-N
     RDKit          3D

 64 69  0  0  0  0  0  0  0  0999 V2000
  144.9370   73.7570  221.1770 C   0  0  0  0  0  0  0  0  0  0  0  0
  146.1480   73.0650  221.1320 C   0  0  0  0  0  0  0  0  0  0  0  0
  146.4080   72.2130  220.1030 N   0  0  0  0  0  0  0  0  0  0  0  0
  145.5080   72.0020  219.1010 C   0  0  0  0  0  0  0  0  0  0  0  0
  144.2790   72.6820  219.1020 C   0  0  0  0  0  0  0  0  0  0  0  0
  143.2750   72.4650  217.9970 C   0  0  0  0  0  0  0  0  0  0  0  0
  142.1210   71.5680  218.4770 C   0  0  0  0  0  0  0  0  0  0  0  0
  140.9160   72.3550  218.7570 N   0  0  0  0  0  0  0  0  0  0  0  0
  140.5750   72.8020  220.0760 C   0  0  0  0  0  0  0  0  0  0  0  0
  140.4420   74.1300  220.3220 N   0  0  0  0  0  0  0  0  0  0  0  0
  140.1070   74.5690  221.5650 C   0  0  0  0  0  0  0  0  0  0  0  0
  139.9140   75.9730  221.8170 N   0  0  0  0  0  0  0  0  0  0  0  0
  138.6280   76.4350  222.3760 C   0  0  0  0  0  0  0  0  0  0  0  0
  138.4310   77.9430  222.1920 C   0  0  0  0  0  0  0  0  0  0  0  0
  139.6480   78.6780  222.6680 C   0  0  0  0  0  0  0  0  0  0  0  0
  139.5430   79.8810  223.3860 C   0  0  0  0  0  0  0  0  0  0  0  0
  140.6980   80.5560  223.7930 C   0  0  0  0  0  0  0  0  0  0  0  0
  141.9590   80.0470  223.4650 C   0  0  0  0  0  0  0  0  0  0  0  0
  142.0690   78.8610  222.7340 C   0  0  0  0  0  0  0  0  0  0  0  0
  140.9140   78.1650  222.3430 C   0  0  0  0  0  0  0  0  0  0  0  0
  141.0100   76.9130  221.5110 C   0  0  0  0  0  0  0  0  0  0  0  0
  139.9440   73.6670  222.5680 N   0  0  0  0  0  0  0  0  0  0  0  0
  140.0960   72.3370  222.3390 C   0  0  0  0  0  0  0  0  0  0  0  0
  139.9790   71.3930  223.4220 N   0  0  0  0  0  0  0  0  0  0  0  0
  138.8400   70.4600  223.4350 C   0  0  0  0  0  0  0  0  0  0  0  0
  139.1270   69.2310  224.2950 C   0  0  0  0  0  0  0  0  0  0  0  0
  139.5750   69.6580  225.6610 C   0  0  0  0  0  0  0  0  0  0  0  0
  139.1850   68.9370  226.8010 C   0  0  0  0  0  0  0  0  0  0  0  0
  139.6210   69.3380  228.0670 C   0  0  0  0  0  0  0  0  0  0  0  0
  140.4630   70.4460  228.1990 C   0  0  0  0  0  0  0  0  0  0  0  0
  140.8720   71.1550  227.0640 C   0  0  0  0  0  0  0  0  0  0  0  0
  140.4260   70.7700  225.7890 C   0  0  0  0  0  0  0  0  0  0  0  0
  140.9130   71.5010  224.5610 C   0  0  0  0  0  0  0  0  0  0  0  0
  140.3990   71.9110  221.0850 N   0  0  0  0  0  0  0  0  0  0  0  0
  144.0020   73.5690  220.1560 C   0  0  0  0  0  0  0  0  0  0  0  0
  144.7206   74.4440  222.0084 H   0  0  0  0  0  0  0  0  0  0  0  0
  146.8929   73.2082  221.9287 H   0  0  0  0  0  0  0  0  0  0  0  0
  145.7448   71.2977  218.2899 H   0  0  0  0  0  0  0  0  0  0  0  0
  142.8690   73.4377  217.6823 H   0  0  0  0  0  0  0  0  0  0  0  0
  143.7794   71.9702  217.1539 H   0  0  0  0  0  0  0  0  0  0  0  0
  141.8926   70.8288  217.6951 H   0  0  0  0  0  0  0  0  0  0  0  0
  142.4329   71.0680  219.4058 H   0  0  0  0  0  0  0  0  0  0  0  0
  140.1840   72.4120  218.0130 H   0  0  0  0  0  0  0  0  0  0  0  0
  137.8090   75.9052  221.8676 H   0  0  0  0  0  0  0  0  0  0  0  0
  138.6304   76.2218  223.4551 H   0  0  0  0  0  0  0  0  0  0  0  0
  138.2659   78.1620  221.1267 H   0  0  0  0  0  0  0  0  0  0  0  0
  137.5588   78.2686  222.7779 H   0  0  0  0  0  0  0  0  0  0  0  0
  138.5518   80.2921  223.6281 H   0  0  0  0  0  0  0  0  0  0  0  0
  140.6149   81.4879  224.3715 H   0  0  0  0  0  0  0  0  0  0  0  0
  142.8662   80.5815  223.7832 H   0  0  0  0  0  0  0  0  0  0  0  0
  143.0621   78.4722  222.4645 H   0  0  0  0  0  0  0  0  0  0  0  0
  140.9591   77.1866  220.4468 H   0  0  0  0  0  0  0  0  0  0  0  0
  141.9640   76.4172  221.7435 H   0  0  0  0  0  0  0  0  0  0  0  0
  137.9582   70.9794  223.8383 H   0  0  0  0  0  0  0  0  0  0  0  0
  138.6609   70.1227  222.4034 H   0  0  0  0  0  0  0  0  0  0  0  0
  138.2126   68.6260  224.3835 H   0  0  0  0  0  0  0  0  0  0  0  0
  139.9221   68.6357  223.8224 H   0  0  0  0  0  0  0  0  0  0  0  0
  138.5354   68.0553  226.6976 H   0  0  0  0  0  0  0  0  0  0  0  0
  139.3013   68.7812  228.9602 H   0  0  0  0  0  0  0  0  0  0  0  0
  140.8044   70.7609  229.1961 H   0  0  0  0  0  0  0  0  0  0  0  0
  141.5459   72.0178  227.1708 H   0  0  0  0  0  0  0  0  0  0  0  0
  141.0393   72.5645  224.8122 H   0  0  0  0  0  0  0  0  0  0  0  0
  141.8628   71.0380  224.2552 H   0  0  0  0  0  0  0  0  0  0  0  0
  143.0479   74.1160  220.1773 H   0  0  0  0  0  0  0  0  0  0  0  0
  1  2  2  0
  2  3  1  0
  3  4  2  0
  4  5  1  0
  5  6  1  0
  6  7  1  0
  7  8  1  0
  8  9  1  0
  9 10  2  0
 10 11  1  0
 11 12  1  0
 12 13  1  0
 13 14  1  0
 14 15  1  0
 15 16  2  0
 16 17  1  0
 17 18  2  0
 18 19  1  0
 19 20  2  0
 20 21  1  0
 11 22  2  0
 22 23  1  0
 23 24  1  0
 24 25  1  0
 25 26  1  0
 26 27  1  0
 27 28  2  0
 28 29  1  0
 29 30  2  0
 30 31  1  0
 31 32  2  0
 32 33  1  0
 23 34  2  0
  5 35  2  0
 35  1  1  0
 34  9  1  0
 21 12  1  0
 33 24  1  0
 20 15  1  0
 32 27  1  0
  1 36  1  0
  2 37  1  0
  4 38  1  0
  6 39  1  0
  6 40  1  0
  7 41  1  0
  7 42  1  0
  8 43  1  0
 13 44  1  0
 13 45  1  0
 14 46  1  0
 14 47  1  0
 16 48  1  0
 17 49  1  0
 18 50  1  0
 19 51  1  0
 21 52  1  0
 21 53  1  0
 25 54  1  0
 25 55  1  0
 26 56  1  0
 26 57  1  0
 28 58  1  0
 29 59  1  0
 30 60  1  0
 31 61  1  0
 33 62  1  0
 33 63  1  0
 35 64  1  0
M  END
>  <UniqueID>  (80) 
596

>  <SMILES>  (80) 
c1cncc(CCNc2nc(N3CCc4ccccc4C3)nc(N3CCc4ccccc4C3)n2)c1

>  <Energy>  (80) 
74.35336836705626

>  <Genealogy>  (80) 
c1cncc(CCNc2nc(N3CCc4ccccc4C3)nc(N3CCc4ccccc4C3)n2)c1 (3D coordinates assigned)
c1cncc(CCNc2nc(N3CCc4ccccc4C3)nc(N3CCc4ccccc4C3)n2)c1 (nonaromatic ring conformer: 74.35336836705626 kcal/mol)

>  <smiles>  (80) 
c1cncc(CCNc2nc(N3CCc4ccccc4C3)nc(N3CCc4ccccc4C3)n2)c1

>  <score_type>  (80) 
oracle

>  <origin>  (80) 
autodockgpu

>  <m_score__min__energy>  (80) 
-10.68

>  <m_primary>  (80) 
energy

>  <meeko>  (80) 
{"free_energy": -9.98, "intermolecular_energy": -11.77, "internal_energy": -1.22, "cluster_size": 10, "cluster_id": 2, "rank_in_cluster": 5}

>  <energy>  (80) 
-8.12

>  <cluster_rmsd>  (80) 
1.58

>  <rmsd>  (80) 
268.95

>  <cluster>  (80) 
2

$$$$
