VOUYAFWJUZHTKY-QHXHEQRTNA-O
     RDKit          3D

 72 77  0  0  0  0  0  0  0  0999 V2000
  141.0396   81.4870  224.6308 H   0  0  0  0  0  0  0  0  0  0  0  0
  141.1910   80.7140  223.8630 C   0  0  0  0  0  0  0  0  0  0  0  0
  142.3850   80.6760  223.1370 C   0  0  0  0  0  0  0  0  0  0  0  0
  143.1714   81.4196  223.3337 H   0  0  0  0  0  0  0  0  0  0  0  0
  142.5810   79.6940  222.1610 C   0  0  0  0  0  0  0  0  0  0  0  0
  143.5142   79.6755  221.5790 H   0  0  0  0  0  0  0  0  0  0  0  0
  141.5870   78.7320  221.9240 C   0  0  0  0  0  0  0  0  0  0  0  0
  140.3890   78.7690  222.6520 C   0  0  0  0  0  0  0  0  0  0  0  0
  140.1900   79.7720  223.6150 C   0  0  0  0  0  0  0  0  0  0  0  0
  139.2441   79.8157  224.1748 H   0  0  0  0  0  0  0  0  0  0  0  0
  139.2930   77.7870  222.3270 C   0  0  0  0  0  0  0  0  0  0  0  0
  138.6787   78.1971  221.5119 H   0  0  0  0  0  0  0  0  0  0  0  0
  138.6941   77.6322  223.2366 H   0  0  0  0  0  0  0  0  0  0  0  0
  139.8320   76.4770  221.9060 N   0  0  0  0  0  0  0  0  0  0  0  0
  138.9800   75.3110  222.0360 C   0  0  0  0  0  0  0  0  0  0  0  0
  139.5420   74.0940  222.2620 N   0  0  0  0  0  0  0  0  0  0  0  0
  138.8020   72.9630  222.3740 C   0  0  0  0  0  0  0  0  0  0  0  0
  139.4750   71.6980  222.5360 N   0  0  0  0  0  0  0  0  0  0  0  0
  140.6980   71.5660  223.3330 C   0  0  0  0  0  0  0  0  0  0  0  0
  141.1224   72.5638  223.5181 H   0  0  0  0  0  0  0  0  0  0  0  0
  141.4244   70.9496  222.7830 H   0  0  0  0  0  0  0  0  0  0  0  0
  140.3820   70.9050  224.6500 C   0  0  0  0  0  0  0  0  0  0  0  0
  141.3040   70.9860  225.7050 C   0  0  0  0  0  0  0  0  0  0  0  0
  142.2456   71.5375  225.5664 H   0  0  0  0  0  0  0  0  0  0  0  0
  141.0340   70.3710  226.9300 C   0  0  0  0  0  0  0  0  0  0  0  0
  141.7524   70.4569  227.7585 H   0  0  0  0  0  0  0  0  0  0  0  0
  139.8520   69.6470  227.1030 C   0  0  0  0  0  0  0  0  0  0  0  0
  139.6345   69.1750  228.0725 H   0  0  0  0  0  0  0  0  0  0  0  0
  138.9450   69.5210  226.0470 C   0  0  0  0  0  0  0  0  0  0  0  0
  138.0205   68.9417  226.1875 H   0  0  0  0  0  0  0  0  0  0  0  0
  139.2050   70.1280  224.8090 C   0  0  0  0  0  0  0  0  0  0  0  0
  138.1750   70.0050  223.7030 C   0  0  0  0  0  0  0  0  0  0  0  0
  137.3031   70.6236  223.9620 H   0  0  0  0  0  0  0  0  0  0  0  0
  137.9039   68.9426  223.6143 H   0  0  0  0  0  0  0  0  0  0  0  0
  138.7170   70.4630  222.3460 C   0  0  0  0  0  0  0  0  0  0  0  0
  137.8802   70.6450  221.6556 H   0  0  0  0  0  0  0  0  0  0  0  0
  139.3686   69.6852  221.9212 H   0  0  0  0  0  0  0  0  0  0  0  0
  137.4440   73.0290  222.2480 N   0  0  0  0  0  0  0  0  0  0  0  0
  136.9060   72.1390  222.2910 H   0  0  0  0  0  0  0  0  0  0  0  0
  136.8110   74.2250  222.0230 C   0  0  0  0  0  0  0  0  0  0  0  0
  135.5060   74.3040  221.9000 N   0  0  0  0  0  0  0  0  0  0  0  0
  135.1010   74.8660  221.1140 H   0  0  0  0  0  0  0  0  0  0  0  0
  134.5270   73.6430  222.7690 C   0  0  0  0  0  0  0  0  0  0  0  0
  133.5131   73.9410  222.4636 H   0  0  0  0  0  0  0  0  0  0  0  0
  134.6477   72.5537  222.6752 H   0  0  0  0  0  0  0  0  0  0  0  0
  134.7510   74.0430  224.2400 C   0  0  0  0  0  0  0  0  0  0  0  0
  135.7015   74.5925  224.3085 H   0  0  0  0  0  0  0  0  0  0  0  0
  133.8868   74.6541  224.5395 H   0  0  0  0  0  0  0  0  0  0  0  0
  134.8110   72.8450  225.2130 C   0  0  1  0  0  0  0  0  0  0  0  0
  135.8085   72.8454  225.6766 H   0  0  0  0  0  0  0  0  0  0  0  0
  133.8010   72.9800  226.2800 N   0  0  0  0  0  0  0  0  0  0  0  0
  133.9860   73.8750  226.7900 H   0  0  0  0  0  0  0  0  0  0  0  0
  133.9270   71.8910  227.2610 C   0  0  0  0  0  0  0  0  0  0  0  0
  133.1765   72.0299  228.0531 H   0  0  0  0  0  0  0  0  0  0  0  0
  134.9407   71.9146  227.6874 H   0  0  0  0  0  0  0  0  0  0  0  0
  133.7060   70.5320  226.5920 C   0  0  0  0  0  0  0  0  0  0  0  0
  132.6812   70.4860  226.1949 H   0  0  0  0  0  0  0  0  0  0  0  0
  133.8585   69.7383  227.3381 H   0  0  0  0  0  0  0  0  0  0  0  0
  134.7000   70.3330  225.4460 C   0  0  0  0  0  0  0  0  0  0  0  0
  134.4562   69.4022  224.9129 H   0  0  0  0  0  0  0  0  0  0  0  0
  135.7165   70.2763  225.8625 H   0  0  0  0  0  0  0  0  0  0  0  0
  134.6310   71.5070  224.4670 C   0  0  0  0  0  0  0  0  0  0  0  0
  133.6526   71.5018  223.9642 H   0  0  0  0  0  0  0  0  0  0  0  0
  135.4384   71.4010  223.7275 H   0  0  0  0  0  0  0  0  0  0  0  0
  137.5840   75.3920  221.9090 C   0  0  0  0  0  0  0  0  0  0  0  0
  137.0997   76.3617  221.7217 H   0  0  0  0  0  0  0  0  0  0  0  0
  141.1770   76.3560  221.3010 C   0  0  0  0  0  0  0  0  0  0  0  0
  141.1114   75.6890  220.4288 H   0  0  0  0  0  0  0  0  0  0  0  0
  141.8520   75.9549  222.0713 H   0  0  0  0  0  0  0  0  0  0  0  0
  141.7460   77.7040  220.8450 C   0  0  0  0  0  0  0  0  0  0  0  0
  141.2091   78.0378  219.9448 H   0  0  0  0  0  0  0  0  0  0  0  0
  142.8167   77.5822  220.6242 H   0  0  0  0  0  0  0  0  0  0  0  0
  1  2  1  0
  2  3  2  0
  3  4  1  0
  3  5  1  0
  5  6  1  0
  5  7  2  0
  7  8  1  0
  8  9  2  0
  9 10  1  0
  8 11  1  0
 11 12  1  0
 11 13  1  0
 11 14  1  0
 14 15  1  0
 15 16  1  0
 16 17  2  0
 17 18  1  0
 18 19  1  0
 19 20  1  0
 19 21  1  0
 19 22  1  0
 22 23  2  0
 23 24  1  0
 23 25  1  0
 25 26  1  0
 25 27  2  0
 27 28  1  0
 27 29  1  0
 29 30  1  0
 29 31  2  0
 31 32  1  0
 32 33  1  0
 32 34  1  0
 32 35  1  0
 35 36  1  0
 35 37  1  0
 17 38  1  0
 38 39  1  0
 38 40  1  0
 40 41  2  0
 41 42  1  0
 41 43  1  0
 43 44  1  0
 43 45  1  0
 43 46  1  0
 46 47  1  0
 46 48  1  0
 46 49  1  0
 49 50  1  1
 49 51  1  0
 51 52  1  0
 51 53  1  0
 53 54  1  0
 53 55  1  0
 53 56  1  0
 56 57  1  0
 56 58  1  0
 56 59  1  0
 59 60  1  0
 59 61  1  0
 59 62  1  0
 62 63  1  0
 62 64  1  0
 40 65  1  0
 65 66  1  0
 14 67  1  0
 67 68  1  0
 67 69  1  0
 67 70  1  0
 70 71  1  0
 70 72  1  0
  9  2  1  0
 65 15  2  0
 70  7  1  0
 35 18  1  0
 62 49  1  0
 31 22  1  0
M  CHG  1  41   1
M  END
>  <UniqueID>  (1) 
585

>  <SMILES>  (1) 
c1ccc2c(c1)CCN(c1c/c(=[NH+]/CC[C@@H]3CCCCN3)[nH]c(N3CCc4ccccc4C3)n1)C2

>  <Energy>  (1) 
81.97970566605903

>  <Genealogy>  (1) 
c1ccc2c(c1)CCN(c1cc([NH2+]CCC3CCCCN3)nc(N3CCc4ccccc4C3)n1)C2 (protonated)
c1ccc2c(c1)CCN(c1cc(=[NH+]CCC3CCCCN3)[nH]c(N3CCc4ccccc4C3)n1)C2 (tautomer)
c1ccc2c(c1)CCN(c1cc(=[NH+]CC[C@@H]3CCCCN3)[nH]c(N3CCc4ccccc4C3)n1)C2 (chirality)
c1ccc2c(c1)CCN(c1c/c(=[NH+]/CC[C@@H]3CCCCN3)[nH]c(N3CCc4ccccc4C3)n1)C2 (cis-trans isomerization)
c1ccc2c(c1)CCN(c1c/c(=[NH+]/CC[C@@H]3CCCCN3)[nH]c(N3CCc4ccccc4C3)n1)C2 (3D coordinates assigned)
c1ccc2c(c1)CCN(c1c/c(=[NH+]/CC[C@@H]3CCCCN3)[nH]c(N3CCc4ccccc4C3)n1)C2 (nonaromatic ring conformer: 81.97970566605903 kcal/mol)

>  <smiles>  (1) 
c1ccc2c(c1)CCN(c1cc(NCCC3CCCCN3)nc(N3CCc4ccccc4C3)n1)C2

>  <score_type>  (1) 
oracle

>  <origin>  (1) 
autodockgpu

>  <m_score__min__energy>  (1) 
-9.3699999999999992

>  <m_primary>  (1) 
energy

>  <meeko>  (1) 
{"free_energy": -9.2, "intermolecular_energy": -10.99, "internal_energy": -0.96, "cluster_size": 4, "cluster_id": 3, "rank_in_cluster": 1}

>  <energy>  (1) 
-9.37

>  <cluster_rmsd>  (1) 
0.0

>  <rmsd>  (1) 
270.23

>  <cluster>  (1) 
1

$$$$
VOUYAFWJUZHTKY-QHXHEQRTNA-O
     RDKit          3D

 72 77  0  0  0  0  0  0  0  0999 V2000
  139.3237   66.4050  227.3443 H   0  0  0  0  0  0  0  0  0  0  0  0
  139.6070   67.4600  227.2150 C   0  0  0  0  0  0  0  0  0  0  0  0
  140.3480   68.1110  228.2060 C   0  0  0  0  0  0  0  0  0  0  0  0
  140.6475   67.5670  229.1140 H   0  0  0  0  0  0  0  0  0  0  0  0
  140.7090   69.4520  228.0450 C   0  0  0  0  0  0  0  0  0  0  0  0
  141.2768   69.9672  228.8338 H   0  0  0  0  0  0  0  0  0  0  0  0
  140.3470   70.1410  226.8770 C   0  0  0  0  0  0  0  0  0  0  0  0
  139.6040   69.4900  225.8820 C   0  0  0  0  0  0  0  0  0  0  0  0
  139.2260   68.1490  226.0600 C   0  0  0  0  0  0  0  0  0  0  0  0
  138.6290   67.6400  225.2890 H   0  0  0  0  0  0  0  0  0  0  0  0
  139.1440   70.2640  224.6740 C   0  0  0  0  0  0  0  0  0  0  0  0
  138.1871   70.7531  224.9086 H   0  0  0  0  0  0  0  0  0  0  0  0
  139.0344   69.5571  223.8383 H   0  0  0  0  0  0  0  0  0  0  0  0
  140.1230   71.2970  224.2740 N   0  0  0  0  0  0  0  0  0  0  0  0
  140.0950   71.7750  222.9060 C   0  0  0  0  0  0  0  0  0  0  0  0
  139.6880   73.0460  222.6500 N   0  0  0  0  0  0  0  0  0  0  0  0
  139.6210   73.5480  221.3910 C   0  0  0  0  0  0  0  0  0  0  0  0
  139.1060   74.8800  221.1940 N   0  0  0  0  0  0  0  0  0  0  0  0
  139.1170   75.8830  222.2620 C   0  0  0  0  0  0  0  0  0  0  0  0
  139.3014   75.3873  223.2265 H   0  0  0  0  0  0  0  0  0  0  0  0
  138.1441   76.3956  222.2884 H   0  0  0  0  0  0  0  0  0  0  0  0
  140.2050   76.8940  222.0030 C   0  0  0  0  0  0  0  0  0  0  0  0
  140.6330   77.7320  223.0440 C   0  0  0  0  0  0  0  0  0  0  0  0
  140.1785   77.6399  224.0415 H   0  0  0  0  0  0  0  0  0  0  0  0
  141.6330   78.6830  222.8220 C   0  0  0  0  0  0  0  0  0  0  0  0
  141.9779   79.3218  223.6484 H   0  0  0  0  0  0  0  0  0  0  0  0
  142.1940   78.8220  221.5510 C   0  0  0  0  0  0  0  0  0  0  0  0
  142.9907   79.5612  221.3811 H   0  0  0  0  0  0  0  0  0  0  0  0
  141.7460   78.0240  220.4930 C   0  0  0  0  0  0  0  0  0  0  0  0
  142.1860   78.1460  219.4922 H   0  0  0  0  0  0  0  0  0  0  0  0
  140.7390   77.0690  220.7000 C   0  0  0  0  0  0  0  0  0  0  0  0
  140.3120   76.1930  219.5390 C   0  0  0  0  0  0  0  0  0  0  0  0
  141.1176   75.4759  219.3230 H   0  0  0  0  0  0  0  0  0  0  0  0
  140.1146   76.8499  218.6790 H   0  0  0  0  0  0  0  0  0  0  0  0
  139.0270   75.4140  219.8350 C   0  0  0  0  0  0  0  0  0  0  0  0
  138.9219   74.5868  219.1176 H   0  0  0  0  0  0  0  0  0  0  0  0
  138.1556   76.0790  219.7433 H   0  0  0  0  0  0  0  0  0  0  0  0
  139.9620   72.7580  220.3310 N   0  0  0  0  0  0  0  0  0  0  0  0
  139.8550   73.1530  219.3740 H   0  0  0  0  0  0  0  0  0  0  0  0
  140.3850   71.4670  220.5170 C   0  0  0  0  0  0  0  0  0  0  0  0
  140.7160   70.6950  219.5070 N   0  0  0  0  0  0  0  0  0  0  0  0
  140.1060   69.8780  219.2680 H   0  0  0  0  0  0  0  0  0  0  0  0
  141.8820   70.8830  218.6390 C   0  0  0  0  0  0  0  0  0  0  0  0
  141.9100   70.0765  217.8915 H   0  0  0  0  0  0  0  0  0  0  0  0
  141.7995   71.8605  218.1414 H   0  0  0  0  0  0  0  0  0  0  0  0
  143.1830   70.8540  219.4640 C   0  0  0  0  0  0  0  0  0  0  0  0
  143.0972   70.0578  220.2182 H   0  0  0  0  0  0  0  0  0  0  0  0
  144.0062   70.6781  218.7559 H   0  0  0  0  0  0  0  0  0  0  0  0
  143.4930   72.1810  220.1910 C   0  0  1  0  0  0  0  0  0  0  0  0
  142.9958   72.1433  221.1715 H   0  0  0  0  0  0  0  0  0  0  0  0
  144.9440   72.3380  220.4090 N   0  0  0  0  0  0  0  0  0  0  0  0
  145.2770   71.5230  220.9760 H   0  0  0  0  0  0  0  0  0  0  0  0
  145.2290   73.5510  221.1890 C   0  0  0  0  0  0  0  0  0  0  0  0
  146.3141   73.6290  221.3515 H   0  0  0  0  0  0  0  0  0  0  0  0
  144.7023   73.4835  222.1523 H   0  0  0  0  0  0  0  0  0  0  0  0
  144.7410   74.7990  220.4480 C   0  0  0  0  0  0  0  0  0  0  0  0
  145.2895   74.8951  219.4993 H   0  0  0  0  0  0  0  0  0  0  0  0
  144.9204   75.6821  221.0789 H   0  0  0  0  0  0  0  0  0  0  0  0
  143.2430   74.6930  220.1560 C   0  0  0  0  0  0  0  0  0  0  0  0
  142.9346   75.5455  219.5329 H   0  0  0  0  0  0  0  0  0  0  0  0
  142.6938   74.7009  221.1091 H   0  0  0  0  0  0  0  0  0  0  0  0
  142.9310   73.3910  219.4170 C   0  0  0  0  0  0  0  0  0  0  0  0
  143.3876   73.4244  218.4168 H   0  0  0  0  0  0  0  0  0  0  0  0
  141.8395   73.2831  219.3329 H   0  0  0  0  0  0  0  0  0  0  0  0
  140.4520   70.9550  221.8230 C   0  0  0  0  0  0  0  0  0  0  0  0
  140.7815   69.9199  221.9964 H   0  0  0  0  0  0  0  0  0  0  0  0
  141.0640   71.8860  225.2530 C   0  0  0  0  0  0  0  0  0  0  0  0
  141.0859   72.9761  225.1074 H   0  0  0  0  0  0  0  0  0  0  0  0
  142.0503   71.4309  225.0792 H   0  0  0  0  0  0  0  0  0  0  0  0
  140.6710   71.5940  226.7050 C   0  0  0  0  0  0  0  0  0  0  0  0
  139.7890   72.1957  226.9697 H   0  0  0  0  0  0  0  0  0  0  0  0
  141.5153   71.8512  227.3615 H   0  0  0  0  0  0  0  0  0  0  0  0
  1  2  1  0
  2  3  2  0
  3  4  1  0
  3  5  1  0
  5  6  1  0
  5  7  2  0
  7  8  1  0
  8  9  2  0
  9 10  1  0
  8 11  1  0
 11 12  1  0
 11 13  1  0
 11 14  1  0
 14 15  1  0
 15 16  1  0
 16 17  2  0
 17 18  1  0
 18 19  1  0
 19 20  1  0
 19 21  1  0
 19 22  1  0
 22 23  2  0
 23 24  1  0
 23 25  1  0
 25 26  1  0
 25 27  2  0
 27 28  1  0
 27 29  1  0
 29 30  1  0
 29 31  2  0
 31 32  1  0
 32 33  1  0
 32 34  1  0
 32 35  1  0
 35 36  1  0
 35 37  1  0
 17 38  1  0
 38 39  1  0
 38 40  1  0
 40 41  2  0
 41 42  1  0
 41 43  1  0
 43 44  1  0
 43 45  1  0
 43 46  1  0
 46 47  1  0
 46 48  1  0
 46 49  1  0
 49 50  1  1
 49 51  1  0
 51 52  1  0
 51 53  1  0
 53 54  1  0
 53 55  1  0
 53 56  1  0
 56 57  1  0
 56 58  1  0
 56 59  1  0
 59 60  1  0
 59 61  1  0
 59 62  1  0
 62 63  1  0
 62 64  1  0
 40 65  1  0
 65 66  1  0
 14 67  1  0
 67 68  1  0
 67 69  1  0
 67 70  1  0
 70 71  1  0
 70 72  1  0
  9  2  1  0
 65 15  2  0
 70  7  1  0
 35 18  1  0
 62 49  1  0
 31 22  1  0
M  CHG  1  41   1
M  END
>  <UniqueID>  (2) 
585

>  <SMILES>  (2) 
c1ccc2c(c1)CCN(c1c/c(=[NH+]/CC[C@@H]3CCCCN3)[nH]c(N3CCc4ccccc4C3)n1)C2

>  <Energy>  (2) 
81.97970566605903

>  <Genealogy>  (2) 
c1ccc2c(c1)CCN(c1cc([NH2+]CCC3CCCCN3)nc(N3CCc4ccccc4C3)n1)C2 (protonated)
c1ccc2c(c1)CCN(c1cc(=[NH+]CCC3CCCCN3)[nH]c(N3CCc4ccccc4C3)n1)C2 (tautomer)
c1ccc2c(c1)CCN(c1cc(=[NH+]CC[C@@H]3CCCCN3)[nH]c(N3CCc4ccccc4C3)n1)C2 (chirality)
c1ccc2c(c1)CCN(c1c/c(=[NH+]/CC[C@@H]3CCCCN3)[nH]c(N3CCc4ccccc4C3)n1)C2 (cis-trans isomerization)
c1ccc2c(c1)CCN(c1c/c(=[NH+]/CC[C@@H]3CCCCN3)[nH]c(N3CCc4ccccc4C3)n1)C2 (3D coordinates assigned)
c1ccc2c(c1)CCN(c1c/c(=[NH+]/CC[C@@H]3CCCCN3)[nH]c(N3CCc4ccccc4C3)n1)C2 (nonaromatic ring conformer: 81.97970566605903 kcal/mol)

>  <smiles>  (2) 
c1ccc2c(c1)CCN(c1cc(NCCC3CCCCN3)nc(N3CCc4ccccc4C3)n1)C2

>  <score_type>  (2) 
oracle

>  <origin>  (2) 
autodockgpu

>  <m_score__min__energy>  (2) 
-9.3699999999999992

>  <m_primary>  (2) 
energy

>  <meeko>  (2) 
{"free_energy": -8.89, "intermolecular_energy": -10.68, "internal_energy": -1.43, "cluster_size": 5, "cluster_id": 1, "rank_in_cluster": 3}

>  <energy>  (2) 
-8.92

>  <cluster_rmsd>  (2) 
0.85

>  <rmsd>  (2) 
270.19

>  <cluster>  (2) 
1

$$$$
VOUYAFWJUZHTKY-QHXHEQRTNA-O
     RDKit          3D

 72 77  0  0  0  0  0  0  0  0999 V2000
  140.8956   71.4416  229.2717 H   0  0  0  0  0  0  0  0  0  0  0  0
  140.5510   71.0000  228.3250 C   0  0  0  0  0  0  0  0  0  0  0  0
  139.6790   69.9090  228.3410 C   0  0  0  0  0  0  0  0  0  0  0  0
  139.3379   69.4928  229.3004 H   0  0  0  0  0  0  0  0  0  0  0  0
  139.2390   69.3450  227.1400 C   0  0  0  0  0  0  0  0  0  0  0  0
  138.5661   68.4750  227.1549 H   0  0  0  0  0  0  0  0  0  0  0  0
  139.6560   69.8890  225.9150 C   0  0  0  0  0  0  0  0  0  0  0  0
  140.5320   70.9840  225.8980 C   0  0  0  0  0  0  0  0  0  0  0  0
  140.9860   71.5310  227.1090 C   0  0  0  0  0  0  0  0  0  0  0  0
  141.6858   72.3796  227.0997 H   0  0  0  0  0  0  0  0  0  0  0  0
  141.0440   71.5020  224.5790 C   0  0  0  0  0  0  0  0  0  0  0  0
  141.9379   70.9275  224.2946 H   0  0  0  0  0  0  0  0  0  0  0  0
  141.2795   72.5695  224.7014 H   0  0  0  0  0  0  0  0  0  0  0  0
  140.0350   71.3770  223.5060 N   0  0  0  0  0  0  0  0  0  0  0  0
  140.1540   72.2420  222.3480 C   0  0  0  0  0  0  0  0  0  0  0  0
  139.7040   73.5210  222.4200 N   0  0  0  0  0  0  0  0  0  0  0  0
  139.7690   74.3740  221.3660 C   0  0  0  0  0  0  0  0  0  0  0  0
  139.1990   75.6930  221.4960 N   0  0  0  0  0  0  0  0  0  0  0  0
  139.4300   76.5250  222.6800 C   0  0  0  0  0  0  0  0  0  0  0  0
  139.8331   75.9012  223.4914 H   0  0  0  0  0  0  0  0  0  0  0  0
  138.4786   76.9770  222.9969 H   0  0  0  0  0  0  0  0  0  0  0  0
  140.4150   77.6180  222.3530 C   0  0  0  0  0  0  0  0  0  0  0  0
  141.0490   78.3140  223.3940 C   0  0  0  0  0  0  0  0  0  0  0  0
  140.8287   78.0522  224.4394 H   0  0  0  0  0  0  0  0  0  0  0  0
  141.9580   79.3370  223.1120 C   0  0  0  0  0  0  0  0  0  0  0  0
  142.4671   79.8626  223.9334 H   0  0  0  0  0  0  0  0  0  0  0  0
  142.2200   79.6920  221.7870 C   0  0  0  0  0  0  0  0  0  0  0  0
  142.9460   80.4882  221.5657 H   0  0  0  0  0  0  0  0  0  0  0  0
  141.5620   79.0380  220.7410 C   0  0  0  0  0  0  0  0  0  0  0  0
  141.7662   79.3299  219.7003 H   0  0  0  0  0  0  0  0  0  0  0  0
  140.6430   78.0120  221.0090 C   0  0  0  0  0  0  0  0  0  0  0  0
  139.9850   77.2970  219.8450 C   0  0  0  0  0  0  0  0  0  0  0  0
  140.7353   76.6623  219.3507 H   0  0  0  0  0  0  0  0  0  0  0  0
  139.5907   78.0629  219.1609 H   0  0  0  0  0  0  0  0  0  0  0  0
  138.8120   76.4180  220.2870 C   0  0  0  0  0  0  0  0  0  0  0  0
  138.5648   75.7021  219.4893 H   0  0  0  0  0  0  0  0  0  0  0  0
  137.9308   77.0439  220.4913 H   0  0  0  0  0  0  0  0  0  0  0  0
  140.2950   73.9450  220.1820 N   0  0  0  0  0  0  0  0  0  0  0  0
  140.2880   74.6050  219.3770 H   0  0  0  0  0  0  0  0  0  0  0  0
  140.7720   72.6670  220.0410 C   0  0  0  0  0  0  0  0  0  0  0  0
  141.2790   72.2390  218.9080 N   0  0  0  0  0  0  0  0  0  0  0  0
  140.6490   72.1120  218.0810 H   0  0  0  0  0  0  0  0  0  0  0  0
  142.6940   71.9330  218.6720 C   0  0  0  0  0  0  0  0  0  0  0  0
  142.8693   70.8641  218.8636 H   0  0  0  0  0  0  0  0  0  0  0  0
  142.9401   72.1784  217.6284 H   0  0  0  0  0  0  0  0  0  0  0  0
  143.5930   72.7680  219.6030 C   0  0  0  0  0  0  0  0  0  0  0  0
  143.1346   72.7854  220.6028 H   0  0  0  0  0  0  0  0  0  0  0  0
  144.5844   72.2914  219.6007 H   0  0  0  0  0  0  0  0  0  0  0  0
  143.7960   74.2260  219.1360 C   0  0  1  0  0  0  0  0  0  0  0  0
  144.8770   74.4291  219.1503 H   0  0  0  0  0  0  0  0  0  0  0  0
  143.3040   74.4130  217.7570 N   0  0  0  0  0  0  0  0  0  0  0  0
  143.8260   73.7520  217.1340 H   0  0  0  0  0  0  0  0  0  0  0  0
  143.5890   75.7740  217.2790 C   0  0  0  0  0  0  0  0  0  0  0  0
  143.2299   75.8758  216.2443 H   0  0  0  0  0  0  0  0  0  0  0  0
  144.6747   75.9447  217.3249 H   0  0  0  0  0  0  0  0  0  0  0  0
  142.8900   76.8140  218.1580 C   0  0  0  0  0  0  0  0  0  0  0  0
  141.8011   76.6736  218.0896 H   0  0  0  0  0  0  0  0  0  0  0  0
  143.1639   77.8200  217.8073 H   0  0  0  0  0  0  0  0  0  0  0  0
  143.3280   76.6600  219.6170 C   0  0  0  0  0  0  0  0  0  0  0  0
  142.7381   77.3428  220.2462 H   0  0  0  0  0  0  0  0  0  0  0  0
  144.3981   76.9023  219.6950 H   0  0  0  0  0  0  0  0  0  0  0  0
  143.1100   75.2230  220.0920 C   0  0  0  0  0  0  0  0  0  0  0  0
  142.0309   75.0116  220.1215 H   0  0  0  0  0  0  0  0  0  0  0  0
  143.5470   75.1107  221.0952 H   0  0  0  0  0  0  0  0  0  0  0  0
  140.7010   71.7900  221.1360 C   0  0  0  0  0  0  0  0  0  0  0  0
  141.0707   70.7580  221.0450 H   0  0  0  0  0  0  0  0  0  0  0  0
  138.9680   70.3530  223.5680 C   0  0  0  0  0  0  0  0  0  0  0  0
  138.8808   69.8760  222.5807 H   0  0  0  0  0  0  0  0  0  0  0  0
  138.0371   70.8617  223.8589 H   0  0  0  0  0  0  0  0  0  0  0  0
  139.2470   69.2680  224.6130 C   0  0  0  0  0  0  0  0  0  0  0  0
  140.0566   68.6167  224.2520 H   0  0  0  0  0  0  0  0  0  0  0  0
  138.3306   68.6802  224.7704 H   0  0  0  0  0  0  0  0  0  0  0  0
  1  2  1  0
  2  3  2  0
  3  4  1  0
  3  5  1  0
  5  6  1  0
  5  7  2  0
  7  8  1  0
  8  9  2  0
  9 10  1  0
  8 11  1  0
 11 12  1  0
 11 13  1  0
 11 14  1  0
 14 15  1  0
 15 16  1  0
 16 17  2  0
 17 18  1  0
 18 19  1  0
 19 20  1  0
 19 21  1  0
 19 22  1  0
 22 23  2  0
 23 24  1  0
 23 25  1  0
 25 26  1  0
 25 27  2  0
 27 28  1  0
 27 29  1  0
 29 30  1  0
 29 31  2  0
 31 32  1  0
 32 33  1  0
 32 34  1  0
 32 35  1  0
 35 36  1  0
 35 37  1  0
 17 38  1  0
 38 39  1  0
 38 40  1  0
 40 41  2  0
 41 42  1  0
 41 43  1  0
 43 44  1  0
 43 45  1  0
 43 46  1  0
 46 47  1  0
 46 48  1  0
 46 49  1  0
 49 50  1  6
 49 51  1  0
 51 52  1  0
 51 53  1  0
 53 54  1  0
 53 55  1  0
 53 56  1  0
 56 57  1  0
 56 58  1  0
 56 59  1  0
 59 60  1  0
 59 61  1  0
 59 62  1  0
 62 63  1  0
 62 64  1  0
 40 65  1  0
 65 66  1  0
 14 67  1  0
 67 68  1  0
 67 69  1  0
 67 70  1  0
 70 71  1  0
 70 72  1  0
  9  2  1  0
 65 15  2  0
 70  7  1  0
 35 18  1  0
 62 49  1  0
 31 22  1  0
M  CHG  1  41   1
M  END
>  <UniqueID>  (3) 
585

>  <SMILES>  (3) 
c1ccc2c(c1)CCN(c1c/c(=[NH+]/CC[C@@H]3CCCCN3)[nH]c(N3CCc4ccccc4C3)n1)C2

>  <Energy>  (3) 
81.97970566605903

>  <Genealogy>  (3) 
c1ccc2c(c1)CCN(c1cc([NH2+]CCC3CCCCN3)nc(N3CCc4ccccc4C3)n1)C2 (protonated)
c1ccc2c(c1)CCN(c1cc(=[NH+]CCC3CCCCN3)[nH]c(N3CCc4ccccc4C3)n1)C2 (tautomer)
c1ccc2c(c1)CCN(c1cc(=[NH+]CC[C@@H]3CCCCN3)[nH]c(N3CCc4ccccc4C3)n1)C2 (chirality)
c1ccc2c(c1)CCN(c1c/c(=[NH+]/CC[C@@H]3CCCCN3)[nH]c(N3CCc4ccccc4C3)n1)C2 (cis-trans isomerization)
c1ccc2c(c1)CCN(c1c/c(=[NH+]/CC[C@@H]3CCCCN3)[nH]c(N3CCc4ccccc4C3)n1)C2 (3D coordinates assigned)
c1ccc2c(c1)CCN(c1c/c(=[NH+]/CC[C@@H]3CCCCN3)[nH]c(N3CCc4ccccc4C3)n1)C2 (nonaromatic ring conformer: 81.97970566605903 kcal/mol)

>  <smiles>  (3) 
c1ccc2c(c1)CCN(c1cc(NCCC3CCCCN3)nc(N3CCc4ccccc4C3)n1)C2

>  <score_type>  (3) 
oracle

>  <origin>  (3) 
autodockgpu

>  <m_score__min__energy>  (3) 
-9.3699999999999992

>  <m_primary>  (3) 
energy

>  <meeko>  (3) 
{"free_energy": -8.65, "intermolecular_energy": -10.44, "internal_energy": -1.54, "cluster_size": 5, "cluster_id": 1, "rank_in_cluster": 5}

>  <energy>  (3) 
-8.89

>  <cluster_rmsd>  (3) 
1.35

>  <rmsd>  (3) 
270.13

>  <cluster>  (3) 
1

$$$$
VOUYAFWJUZHTKY-QHXHEQRTNA-O
     RDKit          3D

 72 77  0  0  0  0  0  0  0  0999 V2000
  131.9060   78.0150  227.5048 H   0  0  0  0  0  0  0  0  0  0  0  0
  132.1670   76.9550  227.3700 C   0  0  0  0  0  0  0  0  0  0  0  0
  131.3500   75.9610  227.9140 C   0  0  0  0  0  0  0  0  0  0  0  0
  130.4468   76.2394  228.4768 H   0  0  0  0  0  0  0  0  0  0  0  0
  131.6790   74.6120  227.7440 C   0  0  0  0  0  0  0  0  0  0  0  0
  131.0441   73.8307  228.1873 H   0  0  0  0  0  0  0  0  0  0  0  0
  132.8190   74.2560  227.0080 C   0  0  0  0  0  0  0  0  0  0  0  0
  133.6400   75.2530  226.4620 C   0  0  0  0  0  0  0  0  0  0  0  0
  133.3150   76.6050  226.6550 C   0  0  0  0  0  0  0  0  0  0  0  0
  133.9655   77.3903  226.2425 H   0  0  0  0  0  0  0  0  0  0  0  0
  134.9090   74.8610  225.7510 C   0  0  0  0  0  0  0  0  0  0  0  0
  135.7154   74.7621  226.4926 H   0  0  0  0  0  0  0  0  0  0  0  0
  135.1404   75.6434  225.0132 H   0  0  0  0  0  0  0  0  0  0  0  0
  134.7660   73.5800  225.0280 N   0  0  0  0  0  0  0  0  0  0  0  0
  135.6690   73.3070  223.9280 C   0  0  0  0  0  0  0  0  0  0  0  0
  136.5660   72.2920  224.0340 N   0  0  0  0  0  0  0  0  0  0  0  0
  137.4510   71.9990  223.0480 C   0  0  0  0  0  0  0  0  0  0  0  0
  138.4230   70.9570  223.2670 N   0  0  0  0  0  0  0  0  0  0  0  0
  139.7820   71.2470  223.7310 C   0  0  0  0  0  0  0  0  0  0  0  0
  139.9880   72.3206  223.6089 H   0  0  0  0  0  0  0  0  0  0  0  0
  140.5002   70.6613  223.1384 H   0  0  0  0  0  0  0  0  0  0  0  0
  139.9170   70.8740  225.1860 C   0  0  0  0  0  0  0  0  0  0  0  0
  140.9960   71.3730  225.9320 C   0  0  0  0  0  0  0  0  0  0  0  0
  141.7300   72.0379  225.4534 H   0  0  0  0  0  0  0  0  0  0  0  0
  141.1440   71.0310  227.2780 C   0  0  0  0  0  0  0  0  0  0  0  0
  141.9803   71.4435  227.8614 H   0  0  0  0  0  0  0  0  0  0  0  0
  140.2310   70.1660  227.8830 C   0  0  0  0  0  0  0  0  0  0  0  0
  140.3415   69.9089  228.9468 H   0  0  0  0  0  0  0  0  0  0  0  0
  139.1760   69.6250  227.1410 C   0  0  0  0  0  0  0  0  0  0  0  0
  138.4657   68.9367  227.6224 H   0  0  0  0  0  0  0  0  0  0  0  0
  139.0180   69.9550  225.7860 C   0  0  0  0  0  0  0  0  0  0  0  0
  137.8360   69.3840  225.0280 C   0  0  0  0  0  0  0  0  0  0  0  0
  136.9183   69.8766  225.3818 H   0  0  0  0  0  0  0  0  0  0  0  0
  137.8099   68.3003  225.2149 H   0  0  0  0  0  0  0  0  0  0  0  0
  137.9550   69.5940  223.5150 C   0  0  0  0  0  0  0  0  0  0  0  0
  136.9724   69.4481  223.0425 H   0  0  0  0  0  0  0  0  0  0  0  0
  138.6663   68.8701  223.0906 H   0  0  0  0  0  0  0  0  0  0  0  0
  137.4600   72.7460  221.9060 N   0  0  0  0  0  0  0  0  0  0  0  0
  138.1820   72.5290  221.1870 H   0  0  0  0  0  0  0  0  0  0  0  0
  136.5800   73.7830  221.7300 C   0  0  0  0  0  0  0  0  0  0  0  0
  136.5780   74.5110  220.6370 N   0  0  0  0  0  0  0  0  0  0  0  0
  135.7640   74.4460  219.9820 H   0  0  0  0  0  0  0  0  0  0  0  0
  137.6290   75.4540  220.2410 C   0  0  0  0  0  0  0  0  0  0  0  0
  138.3064   74.9616  219.5278 H   0  0  0  0  0  0  0  0  0  0  0  0
  137.1594   76.3330  219.7754 H   0  0  0  0  0  0  0  0  0  0  0  0
  138.4360   75.9150  221.4700 C   0  0  0  0  0  0  0  0  0  0  0  0
  138.5167   77.0116  221.4395 H   0  0  0  0  0  0  0  0  0  0  0  0
  137.8968   75.5548  222.3586 H   0  0  0  0  0  0  0  0  0  0  0  0
  139.8610   75.3250  221.5420 C   0  0  1  0  0  0  0  0  0  0  0  0
  140.3827   75.8232  222.3725 H   0  0  0  0  0  0  0  0  0  0  0  0
  139.8190   73.8760  221.8180 N   0  0  0  0  0  0  0  0  0  0  0  0
  139.3170   73.7330  222.7250 H   0  0  0  0  0  0  0  0  0  0  0  0
  141.1760   73.3350  221.9850 C   0  0  0  0  0  0  0  0  0  0  0  0
  141.1109   72.2601  222.2093 H   0  0  0  0  0  0  0  0  0  0  0  0
  141.6698   73.8684  222.8106 H   0  0  0  0  0  0  0  0  0  0  0  0
  141.9990   73.5330  220.7100 C   0  0  0  0  0  0  0  0  0  0  0  0
  141.5320   72.9729  219.8864 H   0  0  0  0  0  0  0  0  0  0  0  0
  143.0213   73.1662  220.8844 H   0  0  0  0  0  0  0  0  0  0  0  0
  142.0600   75.0170  220.3400 C   0  0  0  0  0  0  0  0  0  0  0  0
  142.5637   75.1275  219.3684 H   0  0  0  0  0  0  0  0  0  0  0  0
  142.6184   75.5557  221.1197 H   0  0  0  0  0  0  0  0  0  0  0  0
  140.6510   75.6030  220.2460 C   0  0  0  0  0  0  0  0  0  0  0  0
  140.1245   75.1445  219.3960 H   0  0  0  0  0  0  0  0  0  0  0  0
  140.7276   76.6910  220.1032 H   0  0  0  0  0  0  0  0  0  0  0  0
  135.6670   74.0800  222.7550 C   0  0  0  0  0  0  0  0  0  0  0  0
  134.9559   74.9114  222.6402 H   0  0  0  0  0  0  0  0  0  0  0  0
  133.7760   72.5640  225.4520 C   0  0  0  0  0  0  0  0  0  0  0  0
  134.2587   71.5757  225.4382 H   0  0  0  0  0  0  0  0  0  0  0  0
  132.9292   72.6143  224.7518 H   0  0  0  0  0  0  0  0  0  0  0  0
  133.2270   72.8210  226.8590 C   0  0  0  0  0  0  0  0  0  0  0  0
  134.0056   72.5870  227.6000 H   0  0  0  0  0  0  0  0  0  0  0  0
  132.3465   72.1816  227.0202 H   0  0  0  0  0  0  0  0  0  0  0  0
  1  2  1  0
  2  3  2  0
  3  4  1  0
  3  5  1  0
  5  6  1  0
  5  7  2  0
  7  8  1  0
  8  9  2  0
  9 10  1  0
  8 11  1  0
 11 12  1  0
 11 13  1  0
 11 14  1  0
 14 15  1  0
 15 16  1  0
 16 17  2  0
 17 18  1  0
 18 19  1  0
 19 20  1  0
 19 21  1  0
 19 22  1  0
 22 23  2  0
 23 24  1  0
 23 25  1  0
 25 26  1  0
 25 27  2  0
 27 28  1  0
 27 29  1  0
 29 30  1  0
 29 31  2  0
 31 32  1  0
 32 33  1  0
 32 34  1  0
 32 35  1  0
 35 36  1  0
 35 37  1  0
 17 38  1  0
 38 39  1  0
 38 40  1  0
 40 41  2  0
 41 42  1  0
 41 43  1  0
 43 44  1  0
 43 45  1  0
 43 46  1  0
 46 47  1  0
 46 48  1  0
 46 49  1  0
 49 50  1  1
 49 51  1  0
 51 52  1  0
 51 53  1  0
 53 54  1  0
 53 55  1  0
 53 56  1  0
 56 57  1  0
 56 58  1  0
 56 59  1  0
 59 60  1  0
 59 61  1  0
 59 62  1  0
 62 63  1  0
 62 64  1  0
 40 65  1  0
 65 66  1  0
 14 67  1  0
 67 68  1  0
 67 69  1  0
 67 70  1  0
 70 71  1  0
 70 72  1  0
  9  2  1  0
 65 15  2  0
 70  7  1  0
 35 18  1  0
 62 49  1  0
 31 22  1  0
M  CHG  1  41   1
M  END
>  <UniqueID>  (4) 
585

>  <SMILES>  (4) 
c1ccc2c(c1)CCN(c1c/c(=[NH+]/CC[C@@H]3CCCCN3)[nH]c(N3CCc4ccccc4C3)n1)C2

>  <Energy>  (4) 
81.97970566605903

>  <Genealogy>  (4) 
c1ccc2c(c1)CCN(c1cc([NH2+]CCC3CCCCN3)nc(N3CCc4ccccc4C3)n1)C2 (protonated)
c1ccc2c(c1)CCN(c1cc(=[NH+]CCC3CCCCN3)[nH]c(N3CCc4ccccc4C3)n1)C2 (tautomer)
c1ccc2c(c1)CCN(c1cc(=[NH+]CC[C@@H]3CCCCN3)[nH]c(N3CCc4ccccc4C3)n1)C2 (chirality)
c1ccc2c(c1)CCN(c1c/c(=[NH+]/CC[C@@H]3CCCCN3)[nH]c(N3CCc4ccccc4C3)n1)C2 (cis-trans isomerization)
c1ccc2c(c1)CCN(c1c/c(=[NH+]/CC[C@@H]3CCCCN3)[nH]c(N3CCc4ccccc4C3)n1)C2 (3D coordinates assigned)
c1ccc2c(c1)CCN(c1c/c(=[NH+]/CC[C@@H]3CCCCN3)[nH]c(N3CCc4ccccc4C3)n1)C2 (nonaromatic ring conformer: 81.97970566605903 kcal/mol)

>  <smiles>  (4) 
c1ccc2c(c1)CCN(c1cc(NCCC3CCCCN3)nc(N3CCc4ccccc4C3)n1)C2

>  <score_type>  (4) 
oracle

>  <origin>  (4) 
autodockgpu

>  <m_score__min__energy>  (4) 
-9.3699999999999992

>  <m_primary>  (4) 
energy

>  <meeko>  (4) 
{"free_energy": -8.22, "intermolecular_energy": -10.01, "internal_energy": -1.7, "cluster_size": 2, "cluster_id": 5, "rank_in_cluster": 2}

>  <energy>  (4) 
-8.71

>  <cluster_rmsd>  (4) 
1.02

>  <rmsd>  (4) 
270.06

>  <cluster>  (4) 
1

$$$$
VOUYAFWJUZHTKY-QHXHEQRTNA-O
     RDKit          3D

 72 77  0  0  0  0  0  0  0  0999 V2000
  140.5387   72.2191  229.3719 H   0  0  0  0  0  0  0  0  0  0  0  0
  140.3230   71.5800  228.5030 C   0  0  0  0  0  0  0  0  0  0  0  0
  139.5930   70.4000  228.6690 C   0  0  0  0  0  0  0  0  0  0  0  0
  139.2352   70.1115  229.6684 H   0  0  0  0  0  0  0  0  0  0  0  0
  139.3170   69.5860  227.5670 C   0  0  0  0  0  0  0  0  0  0  0  0
  138.7571   68.6488  227.7021 H   0  0  0  0  0  0  0  0  0  0  0  0
  139.7540   69.9640  226.2880 C   0  0  0  0  0  0  0  0  0  0  0  0
  140.4870   71.1470  226.1200 C   0  0  0  0  0  0  0  0  0  0  0  0
  140.7790   71.9490  227.2360 C   0  0  0  0  0  0  0  0  0  0  0  0
  141.3681   72.8695  227.1113 H   0  0  0  0  0  0  0  0  0  0  0  0
  141.0290   71.4970  224.7590 C   0  0  0  0  0  0  0  0  0  0  0  0
  142.0053   71.0073  224.6286 H   0  0  0  0  0  0  0  0  0  0  0  0
  141.1227   72.5915  224.7011 H   0  0  0  0  0  0  0  0  0  0  0  0
  140.1250   71.0570  223.6740 N   0  0  0  0  0  0  0  0  0  0  0  0
  140.2230   71.7190  222.3880 C   0  0  0  0  0  0  0  0  0  0  0  0
  139.7780   72.9960  222.2580 N   0  0  0  0  0  0  0  0  0  0  0  0
  139.8240   73.6640  221.0780 C   0  0  0  0  0  0  0  0  0  0  0  0
  139.2610   74.9890  221.0010 N   0  0  0  0  0  0  0  0  0  0  0  0
  139.2410   75.8930  222.1550 C   0  0  0  0  0  0  0  0  0  0  0  0
  139.4471   75.3201  223.0711 H   0  0  0  0  0  0  0  0  0  0  0  0
  138.2506   76.3661  222.2283 H   0  0  0  0  0  0  0  0  0  0  0  0
  140.2910   76.9610  221.9860 C   0  0  0  0  0  0  0  0  0  0  0  0
  140.6940   77.7180  223.0970 C   0  0  0  0  0  0  0  0  0  0  0  0
  140.2473   77.5214  224.0828 H   0  0  0  0  0  0  0  0  0  0  0  0
  141.6580   78.7190  222.9600 C   0  0  0  0  0  0  0  0  0  0  0  0
  141.9834   79.2933  223.8400 H   0  0  0  0  0  0  0  0  0  0  0  0
  142.2090   78.9910  221.7060 C   0  0  0  0  0  0  0  0  0  0  0  0
  142.9787   79.7700  221.6023 H   0  0  0  0  0  0  0  0  0  0  0  0
  141.7850   78.2760  220.5820 C   0  0  0  0  0  0  0  0  0  0  0  0
  142.2163   78.5027  219.5958 H   0  0  0  0  0  0  0  0  0  0  0  0
  140.8130   77.2710  220.7030 C   0  0  0  0  0  0  0  0  0  0  0  0
  140.4130   76.4870  219.4690 C   0  0  0  0  0  0  0  0  0  0  0  0
  141.2427   75.8210  219.1895 H   0  0  0  0  0  0  0  0  0  0  0  0
  140.1894   77.2100  218.6707 H   0  0  0  0  0  0  0  0  0  0  0  0
  139.1580   75.6400  219.6960 C   0  0  0  0  0  0  0  0  0  0  0  0
  139.0786   74.8774  218.9073 H   0  0  0  0  0  0  0  0  0  0  0  0
  138.2638   76.2799  219.6661 H   0  0  0  0  0  0  0  0  0  0  0  0
  140.3240   73.0430  219.9700 N   0  0  0  0  0  0  0  0  0  0  0  0
  140.3030   73.5630  219.0680 H   0  0  0  0  0  0  0  0  0  0  0  0
  140.7940   71.7570  220.0300 C   0  0  0  0  0  0  0  0  0  0  0  0
  141.2770   71.1460  218.9730 N   0  0  0  0  0  0  0  0  0  0  0  0
  140.8210   70.2650  218.6390 H   0  0  0  0  0  0  0  0  0  0  0  0
  142.4190   71.6040  218.1740 C   0  0  0  0  0  0  0  0  0  0  0  0
  142.3464   71.1777  217.1626 H   0  0  0  0  0  0  0  0  0  0  0  0
  142.4002   72.7028  218.1268 H   0  0  0  0  0  0  0  0  0  0  0  0
  143.7460   71.1580  218.8170 C   0  0  0  0  0  0  0  0  0  0  0  0
  143.5909   70.1742  219.2841 H   0  0  0  0  0  0  0  0  0  0  0  0
  144.4966   71.1308  218.0133 H   0  0  0  0  0  0  0  0  0  0  0  0
  144.2780   72.1290  219.8940 C   0  0  1  0  0  0  0  0  0  0  0  0
  143.9170   71.7709  220.8694 H   0  0  0  0  0  0  0  0  0  0  0  0
  145.7530   72.1360  219.9160 N   0  0  0  0  0  0  0  0  0  0  0  0
  146.0790   71.1610  220.1100 H   0  0  0  0  0  0  0  0  0  0  0  0
  146.2570   72.9850  221.0060 C   0  0  0  0  0  0  0  0  0  0  0  0
  147.3566   72.9538  221.0089 H   0  0  0  0  0  0  0  0  0  0  0  0
  145.8617   72.6068  221.9603 H   0  0  0  0  0  0  0  0  0  0  0  0
  145.7960   74.4330  220.8220 C   0  0  0  0  0  0  0  0  0  0  0  0
  146.2176   74.8317  219.8875 H   0  0  0  0  0  0  0  0  0  0  0  0
  146.1436   75.0298  221.6782 H   0  0  0  0  0  0  0  0  0  0  0  0
  144.2690   74.5020  220.7560 C   0  0  0  0  0  0  0  0  0  0  0  0
  143.9632   75.5317  220.5188 H   0  0  0  0  0  0  0  0  0  0  0  0
  143.8569   74.1986  221.7297 H   0  0  0  0  0  0  0  0  0  0  0  0
  143.7360   73.5580  219.6780 C   0  0  0  0  0  0  0  0  0  0  0  0
  144.0549   73.9205  218.6896 H   0  0  0  0  0  0  0  0  0  0  0  0
  142.6378   73.5345  219.7373 H   0  0  0  0  0  0  0  0  0  0  0  0
  140.7430   71.0710  221.2560 C   0  0  0  0  0  0  0  0  0  0  0  0
  141.1073   70.0356  221.3279 H   0  0  0  0  0  0  0  0  0  0  0  0
  139.1910   69.9240  223.8630 C   0  0  0  0  0  0  0  0  0  0  0  0
  139.2373   69.2782  222.9738 H   0  0  0  0  0  0  0  0  0  0  0  0
  138.1853   70.3447  224.0097 H   0  0  0  0  0  0  0  0  0  0  0  0
  139.5230   69.0810  225.0980 C   0  0  0  0  0  0  0  0  0  0  0  0
  140.4315   68.4927  224.9016 H   0  0  0  0  0  0  0  0  0  0  0  0
  138.6768   68.4109  225.3102 H   0  0  0  0  0  0  0  0  0  0  0  0
  1  2  1  0
  2  3  2  0
  3  4  1  0
  3  5  1  0
  5  6  1  0
  5  7  2  0
  7  8  1  0
  8  9  2  0
  9 10  1  0
  8 11  1  0
 11 12  1  0
 11 13  1  0
 11 14  1  0
 14 15  1  0
 15 16  1  0
 16 17  2  0
 17 18  1  0
 18 19  1  0
 19 20  1  0
 19 21  1  0
 19 22  1  0
 22 23  2  0
 23 24  1  0
 23 25  1  0
 25 26  1  0
 25 27  2  0
 27 28  1  0
 27 29  1  0
 29 30  1  0
 29 31  2  0
 31 32  1  0
 32 33  1  0
 32 34  1  0
 32 35  1  0
 35 36  1  0
 35 37  1  0
 17 38  1  0
 38 39  1  0
 38 40  1  0
 40 41  2  0
 41 42  1  0
 41 43  1  0
 43 44  1  0
 43 45  1  0
 43 46  1  0
 46 47  1  0
 46 48  1  0
 46 49  1  0
 49 50  1  1
 49 51  1  0
 51 52  1  0
 51 53  1  0
 53 54  1  0
 53 55  1  0
 53 56  1  0
 56 57  1  0
 56 58  1  0
 56 59  1  0
 59 60  1  0
 59 61  1  0
 59 62  1  0
 62 63  1  0
 62 64  1  0
 40 65  1  0
 65 66  1  0
 14 67  1  0
 67 68  1  0
 67 69  1  0
 67 70  1  0
 70 71  1  0
 70 72  1  0
  9  2  1  0
 65 15  2  0
 70  7  1  0
 35 18  1  0
 62 49  1  0
 31 22  1  0
M  CHG  1  41   1
M  END
>  <UniqueID>  (5) 
585

>  <SMILES>  (5) 
c1ccc2c(c1)CCN(c1c/c(=[NH+]/CC[C@@H]3CCCCN3)[nH]c(N3CCc4ccccc4C3)n1)C2

>  <Energy>  (5) 
81.97970566605903

>  <Genealogy>  (5) 
c1ccc2c(c1)CCN(c1cc([NH2+]CCC3CCCCN3)nc(N3CCc4ccccc4C3)n1)C2 (protonated)
c1ccc2c(c1)CCN(c1cc(=[NH+]CCC3CCCCN3)[nH]c(N3CCc4ccccc4C3)n1)C2 (tautomer)
c1ccc2c(c1)CCN(c1cc(=[NH+]CC[C@@H]3CCCCN3)[nH]c(N3CCc4ccccc4C3)n1)C2 (chirality)
c1ccc2c(c1)CCN(c1c/c(=[NH+]/CC[C@@H]3CCCCN3)[nH]c(N3CCc4ccccc4C3)n1)C2 (cis-trans isomerization)
c1ccc2c(c1)CCN(c1c/c(=[NH+]/CC[C@@H]3CCCCN3)[nH]c(N3CCc4ccccc4C3)n1)C2 (3D coordinates assigned)
c1ccc2c(c1)CCN(c1c/c(=[NH+]/CC[C@@H]3CCCCN3)[nH]c(N3CCc4ccccc4C3)n1)C2 (nonaromatic ring conformer: 81.97970566605903 kcal/mol)

>  <smiles>  (5) 
c1ccc2c(c1)CCN(c1cc(NCCC3CCCCN3)nc(N3CCc4ccccc4C3)n1)C2

>  <score_type>  (5) 
oracle

>  <origin>  (5) 
autodockgpu

>  <m_score__min__energy>  (5) 
-9.3699999999999992

>  <m_primary>  (5) 
energy

>  <meeko>  (5) 
{"free_energy": -8.92, "intermolecular_energy": -10.71, "internal_energy": -1.15, "cluster_size": 5, "cluster_id": 1, "rank_in_cluster": 2}

>  <energy>  (5) 
-8.65

>  <cluster_rmsd>  (5) 
1.19

>  <rmsd>  (5) 
270.0

>  <cluster>  (5) 
1

$$$$
VOUYAFWJUZHTKY-QHXHEQRTNA-O
     RDKit          3D

 72 77  0  0  0  0  0  0  0  0999 V2000
  140.9233   81.1663  224.6234 H   0  0  0  0  0  0  0  0  0  0  0  0
  141.0650   80.4230  223.8250 C   0  0  0  0  0  0  0  0  0  0  0  0
  142.1800   80.5030  222.9860 C   0  0  0  0  0  0  0  0  0  0  0  0
  142.9148   81.3097  223.1249 H   0  0  0  0  0  0  0  0  0  0  0  0
  142.3630   79.5600  221.9710 C   0  0  0  0  0  0  0  0  0  0  0  0
  143.2322   79.6350  221.3011 H   0  0  0  0  0  0  0  0  0  0  0  0
  141.4380   78.5170  221.8060 C   0  0  0  0  0  0  0  0  0  0  0  0
  140.3190   78.4360  222.6460 C   0  0  0  0  0  0  0  0  0  0  0  0
  140.1300   79.3990  223.6500 C   0  0  0  0  0  0  0  0  0  0  0  0
  139.2442   79.3475  224.3002 H   0  0  0  0  0  0  0  0  0  0  0  0
  139.2860   77.3660  222.4030 C   0  0  0  0  0  0  0  0  0  0  0  0
  138.5611   77.7337  221.6618 H   0  0  0  0  0  0  0  0  0  0  0  0
  138.7954   77.1428  223.3619 H   0  0  0  0  0  0  0  0  0  0  0  0
  139.8930   76.1160  221.8980 N   0  0  0  0  0  0  0  0  0  0  0  0
  139.1620   74.8770  222.0790 C   0  0  0  0  0  0  0  0  0  0  0  0
  139.8230   73.7660  222.4980 N   0  0  0  0  0  0  0  0  0  0  0  0
  139.2020   72.5720  222.6680 C   0  0  0  0  0  0  0  0  0  0  0  0
  139.9860   71.4210  223.0400 N   0  0  0  0  0  0  0  0  0  0  0  0
  140.9940   71.4780  224.1020 C   0  0  0  0  0  0  0  0  0  0  0  0
  141.2220   72.5291  224.3327 H   0  0  0  0  0  0  0  0  0  0  0  0
  141.9066   70.9656  223.7634 H   0  0  0  0  0  0  0  0  0  0  0  0
  140.4720   70.7960  225.3410 C   0  0  0  0  0  0  0  0  0  0  0  0
  141.1010   71.0240  226.5750 C   0  0  0  0  0  0  0  0  0  0  0  0
  141.9640   71.7038  226.6305 H   0  0  0  0  0  0  0  0  0  0  0  0
  140.6390   70.3940  227.7330 C   0  0  0  0  0  0  0  0  0  0  0  0
  141.1245   70.5944  228.6995 H   0  0  0  0  0  0  0  0  0  0  0  0
  139.5610   69.5100  227.6630 C   0  0  0  0  0  0  0  0  0  0  0  0
  139.1892   69.0256  228.5779 H   0  0  0  0  0  0  0  0  0  0  0  0
  138.9520   69.2380  226.4340 C   0  0  0  0  0  0  0  0  0  0  0  0
  138.1096   68.5322  226.3856 H   0  0  0  0  0  0  0  0  0  0  0  0
  139.4090   69.8600  225.2620 C   0  0  0  0  0  0  0  0  0  0  0  0
  138.6930   69.5740  223.9560 C   0  0  0  0  0  0  0  0  0  0  0  0
  137.7085   70.0642  223.9782 H   0  0  0  0  0  0  0  0  0  0  0  0
  138.5977   68.4825  223.8578 H   0  0  0  0  0  0  0  0  0  0  0  0
  139.4700   70.0860  222.7400 C   0  0  0  0  0  0  0  0  0  0  0  0
  138.8016   70.1351  221.8678 H   0  0  0  0  0  0  0  0  0  0  0  0
  140.3035   69.4046  222.5144 H   0  0  0  0  0  0  0  0  0  0  0  0
  137.8670   72.4630  222.4040 N   0  0  0  0  0  0  0  0  0  0  0  0
  137.4260   71.5250  222.4970 H   0  0  0  0  0  0  0  0  0  0  0  0
  137.1370   73.5450  221.9820 C   0  0  0  0  0  0  0  0  0  0  0  0
  135.8530   73.4550  221.7240 N   0  0  0  0  0  0  0  0  0  0  0  0
  135.5370   72.9230  220.8790 H   0  0  0  0  0  0  0  0  0  0  0  0
  134.7790   74.0280  222.5420 C   0  0  0  0  0  0  0  0  0  0  0  0
  135.1744   74.2691  223.5398 H   0  0  0  0  0  0  0  0  0  0  0  0
  134.4061   74.9381  222.0494 H   0  0  0  0  0  0  0  0  0  0  0  0
  133.6140   73.0300  222.6870 C   0  0  0  0  0  0  0  0  0  0  0  0
  132.8125   73.5148  223.2636 H   0  0  0  0  0  0  0  0  0  0  0  0
  133.2976   72.7589  221.6690 H   0  0  0  0  0  0  0  0  0  0  0  0
  134.0000   71.7160  223.4010 C   0  0  1  0  0  0  0  0  0  0  0  0
  133.1884   70.9946  223.2253 H   0  0  0  0  0  0  0  0  0  0  0  0
  135.2480   71.1590  222.8450 N   0  0  0  0  0  0  0  0  0  0  0  0
  135.1010   70.9900  221.8230 H   0  0  0  0  0  0  0  0  0  0  0  0
  135.5600   69.8580  223.4570 C   0  0  0  0  0  0  0  0  0  0  0  0
  136.4820   69.4598  223.0083 H   0  0  0  0  0  0  0  0  0  0  0  0
  134.7197   69.1716  223.2759 H   0  0  0  0  0  0  0  0  0  0  0  0
  135.7590   70.0040  224.9680 C   0  0  0  0  0  0  0  0  0  0  0  0
  136.6210   70.6602  225.1585 H   0  0  0  0  0  0  0  0  0  0  0  0
  135.9383   69.0094  225.4024 H   0  0  0  0  0  0  0  0  0  0  0  0
  134.5100   70.6110  225.6140 C   0  0  0  0  0  0  0  0  0  0  0  0
  134.7108   70.8058  226.6778 H   0  0  0  0  0  0  0  0  0  0  0  0
  133.6751   69.9025  225.5097 H   0  0  0  0  0  0  0  0  0  0  0  0
  134.1350   71.9230  224.9240 C   0  0  0  0  0  0  0  0  0  0  0  0
  134.9177   72.6708  225.1193 H   0  0  0  0  0  0  0  0  0  0  0  0
  133.1699   72.2698  225.3218 H   0  0  0  0  0  0  0  0  0  0  0  0
  137.7880   74.7770  221.8080 C   0  0  0  0  0  0  0  0  0  0  0  0
  137.2258   75.6569  221.4621 H   0  0  0  0  0  0  0  0  0  0  0  0
  141.1770   76.1260  221.1630 C   0  0  0  0  0  0  0  0  0  0  0  0
  141.0841   75.4709  220.2843 H   0  0  0  0  0  0  0  0  0  0  0  0
  141.9570   75.7736  221.8540 H   0  0  0  0  0  0  0  0  0  0  0  0
  141.5790   77.5270  220.6890 C   0  0  0  0  0  0  0  0  0  0  0  0
  140.9290   77.8276  219.8541 H   0  0  0  0  0  0  0  0  0  0  0  0
  142.6290   77.5054  220.3617 H   0  0  0  0  0  0  0  0  0  0  0  0
  1  2  1  0
  2  3  2  0
  3  4  1  0
  3  5  1  0
  5  6  1  0
  5  7  2  0
  7  8  1  0
  8  9  2  0
  9 10  1  0
  8 11  1  0
 11 12  1  0
 11 13  1  0
 11 14  1  0
 14 15  1  0
 15 16  1  0
 16 17  2  0
 17 18  1  0
 18 19  1  0
 19 20  1  0
 19 21  1  0
 19 22  1  0
 22 23  2  0
 23 24  1  0
 23 25  1  0
 25 26  1  0
 25 27  2  0
 27 28  1  0
 27 29  1  0
 29 30  1  0
 29 31  2  0
 31 32  1  0
 32 33  1  0
 32 34  1  0
 32 35  1  0
 35 36  1  0
 35 37  1  0
 17 38  1  0
 38 39  1  0
 38 40  1  0
 40 41  2  0
 41 42  1  0
 41 43  1  0
 43 44  1  0
 43 45  1  0
 43 46  1  0
 46 47  1  0
 46 48  1  0
 46 49  1  0
 49 50  1  1
 49 51  1  0
 51 52  1  0
 51 53  1  0
 53 54  1  0
 53 55  1  0
 53 56  1  0
 56 57  1  0
 56 58  1  0
 56 59  1  0
 59 60  1  0
 59 61  1  0
 59 62  1  0
 62 63  1  0
 62 64  1  0
 40 65  1  0
 65 66  1  0
 14 67  1  0
 67 68  1  0
 67 69  1  0
 67 70  1  0
 70 71  1  0
 70 72  1  0
  9  2  1  0
 65 15  2  0
 70  7  1  0
 35 18  1  0
 62 49  1  0
 31 22  1  0
M  CHG  1  41   1
M  END
>  <UniqueID>  (6) 
585

>  <SMILES>  (6) 
c1ccc2c(c1)CCN(c1c/c(=[NH+]/CC[C@@H]3CCCCN3)[nH]c(N3CCc4ccccc4C3)n1)C2

>  <Energy>  (6) 
81.97970566605903

>  <Genealogy>  (6) 
c1ccc2c(c1)CCN(c1cc([NH2+]CCC3CCCCN3)nc(N3CCc4ccccc4C3)n1)C2 (protonated)
c1ccc2c(c1)CCN(c1cc(=[NH+]CCC3CCCCN3)[nH]c(N3CCc4ccccc4C3)n1)C2 (tautomer)
c1ccc2c(c1)CCN(c1cc(=[NH+]CC[C@@H]3CCCCN3)[nH]c(N3CCc4ccccc4C3)n1)C2 (chirality)
c1ccc2c(c1)CCN(c1c/c(=[NH+]/CC[C@@H]3CCCCN3)[nH]c(N3CCc4ccccc4C3)n1)C2 (cis-trans isomerization)
c1ccc2c(c1)CCN(c1c/c(=[NH+]/CC[C@@H]3CCCCN3)[nH]c(N3CCc4ccccc4C3)n1)C2 (3D coordinates assigned)
c1ccc2c(c1)CCN(c1c/c(=[NH+]/CC[C@@H]3CCCCN3)[nH]c(N3CCc4ccccc4C3)n1)C2 (nonaromatic ring conformer: 81.97970566605903 kcal/mol)

>  <smiles>  (6) 
c1ccc2c(c1)CCN(c1cc(NCCC3CCCCN3)nc(N3CCc4ccccc4C3)n1)C2

>  <score_type>  (6) 
oracle

>  <origin>  (6) 
autodockgpu

>  <m_score__min__energy>  (6) 
-9.3699999999999992

>  <m_primary>  (6) 
energy

>  <meeko>  (6) 
{"free_energy": -8.25, "intermolecular_energy": -10.04, "internal_energy": -1.77, "cluster_size": 4, "cluster_id": 3, "rank_in_cluster": 3}

>  <energy>  (6) 
-9.27

>  <cluster_rmsd>  (6) 
0.0

>  <rmsd>  (6) 
270.41

>  <cluster>  (6) 
2

$$$$
VOUYAFWJUZHTKY-QHXHEQRTNA-O
     RDKit          3D

 72 77  0  0  0  0  0  0  0  0999 V2000
  140.3318   69.3952  226.5606 H   0  0  0  0  0  0  0  0  0  0  0  0
  139.7960   69.8280  225.7030 C   0  0  0  0  0  0  0  0  0  0  0  0
  138.4900   69.4200  225.4180 C   0  0  0  0  0  0  0  0  0  0  0  0
  137.9993   68.6667  226.0519 H   0  0  0  0  0  0  0  0  0  0  0  0
  137.8060   69.9680  224.3280 C   0  0  0  0  0  0  0  0  0  0  0  0
  136.7847   69.6327  224.0945 H   0  0  0  0  0  0  0  0  0  0  0  0
  138.4230   70.9460  223.5320 C   0  0  0  0  0  0  0  0  0  0  0  0
  139.7330   71.3550  223.8170 C   0  0  0  0  0  0  0  0  0  0  0  0
  140.4220   70.7850  224.9000 C   0  0  0  0  0  0  0  0  0  0  0  0
  141.4558   71.0923  225.1164 H   0  0  0  0  0  0  0  0  0  0  0  0
  140.4180   72.3380  222.9030 C   0  0  0  0  0  0  0  0  0  0  0  0
  140.8916   71.7856  222.0780 H   0  0  0  0  0  0  0  0  0  0  0  0
  141.1654   72.8879  223.4937 H   0  0  0  0  0  0  0  0  0  0  0  0
  139.4690   73.3210  222.3370 N   0  0  0  0  0  0  0  0  0  0  0  0
  139.9940   74.5860  221.8630 C   0  0  0  0  0  0  0  0  0  0  0  0
  141.0030   74.5930  220.9530 N   0  0  0  0  0  0  0  0  0  0  0  0
  141.5500   75.7430  220.4850 C   0  0  0  0  0  0  0  0  0  0  0  0
  142.6690   75.6680  219.5790 N   0  0  0  0  0  0  0  0  0  0  0  0
  144.0550   75.6490  220.0560 C   0  0  0  0  0  0  0  0  0  0  0  0
  144.0832   75.9682  221.1083 H   0  0  0  0  0  0  0  0  0  0  0  0
  144.6587   76.3350  219.4436 H   0  0  0  0  0  0  0  0  0  0  0  0
  144.6170   74.2550  219.9410 C   0  0  0  0  0  0  0  0  0  0  0  0
  145.7820   73.9180  220.6460 C   0  0  0  0  0  0  0  0  0  0  0  0
  146.2721   74.6694  221.2825 H   0  0  0  0  0  0  0  0  0  0  0  0
  146.3240   72.6340  220.5450 C   0  0  0  0  0  0  0  0  0  0  0  0
  147.2256   72.3709  221.1177 H   0  0  0  0  0  0  0  0  0  0  0  0
  145.7210   71.6850  219.7170 C   0  0  0  0  0  0  0  0  0  0  0  0
  146.1405   70.6704  219.6500 H   0  0  0  0  0  0  0  0  0  0  0  0
  144.5860   72.0200  218.9730 C   0  0  0  0  0  0  0  0  0  0  0  0
  144.1233   71.2702  218.3144 H   0  0  0  0  0  0  0  0  0  0  0  0
  144.0330   73.3070  219.0610 C   0  0  0  0  0  0  0  0  0  0  0  0
  142.7750   73.6180  218.2740 C   0  0  0  0  0  0  0  0  0  0  0  0
  141.9288   73.0902  218.7380 H   0  0  0  0  0  0  0  0  0  0  0  0
  142.9379   73.2871  217.2377 H   0  0  0  0  0  0  0  0  0  0  0  0
  142.4610   75.1170  218.2410 C   0  0  0  0  0  0  0  0  0  0  0  0
  141.4152   75.2697  217.9361 H   0  0  0  0  0  0  0  0  0  0  0  0
  143.1204   75.6227  217.5203 H   0  0  0  0  0  0  0  0  0  0  0  0
  141.0880   76.9450  220.9410 N   0  0  0  0  0  0  0  0  0  0  0  0
  141.5590   77.8090  220.6000 H   0  0  0  0  0  0  0  0  0  0  0  0
  140.0700   77.0110  221.8560 C   0  0  0  0  0  0  0  0  0  0  0  0
  139.6160   78.1590  222.3040 N   0  0  0  0  0  0  0  0  0  0  0  0
  138.8230   78.6250  221.8040 H   0  0  0  0  0  0  0  0  0  0  0  0
  140.1140   78.8660  223.4890 C   0  0  0  0  0  0  0  0  0  0  0  0
  139.4985   79.7614  223.6606 H   0  0  0  0  0  0  0  0  0  0  0  0
  140.0545   78.1905  224.3551 H   0  0  0  0  0  0  0  0  0  0  0  0
  141.5810   79.2910  223.2920 C   0  0  0  0  0  0  0  0  0  0  0  0
  141.9299   79.7704  224.2185 H   0  0  0  0  0  0  0  0  0  0  0  0
  142.1471   78.3799  223.0484 H   0  0  0  0  0  0  0  0  0  0  0  0
  141.7960   80.2780  222.1230 C   0  0  1  0  0  0  0  0  0  0  0  0
  142.7540   80.7903  222.2955 H   0  0  0  0  0  0  0  0  0  0  0  0
  141.8740   79.5620  220.8350 N   0  0  0  0  0  0  0  0  0  0  0  0
  142.6680   78.8810  220.8900 H   0  0  0  0  0  0  0  0  0  0  0  0
  142.1790   80.4910  219.7370 C   0  0  0  0  0  0  0  0  0  0  0  0
  142.2521   79.9263  218.7959 H   0  0  0  0  0  0  0  0  0  0  0  0
  143.1323   80.9950  219.9543 H   0  0  0  0  0  0  0  0  0  0  0  0
  141.0810   81.5500  219.6040 C   0  0  0  0  0  0  0  0  0  0  0  0
  140.1306   81.0571  219.3513 H   0  0  0  0  0  0  0  0  0  0  0  0
  141.3619   82.2580  218.8104 H   0  0  0  0  0  0  0  0  0  0  0  0
  140.9180   82.3160  220.9180 C   0  0  0  0  0  0  0  0  0  0  0  0
  140.0577   82.9966  220.8360 H   0  0  0  0  0  0  0  0  0  0  0  0
  141.8370   82.8884  221.1126 H   0  0  0  0  0  0  0  0  0  0  0  0
  140.6840   81.3460  222.0780 C   0  0  0  0  0  0  0  0  0  0  0  0
  139.7113   80.8501  221.9444 H   0  0  0  0  0  0  0  0  0  0  0  0
  140.6956   81.9111  223.0217 H   0  0  0  0  0  0  0  0  0  0  0  0
  139.5080   75.8160  222.3360 C   0  0  0  0  0  0  0  0  0  0  0  0
  138.6944   75.8435  223.0758 H   0  0  0  0  0  0  0  0  0  0  0  0
  138.0310   73.0040  222.1880 C   0  0  0  0  0  0  0  0  0  0  0  0
  137.6986   73.3390  221.1944 H   0  0  0  0  0  0  0  0  0  0  0  0
  137.4926   73.5223  222.9951 H   0  0  0  0  0  0  0  0  0  0  0  0
  137.7350   71.5070  222.3240 C   0  0  0  0  0  0  0  0  0  0  0  0
  138.0948   70.9833  221.4261 H   0  0  0  0  0  0  0  0  0  0  0  0
  136.6496   71.3664  222.4340 H   0  0  0  0  0  0  0  0  0  0  0  0
  1  2  1  0
  2  3  2  0
  3  4  1  0
  3  5  1  0
  5  6  1  0
  5  7  2  0
  7  8  1  0
  8  9  2  0
  9 10  1  0
  8 11  1  0
 11 12  1  0
 11 13  1  0
 11 14  1  0
 14 15  1  0
 15 16  1  0
 16 17  2  0
 17 18  1  0
 18 19  1  0
 19 20  1  0
 19 21  1  0
 19 22  1  0
 22 23  2  0
 23 24  1  0
 23 25  1  0
 25 26  1  0
 25 27  2  0
 27 28  1  0
 27 29  1  0
 29 30  1  0
 29 31  2  0
 31 32  1  0
 32 33  1  0
 32 34  1  0
 32 35  1  0
 35 36  1  0
 35 37  1  0
 17 38  1  0
 38 39  1  0
 38 40  1  0
 40 41  2  0
 41 42  1  0
 41 43  1  0
 43 44  1  0
 43 45  1  0
 43 46  1  0
 46 47  1  0
 46 48  1  0
 46 49  1  0
 49 50  1  1
 49 51  1  0
 51 52  1  0
 51 53  1  0
 53 54  1  0
 53 55  1  0
 53 56  1  0
 56 57  1  0
 56 58  1  0
 56 59  1  0
 59 60  1  0
 59 61  1  0
 59 62  1  0
 62 63  1  0
 62 64  1  0
 40 65  1  0
 65 66  1  0
 14 67  1  0
 67 68  1  0
 67 69  1  0
 67 70  1  0
 70 71  1  0
 70 72  1  0
  9  2  1  0
 65 15  2  0
 70  7  1  0
 35 18  1  0
 62 49  1  0
 31 22  1  0
M  CHG  1  41   1
M  END
>  <UniqueID>  (7) 
585

>  <SMILES>  (7) 
c1ccc2c(c1)CCN(c1c/c(=[NH+]/CC[C@@H]3CCCCN3)[nH]c(N3CCc4ccccc4C3)n1)C2

>  <Energy>  (7) 
81.97970566605903

>  <Genealogy>  (7) 
c1ccc2c(c1)CCN(c1cc([NH2+]CCC3CCCCN3)nc(N3CCc4ccccc4C3)n1)C2 (protonated)
c1ccc2c(c1)CCN(c1cc(=[NH+]CCC3CCCCN3)[nH]c(N3CCc4ccccc4C3)n1)C2 (tautomer)
c1ccc2c(c1)CCN(c1cc(=[NH+]CC[C@@H]3CCCCN3)[nH]c(N3CCc4ccccc4C3)n1)C2 (chirality)
c1ccc2c(c1)CCN(c1c/c(=[NH+]/CC[C@@H]3CCCCN3)[nH]c(N3CCc4ccccc4C3)n1)C2 (cis-trans isomerization)
c1ccc2c(c1)CCN(c1c/c(=[NH+]/CC[C@@H]3CCCCN3)[nH]c(N3CCc4ccccc4C3)n1)C2 (3D coordinates assigned)
c1ccc2c(c1)CCN(c1c/c(=[NH+]/CC[C@@H]3CCCCN3)[nH]c(N3CCc4ccccc4C3)n1)C2 (nonaromatic ring conformer: 81.97970566605903 kcal/mol)

>  <smiles>  (7) 
c1ccc2c(c1)CCN(c1cc(NCCC3CCCCN3)nc(N3CCc4ccccc4C3)n1)C2

>  <score_type>  (7) 
oracle

>  <origin>  (7) 
autodockgpu

>  <m_score__min__energy>  (7) 
-9.3699999999999992

>  <m_primary>  (7) 
energy

>  <meeko>  (7) 
{"free_energy": -8.16, "intermolecular_energy": -9.95, "internal_energy": -1.62, "cluster_size": 1, "cluster_id": 8, "rank_in_cluster": 1}

>  <energy>  (7) 
-9.26

>  <cluster_rmsd>  (7) 
0.19

>  <rmsd>  (7) 
270.45

>  <cluster>  (7) 
2

$$$$
VOUYAFWJUZHTKY-QHXHEQRTNA-O
     RDKit          3D

 72 77  0  0  0  0  0  0  0  0999 V2000
  141.5192   70.4287  229.2223 H   0  0  0  0  0  0  0  0  0  0  0  0
  141.0690   69.9810  228.3240 C   0  0  0  0  0  0  0  0  0  0  0  0
  140.4380   68.7370  228.4060 C   0  0  0  0  0  0  0  0  0  0  0  0
  140.3926   68.2067  229.3687 H   0  0  0  0  0  0  0  0  0  0  0  0
  139.8640   68.1650  227.2660 C   0  0  0  0  0  0  0  0  0  0  0  0
  139.3823   67.1781  227.3286 H   0  0  0  0  0  0  0  0  0  0  0  0
  139.9030   68.8510  226.0420 C   0  0  0  0  0  0  0  0  0  0  0  0
  140.5360   70.0990  225.9580 C   0  0  0  0  0  0  0  0  0  0  0  0
  141.1290   70.6570  227.1030 C   0  0  0  0  0  0  0  0  0  0  0  0
  141.6415   71.6281  227.0378 H   0  0  0  0  0  0  0  0  0  0  0  0
  140.6500   70.7850  224.6220 C   0  0  0  0  0  0  0  0  0  0  0  0
  141.5540   70.4211  224.1118 H   0  0  0  0  0  0  0  0  0  0  0  0
  140.7031   71.8692  224.8000 H   0  0  0  0  0  0  0  0  0  0  0  0
  139.4770   70.5200  223.7620 N   0  0  0  0  0  0  0  0  0  0  0  0
  139.1840   71.4550  222.6940 C   0  0  0  0  0  0  0  0  0  0  0  0
  140.0400   71.5600  221.6440 N   0  0  0  0  0  0  0  0  0  0  0  0
  139.8330   72.4290  220.6220 C   0  0  0  0  0  0  0  0  0  0  0  0
  140.8260   72.5360  219.5820 N   0  0  0  0  0  0  0  0  0  0  0  0
  141.5690   73.7760  219.3430 C   0  0  0  0  0  0  0  0  0  0  0  0
  141.0668   74.6076  219.8590 H   0  0  0  0  0  0  0  0  0  0  0  0
  141.6026   73.9760  218.2618 H   0  0  0  0  0  0  0  0  0  0  0  0
  142.9760   73.6390  219.8670 C   0  0  0  0  0  0  0  0  0  0  0  0
  143.7560   74.7890  220.0660 C   0  0  0  0  0  0  0  0  0  0  0  0
  143.3335   75.7806  219.8467 H   0  0  0  0  0  0  0  0  0  0  0  0
  145.0660   74.6820  220.5410 C   0  0  0  0  0  0  0  0  0  0  0  0
  145.6640   75.5889  220.7140 H   0  0  0  0  0  0  0  0  0  0  0  0
  145.6160   73.4240  220.7960 C   0  0  0  0  0  0  0  0  0  0  0  0
  146.6419   73.3423  221.1843 H   0  0  0  0  0  0  0  0  0  0  0  0
  144.8660   72.2680  220.5590 C   0  0  0  0  0  0  0  0  0  0  0  0
  145.3098   71.2801  220.7517 H   0  0  0  0  0  0  0  0  0  0  0  0
  143.5510   72.3590  220.0770 C   0  0  0  0  0  0  0  0  0  0  0  0
  142.7560   71.0840  219.8770 C   0  0  0  0  0  0  0  0  0  0  0  0
  142.4961   70.6714  220.8630 H   0  0  0  0  0  0  0  0  0  0  0  0
  143.3806   70.3861  219.3001 H   0  0  0  0  0  0  0  0  0  0  0  0
  141.4650   71.3190  219.0860 C   0  0  0  0  0  0  0  0  0  0  0  0
  140.7870   70.4634  219.2215 H   0  0  0  0  0  0  0  0  0  0  0  0
  141.6957   71.4265  218.0158 H   0  0  0  0  0  0  0  0  0  0  0  0
  138.7360   73.2400  220.6390 N   0  0  0  0  0  0  0  0  0  0  0  0
  138.6280   73.9300  219.8670 H   0  0  0  0  0  0  0  0  0  0  0  0
  137.8290   73.1850  221.6660 C   0  0  0  0  0  0  0  0  0  0  0  0
  136.7690   73.9600  221.6960 N   0  0  0  0  0  0  0  0  0  0  0  0
  135.9710   73.7600  221.0490 H   0  0  0  0  0  0  0  0  0  0  0  0
  136.5790   75.1050  222.5920 C   0  0  0  0  0  0  0  0  0  0  0  0
  135.5329   75.1285  222.9312 H   0  0  0  0  0  0  0  0  0  0  0  0
  137.2565   74.9976  223.4519 H   0  0  0  0  0  0  0  0  0  0  0  0
  136.9050   76.4240  221.8660 C   0  0  0  0  0  0  0  0  0  0  0  0
  136.5933   76.3272  220.8155 H   0  0  0  0  0  0  0  0  0  0  0  0
  136.3638   77.2219  222.3956 H   0  0  0  0  0  0  0  0  0  0  0  0
  138.4020   76.8020  221.8960 C   0  0  1  0  0  0  0  0  0  0  0  0
  138.5393   77.5403  222.6998 H   0  0  0  0  0  0  0  0  0  0  0  0
  139.2390   75.6250  222.1960 N   0  0  0  0  0  0  0  0  0  0  0  0
  138.9390   75.2420  223.1230 H   0  0  0  0  0  0  0  0  0  0  0  0
  140.6530   76.0060  222.3230 C   0  0  0  0  0  0  0  0  0  0  0  0
  141.2471   75.1129  222.5668 H   0  0  0  0  0  0  0  0  0  0  0  0
  140.7467   76.7565  223.1218 H   0  0  0  0  0  0  0  0  0  0  0  0
  141.1700   76.6120  221.0150 C   0  0  0  0  0  0  0  0  0  0  0  0
  141.1137   75.8560  220.2179 H   0  0  0  0  0  0  0  0  0  0  0  0
  142.2123   76.9333  221.1577 H   0  0  0  0  0  0  0  0  0  0  0  0
  140.3260   77.8250  220.6200 C   0  0  0  0  0  0  0  0  0  0  0  0
  140.6448   78.1806  219.6291 H   0  0  0  0  0  0  0  0  0  0  0  0
  140.4676   78.6166  221.3705 H   0  0  0  0  0  0  0  0  0  0  0  0
  138.8440   77.4520  220.5680 C   0  0  0  0  0  0  0  0  0  0  0  0
  138.6785   76.7415  219.7447 H   0  0  0  0  0  0  0  0  0  0  0  0
  138.2532   78.3656  220.4058 H   0  0  0  0  0  0  0  0  0  0  0  0
  138.0500   72.2830  222.7200 C   0  0  0  0  0  0  0  0  0  0  0  0
  137.3407   72.2257  223.5588 H   0  0  0  0  0  0  0  0  0  0  0  0
  138.6570   69.3000  223.9340 C   0  0  0  0  0  0  0  0  0  0  0  0
  138.4513   68.8721  222.9417 H   0  0  0  0  0  0  0  0  0  0  0  0
  137.7319   69.5933  224.4519 H   0  0  0  0  0  0  0  0  0  0  0  0
  139.3480   68.2360  224.7920 C   0  0  0  0  0  0  0  0  0  0  0  0
  140.1683   67.7828  224.2161 H   0  0  0  0  0  0  0  0  0  0  0  0
  138.6111   67.4679  225.0694 H   0  0  0  0  0  0  0  0  0  0  0  0
  1  2  1  0
  2  3  2  0
  3  4  1  0
  3  5  1  0
  5  6  1  0
  5  7  2  0
  7  8  1  0
  8  9  2  0
  9 10  1  0
  8 11  1  0
 11 12  1  0
 11 13  1  0
 11 14  1  0
 14 15  1  0
 15 16  1  0
 16 17  2  0
 17 18  1  0
 18 19  1  0
 19 20  1  0
 19 21  1  0
 19 22  1  0
 22 23  2  0
 23 24  1  0
 23 25  1  0
 25 26  1  0
 25 27  2  0
 27 28  1  0
 27 29  1  0
 29 30  1  0
 29 31  2  0
 31 32  1  0
 32 33  1  0
 32 34  1  0
 32 35  1  0
 35 36  1  0
 35 37  1  0
 17 38  1  0
 38 39  1  0
 38 40  1  0
 40 41  2  0
 41 42  1  0
 41 43  1  0
 43 44  1  0
 43 45  1  0
 43 46  1  0
 46 47  1  0
 46 48  1  0
 46 49  1  0
 49 50  1  1
 49 51  1  0
 51 52  1  0
 51 53  1  0
 53 54  1  0
 53 55  1  0
 53 56  1  0
 56 57  1  0
 56 58  1  0
 56 59  1  0
 59 60  1  0
 59 61  1  0
 59 62  1  0
 62 63  1  0
 62 64  1  0
 40 65  1  0
 65 66  1  0
 14 67  1  0
 67 68  1  0
 67 69  1  0
 67 70  1  0
 70 71  1  0
 70 72  1  0
  9  2  1  0
 65 15  2  0
 70  7  1  0
 35 18  1  0
 62 49  1  0
 31 22  1  0
M  CHG  1  41   1
M  END
>  <UniqueID>  (8) 
585

>  <SMILES>  (8) 
c1ccc2c(c1)CCN(c1c/c(=[NH+]/CC[C@@H]3CCCCN3)[nH]c(N3CCc4ccccc4C3)n1)C2

>  <Energy>  (8) 
81.97970566605903

>  <Genealogy>  (8) 
c1ccc2c(c1)CCN(c1cc([NH2+]CCC3CCCCN3)nc(N3CCc4ccccc4C3)n1)C2 (protonated)
c1ccc2c(c1)CCN(c1cc(=[NH+]CCC3CCCCN3)[nH]c(N3CCc4ccccc4C3)n1)C2 (tautomer)
c1ccc2c(c1)CCN(c1cc(=[NH+]CC[C@@H]3CCCCN3)[nH]c(N3CCc4ccccc4C3)n1)C2 (chirality)
c1ccc2c(c1)CCN(c1c/c(=[NH+]/CC[C@@H]3CCCCN3)[nH]c(N3CCc4ccccc4C3)n1)C2 (cis-trans isomerization)
c1ccc2c(c1)CCN(c1c/c(=[NH+]/CC[C@@H]3CCCCN3)[nH]c(N3CCc4ccccc4C3)n1)C2 (3D coordinates assigned)
c1ccc2c(c1)CCN(c1c/c(=[NH+]/CC[C@@H]3CCCCN3)[nH]c(N3CCc4ccccc4C3)n1)C2 (nonaromatic ring conformer: 81.97970566605903 kcal/mol)

>  <smiles>  (8) 
c1ccc2c(c1)CCN(c1cc(NCCC3CCCCN3)nc(N3CCc4ccccc4C3)n1)C2

>  <score_type>  (8) 
oracle

>  <origin>  (8) 
autodockgpu

>  <m_score__min__energy>  (8) 
-9.3699999999999992

>  <m_primary>  (8) 
energy

>  <meeko>  (8) 
{"free_energy": -8.36, "intermolecular_energy": -10.15, "internal_energy": -1.45, "cluster_size": 2, "cluster_id": 7, "rank_in_cluster": 2}

>  <energy>  (8) 
-9.2

>  <cluster_rmsd>  (8) 
0.0

>  <rmsd>  (8) 
270.1

>  <cluster>  (8) 
3

$$$$
VOUYAFWJUZHTKY-QHXHEQRTNA-O
     RDKit          3D

 72 77  0  0  0  0  0  0  0  0999 V2000
  140.2673   69.6951  224.8732 H   0  0  0  0  0  0  0  0  0  0  0  0
  139.7800   70.4240  224.2090 C   0  0  0  0  0  0  0  0  0  0  0  0
  138.3950   70.3850  224.0260 C   0  0  0  0  0  0  0  0  0  0  0  0
  137.7934   69.6255  224.5467 H   0  0  0  0  0  0  0  0  0  0  0  0
  137.7730   71.3100  223.1820 C   0  0  0  0  0  0  0  0  0  0  0  0
  136.6850   71.2670  223.0260 H   0  0  0  0  0  0  0  0  0  0  0  0
  138.5360   72.2930  222.5340 C   0  0  0  0  0  0  0  0  0  0  0  0
  139.9260   72.3340  222.7160 C   0  0  0  0  0  0  0  0  0  0  0  0
  140.5460   71.3880  223.5490 C   0  0  0  0  0  0  0  0  0  0  0  0
  141.6378   71.4063  223.6820 H   0  0  0  0  0  0  0  0  0  0  0  0
  140.7460   73.3360  221.9470 C   0  0  0  0  0  0  0  0  0  0  0  0
  141.0031   72.9076  220.9670 H   0  0  0  0  0  0  0  0  0  0  0  0
  141.6500   73.5575  222.5333 H   0  0  0  0  0  0  0  0  0  0  0  0
  140.0150   74.6040  221.7370 N   0  0  0  0  0  0  0  0  0  0  0  0
  140.7850   75.8040  221.4760 C   0  0  0  0  0  0  0  0  0  0  0  0
  140.6780   76.8650  222.3180 N   0  0  0  0  0  0  0  0  0  0  0  0
  141.3560   78.0230  222.1180 C   0  0  0  0  0  0  0  0  0  0  0  0
  141.1310   79.1310  223.0130 N   0  0  0  0  0  0  0  0  0  0  0  0
  141.8430   80.4030  222.8700 C   0  0  0  0  0  0  0  0  0  0  0  0
  142.7065   80.2648  222.2027 H   0  0  0  0  0  0  0  0  0  0  0  0
  142.1880   80.7386  223.8591 H   0  0  0  0  0  0  0  0  0  0  0  0
  140.9210   81.4430  222.2860 C   0  0  0  0  0  0  0  0  0  0  0  0
  141.4600   82.6180  221.7390 C   0  0  0  0  0  0  0  0  0  0  0  0
  142.5497   82.7678  221.7325 H   0  0  0  0  0  0  0  0  0  0  0  0
  140.6220   83.5980  221.2030 C   0  0  0  0  0  0  0  0  0  0  0  0
  141.0533   84.5067  220.7577 H   0  0  0  0  0  0  0  0  0  0  0  0
  139.2370   83.4250  221.2320 C   0  0  0  0  0  0  0  0  0  0  0  0
  138.5794   84.1918  220.7964 H   0  0  0  0  0  0  0  0  0  0  0  0
  138.6830   82.2800  221.8130 C   0  0  0  0  0  0  0  0  0  0  0  0
  137.5904   82.1553  221.8407 H   0  0  0  0  0  0  0  0  0  0  0  0
  139.5120   81.2890  222.3610 C   0  0  0  0  0  0  0  0  0  0  0  0
  138.8760   80.0420  222.9420 C   0  0  0  0  0  0  0  0  0  0  0  0
  138.4824   79.4296  222.1174 H   0  0  0  0  0  0  0  0  0  0  0  0
  138.0755   80.3618  223.6253 H   0  0  0  0  0  0  0  0  0  0  0  0
  139.8690   79.2000  223.7490 C   0  0  0  0  0  0  0  0  0  0  0  0
  139.4663   78.1860  223.8893 H   0  0  0  0  0  0  0  0  0  0  0  0
  140.0346   79.6582  224.7352 H   0  0  0  0  0  0  0  0  0  0  0  0
  142.1740   78.1470  221.0320 N   0  0  0  0  0  0  0  0  0  0  0  0
  142.6440   79.0620  220.8780 H   0  0  0  0  0  0  0  0  0  0  0  0
  142.3320   77.1150  220.1430 C   0  0  0  0  0  0  0  0  0  0  0  0
  143.1140   77.2200  219.0930 N   0  0  0  0  0  0  0  0  0  0  0  0
  144.1100   77.5160  219.2250 H   0  0  0  0  0  0  0  0  0  0  0  0
  142.7230   76.9310  217.7090 C   0  0  0  0  0  0  0  0  0  0  0  0
  143.5000   76.3130  217.2353 H   0  0  0  0  0  0  0  0  0  0  0  0
  141.7626   76.3948  217.7162 H   0  0  0  0  0  0  0  0  0  0  0  0
  142.5570   78.2370  216.9090 C   0  0  0  0  0  0  0  0  0  0  0  0
  143.5031   78.4466  216.3885 H   0  0  0  0  0  0  0  0  0  0  0  0
  141.7178   78.0811  216.2151 H   0  0  0  0  0  0  0  0  0  0  0  0
  142.1980   79.4630  217.7770 C   0  0  1  0  0  0  0  0  0  0  0  0
  142.8343   79.4309  218.6737 H   0  0  0  0  0  0  0  0  0  0  0  0
  142.4730   80.7200  217.0550 N   0  0  0  0  0  0  0  0  0  0  0  0
  143.4890   80.7340  216.8040 H   0  0  0  0  0  0  0  0  0  0  0  0
  142.2250   81.8850  217.9190 C   0  0  0  0  0  0  0  0  0  0  0  0
  142.4580   82.8041  217.3614 H   0  0  0  0  0  0  0  0  0  0  0  0
  142.8648   81.8065  218.8104 H   0  0  0  0  0  0  0  0  0  0  0  0
  140.7620   81.9260  218.3660 C   0  0  0  0  0  0  0  0  0  0  0  0
  140.1161   82.0409  217.4830 H   0  0  0  0  0  0  0  0  0  0  0  0
  140.6211   82.7759  219.0500 H   0  0  0  0  0  0  0  0  0  0  0  0
  140.3920   80.6330  219.0970 C   0  0  0  0  0  0  0  0  0  0  0  0
  139.3140   80.6368  219.3160 H   0  0  0  0  0  0  0  0  0  0  0  0
  140.9688   80.5754  220.0319 H   0  0  0  0  0  0  0  0  0  0  0  0
  140.7260   79.4150  218.2340 C   0  0  0  0  0  0  0  0  0  0  0  0
  140.0725   79.4083  217.3492 H   0  0  0  0  0  0  0  0  0  0  0  0
  140.5683   78.5036  218.8294 H   0  0  0  0  0  0  0  0  0  0  0  0
  141.6260   75.9190  220.3570 C   0  0  0  0  0  0  0  0  0  0  0  0
  141.7312   75.0797  219.6538 H   0  0  0  0  0  0  0  0  0  0  0  0
  138.5360   74.6470  221.7240 C   0  0  0  0  0  0  0  0  0  0  0  0
  138.2099   75.2726  220.8800 H   0  0  0  0  0  0  0  0  0  0  0  0
  138.2081   75.0608  222.6890 H   0  0  0  0  0  0  0  0  0  0  0  0
  137.9030   73.2590  221.5780 C   0  0  0  0  0  0  0  0  0  0  0  0
  138.0505   72.8998  220.5488 H   0  0  0  0  0  0  0  0  0  0  0  0
  136.8286   73.3313  221.8027 H   0  0  0  0  0  0  0  0  0  0  0  0
  1  2  1  0
  2  3  2  0
  3  4  1  0
  3  5  1  0
  5  6  1  0
  5  7  2  0
  7  8  1  0
  8  9  2  0
  9 10  1  0
  8 11  1  0
 11 12  1  0
 11 13  1  0
 11 14  1  0
 14 15  1  0
 15 16  1  0
 16 17  2  0
 17 18  1  0
 18 19  1  0
 19 20  1  0
 19 21  1  0
 19 22  1  0
 22 23  2  0
 23 24  1  0
 23 25  1  0
 25 26  1  0
 25 27  2  0
 27 28  1  0
 27 29  1  0
 29 30  1  0
 29 31  2  0
 31 32  1  0
 32 33  1  0
 32 34  1  0
 32 35  1  0
 35 36  1  0
 35 37  1  0
 17 38  1  0
 38 39  1  0
 38 40  1  0
 40 41  2  0
 41 42  1  0
 41 43  1  0
 43 44  1  0
 43 45  1  0
 43 46  1  0
 46 47  1  0
 46 48  1  0
 46 49  1  0
 49 50  1  1
 49 51  1  0
 51 52  1  0
 51 53  1  0
 53 54  1  0
 53 55  1  0
 53 56  1  0
 56 57  1  0
 56 58  1  0
 56 59  1  0
 59 60  1  0
 59 61  1  0
 59 62  1  0
 62 63  1  0
 62 64  1  0
 40 65  1  0
 65 66  1  0
 14 67  1  0
 67 68  1  0
 67 69  1  0
 67 70  1  0
 70 71  1  0
 70 72  1  0
  9  2  1  0
 65 15  2  0
 70  7  1  0
 35 18  1  0
 62 49  1  0
 31 22  1  0
M  CHG  1  41   1
M  END
>  <UniqueID>  (9) 
585

>  <SMILES>  (9) 
c1ccc2c(c1)CCN(c1c/c(=[NH+]/CC[C@@H]3CCCCN3)[nH]c(N3CCc4ccccc4C3)n1)C2

>  <Energy>  (9) 
81.97970566605903

>  <Genealogy>  (9) 
c1ccc2c(c1)CCN(c1cc([NH2+]CCC3CCCCN3)nc(N3CCc4ccccc4C3)n1)C2 (protonated)
c1ccc2c(c1)CCN(c1cc(=[NH+]CCC3CCCCN3)[nH]c(N3CCc4ccccc4C3)n1)C2 (tautomer)
c1ccc2c(c1)CCN(c1cc(=[NH+]CC[C@@H]3CCCCN3)[nH]c(N3CCc4ccccc4C3)n1)C2 (chirality)
c1ccc2c(c1)CCN(c1c/c(=[NH+]/CC[C@@H]3CCCCN3)[nH]c(N3CCc4ccccc4C3)n1)C2 (cis-trans isomerization)
c1ccc2c(c1)CCN(c1c/c(=[NH+]/CC[C@@H]3CCCCN3)[nH]c(N3CCc4ccccc4C3)n1)C2 (3D coordinates assigned)
c1ccc2c(c1)CCN(c1c/c(=[NH+]/CC[C@@H]3CCCCN3)[nH]c(N3CCc4ccccc4C3)n1)C2 (nonaromatic ring conformer: 81.97970566605903 kcal/mol)

>  <smiles>  (9) 
c1ccc2c(c1)CCN(c1cc(NCCC3CCCCN3)nc(N3CCc4ccccc4C3)n1)C2

>  <score_type>  (9) 
oracle

>  <origin>  (9) 
autodockgpu

>  <m_score__min__energy>  (9) 
-9.3699999999999992

>  <m_primary>  (9) 
energy

>  <meeko>  (9) 
{"free_energy": -8.42, "intermolecular_energy": -10.21, "internal_energy": -1.53, "cluster_size": 2, "cluster_id": 6, "rank_in_cluster": 2}

>  <energy>  (9) 
-9.17

>  <cluster_rmsd>  (9) 
0.17

>  <rmsd>  (9) 
270.06

>  <cluster>  (9) 
3

$$$$
VOUYAFWJUZHTKY-QHXHEQRTNA-O
     RDKit          3D

 72 77  0  0  0  0  0  0  0  0999 V2000
  131.9578   78.0876  227.5744 H   0  0  0  0  0  0  0  0  0  0  0  0
  132.1980   77.0270  227.4090 C   0  0  0  0  0  0  0  0  0  0  0  0
  131.3390   76.0340  227.8870 C   0  0  0  0  0  0  0  0  0  0  0  0
  130.4241   76.3142  228.4296 H   0  0  0  0  0  0  0  0  0  0  0  0
  131.6400   74.6850  227.6770 C   0  0  0  0  0  0  0  0  0  0  0  0
  130.9706   73.9045  228.0679 H   0  0  0  0  0  0  0  0  0  0  0  0
  132.7970   74.3270  226.9670 C   0  0  0  0  0  0  0  0  0  0  0  0
  133.6600   75.3220  226.4880 C   0  0  0  0  0  0  0  0  0  0  0  0
  133.3620   76.6740  226.7210 C   0  0  0  0  0  0  0  0  0  0  0  0
  134.0460   77.4568  226.3613 H   0  0  0  0  0  0  0  0  0  0  0  0
  134.9440   74.9250  225.8070 C   0  0  0  0  0  0  0  0  0  0  0  0
  135.7211   74.7784  226.5716 H   0  0  0  0  0  0  0  0  0  0  0  0
  135.2207   75.7280  225.1080 H   0  0  0  0  0  0  0  0  0  0  0  0
  134.7950   73.6740  225.0310 N   0  0  0  0  0  0  0  0  0  0  0  0
  135.7290   73.4200  223.9530 C   0  0  0  0  0  0  0  0  0  0  0  0
  136.4490   72.2670  223.9500 N   0  0  0  0  0  0  0  0  0  0  0  0
  137.3530   71.9790  222.9800 C   0  0  0  0  0  0  0  0  0  0  0  0
  138.1330   70.7710  223.0870 N   0  0  0  0  0  0  0  0  0  0  0  0
  139.5750   70.7980  223.3460 C   0  0  0  0  0  0  0  0  0  0  0  0
  139.9589   71.8131  223.1669 H   0  0  0  0  0  0  0  0  0  0  0  0
  140.0774   70.0869  222.6738 H   0  0  0  0  0  0  0  0  0  0  0  0
  139.8460   70.4060  224.7760 C   0  0  0  0  0  0  0  0  0  0  0  0
  141.0960   70.6920  225.3470 C   0  0  0  0  0  0  0  0  0  0  0  0
  141.8646   71.2058  224.7509 H   0  0  0  0  0  0  0  0  0  0  0  0
  141.3700   70.3280  226.6680 C   0  0  0  0  0  0  0  0  0  0  0  0
  142.3443   70.5743  227.1154 H   0  0  0  0  0  0  0  0  0  0  0  0
  140.4080   69.6520  227.4200 C   0  0  0  0  0  0  0  0  0  0  0  0
  140.6204   69.3795  228.4643 H   0  0  0  0  0  0  0  0  0  0  0  0
  139.1750   69.3200  226.8500 C   0  0  0  0  0  0  0  0  0  0  0  0
  138.4261   68.7772  227.4454 H   0  0  0  0  0  0  0  0  0  0  0  0
  138.8870   69.6750  225.5230 C   0  0  0  0  0  0  0  0  0  0  0  0
  137.5220   69.3380  224.9560 C   0  0  0  0  0  0  0  0  0  0  0  0
  136.7735   69.9952  225.4228 H   0  0  0  0  0  0  0  0  0  0  0  0
  137.3205   68.2788  225.1741 H   0  0  0  0  0  0  0  0  0  0  0  0
  137.4590   69.5220  223.4370 C   0  0  0  0  0  0  0  0  0  0  0  0
  136.4088   69.5649  223.1127 H   0  0  0  0  0  0  0  0  0  0  0  0
  137.9538   68.6766  222.9366 H   0  0  0  0  0  0  0  0  0  0  0  0
  137.5670   72.8710  221.9690 N   0  0  0  0  0  0  0  0  0  0  0  0
  138.3000   72.6450  221.2660 H   0  0  0  0  0  0  0  0  0  0  0  0
  136.8730   74.0520  221.9090 C   0  0  0  0  0  0  0  0  0  0  0  0
  137.0680   74.9210  220.9430 N   0  0  0  0  0  0  0  0  0  0  0  0
  136.7430   74.6900  219.9750 H   0  0  0  0  0  0  0  0  0  0  0  0
  137.6980   76.2360  221.0980 C   0  0  0  0  0  0  0  0  0  0  0  0
  138.2241   76.4964  220.1677 H   0  0  0  0  0  0  0  0  0  0  0  0
  136.9168   76.9793  221.3152 H   0  0  0  0  0  0  0  0  0  0  0  0
  138.7060   76.2220  222.2620 C   0  0  0  0  0  0  0  0  0  0  0  0
  138.9613   77.2625  222.5114 H   0  0  0  0  0  0  0  0  0  0  0  0
  138.2221   75.6938  223.0968 H   0  0  0  0  0  0  0  0  0  0  0  0
  140.0140   75.4620  221.9490 C   0  0  1  0  0  0  0  0  0  0  0  0
  140.7724   75.7990  222.6710 H   0  0  0  0  0  0  0  0  0  0  0  0
  139.8310   74.0070  222.1100 N   0  0  0  0  0  0  0  0  0  0  0  0
  139.5280   73.8250  223.0950 H   0  0  0  0  0  0  0  0  0  0  0  0
  141.1010   73.2940  221.9100 C   0  0  0  0  0  0  0  0  0  0  0  0
  140.9367   72.2162  222.0562 H   0  0  0  0  0  0  0  0  0  0  0  0
  141.8358   73.6705  222.6368 H   0  0  0  0  0  0  0  0  0  0  0  0
  141.6400   73.5330  220.4970 C   0  0  0  0  0  0  0  0  0  0  0  0
  140.9279   73.1266  219.7637 H   0  0  0  0  0  0  0  0  0  0  0  0
  142.6135   73.0308  220.3963 H   0  0  0  0  0  0  0  0  0  0  0  0
  141.8250   75.0300  220.2440 C   0  0  0  0  0  0  0  0  0  0  0  0
  142.1107   75.1869  219.1934 H   0  0  0  0  0  0  0  0  0  0  0  0
  142.6125   75.4087  220.9121 H   0  0  0  0  0  0  0  0  0  0  0  0
  140.5270   75.7870  220.5310 C   0  0  0  0  0  0  0  0  0  0  0  0
  139.7654   75.4920  219.7941 H   0  0  0  0  0  0  0  0  0  0  0  0
  140.7227   76.8673  220.4625 H   0  0  0  0  0  0  0  0  0  0  0  0
  135.9380   74.3440  222.9160 C   0  0  0  0  0  0  0  0  0  0  0  0
  135.3743   75.2883  222.8926 H   0  0  0  0  0  0  0  0  0  0  0  0
  133.7670   72.6690  225.3830 C   0  0  0  0  0  0  0  0  0  0  0  0
  134.2262   71.6700  225.3489 H   0  0  0  0  0  0  0  0  0  0  0  0
  132.9466   72.7665  224.6567 H   0  0  0  0  0  0  0  0  0  0  0  0
  133.1750   72.8880  226.7790 C   0  0  0  0  0  0  0  0  0  0  0  0
  133.9210   72.6073  227.5371 H   0  0  0  0  0  0  0  0  0  0  0  0
  132.2743   72.2657  226.8862 H   0  0  0  0  0  0  0  0  0  0  0  0
  1  2  1  0
  2  3  2  0
  3  4  1  0
  3  5  1  0
  5  6  1  0
  5  7  2  0
  7  8  1  0
  8  9  2  0
  9 10  1  0
  8 11  1  0
 11 12  1  0
 11 13  1  0
 11 14  1  0
 14 15  1  0
 15 16  1  0
 16 17  2  0
 17 18  1  0
 18 19  1  0
 19 20  1  0
 19 21  1  0
 19 22  1  0
 22 23  2  0
 23 24  1  0
 23 25  1  0
 25 26  1  0
 25 27  2  0
 27 28  1  0
 27 29  1  0
 29 30  1  0
 29 31  2  0
 31 32  1  0
 32 33  1  0
 32 34  1  0
 32 35  1  0
 35 36  1  0
 35 37  1  0
 17 38  1  0
 38 39  1  0
 38 40  1  0
 40 41  2  0
 41 42  1  0
 41 43  1  0
 43 44  1  0
 43 45  1  0
 43 46  1  0
 46 47  1  0
 46 48  1  0
 46 49  1  0
 49 50  1  1
 49 51  1  0
 51 52  1  0
 51 53  1  0
 53 54  1  0
 53 55  1  0
 53 56  1  0
 56 57  1  0
 56 58  1  0
 56 59  1  0
 59 60  1  0
 59 61  1  0
 59 62  1  0
 62 63  1  0
 62 64  1  0
 40 65  1  0
 65 66  1  0
 14 67  1  0
 67 68  1  0
 67 69  1  0
 67 70  1  0
 70 71  1  0
 70 72  1  0
  9  2  1  0
 65 15  2  0
 70  7  1  0
 35 18  1  0
 62 49  1  0
 31 22  1  0
M  CHG  1  41   1
M  END
>  <UniqueID>  (10) 
585

>  <SMILES>  (10) 
c1ccc2c(c1)CCN(c1c/c(=[NH+]/CC[C@@H]3CCCCN3)[nH]c(N3CCc4ccccc4C3)n1)C2

>  <Energy>  (10) 
81.97970566605903

>  <Genealogy>  (10) 
c1ccc2c(c1)CCN(c1cc([NH2+]CCC3CCCCN3)nc(N3CCc4ccccc4C3)n1)C2 (protonated)
c1ccc2c(c1)CCN(c1cc(=[NH+]CCC3CCCCN3)[nH]c(N3CCc4ccccc4C3)n1)C2 (tautomer)
c1ccc2c(c1)CCN(c1cc(=[NH+]CC[C@@H]3CCCCN3)[nH]c(N3CCc4ccccc4C3)n1)C2 (chirality)
c1ccc2c(c1)CCN(c1c/c(=[NH+]/CC[C@@H]3CCCCN3)[nH]c(N3CCc4ccccc4C3)n1)C2 (cis-trans isomerization)
c1ccc2c(c1)CCN(c1c/c(=[NH+]/CC[C@@H]3CCCCN3)[nH]c(N3CCc4ccccc4C3)n1)C2 (3D coordinates assigned)
c1ccc2c(c1)CCN(c1c/c(=[NH+]/CC[C@@H]3CCCCN3)[nH]c(N3CCc4ccccc4C3)n1)C2 (nonaromatic ring conformer: 81.97970566605903 kcal/mol)

>  <smiles>  (10) 
c1ccc2c(c1)CCN(c1cc(NCCC3CCCCN3)nc(N3CCc4ccccc4C3)n1)C2

>  <score_type>  (10) 
oracle

>  <origin>  (10) 
autodockgpu

>  <m_score__min__energy>  (10) 
-9.3699999999999992

>  <m_primary>  (10) 
energy

>  <meeko>  (10) 
{"free_energy": -8.49, "intermolecular_energy": -10.28, "internal_energy": -1.68, "cluster_size": 2, "cluster_id": 5, "rank_in_cluster": 1}

>  <energy>  (10) 
-8.25

>  <cluster_rmsd>  (10) 
1.11

>  <rmsd>  (10) 
269.82

>  <cluster>  (10) 
3

$$$$
VOUYAFWJUZHTKY-QHXHEQRTNA-O
     RDKit          3D

 72 77  0  0  0  0  0  0  0  0999 V2000
  140.2895   69.6371  224.9132 H   0  0  0  0  0  0  0  0  0  0  0  0
  139.7970   70.3680  224.2550 C   0  0  0  0  0  0  0  0  0  0  0  0
  138.4090   70.3360  224.0910 C   0  0  0  0  0  0  0  0  0  0  0  0
  137.8103   69.5803  224.6207 H   0  0  0  0  0  0  0  0  0  0  0  0
  137.7810   71.2640  223.2540 C   0  0  0  0  0  0  0  0  0  0  0  0
  136.6908   71.2266  223.1120 H   0  0  0  0  0  0  0  0  0  0  0  0
  138.5410   72.2430  222.5950 C   0  0  0  0  0  0  0  0  0  0  0  0
  139.9330   72.2750  222.7590 C   0  0  0  0  0  0  0  0  0  0  0  0
  140.5590   71.3270  223.5840 C   0  0  0  0  0  0  0  0  0  0  0  0
  141.6526   71.3396  223.7022 H   0  0  0  0  0  0  0  0  0  0  0  0
  140.7480   73.2720  221.9770 C   0  0  0  0  0  0  0  0  0  0  0  0
  140.9877   72.8415  220.9936 H   0  0  0  0  0  0  0  0  0  0  0  0
  141.6618   73.4881  222.5499 H   0  0  0  0  0  0  0  0  0  0  0  0
  140.0220   74.5450  221.7770 N   0  0  0  0  0  0  0  0  0  0  0  0
  140.7950   75.7400  221.5040 C   0  0  0  0  0  0  0  0  0  0  0  0
  140.7020   76.8040  222.3440 N   0  0  0  0  0  0  0  0  0  0  0  0
  141.3840   77.9580  222.1340 C   0  0  0  0  0  0  0  0  0  0  0  0
  141.1730   79.0690  223.0280 N   0  0  0  0  0  0  0  0  0  0  0  0
  141.8910   80.3370  222.8740 C   0  0  0  0  0  0  0  0  0  0  0  0
  142.7470   80.1922  222.1984 H   0  0  0  0  0  0  0  0  0  0  0  0
  142.2484   80.6738  223.8583 H   0  0  0  0  0  0  0  0  0  0  0  0
  140.9680   81.3800  222.2960 C   0  0  0  0  0  0  0  0  0  0  0  0
  141.5080   82.5510  221.7410 C   0  0  0  0  0  0  0  0  0  0  0  0
  142.5983   82.6955  221.7241 H   0  0  0  0  0  0  0  0  0  0  0  0
  140.6690   83.5340  221.2100 C   0  0  0  0  0  0  0  0  0  0  0  0
  141.1002   84.4390  220.7572 H   0  0  0  0  0  0  0  0  0  0  0  0
  139.2840   83.3680  221.2540 C   0  0  0  0  0  0  0  0  0  0  0  0
  138.6259   84.1368  220.8229 H   0  0  0  0  0  0  0  0  0  0  0  0
  138.7300   82.2280  221.8440 C   0  0  0  0  0  0  0  0  0  0  0  0
  137.6372   82.1092  221.8837 H   0  0  0  0  0  0  0  0  0  0  0  0
  139.5600   81.2340  222.3860 C   0  0  0  0  0  0  0  0  0  0  0  0
  138.9230   79.9910  222.9770 C   0  0  0  0  0  0  0  0  0  0  0  0
  138.5182   79.3782  222.1581 H   0  0  0  0  0  0  0  0  0  0  0  0
  138.1306   80.3163  223.6671 H   0  0  0  0  0  0  0  0  0  0  0  0
  139.9200   79.1470  223.7760 C   0  0  0  0  0  0  0  0  0  0  0  0
  139.5137   78.1356  223.9240 H   0  0  0  0  0  0  0  0  0  0  0  0
  140.0982   79.6079  224.7587 H   0  0  0  0  0  0  0  0  0  0  0  0
  142.1910   78.0740  221.0390 N   0  0  0  0  0  0  0  0  0  0  0  0
  142.6650   78.9870  220.8770 H   0  0  0  0  0  0  0  0  0  0  0  0
  142.3350   77.0390  220.1520 C   0  0  0  0  0  0  0  0  0  0  0  0
  143.1070   77.1370  219.0940 N   0  0  0  0  0  0  0  0  0  0  0  0
  144.0750   77.5220  219.2010 H   0  0  0  0  0  0  0  0  0  0  0  0
  142.7420   76.7260  217.7340 C   0  0  0  0  0  0  0  0  0  0  0  0
  143.6309   76.3208  217.2283 H   0  0  0  0  0  0  0  0  0  0  0  0
  141.9554   75.9594  217.7949 H   0  0  0  0  0  0  0  0  0  0  0  0
  142.2050   77.9240  216.9300 C   0  0  0  0  0  0  0  0  0  0  0  0
  142.9239   78.1542  216.1298 H   0  0  0  0  0  0  0  0  0  0  0  0
  141.2189   77.6307  216.5407 H   0  0  0  0  0  0  0  0  0  0  0  0
  141.9920   79.2000  217.7740 C   0  0  1  0  0  0  0  0  0  0  0  0
  142.6762   79.1441  218.6335 H   0  0  0  0  0  0  0  0  0  0  0  0
  142.3180   80.4100  216.9950 N   0  0  0  0  0  0  0  0  0  0  0  0
  143.3160   80.3370  216.6860 H   0  0  0  0  0  0  0  0  0  0  0  0
  142.2120   81.6160  217.8300 C   0  0  0  0  0  0  0  0  0  0  0  0
  142.4806   82.4968  217.2283 H   0  0  0  0  0  0  0  0  0  0  0  0
  142.8963   81.5156  218.6854 H   0  0  0  0  0  0  0  0  0  0  0  0
  140.7840   81.7840  218.3580 C   0  0  0  0  0  0  0  0  0  0  0  0
  140.0976   81.9219  217.5096 H   0  0  0  0  0  0  0  0  0  0  0  0
  140.7487   82.6626  219.0190 H   0  0  0  0  0  0  0  0  0  0  0  0
  140.3610   80.5470  219.1530 C   0  0  0  0  0  0  0  0  0  0  0  0
  139.3015   80.6415  219.4331 H   0  0  0  0  0  0  0  0  0  0  0  0
  140.9864   80.4726  220.0549 H   0  0  0  0  0  0  0  0  0  0  0  0
  140.5490   79.2820  218.3150 C   0  0  0  0  0  0  0  0  0  0  0  0
  139.8460   79.3006  217.4691 H   0  0  0  0  0  0  0  0  0  0  0  0
  140.3570   78.4040  218.9492 H   0  0  0  0  0  0  0  0  0  0  0  0
  141.6250   75.8480  220.3760 C   0  0  0  0  0  0  0  0  0  0  0  0
  141.7182   75.0065  219.6737 H   0  0  0  0  0  0  0  0  0  0  0  0
  138.5430   74.5960  221.7830 C   0  0  0  0  0  0  0  0  0  0  0  0
  138.2096   75.2218  220.9420 H   0  0  0  0  0  0  0  0  0  0  0  0
  138.2302   75.0131  222.7516 H   0  0  0  0  0  0  0  0  0  0  0  0
  137.9000   73.2120  221.6480 C   0  0  0  0  0  0  0  0  0  0  0  0
  138.0300   72.8510  220.6171 H   0  0  0  0  0  0  0  0  0  0  0  0
  136.8296   73.2910  221.8889 H   0  0  0  0  0  0  0  0  0  0  0  0
  1  2  1  0
  2  3  2  0
  3  4  1  0
  3  5  1  0
  5  6  1  0
  5  7  2  0
  7  8  1  0
  8  9  2  0
  9 10  1  0
  8 11  1  0
 11 12  1  0
 11 13  1  0
 11 14  1  0
 14 15  1  0
 15 16  1  0
 16 17  2  0
 17 18  1  0
 18 19  1  0
 19 20  1  0
 19 21  1  0
 19 22  1  0
 22 23  2  0
 23 24  1  0
 23 25  1  0
 25 26  1  0
 25 27  2  0
 27 28  1  0
 27 29  1  0
 29 30  1  0
 29 31  2  0
 31 32  1  0
 32 33  1  0
 32 34  1  0
 32 35  1  0
 35 36  1  0
 35 37  1  0
 17 38  1  0
 38 39  1  0
 38 40  1  0
 40 41  2  0
 41 42  1  0
 41 43  1  0
 43 44  1  0
 43 45  1  0
 43 46  1  0
 46 47  1  0
 46 48  1  0
 46 49  1  0
 49 50  1  1
 49 51  1  0
 51 52  1  0
 51 53  1  0
 53 54  1  0
 53 55  1  0
 53 56  1  0
 56 57  1  0
 56 58  1  0
 56 59  1  0
 59 60  1  0
 59 61  1  0
 59 62  1  0
 62 63  1  0
 62 64  1  0
 40 65  1  0
 65 66  1  0
 14 67  1  0
 67 68  1  0
 67 69  1  0
 67 70  1  0
 70 71  1  0
 70 72  1  0
  9  2  1  0
 65 15  2  0
 70  7  1  0
 35 18  1  0
 62 49  1  0
 31 22  1  0
M  CHG  1  41   1
M  END
>  <UniqueID>  (11) 
585

>  <SMILES>  (11) 
c1ccc2c(c1)CCN(c1c/c(=[NH+]/CC[C@@H]3CCCCN3)[nH]c(N3CCc4ccccc4C3)n1)C2

>  <Energy>  (11) 
81.97970566605903

>  <Genealogy>  (11) 
c1ccc2c(c1)CCN(c1cc([NH2+]CCC3CCCCN3)nc(N3CCc4ccccc4C3)n1)C2 (protonated)
c1ccc2c(c1)CCN(c1cc(=[NH+]CCC3CCCCN3)[nH]c(N3CCc4ccccc4C3)n1)C2 (tautomer)
c1ccc2c(c1)CCN(c1cc(=[NH+]CC[C@@H]3CCCCN3)[nH]c(N3CCc4ccccc4C3)n1)C2 (chirality)
c1ccc2c(c1)CCN(c1c/c(=[NH+]/CC[C@@H]3CCCCN3)[nH]c(N3CCc4ccccc4C3)n1)C2 (cis-trans isomerization)
c1ccc2c(c1)CCN(c1c/c(=[NH+]/CC[C@@H]3CCCCN3)[nH]c(N3CCc4ccccc4C3)n1)C2 (3D coordinates assigned)
c1ccc2c(c1)CCN(c1c/c(=[NH+]/CC[C@@H]3CCCCN3)[nH]c(N3CCc4ccccc4C3)n1)C2 (nonaromatic ring conformer: 81.97970566605903 kcal/mol)

>  <smiles>  (11) 
c1ccc2c(c1)CCN(c1cc(NCCC3CCCCN3)nc(N3CCc4ccccc4C3)n1)C2

>  <score_type>  (11) 
oracle

>  <origin>  (11) 
autodockgpu

>  <m_score__min__energy>  (11) 
-9.3699999999999992

>  <m_primary>  (11) 
energy

>  <meeko>  (11) 
{"free_energy": -8.43, "intermolecular_energy": -10.22, "internal_energy": -1.54, "cluster_size": 2, "cluster_id": 6, "rank_in_cluster": 1}

>  <energy>  (11) 
-8.04

>  <cluster_rmsd>  (11) 
1.55

>  <rmsd>  (11) 
269.66

>  <cluster>  (11) 
3

$$$$
VOUYAFWJUZHTKY-QHXHEQRTNA-O
     RDKit          3D

 72 77  0  0  0  0  0  0  0  0999 V2000
  133.3619   75.2524  227.4159 H   0  0  0  0  0  0  0  0  0  0  0  0
  133.7110   75.7660  226.5080 C   0  0  0  0  0  0  0  0  0  0  0  0
  133.1930   77.0200  226.1730 C   0  0  0  0  0  0  0  0  0  0  0  0
  132.4364   77.4916  226.8173 H   0  0  0  0  0  0  0  0  0  0  0  0
  133.6350   77.6760  225.0200 C   0  0  0  0  0  0  0  0  0  0  0  0
  133.2148   78.6559  224.7493 H   0  0  0  0  0  0  0  0  0  0  0  0
  134.6150   77.0840  224.2080 C   0  0  0  0  0  0  0  0  0  0  0  0
  135.1350   75.8260  224.5430 C   0  0  0  0  0  0  0  0  0  0  0  0
  134.6710   75.1640  225.6920 C   0  0  0  0  0  0  0  0  0  0  0  0
  135.0647   74.1696  225.9493 H   0  0  0  0  0  0  0  0  0  0  0  0
  136.1210   75.1610  223.6180 C   0  0  0  0  0  0  0  0  0  0  0  0
  135.5664   74.6006  222.8510 H   0  0  0  0  0  0  0  0  0  0  0  0
  136.7537   74.4918  224.2196 H   0  0  0  0  0  0  0  0  0  0  0  0
  137.0010   76.1430  222.9490 N   0  0  0  0  0  0  0  0  0  0  0  0
  138.2780   75.6830  222.4390 C   0  0  0  0  0  0  0  0  0  0  0  0
  138.5170   74.3500  222.3400 N   0  0  0  0  0  0  0  0  0  0  0  0
  139.6980   73.8560  221.8890 C   0  0  0  0  0  0  0  0  0  0  0  0
  139.9050   72.4290  221.8850 N   0  0  0  0  0  0  0  0  0  0  0  0
  140.9450   71.7920  222.6970 C   0  0  0  0  0  0  0  0  0  0  0  0
  141.6554   72.5562  223.0452 H   0  0  0  0  0  0  0  0  0  0  0  0
  141.4736   71.0440  222.0878 H   0  0  0  0  0  0  0  0  0  0  0  0
  140.3190   71.1110  223.8880 C   0  0  0  0  0  0  0  0  0  0  0  0
  141.1230   70.7400  224.9760 C   0  0  0  0  0  0  0  0  0  0  0  0
  142.2015   70.9554  224.9564 H   0  0  0  0  0  0  0  0  0  0  0  0
  140.5640   70.0990  226.0840 C   0  0  0  0  0  0  0  0  0  0  0  0
  141.1981   69.8306  226.9418 H   0  0  0  0  0  0  0  0  0  0  0  0
  139.2010   69.7990  226.1030 C   0  0  0  0  0  0  0  0  0  0  0  0
  138.7597   69.3072  226.9824 H   0  0  0  0  0  0  0  0  0  0  0  0
  138.3950   70.1220  225.0070 C   0  0  0  0  0  0  0  0  0  0  0  0
  137.3236   69.8735  225.0251 H   0  0  0  0  0  0  0  0  0  0  0  0
  138.9430   70.7610  223.8840 C   0  0  0  0  0  0  0  0  0  0  0  0
  138.0280   71.1360  222.7360 C   0  0  0  0  0  0  0  0  0  0  0  0
  137.3889   71.9733  223.0530 H   0  0  0  0  0  0  0  0  0  0  0  0
  137.4320   70.2479  222.4790 H   0  0  0  0  0  0  0  0  0  0  0  0
  138.8030   71.5560  221.4830 C   0  0  0  0  0  0  0  0  0  0  0  0
  138.1337   72.0963  220.7974 H   0  0  0  0  0  0  0  0  0  0  0  0
  139.1971   70.6664  220.9699 H   0  0  0  0  0  0  0  0  0  0  0  0
  140.6950   74.7150  221.5260 N   0  0  0  0  0  0  0  0  0  0  0  0
  141.6060   74.3090  221.2300 H   0  0  0  0  0  0  0  0  0  0  0  0
  140.5200   76.0730  221.5980 C   0  0  0  0  0  0  0  0  0  0  0  0
  141.4690   76.9130  221.2540 N   0  0  0  0  0  0  0  0  0  0  0  0
  142.1780   77.2030  221.9680 H   0  0  0  0  0  0  0  0  0  0  0  0
  141.6540   77.4860  219.9170 C   0  0  0  0  0  0  0  0  0  0  0  0
  142.5544   77.0509  219.4588 H   0  0  0  0  0  0  0  0  0  0  0  0
  140.7677   77.2565  219.3073 H   0  0  0  0  0  0  0  0  0  0  0  0
  141.8170   79.0160  220.0000 C   0  0  0  0  0  0  0  0  0  0  0  0
  142.8451   79.2713  219.7036 H   0  0  0  0  0  0  0  0  0  0  0  0
  141.0628   79.4541  219.3297 H   0  0  0  0  0  0  0  0  0  0  0  0
  141.5580   79.5980  221.4070 C   0  0  1  0  0  0  0  0  0  0  0  0
  140.6605   79.1046  221.8084 H   0  0  0  0  0  0  0  0  0  0  0  0
  142.6890   79.3170  222.3110 N   0  0  0  0  0  0  0  0  0  0  0  0
  142.8130   78.2780  222.3620 H   0  0  0  0  0  0  0  0  0  0  0  0
  142.3970   79.7840  223.6750 C   0  0  0  0  0  0  0  0  0  0  0  0
  143.2473   79.5413  224.3293 H   0  0  0  0  0  0  0  0  0  0  0  0
  141.4850   79.2834  224.0321 H   0  0  0  0  0  0  0  0  0  0  0  0
  142.1660   81.2970  223.6920 C   0  0  0  0  0  0  0  0  0  0  0  0
  143.0853   81.8080  223.3700 H   0  0  0  0  0  0  0  0  0  0  0  0
  141.9005   81.6067  224.7136 H   0  0  0  0  0  0  0  0  0  0  0  0
  141.0230   81.6710  222.7460 C   0  0  0  0  0  0  0  0  0  0  0  0
  140.9423   82.7667  222.6913 H   0  0  0  0  0  0  0  0  0  0  0  0
  140.0870   81.2404  223.1314 H   0  0  0  0  0  0  0  0  0  0  0  0
  141.2830   81.1150  221.3450 C   0  0  0  0  0  0  0  0  0  0  0  0
  142.1562   81.6235  220.9102 H   0  0  0  0  0  0  0  0  0  0  0  0
  140.3930   81.2896  220.7226 H   0  0  0  0  0  0  0  0  0  0  0  0
  139.2950   76.5770  222.0660 C   0  0  0  0  0  0  0  0  0  0  0  0
  139.1337   77.6626  222.1397 H   0  0  0  0  0  0  0  0  0  0  0  0
  136.5710   77.5430  222.7380 C   0  0  0  0  0  0  0  0  0  0  0  0
  136.8318   77.8398  221.7114 H   0  0  0  0  0  0  0  0  0  0  0  0
  137.0862   78.1638  223.4858 H   0  0  0  0  0  0  0  0  0  0  0  0
  135.0640   77.7380  222.9360 C   0  0  0  0  0  0  0  0  0  0  0  0
  134.5260   77.2890  222.0881 H   0  0  0  0  0  0  0  0  0  0  0  0
  134.8481   78.8151  222.9931 H   0  0  0  0  0  0  0  0  0  0  0  0
  1  2  1  0
  2  3  2  0
  3  4  1  0
  3  5  1  0
  5  6  1  0
  5  7  2  0
  7  8  1  0
  8  9  2  0
  9 10  1  0
  8 11  1  0
 11 12  1  0
 11 13  1  0
 11 14  1  0
 14 15  1  0
 15 16  1  0
 16 17  2  0
 17 18  1  0
 18 19  1  0
 19 20  1  0
 19 21  1  0
 19 22  1  0
 22 23  2  0
 23 24  1  0
 23 25  1  0
 25 26  1  0
 25 27  2  0
 27 28  1  0
 27 29  1  0
 29 30  1  0
 29 31  2  0
 31 32  1  0
 32 33  1  0
 32 34  1  0
 32 35  1  0
 35 36  1  0
 35 37  1  0
 17 38  1  0
 38 39  1  0
 38 40  1  0
 40 41  2  0
 41 42  1  0
 41 43  1  0
 43 44  1  0
 43 45  1  0
 43 46  1  0
 46 47  1  0
 46 48  1  0
 46 49  1  0
 49 50  1  1
 49 51  1  0
 51 52  1  0
 51 53  1  0
 53 54  1  0
 53 55  1  0
 53 56  1  0
 56 57  1  0
 56 58  1  0
 56 59  1  0
 59 60  1  0
 59 61  1  0
 59 62  1  0
 62 63  1  0
 62 64  1  0
 40 65  1  0
 65 66  1  0
 14 67  1  0
 67 68  1  0
 67 69  1  0
 67 70  1  0
 70 71  1  0
 70 72  1  0
  9  2  1  0
 65 15  2  0
 70  7  1  0
 35 18  1  0
 62 49  1  0
 31 22  1  0
M  CHG  1  41   1
M  END
>  <UniqueID>  (12) 
585

>  <SMILES>  (12) 
c1ccc2c(c1)CCN(c1c/c(=[NH+]/CC[C@@H]3CCCCN3)[nH]c(N3CCc4ccccc4C3)n1)C2

>  <Energy>  (12) 
81.97970566605903

>  <Genealogy>  (12) 
c1ccc2c(c1)CCN(c1cc([NH2+]CCC3CCCCN3)nc(N3CCc4ccccc4C3)n1)C2 (protonated)
c1ccc2c(c1)CCN(c1cc(=[NH+]CCC3CCCCN3)[nH]c(N3CCc4ccccc4C3)n1)C2 (tautomer)
c1ccc2c(c1)CCN(c1cc(=[NH+]CC[C@@H]3CCCCN3)[nH]c(N3CCc4ccccc4C3)n1)C2 (chirality)
c1ccc2c(c1)CCN(c1c/c(=[NH+]/CC[C@@H]3CCCCN3)[nH]c(N3CCc4ccccc4C3)n1)C2 (cis-trans isomerization)
c1ccc2c(c1)CCN(c1c/c(=[NH+]/CC[C@@H]3CCCCN3)[nH]c(N3CCc4ccccc4C3)n1)C2 (3D coordinates assigned)
c1ccc2c(c1)CCN(c1c/c(=[NH+]/CC[C@@H]3CCCCN3)[nH]c(N3CCc4ccccc4C3)n1)C2 (nonaromatic ring conformer: 81.97970566605903 kcal/mol)

>  <smiles>  (12) 
c1ccc2c(c1)CCN(c1cc(NCCC3CCCCN3)nc(N3CCc4ccccc4C3)n1)C2

>  <score_type>  (12) 
oracle

>  <origin>  (12) 
autodockgpu

>  <m_score__min__energy>  (12) 
-9.3699999999999992

>  <m_primary>  (12) 
energy

>  <meeko>  (12) 
{"free_energy": -8.92, "intermolecular_energy": -10.71, "internal_energy": -1.13, "cluster_size": 2, "cluster_id": 4, "rank_in_cluster": 1}

>  <energy>  (12) 
-8.92

>  <cluster_rmsd>  (12) 
0.0

>  <rmsd>  (12) 
270.5

>  <cluster>  (12) 
4

$$$$
VOUYAFWJUZHTKY-QHXHEQRTNA-O
     RDKit          3D

 72 77  0  0  0  0  0  0  0  0999 V2000
  140.7089   71.5353  229.2982 H   0  0  0  0  0  0  0  0  0  0  0  0
  140.4190   71.0650  228.3470 C   0  0  0  0  0  0  0  0  0  0  0  0
  139.5790   69.9480  228.3480 C   0  0  0  0  0  0  0  0  0  0  0  0
  139.2101   69.5388  229.3001 H   0  0  0  0  0  0  0  0  0  0  0  0
  139.2070   69.3500  227.1400 C   0  0  0  0  0  0  0  0  0  0  0  0
  138.5584   68.4616  227.1430 H   0  0  0  0  0  0  0  0  0  0  0  0
  139.6610   69.8830  225.9240 C   0  0  0  0  0  0  0  0  0  0  0  0
  140.5040   71.0020  225.9210 C   0  0  0  0  0  0  0  0  0  0  0  0
  140.8910   71.5850  227.1390 C   0  0  0  0  0  0  0  0  0  0  0  0
  141.5671   72.4527  227.1418 H   0  0  0  0  0  0  0  0  0  0  0  0
  141.0570   71.5110  224.6160 C   0  0  0  0  0  0  0  0  0  0  0  0
  141.9789   70.9587  224.3813 H   0  0  0  0  0  0  0  0  0  0  0  0
  141.2556   72.5872  224.7276 H   0  0  0  0  0  0  0  0  0  0  0  0
  140.0990   71.3360  223.5030 N   0  0  0  0  0  0  0  0  0  0  0  0
  140.2430   72.1820  222.3350 C   0  0  0  0  0  0  0  0  0  0  0  0
  139.8030   73.4670  222.3810 N   0  0  0  0  0  0  0  0  0  0  0  0
  139.8910   74.3030  221.3160 C   0  0  0  0  0  0  0  0  0  0  0  0
  139.3320   75.6280  221.4180 N   0  0  0  0  0  0  0  0  0  0  0  0
  139.4850   76.4460  222.6240 C   0  0  0  0  0  0  0  0  0  0  0  0
  139.8170   75.8092  223.4572 H   0  0  0  0  0  0  0  0  0  0  0  0
  138.5189   76.9094  222.8728 H   0  0  0  0  0  0  0  0  0  0  0  0
  140.5070   77.5270  222.3830 C   0  0  0  0  0  0  0  0  0  0  0  0
  141.0710   78.2030  223.4760 C   0  0  0  0  0  0  0  0  0  0  0  0
  140.7703   77.9337  224.4993 H   0  0  0  0  0  0  0  0  0  0  0  0
  142.0120   79.2160  223.2730 C   0  0  0  0  0  0  0  0  0  0  0  0
  142.4651   79.7266  224.1356 H   0  0  0  0  0  0  0  0  0  0  0  0
  142.3770   79.5800  221.9760 C   0  0  0  0  0  0  0  0  0  0  0  0
  143.1284   80.3677  221.8184 H   0  0  0  0  0  0  0  0  0  0  0  0
  141.7900   78.9460  220.8760 C   0  0  0  0  0  0  0  0  0  0  0  0
  142.0756   79.2449  219.8567 H   0  0  0  0  0  0  0  0  0  0  0  0
  140.8390   77.9310  221.0640 C   0  0  0  0  0  0  0  0  0  0  0  0
  140.2600   77.2380  219.8470 C   0  0  0  0  0  0  0  0  0  0  0  0
  141.0361   76.5977  219.4024 H   0  0  0  0  0  0  0  0  0  0  0  0
  139.9281   78.0162  219.1439 H   0  0  0  0  0  0  0  0  0  0  0  0
  139.0450   76.3710  220.1920 C   0  0  0  0  0  0  0  0  0  0  0  0
  138.8474   75.6670  219.3702 H   0  0  0  0  0  0  0  0  0  0  0  0
  138.1598   77.0075  220.3381 H   0  0  0  0  0  0  0  0  0  0  0  0
  140.4300   73.8510  220.1460 N   0  0  0  0  0  0  0  0  0  0  0  0
  140.4410   74.4990  219.3320 H   0  0  0  0  0  0  0  0  0  0  0  0
  140.8980   72.5670  220.0310 C   0  0  0  0  0  0  0  0  0  0  0  0
  141.4180   72.1180  218.9120 N   0  0  0  0  0  0  0  0  0  0  0  0
  141.5110   71.0850  218.7700 H   0  0  0  0  0  0  0  0  0  0  0  0
  141.8770   72.9490  217.7940 C   0  0  0  0  0  0  0  0  0  0  0  0
  141.3871   72.6122  216.8685 H   0  0  0  0  0  0  0  0  0  0  0  0
  141.6180   73.9976  218.0023 H   0  0  0  0  0  0  0  0  0  0  0  0
  143.4040   72.8390  217.6270 C   0  0  0  0  0  0  0  0  0  0  0  0
  143.6269   71.9089  217.0837 H   0  0  0  0  0  0  0  0  0  0  0  0
  143.7309   73.7359  217.0805 H   0  0  0  0  0  0  0  0  0  0  0  0
  144.1800   72.8200  218.9630 C   0  0  1  0  0  0  0  0  0  0  0  0
  143.6792   72.0984  219.6252 H   0  0  0  0  0  0  0  0  0  0  0  0
  145.5730   72.3780  218.7580 N   0  0  0  0  0  0  0  0  0  0  0  0
  145.5510   71.4210  218.3330 H   0  0  0  0  0  0  0  0  0  0  0  0
  146.2800   72.2640  220.0420 C   0  0  0  0  0  0  0  0  0  0  0  0
  147.3065   71.9136  219.8589 H   0  0  0  0  0  0  0  0  0  0  0  0
  145.7402   71.5489  220.6802 H   0  0  0  0  0  0  0  0  0  0  0  0
  146.3310   73.6180  220.7550 C   0  0  0  0  0  0  0  0  0  0  0  0
  146.9004   74.3305  220.1401 H   0  0  0  0  0  0  0  0  0  0  0  0
  146.8189   73.4891  221.7324 H   0  0  0  0  0  0  0  0  0  0  0  0
  144.9160   74.1580  220.9730 C   0  0  0  0  0  0  0  0  0  0  0  0
  144.9766   75.1746  221.3887 H   0  0  0  0  0  0  0  0  0  0  0  0
  144.3854   73.4937  221.6710 H   0  0  0  0  0  0  0  0  0  0  0  0
  144.1490   74.2000  219.6510 C   0  0  0  0  0  0  0  0  0  0  0  0
  144.6120   74.9454  218.9877 H   0  0  0  0  0  0  0  0  0  0  0  0
  143.1029   74.4714  219.8557 H   0  0  0  0  0  0  0  0  0  0  0  0
  140.8030   71.7070  221.1380 C   0  0  0  0  0  0  0  0  0  0  0  0
  141.1642   70.6704  221.0676 H   0  0  0  0  0  0  0  0  0  0  0  0
  139.0600   70.2830  223.5410 C   0  0  0  0  0  0  0  0  0  0  0  0
  139.0279   69.7854  222.5605 H   0  0  0  0  0  0  0  0  0  0  0  0
  138.1037   70.7699  223.7830 H   0  0  0  0  0  0  0  0  0  0  0  0
  139.3250   69.2260  224.6180 C   0  0  0  0  0  0  0  0  0  0  0  0
  140.1672   68.5919  224.3040 H   0  0  0  0  0  0  0  0  0  0  0  0
  138.4198   68.6148  224.7485 H   0  0  0  0  0  0  0  0  0  0  0  0
  1  2  1  0
  2  3  2  0
  3  4  1  0
  3  5  1  0
  5  6  1  0
  5  7  2  0
  7  8  1  0
  8  9  2  0
  9 10  1  0
  8 11  1  0
 11 12  1  0
 11 13  1  0
 11 14  1  0
 14 15  1  0
 15 16  1  0
 16 17  2  0
 17 18  1  0
 18 19  1  0
 19 20  1  0
 19 21  1  0
 19 22  1  0
 22 23  2  0
 23 24  1  0
 23 25  1  0
 25 26  1  0
 25 27  2  0
 27 28  1  0
 27 29  1  0
 29 30  1  0
 29 31  2  0
 31 32  1  0
 32 33  1  0
 32 34  1  0
 32 35  1  0
 35 36  1  0
 35 37  1  0
 17 38  1  0
 38 39  1  0
 38 40  1  0
 40 41  2  0
 41 42  1  0
 41 43  1  0
 43 44  1  0
 43 45  1  0
 43 46  1  0
 46 47  1  0
 46 48  1  0
 46 49  1  0
 49 50  1  1
 49 51  1  0
 51 52  1  0
 51 53  1  0
 53 54  1  0
 53 55  1  0
 53 56  1  0
 56 57  1  0
 56 58  1  0
 56 59  1  0
 59 60  1  0
 59 61  1  0
 59 62  1  0
 62 63  1  0
 62 64  1  0
 40 65  1  0
 65 66  1  0
 14 67  1  0
 67 68  1  0
 67 69  1  0
 67 70  1  0
 70 71  1  0
 70 72  1  0
  9  2  1  0
 65 15  2  0
 70  7  1  0
 35 18  1  0
 62 49  1  0
 31 22  1  0
M  CHG  1  41   1
M  END
>  <UniqueID>  (13) 
585

>  <SMILES>  (13) 
c1ccc2c(c1)CCN(c1c/c(=[NH+]/CC[C@@H]3CCCCN3)[nH]c(N3CCc4ccccc4C3)n1)C2

>  <Energy>  (13) 
81.97970566605903

>  <Genealogy>  (13) 
c1ccc2c(c1)CCN(c1cc([NH2+]CCC3CCCCN3)nc(N3CCc4ccccc4C3)n1)C2 (protonated)
c1ccc2c(c1)CCN(c1cc(=[NH+]CCC3CCCCN3)[nH]c(N3CCc4ccccc4C3)n1)C2 (tautomer)
c1ccc2c(c1)CCN(c1cc(=[NH+]CC[C@@H]3CCCCN3)[nH]c(N3CCc4ccccc4C3)n1)C2 (chirality)
c1ccc2c(c1)CCN(c1c/c(=[NH+]/CC[C@@H]3CCCCN3)[nH]c(N3CCc4ccccc4C3)n1)C2 (cis-trans isomerization)
c1ccc2c(c1)CCN(c1c/c(=[NH+]/CC[C@@H]3CCCCN3)[nH]c(N3CCc4ccccc4C3)n1)C2 (3D coordinates assigned)
c1ccc2c(c1)CCN(c1c/c(=[NH+]/CC[C@@H]3CCCCN3)[nH]c(N3CCc4ccccc4C3)n1)C2 (nonaromatic ring conformer: 81.97970566605903 kcal/mol)

>  <smiles>  (13) 
c1ccc2c(c1)CCN(c1cc(NCCC3CCCCN3)nc(N3CCc4ccccc4C3)n1)C2

>  <score_type>  (13) 
oracle

>  <origin>  (13) 
autodockgpu

>  <m_score__min__energy>  (13) 
-9.3699999999999992

>  <m_primary>  (13) 
energy

>  <meeko>  (13) 
{"free_energy": -9.37, "intermolecular_energy": -11.16, "internal_energy": -0.87, "cluster_size": 5, "cluster_id": 1, "rank_in_cluster": 1}

>  <energy>  (13) 
-8.9

>  <cluster_rmsd>  (13) 
0.03

>  <rmsd>  (13) 
270.49

>  <cluster>  (13) 
4

$$$$
VOUYAFWJUZHTKY-QHXHEQRTNA-O
     RDKit          3D

 72 77  0  0  0  0  0  0  0  0999 V2000
  141.0925   81.3337  224.6502 H   0  0  0  0  0  0  0  0  0  0  0  0
  141.2170   80.5850  223.8540 C   0  0  0  0  0  0  0  0  0  0  0  0
  142.3750   80.5850  223.0710 C   0  0  0  0  0  0  0  0  0  0  0  0
  143.1606   81.3334  223.2521 H   0  0  0  0  0  0  0  0  0  0  0  0
  142.5360   79.6350  222.0580 C   0  0  0  0  0  0  0  0  0  0  0  0
  143.4399   79.6469  221.4312 H   0  0  0  0  0  0  0  0  0  0  0  0
  141.5440   78.6660  221.8410 C   0  0  0  0  0  0  0  0  0  0  0  0
  140.3820   78.6650  222.6250 C   0  0  0  0  0  0  0  0  0  0  0  0
  140.2180   79.6360  223.6270 C   0  0  0  0  0  0  0  0  0  0  0  0
  139.3007   79.6488  224.2340 H   0  0  0  0  0  0  0  0  0  0  0  0
  139.2850   77.6780  222.3240 C   0  0  0  0  0  0  0  0  0  0  0  0
  138.6269   78.1027  221.5516 H   0  0  0  0  0  0  0  0  0  0  0  0
  138.7326   77.4884  223.2562 H   0  0  0  0  0  0  0  0  0  0  0  0
  139.8200   76.3880  221.8390 N   0  0  0  0  0  0  0  0  0  0  0  0
  138.9900   75.2070  221.9740 C   0  0  0  0  0  0  0  0  0  0  0  0
  139.5690   74.0130  222.2670 N   0  0  0  0  0  0  0  0  0  0  0  0
  138.8510   72.8680  222.3880 C   0  0  0  0  0  0  0  0  0  0  0  0
  139.5460   71.6270  222.6250 N   0  0  0  0  0  0  0  0  0  0  0  0
  140.7080   71.5440  223.5150 C   0  0  0  0  0  0  0  0  0  0  0  0
  141.0884   72.5567  223.7142 H   0  0  0  0  0  0  0  0  0  0  0  0
  141.4921   70.9415  223.0331 H   0  0  0  0  0  0  0  0  0  0  0  0
  140.3100   70.8940  224.8160 C   0  0  0  0  0  0  0  0  0  0  0  0
  141.1460   71.0190  225.9360 C   0  0  0  0  0  0  0  0  0  0  0  0
  142.0797   71.5954  225.8594 H   0  0  0  0  0  0  0  0  0  0  0  0
  140.8000   70.4160  227.1480 C   0  0  0  0  0  0  0  0  0  0  0  0
  141.4495   70.5369  228.0275 H   0  0  0  0  0  0  0  0  0  0  0  0
  139.6300   69.6600  227.2430 C   0  0  0  0  0  0  0  0  0  0  0  0
  139.3525   69.1969  228.2014 H   0  0  0  0  0  0  0  0  0  0  0  0
  138.8100   69.4900  226.1230 C   0  0  0  0  0  0  0  0  0  0  0  0
  137.8944   68.8856  226.2031 H   0  0  0  0  0  0  0  0  0  0  0  0
  139.1470   70.0850  224.8980 C   0  0  0  0  0  0  0  0  0  0  0  0
  138.2090   69.9140  223.7190 C   0  0  0  0  0  0  0  0  0  0  0  0
  137.3024   70.5101  223.8998 H   0  0  0  0  0  0  0  0  0  0  0  0
  137.9764   68.8427  223.6287 H   0  0  0  0  0  0  0  0  0  0  0  0
  138.8400   70.3670  222.3990 C   0  0  0  0  0  0  0  0  0  0  0  0
  138.0536   70.5136  221.6439 H   0  0  0  0  0  0  0  0  0  0  0  0
  139.5439   69.6025  222.0383 H   0  0  0  0  0  0  0  0  0  0  0  0
  137.4990   72.8970  222.2040 N   0  0  0  0  0  0  0  0  0  0  0  0
  136.9800   71.9960  222.2550 H   0  0  0  0  0  0  0  0  0  0  0  0
  136.8490   74.0680  221.9090 C   0  0  0  0  0  0  0  0  0  0  0  0
  135.5490   74.1110  221.7280 N   0  0  0  0  0  0  0  0  0  0  0  0
  135.1690   74.5500  220.8560 H   0  0  0  0  0  0  0  0  0  0  0  0
  134.5440   73.5670  222.6460 C   0  0  0  0  0  0  0  0  0  0  0  0
  133.5469   73.9139  222.3369 H   0  0  0  0  0  0  0  0  0  0  0  0
  134.5925   72.4686  222.6135 H   0  0  0  0  0  0  0  0  0  0  0  0
  134.8170   74.0330  224.0890 C   0  0  0  0  0  0  0  0  0  0  0  0
  135.7954   74.5352  224.1112 H   0  0  0  0  0  0  0  0  0  0  0  0
  133.9909   74.7032  224.3691 H   0  0  0  0  0  0  0  0  0  0  0  0
  134.8350   72.8880  225.1250 C   0  0  1  0  0  0  0  0  0  0  0  0
  135.8194   72.9026  225.6156 H   0  0  0  0  0  0  0  0  0  0  0  0
  133.7980   73.0900  226.1550 N   0  0  0  0  0  0  0  0  0  0  0  0
  133.9800   74.0090  226.6220 H   0  0  0  0  0  0  0  0  0  0  0  0
  133.8840   72.0530  227.1940 C   0  0  0  0  0  0  0  0  0  0  0  0
  133.1144   72.2418  227.9569 H   0  0  0  0  0  0  0  0  0  0  0  0
  134.8864   72.0877  227.6456 H   0  0  0  0  0  0  0  0  0  0  0  0
  133.6640   70.6630  226.5920 C   0  0  0  0  0  0  0  0  0  0  0  0
  132.6501   70.6075  226.1689 H   0  0  0  0  0  0  0  0  0  0  0  0
  133.7851   69.9081  227.3829 H   0  0  0  0  0  0  0  0  0  0  0  0
  134.6870   70.3930  225.4870 C   0  0  0  0  0  0  0  0  0  0  0  0
  134.4471   69.4378  224.9970 H   0  0  0  0  0  0  0  0  0  0  0  0
  135.6908   70.3478  225.9345 H   0  0  0  0  0  0  0  0  0  0  0  0
  134.6590   71.5140  224.4460 C   0  0  0  0  0  0  0  0  0  0  0  0
  133.6947   71.4927  223.9172 H   0  0  0  0  0  0  0  0  0  0  0  0
  135.4850   71.3602  223.7360 H   0  0  0  0  0  0  0  0  0  0  0  0
  137.5990   75.2490  221.7850 C   0  0  0  0  0  0  0  0  0  0  0  0
  137.1009   76.1992  221.5418 H   0  0  0  0  0  0  0  0  0  0  0  0
  141.1360   76.3040  221.1670 C   0  0  0  0  0  0  0  0  0  0  0  0
  141.0374   75.6612  220.2798 H   0  0  0  0  0  0  0  0  0  0  0  0
  141.8528   75.8909  221.8920 H   0  0  0  0  0  0  0  0  0  0  0  0
  141.6640   77.6730  220.7240 C   0  0  0  0  0  0  0  0  0  0  0  0
  141.0791   78.0252  219.8615 H   0  0  0  0  0  0  0  0  0  0  0  0
  142.7239   77.5740  220.4469 H   0  0  0  0  0  0  0  0  0  0  0  0
  1  2  1  0
  2  3  2  0
  3  4  1  0
  3  5  1  0
  5  6  1  0
  5  7  2  0
  7  8  1  0
  8  9  2  0
  9 10  1  0
  8 11  1  0
 11 12  1  0
 11 13  1  0
 11 14  1  0
 14 15  1  0
 15 16  1  0
 16 17  2  0
 17 18  1  0
 18 19  1  0
 19 20  1  0
 19 21  1  0
 19 22  1  0
 22 23  2  0
 23 24  1  0
 23 25  1  0
 25 26  1  0
 25 27  2  0
 27 28  1  0
 27 29  1  0
 29 30  1  0
 29 31  2  0
 31 32  1  0
 32 33  1  0
 32 34  1  0
 32 35  1  0
 35 36  1  0
 35 37  1  0
 17 38  1  0
 38 39  1  0
 38 40  1  0
 40 41  2  0
 41 42  1  0
 41 43  1  0
 43 44  1  0
 43 45  1  0
 43 46  1  0
 46 47  1  0
 46 48  1  0
 46 49  1  0
 49 50  1  1
 49 51  1  0
 51 52  1  0
 51 53  1  0
 53 54  1  0
 53 55  1  0
 53 56  1  0
 56 57  1  0
 56 58  1  0
 56 59  1  0
 59 60  1  0
 59 61  1  0
 59 62  1  0
 62 63  1  0
 62 64  1  0
 40 65  1  0
 65 66  1  0
 14 67  1  0
 67 68  1  0
 67 69  1  0
 67 70  1  0
 70 71  1  0
 70 72  1  0
  9  2  1  0
 65 15  2  0
 70  7  1  0
 35 18  1  0
 62 49  1  0
 31 22  1  0
M  CHG  1  41   1
M  END
>  <UniqueID>  (14) 
585

>  <SMILES>  (14) 
c1ccc2c(c1)CCN(c1c/c(=[NH+]/CC[C@@H]3CCCCN3)[nH]c(N3CCc4ccccc4C3)n1)C2

>  <Energy>  (14) 
81.97970566605903

>  <Genealogy>  (14) 
c1ccc2c(c1)CCN(c1cc([NH2+]CCC3CCCCN3)nc(N3CCc4ccccc4C3)n1)C2 (protonated)
c1ccc2c(c1)CCN(c1cc(=[NH+]CCC3CCCCN3)[nH]c(N3CCc4ccccc4C3)n1)C2 (tautomer)
c1ccc2c(c1)CCN(c1cc(=[NH+]CC[C@@H]3CCCCN3)[nH]c(N3CCc4ccccc4C3)n1)C2 (chirality)
c1ccc2c(c1)CCN(c1c/c(=[NH+]/CC[C@@H]3CCCCN3)[nH]c(N3CCc4ccccc4C3)n1)C2 (cis-trans isomerization)
c1ccc2c(c1)CCN(c1c/c(=[NH+]/CC[C@@H]3CCCCN3)[nH]c(N3CCc4ccccc4C3)n1)C2 (3D coordinates assigned)
c1ccc2c(c1)CCN(c1c/c(=[NH+]/CC[C@@H]3CCCCN3)[nH]c(N3CCc4ccccc4C3)n1)C2 (nonaromatic ring conformer: 81.97970566605903 kcal/mol)

>  <smiles>  (14) 
c1ccc2c(c1)CCN(c1cc(NCCC3CCCCN3)nc(N3CCc4ccccc4C3)n1)C2

>  <score_type>  (14) 
oracle

>  <origin>  (14) 
autodockgpu

>  <m_score__min__energy>  (14) 
-9.3699999999999992

>  <m_primary>  (14) 
energy

>  <meeko>  (14) 
{"free_energy": -9.17, "intermolecular_energy": -10.96, "internal_energy": -0.99, "cluster_size": 4, "cluster_id": 3, "rank_in_cluster": 2}

>  <energy>  (14) 
-8.49

>  <cluster_rmsd>  (14) 
0.0

>  <rmsd>  (14) 
269.7

>  <cluster>  (14) 
5

$$$$
VOUYAFWJUZHTKY-QHXHEQRTNA-O
     RDKit          3D

 72 77  0  0  0  0  0  0  0  0999 V2000
  141.4582   70.3643  229.2334 H   0  0  0  0  0  0  0  0  0  0  0  0
  141.0040   69.9270  228.3320 C   0  0  0  0  0  0  0  0  0  0  0  0
  140.3540   68.6930  228.4070 C   0  0  0  0  0  0  0  0  0  0  0  0
  140.2973   68.1598  229.3675 H   0  0  0  0  0  0  0  0  0  0  0  0
  139.7750   68.1340  227.2630 C   0  0  0  0  0  0  0  0  0  0  0  0
  139.2781   67.1543  227.3206 H   0  0  0  0  0  0  0  0  0  0  0  0
  139.8280   68.8230  226.0420 C   0  0  0  0  0  0  0  0  0  0  0  0
  140.4800   70.0620  225.9650 C   0  0  0  0  0  0  0  0  0  0  0  0
  141.0780   70.6070  227.1130 C   0  0  0  0  0  0  0  0  0  0  0  0
  141.6054   71.5704  227.0528 H   0  0  0  0  0  0  0  0  0  0  0  0
  140.6090   70.7500  224.6310 C   0  0  0  0  0  0  0  0  0  0  0  0
  141.5082   70.3726  224.1221 H   0  0  0  0  0  0  0  0  0  0  0  0
  140.6796   71.8327  224.8123 H   0  0  0  0  0  0  0  0  0  0  0  0
  139.4340   70.5070  223.7670 N   0  0  0  0  0  0  0  0  0  0  0  0
  139.1590   71.4500  222.7010 C   0  0  0  0  0  0  0  0  0  0  0  0
  140.0180   71.5420  221.6520 N   0  0  0  0  0  0  0  0  0  0  0  0
  139.8280   72.4180  220.6330 C   0  0  0  0  0  0  0  0  0  0  0  0
  140.8230   72.5110  219.5950 N   0  0  0  0  0  0  0  0  0  0  0  0
  141.5500   73.7550  219.3240 C   0  0  0  0  0  0  0  0  0  0  0  0
  141.0341   74.5934  219.8149 H   0  0  0  0  0  0  0  0  0  0  0  0
  141.5850   73.9250  218.2378 H   0  0  0  0  0  0  0  0  0  0  0  0
  142.9560   73.6530  219.8560 C   0  0  0  0  0  0  0  0  0  0  0  0
  143.7180   74.8190  220.0270 C   0  0  0  0  0  0  0  0  0  0  0  0
  143.2821   75.7981  219.7792 H   0  0  0  0  0  0  0  0  0  0  0  0
  145.0270   74.7440  220.5100 C   0  0  0  0  0  0  0  0  0  0  0  0
  145.6104   75.6642  220.6610 H   0  0  0  0  0  0  0  0  0  0  0  0
  145.5950   73.5030  220.8010 C   0  0  0  0  0  0  0  0  0  0  0  0
  146.6209   73.4478  221.1941 H   0  0  0  0  0  0  0  0  0  0  0  0
  144.8630   72.3290  220.5940 C   0  0  0  0  0  0  0  0  0  0  0  0
  145.3203   71.3535  220.8159 H   0  0  0  0  0  0  0  0  0  0  0  0
  143.5490   72.3880  220.1050 C   0  0  0  0  0  0  0  0  0  0  0  0
  142.7730   71.0960  219.9370 C   0  0  0  0  0  0  0  0  0  0  0  0
  142.5150   70.7068  220.9330 H   0  0  0  0  0  0  0  0  0  0  0  0
  143.4101   70.3919  219.3817 H   0  0  0  0  0  0  0  0  0  0  0  0
  141.4820   71.2900  219.1350 C   0  0  0  0  0  0  0  0  0  0  0  0
  140.8161   70.4286  219.2916 H   0  0  0  0  0  0  0  0  0  0  0  0
  141.7155   71.3714  218.0631 H   0  0  0  0  0  0  0  0  0  0  0  0
  138.7450   73.2490  220.6510 N   0  0  0  0  0  0  0  0  0  0  0  0
  138.6500   73.9430  219.8810 H   0  0  0  0  0  0  0  0  0  0  0  0
  137.8360   73.2070  221.6770 C   0  0  0  0  0  0  0  0  0  0  0  0
  136.7900   74.0010  221.7080 N   0  0  0  0  0  0  0  0  0  0  0  0
  136.0100   73.8450  221.0280 H   0  0  0  0  0  0  0  0  0  0  0  0
  136.5910   75.1080  222.6490 C   0  0  0  0  0  0  0  0  0  0  0  0
  135.5484   75.1015  222.9995 H   0  0  0  0  0  0  0  0  0  0  0  0
  137.2788   74.9797  223.4979 H   0  0  0  0  0  0  0  0  0  0  0  0
  136.8880   76.4580  221.9690 C   0  0  0  0  0  0  0  0  0  0  0  0
  136.5357   76.4062  220.9282 H   0  0  0  0  0  0  0  0  0  0  0  0
  136.3676   77.2308  222.5537 H   0  0  0  0  0  0  0  0  0  0  0  0
  138.3850   76.8380  221.9570 C   0  0  1  0  0  0  0  0  0  0  0  0
  138.5438   77.5824  222.7512 H   0  0  0  0  0  0  0  0  0  0  0  0
  139.2300   75.6640  222.2440 N   0  0  0  0  0  0  0  0  0  0  0  0
  138.9560   75.2880  223.1820 H   0  0  0  0  0  0  0  0  0  0  0  0
  140.6470   76.0480  222.3310 C   0  0  0  0  0  0  0  0  0  0  0  0
  141.2486   75.1575  222.5657 H   0  0  0  0  0  0  0  0  0  0  0  0
  140.7602   76.8046  223.1214 H   0  0  0  0  0  0  0  0  0  0  0  0
  141.1290   76.6450  221.0060 C   0  0  0  0  0  0  0  0  0  0  0  0
  141.0534   75.8831  220.2162 H   0  0  0  0  0  0  0  0  0  0  0  0
  142.1741   76.9689  221.1194 H   0  0  0  0  0  0  0  0  0  0  0  0
  140.2730   77.8540  220.6240 C   0  0  0  0  0  0  0  0  0  0  0  0
  140.5650   78.2023  219.6223 H   0  0  0  0  0  0  0  0  0  0  0  0
  140.4332   78.6515  221.3645 H   0  0  0  0  0  0  0  0  0  0  0  0
  138.7900   77.4790  220.6140 C   0  0  0  0  0  0  0  0  0  0  0  0
  138.6034   76.7627  219.8003 H   0  0  0  0  0  0  0  0  0  0  0  0
  138.1939   78.3908  220.4613 H   0  0  0  0  0  0  0  0  0  0  0  0
  138.0400   72.2980  222.7280 C   0  0  0  0  0  0  0  0  0  0  0  0
  137.3288   72.2507  223.5658 H   0  0  0  0  0  0  0  0  0  0  0  0
  138.5950   69.2990  223.9320 C   0  0  0  0  0  0  0  0  0  0  0  0
  138.3863   68.8777  222.9376 H   0  0  0  0  0  0  0  0  0  0  0  0
  137.6728   69.6046  224.4479 H   0  0  0  0  0  0  0  0  0  0  0  0
  139.2670   68.2210  224.7890 C   0  0  0  0  0  0  0  0  0  0  0  0
  140.0816   67.7566  224.2139 H   0  0  0  0  0  0  0  0  0  0  0  0
  138.5172   67.4638  225.0620 H   0  0  0  0  0  0  0  0  0  0  0  0
  1  2  1  0
  2  3  2  0
  3  4  1  0
  3  5  1  0
  5  6  1  0
  5  7  2  0
  7  8  1  0
  8  9  2  0
  9 10  1  0
  8 11  1  0
 11 12  1  0
 11 13  1  0
 11 14  1  0
 14 15  1  0
 15 16  1  0
 16 17  2  0
 17 18  1  0
 18 19  1  0
 19 20  1  0
 19 21  1  0
 19 22  1  0
 22 23  2  0
 23 24  1  0
 23 25  1  0
 25 26  1  0
 25 27  2  0
 27 28  1  0
 27 29  1  0
 29 30  1  0
 29 31  2  0
 31 32  1  0
 32 33  1  0
 32 34  1  0
 32 35  1  0
 35 36  1  0
 35 37  1  0
 17 38  1  0
 38 39  1  0
 38 40  1  0
 40 41  2  0
 41 42  1  0
 41 43  1  0
 43 44  1  0
 43 45  1  0
 43 46  1  0
 46 47  1  0
 46 48  1  0
 46 49  1  0
 49 50  1  1
 49 51  1  0
 51 52  1  0
 51 53  1  0
 53 54  1  0
 53 55  1  0
 53 56  1  0
 56 57  1  0
 56 58  1  0
 56 59  1  0
 59 60  1  0
 59 61  1  0
 59 62  1  0
 62 63  1  0
 62 64  1  0
 40 65  1  0
 65 66  1  0
 14 67  1  0
 67 68  1  0
 67 69  1  0
 67 70  1  0
 70 71  1  0
 70 72  1  0
  9  2  1  0
 65 15  2  0
 70  7  1  0
 35 18  1  0
 62 49  1  0
 31 22  1  0
M  CHG  1  41   1
M  END
>  <UniqueID>  (15) 
585

>  <SMILES>  (15) 
c1ccc2c(c1)CCN(c1c/c(=[NH+]/CC[C@@H]3CCCCN3)[nH]c(N3CCc4ccccc4C3)n1)C2

>  <Energy>  (15) 
81.97970566605903

>  <Genealogy>  (15) 
c1ccc2c(c1)CCN(c1cc([NH2+]CCC3CCCCN3)nc(N3CCc4ccccc4C3)n1)C2 (protonated)
c1ccc2c(c1)CCN(c1cc(=[NH+]CCC3CCCCN3)[nH]c(N3CCc4ccccc4C3)n1)C2 (tautomer)
c1ccc2c(c1)CCN(c1cc(=[NH+]CC[C@@H]3CCCCN3)[nH]c(N3CCc4ccccc4C3)n1)C2 (chirality)
c1ccc2c(c1)CCN(c1c/c(=[NH+]/CC[C@@H]3CCCCN3)[nH]c(N3CCc4ccccc4C3)n1)C2 (cis-trans isomerization)
c1ccc2c(c1)CCN(c1c/c(=[NH+]/CC[C@@H]3CCCCN3)[nH]c(N3CCc4ccccc4C3)n1)C2 (3D coordinates assigned)
c1ccc2c(c1)CCN(c1c/c(=[NH+]/CC[C@@H]3CCCCN3)[nH]c(N3CCc4ccccc4C3)n1)C2 (nonaromatic ring conformer: 81.97970566605903 kcal/mol)

>  <smiles>  (15) 
c1ccc2c(c1)CCN(c1cc(NCCC3CCCCN3)nc(N3CCc4ccccc4C3)n1)C2

>  <score_type>  (15) 
oracle

>  <origin>  (15) 
autodockgpu

>  <m_score__min__energy>  (15) 
-9.3699999999999992

>  <m_primary>  (15) 
energy

>  <meeko>  (15) 
{"free_energy": -8.38, "intermolecular_energy": -10.17, "internal_energy": -1.44, "cluster_size": 2, "cluster_id": 7, "rank_in_cluster": 1}

>  <energy>  (15) 
-8.22

>  <cluster_rmsd>  (15) 
0.49

>  <rmsd>  (15) 
269.69

>  <cluster>  (15) 
5

$$$$
VOUYAFWJUZHTKY-QHXHEQRTNA-O
     RDKit          3D

 72 77  0  0  0  0  0  0  0  0999 V2000
  133.3785   75.2507  227.4341 H   0  0  0  0  0  0  0  0  0  0  0  0
  133.7230   75.7600  226.5220 C   0  0  0  0  0  0  0  0  0  0  0  0
  133.2000   77.0100  226.1810 C   0  0  0  0  0  0  0  0  0  0  0  0
  132.4443   77.4835  226.8250 H   0  0  0  0  0  0  0  0  0  0  0  0
  133.6360   77.6600  225.0220 C   0  0  0  0  0  0  0  0  0  0  0  0
  133.2112   78.6365  224.7463 H   0  0  0  0  0  0  0  0  0  0  0  0
  134.6150   77.0670  224.2110 C   0  0  0  0  0  0  0  0  0  0  0  0
  135.1410   75.8130  224.5520 C   0  0  0  0  0  0  0  0  0  0  0  0
  134.6830   75.1560  225.7060 C   0  0  0  0  0  0  0  0  0  0  0  0
  135.0807   74.1644  225.9677 H   0  0  0  0  0  0  0  0  0  0  0  0
  136.1250   75.1450  223.6270 C   0  0  0  0  0  0  0  0  0  0  0  0
  135.5689   74.5785  222.8656 H   0  0  0  0  0  0  0  0  0  0  0  0
  136.7619   74.4807  224.2296 H   0  0  0  0  0  0  0  0  0  0  0  0
  136.9990   76.1260  222.9490 N   0  0  0  0  0  0  0  0  0  0  0  0
  138.2760   75.6680  222.4370 C   0  0  0  0  0  0  0  0  0  0  0  0
  138.5140   74.3340  222.3310 N   0  0  0  0  0  0  0  0  0  0  0  0
  139.6950   73.8410  221.8780 C   0  0  0  0  0  0  0  0  0  0  0  0
  139.9000   72.4140  221.8680 N   0  0  0  0  0  0  0  0  0  0  0  0
  140.9320   71.7720  222.6870 C   0  0  0  0  0  0  0  0  0  0  0  0
  141.6391   72.5340  223.0467 H   0  0  0  0  0  0  0  0  0  0  0  0
  141.4667   71.0274  222.0790 H   0  0  0  0  0  0  0  0  0  0  0  0
  140.2940   71.0850  223.8670 C   0  0  0  0  0  0  0  0  0  0  0  0
  141.0890   70.7070  224.9610 C   0  0  0  0  0  0  0  0  0  0  0  0
  142.1679   70.9212  224.9522 H   0  0  0  0  0  0  0  0  0  0  0  0
  140.5190   70.0610  226.0600 C   0  0  0  0  0  0  0  0  0  0  0  0
  141.1448   69.7875  226.9223 H   0  0  0  0  0  0  0  0  0  0  0  0
  139.1550   69.7620  226.0650 C   0  0  0  0  0  0  0  0  0  0  0  0
  138.7050   69.2665  226.9379 H   0  0  0  0  0  0  0  0  0  0  0  0
  138.3600   70.0910  224.9630 C   0  0  0  0  0  0  0  0  0  0  0  0
  137.2886   69.8418  224.9689 H   0  0  0  0  0  0  0  0  0  0  0  0
  138.9190   70.7370  223.8490 C   0  0  0  0  0  0  0  0  0  0  0  0
  138.0140   71.1180  222.6940 C   0  0  0  0  0  0  0  0  0  0  0  0
  137.3719   71.9537  223.0091 H   0  0  0  0  0  0  0  0  0  0  0  0
  137.4199   70.2316  222.4269 H   0  0  0  0  0  0  0  0  0  0  0  0
  138.8010   71.5440  221.4520 C   0  0  0  0  0  0  0  0  0  0  0  0
  138.1386   72.0884  220.7630 H   0  0  0  0  0  0  0  0  0  0  0  0
  139.1997   70.6565  220.9387 H   0  0  0  0  0  0  0  0  0  0  0  0
  140.6920   74.7020  221.5190 N   0  0  0  0  0  0  0  0  0  0  0  0
  141.6030   74.2960  221.2210 H   0  0  0  0  0  0  0  0  0  0  0  0
  140.5180   76.0600  221.5970 C   0  0  0  0  0  0  0  0  0  0  0  0
  141.4680   76.9000  221.2560 N   0  0  0  0  0  0  0  0  0  0  0  0
  142.1740   77.1900  221.9730 H   0  0  0  0  0  0  0  0  0  0  0  0
  141.6570   77.4740  219.9200 C   0  0  0  0  0  0  0  0  0  0  0  0
  142.5484   77.0257  219.4570 H   0  0  0  0  0  0  0  0  0  0  0  0
  140.7644   77.2608  219.3135 H   0  0  0  0  0  0  0  0  0  0  0  0
  141.8450   79.0000  220.0060 C   0  0  0  0  0  0  0  0  0  0  0  0
  142.8793   79.2382  219.7170 H   0  0  0  0  0  0  0  0  0  0  0  0
  141.1029   79.4514  219.3310 H   0  0  0  0  0  0  0  0  0  0  0  0
  141.5860   79.5850  221.4120 C   0  0  1  0  0  0  0  0  0  0  0  0
  140.6835   79.0984  221.8104 H   0  0  0  0  0  0  0  0  0  0  0  0
  142.7120   79.2960  222.3200 N   0  0  0  0  0  0  0  0  0  0  0  0
  142.8290   78.2560  222.3720 H   0  0  0  0  0  0  0  0  0  0  0  0
  142.4200   79.7650  223.6830 C   0  0  0  0  0  0  0  0  0  0  0  0
  143.2671   79.5171  224.3395 H   0  0  0  0  0  0  0  0  0  0  0  0
  141.5041   79.2703  224.0387 H   0  0  0  0  0  0  0  0  0  0  0  0
  142.1990   81.2800  223.6980 C   0  0  0  0  0  0  0  0  0  0  0  0
  143.1227   81.7843  223.3779 H   0  0  0  0  0  0  0  0  0  0  0  0
  141.9326   81.5919  224.7187 H   0  0  0  0  0  0  0  0  0  0  0  0
  141.0610   81.6620  222.7490 C   0  0  0  0  0  0  0  0  0  0  0  0
  140.9878   82.7582  222.6941 H   0  0  0  0  0  0  0  0  0  0  0  0
  140.1208   81.2383  223.1317 H   0  0  0  0  0  0  0  0  0  0  0  0
  141.3220   81.1040  221.3490 C   0  0  0  0  0  0  0  0  0  0  0  0
  142.2003   81.6062  220.9173 H   0  0  0  0  0  0  0  0  0  0  0  0
  140.4354   81.2849  220.7235 H   0  0  0  0  0  0  0  0  0  0  0  0
  139.2940   76.5620  222.0670 C   0  0  0  0  0  0  0  0  0  0  0  0
  139.1335   77.6474  222.1449 H   0  0  0  0  0  0  0  0  0  0  0  0
  136.5640   77.5230  222.7300 C   0  0  0  0  0  0  0  0  0  0  0  0
  136.8196   77.8135  221.7003 H   0  0  0  0  0  0  0  0  0  0  0  0
  137.0804   78.1509  223.4710 H   0  0  0  0  0  0  0  0  0  0  0  0
  135.0570   77.7140  222.9330 C   0  0  0  0  0  0  0  0  0  0  0  0
  134.5172   77.2576  222.0902 H   0  0  0  0  0  0  0  0  0  0  0  0
  134.8378   78.7907  222.9841 H   0  0  0  0  0  0  0  0  0  0  0  0
  1  2  1  0
  2  3  2  0
  3  4  1  0
  3  5  1  0
  5  6  1  0
  5  7  2  0
  7  8  1  0
  8  9  2  0
  9 10  1  0
  8 11  1  0
 11 12  1  0
 11 13  1  0
 11 14  1  0
 14 15  1  0
 15 16  1  0
 16 17  2  0
 17 18  1  0
 18 19  1  0
 19 20  1  0
 19 21  1  0
 19 22  1  0
 22 23  2  0
 23 24  1  0
 23 25  1  0
 25 26  1  0
 25 27  2  0
 27 28  1  0
 27 29  1  0
 29 30  1  0
 29 31  2  0
 31 32  1  0
 32 33  1  0
 32 34  1  0
 32 35  1  0
 35 36  1  0
 35 37  1  0
 17 38  1  0
 38 39  1  0
 38 40  1  0
 40 41  2  0
 41 42  1  0
 41 43  1  0
 43 44  1  0
 43 45  1  0
 43 46  1  0
 46 47  1  0
 46 48  1  0
 46 49  1  0
 49 50  1  1
 49 51  1  0
 51 52  1  0
 51 53  1  0
 53 54  1  0
 53 55  1  0
 53 56  1  0
 56 57  1  0
 56 58  1  0
 56 59  1  0
 59 60  1  0
 59 61  1  0
 59 62  1  0
 62 63  1  0
 62 64  1  0
 40 65  1  0
 65 66  1  0
 14 67  1  0
 67 68  1  0
 67 69  1  0
 67 70  1  0
 70 71  1  0
 70 72  1  0
  9  2  1  0
 65 15  2  0
 70  7  1  0
 35 18  1  0
 62 49  1  0
 31 22  1  0
M  CHG  1  41   1
M  END
>  <UniqueID>  (16) 
585

>  <SMILES>  (16) 
c1ccc2c(c1)CCN(c1c/c(=[NH+]/CC[C@@H]3CCCCN3)[nH]c(N3CCc4ccccc4C3)n1)C2

>  <Energy>  (16) 
81.97970566605903

>  <Genealogy>  (16) 
c1ccc2c(c1)CCN(c1cc([NH2+]CCC3CCCCN3)nc(N3CCc4ccccc4C3)n1)C2 (protonated)
c1ccc2c(c1)CCN(c1cc(=[NH+]CCC3CCCCN3)[nH]c(N3CCc4ccccc4C3)n1)C2 (tautomer)
c1ccc2c(c1)CCN(c1cc(=[NH+]CC[C@@H]3CCCCN3)[nH]c(N3CCc4ccccc4C3)n1)C2 (chirality)
c1ccc2c(c1)CCN(c1c/c(=[NH+]/CC[C@@H]3CCCCN3)[nH]c(N3CCc4ccccc4C3)n1)C2 (cis-trans isomerization)
c1ccc2c(c1)CCN(c1c/c(=[NH+]/CC[C@@H]3CCCCN3)[nH]c(N3CCc4ccccc4C3)n1)C2 (3D coordinates assigned)
c1ccc2c(c1)CCN(c1c/c(=[NH+]/CC[C@@H]3CCCCN3)[nH]c(N3CCc4ccccc4C3)n1)C2 (nonaromatic ring conformer: 81.97970566605903 kcal/mol)

>  <smiles>  (16) 
c1ccc2c(c1)CCN(c1cc(NCCC3CCCCN3)nc(N3CCc4ccccc4C3)n1)C2

>  <score_type>  (16) 
oracle

>  <origin>  (16) 
autodockgpu

>  <m_score__min__energy>  (16) 
-9.3699999999999992

>  <m_primary>  (16) 
energy

>  <meeko>  (16) 
{"free_energy": -8.9, "intermolecular_energy": -10.69, "internal_energy": -1.13, "cluster_size": 2, "cluster_id": 4, "rank_in_cluster": 2}

>  <energy>  (16) 
-8.43

>  <cluster_rmsd>  (16) 
0.0

>  <rmsd>  (16) 
270.24

>  <cluster>  (16) 
6

$$$$
VOUYAFWJUZHTKY-QHXHEQRTNA-O
     RDKit          3D

 72 77  0  0  0  0  0  0  0  0999 V2000
  140.8491   71.4606  229.2824 H   0  0  0  0  0  0  0  0  0  0  0  0
  140.5140   71.0240  228.3300 C   0  0  0  0  0  0  0  0  0  0  0  0
  139.6260   69.9440  228.3310 C   0  0  0  0  0  0  0  0  0  0  0  0
  139.2638   69.5314  229.2842 H   0  0  0  0  0  0  0  0  0  0  0  0
  139.1980   69.3880  227.1220 C   0  0  0  0  0  0  0  0  0  0  0  0
  138.5128   68.5275  227.1247 H   0  0  0  0  0  0  0  0  0  0  0  0
  139.6420   69.9270  225.9050 C   0  0  0  0  0  0  0  0  0  0  0  0
  140.5330   71.0090  225.9020 C   0  0  0  0  0  0  0  0  0  0  0  0
  140.9760   71.5490  227.1210 C   0  0  0  0  0  0  0  0  0  0  0  0
  141.6883   72.3872  227.1233 H   0  0  0  0  0  0  0  0  0  0  0  0
  141.0740   71.5220  224.5930 C   0  0  0  0  0  0  0  0  0  0  0  0
  141.9646   70.9358  224.3223 H   0  0  0  0  0  0  0  0  0  0  0  0
  141.3226   72.5859  224.7209 H   0  0  0  0  0  0  0  0  0  0  0  0
  140.0800   71.4120  223.5030 N   0  0  0  0  0  0  0  0  0  0  0  0
  140.2300   72.2750  222.3490 C   0  0  0  0  0  0  0  0  0  0  0  0
  139.7990   73.5620  222.4150 N   0  0  0  0  0  0  0  0  0  0  0  0
  139.8930   74.4150  221.3640 C   0  0  0  0  0  0  0  0  0  0  0  0
  139.3430   75.7420  221.4870 N   0  0  0  0  0  0  0  0  0  0  0  0
  139.5480   76.5590  222.6860 C   0  0  0  0  0  0  0  0  0  0  0  0
  139.9116   75.9206  223.5047 H   0  0  0  0  0  0  0  0  0  0  0  0
  138.5944   77.0255  222.9741 H   0  0  0  0  0  0  0  0  0  0  0  0
  140.5630   77.6370  222.4040 C   0  0  0  0  0  0  0  0  0  0  0  0
  141.1730   78.3110  223.4730 C   0  0  0  0  0  0  0  0  0  0  0  0
  140.9126   78.0432  224.5076 H   0  0  0  0  0  0  0  0  0  0  0  0
  142.1090   79.3200  223.2320 C   0  0  0  0  0  0  0  0  0  0  0  0
  142.5984   79.8291  224.0754 H   0  0  0  0  0  0  0  0  0  0  0  0
  142.4230   79.6820  221.9210 C   0  0  0  0  0  0  0  0  0  0  0  0
  143.1706   80.4668  221.7333 H   0  0  0  0  0  0  0  0  0  0  0  0
  141.7910   79.0510  220.8460 C   0  0  0  0  0  0  0  0  0  0  0  0
  142.0367   79.3488  219.8160 H   0  0  0  0  0  0  0  0  0  0  0  0
  140.8440   78.0390  221.0730 C   0  0  0  0  0  0  0  0  0  0  0  0
  140.2140   77.3470  219.8800 C   0  0  0  0  0  0  0  0  0  0  0  0
  140.9695   76.7036  219.4053 H   0  0  0  0  0  0  0  0  0  0  0  0
  139.8571   78.1262  219.1904 H   0  0  0  0  0  0  0  0  0  0  0  0
  139.0110   76.4850  220.2730 C   0  0  0  0  0  0  0  0  0  0  0  0
  138.7788   75.7811  219.4602 H   0  0  0  0  0  0  0  0  0  0  0  0
  138.1346   77.1249  220.4533 H   0  0  0  0  0  0  0  0  0  0  0  0
  140.4290   73.9780  220.1870 N   0  0  0  0  0  0  0  0  0  0  0  0
  140.4450   74.6390  219.3830 H   0  0  0  0  0  0  0  0  0  0  0  0
  140.8870   72.6930  220.0510 C   0  0  0  0  0  0  0  0  0  0  0  0
  141.4040   72.2580  218.9250 N   0  0  0  0  0  0  0  0  0  0  0  0
  141.2540   72.8090  218.0470 H   0  0  0  0  0  0  0  0  0  0  0  0
  142.2180   71.0470  218.7740 C   0  0  0  0  0  0  0  0  0  0  0  0
  142.3069   70.5474  219.7500 H   0  0  0  0  0  0  0  0  0  0  0  0
  141.7298   70.3806  218.0477 H   0  0  0  0  0  0  0  0  0  0  0  0
  143.6250   71.3990  218.2560 C   0  0  0  0  0  0  0  0  0  0  0  0
  144.3431   70.6923  218.6975 H   0  0  0  0  0  0  0  0  0  0  0  0
  143.5864   71.3328  217.1587 H   0  0  0  0  0  0  0  0  0  0  0  0
  144.0800   72.8340  218.6020 C   0  0  1  0  0  0  0  0  0  0  0  0
  145.0910   72.9690  218.1900 H   0  0  0  0  0  0  0  0  0  0  0  0
  143.1880   73.8340  217.9850 N   0  0  0  0  0  0  0  0  0  0  0  0
  143.2020   73.6860  216.9490 H   0  0  0  0  0  0  0  0  0  0  0  0
  143.6800   75.1980  218.2330 C   0  0  0  0  0  0  0  0  0  0  0  0
  143.0078   75.9187  217.7444 H   0  0  0  0  0  0  0  0  0  0  0  0
  144.6972   75.2869  217.8239 H   0  0  0  0  0  0  0  0  0  0  0  0
  143.7260   75.4920  219.7350 C   0  0  0  0  0  0  0  0  0  0  0  0
  142.7070   75.4402  220.1460 H   0  0  0  0  0  0  0  0  0  0  0  0
  144.1448   76.4973  219.8894 H   0  0  0  0  0  0  0  0  0  0  0  0
  144.6110   74.4700  220.4510 C   0  0  0  0  0  0  0  0  0  0  0  0
  144.5475   74.6339  221.5369 H   0  0  0  0  0  0  0  0  0  0  0  0
  145.6487   74.5960  220.1086 H   0  0  0  0  0  0  0  0  0  0  0  0
  144.1530   73.0460  220.1290 C   0  0  0  0  0  0  0  0  0  0  0  0
  143.1574   72.8785  220.5657 H   0  0  0  0  0  0  0  0  0  0  0  0
  144.8775   72.3349  220.5527 H   0  0  0  0  0  0  0  0  0  0  0  0
  140.7860   71.8160  221.1440 C   0  0  0  0  0  0  0  0  0  0  0  0
  141.1396   70.7781  221.0565 H   0  0  0  0  0  0  0  0  0  0  0  0
  138.9980   70.4030  223.5480 C   0  0  0  0  0  0  0  0  0  0  0  0
  138.9192   69.9280  222.5590 H   0  0  0  0  0  0  0  0  0  0  0  0
  138.0703   70.9248  223.8256 H   0  0  0  0  0  0  0  0  0  0  0  0
  139.2450   69.3130  224.5960 C   0  0  0  0  0  0  0  0  0  0  0  0
  140.0509   68.6507  224.2471 H   0  0  0  0  0  0  0  0  0  0  0  0
  138.3181   68.7380  224.7381 H   0  0  0  0  0  0  0  0  0  0  0  0
  1  2  1  0
  2  3  2  0
  3  4  1  0
  3  5  1  0
  5  6  1  0
  5  7  2  0
  7  8  1  0
  8  9  2  0
  9 10  1  0
  8 11  1  0
 11 12  1  0
 11 13  1  0
 11 14  1  0
 14 15  1  0
 15 16  1  0
 16 17  2  0
 17 18  1  0
 18 19  1  0
 19 20  1  0
 19 21  1  0
 19 22  1  0
 22 23  2  0
 23 24  1  0
 23 25  1  0
 25 26  1  0
 25 27  2  0
 27 28  1  0
 27 29  1  0
 29 30  1  0
 29 31  2  0
 31 32  1  0
 32 33  1  0
 32 34  1  0
 32 35  1  0
 35 36  1  0
 35 37  1  0
 17 38  1  0
 38 39  1  0
 38 40  1  0
 40 41  2  0
 41 42  1  0
 41 43  1  0
 43 44  1  0
 43 45  1  0
 43 46  1  0
 46 47  1  0
 46 48  1  0
 46 49  1  0
 49 50  1  6
 49 51  1  0
 51 52  1  0
 51 53  1  0
 53 54  1  0
 53 55  1  0
 53 56  1  0
 56 57  1  0
 56 58  1  0
 56 59  1  0
 59 60  1  0
 59 61  1  0
 59 62  1  0
 62 63  1  0
 62 64  1  0
 40 65  1  0
 65 66  1  0
 14 67  1  0
 67 68  1  0
 67 69  1  0
 67 70  1  0
 70 71  1  0
 70 72  1  0
  9  2  1  0
 65 15  2  0
 70  7  1  0
 35 18  1  0
 62 49  1  0
 31 22  1  0
M  CHG  1  41   1
M  END
>  <UniqueID>  (17) 
585

>  <SMILES>  (17) 
c1ccc2c(c1)CCN(c1c/c(=[NH+]/CC[C@@H]3CCCCN3)[nH]c(N3CCc4ccccc4C3)n1)C2

>  <Energy>  (17) 
81.97970566605903

>  <Genealogy>  (17) 
c1ccc2c(c1)CCN(c1cc([NH2+]CCC3CCCCN3)nc(N3CCc4ccccc4C3)n1)C2 (protonated)
c1ccc2c(c1)CCN(c1cc(=[NH+]CCC3CCCCN3)[nH]c(N3CCc4ccccc4C3)n1)C2 (tautomer)
c1ccc2c(c1)CCN(c1cc(=[NH+]CC[C@@H]3CCCCN3)[nH]c(N3CCc4ccccc4C3)n1)C2 (chirality)
c1ccc2c(c1)CCN(c1c/c(=[NH+]/CC[C@@H]3CCCCN3)[nH]c(N3CCc4ccccc4C3)n1)C2 (cis-trans isomerization)
c1ccc2c(c1)CCN(c1c/c(=[NH+]/CC[C@@H]3CCCCN3)[nH]c(N3CCc4ccccc4C3)n1)C2 (3D coordinates assigned)
c1ccc2c(c1)CCN(c1c/c(=[NH+]/CC[C@@H]3CCCCN3)[nH]c(N3CCc4ccccc4C3)n1)C2 (nonaromatic ring conformer: 81.97970566605903 kcal/mol)

>  <smiles>  (17) 
c1ccc2c(c1)CCN(c1cc(NCCC3CCCCN3)nc(N3CCc4ccccc4C3)n1)C2

>  <score_type>  (17) 
oracle

>  <origin>  (17) 
autodockgpu

>  <m_score__min__energy>  (17) 
-9.3699999999999992

>  <m_primary>  (17) 
energy

>  <meeko>  (17) 
{"free_energy": -8.71, "intermolecular_energy": -10.5, "internal_energy": -1.8, "cluster_size": 5, "cluster_id": 1, "rank_in_cluster": 4}

>  <energy>  (17) 
-8.42

>  <cluster_rmsd>  (17) 
0.17

>  <rmsd>  (17) 
270.26

>  <cluster>  (17) 
6

$$$$
VOUYAFWJUZHTKY-QHXHEQRTNA-O
     RDKit          3D

 72 77  0  0  0  0  0  0  0  0999 V2000
  140.6385   80.8784  224.4949 H   0  0  0  0  0  0  0  0  0  0  0  0
  140.8230   80.1260  223.7140 C   0  0  0  0  0  0  0  0  0  0  0  0
  141.9610   80.2210  222.9080 C   0  0  0  0  0  0  0  0  0  0  0  0
  142.6702   81.0490  223.0544 H   0  0  0  0  0  0  0  0  0  0  0  0
  142.1990   79.2650  221.9160 C   0  0  0  0  0  0  0  0  0  0  0  0
  143.0864   79.3506  221.2716 H   0  0  0  0  0  0  0  0  0  0  0  0
  141.3060   78.1960  221.7420 C   0  0  0  0  0  0  0  0  0  0  0  0
  140.1630   78.1010  222.5490 C   0  0  0  0  0  0  0  0  0  0  0  0
  139.9200   79.0770  223.5290 C   0  0  0  0  0  0  0  0  0  0  0  0
  139.0159   79.0150  224.1526 H   0  0  0  0  0  0  0  0  0  0  0  0
  139.1650   77.0010  222.2940 C   0  0  0  0  0  0  0  0  0  0  0  0
  138.4541   77.3374  221.5249 H   0  0  0  0  0  0  0  0  0  0  0  0
  138.6510   76.7816  223.2415 H   0  0  0  0  0  0  0  0  0  0  0  0
  139.8180   75.7590  221.8300 N   0  0  0  0  0  0  0  0  0  0  0  0
  139.1130   74.5050  222.0110 C   0  0  0  0  0  0  0  0  0  0  0  0
  139.7680   73.4400  222.5430 N   0  0  0  0  0  0  0  0  0  0  0  0
  139.1710   72.2350  222.7210 C   0  0  0  0  0  0  0  0  0  0  0  0
  139.9550   71.1320  223.2200 N   0  0  0  0  0  0  0  0  0  0  0  0
  141.0670   71.3290  224.1540 C   0  0  0  0  0  0  0  0  0  0  0  0
  141.3481   72.3924  224.1677 H   0  0  0  0  0  0  0  0  0  0  0  0
  141.9252   70.7224  223.8293 H   0  0  0  0  0  0  0  0  0  0  0  0
  140.6530   70.9030  225.5400 C   0  0  0  0  0  0  0  0  0  0  0  0
  141.4110   71.3160  226.6460 C   0  0  0  0  0  0  0  0  0  0  0  0
  142.2956   71.9522  226.4955 H   0  0  0  0  0  0  0  0  0  0  0  0
  141.0490   70.9240  227.9380 C   0  0  0  0  0  0  0  0  0  0  0  0
  141.6353   71.2699  228.8021 H   0  0  0  0  0  0  0  0  0  0  0  0
  139.9440   70.0940  228.1320 C   0  0  0  0  0  0  0  0  0  0  0  0
  139.6529   69.7977  229.1506 H   0  0  0  0  0  0  0  0  0  0  0  0
  139.2060   69.6380  227.0360 C   0  0  0  0  0  0  0  0  0  0  0  0
  138.3421   68.9762  227.1963 H   0  0  0  0  0  0  0  0  0  0  0  0
  139.5600   70.0190  225.7320 C   0  0  0  0  0  0  0  0  0  0  0  0
  138.7070   69.5410  224.5730 C   0  0  0  0  0  0  0  0  0  0  0  0
  137.7453   70.0744  224.5987 H   0  0  0  0  0  0  0  0  0  0  0  0
  138.5690   68.4553  224.6837 H   0  0  0  0  0  0  0  0  0  0  0  0
  139.3720   69.7910  223.2160 C   0  0  0  0  0  0  0  0  0  0  0  0
  138.6206   69.7164  222.4161 H   0  0  0  0  0  0  0  0  0  0  0  0
  140.1573   69.0413  223.0395 H   0  0  0  0  0  0  0  0  0  0  0  0
  137.8690   72.0650  222.3480 N   0  0  0  0  0  0  0  0  0  0  0  0
  137.4520   71.1170  222.4500 H   0  0  0  0  0  0  0  0  0  0  0  0
  137.1470   73.0980  221.8070 C   0  0  0  0  0  0  0  0  0  0  0  0
  135.8940   72.9500  221.4420 N   0  0  0  0  0  0  0  0  0  0  0  0
  135.1670   73.5880  221.8430 H   0  0  0  0  0  0  0  0  0  0  0  0
  135.4000   71.9600  220.4800 C   0  0  0  0  0  0  0  0  0  0  0  0
  135.1911   72.4596  219.5225 H   0  0  0  0  0  0  0  0  0  0  0  0
  136.1674   71.1835  220.3453 H   0  0  0  0  0  0  0  0  0  0  0  0
  134.1090   71.2970  220.9970 C   0  0  0  0  0  0  0  0  0  0  0  0
  133.3237   72.0652  221.0527 H   0  0  0  0  0  0  0  0  0  0  0  0
  133.8611   70.4893  220.2926 H   0  0  0  0  0  0  0  0  0  0  0  0
  134.2530   70.6470  222.3910 C   0  0  1  0  0  0  0  0  0  0  0  0
  133.4928   69.8555  222.4660 H   0  0  0  0  0  0  0  0  0  0  0  0
  135.5850   70.0330  222.5520 N   0  0  0  0  0  0  0  0  0  0  0  0
  135.7050   69.3160  221.7990 H   0  0  0  0  0  0  0  0  0  0  0  0
  135.6850   69.3290  223.8390 C   0  0  0  0  0  0  0  0  0  0  0  0
  136.6794   68.8658  223.9208 H   0  0  0  0  0  0  0  0  0  0  0  0
  134.9004   68.5593  223.8827 H   0  0  0  0  0  0  0  0  0  0  0  0
  135.4860   70.3010  225.0050 C   0  0  0  0  0  0  0  0  0  0  0  0
  136.2881   71.0536  224.9906 H   0  0  0  0  0  0  0  0  0  0  0  0
  135.5143   69.7370  225.9490 H   0  0  0  0  0  0  0  0  0  0  0  0
  134.1330   71.0040  224.8870 C   0  0  0  0  0  0  0  0  0  0  0  0
  134.0543   71.7715  225.6710 H   0  0  0  0  0  0  0  0  0  0  0  0
  133.3332   70.2581  225.0047 H   0  0  0  0  0  0  0  0  0  0  0  0
  133.9920   71.6680  223.5170 C   0  0  0  0  0  0  0  0  0  0  0  0
  134.7194   72.4892  223.4364 H   0  0  0  0  0  0  0  0  0  0  0  0
  132.9679   72.0562  223.4141 H   0  0  0  0  0  0  0  0  0  0  0  0
  137.7720   74.3430  221.6270 C   0  0  0  0  0  0  0  0  0  0  0  0
  137.2154   75.1845  221.1887 H   0  0  0  0  0  0  0  0  0  0  0  0
  141.1240   75.7890  221.1340 C   0  0  0  0  0  0  0  0  0  0  0  0
  141.0743   75.1171  220.2645 H   0  0  0  0  0  0  0  0  0  0  0  0
  141.8906   75.4681  221.8546 H   0  0  0  0  0  0  0  0  0  0  0  0
  141.5060   77.1910  220.6480 C   0  0  0  0  0  0  0  0  0  0  0  0
  140.8752   77.4609  219.7882 H   0  0  0  0  0  0  0  0  0  0  0  0
  142.5659   77.1901  220.3538 H   0  0  0  0  0  0  0  0  0  0  0  0
  1  2  1  0
  2  3  2  0
  3  4  1  0
  3  5  1  0
  5  6  1  0
  5  7  2  0
  7  8  1  0
  8  9  2  0
  9 10  1  0
  8 11  1  0
 11 12  1  0
 11 13  1  0
 11 14  1  0
 14 15  1  0
 15 16  1  0
 16 17  2  0
 17 18  1  0
 18 19  1  0
 19 20  1  0
 19 21  1  0
 19 22  1  0
 22 23  2  0
 23 24  1  0
 23 25  1  0
 25 26  1  0
 25 27  2  0
 27 28  1  0
 27 29  1  0
 29 30  1  0
 29 31  2  0
 31 32  1  0
 32 33  1  0
 32 34  1  0
 32 35  1  0
 35 36  1  0
 35 37  1  0
 17 38  1  0
 38 39  1  0
 38 40  1  0
 40 41  2  0
 41 42  1  0
 41 43  1  0
 43 44  1  0
 43 45  1  0
 43 46  1  0
 46 47  1  0
 46 48  1  0
 46 49  1  0
 49 50  1  6
 49 51  1  0
 51 52  1  0
 51 53  1  0
 53 54  1  0
 53 55  1  0
 53 56  1  0
 56 57  1  0
 56 58  1  0
 56 59  1  0
 59 60  1  0
 59 61  1  0
 59 62  1  0
 62 63  1  0
 62 64  1  0
 40 65  1  0
 65 66  1  0
 14 67  1  0
 67 68  1  0
 67 69  1  0
 67 70  1  0
 70 71  1  0
 70 72  1  0
  9  2  1  0
 65 15  2  0
 70  7  1  0
 35 18  1  0
 62 49  1  0
 31 22  1  0
M  CHG  1  41   1
M  END
>  <UniqueID>  (18) 
585

>  <SMILES>  (18) 
c1ccc2c(c1)CCN(c1c/c(=[NH+]/CC[C@@H]3CCCCN3)[nH]c(N3CCc4ccccc4C3)n1)C2

>  <Energy>  (18) 
81.97970566605903

>  <Genealogy>  (18) 
c1ccc2c(c1)CCN(c1cc([NH2+]CCC3CCCCN3)nc(N3CCc4ccccc4C3)n1)C2 (protonated)
c1ccc2c(c1)CCN(c1cc(=[NH+]CCC3CCCCN3)[nH]c(N3CCc4ccccc4C3)n1)C2 (tautomer)
c1ccc2c(c1)CCN(c1cc(=[NH+]CC[C@@H]3CCCCN3)[nH]c(N3CCc4ccccc4C3)n1)C2 (chirality)
c1ccc2c(c1)CCN(c1c/c(=[NH+]/CC[C@@H]3CCCCN3)[nH]c(N3CCc4ccccc4C3)n1)C2 (cis-trans isomerization)
c1ccc2c(c1)CCN(c1c/c(=[NH+]/CC[C@@H]3CCCCN3)[nH]c(N3CCc4ccccc4C3)n1)C2 (3D coordinates assigned)
c1ccc2c(c1)CCN(c1c/c(=[NH+]/CC[C@@H]3CCCCN3)[nH]c(N3CCc4ccccc4C3)n1)C2 (nonaromatic ring conformer: 81.97970566605903 kcal/mol)

>  <smiles>  (18) 
c1ccc2c(c1)CCN(c1cc(NCCC3CCCCN3)nc(N3CCc4ccccc4C3)n1)C2

>  <score_type>  (18) 
oracle

>  <origin>  (18) 
autodockgpu

>  <m_score__min__energy>  (18) 
-9.3699999999999992

>  <m_primary>  (18) 
energy

>  <meeko>  (18) 
{"free_energy": -8.04, "intermolecular_energy": -9.82, "internal_energy": -1.82, "cluster_size": 4, "cluster_id": 3, "rank_in_cluster": 4}

>  <energy>  (18) 
-8.38

>  <cluster_rmsd>  (18) 
0.0

>  <rmsd>  (18) 
269.77

>  <cluster>  (18) 
7

$$$$
VOUYAFWJUZHTKY-QHXHEQRTNA-O
     RDKit          3D

 72 77  0  0  0  0  0  0  0  0999 V2000
  145.9464   68.7819  218.2141 H   0  0  0  0  0  0  0  0  0  0  0  0
  145.6190   69.8320  218.2050 C   0  0  0  0  0  0  0  0  0  0  0  0
  145.9980   70.6720  217.1540 C   0  0  0  0  0  0  0  0  0  0  0  0
  146.6233   70.2823  216.3372 H   0  0  0  0  0  0  0  0  0  0  0  0
  145.5830   72.0070  217.1400 C   0  0  0  0  0  0  0  0  0  0  0  0
  145.8962   72.6714  216.3212 H   0  0  0  0  0  0  0  0  0  0  0  0
  144.7670   72.5000  218.1700 C   0  0  0  0  0  0  0  0  0  0  0  0
  144.3870   71.6580  219.2250 C   0  0  0  0  0  0  0  0  0  0  0  0
  144.8250   70.3240  219.2440 C   0  0  0  0  0  0  0  0  0  0  0  0
  144.5425   69.6652  220.0784 H   0  0  0  0  0  0  0  0  0  0  0  0
  143.5870   72.2210  220.3710 C   0  0  0  0  0  0  0  0  0  0  0  0
  144.2792   72.6484  221.1114 H   0  0  0  0  0  0  0  0  0  0  0  0
  142.9946   71.4029  220.8066 H   0  0  0  0  0  0  0  0  0  0  0  0
  142.6520   73.2760  219.9270 N   0  0  0  0  0  0  0  0  0  0  0  0
  141.4990   73.5650  220.7560 C   0  0  0  0  0  0  0  0  0  0  0  0
  140.9590   74.8120  220.7410 N   0  0  0  0  0  0  0  0  0  0  0  0
  139.8920   75.1510  221.5090 C   0  0  0  0  0  0  0  0  0  0  0  0
  139.4250   76.5150  221.4950 N   0  0  0  0  0  0  0  0  0  0  0  0
  139.4010   77.3400  222.7060 C   0  0  0  0  0  0  0  0  0  0  0  0
  139.5153   76.6948  223.5895 H   0  0  0  0  0  0  0  0  0  0  0  0
  138.4425   77.8771  222.7601 H   0  0  0  0  0  0  0  0  0  0  0  0
  140.5290   78.3390  222.6670 C   0  0  0  0  0  0  0  0  0  0  0  0
  140.9180   78.9910  223.8470 C   0  0  0  0  0  0  0  0  0  0  0  0
  140.4036   78.7627  224.7921 H   0  0  0  0  0  0  0  0  0  0  0  0
  141.9540   79.9280  223.8300 C   0  0  0  0  0  0  0  0  0  0  0  0
  142.2673   80.4185  224.7634 H   0  0  0  0  0  0  0  0  0  0  0  0
  142.5920   80.2420  222.6280 C   0  0  0  0  0  0  0  0  0  0  0  0
  143.4173   80.9692  222.6183 H   0  0  0  0  0  0  0  0  0  0  0  0
  142.1840   79.6340  221.4370 C   0  0  0  0  0  0  0  0  0  0  0  0
  142.6838   79.8939  220.4922 H   0  0  0  0  0  0  0  0  0  0  0  0
  141.1420   78.6950  221.4380 C   0  0  0  0  0  0  0  0  0  0  0  0
  140.7600   78.0250  220.1320 C   0  0  0  0  0  0  0  0  0  0  0  0
  141.5576   77.3224  219.8489 H   0  0  0  0  0  0  0  0  0  0  0  0
  140.6302   78.8134  219.3760 H   0  0  0  0  0  0  0  0  0  0  0  0
  139.4400   77.2550  220.2350 C   0  0  0  0  0  0  0  0  0  0  0  0
  139.3546   76.5528  219.3926 H   0  0  0  0  0  0  0  0  0  0  0  0
  138.5937   77.9570  220.2031 H   0  0  0  0  0  0  0  0  0  0  0  0
  139.3350   74.2200  222.3370 N   0  0  0  0  0  0  0  0  0  0  0  0
  138.5480   74.5210  222.9490 H   0  0  0  0  0  0  0  0  0  0  0  0
  139.8260   72.9420  222.4000 C   0  0  0  0  0  0  0  0  0  0  0  0
  139.3000   72.0360  223.1930 N   0  0  0  0  0  0  0  0  0  0  0  0
  138.8030   72.3450  224.0610 H   0  0  0  0  0  0  0  0  0  0  0  0
  139.3240   70.5880  222.9630 C   0  0  0  0  0  0  0  0  0  0  0  0
  138.5621   70.3285  222.2132 H   0  0  0  0  0  0  0  0  0  0  0  0
  140.3240   70.3027  222.6044 H   0  0  0  0  0  0  0  0  0  0  0  0
  139.0290   69.8260  224.2690 C   0  0  0  0  0  0  0  0  0  0  0  0
  138.0233   70.1074  224.6145 H   0  0  0  0  0  0  0  0  0  0  0  0
  139.1118   68.7536  224.0385 H   0  0  0  0  0  0  0  0  0  0  0  0
  140.0330   70.1190  225.4050 C   0  0  1  0  0  0  0  0  0  0  0  0
  141.0204   69.7665  225.0721 H   0  0  0  0  0  0  0  0  0  0  0  0
  140.1210   71.5670  225.6720 N   0  0  0  0  0  0  0  0  0  0  0  0
  140.4190   72.0430  224.7890 H   0  0  0  0  0  0  0  0  0  0  0  0
  141.1500   71.8520  226.6840 C   0  0  0  0  0  0  0  0  0  0  0  0
  141.2058   72.9386  226.8461 H   0  0  0  0  0  0  0  0  0  0  0  0
  142.1162   71.4696  226.3231 H   0  0  0  0  0  0  0  0  0  0  0  0
  140.8120   71.1630  228.0090 C   0  0  0  0  0  0  0  0  0  0  0  0
  139.8646   71.5662  228.3961 H   0  0  0  0  0  0  0  0  0  0  0  0
  141.6238   71.3514  228.7270 H   0  0  0  0  0  0  0  0  0  0  0  0
  140.6710   69.6530  227.8030 C   0  0  0  0  0  0  0  0  0  0  0  0
  140.3258   69.1907  228.7395 H   0  0  0  0  0  0  0  0  0  0  0  0
  141.6491   69.2408  227.5143 H   0  0  0  0  0  0  0  0  0  0  0  0
  139.6620   69.3550  226.6930 C   0  0  0  0  0  0  0  0  0  0  0  0
  138.6596   69.6660  227.0222 H   0  0  0  0  0  0  0  0  0  0  0  0
  139.6743   68.2755  226.4819 H   0  0  0  0  0  0  0  0  0  0  0  0
  140.9300   72.5980  221.6030 C   0  0  0  0  0  0  0  0  0  0  0  0
  141.3460   71.5804  221.6412 H   0  0  0  0  0  0  0  0  0  0  0  0
  142.9130   74.0720  218.7070 C   0  0  0  0  0  0  0  0  0  0  0  0
  142.7123   75.1306  218.9285 H   0  0  0  0  0  0  0  0  0  0  0  0
  142.2537   73.6888  217.9143 H   0  0  0  0  0  0  0  0  0  0  0  0
  144.3560   73.9410  218.2100 C   0  0  0  0  0  0  0  0  0  0  0  0
  145.0245   74.4897  218.8898 H   0  0  0  0  0  0  0  0  0  0  0  0
  144.4227   74.3590  217.1947 H   0  0  0  0  0  0  0  0  0  0  0  0
  1  2  1  0
  2  3  2  0
  3  4  1  0
  3  5  1  0
  5  6  1  0
  5  7  2  0
  7  8  1  0
  8  9  2  0
  9 10  1  0
  8 11  1  0
 11 12  1  0
 11 13  1  0
 11 14  1  0
 14 15  1  0
 15 16  1  0
 16 17  2  0
 17 18  1  0
 18 19  1  0
 19 20  1  0
 19 21  1  0
 19 22  1  0
 22 23  2  0
 23 24  1  0
 23 25  1  0
 25 26  1  0
 25 27  2  0
 27 28  1  0
 27 29  1  0
 29 30  1  0
 29 31  2  0
 31 32  1  0
 32 33  1  0
 32 34  1  0
 32 35  1  0
 35 36  1  0
 35 37  1  0
 17 38  1  0
 38 39  1  0
 38 40  1  0
 40 41  2  0
 41 42  1  0
 41 43  1  0
 43 44  1  0
 43 45  1  0
 43 46  1  0
 46 47  1  0
 46 48  1  0
 46 49  1  0
 49 50  1  6
 49 51  1  0
 51 52  1  0
 51 53  1  0
 53 54  1  0
 53 55  1  0
 53 56  1  0
 56 57  1  0
 56 58  1  0
 56 59  1  0
 59 60  1  0
 59 61  1  0
 59 62  1  0
 62 63  1  0
 62 64  1  0
 40 65  1  0
 65 66  1  0
 14 67  1  0
 67 68  1  0
 67 69  1  0
 67 70  1  0
 70 71  1  0
 70 72  1  0
  9  2  1  0
 65 15  2  0
 70  7  1  0
 35 18  1  0
 62 49  1  0
 31 22  1  0
M  CHG  1  41   1
M  END
>  <UniqueID>  (19) 
585

>  <SMILES>  (19) 
c1ccc2c(c1)CCN(c1c/c(=[NH+]/CC[C@@H]3CCCCN3)[nH]c(N3CCc4ccccc4C3)n1)C2

>  <Energy>  (19) 
81.97970566605903

>  <Genealogy>  (19) 
c1ccc2c(c1)CCN(c1cc([NH2+]CCC3CCCCN3)nc(N3CCc4ccccc4C3)n1)C2 (protonated)
c1ccc2c(c1)CCN(c1cc(=[NH+]CCC3CCCCN3)[nH]c(N3CCc4ccccc4C3)n1)C2 (tautomer)
c1ccc2c(c1)CCN(c1cc(=[NH+]CC[C@@H]3CCCCN3)[nH]c(N3CCc4ccccc4C3)n1)C2 (chirality)
c1ccc2c(c1)CCN(c1c/c(=[NH+]/CC[C@@H]3CCCCN3)[nH]c(N3CCc4ccccc4C3)n1)C2 (cis-trans isomerization)
c1ccc2c(c1)CCN(c1c/c(=[NH+]/CC[C@@H]3CCCCN3)[nH]c(N3CCc4ccccc4C3)n1)C2 (3D coordinates assigned)
c1ccc2c(c1)CCN(c1c/c(=[NH+]/CC[C@@H]3CCCCN3)[nH]c(N3CCc4ccccc4C3)n1)C2 (nonaromatic ring conformer: 81.97970566605903 kcal/mol)

>  <smiles>  (19) 
c1ccc2c(c1)CCN(c1cc(NCCC3CCCCN3)nc(N3CCc4ccccc4C3)n1)C2

>  <score_type>  (19) 
oracle

>  <origin>  (19) 
autodockgpu

>  <m_score__min__energy>  (19) 
-9.3699999999999992

>  <m_primary>  (19) 
energy

>  <meeko>  (19) 
{"free_energy": -9.27, "intermolecular_energy": -11.06, "internal_energy": -0.93, "cluster_size": 2, "cluster_id": 2, "rank_in_cluster": 1}

>  <energy>  (19) 
-8.36

>  <cluster_rmsd>  (19) 
0.06

>  <rmsd>  (19) 
269.77

>  <cluster>  (19) 
7

$$$$
VOUYAFWJUZHTKY-QHXHEQRTNA-O
     RDKit          3D

 72 77  0  0  0  0  0  0  0  0999 V2000
  146.2710   69.0227  218.2678 H   0  0  0  0  0  0  0  0  0  0  0  0
  145.8530   70.0370  218.1880 C   0  0  0  0  0  0  0  0  0  0  0  0
  146.0950   70.8030  217.0450 C   0  0  0  0  0  0  0  0  0  0  0  0
  146.7033   70.3909  216.2264 H   0  0  0  0  0  0  0  0  0  0  0  0
  145.5650   72.0930  216.9400 C   0  0  0  0  0  0  0  0  0  0  0  0
  145.7703   72.7009  216.0465 H   0  0  0  0  0  0  0  0  0  0  0  0
  144.7710   72.6120  217.9750 C   0  0  0  0  0  0  0  0  0  0  0  0
  144.5280   71.8440  219.1230 C   0  0  0  0  0  0  0  0  0  0  0  0
  145.0810   70.5570  219.2300 C   0  0  0  0  0  0  0  0  0  0  0  0
  144.9059   69.9577  220.1356 H   0  0  0  0  0  0  0  0  0  0  0  0
  143.7500   72.4440  220.2650 C   0  0  0  0  0  0  0  0  0  0  0  0
  144.4441   72.9933  220.9180 H   0  0  0  0  0  0  0  0  0  0  0  0
  143.2573   71.6244  220.8087 H   0  0  0  0  0  0  0  0  0  0  0  0
  142.7020   73.3740  219.7920 N   0  0  0  0  0  0  0  0  0  0  0  0
  141.5790   73.6440  220.6670 C   0  0  0  0  0  0  0  0  0  0  0  0
  141.0180   74.8810  220.6740 N   0  0  0  0  0  0  0  0  0  0  0  0
  139.9780   75.2030  221.4830 C   0  0  0  0  0  0  0  0  0  0  0  0
  139.4870   76.5590  221.4890 N   0  0  0  0  0  0  0  0  0  0  0  0
  139.4510   77.3670  222.7100 C   0  0  0  0  0  0  0  0  0  0  0  0
  139.5777   76.7120  223.5846 H   0  0  0  0  0  0  0  0  0  0  0  0
  138.4836   77.8869  222.7717 H   0  0  0  0  0  0  0  0  0  0  0  0
  140.5610   78.3860  222.6840 C   0  0  0  0  0  0  0  0  0  0  0  0
  140.9400   79.0280  223.8720 C   0  0  0  0  0  0  0  0  0  0  0  0
  140.4307   78.7779  224.8143 H   0  0  0  0  0  0  0  0  0  0  0  0
  141.9600   79.9830  223.8670 C   0  0  0  0  0  0  0  0  0  0  0  0
  142.2658   80.4661  224.8067 H   0  0  0  0  0  0  0  0  0  0  0  0
  142.5910   80.3240  222.6690 C   0  0  0  0  0  0  0  0  0  0  0  0
  143.4037   81.0653  222.6690 H   0  0  0  0  0  0  0  0  0  0  0  0
  142.1930   79.7260  221.4690 C   0  0  0  0  0  0  0  0  0  0  0  0
  142.6869   80.0080  220.5274 H   0  0  0  0  0  0  0  0  0  0  0  0
  141.1670   78.7680  221.4590 C   0  0  0  0  0  0  0  0  0  0  0  0
  140.7950   78.1090  220.1450 C   0  0  0  0  0  0  0  0  0  0  0  0
  141.6039   77.4234  219.8524 H   0  0  0  0  0  0  0  0  0  0  0  0
  140.6515   78.9052  219.3997 H   0  0  0  0  0  0  0  0  0  0  0  0
  139.4880   77.3160  220.2380 C   0  0  0  0  0  0  0  0  0  0  0  0
  139.4137   76.6237  219.3864 H   0  0  0  0  0  0  0  0  0  0  0  0
  138.6299   78.0038  220.2155 H   0  0  0  0  0  0  0  0  0  0  0  0
  139.4690   74.2640  222.3340 N   0  0  0  0  0  0  0  0  0  0  0  0
  138.7030   74.5520  222.9770 H   0  0  0  0  0  0  0  0  0  0  0  0
  139.9840   72.9940  222.3770 C   0  0  0  0  0  0  0  0  0  0  0  0
  139.5070   72.0810  223.1900 N   0  0  0  0  0  0  0  0  0  0  0  0
  139.0230   72.3820  224.0690 H   0  0  0  0  0  0  0  0  0  0  0  0
  139.5670   70.6320  222.9720 C   0  0  0  0  0  0  0  0  0  0  0  0
  138.8648   70.3579  222.1709 H   0  0  0  0  0  0  0  0  0  0  0  0
  140.5943   70.3591  222.6887 H   0  0  0  0  0  0  0  0  0  0  0  0
  139.1890   69.8720  224.2580 C   0  0  0  0  0  0  0  0  0  0  0  0
  138.1702   70.1680  224.5484 H   0  0  0  0  0  0  0  0  0  0  0  0
  139.2681   68.7989  224.0296 H   0  0  0  0  0  0  0  0  0  0  0  0
  140.1340   70.1480  225.4490 C   0  0  1  0  0  0  0  0  0  0  0  0
  141.1090   69.6989  225.2087 H   0  0  0  0  0  0  0  0  0  0  0  0
  140.3240   71.5970  225.6470 N   0  0  0  0  0  0  0  0  0  0  0  0
  140.7220   71.9960  224.7640 H   0  0  0  0  0  0  0  0  0  0  0  0
  141.3010   71.8560  226.7160 C   0  0  0  0  0  0  0  0  0  0  0  0
  141.4367   72.9421  226.8259 H   0  0  0  0  0  0  0  0  0  0  0  0
  142.2544   71.3776  226.4474 H   0  0  0  0  0  0  0  0  0  0  0  0
  140.8150   71.2730  228.0460 C   0  0  0  0  0  0  0  0  0  0  0  0
  139.8800   71.7719  228.3406 H   0  0  0  0  0  0  0  0  0  0  0  0
  141.5877   71.4369  228.8116 H   0  0  0  0  0  0  0  0  0  0  0  0
  140.5630   69.7700  227.9080 C   0  0  0  0  0  0  0  0  0  0  0  0
  140.1165   69.3907  228.8390 H   0  0  0  0  0  0  0  0  0  0  0  0
  141.5206   69.2647  227.7138 H   0  0  0  0  0  0  0  0  0  0  0  0
  139.6110   69.4920  226.7430 C   0  0  0  0  0  0  0  0  0  0  0  0
  138.6184   69.9020  226.9810 H   0  0  0  0  0  0  0  0  0  0  0  0
  139.5455   68.4048  226.5891 H   0  0  0  0  0  0  0  0  0  0  0  0
  141.0620   72.6690  221.5360 C   0  0  0  0  0  0  0  0  0  0  0  0
  141.4974   71.6591  221.5581 H   0  0  0  0  0  0  0  0  0  0  0  0
  142.8220   74.0710  218.4920 C   0  0  0  0  0  0  0  0  0  0  0  0
  142.5431   75.1258  218.6318 H   0  0  0  0  0  0  0  0  0  0  0  0
  142.1539   73.5629  217.7811 H   0  0  0  0  0  0  0  0  0  0  0  0
  144.2400   74.0120  217.9150 C   0  0  0  0  0  0  0  0  0  0  0  0
  144.8966   74.6739  218.4987 H   0  0  0  0  0  0  0  0  0  0  0  0
  144.2115   74.3379  216.8648 H   0  0  0  0  0  0  0  0  0  0  0  0
  1  2  1  0
  2  3  2  0
  3  4  1  0
  3  5  1  0
  5  6  1  0
  5  7  2  0
  7  8  1  0
  8  9  2  0
  9 10  1  0
  8 11  1  0
 11 12  1  0
 11 13  1  0
 11 14  1  0
 14 15  1  0
 15 16  1  0
 16 17  2  0
 17 18  1  0
 18 19  1  0
 19 20  1  0
 19 21  1  0
 19 22  1  0
 22 23  2  0
 23 24  1  0
 23 25  1  0
 25 26  1  0
 25 27  2  0
 27 28  1  0
 27 29  1  0
 29 30  1  0
 29 31  2  0
 31 32  1  0
 32 33  1  0
 32 34  1  0
 32 35  1  0
 35 36  1  0
 35 37  1  0
 17 38  1  0
 38 39  1  0
 38 40  1  0
 40 41  2  0
 41 42  1  0
 41 43  1  0
 43 44  1  0
 43 45  1  0
 43 46  1  0
 46 47  1  0
 46 48  1  0
 46 49  1  0
 49 50  1  6
 49 51  1  0
 51 52  1  0
 51 53  1  0
 53 54  1  0
 53 55  1  0
 53 56  1  0
 56 57  1  0
 56 58  1  0
 56 59  1  0
 59 60  1  0
 59 61  1  0
 59 62  1  0
 62 63  1  0
 62 64  1  0
 40 65  1  0
 65 66  1  0
 14 67  1  0
 67 68  1  0
 67 69  1  0
 67 70  1  0
 70 71  1  0
 70 72  1  0
  9  2  1  0
 65 15  2  0
 70  7  1  0
 35 18  1  0
 62 49  1  0
 31 22  1  0
M  CHG  1  41   1
M  END
>  <UniqueID>  (20) 
585

>  <SMILES>  (20) 
c1ccc2c(c1)CCN(c1c/c(=[NH+]/CC[C@@H]3CCCCN3)[nH]c(N3CCc4ccccc4C3)n1)C2

>  <Energy>  (20) 
81.97970566605903

>  <Genealogy>  (20) 
c1ccc2c(c1)CCN(c1cc([NH2+]CCC3CCCCN3)nc(N3CCc4ccccc4C3)n1)C2 (protonated)
c1ccc2c(c1)CCN(c1cc(=[NH+]CCC3CCCCN3)[nH]c(N3CCc4ccccc4C3)n1)C2 (tautomer)
c1ccc2c(c1)CCN(c1cc(=[NH+]CC[C@@H]3CCCCN3)[nH]c(N3CCc4ccccc4C3)n1)C2 (chirality)
c1ccc2c(c1)CCN(c1c/c(=[NH+]/CC[C@@H]3CCCCN3)[nH]c(N3CCc4ccccc4C3)n1)C2 (cis-trans isomerization)
c1ccc2c(c1)CCN(c1c/c(=[NH+]/CC[C@@H]3CCCCN3)[nH]c(N3CCc4ccccc4C3)n1)C2 (3D coordinates assigned)
c1ccc2c(c1)CCN(c1c/c(=[NH+]/CC[C@@H]3CCCCN3)[nH]c(N3CCc4ccccc4C3)n1)C2 (nonaromatic ring conformer: 81.97970566605903 kcal/mol)

>  <smiles>  (20) 
c1ccc2c(c1)CCN(c1cc(NCCC3CCCCN3)nc(N3CCc4ccccc4C3)n1)C2

>  <score_type>  (20) 
oracle

>  <origin>  (20) 
autodockgpu

>  <m_score__min__energy>  (20) 
-9.3699999999999992

>  <m_primary>  (20) 
energy

>  <meeko>  (20) 
{"free_energy": -9.26, "intermolecular_energy": -11.05, "internal_energy": -0.94, "cluster_size": 2, "cluster_id": 2, "rank_in_cluster": 2}

>  <energy>  (20) 
-8.16

>  <cluster_rmsd>  (20) 
0.0

>  <rmsd>  (20) 
270.33

>  <cluster>  (20) 
8

$$$$
VOUYAFWJUZHTKY-RNPWZEQVNA-N
     RDKit          3D

 71 76  0  0  0  0  0  0  0  0999 V2000
  140.2000   68.3320  226.5610 C   0  0  0  0  0  0  0  0  0  0  0  0
  141.0120   69.4160  226.9120 C   0  0  0  0  0  0  0  0  0  0  0  0
  141.0820   70.5380  226.0830 C   0  0  0  0  0  0  0  0  0  0  0  0
  140.3390   70.5900  224.8950 C   0  0  0  0  0  0  0  0  0  0  0  0
  139.5420   69.4810  224.5220 C   0  0  0  0  0  0  0  0  0  0  0  0
  139.4680   68.3610  225.3720 C   0  0  0  0  0  0  0  0  0  0  0  0
  138.6990   69.5090  223.2700 C   0  0  0  0  0  0  0  0  0  0  0  0
  139.2590   70.4970  222.2470 C   0  0  0  0  0  0  0  0  0  0  0  0
  139.4950   71.7830  222.9090 N   0  0  0  0  0  0  0  0  0  0  0  0
  139.0160   73.0190  222.3440 C   0  0  0  0  0  0  0  0  0  0  0  0
  137.6670   73.1800  222.0050 C   0  0  0  0  0  0  0  0  0  0  0  0
  137.2490   74.4020  221.4550 C   0  0  0  0  0  0  0  0  0  0  0  0
  135.8840   74.6310  221.0740 N   0  0  0  0  0  0  0  0  0  0  0  0
  134.9220   75.3410  221.9220 C   0  0  0  0  0  0  0  0  0  0  0  0
  135.5940   75.7670  223.2380 C   0  0  0  0  0  0  0  0  0  0  0  0
  135.1360   74.9130  224.4350 C   0  0  1  0  0  0  0  0  0  0  0  0
  133.6080   75.0380  224.6140 C   0  0  0  0  0  0  0  0  0  0  0  0
  133.1270   74.2530  225.8500 C   0  0  0  0  0  0  0  0  0  0  0  0
  134.0350   73.0550  226.1800 C   0  0  0  0  0  0  0  0  0  0  0  0
  134.7010   72.5010  224.9130 C   0  0  0  0  0  0  0  0  0  0  0  0
  135.5530   73.5030  224.2390 N   0  0  0  0  0  0  0  0  0  0  0  0
  138.1570   75.4000  221.2890 N   0  0  0  0  0  0  0  0  0  0  0  0
  139.4580   75.2520  221.6540 C   0  0  0  0  0  0  0  0  0  0  0  0
  140.3820   76.3530  221.5170 N   0  0  0  0  0  0  0  0  0  0  0  0
  140.6040   76.9270  220.1740 C   0  0  0  0  0  0  0  0  0  0  0  0
  141.7960   77.8920  220.1260 C   0  0  0  0  0  0  0  0  0  0  0  0
  141.7520   78.8380  221.2860 C   0  0  0  0  0  0  0  0  0  0  0  0
  142.1060   80.1880  221.1360 C   0  0  0  0  0  0  0  0  0  0  0  0
  142.1080   81.0400  222.2460 C   0  0  0  0  0  0  0  0  0  0  0  0
  141.7810   80.5410  223.5110 C   0  0  0  0  0  0  0  0  0  0  0  0
  141.4400   79.1950  223.6690 C   0  0  0  0  0  0  0  0  0  0  0  0
  141.4150   78.3380  222.5560 C   0  0  0  0  0  0  0  0  0  0  0  0
  141.0760   76.8800  222.7110 C   0  0  0  0  0  0  0  0  0  0  0  0
  139.8720   74.0640  222.1750 N   0  0  0  0  0  0  0  0  0  0  0  0
  140.4650   71.8100  224.0090 C   0  0  0  0  0  0  0  0  0  0  0  0
  140.1381   67.4554  227.2227 H   0  0  0  0  0  0  0  0  0  0  0  0
  141.5967   69.3846  227.8432 H   0  0  0  0  0  0  0  0  0  0  0  0
  141.7239   71.3860  226.3638 H   0  0  0  0  0  0  0  0  0  0  0  0
  138.8318   67.5063  225.0987 H   0  0  0  0  0  0  0  0  0  0  0  0
  138.6835   68.5029  222.8256 H   0  0  0  0  0  0  0  0  0  0  0  0
  137.6825   69.8291  223.5423 H   0  0  0  0  0  0  0  0  0  0  0  0
  140.2059   70.1114  221.8411 H   0  0  0  0  0  0  0  0  0  0  0  0
  138.5414   70.6278  221.4236 H   0  0  0  0  0  0  0  0  0  0  0  0
  136.9478   72.3636  222.1668 H   0  0  0  0  0  0  0  0  0  0  0  0
  135.6320   74.5130  220.0660 H   0  0  0  0  0  0  0  0  0  0  0  0
  134.5596   76.2344  221.3923 H   0  0  0  0  0  0  0  0  0  0  0  0
  134.0780   74.6727  222.1477 H   0  0  0  0  0  0  0  0  0  0  0  0
  136.6836   75.6646  223.1275 H   0  0  0  0  0  0  0  0  0  0  0  0
  135.3052   76.8091  223.4398 H   0  0  0  0  0  0  0  0  0  0  0  0
  135.6136   75.2787  225.3560 H   0  0  0  0  0  0  0  0  0  0  0  0
  133.3467   76.0992  224.7386 H   0  0  0  0  0  0  0  0  0  0  0  0
  133.1170   74.6204  223.7226 H   0  0  0  0  0  0  0  0  0  0  0  0
  133.1118   74.9324  226.7150 H   0  0  0  0  0  0  0  0  0  0  0  0
  132.1245   73.8596  225.6257 H   0  0  0  0  0  0  0  0  0  0  0  0
  134.8157   73.3791  226.8839 H   0  0  0  0  0  0  0  0  0  0  0  0
  133.4178   72.2612  226.6259 H   0  0  0  0  0  0  0  0  0  0  0  0
  135.3234   71.6374  225.1901 H   0  0  0  0  0  0  0  0  0  0  0  0
  133.9025   72.2149  224.2126 H   0  0  0  0  0  0  0  0  0  0  0  0
  136.5280   73.3960  224.5970 H   0  0  0  0  0  0  0  0  0  0  0  0
  140.7896   76.1047  219.4673 H   0  0  0  0  0  0  0  0  0  0  0  0
  139.7041   77.5009  219.9077 H   0  0  0  0  0  0  0  0  0  0  0  0
  142.7313   77.3143  220.1653 H   0  0  0  0  0  0  0  0  0  0  0  0
  141.7472   78.4715  219.1923 H   0  0  0  0  0  0  0  0  0  0  0  0
  142.3822   80.5766  220.1447 H   0  0  0  0  0  0  0  0  0  0  0  0
  142.3667   82.1021  222.1237 H   0  0  0  0  0  0  0  0  0  0  0  0
  141.7923   81.2100  224.3841 H   0  0  0  0  0  0  0  0  0  0  0  0
  141.1906   78.8056  224.6671 H   0  0  0  0  0  0  0  0  0  0  0  0
  142.0053   76.3117  222.8637 H   0  0  0  0  0  0  0  0  0  0  0  0
  140.4037   76.7729  223.5751 H   0  0  0  0  0  0  0  0  0  0  0  0
  141.4808   71.8417  223.5881 H   0  0  0  0  0  0  0  0  0  0  0  0
  140.2646   72.7014  224.6216 H   0  0  0  0  0  0  0  0  0  0  0  0
  1  2  2  0
  2  3  1  0
  3  4  2  0
  4  5  1  0
  5  6  2  0
  5  7  1  0
  7  8  1  0
  8  9  1  0
  9 10  1  0
 10 11  2  0
 11 12  1  0
 12 13  1  0
 13 14  1  0
 14 15  1  0
 15 16  1  0
 16 17  1  0
 17 18  1  0
 18 19  1  0
 19 20  1  0
 20 21  1  0
 12 22  2  0
 22 23  1  0
 23 24  1  0
 24 25  1  0
 25 26  1  0
 26 27  1  0
 27 28  2  0
 28 29  1  0
 29 30  2  0
 30 31  1  0
 31 32  2  0
 32 33  1  0
 23 34  2  0
  9 35  1  0
  6  1  1  0
 34 10  1  0
 35  4  1  0
 21 16  1  0
 33 24  1  0
 32 27  1  0
  1 36  1  0
  2 37  1  0
  3 38  1  0
  6 39  1  0
  7 40  1  0
  7 41  1  0
  8 42  1  0
  8 43  1  0
 11 44  1  0
 13 45  1  0
 14 46  1  0
 14 47  1  0
 15 48  1  0
 15 49  1  0
 16 50  1  1
 17 51  1  0
 17 52  1  0
 18 53  1  0
 18 54  1  0
 19 55  1  0
 19 56  1  0
 20 57  1  0
 20 58  1  0
 21 59  1  0
 25 60  1  0
 25 61  1  0
 26 62  1  0
 26 63  1  0
 28 64  1  0
 29 65  1  0
 30 66  1  0
 31 67  1  0
 33 68  1  0
 33 69  1  0
 35 70  1  0
 35 71  1  0
M  END
>  <UniqueID>  (21) 
586

>  <SMILES>  (21) 
c1ccc2c(c1)CCN(c1cc(NCC[C@H]3CCCCN3)nc(N3CCc4ccccc4C3)n1)C2

>  <Energy>  (21) 
84.40597876800952

>  <Genealogy>  (21) 
c1ccc2c(c1)CCN(c1cc(NCC[C@H]3CCCCN3)nc(N3CCc4ccccc4C3)n1)C2 (chirality)
c1ccc2c(c1)CCN(c1cc(NCC[C@H]3CCCCN3)nc(N3CCc4ccccc4C3)n1)C2 (3D coordinates assigned)
c1ccc2c(c1)CCN(c1cc(NCC[C@H]3CCCCN3)nc(N3CCc4ccccc4C3)n1)C2 (nonaromatic ring conformer: 84.40597876800952 kcal/mol)

>  <smiles>  (21) 
c1ccc2c(c1)CCN(c1cc(NCCC3CCCCN3)nc(N3CCc4ccccc4C3)n1)C2

>  <score_type>  (21) 
oracle

>  <origin>  (21) 
autodockgpu

>  <m_score__min__energy>  (21) 
-10.380000000000001

>  <m_primary>  (21) 
energy

>  <meeko>  (21) 
{"free_energy": -9.44, "intermolecular_energy": -11.23, "internal_energy": -1.35, "cluster_size": 3, "cluster_id": 4, "rank_in_cluster": 1}

>  <energy>  (21) 
-10.38

>  <cluster_rmsd>  (21) 
0.0

>  <rmsd>  (21) 
269.43

>  <cluster>  (21) 
1

$$$$
VOUYAFWJUZHTKY-RNPWZEQVNA-N
     RDKit          3D

 71 76  0  0  0  0  0  0  0  0999 V2000
  142.0980   81.3230  222.4000 C   0  0  0  0  0  0  0  0  0  0  0  0
  141.4640   80.8530  223.5550 C   0  0  0  0  0  0  0  0  0  0  0  0
  140.9320   79.5620  223.5880 C   0  0  0  0  0  0  0  0  0  0  0  0
  141.0310   78.7250  222.4680 C   0  0  0  0  0  0  0  0  0  0  0  0
  141.6440   79.2100  221.2870 C   0  0  0  0  0  0  0  0  0  0  0  0
  142.1880   80.5090  221.2700 C   0  0  0  0  0  0  0  0  0  0  0  0
  141.8030   78.3310  220.0710 C   0  0  0  0  0  0  0  0  0  0  0  0
  140.7590   77.2150  220.0530 C   0  0  0  0  0  0  0  0  0  0  0  0
  140.7630   76.5410  221.3550 N   0  0  0  0  0  0  0  0  0  0  0  0
  140.8300   75.1050  221.4590 C   0  0  0  0  0  0  0  0  0  0  0  0
  139.8520   74.3880  222.1580 C   0  0  0  0  0  0  0  0  0  0  0  0
  139.9630   72.9910  222.2330 C   0  0  0  0  0  0  0  0  0  0  0  0
  139.0030   72.1940  222.9440 N   0  0  0  0  0  0  0  0  0  0  0  0
  139.3630   71.0000  223.7140 C   0  0  0  0  0  0  0  0  0  0  0  0
  140.5050   71.3260  224.6900 C   0  0  0  0  0  0  0  0  0  0  0  0
  140.7980   70.1680  225.6620 C   0  0  1  0  0  0  0  0  0  0  0  0
  140.6580   70.6580  227.1190 C   0  0  0  0  0  0  0  0  0  0  0  0
  141.0160   69.5420  228.1180 C   0  0  0  0  0  0  0  0  0  0  0  0
  140.7530   68.1350  227.5520 C   0  0  0  0  0  0  0  0  0  0  0  0
  139.6060   68.1550  226.5340 C   0  0  0  0  0  0  0  0  0  0  0  0
  139.8920   69.0280  225.3760 N   0  0  0  0  0  0  0  0  0  0  0  0
  140.9990   72.3730  221.6080 N   0  0  0  0  0  0  0  0  0  0  0  0
  141.9250   73.0700  220.8970 C   0  0  0  0  0  0  0  0  0  0  0  0
  142.9800   72.3750  220.1970 N   0  0  0  0  0  0  0  0  0  0  0  0
  144.3120   73.0100  220.1160 C   0  0  0  0  0  0  0  0  0  0  0  0
  145.2490   72.3070  219.1240 C   0  0  0  0  0  0  0  0  0  0  0  0
  145.1970   70.8230  219.3160 C   0  0  0  0  0  0  0  0  0  0  0  0
  146.3580   70.0380  219.2220 C   0  0  0  0  0  0  0  0  0  0  0  0
  146.2760   68.6470  219.3540 C   0  0  0  0  0  0  0  0  0  0  0  0
  145.0340   68.0360  219.5550 C   0  0  0  0  0  0  0  0  0  0  0  0
  143.8730   68.8110  219.6360 C   0  0  0  0  0  0  0  0  0  0  0  0
  143.9500   70.2090  219.5270 C   0  0  0  0  0  0  0  0  0  0  0  0
  142.7090   71.0570  219.5870 C   0  0  0  0  0  0  0  0  0  0  0  0
  141.8300   74.4270  220.8330 N   0  0  0  0  0  0  0  0  0  0  0  0
  140.4160   77.3440  222.5330 C   0  0  0  0  0  0  0  0  0  0  0  0
  142.5264   82.3360  222.3824 H   0  0  0  0  0  0  0  0  0  0  0  0
  141.3842   81.5019  224.4396 H   0  0  0  0  0  0  0  0  0  0  0  0
  140.4322   79.1999  224.4985 H   0  0  0  0  0  0  0  0  0  0  0  0
  142.6855   80.8832  220.3631 H   0  0  0  0  0  0  0  0  0  0  0  0
  141.6860   78.9459  219.1665 H   0  0  0  0  0  0  0  0  0  0  0  0
  142.8020   77.8718  220.1025 H   0  0  0  0  0  0  0  0  0  0  0  0
  139.7639   77.6431  219.8617 H   0  0  0  0  0  0  0  0  0  0  0  0
  140.9985   76.4930  219.2584 H   0  0  0  0  0  0  0  0  0  0  0  0
  139.0120   74.9099  222.6397 H   0  0  0  0  0  0  0  0  0  0  0  0
  138.0620   72.6130  223.1280 H   0  0  0  0  0  0  0  0  0  0  0  0
  138.4863   70.6551  224.2818 H   0  0  0  0  0  0  0  0  0  0  0  0
  139.6944   70.2116  223.0222 H   0  0  0  0  0  0  0  0  0  0  0  0
  141.4151   71.5386  224.1099 H   0  0  0  0  0  0  0  0  0  0  0  0
  140.1952   72.1951  225.2889 H   0  0  0  0  0  0  0  0  0  0  0  0
  141.8318   69.8187  225.5228 H   0  0  0  0  0  0  0  0  0  0  0  0
  141.3336   71.5116  227.2771 H   0  0  0  0  0  0  0  0  0  0  0  0
  139.6124   70.9549  227.2880 H   0  0  0  0  0  0  0  0  0  0  0  0
  142.0829   69.6257  228.3725 H   0  0  0  0  0  0  0  0  0  0  0  0
  140.3767   69.6699  229.0039 H   0  0  0  0  0  0  0  0  0  0  0  0
  141.6656   67.7701  227.0579 H   0  0  0  0  0  0  0  0  0  0  0  0
  140.4714   67.4712  228.3827 H   0  0  0  0  0  0  0  0  0  0  0  0
  139.4391   67.1303  226.1705 H   0  0  0  0  0  0  0  0  0  0  0  0
  138.7155   68.5542  227.0416 H   0  0  0  0  0  0  0  0  0  0  0  0
  140.3250   68.4450  224.6270 H   0  0  0  0  0  0  0  0  0  0  0  0
  144.1839   74.0551  219.7976 H   0  0  0  0  0  0  0  0  0  0  0  0
  144.7727   72.9394  221.1124 H   0  0  0  0  0  0  0  0  0  0  0  0
  144.9379   72.5504  218.0974 H   0  0  0  0  0  0  0  0  0  0  0  0
  146.2782   72.6529  219.3001 H   0  0  0  0  0  0  0  0  0  0  0  0
  147.3323   70.5168  219.0445 H   0  0  0  0  0  0  0  0  0  0  0  0
  147.1881   68.0345  219.2997 H   0  0  0  0  0  0  0  0  0  0  0  0
  144.9703   66.9419  219.6497 H   0  0  0  0  0  0  0  0  0  0  0  0
  142.8976   68.3248  219.7854 H   0  0  0  0  0  0  0  0  0  0  0  0
  142.3298   71.2076  218.5655 H   0  0  0  0  0  0  0  0  0  0  0  0
  141.9661   70.5362  220.2090 H   0  0  0  0  0  0  0  0  0  0  0  0
  139.3218   77.4429  222.5876 H   0  0  0  0  0  0  0  0  0  0  0  0
  140.8099   76.8341  223.4245 H   0  0  0  0  0  0  0  0  0  0  0  0
  1  2  2  0
  2  3  1  0
  3  4  2  0
  4  5  1  0
  5  6  2  0
  5  7  1  0
  7  8  1  0
  8  9  1  0
  9 10  1  0
 10 11  2  0
 11 12  1  0
 12 13  1  0
 13 14  1  0
 14 15  1  0
 15 16  1  0
 16 17  1  0
 17 18  1  0
 18 19  1  0
 19 20  1  0
 20 21  1  0
 12 22  2  0
 22 23  1  0
 23 24  1  0
 24 25  1  0
 25 26  1  0
 26 27  1  0
 27 28  2  0
 28 29  1  0
 29 30  2  0
 30 31  1  0
 31 32  2  0
 32 33  1  0
 23 34  2  0
  9 35  1  0
  6  1  1  0
 34 10  1  0
 35  4  1  0
 21 16  1  0
 33 24  1  0
 32 27  1  0
  1 36  1  0
  2 37  1  0
  3 38  1  0
  6 39  1  0
  7 40  1  0
  7 41  1  0
  8 42  1  0
  8 43  1  0
 11 44  1  0
 13 45  1  0
 14 46  1  0
 14 47  1  0
 15 48  1  0
 15 49  1  0
 16 50  1  1
 17 51  1  0
 17 52  1  0
 18 53  1  0
 18 54  1  0
 19 55  1  0
 19 56  1  0
 20 57  1  0
 20 58  1  0
 21 59  1  0
 25 60  1  0
 25 61  1  0
 26 62  1  0
 26 63  1  0
 28 64  1  0
 29 65  1  0
 30 66  1  0
 31 67  1  0
 33 68  1  0
 33 69  1  0
 35 70  1  0
 35 71  1  0
M  END
>  <UniqueID>  (22) 
586

>  <SMILES>  (22) 
c1ccc2c(c1)CCN(c1cc(NCC[C@H]3CCCCN3)nc(N3CCc4ccccc4C3)n1)C2

>  <Energy>  (22) 
84.40597876800952

>  <Genealogy>  (22) 
c1ccc2c(c1)CCN(c1cc(NCC[C@H]3CCCCN3)nc(N3CCc4ccccc4C3)n1)C2 (chirality)
c1ccc2c(c1)CCN(c1cc(NCC[C@H]3CCCCN3)nc(N3CCc4ccccc4C3)n1)C2 (3D coordinates assigned)
c1ccc2c(c1)CCN(c1cc(NCC[C@H]3CCCCN3)nc(N3CCc4ccccc4C3)n1)C2 (nonaromatic ring conformer: 84.40597876800952 kcal/mol)

>  <smiles>  (22) 
c1ccc2c(c1)CCN(c1cc(NCCC3CCCCN3)nc(N3CCc4ccccc4C3)n1)C2

>  <score_type>  (22) 
oracle

>  <origin>  (22) 
autodockgpu

>  <m_score__min__energy>  (22) 
-10.380000000000001

>  <m_primary>  (22) 
energy

>  <meeko>  (22) 
{"free_energy": -10.06, "intermolecular_energy": -11.85, "internal_energy": -0.96, "cluster_size": 2, "cluster_id": 2, "rank_in_cluster": 1}

>  <energy>  (22) 
-9.8

>  <cluster_rmsd>  (22) 
0.96

>  <rmsd>  (22) 
269.41

>  <cluster>  (22) 
1

$$$$
VOUYAFWJUZHTKY-RNPWZEQVNA-N
     RDKit          3D

 71 76  0  0  0  0  0  0  0  0999 V2000
  139.5930   69.7190  228.3210 C   0  0  0  0  0  0  0  0  0  0  0  0
  140.6450   70.6410  228.3300 C   0  0  0  0  0  0  0  0  0  0  0  0
  141.0810   71.2210  227.1360 C   0  0  0  0  0  0  0  0  0  0  0  0
  140.4670   70.8890  225.9210 C   0  0  0  0  0  0  0  0  0  0  0  0
  139.4230   69.9320  225.9050 C   0  0  0  0  0  0  0  0  0  0  0  0
  138.9830   69.3640  227.1160 C   0  0  0  0  0  0  0  0  0  0  0  0
  138.7110   69.5720  224.6240 C   0  0  0  0  0  0  0  0  0  0  0  0
  139.5930   69.8430  223.4050 C   0  0  0  0  0  0  0  0  0  0  0  0
  140.1270   71.2040  223.4990 N   0  0  0  0  0  0  0  0  0  0  0  0
  140.0480   72.1210  222.3900 C   0  0  0  0  0  0  0  0  0  0  0  0
  140.0390   71.6550  221.0700 C   0  0  0  0  0  0  0  0  0  0  0  0
  139.9640   72.5880  220.0240 C   0  0  0  0  0  0  0  0  0  0  0  0
  139.9620   72.1800  218.6470 N   0  0  0  0  0  0  0  0  0  0  0  0
  141.1830   71.8470  217.9070 C   0  0  0  0  0  0  0  0  0  0  0  0
  142.2570   71.3170  218.8720 C   0  0  0  0  0  0  0  0  0  0  0  0
  142.9680   72.4480  219.6380 C   0  0  1  0  0  0  0  0  0  0  0  0
  144.4850   72.1690  219.6960 C   0  0  0  0  0  0  0  0  0  0  0  0
  145.2180   73.2450  220.5190 C   0  0  0  0  0  0  0  0  0  0  0  0
  144.4950   74.6040  220.4930 C   0  0  0  0  0  0  0  0  0  0  0  0
  143.7130   74.7880  219.1860 C   0  0  0  0  0  0  0  0  0  0  0  0
  142.6740   73.7540  218.9980 N   0  0  0  0  0  0  0  0  0  0  0  0
  139.8790   73.9110  220.3200 N   0  0  0  0  0  0  0  0  0  0  0  0
  139.8500   74.3580  221.6040 C   0  0  0  0  0  0  0  0  0  0  0  0
  139.6990   75.7670  221.8820 N   0  0  0  0  0  0  0  0  0  0  0  0
  138.5520   76.2060  222.7030 C   0  0  0  0  0  0  0  0  0  0  0  0
  138.3590   77.7290  222.6920 C   0  0  0  0  0  0  0  0  0  0  0  0
  139.6680   78.4250  222.8990 C   0  0  0  0  0  0  0  0  0  0  0  0
  139.7580   79.5800  223.6920 C   0  0  0  0  0  0  0  0  0  0  0  0
  140.9830   80.2430  223.8280 C   0  0  0  0  0  0  0  0  0  0  0  0
  142.1140   79.7690  223.1530 C   0  0  0  0  0  0  0  0  0  0  0  0
  142.0270   78.6270  222.3520 C   0  0  0  0  0  0  0  0  0  0  0  0
  140.8060   77.9430  222.2280 C   0  0  0  0  0  0  0  0  0  0  0  0
  140.6870   76.7270  221.3500 C   0  0  0  0  0  0  0  0  0  0  0  0
  139.9370   73.4580  222.6220 N   0  0  0  0  0  0  0  0  0  0  0  0
  140.9860   71.5160  224.6460 C   0  0  0  0  0  0  0  0  0  0  0  0
  139.2457   69.2729  229.2646 H   0  0  0  0  0  0  0  0  0  0  0  0
  141.1303   70.9101  229.2798 H   0  0  0  0  0  0  0  0  0  0  0  0
  141.9112   71.9425  227.1499 H   0  0  0  0  0  0  0  0  0  0  0  0
  138.1562   68.6384  227.1128 H   0  0  0  0  0  0  0  0  0  0  0  0
  138.4495   68.5038  224.6471 H   0  0  0  0  0  0  0  0  0  0  0  0
  137.8058   70.1918  224.5431 H   0  0  0  0  0  0  0  0  0  0  0  0
  140.4230   69.1214  223.3820 H   0  0  0  0  0  0  0  0  0  0  0  0
  138.9995   69.7382  222.4848 H   0  0  0  0  0  0  0  0  0  0  0  0
  140.0898   70.5771  220.8564 H   0  0  0  0  0  0  0  0  0  0  0  0
  139.0540   71.8690  218.2310 H   0  0  0  0  0  0  0  0  0  0  0  0
  140.9550   71.0754  217.1569 H   0  0  0  0  0  0  0  0  0  0  0  0
  141.5609   72.7522  217.4093 H   0  0  0  0  0  0  0  0  0  0  0  0
  141.7778   70.6449  219.5991 H   0  0  0  0  0  0  0  0  0  0  0  0
  143.0145   70.7896  218.2736 H   0  0  0  0  0  0  0  0  0  0  0  0
  142.5935   72.4886  220.6715 H   0  0  0  0  0  0  0  0  0  0  0  0
  144.6516   71.1862  220.1611 H   0  0  0  0  0  0  0  0  0  0  0  0
  144.8816   72.1848  218.6701 H   0  0  0  0  0  0  0  0  0  0  0  0
  145.2888   72.9034  221.5622 H   0  0  0  0  0  0  0  0  0  0  0  0
  146.2124   73.3877  220.0708 H   0  0  0  0  0  0  0  0  0  0  0  0
  143.7956   74.6552  221.3405 H   0  0  0  0  0  0  0  0  0  0  0  0
  145.2484   75.4023  220.5650 H   0  0  0  0  0  0  0  0  0  0  0  0
  143.2292   75.7758  219.2004 H   0  0  0  0  0  0  0  0  0  0  0  0
  144.4270   74.6996  218.3539 H   0  0  0  0  0  0  0  0  0  0  0  0
  141.7780   74.1180  219.3910 H   0  0  0  0  0  0  0  0  0  0  0  0
  137.6389   75.7335  222.3119 H   0  0  0  0  0  0  0  0  0  0  0  0
  138.7549   75.9060  223.7417 H   0  0  0  0  0  0  0  0  0  0  0  0
  137.9365   78.0333  221.7230 H   0  0  0  0  0  0  0  0  0  0  0  0
  137.6755   78.0068  223.5079 H   0  0  0  0  0  0  0  0  0  0  0  0
  138.8650   79.9642  224.2068 H   0  0  0  0  0  0  0  0  0  0  0  0
  141.0571   81.1365  224.4653 H   0  0  0  0  0  0  0  0  0  0  0  0
  143.0739   80.2968  223.2533 H   0  0  0  0  0  0  0  0  0  0  0  0
  142.9166   78.2628  221.8173 H   0  0  0  0  0  0  0  0  0  0  0  0
  140.3726   77.0423  220.3442 H   0  0  0  0  0  0  0  0  0  0  0  0
  141.6673   76.2291  221.3171 H   0  0  0  0  0  0  0  0  0  0  0  0
  141.9983   71.1342  224.4474 H   0  0  0  0  0  0  0  0  0  0  0  0
  140.9955   72.6077  224.7801 H   0  0  0  0  0  0  0  0  0  0  0  0
  1  2  2  0
  2  3  1  0
  3  4  2  0
  4  5  1  0
  5  6  2  0
  5  7  1  0
  7  8  1  0
  8  9  1  0
  9 10  1  0
 10 11  2  0
 11 12  1  0
 12 13  1  0
 13 14  1  0
 14 15  1  0
 15 16  1  0
 16 17  1  0
 17 18  1  0
 18 19  1  0
 19 20  1  0
 20 21  1  0
 12 22  2  0
 22 23  1  0
 23 24  1  0
 24 25  1  0
 25 26  1  0
 26 27  1  0
 27 28  2  0
 28 29  1  0
 29 30  2  0
 30 31  1  0
 31 32  2  0
 32 33  1  0
 23 34  2  0
  9 35  1  0
  6  1  1  0
 34 10  1  0
 35  4  1  0
 21 16  1  0
 33 24  1  0
 32 27  1  0
  1 36  1  0
  2 37  1  0
  3 38  1  0
  6 39  1  0
  7 40  1  0
  7 41  1  0
  8 42  1  0
  8 43  1  0
 11 44  1  0
 13 45  1  0
 14 46  1  0
 14 47  1  0
 15 48  1  0
 15 49  1  0
 16 50  1  1
 17 51  1  0
 17 52  1  0
 18 53  1  0
 18 54  1  0
 19 55  1  0
 19 56  1  0
 20 57  1  0
 20 58  1  0
 21 59  1  0
 25 60  1  0
 25 61  1  0
 26 62  1  0
 26 63  1  0
 28 64  1  0
 29 65  1  0
 30 66  1  0
 31 67  1  0
 33 68  1  0
 33 69  1  0
 35 70  1  0
 35 71  1  0
M  END
>  <UniqueID>  (23) 
586

>  <SMILES>  (23) 
c1ccc2c(c1)CCN(c1cc(NCC[C@H]3CCCCN3)nc(N3CCc4ccccc4C3)n1)C2

>  <Energy>  (23) 
84.40597876800952

>  <Genealogy>  (23) 
c1ccc2c(c1)CCN(c1cc(NCC[C@H]3CCCCN3)nc(N3CCc4ccccc4C3)n1)C2 (chirality)
c1ccc2c(c1)CCN(c1cc(NCC[C@H]3CCCCN3)nc(N3CCc4ccccc4C3)n1)C2 (3D coordinates assigned)
c1ccc2c(c1)CCN(c1cc(NCC[C@H]3CCCCN3)nc(N3CCc4ccccc4C3)n1)C2 (nonaromatic ring conformer: 84.40597876800952 kcal/mol)

>  <smiles>  (23) 
c1ccc2c(c1)CCN(c1cc(NCCC3CCCCN3)nc(N3CCc4ccccc4C3)n1)C2

>  <score_type>  (23) 
oracle

>  <origin>  (23) 
autodockgpu

>  <m_score__min__energy>  (23) 
-10.380000000000001

>  <m_primary>  (23) 
energy

>  <meeko>  (23) 
{"free_energy": -9.04, "intermolecular_energy": -10.83, "internal_energy": -2.1, "cluster_size": 5, "cluster_id": 5, "rank_in_cluster": 2}

>  <energy>  (23) 
-9.7

>  <cluster_rmsd>  (23) 
0.84

>  <rmsd>  (23) 
269.32

>  <cluster>  (23) 
1

$$$$
VOUYAFWJUZHTKY-RNPWZEQVNA-N
     RDKit          3D

 71 76  0  0  0  0  0  0  0  0999 V2000
  142.1930   80.9560  222.6440 C   0  0  0  0  0  0  0  0  0  0  0  0
  141.9980   80.2880  223.8570 C   0  0  0  0  0  0  0  0  0  0  0  0
  141.5180   78.9770  223.8680 C   0  0  0  0  0  0  0  0  0  0  0  0
  141.2310   78.3170  222.6650 C   0  0  0  0  0  0  0  0  0  0  0  0
  141.3970   79.0020  221.4360 C   0  0  0  0  0  0  0  0  0  0  0  0
  141.8940   80.3190  221.4380 C   0  0  0  0  0  0  0  0  0  0  0  0
  141.1330   78.3170  220.1170 C   0  0  0  0  0  0  0  0  0  0  0  0
  140.1540   77.1560  220.2820 C   0  0  0  0  0  0  0  0  0  0  0  0
  140.6090   76.3040  221.3840 N   0  0  0  0  0  0  0  0  0  0  0  0
  140.7170   74.8740  221.2350 C   0  0  0  0  0  0  0  0  0  0  0  0
  141.3610   74.3130  220.1260 C   0  0  0  0  0  0  0  0  0  0  0  0
  141.4380   72.9150  220.0240 C   0  0  0  0  0  0  0  0  0  0  0  0
  142.0740   72.2730  218.9080 N   0  0  0  0  0  0  0  0  0  0  0  0
  142.2300   72.9100  217.5980 C   0  0  0  0  0  0  0  0  0  0  0  0
  143.2340   74.0720  217.6930 C   0  0  0  0  0  0  0  0  0  0  0  0
  144.4730   73.7110  218.5340 C   0  0  1  0  0  0  0  0  0  0  0  0
  144.3430   74.3180  219.9470 C   0  0  0  0  0  0  0  0  0  0  0  0
  145.6020   74.0370  220.7910 C   0  0  0  0  0  0  0  0  0  0  0  0
  146.3220   72.7450  220.3660 C   0  0  0  0  0  0  0  0  0  0  0  0
  145.3330   71.7270  219.7830 C   0  0  0  0  0  0  0  0  0  0  0  0
  144.6390   72.2370  218.5810 N   0  0  0  0  0  0  0  0  0  0  0  0
  140.9080   72.1480  221.0130 N   0  0  0  0  0  0  0  0  0  0  0  0
  140.3160   72.6980  222.1070 C   0  0  0  0  0  0  0  0  0  0  0  0
  139.8160   71.8530  223.1660 N   0  0  0  0  0  0  0  0  0  0  0  0
  138.6150   71.0320  222.9060 C   0  0  0  0  0  0  0  0  0  0  0  0
  138.0360   70.4010  224.1800 C   0  0  0  0  0  0  0  0  0  0  0  0
  139.1270   69.7950  225.0070 C   0  0  0  0  0  0  0  0  0  0  0  0
  138.9370   68.5750  225.6770 C   0  0  0  0  0  0  0  0  0  0  0  0
  139.9530   68.0540  226.4860 C   0  0  0  0  0  0  0  0  0  0  0  0
  141.1500   68.7610  226.6470 C   0  0  0  0  0  0  0  0  0  0  0  0
  141.3400   69.9810  225.9920 C   0  0  0  0  0  0  0  0  0  0  0  0
  140.3330   70.5000  225.1610 C   0  0  0  0  0  0  0  0  0  0  0  0
  140.5100   71.8240  224.4690 C   0  0  0  0  0  0  0  0  0  0  0  0
  140.2270   74.0530  222.2030 N   0  0  0  0  0  0  0  0  0  0  0  0
  140.6850   76.9070  222.7190 C   0  0  0  0  0  0  0  0  0  0  0  0
  142.5825   81.9847  222.6399 H   0  0  0  0  0  0  0  0  0  0  0  0
  142.2235   80.7972  224.8056 H   0  0  0  0  0  0  0  0  0  0  0  0
  141.3642   78.4590  224.8261 H   0  0  0  0  0  0  0  0  0  0  0  0
  142.0474   80.8483  220.4860 H   0  0  0  0  0  0  0  0  0  0  0  0
  140.7079   79.0471  219.4126 H   0  0  0  0  0  0  0  0  0  0  0  0
  142.0846   77.9179  219.7359 H   0  0  0  0  0  0  0  0  0  0  0  0
  139.1513   77.5478  220.5080 H   0  0  0  0  0  0  0  0  0  0  0  0
  140.1104   76.5704  219.3519 H   0  0  0  0  0  0  0  0  0  0  0  0
  141.7989   74.9561  219.3484 H   0  0  0  0  0  0  0  0  0  0  0  0
  142.6630   71.4300  219.1010 H   0  0  0  0  0  0  0  0  0  0  0  0
  142.5988   72.1684  216.8741 H   0  0  0  0  0  0  0  0  0  0  0  0
  141.2559   73.3010  217.2688 H   0  0  0  0  0  0  0  0  0  0  0  0
  143.5620   74.3392  216.6776 H   0  0  0  0  0  0  0  0  0  0  0  0
  142.7268   74.9135  218.1876 H   0  0  0  0  0  0  0  0  0  0  0  0
  145.3747   74.1354  218.0682 H   0  0  0  0  0  0  0  0  0  0  0  0
  144.2050   75.4058  219.8592 H   0  0  0  0  0  0  0  0  0  0  0  0
  143.4781   73.8571  220.4465 H   0  0  0  0  0  0  0  0  0  0  0  0
  146.2977   74.8816  220.6783 H   0  0  0  0  0  0  0  0  0  0  0  0
  145.2820   73.9123  221.8360 H   0  0  0  0  0  0  0  0  0  0  0  0
  147.0774   72.9887  219.6044 H   0  0  0  0  0  0  0  0  0  0  0  0
  146.7967   72.3017  221.2537 H   0  0  0  0  0  0  0  0  0  0  0  0
  145.8845   70.8147  219.5116 H   0  0  0  0  0  0  0  0  0  0  0  0
  144.5701   71.5251  220.5493 H   0  0  0  0  0  0  0  0  0  0  0  0
  145.1830   71.9410  217.7410 H   0  0  0  0  0  0  0  0  0  0  0  0
  137.8449   71.6712  222.4496 H   0  0  0  0  0  0  0  0  0  0  0  0
  138.9144   70.2113  222.2376 H   0  0  0  0  0  0  0  0  0  0  0  0
  137.5244   71.1771  224.7681 H   0  0  0  0  0  0  0  0  0  0  0  0
  137.3252   69.6114  223.8948 H   0  0  0  0  0  0  0  0  0  0  0  0
  137.9887   68.0288  225.5656 H   0  0  0  0  0  0  0  0  0  0  0  0
  139.8109   67.0893  226.9951 H   0  0  0  0  0  0  0  0  0  0  0  0
  141.9439   68.3552  227.2912 H   0  0  0  0  0  0  0  0  0  0  0  0
  142.2800   70.5360  226.1274 H   0  0  0  0  0  0  0  0  0  0  0  0
  140.1005   72.6191  225.1094 H   0  0  0  0  0  0  0  0  0  0  0  0
  141.5844   71.9780  224.2902 H   0  0  0  0  0  0  0  0  0  0  0  0
  139.6763   76.9317  223.1571 H   0  0  0  0  0  0  0  0  0  0  0  0
  141.3659   76.2985  223.3322 H   0  0  0  0  0  0  0  0  0  0  0  0
  1  2  2  0
  2  3  1  0
  3  4  2  0
  4  5  1  0
  5  6  2  0
  5  7  1  0
  7  8  1  0
  8  9  1  0
  9 10  1  0
 10 11  2  0
 11 12  1  0
 12 13  1  0
 13 14  1  0
 14 15  1  0
 15 16  1  0
 16 17  1  0
 17 18  1  0
 18 19  1  0
 19 20  1  0
 20 21  1  0
 12 22  2  0
 22 23  1  0
 23 24  1  0
 24 25  1  0
 25 26  1  0
 26 27  1  0
 27 28  2  0
 28 29  1  0
 29 30  2  0
 30 31  1  0
 31 32  2  0
 32 33  1  0
 23 34  2  0
  9 35  1  0
  6  1  1  0
 34 10  1  0
 35  4  1  0
 21 16  1  0
 33 24  1  0
 32 27  1  0
  1 36  1  0
  2 37  1  0
  3 38  1  0
  6 39  1  0
  7 40  1  0
  7 41  1  0
  8 42  1  0
  8 43  1  0
 11 44  1  0
 13 45  1  0
 14 46  1  0
 14 47  1  0
 15 48  1  0
 15 49  1  0
 16 50  1  6
 17 51  1  0
 17 52  1  0
 18 53  1  0
 18 54  1  0
 19 55  1  0
 19 56  1  0
 20 57  1  0
 20 58  1  0
 21 59  1  0
 25 60  1  0
 25 61  1  0
 26 62  1  0
 26 63  1  0
 28 64  1  0
 29 65  1  0
 30 66  1  0
 31 67  1  0
 33 68  1  0
 33 69  1  0
 35 70  1  0
 35 71  1  0
M  END
>  <UniqueID>  (24) 
586

>  <SMILES>  (24) 
c1ccc2c(c1)CCN(c1cc(NCC[C@H]3CCCCN3)nc(N3CCc4ccccc4C3)n1)C2

>  <Energy>  (24) 
84.40597876800952

>  <Genealogy>  (24) 
c1ccc2c(c1)CCN(c1cc(NCC[C@H]3CCCCN3)nc(N3CCc4ccccc4C3)n1)C2 (chirality)
c1ccc2c(c1)CCN(c1cc(NCC[C@H]3CCCCN3)nc(N3CCc4ccccc4C3)n1)C2 (3D coordinates assigned)
c1ccc2c(c1)CCN(c1cc(NCC[C@H]3CCCCN3)nc(N3CCc4ccccc4C3)n1)C2 (nonaromatic ring conformer: 84.40597876800952 kcal/mol)

>  <smiles>  (24) 
c1ccc2c(c1)CCN(c1cc(NCCC3CCCCN3)nc(N3CCc4ccccc4C3)n1)C2

>  <score_type>  (24) 
oracle

>  <origin>  (24) 
autodockgpu

>  <m_score__min__energy>  (24) 
-10.380000000000001

>  <m_primary>  (24) 
energy

>  <meeko>  (24) 
{"free_energy": -9.57, "intermolecular_energy": -11.36, "internal_energy": -1.66, "cluster_size": 8, "cluster_id": 1, "rank_in_cluster": 4}

>  <energy>  (24) 
-9.57

>  <cluster_rmsd>  (24) 
1.67

>  <rmsd>  (24) 
269.5

>  <cluster>  (24) 
1

$$$$
VOUYAFWJUZHTKY-RNPWZEQVNA-N
     RDKit          3D

 71 76  0  0  0  0  0  0  0  0999 V2000
  139.8160   69.7480  228.1220 C   0  0  0  0  0  0  0  0  0  0  0  0
  140.7370   70.8010  228.1100 C   0  0  0  0  0  0  0  0  0  0  0  0
  141.0080   71.4840  226.9220 C   0  0  0  0  0  0  0  0  0  0  0  0
  140.3580   71.1250  225.7340 C   0  0  0  0  0  0  0  0  0  0  0  0
  139.4480   70.0390  225.7360 C   0  0  0  0  0  0  0  0  0  0  0  0
  139.1740   69.3660  226.9420 C   0  0  0  0  0  0  0  0  0  0  0  0
  138.7010   69.6420  224.4870 C   0  0  0  0  0  0  0  0  0  0  0  0
  139.4510   70.0790  223.2290 C   0  0  0  0  0  0  0  0  0  0  0  0
  139.8080   71.4950  223.3580 N   0  0  0  0  0  0  0  0  0  0  0  0
  139.5320   72.4390  222.3050 C   0  0  0  0  0  0  0  0  0  0  0  0
  138.5290   72.1910  221.3610 C   0  0  0  0  0  0  0  0  0  0  0  0
  138.3000   73.1400  220.3530 C   0  0  0  0  0  0  0  0  0  0  0  0
  137.2960   72.9450  219.3450 N   0  0  0  0  0  0  0  0  0  0  0  0
  135.9340   73.4760  219.4560 C   0  0  0  0  0  0  0  0  0  0  0  0
  135.6940   74.0190  220.8740 C   0  0  0  0  0  0  0  0  0  0  0  0
  136.5100   75.2930  221.1630 C   0  0  1  0  0  0  0  0  0  0  0  0
  135.5810   76.5250  221.1530 C   0  0  0  0  0  0  0  0  0  0  0  0
  136.3800   77.8250  221.3660 C   0  0  0  0  0  0  0  0  0  0  0  0
  137.6660   77.6020  222.1810 C   0  0  0  0  0  0  0  0  0  0  0  0
  137.5070   76.4250  223.1520 C   0  0  0  0  0  0  0  0  0  0  0  0
  137.2240   75.1520  222.4560 N   0  0  0  0  0  0  0  0  0  0  0  0
  139.0400   74.2810  220.3340 N   0  0  0  0  0  0  0  0  0  0  0  0
  139.9870   74.5350  221.2760 C   0  0  0  0  0  0  0  0  0  0  0  0
  140.7130   75.7830  221.2600 N   0  0  0  0  0  0  0  0  0  0  0  0
  141.1370   76.3370  219.9570 C   0  0  0  0  0  0  0  0  0  0  0  0
  142.1230   77.5050  220.0970 C   0  0  0  0  0  0  0  0  0  0  0  0
  141.6490   78.4680  221.1400 C   0  0  0  0  0  0  0  0  0  0  0  0
  141.7890   79.8550  220.9660 C   0  0  0  0  0  0  0  0  0  0  0  0
  141.3860   80.7330  221.9780 C   0  0  0  0  0  0  0  0  0  0  0  0
  140.8660   80.2300  223.1750 C   0  0  0  0  0  0  0  0  0  0  0  0
  140.7360   78.8500  223.3600 C   0  0  0  0  0  0  0  0  0  0  0  0
  141.1180   77.9630  222.3400 C   0  0  0  0  0  0  0  0  0  0  0  0
  141.0090   76.4740  222.5310 C   0  0  0  0  0  0  0  0  0  0  0  0
  140.2230   73.6110  222.2480 N   0  0  0  0  0  0  0  0  0  0  0  0
  140.6990   71.8700  224.4610 C   0  0  0  0  0  0  0  0  0  0  0  0
  139.5972   69.2203  229.0620 H   0  0  0  0  0  0  0  0  0  0  0  0
  141.2493   71.0920  229.0389 H   0  0  0  0  0  0  0  0  0  0  0  0
  141.7360   72.3086  226.9192 H   0  0  0  0  0  0  0  0  0  0  0  0
  138.4517   68.5364  226.9548 H   0  0  0  0  0  0  0  0  0  0  0  0
  138.5832   68.5484  224.4723 H   0  0  0  0  0  0  0  0  0  0  0  0
  137.7197   70.1390  224.4965 H   0  0  0  0  0  0  0  0  0  0  0  0
  140.3644   69.4766  223.1154 H   0  0  0  0  0  0  0  0  0  0  0  0
  138.8128   69.9342  222.3449 H   0  0  0  0  0  0  0  0  0  0  0  0
  137.9311   71.2689  221.4083 H   0  0  0  0  0  0  0  0  0  0  0  0
  137.6090   72.6340  218.3980 H   0  0  0  0  0  0  0  0  0  0  0  0
  135.7997   74.2890  218.7273 H   0  0  0  0  0  0  0  0  0  0  0  0
  135.2147   72.6691  219.2524 H   0  0  0  0  0  0  0  0  0  0  0  0
  134.6248   74.2517  220.9865 H   0  0  0  0  0  0  0  0  0  0  0  0
  136.0166   73.2462  221.5872 H   0  0  0  0  0  0  0  0  0  0  0  0
  137.2655   75.4367  220.3765 H   0  0  0  0  0  0  0  0  0  0  0  0
  135.0632   76.5765  220.1839 H   0  0  0  0  0  0  0  0  0  0  0  0
  134.8562   76.4223  221.9741 H   0  0  0  0  0  0  0  0  0  0  0  0
  136.6528   78.2360  220.3828 H   0  0  0  0  0  0  0  0  0  0  0  0
  135.7422   78.5191  221.9330 H   0  0  0  0  0  0  0  0  0  0  0  0
  138.4961   77.3892  221.4913 H   0  0  0  0  0  0  0  0  0  0  0  0
  137.8719   78.5113  222.7647 H   0  0  0  0  0  0  0  0  0  0  0  0
  138.4382   76.3135  223.7268 H   0  0  0  0  0  0  0  0  0  0  0  0
  136.6515   76.6453  223.8074 H   0  0  0  0  0  0  0  0  0  0  0  0
  138.1320   74.6680  222.2800 H   0  0  0  0  0  0  0  0  0  0  0  0
  141.6201   75.5375  219.3761 H   0  0  0  0  0  0  0  0  0  0  0  0
  140.2379   76.7224  219.4539 H   0  0  0  0  0  0  0  0  0  0  0  0
  143.1092   77.1136  220.3870 H   0  0  0  0  0  0  0  0  0  0  0  0
  142.1923   78.0300  219.1328 H   0  0  0  0  0  0  0  0  0  0  0  0
  142.2160   80.2512  220.0329 H   0  0  0  0  0  0  0  0  0  0  0  0
  141.4782   81.8194  221.8322 H   0  0  0  0  0  0  0  0  0  0  0  0
  140.5585   80.9218  223.9730 H   0  0  0  0  0  0  0  0  0  0  0  0
  140.3339   78.4584  224.3060 H   0  0  0  0  0  0  0  0  0  0  0  0
  141.9613   76.0947  222.9302 H   0  0  0  0  0  0  0  0  0  0  0  0
  140.1833   76.2764  223.2304 H   0  0  0  0  0  0  0  0  0  0  0  0
  141.7356   71.6355  224.1774 H   0  0  0  0  0  0  0  0  0  0  0  0
  140.5762   72.9466  224.6503 H   0  0  0  0  0  0  0  0  0  0  0  0
  1  2  2  0
  2  3  1  0
  3  4  2  0
  4  5  1  0
  5  6  2  0
  5  7  1  0
  7  8  1  0
  8  9  1  0
  9 10  1  0
 10 11  2  0
 11 12  1  0
 12 13  1  0
 13 14  1  0
 14 15  1  0
 15 16  1  0
 16 17  1  0
 17 18  1  0
 18 19  1  0
 19 20  1  0
 20 21  1  0
 12 22  2  0
 22 23  1  0
 23 24  1  0
 24 25  1  0
 25 26  1  0
 26 27  1  0
 27 28  2  0
 28 29  1  0
 29 30  2  0
 30 31  1  0
 31 32  2  0
 32 33  1  0
 23 34  2  0
  9 35  1  0
  6  1  1  0
 34 10  1  0
 35  4  1  0
 21 16  1  0
 33 24  1  0
 32 27  1  0
  1 36  1  0
  2 37  1  0
  3 38  1  0
  6 39  1  0
  7 40  1  0
  7 41  1  0
  8 42  1  0
  8 43  1  0
 11 44  1  0
 13 45  1  0
 14 46  1  0
 14 47  1  0
 15 48  1  0
 15 49  1  0
 16 50  1  6
 17 51  1  0
 17 52  1  0
 18 53  1  0
 18 54  1  0
 19 55  1  0
 19 56  1  0
 20 57  1  0
 20 58  1  0
 21 59  1  0
 25 60  1  0
 25 61  1  0
 26 62  1  0
 26 63  1  0
 28 64  1  0
 29 65  1  0
 30 66  1  0
 31 67  1  0
 33 68  1  0
 33 69  1  0
 35 70  1  0
 35 71  1  0
M  END
>  <UniqueID>  (25) 
586

>  <SMILES>  (25) 
c1ccc2c(c1)CCN(c1cc(NCC[C@H]3CCCCN3)nc(N3CCc4ccccc4C3)n1)C2

>  <Energy>  (25) 
84.40597876800952

>  <Genealogy>  (25) 
c1ccc2c(c1)CCN(c1cc(NCC[C@H]3CCCCN3)nc(N3CCc4ccccc4C3)n1)C2 (chirality)
c1ccc2c(c1)CCN(c1cc(NCC[C@H]3CCCCN3)nc(N3CCc4ccccc4C3)n1)C2 (3D coordinates assigned)
c1ccc2c(c1)CCN(c1cc(NCC[C@H]3CCCCN3)nc(N3CCc4ccccc4C3)n1)C2 (nonaromatic ring conformer: 84.40597876800952 kcal/mol)

>  <smiles>  (25) 
c1ccc2c(c1)CCN(c1cc(NCCC3CCCCN3)nc(N3CCc4ccccc4C3)n1)C2

>  <score_type>  (25) 
oracle

>  <origin>  (25) 
autodockgpu

>  <m_score__min__energy>  (25) 
-10.380000000000001

>  <m_primary>  (25) 
energy

>  <meeko>  (25) 
{"free_energy": -8.06, "intermolecular_energy": -9.85, "internal_energy": -2.85, "cluster_size": 3, "cluster_id": 4, "rank_in_cluster": 2}

>  <energy>  (25) 
-9.56

>  <cluster_rmsd>  (25) 
1.64

>  <rmsd>  (25) 
269.5

>  <cluster>  (25) 
1

$$$$
VOUYAFWJUZHTKY-RNPWZEQVNA-N
     RDKit          3D

 71 76  0  0  0  0  0  0  0  0999 V2000
  142.1630   80.5690  222.2730 C   0  0  0  0  0  0  0  0  0  0  0  0
  142.1240   79.9550  223.5290 C   0  0  0  0  0  0  0  0  0  0  0  0
  141.6600   78.6440  223.6560 C   0  0  0  0  0  0  0  0  0  0  0  0
  141.2330   77.9300  222.5270 C   0  0  0  0  0  0  0  0  0  0  0  0
  141.2420   78.5610  221.2590 C   0  0  0  0  0  0  0  0  0  0  0  0
  141.7240   79.8790  221.1420 C   0  0  0  0  0  0  0  0  0  0  0  0
  140.8240   77.8180  220.0130 C   0  0  0  0  0  0  0  0  0  0  0  0
  139.8830   76.6620  220.3470 C   0  0  0  0  0  0  0  0  0  0  0  0
  140.4770   75.8610  221.4200 N   0  0  0  0  0  0  0  0  0  0  0  0
  140.5780   74.4260  221.3210 C   0  0  0  0  0  0  0  0  0  0  0  0
  141.1840   73.8220  220.2130 C   0  0  0  0  0  0  0  0  0  0  0  0
  141.2550   72.4220  220.1610 C   0  0  0  0  0  0  0  0  0  0  0  0
  141.8520   71.7370  219.0490 N   0  0  0  0  0  0  0  0  0  0  0  0
  143.1830   71.1250  219.1040 C   0  0  0  0  0  0  0  0  0  0  0  0
  144.2520   72.1510  218.6910 C   0  0  0  0  0  0  0  0  0  0  0  0
  143.6870   73.5800  218.5880 C   0  0  1  0  0  0  0  0  0  0  0  0
  144.2970   74.4650  219.6960 C   0  0  0  0  0  0  0  0  0  0  0  0
  143.6970   75.8840  219.6670 C   0  0  0  0  0  0  0  0  0  0  0  0
  143.2240   76.2980  218.2620 C   0  0  0  0  0  0  0  0  0  0  0  0
  144.0530   75.6040  217.1740 C   0  0  0  0  0  0  0  0  0  0  0  0
  143.9500   74.1310  217.2360 N   0  0  0  0  0  0  0  0  0  0  0  0
  140.7570   71.6930  221.1950 N   0  0  0  0  0  0  0  0  0  0  0  0
  140.2040   72.2850  222.2870 C   0  0  0  0  0  0  0  0  0  0  0  0
  139.7380   71.4810  223.3920 N   0  0  0  0  0  0  0  0  0  0  0  0
  138.5340   70.6470  223.2010 C   0  0  0  0  0  0  0  0  0  0  0  0
  137.9950   70.0660  224.5160 C   0  0  0  0  0  0  0  0  0  0  0  0
  139.1120   69.4960  225.3330 C   0  0  0  0  0  0  0  0  0  0  0  0
  138.9470   68.3040  226.0570 C   0  0  0  0  0  0  0  0  0  0  0  0
  139.9890   67.8190  226.8560 C   0  0  0  0  0  0  0  0  0  0  0  0
  141.1870   68.5350  226.9530 C   0  0  0  0  0  0  0  0  0  0  0  0
  141.3530   69.7280  226.2450 C   0  0  0  0  0  0  0  0  0  0  0  0
  140.3200   70.2110  225.4240 C   0  0  0  0  0  0  0  0  0  0  0  0
  140.4700   71.5070  224.6750 C   0  0  0  0  0  0  0  0  0  0  0  0
  140.1190   73.6430  222.3350 N   0  0  0  0  0  0  0  0  0  0  0  0
  140.7100   76.5220  222.7080 C   0  0  0  0  0  0  0  0  0  0  0  0
  142.5404   81.5977  222.1763 H   0  0  0  0  0  0  0  0  0  0  0  0
  142.4598   80.5065  224.4196 H   0  0  0  0  0  0  0  0  0  0  0  0
  141.6293   78.1685  224.6475 H   0  0  0  0  0  0  0  0  0  0  0  0
  141.7546   80.3662  220.1562 H   0  0  0  0  0  0  0  0  0  0  0  0
  140.3092   78.5152  219.3356 H   0  0  0  0  0  0  0  0  0  0  0  0
  141.7250   77.4060  219.5351 H   0  0  0  0  0  0  0  0  0  0  0  0
  138.9122   77.0599  220.6775 H   0  0  0  0  0  0  0  0  0  0  0  0
  139.7308   76.0360  219.4554 H   0  0  0  0  0  0  0  0  0  0  0  0
  141.5971   74.4342  219.3978 H   0  0  0  0  0  0  0  0  0  0  0  0
  141.2270   71.4460  218.2620 H   0  0  0  0  0  0  0  0  0  0  0  0
  143.3842   70.7824  220.1297 H   0  0  0  0  0  0  0  0  0  0  0  0
  143.2162   70.2708  218.4117 H   0  0  0  0  0  0  0  0  0  0  0  0
  145.0573   72.1429  219.4403 H   0  0  0  0  0  0  0  0  0  0  0  0
  144.6237   71.8653  217.6959 H   0  0  0  0  0  0  0  0  0  0  0  0
  142.5970   73.5604  218.7351 H   0  0  0  0  0  0  0  0  0  0  0  0
  144.0907   74.0078  220.6750 H   0  0  0  0  0  0  0  0  0  0  0  0
  145.3810   74.5408  219.5249 H   0  0  0  0  0  0  0  0  0  0  0  0
  142.8371   75.9170  220.3522 H   0  0  0  0  0  0  0  0  0  0  0  0
  144.4867   76.5860  219.9730 H   0  0  0  0  0  0  0  0  0  0  0  0
  142.1670   76.0182  218.1417 H   0  0  0  0  0  0  0  0  0  0  0  0
  143.3501   77.3857  218.1571 H   0  0  0  0  0  0  0  0  0  0  0  0
  143.6960   75.9413  216.1897 H   0  0  0  0  0  0  0  0  0  0  0  0
  145.1075   75.8720  217.3359 H   0  0  0  0  0  0  0  0  0  0  0  0
  143.1760   73.8320  216.6030 H   0  0  0  0  0  0  0  0  0  0  0  0
  137.7482   71.2649  222.7421 H   0  0  0  0  0  0  0  0  0  0  0  0
  138.8172   69.8008  222.5578 H   0  0  0  0  0  0  0  0  0  0  0  0
  137.4986   70.8638  225.0879 H   0  0  0  0  0  0  0  0  0  0  0  0
  137.2785   69.2643  224.2839 H   0  0  0  0  0  0  0  0  0  0  0  0
  137.9981   67.7510  225.9962 H   0  0  0  0  0  0  0  0  0  0  0  0
  139.8659   66.8752  227.4074 H   0  0  0  0  0  0  0  0  0  0  0  0
  142.0012   68.1574  227.5890 H   0  0  0  0  0  0  0  0  0  0  0  0
  142.2945   70.2904  226.3305 H   0  0  0  0  0  0  0  0  0  0  0  0
  140.0751   72.3254  225.2949 H   0  0  0  0  0  0  0  0  0  0  0  0
  141.5379   71.6582  224.4590 H   0  0  0  0  0  0  0  0  0  0  0  0
  139.7621   76.5625  223.2647 H   0  0  0  0  0  0  0  0  0  0  0  0
  141.4660   75.9433  223.2590 H   0  0  0  0  0  0  0  0  0  0  0  0
  1  2  2  0
  2  3  1  0
  3  4  2  0
  4  5  1  0
  5  6  2  0
  5  7  1  0
  7  8  1  0
  8  9  1  0
  9 10  1  0
 10 11  2  0
 11 12  1  0
 12 13  1  0
 13 14  1  0
 14 15  1  0
 15 16  1  0
 16 17  1  0
 17 18  1  0
 18 19  1  0
 19 20  1  0
 20 21  1  0
 12 22  2  0
 22 23  1  0
 23 24  1  0
 24 25  1  0
 25 26  1  0
 26 27  1  0
 27 28  2  0
 28 29  1  0
 29 30  2  0
 30 31  1  0
 31 32  2  0
 32 33  1  0
 23 34  2  0
  9 35  1  0
  6  1  1  0
 34 10  1  0
 35  4  1  0
 21 16  1  0
 33 24  1  0
 32 27  1  0
  1 36  1  0
  2 37  1  0
  3 38  1  0
  6 39  1  0
  7 40  1  0
  7 41  1  0
  8 42  1  0
  8 43  1  0
 11 44  1  0
 13 45  1  0
 14 46  1  0
 14 47  1  0
 15 48  1  0
 15 49  1  0
 16 50  1  1
 17 51  1  0
 17 52  1  0
 18 53  1  0
 18 54  1  0
 19 55  1  0
 19 56  1  0
 20 57  1  0
 20 58  1  0
 21 59  1  0
 25 60  1  0
 25 61  1  0
 26 62  1  0
 26 63  1  0
 28 64  1  0
 29 65  1  0
 30 66  1  0
 31 67  1  0
 33 68  1  0
 33 69  1  0
 35 70  1  0
 35 71  1  0
M  END
>  <UniqueID>  (26) 
586

>  <SMILES>  (26) 
c1ccc2c(c1)CCN(c1cc(NCC[C@H]3CCCCN3)nc(N3CCc4ccccc4C3)n1)C2

>  <Energy>  (26) 
84.40597876800952

>  <Genealogy>  (26) 
c1ccc2c(c1)CCN(c1cc(NCC[C@H]3CCCCN3)nc(N3CCc4ccccc4C3)n1)C2 (chirality)
c1ccc2c(c1)CCN(c1cc(NCC[C@H]3CCCCN3)nc(N3CCc4ccccc4C3)n1)C2 (3D coordinates assigned)
c1ccc2c(c1)CCN(c1cc(NCC[C@H]3CCCCN3)nc(N3CCc4ccccc4C3)n1)C2 (nonaromatic ring conformer: 84.40597876800952 kcal/mol)

>  <smiles>  (26) 
c1ccc2c(c1)CCN(c1cc(NCCC3CCCCN3)nc(N3CCc4ccccc4C3)n1)C2

>  <score_type>  (26) 
oracle

>  <origin>  (26) 
autodockgpu

>  <m_score__min__energy>  (26) 
-10.380000000000001

>  <m_primary>  (26) 
energy

>  <meeko>  (26) 
{"free_energy": -9.0, "intermolecular_energy": -10.79, "internal_energy": -1.6, "cluster_size": 8, "cluster_id": 1, "rank_in_cluster": 8}

>  <energy>  (26) 
-9.49

>  <cluster_rmsd>  (26) 
1.06

>  <rmsd>  (26) 
269.47

>  <cluster>  (26) 
1

$$$$
VOUYAFWJUZHTKY-RNPWZEQVNA-N
     RDKit          3D

 71 76  0  0  0  0  0  0  0  0999 V2000
  141.8120   80.5330  222.3440 C   0  0  0  0  0  0  0  0  0  0  0  0
  141.1560   79.9790  223.4490 C   0  0  0  0  0  0  0  0  0  0  0  0
  140.7910   78.6310  223.4460 C   0  0  0  0  0  0  0  0  0  0  0  0
  141.0800   77.8200  222.3400 C   0  0  0  0  0  0  0  0  0  0  0  0
  141.7150   78.3860  221.2070 C   0  0  0  0  0  0  0  0  0  0  0  0
  142.0900   79.7430  221.2270 C   0  0  0  0  0  0  0  0  0  0  0  0
  142.0770   77.5410  220.0100 C   0  0  0  0  0  0  0  0  0  0  0  0
  141.1870   76.3020  219.9170 C   0  0  0  0  0  0  0  0  0  0  0  0
  141.1770   75.6270  221.2180 N   0  0  0  0  0  0  0  0  0  0  0  0
  141.4180   74.2100  221.3320 C   0  0  0  0  0  0  0  0  0  0  0  0
  142.3860   73.5790  220.5420 C   0  0  0  0  0  0  0  0  0  0  0  0
  142.5810   72.1970  220.6880 C   0  0  0  0  0  0  0  0  0  0  0  0
  143.5480   71.4840  219.9010 N   0  0  0  0  0  0  0  0  0  0  0  0
  144.6440   72.1430  219.1850 C   0  0  0  0  0  0  0  0  0  0  0  0
  145.2380   71.1870  218.1370 C   0  0  0  0  0  0  0  0  0  0  0  0
  144.8570   69.7180  218.3970 C   0  0  1  0  0  0  0  0  0  0  0  0
  145.3430   68.8350  217.2280 C   0  0  0  0  0  0  0  0  0  0  0  0
  144.9120   67.3680  217.4220 C   0  0  0  0  0  0  0  0  0  0  0  0
  144.7530   66.9910  218.9050 C   0  0  0  0  0  0  0  0  0  0  0  0
  145.6910   67.8220  219.7910 C   0  0  0  0  0  0  0  0  0  0  0  0
  145.4220   69.2720  219.6940 N   0  0  0  0  0  0  0  0  0  0  0  0
  141.8450   71.5160  221.6050 N   0  0  0  0  0  0  0  0  0  0  0  0
  140.9320   72.1390  222.3960 C   0  0  0  0  0  0  0  0  0  0  0  0
  140.2090   71.3950  223.4010 N   0  0  0  0  0  0  0  0  0  0  0  0
  139.1300   70.4840  222.9640 C   0  0  0  0  0  0  0  0  0  0  0  0
  138.2740   69.9720  224.1300 C   0  0  0  0  0  0  0  0  0  0  0  0
  139.1440   69.5250  225.2640 C   0  0  0  0  0  0  0  0  0  0  0  0
  138.8280   68.3820  226.0150 C   0  0  0  0  0  0  0  0  0  0  0  0
  139.6280   68.0130  227.1020 C   0  0  0  0  0  0  0  0  0  0  0  0
  140.7300   68.7990  227.4570 C   0  0  0  0  0  0  0  0  0  0  0  0
  141.0430   69.9450  226.7210 C   0  0  0  0  0  0  0  0  0  0  0  0
  140.2570   70.3090  225.6140 C   0  0  0  0  0  0  0  0  0  0  0  0
  140.5630   71.5530  224.8260 C   0  0  0  0  0  0  0  0  0  0  0  0
  140.7290   73.4780  222.2490 N   0  0  0  0  0  0  0  0  0  0  0  0
  140.6430   76.3720  222.3630 C   0  0  0  0  0  0  0  0  0  0  0  0
  142.1089   81.5921  222.3555 H   0  0  0  0  0  0  0  0  0  0  0  0
  140.9272   80.6071  224.3226 H   0  0  0  0  0  0  0  0  0  0  0  0
  140.2734   78.2030  224.3172 H   0  0  0  0  0  0  0  0  0  0  0  0
  142.6039   80.1823  220.3593 H   0  0  0  0  0  0  0  0  0  0  0  0
  141.9526   78.1412  219.0966 H   0  0  0  0  0  0  0  0  0  0  0  0
  143.1209   77.2119  220.1195 H   0  0  0  0  0  0  0  0  0  0  0  0
  140.1633   76.6018  219.6485 H   0  0  0  0  0  0  0  0  0  0  0  0
  141.5757   75.6204  219.1461 H   0  0  0  0  0  0  0  0  0  0  0  0
  142.9828   74.1558  219.8201 H   0  0  0  0  0  0  0  0  0  0  0  0
  143.6260   70.4510  220.0440 H   0  0  0  0  0  0  0  0  0  0  0  0
  144.2610   73.0429  218.6815 H   0  0  0  0  0  0  0  0  0  0  0  0
  145.4281   72.4227  219.9039 H   0  0  0  0  0  0  0  0  0  0  0  0
  144.8661   71.4775  217.1434 H   0  0  0  0  0  0  0  0  0  0  0  0
  146.3337   71.2641  218.1967 H   0  0  0  0  0  0  0  0  0  0  0  0
  143.7627   69.6236  218.4572 H   0  0  0  0  0  0  0  0  0  0  0  0
  144.9134   69.2142  216.2890 H   0  0  0  0  0  0  0  0  0  0  0  0
  146.4418   68.8741  217.1949 H   0  0  0  0  0  0  0  0  0  0  0  0
  143.9489   67.2133  216.9136 H   0  0  0  0  0  0  0  0  0  0  0  0
  145.7009   66.7294  216.9979 H   0  0  0  0  0  0  0  0  0  0  0  0
  143.7128   67.1741  219.2125 H   0  0  0  0  0  0  0  0  0  0  0  0
  145.0107   65.9283  219.0245 H   0  0  0  0  0  0  0  0  0  0  0  0
  145.5591   67.5077  220.8369 H   0  0  0  0  0  0  0  0  0  0  0  0
  146.7203   67.6485  219.4440 H   0  0  0  0  0  0  0  0  0  0  0  0
  144.7500   69.5300  220.4510 H   0  0  0  0  0  0  0  0  0  0  0  0
  138.4787   71.0230  222.2603 H   0  0  0  0  0  0  0  0  0  0  0  0
  139.6050   69.6103  222.4938 H   0  0  0  0  0  0  0  0  0  0  0  0
  137.6144   70.7810  224.4771 H   0  0  0  0  0  0  0  0  0  0  0  0
  137.6756   69.1168  223.7828 H   0  0  0  0  0  0  0  0  0  0  0  0
  137.9500   67.7754  225.7485 H   0  0  0  0  0  0  0  0  0  0  0  0
  139.3909   67.1058  227.6771 H   0  0  0  0  0  0  0  0  0  0  0  0
  141.3520   68.5139  228.3183 H   0  0  0  0  0  0  0  0  0  0  0  0
  141.9061   70.5634  227.0085 H   0  0  0  0  0  0  0  0  0  0  0  0
  139.9882   72.3918  225.2457 H   0  0  0  0  0  0  0  0  0  0  0  0
  141.6441   71.7451  224.8926 H   0  0  0  0  0  0  0  0  0  0  0  0
  139.5442   76.3306  222.3344 H   0  0  0  0  0  0  0  0  0  0  0  0
  141.0305   75.9110  223.2835 H   0  0  0  0  0  0  0  0  0  0  0  0
  1  2  2  0
  2  3  1  0
  3  4  2  0
  4  5  1  0
  5  6  2  0
  5  7  1  0
  7  8  1  0
  8  9  1  0
  9 10  1  0
 10 11  2  0
 11 12  1  0
 12 13  1  0
 13 14  1  0
 14 15  1  0
 15 16  1  0
 16 17  1  0
 17 18  1  0
 18 19  1  0
 19 20  1  0
 20 21  1  0
 12 22  2  0
 22 23  1  0
 23 24  1  0
 24 25  1  0
 25 26  1  0
 26 27  1  0
 27 28  2  0
 28 29  1  0
 29 30  2  0
 30 31  1  0
 31 32  2  0
 32 33  1  0
 23 34  2  0
  9 35  1  0
  6  1  1  0
 34 10  1  0
 35  4  1  0
 21 16  1  0
 33 24  1  0
 32 27  1  0
  1 36  1  0
  2 37  1  0
  3 38  1  0
  6 39  1  0
  7 40  1  0
  7 41  1  0
  8 42  1  0
  8 43  1  0
 11 44  1  0
 13 45  1  0
 14 46  1  0
 14 47  1  0
 15 48  1  0
 15 49  1  0
 16 50  1  1
 17 51  1  0
 17 52  1  0
 18 53  1  0
 18 54  1  0
 19 55  1  0
 19 56  1  0
 20 57  1  0
 20 58  1  0
 21 59  1  0
 25 60  1  0
 25 61  1  0
 26 62  1  0
 26 63  1  0
 28 64  1  0
 29 65  1  0
 30 66  1  0
 31 67  1  0
 33 68  1  0
 33 69  1  0
 35 70  1  0
 35 71  1  0
M  END
>  <UniqueID>  (27) 
586

>  <SMILES>  (27) 
c1ccc2c(c1)CCN(c1cc(NCC[C@H]3CCCCN3)nc(N3CCc4ccccc4C3)n1)C2

>  <Energy>  (27) 
84.40597876800952

>  <Genealogy>  (27) 
c1ccc2c(c1)CCN(c1cc(NCC[C@H]3CCCCN3)nc(N3CCc4ccccc4C3)n1)C2 (chirality)
c1ccc2c(c1)CCN(c1cc(NCC[C@H]3CCCCN3)nc(N3CCc4ccccc4C3)n1)C2 (3D coordinates assigned)
c1ccc2c(c1)CCN(c1cc(NCC[C@H]3CCCCN3)nc(N3CCc4ccccc4C3)n1)C2 (nonaromatic ring conformer: 84.40597876800952 kcal/mol)

>  <smiles>  (27) 
c1ccc2c(c1)CCN(c1cc(NCCC3CCCCN3)nc(N3CCc4ccccc4C3)n1)C2

>  <score_type>  (27) 
oracle

>  <origin>  (27) 
autodockgpu

>  <m_score__min__energy>  (27) 
-10.380000000000001

>  <m_primary>  (27) 
energy

>  <meeko>  (27) 
{"free_energy": -9.8, "intermolecular_energy": -11.59, "internal_energy": -1.43, "cluster_size": 8, "cluster_id": 1, "rank_in_cluster": 2}

>  <energy>  (27) 
-9.18

>  <cluster_rmsd>  (27) 
1.89

>  <rmsd>  (27) 
269.52

>  <cluster>  (27) 
1

$$$$
VOUYAFWJUZHTKY-RNPWZEQVNA-N
     RDKit          3D

 71 76  0  0  0  0  0  0  0  0999 V2000
  142.0560   80.9470  222.6270 C   0  0  0  0  0  0  0  0  0  0  0  0
  141.7920   80.3000  223.8390 C   0  0  0  0  0  0  0  0  0  0  0  0
  141.4440   78.9470  223.8520 C   0  0  0  0  0  0  0  0  0  0  0  0
  141.3590   78.2250  222.6540 C   0  0  0  0  0  0  0  0  0  0  0  0
  141.5940   78.8860  221.4230 C   0  0  0  0  0  0  0  0  0  0  0  0
  141.9570   80.2460  221.4230 C   0  0  0  0  0  0  0  0  0  0  0  0
  141.5480   78.1380  220.1130 C   0  0  0  0  0  0  0  0  0  0  0  0
  140.6740   76.8890  220.2180 C   0  0  0  0  0  0  0  0  0  0  0  0
  141.0840   76.1210  221.3980 N   0  0  0  0  0  0  0  0  0  0  0  0
  141.3470   74.7060  221.3200 C   0  0  0  0  0  0  0  0  0  0  0  0
  142.2940   74.1980  220.4240 C   0  0  0  0  0  0  0  0  0  0  0  0
  142.5120   72.8120  220.3840 C   0  0  0  0  0  0  0  0  0  0  0  0
  143.4600   72.2220  219.4810 N   0  0  0  0  0  0  0  0  0  0  0  0
  144.1340   70.9470  219.7450 C   0  0  0  0  0  0  0  0  0  0  0  0
  143.1490   69.7810  219.5540 C   0  0  0  0  0  0  0  0  0  0  0  0
  143.8640   68.4230  219.4250 C   0  0  1  0  0  0  0  0  0  0  0  0
  144.0440   68.0650  217.9340 C   0  0  0  0  0  0  0  0  0  0  0  0
  144.6910   66.6760  217.7700 C   0  0  0  0  0  0  0  0  0  0  0  0
  145.5880   66.2980  218.9620 C   0  0  0  0  0  0  0  0  0  0  0  0
  146.1930   67.5460  219.6160 C   0  0  0  0  0  0  0  0  0  0  0  0
  145.1620   68.4650  220.1420 N   0  0  0  0  0  0  0  0  0  0  0  0
  141.8170   72.0060  221.2300 N   0  0  0  0  0  0  0  0  0  0  0  0
  140.9250   72.5080  222.1260 C   0  0  0  0  0  0  0  0  0  0  0  0
  140.2480   71.6280  223.0490 N   0  0  0  0  0  0  0  0  0  0  0  0
  139.4520   70.5090  222.5040 C   0  0  0  0  0  0  0  0  0  0  0  0
  138.5750   69.8290  223.5640 C   0  0  0  0  0  0  0  0  0  0  0  0
  139.3610   69.5780  224.8130 C   0  0  0  0  0  0  0  0  0  0  0  0
  139.1940   68.3950  225.5500 C   0  0  0  0  0  0  0  0  0  0  0  0
  139.9020   68.2060  226.7430 C   0  0  0  0  0  0  0  0  0  0  0  0
  140.7570   69.2080  227.2140 C   0  0  0  0  0  0  0  0  0  0  0  0
  140.9180   70.3930  226.4910 C   0  0  0  0  0  0  0  0  0  0  0  0
  140.2270   70.5810  225.2820 C   0  0  0  0  0  0  0  0  0  0  0  0
  140.3680   71.8610  224.5030 C   0  0  0  0  0  0  0  0  0  0  0  0
  140.7000   73.8510  222.1580 N   0  0  0  0  0  0  0  0  0  0  0  0
  140.9500   76.7690  222.7070 C   0  0  0  0  0  0  0  0  0  0  0  0
  142.3419   82.0092  222.6223 H   0  0  0  0  0  0  0  0  0  0  0  0
  141.8586   80.8582  224.7845 H   0  0  0  0  0  0  0  0  0  0  0  0
  141.2354   78.4454  224.8085 H   0  0  0  0  0  0  0  0  0  0  0  0
  142.1634   80.7584  220.4717 H   0  0  0  0  0  0  0  0  0  0  0  0
  141.1360   78.7996  219.3368 H   0  0  0  0  0  0  0  0  0  0  0  0
  142.5707   77.8258  219.8551 H   0  0  0  0  0  0  0  0  0  0  0  0
  139.6189   77.1838  220.3174 H   0  0  0  0  0  0  0  0  0  0  0  0
  140.7918   76.2742  219.3135 H   0  0  0  0  0  0  0  0  0  0  0  0
  142.8576   74.8727  219.7628 H   0  0  0  0  0  0  0  0  0  0  0  0
  143.4860   72.5790  218.4990 H   0  0  0  0  0  0  0  0  0  0  0  0
  144.9769   70.8295  219.0481 H   0  0  0  0  0  0  0  0  0  0  0  0
  144.5028   70.9417  220.7813 H   0  0  0  0  0  0  0  0  0  0  0  0
  142.4736   69.7435  220.4214 H   0  0  0  0  0  0  0  0  0  0  0  0
  142.5962   69.9588  218.6198 H   0  0  0  0  0  0  0  0  0  0  0  0
  143.2515   67.6353  219.8880 H   0  0  0  0  0  0  0  0  0  0  0  0
  143.0592   68.0625  217.4439 H   0  0  0  0  0  0  0  0  0  0  0  0
  144.7042   68.8141  217.4726 H   0  0  0  0  0  0  0  0  0  0  0  0
  143.8933   65.9243  217.6767 H   0  0  0  0  0  0  0  0  0  0  0  0
  145.3252   66.7072  216.8718 H   0  0  0  0  0  0  0  0  0  0  0  0
  144.9859   65.7579  219.7075 H   0  0  0  0  0  0  0  0  0  0  0  0
  146.4083   65.6640  218.5944 H   0  0  0  0  0  0  0  0  0  0  0  0
  146.8410   67.2300  220.4468 H   0  0  0  0  0  0  0  0  0  0  0  0
  146.7603   68.0865  218.8439 H   0  0  0  0  0  0  0  0  0  0  0  0
  144.9920   68.2260  221.1430 H   0  0  0  0  0  0  0  0  0  0  0  0
  138.8015   70.8967  221.7062 H   0  0  0  0  0  0  0  0  0  0  0  0
  140.1579   69.7548  222.1259 H   0  0  0  0  0  0  0  0  0  0  0  0
  137.7205   70.4806  223.7990 H   0  0  0  0  0  0  0  0  0  0  0  0
  138.2203   68.8662  223.1676 H   0  0  0  0  0  0  0  0  0  0  0  0
  138.5062   67.6157  225.1899 H   0  0  0  0  0  0  0  0  0  0  0  0
  139.7860   67.2703  227.3095 H   0  0  0  0  0  0  0  0  0  0  0  0
  141.3046   69.0626  228.1569 H   0  0  0  0  0  0  0  0  0  0  0  0
  141.5870   71.1801  226.8691 H   0  0  0  0  0  0  0  0  0  0  0  0
  139.5796   72.5600  224.8189 H   0  0  0  0  0  0  0  0  0  0  0  0
  141.3658   72.2781  224.7037 H   0  0  0  0  0  0  0  0  0  0  0  0
  139.9008   76.7048  223.0310 H   0  0  0  0  0  0  0  0  0  0  0  0
  141.6132   76.2516  223.4158 H   0  0  0  0  0  0  0  0  0  0  0  0
  1  2  2  0
  2  3  1  0
  3  4  2  0
  4  5  1  0
  5  6  2  0
  5  7  1  0
  7  8  1  0
  8  9  1  0
  9 10  1  0
 10 11  2  0
 11 12  1  0
 12 13  1  0
 13 14  1  0
 14 15  1  0
 15 16  1  0
 16 17  1  0
 17 18  1  0
 18 19  1  0
 19 20  1  0
 20 21  1  0
 12 22  2  0
 22 23  1  0
 23 24  1  0
 24 25  1  0
 25 26  1  0
 26 27  1  0
 27 28  2  0
 28 29  1  0
 29 30  2  0
 30 31  1  0
 31 32  2  0
 32 33  1  0
 23 34  2  0
  9 35  1  0
  6  1  1  0
 34 10  1  0
 35  4  1  0
 21 16  1  0
 33 24  1  0
 32 27  1  0
  1 36  1  0
  2 37  1  0
  3 38  1  0
  6 39  1  0
  7 40  1  0
  7 41  1  0
  8 42  1  0
  8 43  1  0
 11 44  1  0
 13 45  1  0
 14 46  1  0
 14 47  1  0
 15 48  1  0
 15 49  1  0
 16 50  1  1
 17 51  1  0
 17 52  1  0
 18 53  1  0
 18 54  1  0
 19 55  1  0
 19 56  1  0
 20 57  1  0
 20 58  1  0
 21 59  1  0
 25 60  1  0
 25 61  1  0
 26 62  1  0
 26 63  1  0
 28 64  1  0
 29 65  1  0
 30 66  1  0
 31 67  1  0
 33 68  1  0
 33 69  1  0
 35 70  1  0
 35 71  1  0
M  END
>  <UniqueID>  (28) 
586

>  <SMILES>  (28) 
c1ccc2c(c1)CCN(c1cc(NCC[C@H]3CCCCN3)nc(N3CCc4ccccc4C3)n1)C2

>  <Energy>  (28) 
84.40597876800952

>  <Genealogy>  (28) 
c1ccc2c(c1)CCN(c1cc(NCC[C@H]3CCCCN3)nc(N3CCc4ccccc4C3)n1)C2 (chirality)
c1ccc2c(c1)CCN(c1cc(NCC[C@H]3CCCCN3)nc(N3CCc4ccccc4C3)n1)C2 (3D coordinates assigned)
c1ccc2c(c1)CCN(c1cc(NCC[C@H]3CCCCN3)nc(N3CCc4ccccc4C3)n1)C2 (nonaromatic ring conformer: 84.40597876800952 kcal/mol)

>  <smiles>  (28) 
c1ccc2c(c1)CCN(c1cc(NCCC3CCCCN3)nc(N3CCc4ccccc4C3)n1)C2

>  <score_type>  (28) 
oracle

>  <origin>  (28) 
autodockgpu

>  <m_score__min__energy>  (28) 
-10.380000000000001

>  <m_primary>  (28) 
energy

>  <meeko>  (28) 
{"free_energy": -10.38, "intermolecular_energy": -12.17, "internal_energy": -0.92, "cluster_size": 8, "cluster_id": 1, "rank_in_cluster": 1}

>  <energy>  (28) 
-9.0

>  <cluster_rmsd>  (28) 
1.8

>  <rmsd>  (28) 
269.24

>  <cluster>  (28) 
1

$$$$
VOUYAFWJUZHTKY-RNPWZEQVNA-N
     RDKit          3D

 71 76  0  0  0  0  0  0  0  0999 V2000
  139.5090   69.6930  228.1420 C   0  0  0  0  0  0  0  0  0  0  0  0
  140.5910   70.5790  228.1870 C   0  0  0  0  0  0  0  0  0  0  0  0
  141.0630   71.1700  227.0140 C   0  0  0  0  0  0  0  0  0  0  0  0
  140.4560   70.8870  225.7820 C   0  0  0  0  0  0  0  0  0  0  0  0
  139.3810   69.9660  225.7300 C   0  0  0  0  0  0  0  0  0  0  0  0
  138.9050   69.3860  226.9220 C   0  0  0  0  0  0  0  0  0  0  0  0
  138.6760   69.6590  224.4310 C   0  0  0  0  0  0  0  0  0  0  0  0
  139.5840   69.9280  223.2320 C   0  0  0  0  0  0  0  0  0  0  0  0
  140.1620   71.2680  223.3640 N   0  0  0  0  0  0  0  0  0  0  0  0
  140.1300   72.2120  222.2750 C   0  0  0  0  0  0  0  0  0  0  0  0
  140.1770   71.7780  220.9450 C   0  0  0  0  0  0  0  0  0  0  0  0
  140.1460   72.7360  219.9200 C   0  0  0  0  0  0  0  0  0  0  0  0
  140.2040   72.3620  218.5350 N   0  0  0  0  0  0  0  0  0  0  0  0
  140.7050   73.2520  217.4830 C   0  0  0  0  0  0  0  0  0  0  0  0
  142.2290   73.0970  217.3440 C   0  0  0  0  0  0  0  0  0  0  0  0
  142.9620   73.2550  218.6890 C   0  0  1  0  0  0  0  0  0  0  0  0
  144.4560   72.9100  218.5160 C   0  0  0  0  0  0  0  0  0  0  0  0
  145.2040   72.9880  219.8610 C   0  0  0  0  0  0  0  0  0  0  0  0
  144.5590   73.9840  220.8400 C   0  0  0  0  0  0  0  0  0  0  0  0
  143.8550   75.1210  220.0870 C   0  0  0  0  0  0  0  0  0  0  0  0
  142.7710   74.6320  219.2090 N   0  0  0  0  0  0  0  0  0  0  0  0
  140.0470   74.0530  220.2440 N   0  0  0  0  0  0  0  0  0  0  0  0
  139.9630   74.4670  221.5370 C   0  0  0  0  0  0  0  0  0  0  0  0
  139.8000   75.8690  221.8420 N   0  0  0  0  0  0  0  0  0  0  0  0
  138.6650   76.2780  222.6960 C   0  0  0  0  0  0  0  0  0  0  0  0
  138.4510   77.7980  222.7150 C   0  0  0  0  0  0  0  0  0  0  0  0
  139.7550   78.5090  222.9060 C   0  0  0  0  0  0  0  0  0  0  0  0
  139.8470   79.6510  223.7170 C   0  0  0  0  0  0  0  0  0  0  0  0
  141.0650   80.3290  223.8380 C   0  0  0  0  0  0  0  0  0  0  0  0
  142.1870   79.8820  223.1300 C   0  0  0  0  0  0  0  0  0  0  0  0
  142.0980   78.7530  222.3120 C   0  0  0  0  0  0  0  0  0  0  0  0
  140.8840   78.0550  222.2020 C   0  0  0  0  0  0  0  0  0  0  0  0
  140.7630   76.8520  221.3060 C   0  0  0  0  0  0  0  0  0  0  0  0
  140.0070   73.5420  222.5350 N   0  0  0  0  0  0  0  0  0  0  0  0
  141.0140   71.5250  224.5290 C   0  0  0  0  0  0  0  0  0  0  0  0
  139.1337   69.2375  229.0702 H   0  0  0  0  0  0  0  0  0  0  0  0
  141.0709   70.8104  229.1494 H   0  0  0  0  0  0  0  0  0  0  0  0
  141.9168   71.8623  227.0562 H   0  0  0  0  0  0  0  0  0  0  0  0
  138.0546   68.6890  226.8912 H   0  0  0  0  0  0  0  0  0  0  0  0
  138.3791   68.5998  224.4256 H   0  0  0  0  0  0  0  0  0  0  0  0
  137.7929   70.3100  224.3519 H   0  0  0  0  0  0  0  0  0  0  0  0
  140.3897   69.1797  223.2040 H   0  0  0  0  0  0  0  0  0  0  0  0
  139.0006   69.8643  222.3016 H   0  0  0  0  0  0  0  0  0  0  0  0
  140.2371   70.7056  220.7076 H   0  0  0  0  0  0  0  0  0  0  0  0
  140.1230   71.3470  218.3000 H   0  0  0  0  0  0  0  0  0  0  0  0
  140.2240   72.9939  216.5280 H   0  0  0  0  0  0  0  0  0  0  0  0
  140.4709   74.2933  217.7494 H   0  0  0  0  0  0  0  0  0  0  0  0
  142.4466   72.0978  216.9387 H   0  0  0  0  0  0  0  0  0  0  0  0
  142.5864   73.8918  216.6728 H   0  0  0  0  0  0  0  0  0  0  0  0
  142.5399   72.5565  219.4265 H   0  0  0  0  0  0  0  0  0  0  0  0
  144.5447   71.8898  218.1145 H   0  0  0  0  0  0  0  0  0  0  0  0
  144.9045   73.6386  217.8246 H   0  0  0  0  0  0  0  0  0  0  0  0
  145.2034   71.9896  220.3228 H   0  0  0  0  0  0  0  0  0  0  0  0
  146.2258   73.3388  219.6540 H   0  0  0  0  0  0  0  0  0  0  0  0
  143.8215   73.4526  221.4594 H   0  0  0  0  0  0  0  0  0  0  0  0
  145.3503   74.4184  221.4686 H   0  0  0  0  0  0  0  0  0  0  0  0
  143.4264   75.8184  220.8218 H   0  0  0  0  0  0  0  0  0  0  0  0
  144.6041   75.6145  219.4503 H   0  0  0  0  0  0  0  0  0  0  0  0
  141.8780   74.6590  219.7470 H   0  0  0  0  0  0  0  0  0  0  0  0
  137.7500   75.7992  222.3172 H   0  0  0  0  0  0  0  0  0  0  0  0
  138.8949   75.9635  223.7247 H   0  0  0  0  0  0  0  0  0  0  0  0
  138.0037   78.1125  221.7606 H   0  0  0  0  0  0  0  0  0  0  0  0
  137.7815   78.0525  223.5498 H   0  0  0  0  0  0  0  0  0  0  0  0
  138.9605   80.0134  224.2581 H   0  0  0  0  0  0  0  0  0  0  0  0
  141.1409   81.2125  224.4889 H   0  0  0  0  0  0  0  0  0  0  0  0
  143.1416   80.4214  223.2181 H   0  0  0  0  0  0  0  0  0  0  0  0
  142.9808   78.4098  221.7527 H   0  0  0  0  0  0  0  0  0  0  0  0
  140.4229   77.1797  220.3126 H   0  0  0  0  0  0  0  0  0  0  0  0
  141.7492   76.3687  221.2442 H   0  0  0  0  0  0  0  0  0  0  0  0
  142.0159   71.1140  224.3356 H   0  0  0  0  0  0  0  0  0  0  0  0
  141.0580   72.6125  224.6884 H   0  0  0  0  0  0  0  0  0  0  0  0
  1  2  2  0
  2  3  1  0
  3  4  2  0
  4  5  1  0
  5  6  2  0
  5  7  1  0
  7  8  1  0
  8  9  1  0
  9 10  1  0
 10 11  2  0
 11 12  1  0
 12 13  1  0
 13 14  1  0
 14 15  1  0
 15 16  1  0
 16 17  1  0
 17 18  1  0
 18 19  1  0
 19 20  1  0
 20 21  1  0
 12 22  2  0
 22 23  1  0
 23 24  1  0
 24 25  1  0
 25 26  1  0
 26 27  1  0
 27 28  2  0
 28 29  1  0
 29 30  2  0
 30 31  1  0
 31 32  2  0
 32 33  1  0
 23 34  2  0
  9 35  1  0
  6  1  1  0
 34 10  1  0
 35  4  1  0
 21 16  1  0
 33 24  1  0
 32 27  1  0
  1 36  1  0
  2 37  1  0
  3 38  1  0
  6 39  1  0
  7 40  1  0
  7 41  1  0
  8 42  1  0
  8 43  1  0
 11 44  1  0
 13 45  1  0
 14 46  1  0
 14 47  1  0
 15 48  1  0
 15 49  1  0
 16 50  1  1
 17 51  1  0
 17 52  1  0
 18 53  1  0
 18 54  1  0
 19 55  1  0
 19 56  1  0
 20 57  1  0
 20 58  1  0
 21 59  1  0
 25 60  1  0
 25 61  1  0
 26 62  1  0
 26 63  1  0
 28 64  1  0
 29 65  1  0
 30 66  1  0
 31 67  1  0
 33 68  1  0
 33 69  1  0
 35 70  1  0
 35 71  1  0
M  END
>  <UniqueID>  (29) 
586

>  <SMILES>  (29) 
c1ccc2c(c1)CCN(c1cc(NCC[C@H]3CCCCN3)nc(N3CCc4ccccc4C3)n1)C2

>  <Energy>  (29) 
84.40597876800952

>  <Genealogy>  (29) 
c1ccc2c(c1)CCN(c1cc(NCC[C@H]3CCCCN3)nc(N3CCc4ccccc4C3)n1)C2 (chirality)
c1ccc2c(c1)CCN(c1cc(NCC[C@H]3CCCCN3)nc(N3CCc4ccccc4C3)n1)C2 (3D coordinates assigned)
c1ccc2c(c1)CCN(c1cc(NCC[C@H]3CCCCN3)nc(N3CCc4ccccc4C3)n1)C2 (nonaromatic ring conformer: 84.40597876800952 kcal/mol)

>  <smiles>  (29) 
c1ccc2c(c1)CCN(c1cc(NCCC3CCCCN3)nc(N3CCc4ccccc4C3)n1)C2

>  <score_type>  (29) 
oracle

>  <origin>  (29) 
autodockgpu

>  <m_score__min__energy>  (29) 
-10.380000000000001

>  <m_primary>  (29) 
energy

>  <meeko>  (29) 
{"free_energy": -8.81, "intermolecular_energy": -10.6, "internal_energy": -2.27, "cluster_size": 5, "cluster_id": 5, "rank_in_cluster": 5}

>  <energy>  (29) 
-10.06

>  <cluster_rmsd>  (29) 
0.0

>  <rmsd>  (29) 
269.76

>  <cluster>  (29) 
2

$$$$
VOUYAFWJUZHTKY-RNPWZEQVNA-N
     RDKit          3D

 71 76  0  0  0  0  0  0  0  0999 V2000
  142.2190   80.9320  222.6010 C   0  0  0  0  0  0  0  0  0  0  0  0
  142.0260   80.2770  223.8220 C   0  0  0  0  0  0  0  0  0  0  0  0
  141.5450   78.9660  223.8470 C   0  0  0  0  0  0  0  0  0  0  0  0
  141.2540   78.2940  222.6520 C   0  0  0  0  0  0  0  0  0  0  0  0
  141.4190   78.9660  221.4160 C   0  0  0  0  0  0  0  0  0  0  0  0
  141.9170   80.2830  221.4030 C   0  0  0  0  0  0  0  0  0  0  0  0
  141.1510   78.2680  220.1050 C   0  0  0  0  0  0  0  0  0  0  0  0
  140.1710   77.1100  220.2830 C   0  0  0  0  0  0  0  0  0  0  0  0
  140.6280   76.2680  221.3930 N   0  0  0  0  0  0  0  0  0  0  0  0
  140.7340   74.8370  221.2580 C   0  0  0  0  0  0  0  0  0  0  0  0
  141.3880   74.2640  220.1610 C   0  0  0  0  0  0  0  0  0  0  0  0
  141.4620   72.8660  220.0730 C   0  0  0  0  0  0  0  0  0  0  0  0
  142.1070   72.2110  218.9700 N   0  0  0  0  0  0  0  0  0  0  0  0
  142.1740   72.7860  217.6230 C   0  0  0  0  0  0  0  0  0  0  0  0
  143.2370   73.8960  217.5770 C   0  0  0  0  0  0  0  0  0  0  0  0
  144.4730   73.5640  218.4340 C   0  0  1  0  0  0  0  0  0  0  0  0
  144.3210   74.1870  219.8370 C   0  0  0  0  0  0  0  0  0  0  0  0
  145.5740   73.9340  220.6970 C   0  0  0  0  0  0  0  0  0  0  0  0
  146.3160   72.6470  220.2960 C   0  0  0  0  0  0  0  0  0  0  0  0
  145.3470   71.6090  219.7170 C   0  0  0  0  0  0  0  0  0  0  0  0
  144.6580   72.0930  218.5020 N   0  0  0  0  0  0  0  0  0  0  0  0
  140.9210   72.1090  221.0640 N   0  0  0  0  0  0  0  0  0  0  0  0
  140.3200   72.6700  222.1470 C   0  0  0  0  0  0  0  0  0  0  0  0
  139.8070   71.8360  223.2090 N   0  0  0  0  0  0  0  0  0  0  0  0
  138.6220   70.9960  222.9380 C   0  0  0  0  0  0  0  0  0  0  0  0
  138.0240   70.3800  224.2100 C   0  0  0  0  0  0  0  0  0  0  0  0
  139.1050   69.8000  225.0690 C   0  0  0  0  0  0  0  0  0  0  0  0
  138.9150   68.5890  225.7550 C   0  0  0  0  0  0  0  0  0  0  0  0
  139.9210   68.0940  226.5940 C   0  0  0  0  0  0  0  0  0  0  0  0
  141.1050   68.8180  226.7680 C   0  0  0  0  0  0  0  0  0  0  0  0
  141.2940   70.0290  226.0970 C   0  0  0  0  0  0  0  0  0  0  0  0
  140.2990   70.5220  225.2370 C   0  0  0  0  0  0  0  0  0  0  0  0
  140.4740   71.8370  224.5270 C   0  0  0  0  0  0  0  0  0  0  0  0
  140.2320   74.0270  222.2300 N   0  0  0  0  0  0  0  0  0  0  0  0
  140.7070   76.8850  222.7220 C   0  0  0  0  0  0  0  0  0  0  0  0
  142.6094   81.9603  222.5852 H   0  0  0  0  0  0  0  0  0  0  0  0
  142.2537   80.7959  224.7648 H   0  0  0  0  0  0  0  0  0  0  0  0
  141.3936   78.4577  224.8107 H   0  0  0  0  0  0  0  0  0  0  0  0
  142.0686   80.8022  220.4451 H   0  0  0  0  0  0  0  0  0  0  0  0
  140.7253   78.9916  219.3942 H   0  0  0  0  0  0  0  0  0  0  0  0
  142.1013   77.8635  219.7264 H   0  0  0  0  0  0  0  0  0  0  0  0
  139.1692   77.5051  220.5073 H   0  0  0  0  0  0  0  0  0  0  0  0
  140.1244   76.5155  219.3587 H   0  0  0  0  0  0  0  0  0  0  0  0
  141.8358   74.8986  219.3820 H   0  0  0  0  0  0  0  0  0  0  0  0
  142.7620   71.4250  219.1840 H   0  0  0  0  0  0  0  0  0  0  0  0
  142.4393   71.9976  216.9032 H   0  0  0  0  0  0  0  0  0  0  0  0
  141.1942   73.2136  217.3639 H   0  0  0  0  0  0  0  0  0  0  0  0
  143.5577   74.0345  216.5339 H   0  0  0  0  0  0  0  0  0  0  0  0
  142.7830   74.8111  217.9851 H   0  0  0  0  0  0  0  0  0  0  0  0
  145.3732   73.9950  217.9715 H   0  0  0  0  0  0  0  0  0  0  0  0
  144.1696   75.2716  219.7336 H   0  0  0  0  0  0  0  0  0  0  0  0
  143.4573   73.7208  220.3337 H   0  0  0  0  0  0  0  0  0  0  0  0
  146.2592   74.7866  220.5809 H   0  0  0  0  0  0  0  0  0  0  0  0
  145.2447   73.8179  221.7401 H   0  0  0  0  0  0  0  0  0  0  0  0
  147.0755   72.8913  219.5387 H   0  0  0  0  0  0  0  0  0  0  0  0
  146.7882   72.2217  221.1938 H   0  0  0  0  0  0  0  0  0  0  0  0
  145.9134   70.7008  219.4631 H   0  0  0  0  0  0  0  0  0  0  0  0
  144.5792   71.4074  220.4785 H   0  0  0  0  0  0  0  0  0  0  0  0
  145.2140   71.7930  217.6710 H   0  0  0  0  0  0  0  0  0  0  0  0
  137.8541   71.6177  222.4545 H   0  0  0  0  0  0  0  0  0  0  0  0
  138.9452   70.1678  222.2903 H   0  0  0  0  0  0  0  0  0  0  0  0
  137.4921   71.1599  224.7746 H   0  0  0  0  0  0  0  0  0  0  0  0
  137.3276   69.5780  223.9239 H   0  0  0  0  0  0  0  0  0  0  0  0
  137.9758   68.0294  225.6331 H   0  0  0  0  0  0  0  0  0  0  0  0
  139.7801   67.1361  227.1160 H   0  0  0  0  0  0  0  0  0  0  0  0
  141.8900   68.4328  227.4353 H   0  0  0  0  0  0  0  0  0  0  0  0
  142.2243   70.5976  226.2427 H   0  0  0  0  0  0  0  0  0  0  0  0
  140.0412   72.6371  225.1455 H   0  0  0  0  0  0  0  0  0  0  0  0
  141.5499   72.0019  224.3681 H   0  0  0  0  0  0  0  0  0  0  0  0
  139.6992   76.9151  223.1618 H   0  0  0  0  0  0  0  0  0  0  0  0
  141.3885   76.2824  223.3404 H   0  0  0  0  0  0  0  0  0  0  0  0
  1  2  2  0
  2  3  1  0
  3  4  2  0
  4  5  1  0
  5  6  2  0
  5  7  1  0
  7  8  1  0
  8  9  1  0
  9 10  1  0
 10 11  2  0
 11 12  1  0
 12 13  1  0
 13 14  1  0
 14 15  1  0
 15 16  1  0
 16 17  1  0
 17 18  1  0
 18 19  1  0
 19 20  1  0
 20 21  1  0
 12 22  2  0
 22 23  1  0
 23 24  1  0
 24 25  1  0
 25 26  1  0
 26 27  1  0
 27 28  2  0
 28 29  1  0
 29 30  2  0
 30 31  1  0
 31 32  2  0
 32 33  1  0
 23 34  2  0
  9 35  1  0
  6  1  1  0
 34 10  1  0
 35  4  1  0
 21 16  1  0
 33 24  1  0
 32 27  1  0
  1 36  1  0
  2 37  1  0
  3 38  1  0
  6 39  1  0
  7 40  1  0
  7 41  1  0
  8 42  1  0
  8 43  1  0
 11 44  1  0
 13 45  1  0
 14 46  1  0
 14 47  1  0
 15 48  1  0
 15 49  1  0
 16 50  1  6
 17 51  1  0
 17 52  1  0
 18 53  1  0
 18 54  1  0
 19 55  1  0
 19 56  1  0
 20 57  1  0
 20 58  1  0
 21 59  1  0
 25 60  1  0
 25 61  1  0
 26 62  1  0
 26 63  1  0
 28 64  1  0
 29 65  1  0
 30 66  1  0
 31 67  1  0
 33 68  1  0
 33 69  1  0
 35 70  1  0
 35 71  1  0
M  END
>  <UniqueID>  (30) 
586

>  <SMILES>  (30) 
c1ccc2c(c1)CCN(c1cc(NCC[C@H]3CCCCN3)nc(N3CCc4ccccc4C3)n1)C2

>  <Energy>  (30) 
84.40597876800952

>  <Genealogy>  (30) 
c1ccc2c(c1)CCN(c1cc(NCC[C@H]3CCCCN3)nc(N3CCc4ccccc4C3)n1)C2 (chirality)
c1ccc2c(c1)CCN(c1cc(NCC[C@H]3CCCCN3)nc(N3CCc4ccccc4C3)n1)C2 (3D coordinates assigned)
c1ccc2c(c1)CCN(c1cc(NCC[C@H]3CCCCN3)nc(N3CCc4ccccc4C3)n1)C2 (nonaromatic ring conformer: 84.40597876800952 kcal/mol)

>  <smiles>  (30) 
c1ccc2c(c1)CCN(c1cc(NCCC3CCCCN3)nc(N3CCc4ccccc4C3)n1)C2

>  <score_type>  (30) 
oracle

>  <origin>  (30) 
autodockgpu

>  <m_score__min__energy>  (30) 
-10.380000000000001

>  <m_primary>  (30) 
energy

>  <meeko>  (30) 
{"free_energy": -9.56, "intermolecular_energy": -11.35, "internal_energy": -1.65, "cluster_size": 8, "cluster_id": 1, "rank_in_cluster": 5}

>  <energy>  (30) 
-9.91

>  <cluster_rmsd>  (30) 
1.11

>  <rmsd>  (30) 
269.83

>  <cluster>  (30) 
2

$$$$
VOUYAFWJUZHTKY-RNPWZEQVNA-N
     RDKit          3D

 71 76  0  0  0  0  0  0  0  0999 V2000
  132.2460   73.6880  227.3830 C   0  0  0  0  0  0  0  0  0  0  0  0
  132.1980   72.2950  227.5090 C   0  0  0  0  0  0  0  0  0  0  0  0
  133.0290   71.4900  226.7280 C   0  0  0  0  0  0  0  0  0  0  0  0
  133.9210   72.0690  225.8140 C   0  0  0  0  0  0  0  0  0  0  0  0
  133.9490   73.4770  225.6620 C   0  0  0  0  0  0  0  0  0  0  0  0
  133.1150   74.2780  226.4650 C   0  0  0  0  0  0  0  0  0  0  0  0
  134.9180   74.1420  224.7150 C   0  0  0  0  0  0  0  0  0  0  0  0
  135.3470   73.1890  223.6010 C   0  0  0  0  0  0  0  0  0  0  0  0
  135.7790   71.9230  224.1990 N   0  0  0  0  0  0  0  0  0  0  0  0
  137.0300   71.3060  223.8340 C   0  0  0  0  0  0  0  0  0  0  0  0
  137.3120   69.9840  224.1960 C   0  0  0  0  0  0  0  0  0  0  0  0
  138.5450   69.4290  223.8200 C   0  0  0  0  0  0  0  0  0  0  0  0
  138.9050   68.0830  224.1670 N   0  0  0  0  0  0  0  0  0  0  0  0
  139.7370   67.7470  225.3270 C   0  0  0  0  0  0  0  0  0  0  0  0
  139.1970   68.4520  226.5830 C   0  0  0  0  0  0  0  0  0  0  0  0
  139.6970   69.9030  226.7050 C   0  0  1  0  0  0  0  0  0  0  0  0
  140.2090   70.1620  228.1370 C   0  0  0  0  0  0  0  0  0  0  0  0
  140.6500   71.6280  228.3140 C   0  0  0  0  0  0  0  0  0  0  0  0
  141.1270   72.2640  226.9960 C   0  0  0  0  0  0  0  0  0  0  0  0
  141.7250   71.2080  226.0570 C   0  0  0  0  0  0  0  0  0  0  0  0
  140.7480   70.1610  225.6900 N   0  0  0  0  0  0  0  0  0  0  0  0
  139.4190   70.1790  223.0970 N   0  0  0  0  0  0  0  0  0  0  0  0
  139.1240   71.4510  222.7170 C   0  0  0  0  0  0  0  0  0  0  0  0
  140.0510   72.1990  221.9000 N   0  0  0  0  0  0  0  0  0  0  0  0
  139.9490   73.6740  221.8860 C   0  0  0  0  0  0  0  0  0  0  0  0
  140.7980   74.3200  220.7830 C   0  0  0  0  0  0  0  0  0  0  0  0
  142.1690   73.7190  220.7570 C   0  0  0  0  0  0  0  0  0  0  0  0
  143.3050   74.5110  220.5260 C   0  0  0  0  0  0  0  0  0  0  0  0
  144.5710   73.9180  220.4540 C   0  0  0  0  0  0  0  0  0  0  0  0
  144.7020   72.5310  220.5880 C   0  0  0  0  0  0  0  0  0  0  0  0
  143.5740   71.7360  220.8060 C   0  0  0  0  0  0  0  0  0  0  0  0
  142.3020   72.3260  220.9010 C   0  0  0  0  0  0  0  0  0  0  0  0
  141.0730   71.4840  221.1100 C   0  0  0  0  0  0  0  0  0  0  0  0
  137.9350   71.9990  223.0910 N   0  0  0  0  0  0  0  0  0  0  0  0
  134.7850   71.1620  224.9640 C   0  0  0  0  0  0  0  0  0  0  0  0
  131.5975   74.3187  228.0088 H   0  0  0  0  0  0  0  0  0  0  0  0
  131.5032   71.8330  228.2258 H   0  0  0  0  0  0  0  0  0  0  0  0
  132.9839   70.3957  226.8301 H   0  0  0  0  0  0  0  0  0  0  0  0
  133.1487   75.3732  226.3682 H   0  0  0  0  0  0  0  0  0  0  0  0
  134.4342   75.0224  224.2669 H   0  0  0  0  0  0  0  0  0  0  0  0
  135.8123   74.4369  225.2835 H   0  0  0  0  0  0  0  0  0  0  0  0
  134.4994   73.0072  222.9239 H   0  0  0  0  0  0  0  0  0  0  0  0
  136.1755   73.6329  223.0295 H   0  0  0  0  0  0  0  0  0  0  0  0
  136.5808   69.3908  224.7647 H   0  0  0  0  0  0  0  0  0  0  0  0
  138.3580   67.3040  223.7330 H   0  0  0  0  0  0  0  0  0  0  0  0
  139.7201   66.6585  225.4845 H   0  0  0  0  0  0  0  0  0  0  0  0
  140.7684   68.0808  225.1406 H   0  0  0  0  0  0  0  0  0  0  0  0
  138.0980   68.4601  226.5380 H   0  0  0  0  0  0  0  0  0  0  0  0
  139.5616   67.8977  227.4604 H   0  0  0  0  0  0  0  0  0  0  0  0
  138.8674   70.5995  226.5138 H   0  0  0  0  0  0  0  0  0  0  0  0
  139.4027   69.9409  228.8519 H   0  0  0  0  0  0  0  0  0  0  0  0
  141.0777   69.5123  228.3194 H   0  0  0  0  0  0  0  0  0  0  0  0
  139.7981   72.2086  228.6977 H   0  0  0  0  0  0  0  0  0  0  0  0
  141.4968   71.6395  229.0160 H   0  0  0  0  0  0  0  0  0  0  0  0
  140.2713   72.7437  226.4984 H   0  0  0  0  0  0  0  0  0  0  0  0
  141.9054   73.0058  227.2280 H   0  0  0  0  0  0  0  0  0  0  0  0
  142.0699   71.7065  225.1391 H   0  0  0  0  0  0  0  0  0  0  0  0
  142.5558   70.7198  226.5876 H   0  0  0  0  0  0  0  0  0  0  0  0
  140.2830   70.4480  224.8010 H   0  0  0  0  0  0  0  0  0  0  0  0
  138.8966   73.9517  221.7271 H   0  0  0  0  0  0  0  0  0  0  0  0
  140.3273   74.0406  222.8517 H   0  0  0  0  0  0  0  0  0  0  0  0
  140.3124   74.1562  219.8097 H   0  0  0  0  0  0  0  0  0  0  0  0
  140.8856   75.3975  220.9865 H   0  0  0  0  0  0  0  0  0  0  0  0
  143.2001   75.5989  220.4014 H   0  0  0  0  0  0  0  0  0  0  0  0
  145.4624   74.5418  220.2922 H   0  0  0  0  0  0  0  0  0  0  0  0
  145.6963   72.0653  220.5215 H   0  0  0  0  0  0  0  0  0  0  0  0
  143.6818   70.6456  220.9035 H   0  0  0  0  0  0  0  0  0  0  0  0
  140.6481   71.2234  220.1294 H   0  0  0  0  0  0  0  0  0  0  0  0
  141.3658   70.5803  221.6646 H   0  0  0  0  0  0  0  0  0  0  0  0
  134.1414   70.6102  224.2631 H   0  0  0  0  0  0  0  0  0  0  0  0
  135.3206   70.4720  225.6326 H   0  0  0  0  0  0  0  0  0  0  0  0
  1  2  2  0
  2  3  1  0
  3  4  2  0
  4  5  1  0
  5  6  2  0
  5  7  1  0
  7  8  1  0
  8  9  1  0
  9 10  1  0
 10 11  2  0
 11 12  1  0
 12 13  1  0
 13 14  1  0
 14 15  1  0
 15 16  1  0
 16 17  1  0
 17 18  1  0
 18 19  1  0
 19 20  1  0
 20 21  1  0
 12 22  2  0
 22 23  1  0
 23 24  1  0
 24 25  1  0
 25 26  1  0
 26 27  1  0
 27 28  2  0
 28 29  1  0
 29 30  2  0
 30 31  1  0
 31 32  2  0
 32 33  1  0
 23 34  2  0
  9 35  1  0
  6  1  1  0
 34 10  1  0
 35  4  1  0
 21 16  1  0
 33 24  1  0
 32 27  1  0
  1 36  1  0
  2 37  1  0
  3 38  1  0
  6 39  1  0
  7 40  1  0
  7 41  1  0
  8 42  1  0
  8 43  1  0
 11 44  1  0
 13 45  1  0
 14 46  1  0
 14 47  1  0
 15 48  1  0
 15 49  1  0
 16 50  1  6
 17 51  1  0
 17 52  1  0
 18 53  1  0
 18 54  1  0
 19 55  1  0
 19 56  1  0
 20 57  1  0
 20 58  1  0
 21 59  1  0
 25 60  1  0
 25 61  1  0
 26 62  1  0
 26 63  1  0
 28 64  1  0
 29 65  1  0
 30 66  1  0
 31 67  1  0
 33 68  1  0
 33 69  1  0
 35 70  1  0
 35 71  1  0
M  END
>  <UniqueID>  (31) 
586

>  <SMILES>  (31) 
c1ccc2c(c1)CCN(c1cc(NCC[C@H]3CCCCN3)nc(N3CCc4ccccc4C3)n1)C2

>  <Energy>  (31) 
84.40597876800952

>  <Genealogy>  (31) 
c1ccc2c(c1)CCN(c1cc(NCC[C@H]3CCCCN3)nc(N3CCc4ccccc4C3)n1)C2 (chirality)
c1ccc2c(c1)CCN(c1cc(NCC[C@H]3CCCCN3)nc(N3CCc4ccccc4C3)n1)C2 (3D coordinates assigned)
c1ccc2c(c1)CCN(c1cc(NCC[C@H]3CCCCN3)nc(N3CCc4ccccc4C3)n1)C2 (nonaromatic ring conformer: 84.40597876800952 kcal/mol)

>  <smiles>  (31) 
c1ccc2c(c1)CCN(c1cc(NCCC3CCCCN3)nc(N3CCc4ccccc4C3)n1)C2

>  <score_type>  (31) 
oracle

>  <origin>  (31) 
autodockgpu

>  <m_score__min__energy>  (31) 
-10.380000000000001

>  <m_primary>  (31) 
energy

>  <meeko>  (31) 
{"free_energy": -8.73, "intermolecular_energy": -10.52, "internal_energy": -2.16, "cluster_size": 1, "cluster_id": 6, "rank_in_cluster": 1}

>  <energy>  (31) 
-9.9

>  <cluster_rmsd>  (31) 
0.0

>  <rmsd>  (31) 
269.62

>  <cluster>  (31) 
3

$$$$
VOUYAFWJUZHTKY-RNPWZEQVNA-N
     RDKit          3D

 71 76  0  0  0  0  0  0  0  0999 V2000
  140.2510   68.7700  227.3330 C   0  0  0  0  0  0  0  0  0  0  0  0
  141.0070   69.9190  227.5890 C   0  0  0  0  0  0  0  0  0  0  0  0
  141.1060   70.9230  226.6230 C   0  0  0  0  0  0  0  0  0  0  0  0
  140.4480   70.7910  225.3920 C   0  0  0  0  0  0  0  0  0  0  0  0
  139.7090   69.6150  225.1190 C   0  0  0  0  0  0  0  0  0  0  0  0
  139.6050   68.6150  226.1050 C   0  0  0  0  0  0  0  0  0  0  0  0
  138.9560   69.4480  223.8210 C   0  0  0  0  0  0  0  0  0  0  0  0
  139.5610   70.3110  222.7150 C   0  0  0  0  0  0  0  0  0  0  0  0
  139.7150   71.6810  223.2120 N   0  0  0  0  0  0  0  0  0  0  0  0
  139.2450   72.8130  222.4550 C   0  0  0  0  0  0  0  0  0  0  0  0
  137.9580   72.8250  221.9030 C   0  0  0  0  0  0  0  0  0  0  0  0
  137.5470   73.9500  221.1720 C   0  0  0  0  0  0  0  0  0  0  0  0
  136.2460   74.0250  220.5680 N   0  0  0  0  0  0  0  0  0  0  0  0
  135.1860   74.9140  221.0530 C   0  0  0  0  0  0  0  0  0  0  0  0
  135.2320   76.2510  220.2940 C   0  0  0  0  0  0  0  0  0  0  0  0
  136.4330   77.1210  220.7090 C   0  0  1  0  0  0  0  0  0  0  0  0
  136.2120   78.5760  220.2430 C   0  0  0  0  0  0  0  0  0  0  0  0
  137.4300   79.4590  220.5770 C   0  0  0  0  0  0  0  0  0  0  0  0
  138.2050   78.9540  221.8080 C   0  0  0  0  0  0  0  0  0  0  0  0
  137.2750   78.2230  222.7850 C   0  0  0  0  0  0  0  0  0  0  0  0
  136.6340   77.0380  222.1760 N   0  0  0  0  0  0  0  0  0  0  0  0
  138.3970   75.0030  221.0400 N   0  0  0  0  0  0  0  0  0  0  0  0
  139.6310   75.0030  221.6100 C   0  0  0  0  0  0  0  0  0  0  0  0
  140.4850   76.1620  221.4990 N   0  0  0  0  0  0  0  0  0  0  0  0
  140.7420   76.7240  220.1560 C   0  0  0  0  0  0  0  0  0  0  0  0
  141.8670   77.7680  220.1510 C   0  0  0  0  0  0  0  0  0  0  0  0
  141.6940   78.7300  221.2850 C   0  0  0  0  0  0  0  0  0  0  0  0
  141.9640   80.0980  221.1230 C   0  0  0  0  0  0  0  0  0  0  0  0
  141.8450   80.9700  222.2120 C   0  0  0  0  0  0  0  0  0  0  0  0
  141.4820   80.4740  223.4690 C   0  0  0  0  0  0  0  0  0  0  0  0
  141.2240   79.1100  223.6390 C   0  0  0  0  0  0  0  0  0  0  0  0
  141.3200   78.2330  222.5460 C   0  0  0  0  0  0  0  0  0  0  0  0
  141.0720   76.7580  222.7160 C   0  0  0  0  0  0  0  0  0  0  0  0
  140.0400   73.9080  222.3080 N   0  0  0  0  0  0  0  0  0  0  0  0
  140.6040   71.8880  224.3610 C   0  0  0  0  0  0  0  0  0  0  0  0
  140.1654   67.9870  228.1008 H   0  0  0  0  0  0  0  0  0  0  0  0
  141.5245   70.0320  228.5531 H   0  0  0  0  0  0  0  0  0  0  0  0
  141.7040   71.8229  226.8293 H   0  0  0  0  0  0  0  0  0  0  0  0
  139.0131   67.7092  225.9071 H   0  0  0  0  0  0  0  0  0  0  0  0
  138.9979   68.3921  223.5154 H   0  0  0  0  0  0  0  0  0  0  0  0
  137.9148   69.7654  223.9796 H   0  0  0  0  0  0  0  0  0  0  0  0
  140.5444   69.9092  222.4294 H   0  0  0  0  0  0  0  0  0  0  0  0
  138.9007   70.3059  221.8352 H   0  0  0  0  0  0  0  0  0  0  0  0
  137.2818   71.9683  222.0400 H   0  0  0  0  0  0  0  0  0  0  0  0
  136.1290   73.6240  219.6090 H   0  0  0  0  0  0  0  0  0  0  0  0
  134.2082   74.4369  220.8913 H   0  0  0  0  0  0  0  0  0  0  0  0
  135.3363   75.1029  222.1262 H   0  0  0  0  0  0  0  0  0  0  0  0
  135.3022   76.0430  219.2161 H   0  0  0  0  0  0  0  0  0  0  0  0
  134.3149   76.8070  220.5385 H   0  0  0  0  0  0  0  0  0  0  0  0
  137.3470   76.7477  220.2240 H   0  0  0  0  0  0  0  0  0  0  0  0
  136.0508   78.5837  219.1549 H   0  0  0  0  0  0  0  0  0  0  0  0
  135.3340   78.9804  220.7680 H   0  0  0  0  0  0  0  0  0  0  0  0
  138.1087   79.4658  219.7113 H   0  0  0  0  0  0  0  0  0  0  0  0
  137.0579   80.4682  220.8074 H   0  0  0  0  0  0  0  0  0  0  0  0
  138.9936   78.2622  221.4770 H   0  0  0  0  0  0  0  0  0  0  0  0
  138.6427   79.8208  222.3248 H   0  0  0  0  0  0  0  0  0  0  0  0
  137.8632   77.8977  223.6557 H   0  0  0  0  0  0  0  0  0  0  0  0
  136.4774   78.9229  223.0749 H   0  0  0  0  0  0  0  0  0  0  0  0
  137.2290   76.2050  222.3800 H   0  0  0  0  0  0  0  0  0  0  0  0
  141.0220   75.9030  219.4796 H   0  0  0  0  0  0  0  0  0  0  0  0
  139.8215   77.2289  219.8276 H   0  0  0  0  0  0  0  0  0  0  0  0
  142.8356   77.2570  220.2542 H   0  0  0  0  0  0  0  0  0  0  0  0
  141.8315   78.3250  219.2031 H   0  0  0  0  0  0  0  0  0  0  0  0
  142.2693   80.4852  220.1397 H   0  0  0  0  0  0  0  0  0  0  0  0
  142.0369   82.0450  222.0794 H   0  0  0  0  0  0  0  0  0  0  0  0
  141.3993   81.1588  224.3259 H   0  0  0  0  0  0  0  0  0  0  0  0
  140.9454   78.7233  224.6304 H   0  0  0  0  0  0  0  0  0  0  0  0
  142.0274   76.2580  222.9333 H   0  0  0  0  0  0  0  0  0  0  0  0
  140.3604   76.6217  223.5437 H   0  0  0  0  0  0  0  0  0  0  0  0
  141.6459   71.9007  224.0083 H   0  0  0  0  0  0  0  0  0  0  0  0
  140.3373   72.8446  224.8340 H   0  0  0  0  0  0  0  0  0  0  0  0
  1  2  2  0
  2  3  1  0
  3  4  2  0
  4  5  1  0
  5  6  2  0
  5  7  1  0
  7  8  1  0
  8  9  1  0
  9 10  1  0
 10 11  2  0
 11 12  1  0
 12 13  1  0
 13 14  1  0
 14 15  1  0
 15 16  1  0
 16 17  1  0
 17 18  1  0
 18 19  1  0
 19 20  1  0
 20 21  1  0
 12 22  2  0
 22 23  1  0
 23 24  1  0
 24 25  1  0
 25 26  1  0
 26 27  1  0
 27 28  2  0
 28 29  1  0
 29 30  2  0
 30 31  1  0
 31 32  2  0
 32 33  1  0
 23 34  2  0
  9 35  1  0
  6  1  1  0
 34 10  1  0
 35  4  1  0
 21 16  1  0
 33 24  1  0
 32 27  1  0
  1 36  1  0
  2 37  1  0
  3 38  1  0
  6 39  1  0
  7 40  1  0
  7 41  1  0
  8 42  1  0
  8 43  1  0
 11 44  1  0
 13 45  1  0
 14 46  1  0
 14 47  1  0
 15 48  1  0
 15 49  1  0
 16 50  1  6
 17 51  1  0
 17 52  1  0
 18 53  1  0
 18 54  1  0
 19 55  1  0
 19 56  1  0
 20 57  1  0
 20 58  1  0
 21 59  1  0
 25 60  1  0
 25 61  1  0
 26 62  1  0
 26 63  1  0
 28 64  1  0
 29 65  1  0
 30 66  1  0
 31 67  1  0
 33 68  1  0
 33 69  1  0
 35 70  1  0
 35 71  1  0
M  END
>  <UniqueID>  (32) 
586

>  <SMILES>  (32) 
c1ccc2c(c1)CCN(c1cc(NCC[C@H]3CCCCN3)nc(N3CCc4ccccc4C3)n1)C2

>  <Energy>  (32) 
84.40597876800952

>  <Genealogy>  (32) 
c1ccc2c(c1)CCN(c1cc(NCC[C@H]3CCCCN3)nc(N3CCc4ccccc4C3)n1)C2 (chirality)
c1ccc2c(c1)CCN(c1cc(NCC[C@H]3CCCCN3)nc(N3CCc4ccccc4C3)n1)C2 (3D coordinates assigned)
c1ccc2c(c1)CCN(c1cc(NCC[C@H]3CCCCN3)nc(N3CCc4ccccc4C3)n1)C2 (nonaromatic ring conformer: 84.40597876800952 kcal/mol)

>  <smiles>  (32) 
c1ccc2c(c1)CCN(c1cc(NCCC3CCCCN3)nc(N3CCc4ccccc4C3)n1)C2

>  <score_type>  (32) 
oracle

>  <origin>  (32) 
autodockgpu

>  <m_score__min__energy>  (32) 
-10.380000000000001

>  <m_primary>  (32) 
energy

>  <meeko>  (32) 
{"free_energy": -7.96, "intermolecular_energy": -9.75, "internal_energy": -2.71, "cluster_size": 3, "cluster_id": 4, "rank_in_cluster": 3}

>  <energy>  (32) 
-9.44

>  <cluster_rmsd>  (32) 
0.0

>  <rmsd>  (32) 
269.25

>  <cluster>  (32) 
4

$$$$
VOUYAFWJUZHTKY-RNPWZEQVNA-N
     RDKit          3D

 71 76  0  0  0  0  0  0  0  0999 V2000
  146.1180   70.0130  217.1050 C   0  0  0  0  0  0  0  0  0  0  0  0
  145.8710   69.1980  218.2150 C   0  0  0  0  0  0  0  0  0  0  0  0
  145.1480   69.6930  219.3030 C   0  0  0  0  0  0  0  0  0  0  0  0
  144.6600   71.0070  219.2910 C   0  0  0  0  0  0  0  0  0  0  0  0
  144.9350   71.8440  218.1820 C   0  0  0  0  0  0  0  0  0  0  0  0
  145.6540   71.3300  217.0860 C   0  0  0  0  0  0  0  0  0  0  0  0
  144.3990   73.2530  218.1130 C   0  0  0  0  0  0  0  0  0  0  0  0
  144.1190   73.8080  219.5090 C   0  0  0  0  0  0  0  0  0  0  0  0
  143.3150   72.8360  220.2540 N   0  0  0  0  0  0  0  0  0  0  0  0
  142.1180   73.2280  220.9540 C   0  0  0  0  0  0  0  0  0  0  0  0
  141.2640   72.2700  221.5130 C   0  0  0  0  0  0  0  0  0  0  0  0
  140.1090   72.7020  222.1820 C   0  0  0  0  0  0  0  0  0  0  0  0
  139.1830   71.7740  222.7690 N   0  0  0  0  0  0  0  0  0  0  0  0
  139.2600   71.3370  224.1660 C   0  0  0  0  0  0  0  0  0  0  0  0
  140.7290   71.2800  224.6190 C   0  0  0  0  0  0  0  0  0  0  0  0
  140.9500   70.2820  225.7720 C   0  0  1  0  0  0  0  0  0  0  0  0
  140.6770   70.9740  227.1240 C   0  0  0  0  0  0  0  0  0  0  0  0
  140.9610   70.0220  228.3030 C   0  0  0  0  0  0  0  0  0  0  0  0
  140.7680   68.5420  227.9270 C   0  0  0  0  0  0  0  0  0  0  0  0
  139.7140   68.3850  226.8230 C   0  0  0  0  0  0  0  0  0  0  0  0
  140.0890   69.0900  225.5790 N   0  0  0  0  0  0  0  0  0  0  0  0
  139.8630   74.0350  222.2910 N   0  0  0  0  0  0  0  0  0  0  0  0
  140.7150   74.9630  221.7800 C   0  0  0  0  0  0  0  0  0  0  0  0
  140.4530   76.3710  221.9640 N   0  0  0  0  0  0  0  0  0  0  0  0
  139.1880   76.7750  222.6120 C   0  0  0  0  0  0  0  0  0  0  0  0
  138.9140   78.2810  222.4990 C   0  0  0  0  0  0  0  0  0  0  0  0
  140.1460   79.0650  222.8310 C   0  0  0  0  0  0  0  0  0  0  0  0
  140.0710   80.2570  223.5690 C   0  0  0  0  0  0  0  0  0  0  0  0
  141.2300   80.9990  223.8220 C   0  0  0  0  0  0  0  0  0  0  0  0
  142.4620   80.5660  223.3190 C   0  0  0  0  0  0  0  0  0  0  0  0
  142.5410   79.3860  222.5730 C   0  0  0  0  0  0  0  0  0  0  0  0
  141.3850   78.6250  222.3330 C   0  0  0  0  0  0  0  0  0  0  0  0
  141.4460   77.3660  221.5100 C   0  0  0  0  0  0  0  0  0  0  0  0
  141.8300   74.5490  221.1160 N   0  0  0  0  0  0  0  0  0  0  0  0
  143.9060   71.5160  220.5000 C   0  0  0  0  0  0  0  0  0  0  0  0
  146.6785   69.6158  216.2459 H   0  0  0  0  0  0  0  0  0  0  0  0
  146.2472   68.1645  218.2311 H   0  0  0  0  0  0  0  0  0  0  0  0
  144.9606   69.0480  220.1741 H   0  0  0  0  0  0  0  0  0  0  0  0
  145.8509   71.9680  216.2118 H   0  0  0  0  0  0  0  0  0  0  0  0
  145.1402   73.8946  217.6141 H   0  0  0  0  0  0  0  0  0  0  0  0
  143.4549   73.2387  217.5486 H   0  0  0  0  0  0  0  0  0  0  0  0
  145.0695   73.9813  220.0349 H   0  0  0  0  0  0  0  0  0  0  0  0
  143.5732   74.7597  219.4290 H   0  0  0  0  0  0  0  0  0  0  0  0
  141.4944   71.1977  221.4292 H   0  0  0  0  0  0  0  0  0  0  0  0
  138.2850   71.5950  222.2640 H   0  0  0  0  0  0  0  0  0  0  0  0
  138.7103   72.0475  224.8008 H   0  0  0  0  0  0  0  0  0  0  0  0
  138.8151   70.3350  224.2560 H   0  0  0  0  0  0  0  0  0  0  0  0
  141.3507   70.9754  223.7642 H   0  0  0  0  0  0  0  0  0  0  0  0
  141.0066   72.2801  224.9833 H   0  0  0  0  0  0  0  0  0  0  0  0
  141.9963   69.9424  225.7747 H   0  0  0  0  0  0  0  0  0  0  0  0
  141.3253   71.8582  227.2122 H   0  0  0  0  0  0  0  0  0  0  0  0
  139.6171   71.2662  227.1588 H   0  0  0  0  0  0  0  0  0  0  0  0
  142.0000   70.1694  228.6327 H   0  0  0  0  0  0  0  0  0  0  0  0
  140.2445   70.2591  229.1033 H   0  0  0  0  0  0  0  0  0  0  0  0
  141.7253   68.1343  227.5702 H   0  0  0  0  0  0  0  0  0  0  0  0
  140.4237   67.9973  228.8185 H   0  0  0  0  0  0  0  0  0  0  0  0
  139.5937   67.3147  226.5995 H   0  0  0  0  0  0  0  0  0  0  0  0
  138.7768   68.8290  227.1897 H   0  0  0  0  0  0  0  0  0  0  0  0
  140.5940   68.4160  224.9620 H   0  0  0  0  0  0  0  0  0  0  0  0
  138.3597   76.2307  222.1349 H   0  0  0  0  0  0  0  0  0  0  0  0
  139.2733   76.5342  223.6819 H   0  0  0  0  0  0  0  0  0  0  0  0
  138.6017   78.5159  221.4707 H   0  0  0  0  0  0  0  0  0  0  0  0
  138.1182   78.5519  223.2085 H   0  0  0  0  0  0  0  0  0  0  0  0
  139.1001   80.6080  223.9487 H   0  0  0  0  0  0  0  0  0  0  0  0
  141.1727   81.9228  224.4164 H   0  0  0  0  0  0  0  0  0  0  0  0
  143.3707   81.1555  223.5110 H   0  0  0  0  0  0  0  0  0  0  0  0
  143.5102   79.0530  222.1733 H   0  0  0  0  0  0  0  0  0  0  0  0
  141.2446   77.6170  220.4581 H   0  0  0  0  0  0  0  0  0  0  0  0
  142.4487   76.9284  221.6244 H   0  0  0  0  0  0  0  0  0  0  0  0
  144.6014   71.5893  221.3491 H   0  0  0  0  0  0  0  0  0  0  0  0
  143.0909   70.8103  220.7182 H   0  0  0  0  0  0  0  0  0  0  0  0
  1  2  2  0
  2  3  1  0
  3  4  2  0
  4  5  1  0
  5  6  2  0
  5  7  1  0
  7  8  1  0
  8  9  1  0
  9 10  1  0
 10 11  2  0
 11 12  1  0
 12 13  1  0
 13 14  1  0
 14 15  1  0
 15 16  1  0
 16 17  1  0
 17 18  1  0
 18 19  1  0
 19 20  1  0
 20 21  1  0
 12 22  2  0
 22 23  1  0
 23 24  1  0
 24 25  1  0
 25 26  1  0
 26 27  1  0
 27 28  2  0
 28 29  1  0
 29 30  2  0
 30 31  1  0
 31 32  2  0
 32 33  1  0
 23 34  2  0
  9 35  1  0
  6  1  1  0
 34 10  1  0
 35  4  1  0
 21 16  1  0
 33 24  1  0
 32 27  1  0
  1 36  1  0
  2 37  1  0
  3 38  1  0
  6 39  1  0
  7 40  1  0
  7 41  1  0
  8 42  1  0
  8 43  1  0
 11 44  1  0
 13 45  1  0
 14 46  1  0
 14 47  1  0
 15 48  1  0
 15 49  1  0
 16 50  1  1
 17 51  1  0
 17 52  1  0
 18 53  1  0
 18 54  1  0
 19 55  1  0
 19 56  1  0
 20 57  1  0
 20 58  1  0
 21 59  1  0
 25 60  1  0
 25 61  1  0
 26 62  1  0
 26 63  1  0
 28 64  1  0
 29 65  1  0
 30 66  1  0
 31 67  1  0
 33 68  1  0
 33 69  1  0
 35 70  1  0
 35 71  1  0
M  END
>  <UniqueID>  (33) 
586

>  <SMILES>  (33) 
c1ccc2c(c1)CCN(c1cc(NCC[C@H]3CCCCN3)nc(N3CCc4ccccc4C3)n1)C2

>  <Energy>  (33) 
84.40597876800952

>  <Genealogy>  (33) 
c1ccc2c(c1)CCN(c1cc(NCC[C@H]3CCCCN3)nc(N3CCc4ccccc4C3)n1)C2 (chirality)
c1ccc2c(c1)CCN(c1cc(NCC[C@H]3CCCCN3)nc(N3CCc4ccccc4C3)n1)C2 (3D coordinates assigned)
c1ccc2c(c1)CCN(c1cc(NCC[C@H]3CCCCN3)nc(N3CCc4ccccc4C3)n1)C2 (nonaromatic ring conformer: 84.40597876800952 kcal/mol)

>  <smiles>  (33) 
c1ccc2c(c1)CCN(c1cc(NCCC3CCCCN3)nc(N3CCc4ccccc4C3)n1)C2

>  <score_type>  (33) 
oracle

>  <origin>  (33) 
autodockgpu

>  <m_score__min__energy>  (33) 
-10.380000000000001

>  <m_primary>  (33) 
energy

>  <meeko>  (33) 
{"free_energy": -9.91, "intermolecular_energy": -11.7, "internal_energy": -0.97, "cluster_size": 2, "cluster_id": 2, "rank_in_cluster": 2}

>  <energy>  (33) 
-8.06

>  <cluster_rmsd>  (33) 
1.66

>  <rmsd>  (33) 
269.06

>  <cluster>  (33) 
4

$$$$
VOUYAFWJUZHTKY-RNPWZEQVNA-N
     RDKit          3D

 71 76  0  0  0  0  0  0  0  0999 V2000
  142.2090   80.8810  222.6410 C   0  0  0  0  0  0  0  0  0  0  0  0
  141.8080   80.2760  223.8380 C   0  0  0  0  0  0  0  0  0  0  0  0
  141.3890   78.9440  223.8460 C   0  0  0  0  0  0  0  0  0  0  0  0
  141.3690   78.2000  222.6580 C   0  0  0  0  0  0  0  0  0  0  0  0
  141.7440   78.8190  221.4400 C   0  0  0  0  0  0  0  0  0  0  0  0
  142.1770   80.1590  221.4470 C   0  0  0  0  0  0  0  0  0  0  0  0
  141.7700   78.0450  220.1450 C   0  0  0  0  0  0  0  0  0  0  0  0
  140.8260   76.8450  220.1970 C   0  0  0  0  0  0  0  0  0  0  0  0
  141.0920   76.0840  221.4220 N   0  0  0  0  0  0  0  0  0  0  0  0
  141.2850   74.6560  221.3940 C   0  0  0  0  0  0  0  0  0  0  0  0
  142.1550   74.0660  220.4700 C   0  0  0  0  0  0  0  0  0  0  0  0
  142.3070   72.6710  220.4800 C   0  0  0  0  0  0  0  0  0  0  0  0
  143.1740   71.9980  219.5530 N   0  0  0  0  0  0  0  0  0  0  0  0
  143.3800   72.4500  218.1740 C   0  0  0  0  0  0  0  0  0  0  0  0
  144.6550   71.8140  217.5960 C   0  0  0  0  0  0  0  0  0  0  0  0
  144.7860   70.3230  217.9610 C   0  0  1  0  0  0  0  0  0  0  0  0
  145.4050   69.5460  216.7800 C   0  0  0  0  0  0  0  0  0  0  0  0
  145.4820   68.0380  217.0850 C   0  0  0  0  0  0  0  0  0  0  0  0
  145.6010   67.7460  218.5920 C   0  0  0  0  0  0  0  0  0  0  0  0
  146.3130   68.8920  219.3220 C   0  0  0  0  0  0  0  0  0  0  0  0
  145.5910   70.1760  219.1990 N   0  0  0  0  0  0  0  0  0  0  0  0
  141.6260   71.9360  221.3990 N   0  0  0  0  0  0  0  0  0  0  0  0
  140.8110   72.5170  222.3190 C   0  0  0  0  0  0  0  0  0  0  0  0
  140.1490   71.7110  223.3170 N   0  0  0  0  0  0  0  0  0  0  0  0
  139.0810   70.7860  222.8840 C   0  0  0  0  0  0  0  0  0  0  0  0
  138.2840   70.2020  224.0580 C   0  0  0  0  0  0  0  0  0  0  0  0
  139.2100   69.7360  225.1390 C   0  0  0  0  0  0  0  0  0  0  0  0
  138.9550   68.5540  225.8530 C   0  0  0  0  0  0  0  0  0  0  0  0
  139.8060   68.1670  226.8950 C   0  0  0  0  0  0  0  0  0  0  0  0
  140.8980   68.9700  227.2410 C   0  0  0  0  0  0  0  0  0  0  0  0
  141.1500   70.1540  226.5410 C   0  0  0  0  0  0  0  0  0  0  0  0
  140.3120   70.5380  225.4810 C   0  0  0  0  0  0  0  0  0  0  0  0
  140.5520   71.8220  224.7340 C   0  0  0  0  0  0  0  0  0  0  0  0
  140.6490   73.8690  222.3040 N   0  0  0  0  0  0  0  0  0  0  0  0
  140.8810   76.7680  222.7020 C   0  0  0  0  0  0  0  0  0  0  0  0
  142.5498   81.9269  222.6415 H   0  0  0  0  0  0  0  0  0  0  0  0
  141.8230   80.8517  224.7752 H   0  0  0  0  0  0  0  0  0  0  0  0
  141.0728   78.4758  224.7898 H   0  0  0  0  0  0  0  0  0  0  0  0
  142.4911   80.6384  220.5081 H   0  0  0  0  0  0  0  0  0  0  0  0
  141.4607   78.7090  219.3243 H   0  0  0  0  0  0  0  0  0  0  0  0
  142.7931   77.6753  219.9817 H   0  0  0  0  0  0  0  0  0  0  0  0
  139.7833   77.1953  220.1990 H   0  0  0  0  0  0  0  0  0  0  0  0
  140.9887   76.2045  219.3177 H   0  0  0  0  0  0  0  0  0  0  0  0
  142.7096   74.6846  219.7490 H   0  0  0  0  0  0  0  0  0  0  0  0
  143.8680   71.3180  219.9400 H   0  0  0  0  0  0  0  0  0  0  0  0
  142.5157   72.1546  217.5611 H   0  0  0  0  0  0  0  0  0  0  0  0
  143.4873   73.5447  218.1655 H   0  0  0  0  0  0  0  0  0  0  0  0
  144.6313   71.9085  216.5003 H   0  0  0  0  0  0  0  0  0  0  0  0
  145.5181   72.3417  218.0279 H   0  0  0  0  0  0  0  0  0  0  0  0
  143.7898   69.8992  218.1559 H   0  0  0  0  0  0  0  0  0  0  0  0
  144.7847   69.6998  215.8847 H   0  0  0  0  0  0  0  0  0  0  0  0
  146.4258   69.9204  216.6134 H   0  0  0  0  0  0  0  0  0  0  0  0
  144.5711   67.5540  216.7029 H   0  0  0  0  0  0  0  0  0  0  0  0
  146.3852   67.6441  216.5961 H   0  0  0  0  0  0  0  0  0  0  0  0
  144.5930   67.6221  219.0146 H   0  0  0  0  0  0  0  0  0  0  0  0
  146.1913   66.8273  218.7243 H   0  0  0  0  0  0  0  0  0  0  0  0
  146.3952   68.6341  220.3882 H   0  0  0  0  0  0  0  0  0  0  0  0
  147.3029   69.0193  218.8595 H   0  0  0  0  0  0  0  0  0  0  0  0
  144.9530   70.2710  220.0190 H   0  0  0  0  0  0  0  0  0  0  0  0
  138.3884   71.3326  222.2271 H   0  0  0  0  0  0  0  0  0  0  0  0
  139.5634   69.9461  222.3625 H   0  0  0  0  0  0  0  0  0  0  0  0
  137.6154   70.9761  224.4626 H   0  0  0  0  0  0  0  0  0  0  0  0
  137.6964   69.3445  223.6982 H   0  0  0  0  0  0  0  0  0  0  0  0
  138.0859   67.9317  225.5933 H   0  0  0  0  0  0  0  0  0  0  0  0
  139.6160   67.2316  227.4417 H   0  0  0  0  0  0  0  0  0  0  0  0
  141.5603   68.6692  228.0661 H   0  0  0  0  0  0  0  0  0  0  0  0
  142.0059   70.7858  226.8209 H   0  0  0  0  0  0  0  0  0  0  0  0
  139.9695   72.6253  225.2088 H   0  0  0  0  0  0  0  0  0  0  0  0
  141.6288   72.0438  224.7688 H   0  0  0  0  0  0  0  0  0  0  0  0
  139.8060   76.7646  222.9351 H   0  0  0  0  0  0  0  0  0  0  0  0
  141.4534   76.2340  223.4748 H   0  0  0  0  0  0  0  0  0  0  0  0
  1  2  2  0
  2  3  1  0
  3  4  2  0
  4  5  1  0
  5  6  2  0
  5  7  1  0
  7  8  1  0
  8  9  1  0
  9 10  1  0
 10 11  2  0
 11 12  1  0
 12 13  1  0
 13 14  1  0
 14 15  1  0
 15 16  1  0
 16 17  1  0
 17 18  1  0
 18 19  1  0
 19 20  1  0
 20 21  1  0
 12 22  2  0
 22 23  1  0
 23 24  1  0
 24 25  1  0
 25 26  1  0
 26 27  1  0
 27 28  2  0
 28 29  1  0
 29 30  2  0
 30 31  1  0
 31 32  2  0
 32 33  1  0
 23 34  2  0
  9 35  1  0
  6  1  1  0
 34 10  1  0
 35  4  1  0
 21 16  1  0
 33 24  1  0
 32 27  1  0
  1 36  1  0
  2 37  1  0
  3 38  1  0
  6 39  1  0
  7 40  1  0
  7 41  1  0
  8 42  1  0
  8 43  1  0
 11 44  1  0
 13 45  1  0
 14 46  1  0
 14 47  1  0
 15 48  1  0
 15 49  1  0
 16 50  1  1
 17 51  1  0
 17 52  1  0
 18 53  1  0
 18 54  1  0
 19 55  1  0
 19 56  1  0
 20 57  1  0
 20 58  1  0
 21 59  1  0
 25 60  1  0
 25 61  1  0
 26 62  1  0
 26 63  1  0
 28 64  1  0
 29 65  1  0
 30 66  1  0
 31 67  1  0
 33 68  1  0
 33 69  1  0
 35 70  1  0
 35 71  1  0
M  END
>  <UniqueID>  (34) 
586

>  <SMILES>  (34) 
c1ccc2c(c1)CCN(c1cc(NCC[C@H]3CCCCN3)nc(N3CCc4ccccc4C3)n1)C2

>  <Energy>  (34) 
84.40597876800952

>  <Genealogy>  (34) 
c1ccc2c(c1)CCN(c1cc(NCC[C@H]3CCCCN3)nc(N3CCc4ccccc4C3)n1)C2 (chirality)
c1ccc2c(c1)CCN(c1cc(NCC[C@H]3CCCCN3)nc(N3CCc4ccccc4C3)n1)C2 (3D coordinates assigned)
c1ccc2c(c1)CCN(c1cc(NCC[C@H]3CCCCN3)nc(N3CCc4ccccc4C3)n1)C2 (nonaromatic ring conformer: 84.40597876800952 kcal/mol)

>  <smiles>  (34) 
c1ccc2c(c1)CCN(c1cc(NCCC3CCCCN3)nc(N3CCc4ccccc4C3)n1)C2

>  <score_type>  (34) 
oracle

>  <origin>  (34) 
autodockgpu

>  <m_score__min__energy>  (34) 
-10.380000000000001

>  <m_primary>  (34) 
energy

>  <meeko>  (34) 
{"free_energy": -9.49, "intermolecular_energy": -11.28, "internal_energy": -1.43, "cluster_size": 8, "cluster_id": 1, "rank_in_cluster": 6}

>  <energy>  (34) 
-7.96

>  <cluster_rmsd>  (34) 
1.55

>  <rmsd>  (34) 
269.17

>  <cluster>  (34) 
4

$$$$
VOUYAFWJUZHTKY-RNPWZEQVNA-N
     RDKit          3D

 71 76  0  0  0  0  0  0  0  0999 V2000
  146.1220   70.0810  216.9610 C   0  0  0  0  0  0  0  0  0  0  0  0
  146.0000   69.2680  218.0930 C   0  0  0  0  0  0  0  0  0  0  0  0
  145.3110   69.7300  219.2170 C   0  0  0  0  0  0  0  0  0  0  0  0
  144.7340   71.0070  219.2210 C   0  0  0  0  0  0  0  0  0  0  0  0
  144.8840   71.8440  218.0880 C   0  0  0  0  0  0  0  0  0  0  0  0
  145.5690   71.3630  216.9560 C   0  0  0  0  0  0  0  0  0  0  0  0
  144.2490   73.2120  218.0370 C   0  0  0  0  0  0  0  0  0  0  0  0
  144.0170   73.7680  219.4410 C   0  0  0  0  0  0  0  0  0  0  0  0
  143.3280   72.7550  220.2450 N   0  0  0  0  0  0  0  0  0  0  0  0
  142.1510   73.0760  221.0130 C   0  0  0  0  0  0  0  0  0  0  0  0
  141.4920   74.2990  220.8420 C   0  0  0  0  0  0  0  0  0  0  0  0
  140.3520   74.5660  221.6150 C   0  0  0  0  0  0  0  0  0  0  0  0
  139.6340   75.8040  221.5000 N   0  0  0  0  0  0  0  0  0  0  0  0
  140.1310   76.9520  220.7350 C   0  0  0  0  0  0  0  0  0  0  0  0
  141.4400   77.4700  221.3540 C   0  0  0  0  0  0  0  0  0  0  0  0
  141.3010   78.8960  221.9190 C   0  0  1  0  0  0  0  0  0  0  0  0
  140.2090   78.9220  223.0110 C   0  0  0  0  0  0  0  0  0  0  0  0
  139.9930   80.3510  223.5460 C   0  0  0  0  0  0  0  0  0  0  0  0
  141.2570   81.2220  223.4340 C   0  0  0  0  0  0  0  0  0  0  0  0
  142.5270   80.3660  223.5210 C   0  0  0  0  0  0  0  0  0  0  0  0
  142.6090   79.3630  222.4380 N   0  0  0  0  0  0  0  0  0  0  0  0
  139.9060   73.6240  222.4880 N   0  0  0  0  0  0  0  0  0  0  0  0
  140.5270   72.4230  222.6240 C   0  0  0  0  0  0  0  0  0  0  0  0
  139.9920   71.4230  223.5180 N   0  0  0  0  0  0  0  0  0  0  0  0
  139.1940   70.3190  222.9470 C   0  0  0  0  0  0  0  0  0  0  0  0
  138.4660   69.4930  224.0170 C   0  0  0  0  0  0  0  0  0  0  0  0
  139.3910   69.1690  225.1480 C   0  0  0  0  0  0  0  0  0  0  0  0
  139.3570   67.9130  225.7760 C   0  0  0  0  0  0  0  0  0  0  0  0
  140.1960   67.6520  226.8660 C   0  0  0  0  0  0  0  0  0  0  0  0
  141.0510   68.6500  227.3460 C   0  0  0  0  0  0  0  0  0  0  0  0
  141.0800   69.9050  226.7330 C   0  0  0  0  0  0  0  0  0  0  0  0
  140.2570   70.1690  225.6250 C   0  0  0  0  0  0  0  0  0  0  0  0
  140.2560   71.5230  224.9680 C   0  0  0  0  0  0  0  0  0  0  0  0
  141.6420   72.1640  221.8860 N   0  0  0  0  0  0  0  0  0  0  0  0
  144.0210   71.4820  220.4690 C   0  0  0  0  0  0  0  0  0  0  0  0
  146.6546   69.7095  216.0732 H   0  0  0  0  0  0  0  0  0  0  0  0
  146.4474   68.2631  218.0980 H   0  0  0  0  0  0  0  0  0  0  0  0
  145.2208   69.0870  220.1049 H   0  0  0  0  0  0  0  0  0  0  0  0
  145.6689   71.9995  216.0644 H   0  0  0  0  0  0  0  0  0  0  0  0
  144.9124   73.8949  217.4861 H   0  0  0  0  0  0  0  0  0  0  0  0
  143.2754   73.1247  217.5325 H   0  0  0  0  0  0  0  0  0  0  0  0
  144.9835   74.0132  219.9054 H   0  0  0  0  0  0  0  0  0  0  0  0
  143.4035   74.6792  219.3842 H   0  0  0  0  0  0  0  0  0  0  0  0
  141.8612   75.0373  220.1149 H   0  0  0  0  0  0  0  0  0  0  0  0
  138.6200   75.8060  221.7550 H   0  0  0  0  0  0  0  0  0  0  0  0
  140.3165   76.6441  219.6954 H   0  0  0  0  0  0  0  0  0  0  0  0
  139.3786   77.7541  220.7581 H   0  0  0  0  0  0  0  0  0  0  0  0
  141.7359   76.7944  222.1701 H   0  0  0  0  0  0  0  0  0  0  0  0
  142.1983   77.4983  220.5576 H   0  0  0  0  0  0  0  0  0  0  0  0
  140.9932   79.5849  221.1186 H   0  0  0  0  0  0  0  0  0  0  0  0
  139.2652   78.5518  222.5841 H   0  0  0  0  0  0  0  0  0  0  0  0
  140.5336   78.2822  223.8448 H   0  0  0  0  0  0  0  0  0  0  0  0
  139.1860   80.8253  222.9683 H   0  0  0  0  0  0  0  0  0  0  0  0
  139.7360   80.2722  224.6127 H   0  0  0  0  0  0  0  0  0  0  0  0
  141.2451   81.7501  222.4691 H   0  0  0  0  0  0  0  0  0  0  0  0
  141.2617   81.9398  224.2675 H   0  0  0  0  0  0  0  0  0  0  0  0
  143.4034   81.0276  223.4562 H   0  0  0  0  0  0  0  0  0  0  0  0
  142.4995   79.8235  224.4775 H   0  0  0  0  0  0  0  0  0  0  0  0
  143.1460   79.7820  221.6470 H   0  0  0  0  0  0  0  0  0  0  0  0
  138.4454   70.7445  222.2624 H   0  0  0  0  0  0  0  0  0  0  0  0
  139.8890   69.6446  222.4253 H   0  0  0  0  0  0  0  0  0  0  0  0
  137.6124   70.0705  224.4015 H   0  0  0  0  0  0  0  0  0  0  0  0
  138.1152   68.5540  223.5640 H   0  0  0  0  0  0  0  0  0  0  0  0
  138.6710   67.1343  225.4113 H   0  0  0  0  0  0  0  0  0  0  0  0
  140.1830   66.6619  227.3452 H   0  0  0  0  0  0  0  0  0  0  0  0
  141.7023   68.4459  228.2086 H   0  0  0  0  0  0  0  0  0  0  0  0
  141.7488   70.6886  227.1187 H   0  0  0  0  0  0  0  0  0  0  0  0
  139.4751   72.1441  225.4311 H   0  0  0  0  0  0  0  0  0  0  0  0
  141.2497   71.9738  225.1068 H   0  0  0  0  0  0  0  0  0  0  0  0
  144.7597   71.6147  221.2732 H   0  0  0  0  0  0  0  0  0  0  0  0
  143.2707   70.7263  220.7446 H   0  0  0  0  0  0  0  0  0  0  0  0
  1  2  2  0
  2  3  1  0
  3  4  2  0
  4  5  1  0
  5  6  2  0
  5  7  1  0
  7  8  1  0
  8  9  1  0
  9 10  1  0
 10 11  2  0
 11 12  1  0
 12 13  1  0
 13 14  1  0
 14 15  1  0
 15 16  1  0
 16 17  1  0
 17 18  1  0
 18 19  1  0
 19 20  1  0
 20 21  1  0
 12 22  2  0
 22 23  1  0
 23 24  1  0
 24 25  1  0
 25 26  1  0
 26 27  1  0
 27 28  2  0
 28 29  1  0
 29 30  2  0
 30 31  1  0
 31 32  2  0
 32 33  1  0
 23 34  2  0
  9 35  1  0
  6  1  1  0
 34 10  1  0
 35  4  1  0
 21 16  1  0
 33 24  1  0
 32 27  1  0
  1 36  1  0
  2 37  1  0
  3 38  1  0
  6 39  1  0
  7 40  1  0
  7 41  1  0
  8 42  1  0
  8 43  1  0
 11 44  1  0
 13 45  1  0
 14 46  1  0
 14 47  1  0
 15 48  1  0
 15 49  1  0
 16 50  1  6
 17 51  1  0
 17 52  1  0
 18 53  1  0
 18 54  1  0
 19 55  1  0
 19 56  1  0
 20 57  1  0
 20 58  1  0
 21 59  1  0
 25 60  1  0
 25 61  1  0
 26 62  1  0
 26 63  1  0
 28 64  1  0
 29 65  1  0
 30 66  1  0
 31 67  1  0
 33 68  1  0
 33 69  1  0
 35 70  1  0
 35 71  1  0
M  END
>  <UniqueID>  (35) 
586

>  <SMILES>  (35) 
c1ccc2c(c1)CCN(c1cc(NCC[C@H]3CCCCN3)nc(N3CCc4ccccc4C3)n1)C2

>  <Energy>  (35) 
84.40597876800952

>  <Genealogy>  (35) 
c1ccc2c(c1)CCN(c1cc(NCC[C@H]3CCCCN3)nc(N3CCc4ccccc4C3)n1)C2 (chirality)
c1ccc2c(c1)CCN(c1cc(NCC[C@H]3CCCCN3)nc(N3CCc4ccccc4C3)n1)C2 (3D coordinates assigned)
c1ccc2c(c1)CCN(c1cc(NCC[C@H]3CCCCN3)nc(N3CCc4ccccc4C3)n1)C2 (nonaromatic ring conformer: 84.40597876800952 kcal/mol)

>  <smiles>  (35) 
c1ccc2c(c1)CCN(c1cc(NCCC3CCCCN3)nc(N3CCc4ccccc4C3)n1)C2

>  <score_type>  (35) 
oracle

>  <origin>  (35) 
autodockgpu

>  <m_score__min__energy>  (35) 
-10.380000000000001

>  <m_primary>  (35) 
energy

>  <meeko>  (35) 
{"free_energy": -9.9, "intermolecular_energy": -11.69, "internal_energy": -0.93, "cluster_size": 1, "cluster_id": 3, "rank_in_cluster": 1}

>  <energy>  (35) 
-9.12

>  <cluster_rmsd>  (35) 
0.0

>  <rmsd>  (35) 
269.48

>  <cluster>  (35) 
5

$$$$
VOUYAFWJUZHTKY-RNPWZEQVNA-N
     RDKit          3D

 71 76  0  0  0  0  0  0  0  0999 V2000
  138.2640   80.2110  223.9750 C   0  0  0  0  0  0  0  0  0  0  0  0
  137.1390   79.5270  223.5030 C   0  0  0  0  0  0  0  0  0  0  0  0
  137.2910   78.3510  222.7650 C   0  0  0  0  0  0  0  0  0  0  0  0
  138.5690   77.8440  222.4940 C   0  0  0  0  0  0  0  0  0  0  0  0
  139.7110   78.5510  222.9430 C   0  0  0  0  0  0  0  0  0  0  0  0
  139.5450   79.7290  223.6980 C   0  0  0  0  0  0  0  0  0  0  0  0
  141.1040   78.0220  222.7040 C   0  0  0  0  0  0  0  0  0  0  0  0
  141.1420   77.0900  221.4940 C   0  0  0  0  0  0  0  0  0  0  0  0
  140.0760   76.0930  221.6290 N   0  0  0  0  0  0  0  0  0  0  0  0
  140.3350   74.6860  221.4570 C   0  0  0  0  0  0  0  0  0  0  0  0
  141.0450   74.2160  220.3460 C   0  0  0  0  0  0  0  0  0  0  0  0
  141.2700   72.8360  220.2220 C   0  0  0  0  0  0  0  0  0  0  0  0
  141.9790   72.2840  219.1020 N   0  0  0  0  0  0  0  0  0  0  0  0
  142.0710   72.9530  217.8010 C   0  0  0  0  0  0  0  0  0  0  0  0
  143.0150   74.1630  217.8960 C   0  0  0  0  0  0  0  0  0  0  0  0
  144.3200   73.8340  218.6460 C   0  0  1  0  0  0  0  0  0  0  0  0
  144.2440   74.3740  220.0900 C   0  0  0  0  0  0  0  0  0  0  0  0
  145.5640   74.1250  220.8460 C   0  0  0  0  0  0  0  0  0  0  0  0
  146.3220   72.8920  220.3220 C   0  0  0  0  0  0  0  0  0  0  0  0
  145.3520   71.8490  219.7530 C   0  0  0  0  0  0  0  0  0  0  0  0
  144.5630   72.3710  218.6170 N   0  0  0  0  0  0  0  0  0  0  0  0
  140.8150   71.9990  221.1910 N   0  0  0  0  0  0  0  0  0  0  0  0
  140.1590   72.4640  222.2880 C   0  0  0  0  0  0  0  0  0  0  0  0
  139.7410   71.5530  223.3270 N   0  0  0  0  0  0  0  0  0  0  0  0
  138.5770   70.6780  223.0730 C   0  0  0  0  0  0  0  0  0  0  0  0
  138.0770   69.9680  224.3380 C   0  0  0  0  0  0  0  0  0  0  0  0
  139.2270   69.3900  225.1040 C   0  0  0  0  0  0  0  0  0  0  0  0
  139.1250   68.1370  225.7300 C   0  0  0  0  0  0  0  0  0  0  0  0
  140.1950   67.6410  226.4840 C   0  0  0  0  0  0  0  0  0  0  0  0
  141.3580   68.4050  226.6350 C   0  0  0  0  0  0  0  0  0  0  0  0
  141.4600   69.6580  226.0240 C   0  0  0  0  0  0  0  0  0  0  0  0
  140.3980   70.1530  225.2480 C   0  0  0  0  0  0  0  0  0  0  0  0
  140.4800   71.5110  224.6050 C   0  0  0  0  0  0  0  0  0  0  0  0
  139.9260   73.8010  222.4060 N   0  0  0  0  0  0  0  0  0  0  0  0
  138.6940   76.5820  221.6670 C   0  0  0  0  0  0  0  0  0  0  0  0
  138.1394   81.1306  224.5657 H   0  0  0  0  0  0  0  0  0  0  0  0
  136.1320   79.9162  223.7136 H   0  0  0  0  0  0  0  0  0  0  0  0
  136.4021   77.8195  222.3942 H   0  0  0  0  0  0  0  0  0  0  0  0
  140.4271   80.2706  224.0703 H   0  0  0  0  0  0  0  0  0  0  0  0
  141.7835   78.8686  222.5261 H   0  0  0  0  0  0  0  0  0  0  0  0
  141.4170   77.4527  223.5916 H   0  0  0  0  0  0  0  0  0  0  0  0
  140.9880   77.6729  220.5739 H   0  0  0  0  0  0  0  0  0  0  0  0
  142.1187   76.5866  221.4418 H   0  0  0  0  0  0  0  0  0  0  0  0
  141.4198   74.9153  219.5840 H   0  0  0  0  0  0  0  0  0  0  0  0
  142.6580   71.5100  219.2880 H   0  0  0  0  0  0  0  0  0  0  0  0
  142.4604   72.2452  217.0544 H   0  0  0  0  0  0  0  0  0  0  0  0
  141.0705   73.2989  217.5019 H   0  0  0  0  0  0  0  0  0  0  0  0
  143.2670   74.4950  216.8780 H   0  0  0  0  0  0  0  0  0  0  0  0
  142.4940   74.9506  218.4601 H   0  0  0  0  0  0  0  0  0  0  0  0
  145.1695   74.3245  218.1482 H   0  0  0  0  0  0  0  0  0  0  0  0
  144.0463   75.4556  220.0591 H   0  0  0  0  0  0  0  0  0  0  0  0
  143.4348   73.8479  220.6175 H   0  0  0  0  0  0  0  0  0  0  0  0
  146.2079   75.0095  220.7315 H   0  0  0  0  0  0  0  0  0  0  0  0
  145.3141   73.9393  221.9010 H   0  0  0  0  0  0  0  0  0  0  0  0
  147.0164   73.2071  219.5293 H   0  0  0  0  0  0  0  0  0  0  0  0
  146.8721   72.4378  221.1593 H   0  0  0  0  0  0  0  0  0  0  0  0
  145.9309   70.9787  219.4103 H   0  0  0  0  0  0  0  0  0  0  0  0
  144.6474   71.5762  220.5524 H   0  0  0  0  0  0  0  0  0  0  0  0
  145.0690   72.1390  217.7340 H   0  0  0  0  0  0  0  0  0  0  0  0
  137.7586   71.2912  222.6679 H   0  0  0  0  0  0  0  0  0  0  0  0
  138.8965   69.9012  222.3627 H   0  0  0  0  0  0  0  0  0  0  0  0
  137.5460   70.6919  224.9736 H   0  0  0  0  0  0  0  0  0  0  0  0
  137.3994   69.1528  224.0443 H   0  0  0  0  0  0  0  0  0  0  0  0
  138.2036   67.5449  225.6277 H   0  0  0  0  0  0  0  0  0  0  0  0
  140.1219   66.6510  226.9578 H   0  0  0  0  0  0  0  0  0  0  0  0
  142.1941   68.0183  227.2362 H   0  0  0  0  0  0  0  0  0  0  0  0
  142.3733   70.2578  226.1508 H   0  0  0  0  0  0  0  0  0  0  0  0
  140.0508   72.2569  225.2902 H   0  0  0  0  0  0  0  0  0  0  0  0
  141.5379   71.7303  224.3981 H   0  0  0  0  0  0  0  0  0  0  0  0
  138.3627   76.7946  220.6399 H   0  0  0  0  0  0  0  0  0  0  0  0
  138.0680   75.8051  222.1303 H   0  0  0  0  0  0  0  0  0  0  0  0
  1  2  2  0
  2  3  1  0
  3  4  2  0
  4  5  1  0
  5  6  2  0
  5  7  1  0
  7  8  1  0
  8  9  1  0
  9 10  1  0
 10 11  2  0
 11 12  1  0
 12 13  1  0
 13 14  1  0
 14 15  1  0
 15 16  1  0
 16 17  1  0
 17 18  1  0
 18 19  1  0
 19 20  1  0
 20 21  1  0
 12 22  2  0
 22 23  1  0
 23 24  1  0
 24 25  1  0
 25 26  1  0
 26 27  1  0
 27 28  2  0
 28 29  1  0
 29 30  2  0
 30 31  1  0
 31 32  2  0
 32 33  1  0
 23 34  2  0
  9 35  1  0
  6  1  1  0
 34 10  1  0
 35  4  1  0
 21 16  1  0
 33 24  1  0
 32 27  1  0
  1 36  1  0
  2 37  1  0
  3 38  1  0
  6 39  1  0
  7 40  1  0
  7 41  1  0
  8 42  1  0
  8 43  1  0
 11 44  1  0
 13 45  1  0
 14 46  1  0
 14 47  1  0
 15 48  1  0
 15 49  1  0
 16 50  1  6
 17 51  1  0
 17 52  1  0
 18 53  1  0
 18 54  1  0
 19 55  1  0
 19 56  1  0
 20 57  1  0
 20 58  1  0
 21 59  1  0
 25 60  1  0
 25 61  1  0
 26 62  1  0
 26 63  1  0
 28 64  1  0
 29 65  1  0
 30 66  1  0
 31 67  1  0
 33 68  1  0
 33 69  1  0
 35 70  1  0
 35 71  1  0
M  END
>  <UniqueID>  (36) 
586

>  <SMILES>  (36) 
c1ccc2c(c1)CCN(c1cc(NCC[C@H]3CCCCN3)nc(N3CCc4ccccc4C3)n1)C2

>  <Energy>  (36) 
84.40597876800952

>  <Genealogy>  (36) 
c1ccc2c(c1)CCN(c1cc(NCC[C@H]3CCCCN3)nc(N3CCc4ccccc4C3)n1)C2 (chirality)
c1ccc2c(c1)CCN(c1cc(NCC[C@H]3CCCCN3)nc(N3CCc4ccccc4C3)n1)C2 (3D coordinates assigned)
c1ccc2c(c1)CCN(c1cc(NCC[C@H]3CCCCN3)nc(N3CCc4ccccc4C3)n1)C2 (nonaromatic ring conformer: 84.40597876800952 kcal/mol)

>  <smiles>  (36) 
c1ccc2c(c1)CCN(c1cc(NCCC3CCCCN3)nc(N3CCc4ccccc4C3)n1)C2

>  <score_type>  (36) 
oracle

>  <origin>  (36) 
autodockgpu

>  <m_score__min__energy>  (36) 
-10.380000000000001

>  <m_primary>  (36) 
energy

>  <meeko>  (36) 
{"free_energy": -9.03, "intermolecular_energy": -10.82, "internal_energy": -1.75, "cluster_size": 5, "cluster_id": 5, "rank_in_cluster": 4}

>  <energy>  (36) 
-9.04

>  <cluster_rmsd>  (36) 
0.38

>  <rmsd>  (36) 
269.45

>  <cluster>  (36) 
5

$$$$
VOUYAFWJUZHTKY-RNPWZEQVNA-N
     RDKit          3D

 71 76  0  0  0  0  0  0  0  0999 V2000
  141.9440   81.0620  222.6260 C   0  0  0  0  0  0  0  0  0  0  0  0
  141.7520   80.3900  223.8380 C   0  0  0  0  0  0  0  0  0  0  0  0
  141.4490   79.0260  223.8440 C   0  0  0  0  0  0  0  0  0  0  0  0
  141.3390   78.3190  222.6390 C   0  0  0  0  0  0  0  0  0  0  0  0
  141.5010   79.0030  221.4100 C   0  0  0  0  0  0  0  0  0  0  0  0
  141.8190   80.3750  221.4170 C   0  0  0  0  0  0  0  0  0  0  0  0
  141.4250   78.2730  220.0920 C   0  0  0  0  0  0  0  0  0  0  0  0
  140.5980   76.9940  220.2140 C   0  0  0  0  0  0  0  0  0  0  0  0
  141.0820   76.2240  221.3640 N   0  0  0  0  0  0  0  0  0  0  0  0
  141.3870   74.8200  221.2540 C   0  0  0  0  0  0  0  0  0  0  0  0
  142.3890   74.3670  220.3880 C   0  0  0  0  0  0  0  0  0  0  0  0
  142.6480   72.9890  220.3150 C   0  0  0  0  0  0  0  0  0  0  0  0
  143.6530   72.4550  219.4400 N   0  0  0  0  0  0  0  0  0  0  0  0
  144.8050   71.6840  219.9170 C   0  0  0  0  0  0  0  0  0  0  0  0
  145.4330   70.9000  218.7520 C   0  0  0  0  0  0  0  0  0  0  0  0
  144.8570   69.4780  218.6220 C   0  0  1  0  0  0  0  0  0  0  0  0
  145.7680   68.4740  219.3590 C   0  0  0  0  0  0  0  0  0  0  0  0
  145.2590   67.0300  219.1860 C   0  0  0  0  0  0  0  0  0  0  0  0
  143.7370   66.9620  218.9700 C   0  0  0  0  0  0  0  0  0  0  0  0
  143.0280   68.1340  219.6610 C   0  0  0  0  0  0  0  0  0  0  0  0
  143.4680   69.4460  219.1430 N   0  0  0  0  0  0  0  0  0  0  0  0
  141.9370   72.1380  221.1010 N   0  0  0  0  0  0  0  0  0  0  0  0
  140.9910   72.5860  221.9680 C   0  0  0  0  0  0  0  0  0  0  0  0
  140.2960   71.6590  222.8300 N   0  0  0  0  0  0  0  0  0  0  0  0
  139.5570   70.5380  222.2120 C   0  0  0  0  0  0  0  0  0  0  0  0
  138.6510   69.8000  223.2070 C   0  0  0  0  0  0  0  0  0  0  0  0
  139.3850   69.5280  224.4830 C   0  0  0  0  0  0  0  0  0  0  0  0
  139.2170   68.3170  225.1730 C   0  0  0  0  0  0  0  0  0  0  0  0
  139.8740   68.1070  226.3910 C   0  0  0  0  0  0  0  0  0  0  0  0
  140.6790   69.1140  226.9340 C   0  0  0  0  0  0  0  0  0  0  0  0
  140.8400   70.3260  226.2580 C   0  0  0  0  0  0  0  0  0  0  0  0
  140.2010   70.5370  225.0240 C   0  0  0  0  0  0  0  0  0  0  0  0
  140.3420   71.8450  224.2950 C   0  0  0  0  0  0  0  0  0  0  0  0
  140.7260   73.9200  222.0330 N   0  0  0  0  0  0  0  0  0  0  0  0
  140.9810   76.8490  222.6870 C   0  0  0  0  0  0  0  0  0  0  0  0
  142.1938   82.1333  222.6256 H   0  0  0  0  0  0  0  0  0  0  0  0
  141.8398   80.9368  224.7884 H   0  0  0  0  0  0  0  0  0  0  0  0
  141.2959   78.5041  224.8001 H   0  0  0  0  0  0  0  0  0  0  0  0
  141.9695   80.9074  220.4663 H   0  0  0  0  0  0  0  0  0  0  0  0
  140.9591   78.9312  219.3439 H   0  0  0  0  0  0  0  0  0  0  0  0
  142.4457   77.9993  219.7868 H   0  0  0  0  0  0  0  0  0  0  0  0
  139.5388   77.2517  220.3614 H   0  0  0  0  0  0  0  0  0  0  0  0
  140.6982   76.3962  219.2961 H   0  0  0  0  0  0  0  0  0  0  0  0
  142.9632   75.0778  219.7756 H   0  0  0  0  0  0  0  0  0  0  0  0
  143.4310   72.3960  218.4200 H   0  0  0  0  0  0  0  0  0  0  0  0
  145.5534   72.3709  220.3390 H   0  0  0  0  0  0  0  0  0  0  0  0
  144.4704   70.9760  220.6895 H   0  0  0  0  0  0  0  0  0  0  0  0
  145.2420   71.4452  217.8159 H   0  0  0  0  0  0  0  0  0  0  0  0
  146.5106   70.8078  218.9527 H   0  0  0  0  0  0  0  0  0  0  0  0
  144.8240   69.1862  217.5619 H   0  0  0  0  0  0  0  0  0  0  0  0
  146.7867   68.5469  218.9505 H   0  0  0  0  0  0  0  0  0  0  0  0
  145.7620   68.7197  220.4312 H   0  0  0  0  0  0  0  0  0  0  0  0
  145.7590   66.5820  218.3146 H   0  0  0  0  0  0  0  0  0  0  0  0
  145.4894   66.4820  220.1115 H   0  0  0  0  0  0  0  0  0  0  0  0
  143.5252   66.9997  217.8912 H   0  0  0  0  0  0  0  0  0  0  0  0
  143.3641   66.0229  219.4047 H   0  0  0  0  0  0  0  0  0  0  0  0
  141.9445   68.0360  219.4987 H   0  0  0  0  0  0  0  0  0  0  0  0
  143.2819   68.0946  220.7306 H   0  0  0  0  0  0  0  0  0  0  0  0
  142.8220   69.7260  218.3730 H   0  0  0  0  0  0  0  0  0  0  0  0
  138.9336   70.9352  221.3974 H   0  0  0  0  0  0  0  0  0  0  0  0
  140.3002   69.8157  221.8434 H   0  0  0  0  0  0  0  0  0  0  0  0
  137.7687   70.4207  223.4222 H   0  0  0  0  0  0  0  0  0  0  0  0
  138.3419   68.8420  222.7635 H   0  0  0  0  0  0  0  0  0  0  0  0
  138.5684   67.5324  224.7561 H   0  0  0  0  0  0  0  0  0  0  0  0
  139.7573   67.1503  226.9211 H   0  0  0  0  0  0  0  0  0  0  0  0
  141.1868   68.9511  227.8961 H   0  0  0  0  0  0  0  0  0  0  0  0
  141.4685   71.1172  226.6926 H   0  0  0  0  0  0  0  0  0  0  0  0
  139.5206   72.5118  224.5961 H   0  0  0  0  0  0  0  0  0  0  0  0
  141.3177   72.2808  224.5560 H   0  0  0  0  0  0  0  0  0  0  0  0
  139.9489   76.7450  223.0528 H   0  0  0  0  0  0  0  0  0  0  0  0
  141.6898   76.3446  223.3602 H   0  0  0  0  0  0  0  0  0  0  0  0
  1  2  2  0
  2  3  1  0
  3  4  2  0
  4  5  1  0
  5  6  2  0
  5  7  1  0
  7  8  1  0
  8  9  1  0
  9 10  1  0
 10 11  2  0
 11 12  1  0
 12 13  1  0
 13 14  1  0
 14 15  1  0
 15 16  1  0
 16 17  1  0
 17 18  1  0
 18 19  1  0
 19 20  1  0
 20 21  1  0
 12 22  2  0
 22 23  1  0
 23 24  1  0
 24 25  1  0
 25 26  1  0
 26 27  1  0
 27 28  2  0
 28 29  1  0
 29 30  2  0
 30 31  1  0
 31 32  2  0
 32 33  1  0
 23 34  2  0
  9 35  1  0
  6  1  1  0
 34 10  1  0
 35  4  1  0
 21 16  1  0
 33 24  1  0
 32 27  1  0
  1 36  1  0
  2 37  1  0
  3 38  1  0
  6 39  1  0
  7 40  1  0
  7 41  1  0
  8 42  1  0
  8 43  1  0
 11 44  1  0
 13 45  1  0
 14 46  1  0
 14 47  1  0
 15 48  1  0
 15 49  1  0
 16 50  1  6
 17 51  1  0
 17 52  1  0
 18 53  1  0
 18 54  1  0
 19 55  1  0
 19 56  1  0
 20 57  1  0
 20 58  1  0
 21 59  1  0
 25 60  1  0
 25 61  1  0
 26 62  1  0
 26 63  1  0
 28 64  1  0
 29 65  1  0
 30 66  1  0
 31 67  1  0
 33 68  1  0
 33 69  1  0
 35 70  1  0
 35 71  1  0
M  END
>  <UniqueID>  (37) 
586

>  <SMILES>  (37) 
c1ccc2c(c1)CCN(c1cc(NCC[C@H]3CCCCN3)nc(N3CCc4ccccc4C3)n1)C2

>  <Energy>  (37) 
84.40597876800952

>  <Genealogy>  (37) 
c1ccc2c(c1)CCN(c1cc(NCC[C@H]3CCCCN3)nc(N3CCc4ccccc4C3)n1)C2 (chirality)
c1ccc2c(c1)CCN(c1cc(NCC[C@H]3CCCCN3)nc(N3CCc4ccccc4C3)n1)C2 (3D coordinates assigned)
c1ccc2c(c1)CCN(c1cc(NCC[C@H]3CCCCN3)nc(N3CCc4ccccc4C3)n1)C2 (nonaromatic ring conformer: 84.40597876800952 kcal/mol)

>  <smiles>  (37) 
c1ccc2c(c1)CCN(c1cc(NCCC3CCCCN3)nc(N3CCc4ccccc4C3)n1)C2

>  <score_type>  (37) 
oracle

>  <origin>  (37) 
autodockgpu

>  <m_score__min__energy>  (37) 
-10.380000000000001

>  <m_primary>  (37) 
energy

>  <meeko>  (37) 
{"free_energy": -9.7, "intermolecular_energy": -11.49, "internal_energy": -1.07, "cluster_size": 8, "cluster_id": 1, "rank_in_cluster": 3}

>  <energy>  (37) 
-9.03

>  <cluster_rmsd>  (37) 
0.29

>  <rmsd>  (37) 
269.5

>  <cluster>  (37) 
5

$$$$
VOUYAFWJUZHTKY-RNPWZEQVNA-N
     RDKit          3D

 71 76  0  0  0  0  0  0  0  0999 V2000
  139.5510   69.7840  228.3280 C   0  0  0  0  0  0  0  0  0  0  0  0
  140.6260   70.6790  228.3350 C   0  0  0  0  0  0  0  0  0  0  0  0
  141.0900   71.2290  227.1370 C   0  0  0  0  0  0  0  0  0  0  0  0
  140.4800   70.8940  225.9200 C   0  0  0  0  0  0  0  0  0  0  0  0
  139.4120   69.9640  225.9080 C   0  0  0  0  0  0  0  0  0  0  0  0
  138.9450   69.4260  227.1230 C   0  0  0  0  0  0  0  0  0  0  0  0
  138.7040   69.6020  224.6240 C   0  0  0  0  0  0  0  0  0  0  0  0
  139.6060   69.8310  223.4120 C   0  0  0  0  0  0  0  0  0  0  0  0
  140.1740   71.1800  223.4900 N   0  0  0  0  0  0  0  0  0  0  0  0
  140.1300   72.0810  222.3660 C   0  0  0  0  0  0  0  0  0  0  0  0
  140.2060   71.5990  221.0540 C   0  0  0  0  0  0  0  0  0  0  0  0
  140.1630   72.5170  219.9940 C   0  0  0  0  0  0  0  0  0  0  0  0
  140.2470   72.0930  218.6240 N   0  0  0  0  0  0  0  0  0  0  0  0
  141.4090   72.3600  217.7710 C   0  0  0  0  0  0  0  0  0  0  0  0
  142.6270   71.5700  218.2780 C   0  0  0  0  0  0  0  0  0  0  0  0
  143.4190   72.3350  219.3550 C   0  0  1  0  0  0  0  0  0  0  0  0
  144.9330   72.1930  219.0920 C   0  0  0  0  0  0  0  0  0  0  0  0
  145.7560   72.8880  220.1950 C   0  0  0  0  0  0  0  0  0  0  0  0
  145.0020   74.0620  220.8440 C   0  0  0  0  0  0  0  0  0  0  0  0
  144.0240   74.7060  219.8530 C   0  0  0  0  0  0  0  0  0  0  0  0
  142.9950   73.7570  219.3770 N   0  0  0  0  0  0  0  0  0  0  0  0
  140.0250   73.8410  220.2670 N   0  0  0  0  0  0  0  0  0  0  0  0
  139.9140   74.3010  221.5410 C   0  0  0  0  0  0  0  0  0  0  0  0
  139.7100   75.7090  221.7920 N   0  0  0  0  0  0  0  0  0  0  0  0
  138.4900   76.1290  222.5120 C   0  0  0  0  0  0  0  0  0  0  0  0
  138.2640   77.6460  222.4690 C   0  0  0  0  0  0  0  0  0  0  0  0
  139.5360   78.3740  222.7760 C   0  0  0  0  0  0  0  0  0  0  0  0
  139.5360   79.5370  223.5620 C   0  0  0  0  0  0  0  0  0  0  0  0
  140.7300   80.2290  223.7920 C   0  0  0  0  0  0  0  0  0  0  0  0
  141.9230   79.7760  223.2170 C   0  0  0  0  0  0  0  0  0  0  0  0
  141.9270   78.6250  222.4230 C   0  0  0  0  0  0  0  0  0  0  0  0
  140.7360   77.9130  222.2060 C   0  0  0  0  0  0  0  0  0  0  0  0
  140.7170   76.6880  221.3330 C   0  0  0  0  0  0  0  0  0  0  0  0
  139.9700   73.4160  222.5750 N   0  0  0  0  0  0  0  0  0  0  0  0
  141.0290   71.4880  224.6410 C   0  0  0  0  0  0  0  0  0  0  0  0
  139.1825   69.3615  229.2744 H   0  0  0  0  0  0  0  0  0  0  0  0
  141.1074   70.9506  229.2860 H   0  0  0  0  0  0  0  0  0  0  0  0
  141.9387   71.9287  227.1490 H   0  0  0  0  0  0  0  0  0  0  0  0
  138.1001   68.7216  227.1221 H   0  0  0  0  0  0  0  0  0  0  0  0
  138.4146   68.5414  224.6606 H   0  0  0  0  0  0  0  0  0  0  0  0
  137.8159   70.2432  224.5233 H   0  0  0  0  0  0  0  0  0  0  0  0
  140.4175   69.0884  223.4103 H   0  0  0  0  0  0  0  0  0  0  0  0
  139.0202   69.7266  222.4868 H   0  0  0  0  0  0  0  0  0  0  0  0
  140.2977   70.5205  220.8578 H   0  0  0  0  0  0  0  0  0  0  0  0
  139.5760   71.3600  218.2980 H   0  0  0  0  0  0  0  0  0  0  0  0
  141.1810   72.0550  216.7390 H   0  0  0  0  0  0  0  0  0  0  0  0
  141.6387   73.4353  217.8004 H   0  0  0  0  0  0  0  0  0  0  0  0
  142.2774   70.6189  218.7060 H   0  0  0  0  0  0  0  0  0  0  0  0
  143.2987   71.4056  217.4225 H   0  0  0  0  0  0  0  0  0  0  0  0
  143.2090   71.9066  220.3461 H   0  0  0  0  0  0  0  0  0  0  0  0
  145.1947   71.1249  219.0677 H   0  0  0  0  0  0  0  0  0  0  0  0
  145.1664   72.6705  218.1289 H   0  0  0  0  0  0  0  0  0  0  0  0
  145.9958   72.1494  220.9741 H   0  0  0  0  0  0  0  0  0  0  0  0
  146.6653   73.2935  219.7272 H   0  0  0  0  0  0  0  0  0  0  0  0
  144.4399   73.6910  221.7137 H   0  0  0  0  0  0  0  0  0  0  0  0
  145.7363   74.8206  221.1529 H   0  0  0  0  0  0  0  0  0  0  0  0
  143.5230   75.5501  220.3495 H   0  0  0  0  0  0  0  0  0  0  0  0
  144.6033   75.0378  218.9788 H   0  0  0  0  0  0  0  0  0  0  0  0
  142.1610   73.8420  219.9990 H   0  0  0  0  0  0  0  0  0  0  0  0
  137.6228   75.6318  222.0530 H   0  0  0  0  0  0  0  0  0  0  0  0
  138.6144   75.8435  223.5670 H   0  0  0  0  0  0  0  0  0  0  0  0
  137.9163   77.9320  221.4654 H   0  0  0  0  0  0  0  0  0  0  0  0
  137.5091   77.9150  223.2225 H   0  0  0  0  0  0  0  0  0  0  0  0
  138.5955   79.9050  223.9979 H   0  0  0  0  0  0  0  0  0  0  0  0
  140.7312   81.1289  224.4246 H   0  0  0  0  0  0  0  0  0  0  0  0
  142.8594   80.3266  223.3901 H   0  0  0  0  0  0  0  0  0  0  0  0
  142.8654   78.2763  221.9672 H   0  0  0  0  0  0  0  0  0  0  0  0
  140.4791   76.9881  220.3018 H   0  0  0  0  0  0  0  0  0  0  0  0
  141.7077   76.2129  221.3850 H   0  0  0  0  0  0  0  0  0  0  0  0
  142.0332   71.0773  224.4594 H   0  0  0  0  0  0  0  0  0  0  0  0
  141.0659   72.5811  224.7584 H   0  0  0  0  0  0  0  0  0  0  0  0
  1  2  2  0
  2  3  1  0
  3  4  2  0
  4  5  1  0
  5  6  2  0
  5  7  1  0
  7  8  1  0
  8  9  1  0
  9 10  1  0
 10 11  2  0
 11 12  1  0
 12 13  1  0
 13 14  1  0
 14 15  1  0
 15 16  1  0
 16 17  1  0
 17 18  1  0
 18 19  1  0
 19 20  1  0
 20 21  1  0
 12 22  2  0
 22 23  1  0
 23 24  1  0
 24 25  1  0
 25 26  1  0
 26 27  1  0
 27 28  2  0
 28 29  1  0
 29 30  2  0
 30 31  1  0
 31 32  2  0
 32 33  1  0
 23 34  2  0
  9 35  1  0
  6  1  1  0
 34 10  1  0
 35  4  1  0
 21 16  1  0
 33 24  1  0
 32 27  1  0
  1 36  1  0
  2 37  1  0
  3 38  1  0
  6 39  1  0
  7 40  1  0
  7 41  1  0
  8 42  1  0
  8 43  1  0
 11 44  1  0
 13 45  1  0
 14 46  1  0
 14 47  1  0
 15 48  1  0
 15 49  1  0
 16 50  1  1
 17 51  1  0
 17 52  1  0
 18 53  1  0
 18 54  1  0
 19 55  1  0
 19 56  1  0
 20 57  1  0
 20 58  1  0
 21 59  1  0
 25 60  1  0
 25 61  1  0
 26 62  1  0
 26 63  1  0
 28 64  1  0
 29 65  1  0
 30 66  1  0
 31 67  1  0
 33 68  1  0
 33 69  1  0
 35 70  1  0
 35 71  1  0
M  END
>  <UniqueID>  (38) 
586

>  <SMILES>  (38) 
c1ccc2c(c1)CCN(c1cc(NCC[C@H]3CCCCN3)nc(N3CCc4ccccc4C3)n1)C2

>  <Energy>  (38) 
84.40597876800952

>  <Genealogy>  (38) 
c1ccc2c(c1)CCN(c1cc(NCC[C@H]3CCCCN3)nc(N3CCc4ccccc4C3)n1)C2 (chirality)
c1ccc2c(c1)CCN(c1cc(NCC[C@H]3CCCCN3)nc(N3CCc4ccccc4C3)n1)C2 (3D coordinates assigned)
c1ccc2c(c1)CCN(c1cc(NCC[C@H]3CCCCN3)nc(N3CCc4ccccc4C3)n1)C2 (nonaromatic ring conformer: 84.40597876800952 kcal/mol)

>  <smiles>  (38) 
c1ccc2c(c1)CCN(c1cc(NCCC3CCCCN3)nc(N3CCc4ccccc4C3)n1)C2

>  <score_type>  (38) 
oracle

>  <origin>  (38) 
autodockgpu

>  <m_score__min__energy>  (38) 
-10.380000000000001

>  <m_primary>  (38) 
energy

>  <meeko>  (38) 
{"free_energy": -9.12, "intermolecular_energy": -10.91, "internal_energy": -2.13, "cluster_size": 5, "cluster_id": 5, "rank_in_cluster": 1}

>  <energy>  (38) 
-9.03

>  <cluster_rmsd>  (38) 
1.59

>  <rmsd>  (38) 
269.34

>  <cluster>  (38) 
5

$$$$
VOUYAFWJUZHTKY-RNPWZEQVNA-N
     RDKit          3D

 71 76  0  0  0  0  0  0  0  0999 V2000
  139.5330   69.7780  228.3100 C   0  0  0  0  0  0  0  0  0  0  0  0
  140.6240   70.6540  228.3300 C   0  0  0  0  0  0  0  0  0  0  0  0
  141.0940   71.2160  227.1410 C   0  0  0  0  0  0  0  0  0  0  0  0
  140.4770   70.9130  225.9200 C   0  0  0  0  0  0  0  0  0  0  0  0
  139.3930   70.0010  225.8930 C   0  0  0  0  0  0  0  0  0  0  0  0
  138.9190   69.4510  227.0990 C   0  0  0  0  0  0  0  0  0  0  0  0
  138.6780   69.6740  224.6050 C   0  0  0  0  0  0  0  0  0  0  0  0
  139.5810   69.9090  223.3950 C   0  0  0  0  0  0  0  0  0  0  0  0
  140.1720   71.2460  223.4950 N   0  0  0  0  0  0  0  0  0  0  0  0
  140.1420   72.1670  222.3870 C   0  0  0  0  0  0  0  0  0  0  0  0
  140.2260   71.7080  221.0680 C   0  0  0  0  0  0  0  0  0  0  0  0
  140.1960   72.6450  220.0230 C   0  0  0  0  0  0  0  0  0  0  0  0
  140.2900   72.2450  218.6470 N   0  0  0  0  0  0  0  0  0  0  0  0
  141.1050   72.9560  217.6580 C   0  0  0  0  0  0  0  0  0  0  0  0
  142.5320   72.3810  217.6400 C   0  0  0  0  0  0  0  0  0  0  0  0
  143.3260   72.7380  218.9100 C   0  0  1  0  0  0  0  0  0  0  0  0
  144.8360   72.5420  218.6570 C   0  0  0  0  0  0  0  0  0  0  0  0
  145.6540   72.8200  219.9330 C   0  0  0  0  0  0  0  0  0  0  0  0
  144.9620   73.8240  220.8720 C   0  0  0  0  0  0  0  0  0  0  0  0
  144.0880   74.8070  220.0820 C   0  0  0  0  0  0  0  0  0  0  0  0
  143.0130   74.1270  219.3280 N   0  0  0  0  0  0  0  0  0  0  0  0
  140.0620   73.9650  220.3180 N   0  0  0  0  0  0  0  0  0  0  0  0
  139.9420   74.4030  221.6000 C   0  0  0  0  0  0  0  0  0  0  0  0
  139.7420   75.8070  221.8740 N   0  0  0  0  0  0  0  0  0  0  0  0
  138.5710   76.2100  222.6800 C   0  0  0  0  0  0  0  0  0  0  0  0
  138.3280   77.7250  222.6640 C   0  0  0  0  0  0  0  0  0  0  0  0
  139.6110   78.4640  222.8860 C   0  0  0  0  0  0  0  0  0  0  0  0
  139.6540   79.6220  223.6780 C   0  0  0  0  0  0  0  0  0  0  0  0
  140.8550   80.3250  223.8280 C   0  0  0  0  0  0  0  0  0  0  0  0
  142.0090   79.8870  223.1690 C   0  0  0  0  0  0  0  0  0  0  0  0
  141.9690   78.7420  222.3680 C   0  0  0  0  0  0  0  0  0  0  0  0
  140.7730   78.0190  222.2300 C   0  0  0  0  0  0  0  0  0  0  0  0
  140.7050   76.7980  221.3520 C   0  0  0  0  0  0  0  0  0  0  0  0
  139.9850   73.4990  222.6180 N   0  0  0  0  0  0  0  0  0  0  0  0
  141.0340   71.5200  224.6500 C   0  0  0  0  0  0  0  0  0  0  0  0
  139.1583   69.3462  229.2497 H   0  0  0  0  0  0  0  0  0  0  0  0
  141.1125   70.9005  229.2843 H   0  0  0  0  0  0  0  0  0  0  0  0
  141.9543   71.9011  227.1632 H   0  0  0  0  0  0  0  0  0  0  0  0
  138.0621   68.7613  227.0875 H   0  0  0  0  0  0  0  0  0  0  0  0
  138.3710   68.6179  224.6235 H   0  0  0  0  0  0  0  0  0  0  0  0
  137.8010   70.3322  224.5174 H   0  0  0  0  0  0  0  0  0  0  0  0
  140.3797   69.1528  223.3781 H   0  0  0  0  0  0  0  0  0  0  0  0
  138.9913   69.8310  222.4697 H   0  0  0  0  0  0  0  0  0  0  0  0
  140.3139   70.6327  220.8537 H   0  0  0  0  0  0  0  0  0  0  0  0
  139.9720   71.2810  218.3960 H   0  0  0  0  0  0  0  0  0  0  0  0
  140.6528   72.8395  216.6620 H   0  0  0  0  0  0  0  0  0  0  0  0
  141.1488   74.0220  217.9258 H   0  0  0  0  0  0  0  0  0  0  0  0
  142.4703   71.2858  217.5584 H   0  0  0  0  0  0  0  0  0  0  0  0
  143.0594   72.8207  216.7806 H   0  0  0  0  0  0  0  0  0  0  0  0
  143.0336   72.0674  219.7315 H   0  0  0  0  0  0  0  0  0  0  0  0
  145.0145   71.5055  218.3347 H   0  0  0  0  0  0  0  0  0  0  0  0
  145.1540   73.2500  217.8775 H   0  0  0  0  0  0  0  0  0  0  0  0
  145.7967   71.8726  220.4735 H   0  0  0  0  0  0  0  0  0  0  0  0
  146.6141   73.2593  219.6244 H   0  0  0  0  0  0  0  0  0  0  0  0
  144.3297   73.2731  221.5839 H   0  0  0  0  0  0  0  0  0  0  0  0
  145.7365   74.3953  221.4047 H   0  0  0  0  0  0  0  0  0  0  0  0
  143.6303   75.5172  220.7864 H   0  0  0  0  0  0  0  0  0  0  0  0
  144.7344   75.3198  219.3546 H   0  0  0  0  0  0  0  0  0  0  0  0
  142.1580   74.1060  219.9260 H   0  0  0  0  0  0  0  0  0  0  0  0
  137.6788   75.7072  222.2786 H   0  0  0  0  0  0  0  0  0  0  0  0
  138.7712   75.9187  223.7217 H   0  0  0  0  0  0  0  0  0  0  0  0
  137.9077   78.0140  221.6894 H   0  0  0  0  0  0  0  0  0  0  0  0
  137.6256   77.9813  223.4708 H   0  0  0  0  0  0  0  0  0  0  0  0
  138.7428   79.9775  224.1814 H   0  0  0  0  0  0  0  0  0  0  0  0
  140.8916   81.2218  224.4639 H   0  0  0  0  0  0  0  0  0  0  0  0
  142.9502   80.4451  223.2815 H   0  0  0  0  0  0  0  0  0  0  0  0
  142.8765   78.4066  221.8446 H   0  0  0  0  0  0  0  0  0  0  0  0
  140.3930   77.1014  220.3418 H   0  0  0  0  0  0  0  0  0  0  0  0
  141.7014   76.3324  221.3316 H   0  0  0  0  0  0  0  0  0  0  0  0
  142.0309   71.0959  224.4595 H   0  0  0  0  0  0  0  0  0  0  0  0
  141.0891   72.6101  224.7861 H   0  0  0  0  0  0  0  0  0  0  0  0
  1  2  2  0
  2  3  1  0
  3  4  2  0
  4  5  1  0
  5  6  2  0
  5  7  1  0
  7  8  1  0
  8  9  1  0
  9 10  1  0
 10 11  2  0
 11 12  1  0
 12 13  1  0
 13 14  1  0
 14 15  1  0
 15 16  1  0
 16 17  1  0
 17 18  1  0
 18 19  1  0
 19 20  1  0
 20 21  1  0
 12 22  2  0
 22 23  1  0
 23 24  1  0
 24 25  1  0
 25 26  1  0
 26 27  1  0
 27 28  2  0
 28 29  1  0
 29 30  2  0
 30 31  1  0
 31 32  2  0
 32 33  1  0
 23 34  2  0
  9 35  1  0
  6  1  1  0
 34 10  1  0
 35  4  1  0
 21 16  1  0
 33 24  1  0
 32 27  1  0
  1 36  1  0
  2 37  1  0
  3 38  1  0
  6 39  1  0
  7 40  1  0
  7 41  1  0
  8 42  1  0
  8 43  1  0
 11 44  1  0
 13 45  1  0
 14 46  1  0
 14 47  1  0
 15 48  1  0
 15 49  1  0
 16 50  1  1
 17 51  1  0
 17 52  1  0
 18 53  1  0
 18 54  1  0
 19 55  1  0
 19 56  1  0
 20 57  1  0
 20 58  1  0
 21 59  1  0
 25 60  1  0
 25 61  1  0
 26 62  1  0
 26 63  1  0
 28 64  1  0
 29 65  1  0
 30 66  1  0
 31 67  1  0
 33 68  1  0
 33 69  1  0
 35 70  1  0
 35 71  1  0
M  END
>  <UniqueID>  (39) 
586

>  <SMILES>  (39) 
c1ccc2c(c1)CCN(c1cc(NCC[C@H]3CCCCN3)nc(N3CCc4ccccc4C3)n1)C2

>  <Energy>  (39) 
84.40597876800952

>  <Genealogy>  (39) 
c1ccc2c(c1)CCN(c1cc(NCC[C@H]3CCCCN3)nc(N3CCc4ccccc4C3)n1)C2 (chirality)
c1ccc2c(c1)CCN(c1cc(NCC[C@H]3CCCCN3)nc(N3CCc4ccccc4C3)n1)C2 (3D coordinates assigned)
c1ccc2c(c1)CCN(c1cc(NCC[C@H]3CCCCN3)nc(N3CCc4ccccc4C3)n1)C2 (nonaromatic ring conformer: 84.40597876800952 kcal/mol)

>  <smiles>  (39) 
c1ccc2c(c1)CCN(c1cc(NCCC3CCCCN3)nc(N3CCc4ccccc4C3)n1)C2

>  <score_type>  (39) 
oracle

>  <origin>  (39) 
autodockgpu

>  <m_score__min__energy>  (39) 
-10.380000000000001

>  <m_primary>  (39) 
energy

>  <meeko>  (39) 
{"free_energy": -9.03, "intermolecular_energy": -10.82, "internal_energy": -2.13, "cluster_size": 5, "cluster_id": 5, "rank_in_cluster": 3}

>  <energy>  (39) 
-8.81

>  <cluster_rmsd>  (39) 
0.51

>  <rmsd>  (39) 
269.43

>  <cluster>  (39) 
5

$$$$
VOUYAFWJUZHTKY-RNPWZEQVNA-N
     RDKit          3D

 71 76  0  0  0  0  0  0  0  0999 V2000
  139.3950   69.6390  227.8800 C   0  0  0  0  0  0  0  0  0  0  0  0
  140.5180   70.4680  227.9750 C   0  0  0  0  0  0  0  0  0  0  0  0
  141.0440   71.0720  226.8310 C   0  0  0  0  0  0  0  0  0  0  0  0
  140.4510   70.8560  225.5790 C   0  0  0  0  0  0  0  0  0  0  0  0
  139.3330   69.9910  225.4760 C   0  0  0  0  0  0  0  0  0  0  0  0
  138.8040   69.3990  226.6390 C   0  0  0  0  0  0  0  0  0  0  0  0
  138.6430   69.7590  224.1540 C   0  0  0  0  0  0  0  0  0  0  0  0
  139.5890   70.0190  222.9820 C   0  0  0  0  0  0  0  0  0  0  0  0
  140.2270   71.3250  223.1680 N   0  0  0  0  0  0  0  0  0  0  0  0
  140.2650   72.3020  222.1100 C   0  0  0  0  0  0  0  0  0  0  0  0
  140.4140   71.9110  220.7740 C   0  0  0  0  0  0  0  0  0  0  0  0
  140.4480   72.9000  219.7790 C   0  0  0  0  0  0  0  0  0  0  0  0
  140.6110   72.5700  218.3910 N   0  0  0  0  0  0  0  0  0  0  0  0
  141.9180   72.3510  217.7660 C   0  0  0  0  0  0  0  0  0  0  0  0
  142.7660   71.4070  218.6350 C   0  0  0  0  0  0  0  0  0  0  0  0
  143.6390   72.1670  219.6500 C   0  0  1  0  0  0  0  0  0  0  0  0
  145.1310   71.9910  219.2950 C   0  0  0  0  0  0  0  0  0  0  0  0
  146.0360   72.6800  220.3350 C   0  0  0  0  0  0  0  0  0  0  0  0
  145.3480   73.8760  221.0160 C   0  0  0  0  0  0  0  0  0  0  0  0
  144.3220   74.5300  220.0820 C   0  0  0  0  0  0  0  0  0  0  0  0
  143.2460   73.5970  219.6830 N   0  0  0  0  0  0  0  0  0  0  0  0
  140.3110   74.2050  220.1350 N   0  0  0  0  0  0  0  0  0  0  0  0
  140.1280   74.5780  221.4300 C   0  0  0  0  0  0  0  0  0  0  0  0
  139.9270   75.9680  221.7660 N   0  0  0  0  0  0  0  0  0  0  0  0
  138.8080   76.3240  222.6630 C   0  0  0  0  0  0  0  0  0  0  0  0
  138.5430   77.8340  222.7160 C   0  0  0  0  0  0  0  0  0  0  0  0
  139.8280   78.5860  222.8770 C   0  0  0  0  0  0  0  0  0  0  0  0
  139.9080   79.7180  223.7040 C   0  0  0  0  0  0  0  0  0  0  0  0
  141.1060   80.4350  223.7980 C   0  0  0  0  0  0  0  0  0  0  0  0
  142.2180   80.0390  223.0460 C   0  0  0  0  0  0  0  0  0  0  0  0
  142.1410   78.9210  222.2110 C   0  0  0  0  0  0  0  0  0  0  0  0
  140.9480   78.1830  222.1290 C   0  0  0  0  0  0  0  0  0  0  0  0
  140.8380   76.9930  221.2160 C   0  0  0  0  0  0  0  0  0  0  0  0
  140.1090   73.6230  222.4010 N   0  0  0  0  0  0  0  0  0  0  0  0
  141.0660   71.5040  224.3580 C   0  0  0  0  0  0  0  0  0  0  0  0
  138.9770   69.1753  228.7857 H   0  0  0  0  0  0  0  0  0  0  0  0
  140.9880   70.6446  228.9537 H   0  0  0  0  0  0  0  0  0  0  0  0
  141.9285   71.7208  226.9126 H   0  0  0  0  0  0  0  0  0  0  0  0
  137.9221   68.7453  226.5690 H   0  0  0  0  0  0  0  0  0  0  0  0
  138.2949   68.7165  224.1093 H   0  0  0  0  0  0  0  0  0  0  0  0
  137.7950   70.4554  224.0775 H   0  0  0  0  0  0  0  0  0  0  0  0
  140.3585   69.2337  222.9473 H   0  0  0  0  0  0  0  0  0  0  0  0
  139.0241   70.0111  222.0381 H   0  0  0  0  0  0  0  0  0  0  0  0
  140.5029   70.8471  220.5089 H   0  0  0  0  0  0  0  0  0  0  0  0
  139.7710   72.2310  217.8680 H   0  0  0  0  0  0  0  0  0  0  0  0
  141.7756   71.9015  216.7722 H   0  0  0  0  0  0  0  0  0  0  0  0
  142.4375   73.3157  217.6686 H   0  0  0  0  0  0  0  0  0  0  0  0
  142.0926   70.7324  219.1840 H   0  0  0  0  0  0  0  0  0  0  0  0
  143.4384   70.8499  217.9661 H   0  0  0  0  0  0  0  0  0  0  0  0
  143.4828   71.7531  220.6571 H   0  0  0  0  0  0  0  0  0  0  0  0
  145.3691   70.9174  219.2672 H   0  0  0  0  0  0  0  0  0  0  0  0
  145.3127   72.4539  218.3138 H   0  0  0  0  0  0  0  0  0  0  0  0
  146.3099   71.9449  221.1061 H   0  0  0  0  0  0  0  0  0  0  0  0
  146.9219   73.0613  219.8061 H   0  0  0  0  0  0  0  0  0  0  0  0
  144.8350   73.5258  221.9239 H   0  0  0  0  0  0  0  0  0  0  0  0
  146.1155   74.6225  221.2683 H   0  0  0  0  0  0  0  0  0  0  0  0
  143.8704   75.3890  220.5998 H   0  0  0  0  0  0  0  0  0  0  0  0
  144.8508   74.8414  219.1691 H   0  0  0  0  0  0  0  0  0  0  0  0
  142.4550   73.7060  220.3550 H   0  0  0  0  0  0  0  0  0  0  0  0
  137.8978   75.8202  222.3057 H   0  0  0  0  0  0  0  0  0  0  0  0
  139.0828   76.0011  223.6780 H   0  0  0  0  0  0  0  0  0  0  0  0
  138.0537   78.1488  221.7824 H   0  0  0  0  0  0  0  0  0  0  0  0
  137.8930   78.0514  223.5764 H   0  0  0  0  0  0  0  0  0  0  0  0
  139.0277   80.0416  224.2787 H   0  0  0  0  0  0  0  0  0  0  0  0
  141.1737   81.3091  224.4624 H   0  0  0  0  0  0  0  0  0  0  0  0
  143.1560   80.6098  223.1125 H   0  0  0  0  0  0  0  0  0  0  0  0
  143.0158   78.6182  221.6169 H   0  0  0  0  0  0  0  0  0  0  0  0
  140.4537   77.3258  220.2405 H   0  0  0  0  0  0  0  0  0  0  0  0
  141.8374   76.5452  221.1124 H   0  0  0  0  0  0  0  0  0  0  0  0
  142.0506   71.0504  224.1715 H   0  0  0  0  0  0  0  0  0  0  0  0
  141.1593   72.5826  224.5526 H   0  0  0  0  0  0  0  0  0  0  0  0
  1  2  2  0
  2  3  1  0
  3  4  2  0
  4  5  1  0
  5  6  2  0
  5  7  1  0
  7  8  1  0
  8  9  1  0
  9 10  1  0
 10 11  2  0
 11 12  1  0
 12 13  1  0
 13 14  1  0
 14 15  1  0
 15 16  1  0
 16 17  1  0
 17 18  1  0
 18 19  1  0
 19 20  1  0
 20 21  1  0
 12 22  2  0
 22 23  1  0
 23 24  1  0
 24 25  1  0
 25 26  1  0
 26 27  1  0
 27 28  2  0
 28 29  1  0
 29 30  2  0
 30 31  1  0
 31 32  2  0
 32 33  1  0
 23 34  2  0
  9 35  1  0
  6  1  1  0
 34 10  1  0
 35  4  1  0
 21 16  1  0
 33 24  1  0
 32 27  1  0
  1 36  1  0
  2 37  1  0
  3 38  1  0
  6 39  1  0
  7 40  1  0
  7 41  1  0
  8 42  1  0
  8 43  1  0
 11 44  1  0
 13 45  1  0
 14 46  1  0
 14 47  1  0
 15 48  1  0
 15 49  1  0
 16 50  1  1
 17 51  1  0
 17 52  1  0
 18 53  1  0
 18 54  1  0
 19 55  1  0
 19 56  1  0
 20 57  1  0
 20 58  1  0
 21 59  1  0
 25 60  1  0
 25 61  1  0
 26 62  1  0
 26 63  1  0
 28 64  1  0
 29 65  1  0
 30 66  1  0
 31 67  1  0
 33 68  1  0
 33 69  1  0
 35 70  1  0
 35 71  1  0
M  END
>  <UniqueID>  (40) 
586

>  <SMILES>  (40) 
c1ccc2c(c1)CCN(c1cc(NCC[C@H]3CCCCN3)nc(N3CCc4ccccc4C3)n1)C2

>  <Energy>  (40) 
84.40597876800952

>  <Genealogy>  (40) 
c1ccc2c(c1)CCN(c1cc(NCC[C@H]3CCCCN3)nc(N3CCc4ccccc4C3)n1)C2 (chirality)
c1ccc2c(c1)CCN(c1cc(NCC[C@H]3CCCCN3)nc(N3CCc4ccccc4C3)n1)C2 (3D coordinates assigned)
c1ccc2c(c1)CCN(c1cc(NCC[C@H]3CCCCN3)nc(N3CCc4ccccc4C3)n1)C2 (nonaromatic ring conformer: 84.40597876800952 kcal/mol)

>  <smiles>  (40) 
c1ccc2c(c1)CCN(c1cc(NCCC3CCCCN3)nc(N3CCc4ccccc4C3)n1)C2

>  <score_type>  (40) 
oracle

>  <origin>  (40) 
autodockgpu

>  <m_score__min__energy>  (40) 
-10.380000000000001

>  <m_primary>  (40) 
energy

>  <meeko>  (40) 
{"free_energy": -9.18, "intermolecular_energy": -10.97, "internal_energy": -1.98, "cluster_size": 8, "cluster_id": 1, "rank_in_cluster": 7}

>  <energy>  (40) 
-8.73

>  <cluster_rmsd>  (40) 
0.0

>  <rmsd>  (40) 
269.35

>  <cluster>  (40) 
6

$$$$
VOUYAFWJUZHTKY-RNPWZEQVNA-N
     RDKit          3D

 71 76  0  0  0  0  0  0  0  0999 V2000
  140.2000   68.3320  226.5610 C   0  0  0  0  0  0  0  0  0  0  0  0
  141.0120   69.4160  226.9120 C   0  0  0  0  0  0  0  0  0  0  0  0
  141.0820   70.5380  226.0830 C   0  0  0  0  0  0  0  0  0  0  0  0
  140.3390   70.5900  224.8950 C   0  0  0  0  0  0  0  0  0  0  0  0
  139.5420   69.4810  224.5220 C   0  0  0  0  0  0  0  0  0  0  0  0
  139.4680   68.3610  225.3720 C   0  0  0  0  0  0  0  0  0  0  0  0
  138.6990   69.5090  223.2700 C   0  0  0  0  0  0  0  0  0  0  0  0
  139.2590   70.4970  222.2470 C   0  0  0  0  0  0  0  0  0  0  0  0
  139.4950   71.7830  222.9090 N   0  0  0  0  0  0  0  0  0  0  0  0
  139.0160   73.0190  222.3440 C   0  0  0  0  0  0  0  0  0  0  0  0
  137.6670   73.1800  222.0050 C   0  0  0  0  0  0  0  0  0  0  0  0
  137.2490   74.4020  221.4550 C   0  0  0  0  0  0  0  0  0  0  0  0
  135.8840   74.6310  221.0740 N   0  0  0  0  0  0  0  0  0  0  0  0
  134.9220   75.3410  221.9220 C   0  0  0  0  0  0  0  0  0  0  0  0
  135.5940   75.7670  223.2380 C   0  0  0  0  0  0  0  0  0  0  0  0
  135.1360   74.9130  224.4350 C   0  0  1  0  0  0  0  0  0  0  0  0
  133.6080   75.0380  224.6140 C   0  0  0  0  0  0  0  0  0  0  0  0
  133.1270   74.2530  225.8500 C   0  0  0  0  0  0  0  0  0  0  0  0
  134.0350   73.0550  226.1800 C   0  0  0  0  0  0  0  0  0  0  0  0
  134.7010   72.5010  224.9130 C   0  0  0  0  0  0  0  0  0  0  0  0
  135.5530   73.5030  224.2390 N   0  0  0  0  0  0  0  0  0  0  0  0
  138.1570   75.4000  221.2890 N   0  0  0  0  0  0  0  0  0  0  0  0
  139.4580   75.2520  221.6540 C   0  0  0  0  0  0  0  0  0  0  0  0
  140.3820   76.3530  221.5170 N   0  0  0  0  0  0  0  0  0  0  0  0
  140.6040   76.9270  220.1740 C   0  0  0  0  0  0  0  0  0  0  0  0
  141.7960   77.8920  220.1260 C   0  0  0  0  0  0  0  0  0  0  0  0
  141.7520   78.8380  221.2860 C   0  0  0  0  0  0  0  0  0  0  0  0
  142.1060   80.1880  221.1360 C   0  0  0  0  0  0  0  0  0  0  0  0
  142.1080   81.0400  222.2460 C   0  0  0  0  0  0  0  0  0  0  0  0
  141.7810   80.5410  223.5110 C   0  0  0  0  0  0  0  0  0  0  0  0
  141.4400   79.1950  223.6690 C   0  0  0  0  0  0  0  0  0  0  0  0
  141.4150   78.3380  222.5560 C   0  0  0  0  0  0  0  0  0  0  0  0
  141.0760   76.8800  222.7110 C   0  0  0  0  0  0  0  0  0  0  0  0
  139.8720   74.0640  222.1750 N   0  0  0  0  0  0  0  0  0  0  0  0
  140.4650   71.8100  224.0090 C   0  0  0  0  0  0  0  0  0  0  0  0
  140.1381   67.4554  227.2227 H   0  0  0  0  0  0  0  0  0  0  0  0
  141.5967   69.3846  227.8432 H   0  0  0  0  0  0  0  0  0  0  0  0
  141.7239   71.3860  226.3638 H   0  0  0  0  0  0  0  0  0  0  0  0
  138.8318   67.5063  225.0987 H   0  0  0  0  0  0  0  0  0  0  0  0
  138.6835   68.5029  222.8256 H   0  0  0  0  0  0  0  0  0  0  0  0
  137.6825   69.8291  223.5423 H   0  0  0  0  0  0  0  0  0  0  0  0
  140.2059   70.1114  221.8411 H   0  0  0  0  0  0  0  0  0  0  0  0
  138.5414   70.6278  221.4236 H   0  0  0  0  0  0  0  0  0  0  0  0
  136.9478   72.3636  222.1668 H   0  0  0  0  0  0  0  0  0  0  0  0
  135.6320   74.5130  220.0660 H   0  0  0  0  0  0  0  0  0  0  0  0
  134.5596   76.2344  221.3923 H   0  0  0  0  0  0  0  0  0  0  0  0
  134.0780   74.6727  222.1477 H   0  0  0  0  0  0  0  0  0  0  0  0
  136.6836   75.6646  223.1275 H   0  0  0  0  0  0  0  0  0  0  0  0
  135.3052   76.8091  223.4398 H   0  0  0  0  0  0  0  0  0  0  0  0
  135.6136   75.2787  225.3560 H   0  0  0  0  0  0  0  0  0  0  0  0
  133.3467   76.0992  224.7386 H   0  0  0  0  0  0  0  0  0  0  0  0
  133.1170   74.6204  223.7226 H   0  0  0  0  0  0  0  0  0  0  0  0
  133.1118   74.9324  226.7150 H   0  0  0  0  0  0  0  0  0  0  0  0
  132.1245   73.8596  225.6257 H   0  0  0  0  0  0  0  0  0  0  0  0
  134.8157   73.3791  226.8839 H   0  0  0  0  0  0  0  0  0  0  0  0
  133.4178   72.2612  226.6259 H   0  0  0  0  0  0  0  0  0  0  0  0
  135.3234   71.6374  225.1901 H   0  0  0  0  0  0  0  0  0  0  0  0
  133.9025   72.2149  224.2126 H   0  0  0  0  0  0  0  0  0  0  0  0
  136.5280   73.3960  224.5970 H   0  0  0  0  0  0  0  0  0  0  0  0
  140.7896   76.1047  219.4673 H   0  0  0  0  0  0  0  0  0  0  0  0
  139.7041   77.5009  219.9077 H   0  0  0  0  0  0  0  0  0  0  0  0
  142.7313   77.3143  220.1653 H   0  0  0  0  0  0  0  0  0  0  0  0
  141.7472   78.4715  219.1923 H   0  0  0  0  0  0  0  0  0  0  0  0
  142.3822   80.5766  220.1447 H   0  0  0  0  0  0  0  0  0  0  0  0
  142.3667   82.1021  222.1237 H   0  0  0  0  0  0  0  0  0  0  0  0
  141.7923   81.2100  224.3841 H   0  0  0  0  0  0  0  0  0  0  0  0
  141.1906   78.8056  224.6671 H   0  0  0  0  0  0  0  0  0  0  0  0
  142.0053   76.3117  222.8637 H   0  0  0  0  0  0  0  0  0  0  0  0
  140.4037   76.7729  223.5751 H   0  0  0  0  0  0  0  0  0  0  0  0
  141.4808   71.8417  223.5881 H   0  0  0  0  0  0  0  0  0  0  0  0
  140.2646   72.7014  224.6216 H   0  0  0  0  0  0  0  0  0  0  0  0
  1  2  2  0
  2  3  1  0
  3  4  2  0
  4  5  1  0
  5  6  2  0
  5  7  1  0
  7  8  1  0
  8  9  1  0
  9 10  1  0
 10 11  2  0
 11 12  1  0
 12 13  1  0
 13 14  1  0
 14 15  1  0
 15 16  1  0
 16 17  1  0
 17 18  1  0
 18 19  1  0
 19 20  1  0
 20 21  1  0
 12 22  2  0
 22 23  1  0
 23 24  1  0
 24 25  1  0
 25 26  1  0
 26 27  1  0
 27 28  2  0
 28 29  1  0
 29 30  2  0
 30 31  1  0
 31 32  2  0
 32 33  1  0
 23 34  2  0
  9 35  1  0
  6  1  1  0
 34 10  1  0
 35  4  1  0
 21 16  1  0
 33 24  1  0
 32 27  1  0
  1 36  1  0
  2 37  1  0
  3 38  1  0
  6 39  1  0
  7 40  1  0
  7 41  1  0
  8 42  1  0
  8 43  1  0
 11 44  1  0
 13 45  1  0
 14 46  1  0
 14 47  1  0
 15 48  1  0
 15 49  1  0
 16 50  1  1
 17 51  1  0
 17 52  1  0
 18 53  1  0
 18 54  1  0
 19 55  1  0
 19 56  1  0
 20 57  1  0
 20 58  1  0
 21 59  1  0
 25 60  1  0
 25 61  1  0
 26 62  1  0
 26 63  1  0
 28 64  1  0
 29 65  1  0
 30 66  1  0
 31 67  1  0
 33 68  1  0
 33 69  1  0
 35 70  1  0
 35 71  1  0
M  END
>  <UniqueID>  (41) 
587

>  <SMILES>  (41) 
c1ccc2c(c1)CCN(c1cc(NCC[C@H]3CCCCN3)nc(N3CCc4ccccc4C3)n1)C2

>  <Energy>  (41) 
84.83726583118538

>  <Genealogy>  (41) 
c1ccc2c(c1)CCN(c1cc(NCC[C@H]3CCCCN3)nc(N3CCc4ccccc4C3)n1)C2 (chirality)
c1ccc2c(c1)CCN(c1cc(NCC[C@H]3CCCCN3)nc(N3CCc4ccccc4C3)n1)C2 (3D coordinates assigned)
c1ccc2c(c1)CCN(c1cc(NCC[C@H]3CCCCN3)nc(N3CCc4ccccc4C3)n1)C2 (nonaromatic ring conformer: 84.83726583118538 kcal/mol)

>  <smiles>  (41) 
c1ccc2c(c1)CCN(c1cc(NCCC3CCCCN3)nc(N3CCc4ccccc4C3)n1)C2

>  <score_type>  (41) 
oracle

>  <origin>  (41) 
autodockgpu

>  <m_score__min__energy>  (41) 
-10.380000000000001

>  <m_primary>  (41) 
energy

>  <meeko>  (41) 
{"free_energy": -9.44, "intermolecular_energy": -11.23, "internal_energy": -1.35, "cluster_size": 3, "cluster_id": 4, "rank_in_cluster": 1}

>  <energy>  (41) 
-10.38

>  <cluster_rmsd>  (41) 
0.0

>  <rmsd>  (41) 
269.43

>  <cluster>  (41) 
1

$$$$
VOUYAFWJUZHTKY-RNPWZEQVNA-N
     RDKit          3D

 71 76  0  0  0  0  0  0  0  0999 V2000
  142.0980   81.3230  222.4000 C   0  0  0  0  0  0  0  0  0  0  0  0
  141.4640   80.8530  223.5550 C   0  0  0  0  0  0  0  0  0  0  0  0
  140.9320   79.5620  223.5880 C   0  0  0  0  0  0  0  0  0  0  0  0
  141.0310   78.7250  222.4680 C   0  0  0  0  0  0  0  0  0  0  0  0
  141.6440   79.2100  221.2870 C   0  0  0  0  0  0  0  0  0  0  0  0
  142.1880   80.5090  221.2700 C   0  0  0  0  0  0  0  0  0  0  0  0
  141.8030   78.3310  220.0710 C   0  0  0  0  0  0  0  0  0  0  0  0
  140.7590   77.2150  220.0530 C   0  0  0  0  0  0  0  0  0  0  0  0
  140.7630   76.5410  221.3550 N   0  0  0  0  0  0  0  0  0  0  0  0
  140.8300   75.1050  221.4590 C   0  0  0  0  0  0  0  0  0  0  0  0
  139.8520   74.3880  222.1580 C   0  0  0  0  0  0  0  0  0  0  0  0
  139.9630   72.9910  222.2330 C   0  0  0  0  0  0  0  0  0  0  0  0
  139.0030   72.1940  222.9440 N   0  0  0  0  0  0  0  0  0  0  0  0
  139.3630   71.0000  223.7140 C   0  0  0  0  0  0  0  0  0  0  0  0
  140.5050   71.3260  224.6900 C   0  0  0  0  0  0  0  0  0  0  0  0
  140.7980   70.1680  225.6620 C   0  0  1  0  0  0  0  0  0  0  0  0
  140.6580   70.6580  227.1190 C   0  0  0  0  0  0  0  0  0  0  0  0
  141.0160   69.5420  228.1180 C   0  0  0  0  0  0  0  0  0  0  0  0
  140.7530   68.1350  227.5520 C   0  0  0  0  0  0  0  0  0  0  0  0
  139.6060   68.1550  226.5340 C   0  0  0  0  0  0  0  0  0  0  0  0
  139.8920   69.0280  225.3760 N   0  0  0  0  0  0  0  0  0  0  0  0
  140.9990   72.3730  221.6080 N   0  0  0  0  0  0  0  0  0  0  0  0
  141.9250   73.0700  220.8970 C   0  0  0  0  0  0  0  0  0  0  0  0
  142.9800   72.3750  220.1970 N   0  0  0  0  0  0  0  0  0  0  0  0
  144.3120   73.0100  220.1160 C   0  0  0  0  0  0  0  0  0  0  0  0
  145.2490   72.3070  219.1240 C   0  0  0  0  0  0  0  0  0  0  0  0
  145.1970   70.8230  219.3160 C   0  0  0  0  0  0  0  0  0  0  0  0
  146.3580   70.0380  219.2220 C   0  0  0  0  0  0  0  0  0  0  0  0
  146.2760   68.6470  219.3540 C   0  0  0  0  0  0  0  0  0  0  0  0
  145.0340   68.0360  219.5550 C   0  0  0  0  0  0  0  0  0  0  0  0
  143.8730   68.8110  219.6360 C   0  0  0  0  0  0  0  0  0  0  0  0
  143.9500   70.2090  219.5270 C   0  0  0  0  0  0  0  0  0  0  0  0
  142.7090   71.0570  219.5870 C   0  0  0  0  0  0  0  0  0  0  0  0
  141.8300   74.4270  220.8330 N   0  0  0  0  0  0  0  0  0  0  0  0
  140.4160   77.3440  222.5330 C   0  0  0  0  0  0  0  0  0  0  0  0
  142.5264   82.3360  222.3824 H   0  0  0  0  0  0  0  0  0  0  0  0
  141.3842   81.5019  224.4396 H   0  0  0  0  0  0  0  0  0  0  0  0
  140.4322   79.1999  224.4985 H   0  0  0  0  0  0  0  0  0  0  0  0
  142.6855   80.8832  220.3631 H   0  0  0  0  0  0  0  0  0  0  0  0
  141.6860   78.9459  219.1665 H   0  0  0  0  0  0  0  0  0  0  0  0
  142.8020   77.8718  220.1025 H   0  0  0  0  0  0  0  0  0  0  0  0
  139.7639   77.6431  219.8617 H   0  0  0  0  0  0  0  0  0  0  0  0
  140.9985   76.4930  219.2584 H   0  0  0  0  0  0  0  0  0  0  0  0
  139.0120   74.9099  222.6397 H   0  0  0  0  0  0  0  0  0  0  0  0
  138.0620   72.6130  223.1280 H   0  0  0  0  0  0  0  0  0  0  0  0
  138.4863   70.6551  224.2818 H   0  0  0  0  0  0  0  0  0  0  0  0
  139.6944   70.2116  223.0222 H   0  0  0  0  0  0  0  0  0  0  0  0
  141.4151   71.5386  224.1099 H   0  0  0  0  0  0  0  0  0  0  0  0
  140.1952   72.1951  225.2889 H   0  0  0  0  0  0  0  0  0  0  0  0
  141.8318   69.8187  225.5228 H   0  0  0  0  0  0  0  0  0  0  0  0
  141.3336   71.5116  227.2771 H   0  0  0  0  0  0  0  0  0  0  0  0
  139.6124   70.9549  227.2880 H   0  0  0  0  0  0  0  0  0  0  0  0
  142.0829   69.6257  228.3725 H   0  0  0  0  0  0  0  0  0  0  0  0
  140.3767   69.6699  229.0039 H   0  0  0  0  0  0  0  0  0  0  0  0
  141.6656   67.7701  227.0579 H   0  0  0  0  0  0  0  0  0  0  0  0
  140.4714   67.4712  228.3827 H   0  0  0  0  0  0  0  0  0  0  0  0
  139.4391   67.1303  226.1705 H   0  0  0  0  0  0  0  0  0  0  0  0
  138.7155   68.5542  227.0416 H   0  0  0  0  0  0  0  0  0  0  0  0
  140.3250   68.4450  224.6270 H   0  0  0  0  0  0  0  0  0  0  0  0
  144.1839   74.0551  219.7976 H   0  0  0  0  0  0  0  0  0  0  0  0
  144.7727   72.9394  221.1124 H   0  0  0  0  0  0  0  0  0  0  0  0
  144.9379   72.5504  218.0974 H   0  0  0  0  0  0  0  0  0  0  0  0
  146.2782   72.6529  219.3001 H   0  0  0  0  0  0  0  0  0  0  0  0
  147.3323   70.5168  219.0445 H   0  0  0  0  0  0  0  0  0  0  0  0
  147.1881   68.0345  219.2997 H   0  0  0  0  0  0  0  0  0  0  0  0
  144.9703   66.9419  219.6497 H   0  0  0  0  0  0  0  0  0  0  0  0
  142.8976   68.3248  219.7854 H   0  0  0  0  0  0  0  0  0  0  0  0
  142.3298   71.2076  218.5655 H   0  0  0  0  0  0  0  0  0  0  0  0
  141.9661   70.5362  220.2090 H   0  0  0  0  0  0  0  0  0  0  0  0
  139.3218   77.4429  222.5876 H   0  0  0  0  0  0  0  0  0  0  0  0
  140.8099   76.8341  223.4245 H   0  0  0  0  0  0  0  0  0  0  0  0
  1  2  2  0
  2  3  1  0
  3  4  2  0
  4  5  1  0
  5  6  2  0
  5  7  1  0
  7  8  1  0
  8  9  1  0
  9 10  1  0
 10 11  2  0
 11 12  1  0
 12 13  1  0
 13 14  1  0
 14 15  1  0
 15 16  1  0
 16 17  1  0
 17 18  1  0
 18 19  1  0
 19 20  1  0
 20 21  1  0
 12 22  2  0
 22 23  1  0
 23 24  1  0
 24 25  1  0
 25 26  1  0
 26 27  1  0
 27 28  2  0
 28 29  1  0
 29 30  2  0
 30 31  1  0
 31 32  2  0
 32 33  1  0
 23 34  2  0
  9 35  1  0
  6  1  1  0
 34 10  1  0
 35  4  1  0
 21 16  1  0
 33 24  1  0
 32 27  1  0
  1 36  1  0
  2 37  1  0
  3 38  1  0
  6 39  1  0
  7 40  1  0
  7 41  1  0
  8 42  1  0
  8 43  1  0
 11 44  1  0
 13 45  1  0
 14 46  1  0
 14 47  1  0
 15 48  1  0
 15 49  1  0
 16 50  1  1
 17 51  1  0
 17 52  1  0
 18 53  1  0
 18 54  1  0
 19 55  1  0
 19 56  1  0
 20 57  1  0
 20 58  1  0
 21 59  1  0
 25 60  1  0
 25 61  1  0
 26 62  1  0
 26 63  1  0
 28 64  1  0
 29 65  1  0
 30 66  1  0
 31 67  1  0
 33 68  1  0
 33 69  1  0
 35 70  1  0
 35 71  1  0
M  END
>  <UniqueID>  (42) 
587

>  <SMILES>  (42) 
c1ccc2c(c1)CCN(c1cc(NCC[C@H]3CCCCN3)nc(N3CCc4ccccc4C3)n1)C2

>  <Energy>  (42) 
84.83726583118538

>  <Genealogy>  (42) 
c1ccc2c(c1)CCN(c1cc(NCC[C@H]3CCCCN3)nc(N3CCc4ccccc4C3)n1)C2 (chirality)
c1ccc2c(c1)CCN(c1cc(NCC[C@H]3CCCCN3)nc(N3CCc4ccccc4C3)n1)C2 (3D coordinates assigned)
c1ccc2c(c1)CCN(c1cc(NCC[C@H]3CCCCN3)nc(N3CCc4ccccc4C3)n1)C2 (nonaromatic ring conformer: 84.83726583118538 kcal/mol)

>  <smiles>  (42) 
c1ccc2c(c1)CCN(c1cc(NCCC3CCCCN3)nc(N3CCc4ccccc4C3)n1)C2

>  <score_type>  (42) 
oracle

>  <origin>  (42) 
autodockgpu

>  <m_score__min__energy>  (42) 
-10.380000000000001

>  <m_primary>  (42) 
energy

>  <meeko>  (42) 
{"free_energy": -10.06, "intermolecular_energy": -11.85, "internal_energy": -0.96, "cluster_size": 2, "cluster_id": 2, "rank_in_cluster": 1}

>  <energy>  (42) 
-9.8

>  <cluster_rmsd>  (42) 
0.96

>  <rmsd>  (42) 
269.41

>  <cluster>  (42) 
1

$$$$
VOUYAFWJUZHTKY-RNPWZEQVNA-N
     RDKit          3D

 71 76  0  0  0  0  0  0  0  0999 V2000
  139.5930   69.7190  228.3210 C   0  0  0  0  0  0  0  0  0  0  0  0
  140.6450   70.6410  228.3300 C   0  0  0  0  0  0  0  0  0  0  0  0
  141.0810   71.2210  227.1360 C   0  0  0  0  0  0  0  0  0  0  0  0
  140.4670   70.8890  225.9210 C   0  0  0  0  0  0  0  0  0  0  0  0
  139.4230   69.9320  225.9050 C   0  0  0  0  0  0  0  0  0  0  0  0
  138.9830   69.3640  227.1160 C   0  0  0  0  0  0  0  0  0  0  0  0
  138.7110   69.5720  224.6240 C   0  0  0  0  0  0  0  0  0  0  0  0
  139.5930   69.8430  223.4050 C   0  0  0  0  0  0  0  0  0  0  0  0
  140.1270   71.2040  223.4990 N   0  0  0  0  0  0  0  0  0  0  0  0
  140.0480   72.1210  222.3900 C   0  0  0  0  0  0  0  0  0  0  0  0
  140.0390   71.6550  221.0700 C   0  0  0  0  0  0  0  0  0  0  0  0
  139.9640   72.5880  220.0240 C   0  0  0  0  0  0  0  0  0  0  0  0
  139.9620   72.1800  218.6470 N   0  0  0  0  0  0  0  0  0  0  0  0
  141.1830   71.8470  217.9070 C   0  0  0  0  0  0  0  0  0  0  0  0
  142.2570   71.3170  218.8720 C   0  0  0  0  0  0  0  0  0  0  0  0
  142.9680   72.4480  219.6380 C   0  0  1  0  0  0  0  0  0  0  0  0
  144.4850   72.1690  219.6960 C   0  0  0  0  0  0  0  0  0  0  0  0
  145.2180   73.2450  220.5190 C   0  0  0  0  0  0  0  0  0  0  0  0
  144.4950   74.6040  220.4930 C   0  0  0  0  0  0  0  0  0  0  0  0
  143.7130   74.7880  219.1860 C   0  0  0  0  0  0  0  0  0  0  0  0
  142.6740   73.7540  218.9980 N   0  0  0  0  0  0  0  0  0  0  0  0
  139.8790   73.9110  220.3200 N   0  0  0  0  0  0  0  0  0  0  0  0
  139.8500   74.3580  221.6040 C   0  0  0  0  0  0  0  0  0  0  0  0
  139.6990   75.7670  221.8820 N   0  0  0  0  0  0  0  0  0  0  0  0
  138.5520   76.2060  222.7030 C   0  0  0  0  0  0  0  0  0  0  0  0
  138.3590   77.7290  222.6920 C   0  0  0  0  0  0  0  0  0  0  0  0
  139.6680   78.4250  222.8990 C   0  0  0  0  0  0  0  0  0  0  0  0
  139.7580   79.5800  223.6920 C   0  0  0  0  0  0  0  0  0  0  0  0
  140.9830   80.2430  223.8280 C   0  0  0  0  0  0  0  0  0  0  0  0
  142.1140   79.7690  223.1530 C   0  0  0  0  0  0  0  0  0  0  0  0
  142.0270   78.6270  222.3520 C   0  0  0  0  0  0  0  0  0  0  0  0
  140.8060   77.9430  222.2280 C   0  0  0  0  0  0  0  0  0  0  0  0
  140.6870   76.7270  221.3500 C   0  0  0  0  0  0  0  0  0  0  0  0
  139.9370   73.4580  222.6220 N   0  0  0  0  0  0  0  0  0  0  0  0
  140.9860   71.5160  224.6460 C   0  0  0  0  0  0  0  0  0  0  0  0
  139.2457   69.2729  229.2646 H   0  0  0  0  0  0  0  0  0  0  0  0
  141.1303   70.9101  229.2798 H   0  0  0  0  0  0  0  0  0  0  0  0
  141.9112   71.9425  227.1499 H   0  0  0  0  0  0  0  0  0  0  0  0
  138.1562   68.6384  227.1128 H   0  0  0  0  0  0  0  0  0  0  0  0
  138.4495   68.5038  224.6471 H   0  0  0  0  0  0  0  0  0  0  0  0
  137.8058   70.1918  224.5431 H   0  0  0  0  0  0  0  0  0  0  0  0
  140.4230   69.1214  223.3820 H   0  0  0  0  0  0  0  0  0  0  0  0
  138.9995   69.7382  222.4848 H   0  0  0  0  0  0  0  0  0  0  0  0
  140.0898   70.5771  220.8564 H   0  0  0  0  0  0  0  0  0  0  0  0
  139.0540   71.8690  218.2310 H   0  0  0  0  0  0  0  0  0  0  0  0
  140.9550   71.0754  217.1569 H   0  0  0  0  0  0  0  0  0  0  0  0
  141.5609   72.7522  217.4093 H   0  0  0  0  0  0  0  0  0  0  0  0
  141.7778   70.6449  219.5991 H   0  0  0  0  0  0  0  0  0  0  0  0
  143.0145   70.7896  218.2736 H   0  0  0  0  0  0  0  0  0  0  0  0
  142.5935   72.4886  220.6715 H   0  0  0  0  0  0  0  0  0  0  0  0
  144.6516   71.1862  220.1611 H   0  0  0  0  0  0  0  0  0  0  0  0
  144.8816   72.1848  218.6701 H   0  0  0  0  0  0  0  0  0  0  0  0
  145.2888   72.9034  221.5622 H   0  0  0  0  0  0  0  0  0  0  0  0
  146.2124   73.3877  220.0708 H   0  0  0  0  0  0  0  0  0  0  0  0
  143.7956   74.6552  221.3405 H   0  0  0  0  0  0  0  0  0  0  0  0
  145.2484   75.4023  220.5650 H   0  0  0  0  0  0  0  0  0  0  0  0
  143.2292   75.7758  219.2004 H   0  0  0  0  0  0  0  0  0  0  0  0
  144.4270   74.6996  218.3539 H   0  0  0  0  0  0  0  0  0  0  0  0
  141.7780   74.1180  219.3910 H   0  0  0  0  0  0  0  0  0  0  0  0
  137.6389   75.7335  222.3119 H   0  0  0  0  0  0  0  0  0  0  0  0
  138.7549   75.9060  223.7417 H   0  0  0  0  0  0  0  0  0  0  0  0
  137.9365   78.0333  221.7230 H   0  0  0  0  0  0  0  0  0  0  0  0
  137.6755   78.0068  223.5079 H   0  0  0  0  0  0  0  0  0  0  0  0
  138.8650   79.9642  224.2068 H   0  0  0  0  0  0  0  0  0  0  0  0
  141.0571   81.1365  224.4653 H   0  0  0  0  0  0  0  0  0  0  0  0
  143.0739   80.2968  223.2533 H   0  0  0  0  0  0  0  0  0  0  0  0
  142.9166   78.2628  221.8173 H   0  0  0  0  0  0  0  0  0  0  0  0
  140.3726   77.0423  220.3442 H   0  0  0  0  0  0  0  0  0  0  0  0
  141.6673   76.2291  221.3171 H   0  0  0  0  0  0  0  0  0  0  0  0
  141.9983   71.1342  224.4474 H   0  0  0  0  0  0  0  0  0  0  0  0
  140.9955   72.6077  224.7801 H   0  0  0  0  0  0  0  0  0  0  0  0
  1  2  2  0
  2  3  1  0
  3  4  2  0
  4  5  1  0
  5  6  2  0
  5  7  1  0
  7  8  1  0
  8  9  1  0
  9 10  1  0
 10 11  2  0
 11 12  1  0
 12 13  1  0
 13 14  1  0
 14 15  1  0
 15 16  1  0
 16 17  1  0
 17 18  1  0
 18 19  1  0
 19 20  1  0
 20 21  1  0
 12 22  2  0
 22 23  1  0
 23 24  1  0
 24 25  1  0
 25 26  1  0
 26 27  1  0
 27 28  2  0
 28 29  1  0
 29 30  2  0
 30 31  1  0
 31 32  2  0
 32 33  1  0
 23 34  2  0
  9 35  1  0
  6  1  1  0
 34 10  1  0
 35  4  1  0
 21 16  1  0
 33 24  1  0
 32 27  1  0
  1 36  1  0
  2 37  1  0
  3 38  1  0
  6 39  1  0
  7 40  1  0
  7 41  1  0
  8 42  1  0
  8 43  1  0
 11 44  1  0
 13 45  1  0
 14 46  1  0
 14 47  1  0
 15 48  1  0
 15 49  1  0
 16 50  1  1
 17 51  1  0
 17 52  1  0
 18 53  1  0
 18 54  1  0
 19 55  1  0
 19 56  1  0
 20 57  1  0
 20 58  1  0
 21 59  1  0
 25 60  1  0
 25 61  1  0
 26 62  1  0
 26 63  1  0
 28 64  1  0
 29 65  1  0
 30 66  1  0
 31 67  1  0
 33 68  1  0
 33 69  1  0
 35 70  1  0
 35 71  1  0
M  END
>  <UniqueID>  (43) 
587

>  <SMILES>  (43) 
c1ccc2c(c1)CCN(c1cc(NCC[C@H]3CCCCN3)nc(N3CCc4ccccc4C3)n1)C2

>  <Energy>  (43) 
84.83726583118538

>  <Genealogy>  (43) 
c1ccc2c(c1)CCN(c1cc(NCC[C@H]3CCCCN3)nc(N3CCc4ccccc4C3)n1)C2 (chirality)
c1ccc2c(c1)CCN(c1cc(NCC[C@H]3CCCCN3)nc(N3CCc4ccccc4C3)n1)C2 (3D coordinates assigned)
c1ccc2c(c1)CCN(c1cc(NCC[C@H]3CCCCN3)nc(N3CCc4ccccc4C3)n1)C2 (nonaromatic ring conformer: 84.83726583118538 kcal/mol)

>  <smiles>  (43) 
c1ccc2c(c1)CCN(c1cc(NCCC3CCCCN3)nc(N3CCc4ccccc4C3)n1)C2

>  <score_type>  (43) 
oracle

>  <origin>  (43) 
autodockgpu

>  <m_score__min__energy>  (43) 
-10.380000000000001

>  <m_primary>  (43) 
energy

>  <meeko>  (43) 
{"free_energy": -9.04, "intermolecular_energy": -10.83, "internal_energy": -2.1, "cluster_size": 5, "cluster_id": 5, "rank_in_cluster": 2}

>  <energy>  (43) 
-9.7

>  <cluster_rmsd>  (43) 
0.84

>  <rmsd>  (43) 
269.32

>  <cluster>  (43) 
1

$$$$
VOUYAFWJUZHTKY-RNPWZEQVNA-N
     RDKit          3D

 71 76  0  0  0  0  0  0  0  0999 V2000
  142.1930   80.9560  222.6440 C   0  0  0  0  0  0  0  0  0  0  0  0
  141.9980   80.2880  223.8570 C   0  0  0  0  0  0  0  0  0  0  0  0
  141.5180   78.9770  223.8680 C   0  0  0  0  0  0  0  0  0  0  0  0
  141.2310   78.3170  222.6650 C   0  0  0  0  0  0  0  0  0  0  0  0
  141.3970   79.0020  221.4360 C   0  0  0  0  0  0  0  0  0  0  0  0
  141.8940   80.3190  221.4380 C   0  0  0  0  0  0  0  0  0  0  0  0
  141.1330   78.3170  220.1170 C   0  0  0  0  0  0  0  0  0  0  0  0
  140.1540   77.1560  220.2820 C   0  0  0  0  0  0  0  0  0  0  0  0
  140.6090   76.3040  221.3840 N   0  0  0  0  0  0  0  0  0  0  0  0
  140.7170   74.8740  221.2350 C   0  0  0  0  0  0  0  0  0  0  0  0
  141.3610   74.3130  220.1260 C   0  0  0  0  0  0  0  0  0  0  0  0
  141.4380   72.9150  220.0240 C   0  0  0  0  0  0  0  0  0  0  0  0
  142.0740   72.2730  218.9080 N   0  0  0  0  0  0  0  0  0  0  0  0
  142.2300   72.9100  217.5980 C   0  0  0  0  0  0  0  0  0  0  0  0
  143.2340   74.0720  217.6930 C   0  0  0  0  0  0  0  0  0  0  0  0
  144.4730   73.7110  218.5340 C   0  0  1  0  0  0  0  0  0  0  0  0
  144.3430   74.3180  219.9470 C   0  0  0  0  0  0  0  0  0  0  0  0
  145.6020   74.0370  220.7910 C   0  0  0  0  0  0  0  0  0  0  0  0
  146.3220   72.7450  220.3660 C   0  0  0  0  0  0  0  0  0  0  0  0
  145.3330   71.7270  219.7830 C   0  0  0  0  0  0  0  0  0  0  0  0
  144.6390   72.2370  218.5810 N   0  0  0  0  0  0  0  0  0  0  0  0
  140.9080   72.1480  221.0130 N   0  0  0  0  0  0  0  0  0  0  0  0
  140.3160   72.6980  222.1070 C   0  0  0  0  0  0  0  0  0  0  0  0
  139.8160   71.8530  223.1660 N   0  0  0  0  0  0  0  0  0  0  0  0
  138.6150   71.0320  222.9060 C   0  0  0  0  0  0  0  0  0  0  0  0
  138.0360   70.4010  224.1800 C   0  0  0  0  0  0  0  0  0  0  0  0
  139.1270   69.7950  225.0070 C   0  0  0  0  0  0  0  0  0  0  0  0
  138.9370   68.5750  225.6770 C   0  0  0  0  0  0  0  0  0  0  0  0
  139.9530   68.0540  226.4860 C   0  0  0  0  0  0  0  0  0  0  0  0
  141.1500   68.7610  226.6470 C   0  0  0  0  0  0  0  0  0  0  0  0
  141.3400   69.9810  225.9920 C   0  0  0  0  0  0  0  0  0  0  0  0
  140.3330   70.5000  225.1610 C   0  0  0  0  0  0  0  0  0  0  0  0
  140.5100   71.8240  224.4690 C   0  0  0  0  0  0  0  0  0  0  0  0
  140.2270   74.0530  222.2030 N   0  0  0  0  0  0  0  0  0  0  0  0
  140.6850   76.9070  222.7190 C   0  0  0  0  0  0  0  0  0  0  0  0
  142.5825   81.9847  222.6399 H   0  0  0  0  0  0  0  0  0  0  0  0
  142.2235   80.7972  224.8056 H   0  0  0  0  0  0  0  0  0  0  0  0
  141.3642   78.4590  224.8261 H   0  0  0  0  0  0  0  0  0  0  0  0
  142.0474   80.8483  220.4860 H   0  0  0  0  0  0  0  0  0  0  0  0
  140.7079   79.0471  219.4126 H   0  0  0  0  0  0  0  0  0  0  0  0
  142.0846   77.9179  219.7359 H   0  0  0  0  0  0  0  0  0  0  0  0
  139.1513   77.5478  220.5080 H   0  0  0  0  0  0  0  0  0  0  0  0
  140.1104   76.5704  219.3519 H   0  0  0  0  0  0  0  0  0  0  0  0
  141.7989   74.9561  219.3484 H   0  0  0  0  0  0  0  0  0  0  0  0
  142.6630   71.4300  219.1010 H   0  0  0  0  0  0  0  0  0  0  0  0
  142.5988   72.1684  216.8741 H   0  0  0  0  0  0  0  0  0  0  0  0
  141.2559   73.3010  217.2688 H   0  0  0  0  0  0  0  0  0  0  0  0
  143.5620   74.3392  216.6776 H   0  0  0  0  0  0  0  0  0  0  0  0
  142.7268   74.9135  218.1876 H   0  0  0  0  0  0  0  0  0  0  0  0
  145.3747   74.1354  218.0682 H   0  0  0  0  0  0  0  0  0  0  0  0
  144.2050   75.4058  219.8592 H   0  0  0  0  0  0  0  0  0  0  0  0
  143.4781   73.8571  220.4465 H   0  0  0  0  0  0  0  0  0  0  0  0
  146.2977   74.8816  220.6783 H   0  0  0  0  0  0  0  0  0  0  0  0
  145.2820   73.9123  221.8360 H   0  0  0  0  0  0  0  0  0  0  0  0
  147.0774   72.9887  219.6044 H   0  0  0  0  0  0  0  0  0  0  0  0
  146.7967   72.3017  221.2537 H   0  0  0  0  0  0  0  0  0  0  0  0
  145.8845   70.8147  219.5116 H   0  0  0  0  0  0  0  0  0  0  0  0
  144.5701   71.5251  220.5493 H   0  0  0  0  0  0  0  0  0  0  0  0
  145.1830   71.9410  217.7410 H   0  0  0  0  0  0  0  0  0  0  0  0
  137.8449   71.6712  222.4496 H   0  0  0  0  0  0  0  0  0  0  0  0
  138.9144   70.2113  222.2376 H   0  0  0  0  0  0  0  0  0  0  0  0
  137.5244   71.1771  224.7681 H   0  0  0  0  0  0  0  0  0  0  0  0
  137.3252   69.6114  223.8948 H   0  0  0  0  0  0  0  0  0  0  0  0
  137.9887   68.0288  225.5656 H   0  0  0  0  0  0  0  0  0  0  0  0
  139.8109   67.0893  226.9951 H   0  0  0  0  0  0  0  0  0  0  0  0
  141.9439   68.3552  227.2912 H   0  0  0  0  0  0  0  0  0  0  0  0
  142.2800   70.5360  226.1274 H   0  0  0  0  0  0  0  0  0  0  0  0
  140.1005   72.6191  225.1094 H   0  0  0  0  0  0  0  0  0  0  0  0
  141.5844   71.9780  224.2902 H   0  0  0  0  0  0  0  0  0  0  0  0
  139.6763   76.9317  223.1571 H   0  0  0  0  0  0  0  0  0  0  0  0
  141.3659   76.2985  223.3322 H   0  0  0  0  0  0  0  0  0  0  0  0
  1  2  2  0
  2  3  1  0
  3  4  2  0
  4  5  1  0
  5  6  2  0
  5  7  1  0
  7  8  1  0
  8  9  1  0
  9 10  1  0
 10 11  2  0
 11 12  1  0
 12 13  1  0
 13 14  1  0
 14 15  1  0
 15 16  1  0
 16 17  1  0
 17 18  1  0
 18 19  1  0
 19 20  1  0
 20 21  1  0
 12 22  2  0
 22 23  1  0
 23 24  1  0
 24 25  1  0
 25 26  1  0
 26 27  1  0
 27 28  2  0
 28 29  1  0
 29 30  2  0
 30 31  1  0
 31 32  2  0
 32 33  1  0
 23 34  2  0
  9 35  1  0
  6  1  1  0
 34 10  1  0
 35  4  1  0
 21 16  1  0
 33 24  1  0
 32 27  1  0
  1 36  1  0
  2 37  1  0
  3 38  1  0
  6 39  1  0
  7 40  1  0
  7 41  1  0
  8 42  1  0
  8 43  1  0
 11 44  1  0
 13 45  1  0
 14 46  1  0
 14 47  1  0
 15 48  1  0
 15 49  1  0
 16 50  1  6
 17 51  1  0
 17 52  1  0
 18 53  1  0
 18 54  1  0
 19 55  1  0
 19 56  1  0
 20 57  1  0
 20 58  1  0
 21 59  1  0
 25 60  1  0
 25 61  1  0
 26 62  1  0
 26 63  1  0
 28 64  1  0
 29 65  1  0
 30 66  1  0
 31 67  1  0
 33 68  1  0
 33 69  1  0
 35 70  1  0
 35 71  1  0
M  END
>  <UniqueID>  (44) 
587

>  <SMILES>  (44) 
c1ccc2c(c1)CCN(c1cc(NCC[C@H]3CCCCN3)nc(N3CCc4ccccc4C3)n1)C2

>  <Energy>  (44) 
84.83726583118538

>  <Genealogy>  (44) 
c1ccc2c(c1)CCN(c1cc(NCC[C@H]3CCCCN3)nc(N3CCc4ccccc4C3)n1)C2 (chirality)
c1ccc2c(c1)CCN(c1cc(NCC[C@H]3CCCCN3)nc(N3CCc4ccccc4C3)n1)C2 (3D coordinates assigned)
c1ccc2c(c1)CCN(c1cc(NCC[C@H]3CCCCN3)nc(N3CCc4ccccc4C3)n1)C2 (nonaromatic ring conformer: 84.83726583118538 kcal/mol)

>  <smiles>  (44) 
c1ccc2c(c1)CCN(c1cc(NCCC3CCCCN3)nc(N3CCc4ccccc4C3)n1)C2

>  <score_type>  (44) 
oracle

>  <origin>  (44) 
autodockgpu

>  <m_score__min__energy>  (44) 
-10.380000000000001

>  <m_primary>  (44) 
energy

>  <meeko>  (44) 
{"free_energy": -9.57, "intermolecular_energy": -11.36, "internal_energy": -1.66, "cluster_size": 8, "cluster_id": 1, "rank_in_cluster": 4}

>  <energy>  (44) 
-9.57

>  <cluster_rmsd>  (44) 
1.67

>  <rmsd>  (44) 
269.5

>  <cluster>  (44) 
1

$$$$
VOUYAFWJUZHTKY-RNPWZEQVNA-N
     RDKit          3D

 71 76  0  0  0  0  0  0  0  0999 V2000
  139.8160   69.7480  228.1220 C   0  0  0  0  0  0  0  0  0  0  0  0
  140.7370   70.8010  228.1100 C   0  0  0  0  0  0  0  0  0  0  0  0
  141.0080   71.4840  226.9220 C   0  0  0  0  0  0  0  0  0  0  0  0
  140.3580   71.1250  225.7340 C   0  0  0  0  0  0  0  0  0  0  0  0
  139.4480   70.0390  225.7360 C   0  0  0  0  0  0  0  0  0  0  0  0
  139.1740   69.3660  226.9420 C   0  0  0  0  0  0  0  0  0  0  0  0
  138.7010   69.6420  224.4870 C   0  0  0  0  0  0  0  0  0  0  0  0
  139.4510   70.0790  223.2290 C   0  0  0  0  0  0  0  0  0  0  0  0
  139.8080   71.4950  223.3580 N   0  0  0  0  0  0  0  0  0  0  0  0
  139.5320   72.4390  222.3050 C   0  0  0  0  0  0  0  0  0  0  0  0
  138.5290   72.1910  221.3610 C   0  0  0  0  0  0  0  0  0  0  0  0
  138.3000   73.1400  220.3530 C   0  0  0  0  0  0  0  0  0  0  0  0
  137.2960   72.9450  219.3450 N   0  0  0  0  0  0  0  0  0  0  0  0
  135.9340   73.4760  219.4560 C   0  0  0  0  0  0  0  0  0  0  0  0
  135.6940   74.0190  220.8740 C   0  0  0  0  0  0  0  0  0  0  0  0
  136.5100   75.2930  221.1630 C   0  0  1  0  0  0  0  0  0  0  0  0
  135.5810   76.5250  221.1530 C   0  0  0  0  0  0  0  0  0  0  0  0
  136.3800   77.8250  221.3660 C   0  0  0  0  0  0  0  0  0  0  0  0
  137.6660   77.6020  222.1810 C   0  0  0  0  0  0  0  0  0  0  0  0
  137.5070   76.4250  223.1520 C   0  0  0  0  0  0  0  0  0  0  0  0
  137.2240   75.1520  222.4560 N   0  0  0  0  0  0  0  0  0  0  0  0
  139.0400   74.2810  220.3340 N   0  0  0  0  0  0  0  0  0  0  0  0
  139.9870   74.5350  221.2760 C   0  0  0  0  0  0  0  0  0  0  0  0
  140.7130   75.7830  221.2600 N   0  0  0  0  0  0  0  0  0  0  0  0
  141.1370   76.3370  219.9570 C   0  0  0  0  0  0  0  0  0  0  0  0
  142.1230   77.5050  220.0970 C   0  0  0  0  0  0  0  0  0  0  0  0
  141.6490   78.4680  221.1400 C   0  0  0  0  0  0  0  0  0  0  0  0
  141.7890   79.8550  220.9660 C   0  0  0  0  0  0  0  0  0  0  0  0
  141.3860   80.7330  221.9780 C   0  0  0  0  0  0  0  0  0  0  0  0
  140.8660   80.2300  223.1750 C   0  0  0  0  0  0  0  0  0  0  0  0
  140.7360   78.8500  223.3600 C   0  0  0  0  0  0  0  0  0  0  0  0
  141.1180   77.9630  222.3400 C   0  0  0  0  0  0  0  0  0  0  0  0
  141.0090   76.4740  222.5310 C   0  0  0  0  0  0  0  0  0  0  0  0
  140.2230   73.6110  222.2480 N   0  0  0  0  0  0  0  0  0  0  0  0
  140.6990   71.8700  224.4610 C   0  0  0  0  0  0  0  0  0  0  0  0
  139.5972   69.2203  229.0620 H   0  0  0  0  0  0  0  0  0  0  0  0
  141.2493   71.0920  229.0389 H   0  0  0  0  0  0  0  0  0  0  0  0
  141.7360   72.3086  226.9192 H   0  0  0  0  0  0  0  0  0  0  0  0
  138.4517   68.5364  226.9548 H   0  0  0  0  0  0  0  0  0  0  0  0
  138.5832   68.5484  224.4723 H   0  0  0  0  0  0  0  0  0  0  0  0
  137.7197   70.1390  224.4965 H   0  0  0  0  0  0  0  0  0  0  0  0
  140.3644   69.4766  223.1154 H   0  0  0  0  0  0  0  0  0  0  0  0
  138.8128   69.9342  222.3449 H   0  0  0  0  0  0  0  0  0  0  0  0
  137.9311   71.2689  221.4083 H   0  0  0  0  0  0  0  0  0  0  0  0
  137.6090   72.6340  218.3980 H   0  0  0  0  0  0  0  0  0  0  0  0
  135.7997   74.2890  218.7273 H   0  0  0  0  0  0  0  0  0  0  0  0
  135.2147   72.6691  219.2524 H   0  0  0  0  0  0  0  0  0  0  0  0
  134.6248   74.2517  220.9865 H   0  0  0  0  0  0  0  0  0  0  0  0
  136.0166   73.2462  221.5872 H   0  0  0  0  0  0  0  0  0  0  0  0
  137.2655   75.4367  220.3765 H   0  0  0  0  0  0  0  0  0  0  0  0
  135.0632   76.5765  220.1839 H   0  0  0  0  0  0  0  0  0  0  0  0
  134.8562   76.4223  221.9741 H   0  0  0  0  0  0  0  0  0  0  0  0
  136.6528   78.2360  220.3828 H   0  0  0  0  0  0  0  0  0  0  0  0
  135.7422   78.5191  221.9330 H   0  0  0  0  0  0  0  0  0  0  0  0
  138.4961   77.3892  221.4913 H   0  0  0  0  0  0  0  0  0  0  0  0
  137.8719   78.5113  222.7647 H   0  0  0  0  0  0  0  0  0  0  0  0
  138.4382   76.3135  223.7268 H   0  0  0  0  0  0  0  0  0  0  0  0
  136.6515   76.6453  223.8074 H   0  0  0  0  0  0  0  0  0  0  0  0
  138.1320   74.6680  222.2800 H   0  0  0  0  0  0  0  0  0  0  0  0
  141.6201   75.5375  219.3761 H   0  0  0  0  0  0  0  0  0  0  0  0
  140.2379   76.7224  219.4539 H   0  0  0  0  0  0  0  0  0  0  0  0
  143.1092   77.1136  220.3870 H   0  0  0  0  0  0  0  0  0  0  0  0
  142.1923   78.0300  219.1328 H   0  0  0  0  0  0  0  0  0  0  0  0
  142.2160   80.2512  220.0329 H   0  0  0  0  0  0  0  0  0  0  0  0
  141.4782   81.8194  221.8322 H   0  0  0  0  0  0  0  0  0  0  0  0
  140.5585   80.9218  223.9730 H   0  0  0  0  0  0  0  0  0  0  0  0
  140.3339   78.4584  224.3060 H   0  0  0  0  0  0  0  0  0  0  0  0
  141.9613   76.0947  222.9302 H   0  0  0  0  0  0  0  0  0  0  0  0
  140.1833   76.2764  223.2304 H   0  0  0  0  0  0  0  0  0  0  0  0
  141.7356   71.6355  224.1774 H   0  0  0  0  0  0  0  0  0  0  0  0
  140.5762   72.9466  224.6503 H   0  0  0  0  0  0  0  0  0  0  0  0
  1  2  2  0
  2  3  1  0
  3  4  2  0
  4  5  1  0
  5  6  2  0
  5  7  1  0
  7  8  1  0
  8  9  1  0
  9 10  1  0
 10 11  2  0
 11 12  1  0
 12 13  1  0
 13 14  1  0
 14 15  1  0
 15 16  1  0
 16 17  1  0
 17 18  1  0
 18 19  1  0
 19 20  1  0
 20 21  1  0
 12 22  2  0
 22 23  1  0
 23 24  1  0
 24 25  1  0
 25 26  1  0
 26 27  1  0
 27 28  2  0
 28 29  1  0
 29 30  2  0
 30 31  1  0
 31 32  2  0
 32 33  1  0
 23 34  2  0
  9 35  1  0
  6  1  1  0
 34 10  1  0
 35  4  1  0
 21 16  1  0
 33 24  1  0
 32 27  1  0
  1 36  1  0
  2 37  1  0
  3 38  1  0
  6 39  1  0
  7 40  1  0
  7 41  1  0
  8 42  1  0
  8 43  1  0
 11 44  1  0
 13 45  1  0
 14 46  1  0
 14 47  1  0
 15 48  1  0
 15 49  1  0
 16 50  1  6
 17 51  1  0
 17 52  1  0
 18 53  1  0
 18 54  1  0
 19 55  1  0
 19 56  1  0
 20 57  1  0
 20 58  1  0
 21 59  1  0
 25 60  1  0
 25 61  1  0
 26 62  1  0
 26 63  1  0
 28 64  1  0
 29 65  1  0
 30 66  1  0
 31 67  1  0
 33 68  1  0
 33 69  1  0
 35 70  1  0
 35 71  1  0
M  END
>  <UniqueID>  (45) 
587

>  <SMILES>  (45) 
c1ccc2c(c1)CCN(c1cc(NCC[C@H]3CCCCN3)nc(N3CCc4ccccc4C3)n1)C2

>  <Energy>  (45) 
84.83726583118538

>  <Genealogy>  (45) 
c1ccc2c(c1)CCN(c1cc(NCC[C@H]3CCCCN3)nc(N3CCc4ccccc4C3)n1)C2 (chirality)
c1ccc2c(c1)CCN(c1cc(NCC[C@H]3CCCCN3)nc(N3CCc4ccccc4C3)n1)C2 (3D coordinates assigned)
c1ccc2c(c1)CCN(c1cc(NCC[C@H]3CCCCN3)nc(N3CCc4ccccc4C3)n1)C2 (nonaromatic ring conformer: 84.83726583118538 kcal/mol)

>  <smiles>  (45) 
c1ccc2c(c1)CCN(c1cc(NCCC3CCCCN3)nc(N3CCc4ccccc4C3)n1)C2

>  <score_type>  (45) 
oracle

>  <origin>  (45) 
autodockgpu

>  <m_score__min__energy>  (45) 
-10.380000000000001

>  <m_primary>  (45) 
energy

>  <meeko>  (45) 
{"free_energy": -8.06, "intermolecular_energy": -9.85, "internal_energy": -2.85, "cluster_size": 3, "cluster_id": 4, "rank_in_cluster": 2}

>  <energy>  (45) 
-9.56

>  <cluster_rmsd>  (45) 
1.64

>  <rmsd>  (45) 
269.5

>  <cluster>  (45) 
1

$$$$
VOUYAFWJUZHTKY-RNPWZEQVNA-N
     RDKit          3D

 71 76  0  0  0  0  0  0  0  0999 V2000
  142.1630   80.5690  222.2730 C   0  0  0  0  0  0  0  0  0  0  0  0
  142.1240   79.9550  223.5290 C   0  0  0  0  0  0  0  0  0  0  0  0
  141.6600   78.6440  223.6560 C   0  0  0  0  0  0  0  0  0  0  0  0
  141.2330   77.9300  222.5270 C   0  0  0  0  0  0  0  0  0  0  0  0
  141.2420   78.5610  221.2590 C   0  0  0  0  0  0  0  0  0  0  0  0
  141.7240   79.8790  221.1420 C   0  0  0  0  0  0  0  0  0  0  0  0
  140.8240   77.8180  220.0130 C   0  0  0  0  0  0  0  0  0  0  0  0
  139.8830   76.6620  220.3470 C   0  0  0  0  0  0  0  0  0  0  0  0
  140.4770   75.8610  221.4200 N   0  0  0  0  0  0  0  0  0  0  0  0
  140.5780   74.4260  221.3210 C   0  0  0  0  0  0  0  0  0  0  0  0
  141.1840   73.8220  220.2130 C   0  0  0  0  0  0  0  0  0  0  0  0
  141.2550   72.4220  220.1610 C   0  0  0  0  0  0  0  0  0  0  0  0
  141.8520   71.7370  219.0490 N   0  0  0  0  0  0  0  0  0  0  0  0
  143.1830   71.1250  219.1040 C   0  0  0  0  0  0  0  0  0  0  0  0
  144.2520   72.1510  218.6910 C   0  0  0  0  0  0  0  0  0  0  0  0
  143.6870   73.5800  218.5880 C   0  0  1  0  0  0  0  0  0  0  0  0
  144.2970   74.4650  219.6960 C   0  0  0  0  0  0  0  0  0  0  0  0
  143.6970   75.8840  219.6670 C   0  0  0  0  0  0  0  0  0  0  0  0
  143.2240   76.2980  218.2620 C   0  0  0  0  0  0  0  0  0  0  0  0
  144.0530   75.6040  217.1740 C   0  0  0  0  0  0  0  0  0  0  0  0
  143.9500   74.1310  217.2360 N   0  0  0  0  0  0  0  0  0  0  0  0
  140.7570   71.6930  221.1950 N   0  0  0  0  0  0  0  0  0  0  0  0
  140.2040   72.2850  222.2870 C   0  0  0  0  0  0  0  0  0  0  0  0
  139.7380   71.4810  223.3920 N   0  0  0  0  0  0  0  0  0  0  0  0
  138.5340   70.6470  223.2010 C   0  0  0  0  0  0  0  0  0  0  0  0
  137.9950   70.0660  224.5160 C   0  0  0  0  0  0  0  0  0  0  0  0
  139.1120   69.4960  225.3330 C   0  0  0  0  0  0  0  0  0  0  0  0
  138.9470   68.3040  226.0570 C   0  0  0  0  0  0  0  0  0  0  0  0
  139.9890   67.8190  226.8560 C   0  0  0  0  0  0  0  0  0  0  0  0
  141.1870   68.5350  226.9530 C   0  0  0  0  0  0  0  0  0  0  0  0
  141.3530   69.7280  226.2450 C   0  0  0  0  0  0  0  0  0  0  0  0
  140.3200   70.2110  225.4240 C   0  0  0  0  0  0  0  0  0  0  0  0
  140.4700   71.5070  224.6750 C   0  0  0  0  0  0  0  0  0  0  0  0
  140.1190   73.6430  222.3350 N   0  0  0  0  0  0  0  0  0  0  0  0
  140.7100   76.5220  222.7080 C   0  0  0  0  0  0  0  0  0  0  0  0
  142.5404   81.5977  222.1763 H   0  0  0  0  0  0  0  0  0  0  0  0
  142.4598   80.5065  224.4196 H   0  0  0  0  0  0  0  0  0  0  0  0
  141.6293   78.1685  224.6475 H   0  0  0  0  0  0  0  0  0  0  0  0
  141.7546   80.3662  220.1562 H   0  0  0  0  0  0  0  0  0  0  0  0
  140.3092   78.5152  219.3356 H   0  0  0  0  0  0  0  0  0  0  0  0
  141.7250   77.4060  219.5351 H   0  0  0  0  0  0  0  0  0  0  0  0
  138.9122   77.0599  220.6775 H   0  0  0  0  0  0  0  0  0  0  0  0
  139.7308   76.0360  219.4554 H   0  0  0  0  0  0  0  0  0  0  0  0
  141.5971   74.4342  219.3978 H   0  0  0  0  0  0  0  0  0  0  0  0
  141.2270   71.4460  218.2620 H   0  0  0  0  0  0  0  0  0  0  0  0
  143.3842   70.7824  220.1297 H   0  0  0  0  0  0  0  0  0  0  0  0
  143.2162   70.2708  218.4117 H   0  0  0  0  0  0  0  0  0  0  0  0
  145.0573   72.1429  219.4403 H   0  0  0  0  0  0  0  0  0  0  0  0
  144.6237   71.8653  217.6959 H   0  0  0  0  0  0  0  0  0  0  0  0
  142.5970   73.5604  218.7351 H   0  0  0  0  0  0  0  0  0  0  0  0
  144.0907   74.0078  220.6750 H   0  0  0  0  0  0  0  0  0  0  0  0
  145.3810   74.5408  219.5249 H   0  0  0  0  0  0  0  0  0  0  0  0
  142.8371   75.9170  220.3522 H   0  0  0  0  0  0  0  0  0  0  0  0
  144.4867   76.5860  219.9730 H   0  0  0  0  0  0  0  0  0  0  0  0
  142.1670   76.0182  218.1417 H   0  0  0  0  0  0  0  0  0  0  0  0
  143.3501   77.3857  218.1571 H   0  0  0  0  0  0  0  0  0  0  0  0
  143.6960   75.9413  216.1897 H   0  0  0  0  0  0  0  0  0  0  0  0
  145.1075   75.8720  217.3359 H   0  0  0  0  0  0  0  0  0  0  0  0
  143.1760   73.8320  216.6030 H   0  0  0  0  0  0  0  0  0  0  0  0
  137.7482   71.2649  222.7421 H   0  0  0  0  0  0  0  0  0  0  0  0
  138.8172   69.8008  222.5578 H   0  0  0  0  0  0  0  0  0  0  0  0
  137.4986   70.8638  225.0879 H   0  0  0  0  0  0  0  0  0  0  0  0
  137.2785   69.2643  224.2839 H   0  0  0  0  0  0  0  0  0  0  0  0
  137.9981   67.7510  225.9962 H   0  0  0  0  0  0  0  0  0  0  0  0
  139.8659   66.8752  227.4074 H   0  0  0  0  0  0  0  0  0  0  0  0
  142.0012   68.1574  227.5890 H   0  0  0  0  0  0  0  0  0  0  0  0
  142.2945   70.2904  226.3305 H   0  0  0  0  0  0  0  0  0  0  0  0
  140.0751   72.3254  225.2949 H   0  0  0  0  0  0  0  0  0  0  0  0
  141.5379   71.6582  224.4590 H   0  0  0  0  0  0  0  0  0  0  0  0
  139.7621   76.5625  223.2647 H   0  0  0  0  0  0  0  0  0  0  0  0
  141.4660   75.9433  223.2590 H   0  0  0  0  0  0  0  0  0  0  0  0
  1  2  2  0
  2  3  1  0
  3  4  2  0
  4  5  1  0
  5  6  2  0
  5  7  1  0
  7  8  1  0
  8  9  1  0
  9 10  1  0
 10 11  2  0
 11 12  1  0
 12 13  1  0
 13 14  1  0
 14 15  1  0
 15 16  1  0
 16 17  1  0
 17 18  1  0
 18 19  1  0
 19 20  1  0
 20 21  1  0
 12 22  2  0
 22 23  1  0
 23 24  1  0
 24 25  1  0
 25 26  1  0
 26 27  1  0
 27 28  2  0
 28 29  1  0
 29 30  2  0
 30 31  1  0
 31 32  2  0
 32 33  1  0
 23 34  2  0
  9 35  1  0
  6  1  1  0
 34 10  1  0
 35  4  1  0
 21 16  1  0
 33 24  1  0
 32 27  1  0
  1 36  1  0
  2 37  1  0
  3 38  1  0
  6 39  1  0
  7 40  1  0
  7 41  1  0
  8 42  1  0
  8 43  1  0
 11 44  1  0
 13 45  1  0
 14 46  1  0
 14 47  1  0
 15 48  1  0
 15 49  1  0
 16 50  1  1
 17 51  1  0
 17 52  1  0
 18 53  1  0
 18 54  1  0
 19 55  1  0
 19 56  1  0
 20 57  1  0
 20 58  1  0
 21 59  1  0
 25 60  1  0
 25 61  1  0
 26 62  1  0
 26 63  1  0
 28 64  1  0
 29 65  1  0
 30 66  1  0
 31 67  1  0
 33 68  1  0
 33 69  1  0
 35 70  1  0
 35 71  1  0
M  END
>  <UniqueID>  (46) 
587

>  <SMILES>  (46) 
c1ccc2c(c1)CCN(c1cc(NCC[C@H]3CCCCN3)nc(N3CCc4ccccc4C3)n1)C2

>  <Energy>  (46) 
84.83726583118538

>  <Genealogy>  (46) 
c1ccc2c(c1)CCN(c1cc(NCC[C@H]3CCCCN3)nc(N3CCc4ccccc4C3)n1)C2 (chirality)
c1ccc2c(c1)CCN(c1cc(NCC[C@H]3CCCCN3)nc(N3CCc4ccccc4C3)n1)C2 (3D coordinates assigned)
c1ccc2c(c1)CCN(c1cc(NCC[C@H]3CCCCN3)nc(N3CCc4ccccc4C3)n1)C2 (nonaromatic ring conformer: 84.83726583118538 kcal/mol)

>  <smiles>  (46) 
c1ccc2c(c1)CCN(c1cc(NCCC3CCCCN3)nc(N3CCc4ccccc4C3)n1)C2

>  <score_type>  (46) 
oracle

>  <origin>  (46) 
autodockgpu

>  <m_score__min__energy>  (46) 
-10.380000000000001

>  <m_primary>  (46) 
energy

>  <meeko>  (46) 
{"free_energy": -9.0, "intermolecular_energy": -10.79, "internal_energy": -1.6, "cluster_size": 8, "cluster_id": 1, "rank_in_cluster": 8}

>  <energy>  (46) 
-9.49

>  <cluster_rmsd>  (46) 
1.06

>  <rmsd>  (46) 
269.47

>  <cluster>  (46) 
1

$$$$
VOUYAFWJUZHTKY-RNPWZEQVNA-N
     RDKit          3D

 71 76  0  0  0  0  0  0  0  0999 V2000
  141.8120   80.5330  222.3440 C   0  0  0  0  0  0  0  0  0  0  0  0
  141.1560   79.9790  223.4490 C   0  0  0  0  0  0  0  0  0  0  0  0
  140.7910   78.6310  223.4460 C   0  0  0  0  0  0  0  0  0  0  0  0
  141.0800   77.8200  222.3400 C   0  0  0  0  0  0  0  0  0  0  0  0
  141.7150   78.3860  221.2070 C   0  0  0  0  0  0  0  0  0  0  0  0
  142.0900   79.7430  221.2270 C   0  0  0  0  0  0  0  0  0  0  0  0
  142.0770   77.5410  220.0100 C   0  0  0  0  0  0  0  0  0  0  0  0
  141.1870   76.3020  219.9170 C   0  0  0  0  0  0  0  0  0  0  0  0
  141.1770   75.6270  221.2180 N   0  0  0  0  0  0  0  0  0  0  0  0
  141.4180   74.2100  221.3320 C   0  0  0  0  0  0  0  0  0  0  0  0
  142.3860   73.5790  220.5420 C   0  0  0  0  0  0  0  0  0  0  0  0
  142.5810   72.1970  220.6880 C   0  0  0  0  0  0  0  0  0  0  0  0
  143.5480   71.4840  219.9010 N   0  0  0  0  0  0  0  0  0  0  0  0
  144.6440   72.1430  219.1850 C   0  0  0  0  0  0  0  0  0  0  0  0
  145.2380   71.1870  218.1370 C   0  0  0  0  0  0  0  0  0  0  0  0
  144.8570   69.7180  218.3970 C   0  0  1  0  0  0  0  0  0  0  0  0
  145.3430   68.8350  217.2280 C   0  0  0  0  0  0  0  0  0  0  0  0
  144.9120   67.3680  217.4220 C   0  0  0  0  0  0  0  0  0  0  0  0
  144.7530   66.9910  218.9050 C   0  0  0  0  0  0  0  0  0  0  0  0
  145.6910   67.8220  219.7910 C   0  0  0  0  0  0  0  0  0  0  0  0
  145.4220   69.2720  219.6940 N   0  0  0  0  0  0  0  0  0  0  0  0
  141.8450   71.5160  221.6050 N   0  0  0  0  0  0  0  0  0  0  0  0
  140.9320   72.1390  222.3960 C   0  0  0  0  0  0  0  0  0  0  0  0
  140.2090   71.3950  223.4010 N   0  0  0  0  0  0  0  0  0  0  0  0
  139.1300   70.4840  222.9640 C   0  0  0  0  0  0  0  0  0  0  0  0
  138.2740   69.9720  224.1300 C   0  0  0  0  0  0  0  0  0  0  0  0
  139.1440   69.5250  225.2640 C   0  0  0  0  0  0  0  0  0  0  0  0
  138.8280   68.3820  226.0150 C   0  0  0  0  0  0  0  0  0  0  0  0
  139.6280   68.0130  227.1020 C   0  0  0  0  0  0  0  0  0  0  0  0
  140.7300   68.7990  227.4570 C   0  0  0  0  0  0  0  0  0  0  0  0
  141.0430   69.9450  226.7210 C   0  0  0  0  0  0  0  0  0  0  0  0
  140.2570   70.3090  225.6140 C   0  0  0  0  0  0  0  0  0  0  0  0
  140.5630   71.5530  224.8260 C   0  0  0  0  0  0  0  0  0  0  0  0
  140.7290   73.4780  222.2490 N   0  0  0  0  0  0  0  0  0  0  0  0
  140.6430   76.3720  222.3630 C   0  0  0  0  0  0  0  0  0  0  0  0
  142.1089   81.5921  222.3555 H   0  0  0  0  0  0  0  0  0  0  0  0
  140.9272   80.6071  224.3226 H   0  0  0  0  0  0  0  0  0  0  0  0
  140.2734   78.2030  224.3172 H   0  0  0  0  0  0  0  0  0  0  0  0
  142.6039   80.1823  220.3593 H   0  0  0  0  0  0  0  0  0  0  0  0
  141.9526   78.1412  219.0966 H   0  0  0  0  0  0  0  0  0  0  0  0
  143.1209   77.2119  220.1195 H   0  0  0  0  0  0  0  0  0  0  0  0
  140.1633   76.6018  219.6485 H   0  0  0  0  0  0  0  0  0  0  0  0
  141.5757   75.6204  219.1461 H   0  0  0  0  0  0  0  0  0  0  0  0
  142.9828   74.1558  219.8201 H   0  0  0  0  0  0  0  0  0  0  0  0
  143.6260   70.4510  220.0440 H   0  0  0  0  0  0  0  0  0  0  0  0
  144.2610   73.0429  218.6815 H   0  0  0  0  0  0  0  0  0  0  0  0
  145.4281   72.4227  219.9039 H   0  0  0  0  0  0  0  0  0  0  0  0
  144.8661   71.4775  217.1434 H   0  0  0  0  0  0  0  0  0  0  0  0
  146.3337   71.2641  218.1967 H   0  0  0  0  0  0  0  0  0  0  0  0
  143.7627   69.6236  218.4572 H   0  0  0  0  0  0  0  0  0  0  0  0
  144.9134   69.2142  216.2890 H   0  0  0  0  0  0  0  0  0  0  0  0
  146.4418   68.8741  217.1949 H   0  0  0  0  0  0  0  0  0  0  0  0
  143.9489   67.2133  216.9136 H   0  0  0  0  0  0  0  0  0  0  0  0
  145.7009   66.7294  216.9979 H   0  0  0  0  0  0  0  0  0  0  0  0
  143.7128   67.1741  219.2125 H   0  0  0  0  0  0  0  0  0  0  0  0
  145.0107   65.9283  219.0245 H   0  0  0  0  0  0  0  0  0  0  0  0
  145.5591   67.5077  220.8369 H   0  0  0  0  0  0  0  0  0  0  0  0
  146.7203   67.6485  219.4440 H   0  0  0  0  0  0  0  0  0  0  0  0
  144.7500   69.5300  220.4510 H   0  0  0  0  0  0  0  0  0  0  0  0
  138.4787   71.0230  222.2603 H   0  0  0  0  0  0  0  0  0  0  0  0
  139.6050   69.6103  222.4938 H   0  0  0  0  0  0  0  0  0  0  0  0
  137.6144   70.7810  224.4771 H   0  0  0  0  0  0  0  0  0  0  0  0
  137.6756   69.1168  223.7828 H   0  0  0  0  0  0  0  0  0  0  0  0
  137.9500   67.7754  225.7485 H   0  0  0  0  0  0  0  0  0  0  0  0
  139.3909   67.1058  227.6771 H   0  0  0  0  0  0  0  0  0  0  0  0
  141.3520   68.5139  228.3183 H   0  0  0  0  0  0  0  0  0  0  0  0
  141.9061   70.5634  227.0085 H   0  0  0  0  0  0  0  0  0  0  0  0
  139.9882   72.3918  225.2457 H   0  0  0  0  0  0  0  0  0  0  0  0
  141.6441   71.7451  224.8926 H   0  0  0  0  0  0  0  0  0  0  0  0
  139.5442   76.3306  222.3344 H   0  0  0  0  0  0  0  0  0  0  0  0
  141.0305   75.9110  223.2835 H   0  0  0  0  0  0  0  0  0  0  0  0
  1  2  2  0
  2  3  1  0
  3  4  2  0
  4  5  1  0
  5  6  2  0
  5  7  1  0
  7  8  1  0
  8  9  1  0
  9 10  1  0
 10 11  2  0
 11 12  1  0
 12 13  1  0
 13 14  1  0
 14 15  1  0
 15 16  1  0
 16 17  1  0
 17 18  1  0
 18 19  1  0
 19 20  1  0
 20 21  1  0
 12 22  2  0
 22 23  1  0
 23 24  1  0
 24 25  1  0
 25 26  1  0
 26 27  1  0
 27 28  2  0
 28 29  1  0
 29 30  2  0
 30 31  1  0
 31 32  2  0
 32 33  1  0
 23 34  2  0
  9 35  1  0
  6  1  1  0
 34 10  1  0
 35  4  1  0
 21 16  1  0
 33 24  1  0
 32 27  1  0
  1 36  1  0
  2 37  1  0
  3 38  1  0
  6 39  1  0
  7 40  1  0
  7 41  1  0
  8 42  1  0
  8 43  1  0
 11 44  1  0
 13 45  1  0
 14 46  1  0
 14 47  1  0
 15 48  1  0
 15 49  1  0
 16 50  1  1
 17 51  1  0
 17 52  1  0
 18 53  1  0
 18 54  1  0
 19 55  1  0
 19 56  1  0
 20 57  1  0
 20 58  1  0
 21 59  1  0
 25 60  1  0
 25 61  1  0
 26 62  1  0
 26 63  1  0
 28 64  1  0
 29 65  1  0
 30 66  1  0
 31 67  1  0
 33 68  1  0
 33 69  1  0
 35 70  1  0
 35 71  1  0
M  END
>  <UniqueID>  (47) 
587

>  <SMILES>  (47) 
c1ccc2c(c1)CCN(c1cc(NCC[C@H]3CCCCN3)nc(N3CCc4ccccc4C3)n1)C2

>  <Energy>  (47) 
84.83726583118538

>  <Genealogy>  (47) 
c1ccc2c(c1)CCN(c1cc(NCC[C@H]3CCCCN3)nc(N3CCc4ccccc4C3)n1)C2 (chirality)
c1ccc2c(c1)CCN(c1cc(NCC[C@H]3CCCCN3)nc(N3CCc4ccccc4C3)n1)C2 (3D coordinates assigned)
c1ccc2c(c1)CCN(c1cc(NCC[C@H]3CCCCN3)nc(N3CCc4ccccc4C3)n1)C2 (nonaromatic ring conformer: 84.83726583118538 kcal/mol)

>  <smiles>  (47) 
c1ccc2c(c1)CCN(c1cc(NCCC3CCCCN3)nc(N3CCc4ccccc4C3)n1)C2

>  <score_type>  (47) 
oracle

>  <origin>  (47) 
autodockgpu

>  <m_score__min__energy>  (47) 
-10.380000000000001

>  <m_primary>  (47) 
energy

>  <meeko>  (47) 
{"free_energy": -9.8, "intermolecular_energy": -11.59, "internal_energy": -1.43, "cluster_size": 8, "cluster_id": 1, "rank_in_cluster": 2}

>  <energy>  (47) 
-9.18

>  <cluster_rmsd>  (47) 
1.89

>  <rmsd>  (47) 
269.52

>  <cluster>  (47) 
1

$$$$
VOUYAFWJUZHTKY-RNPWZEQVNA-N
     RDKit          3D

 71 76  0  0  0  0  0  0  0  0999 V2000
  142.0560   80.9470  222.6270 C   0  0  0  0  0  0  0  0  0  0  0  0
  141.7920   80.3000  223.8390 C   0  0  0  0  0  0  0  0  0  0  0  0
  141.4440   78.9470  223.8520 C   0  0  0  0  0  0  0  0  0  0  0  0
  141.3590   78.2250  222.6540 C   0  0  0  0  0  0  0  0  0  0  0  0
  141.5940   78.8860  221.4230 C   0  0  0  0  0  0  0  0  0  0  0  0
  141.9570   80.2460  221.4230 C   0  0  0  0  0  0  0  0  0  0  0  0
  141.5480   78.1380  220.1130 C   0  0  0  0  0  0  0  0  0  0  0  0
  140.6740   76.8890  220.2180 C   0  0  0  0  0  0  0  0  0  0  0  0
  141.0840   76.1210  221.3980 N   0  0  0  0  0  0  0  0  0  0  0  0
  141.3470   74.7060  221.3200 C   0  0  0  0  0  0  0  0  0  0  0  0
  142.2940   74.1980  220.4240 C   0  0  0  0  0  0  0  0  0  0  0  0
  142.5120   72.8120  220.3840 C   0  0  0  0  0  0  0  0  0  0  0  0
  143.4600   72.2220  219.4810 N   0  0  0  0  0  0  0  0  0  0  0  0
  144.1340   70.9470  219.7450 C   0  0  0  0  0  0  0  0  0  0  0  0
  143.1490   69.7810  219.5540 C   0  0  0  0  0  0  0  0  0  0  0  0
  143.8640   68.4230  219.4250 C   0  0  1  0  0  0  0  0  0  0  0  0
  144.0440   68.0650  217.9340 C   0  0  0  0  0  0  0  0  0  0  0  0
  144.6910   66.6760  217.7700 C   0  0  0  0  0  0  0  0  0  0  0  0
  145.5880   66.2980  218.9620 C   0  0  0  0  0  0  0  0  0  0  0  0
  146.1930   67.5460  219.6160 C   0  0  0  0  0  0  0  0  0  0  0  0
  145.1620   68.4650  220.1420 N   0  0  0  0  0  0  0  0  0  0  0  0
  141.8170   72.0060  221.2300 N   0  0  0  0  0  0  0  0  0  0  0  0
  140.9250   72.5080  222.1260 C   0  0  0  0  0  0  0  0  0  0  0  0
  140.2480   71.6280  223.0490 N   0  0  0  0  0  0  0  0  0  0  0  0
  139.4520   70.5090  222.5040 C   0  0  0  0  0  0  0  0  0  0  0  0
  138.5750   69.8290  223.5640 C   0  0  0  0  0  0  0  0  0  0  0  0
  139.3610   69.5780  224.8130 C   0  0  0  0  0  0  0  0  0  0  0  0
  139.1940   68.3950  225.5500 C   0  0  0  0  0  0  0  0  0  0  0  0
  139.9020   68.2060  226.7430 C   0  0  0  0  0  0  0  0  0  0  0  0
  140.7570   69.2080  227.2140 C   0  0  0  0  0  0  0  0  0  0  0  0
  140.9180   70.3930  226.4910 C   0  0  0  0  0  0  0  0  0  0  0  0
  140.2270   70.5810  225.2820 C   0  0  0  0  0  0  0  0  0  0  0  0
  140.3680   71.8610  224.5030 C   0  0  0  0  0  0  0  0  0  0  0  0
  140.7000   73.8510  222.1580 N   0  0  0  0  0  0  0  0  0  0  0  0
  140.9500   76.7690  222.7070 C   0  0  0  0  0  0  0  0  0  0  0  0
  142.3419   82.0092  222.6223 H   0  0  0  0  0  0  0  0  0  0  0  0
  141.8586   80.8582  224.7845 H   0  0  0  0  0  0  0  0  0  0  0  0
  141.2354   78.4454  224.8085 H   0  0  0  0  0  0  0  0  0  0  0  0
  142.1634   80.7584  220.4717 H   0  0  0  0  0  0  0  0  0  0  0  0
  141.1360   78.7996  219.3368 H   0  0  0  0  0  0  0  0  0  0  0  0
  142.5707   77.8258  219.8551 H   0  0  0  0  0  0  0  0  0  0  0  0
  139.6189   77.1838  220.3174 H   0  0  0  0  0  0  0  0  0  0  0  0
  140.7918   76.2742  219.3135 H   0  0  0  0  0  0  0  0  0  0  0  0
  142.8576   74.8727  219.7628 H   0  0  0  0  0  0  0  0  0  0  0  0
  143.4860   72.5790  218.4990 H   0  0  0  0  0  0  0  0  0  0  0  0
  144.9769   70.8295  219.0481 H   0  0  0  0  0  0  0  0  0  0  0  0
  144.5028   70.9417  220.7813 H   0  0  0  0  0  0  0  0  0  0  0  0
  142.4736   69.7435  220.4214 H   0  0  0  0  0  0  0  0  0  0  0  0
  142.5962   69.9588  218.6198 H   0  0  0  0  0  0  0  0  0  0  0  0
  143.2515   67.6353  219.8880 H   0  0  0  0  0  0  0  0  0  0  0  0
  143.0592   68.0625  217.4439 H   0  0  0  0  0  0  0  0  0  0  0  0
  144.7042   68.8141  217.4726 H   0  0  0  0  0  0  0  0  0  0  0  0
  143.8933   65.9243  217.6767 H   0  0  0  0  0  0  0  0  0  0  0  0
  145.3252   66.7072  216.8718 H   0  0  0  0  0  0  0  0  0  0  0  0
  144.9859   65.7579  219.7075 H   0  0  0  0  0  0  0  0  0  0  0  0
  146.4083   65.6640  218.5944 H   0  0  0  0  0  0  0  0  0  0  0  0
  146.8410   67.2300  220.4468 H   0  0  0  0  0  0  0  0  0  0  0  0
  146.7603   68.0865  218.8439 H   0  0  0  0  0  0  0  0  0  0  0  0
  144.9920   68.2260  221.1430 H   0  0  0  0  0  0  0  0  0  0  0  0
  138.8015   70.8967  221.7062 H   0  0  0  0  0  0  0  0  0  0  0  0
  140.1579   69.7548  222.1259 H   0  0  0  0  0  0  0  0  0  0  0  0
  137.7205   70.4806  223.7990 H   0  0  0  0  0  0  0  0  0  0  0  0
  138.2203   68.8662  223.1676 H   0  0  0  0  0  0  0  0  0  0  0  0
  138.5062   67.6157  225.1899 H   0  0  0  0  0  0  0  0  0  0  0  0
  139.7860   67.2703  227.3095 H   0  0  0  0  0  0  0  0  0  0  0  0
  141.3046   69.0626  228.1569 H   0  0  0  0  0  0  0  0  0  0  0  0
  141.5870   71.1801  226.8691 H   0  0  0  0  0  0  0  0  0  0  0  0
  139.5796   72.5600  224.8189 H   0  0  0  0  0  0  0  0  0  0  0  0
  141.3658   72.2781  224.7037 H   0  0  0  0  0  0  0  0  0  0  0  0
  139.9008   76.7048  223.0310 H   0  0  0  0  0  0  0  0  0  0  0  0
  141.6132   76.2516  223.4158 H   0  0  0  0  0  0  0  0  0  0  0  0
  1  2  2  0
  2  3  1  0
  3  4  2  0
  4  5  1  0
  5  6  2  0
  5  7  1  0
  7  8  1  0
  8  9  1  0
  9 10  1  0
 10 11  2  0
 11 12  1  0
 12 13  1  0
 13 14  1  0
 14 15  1  0
 15 16  1  0
 16 17  1  0
 17 18  1  0
 18 19  1  0
 19 20  1  0
 20 21  1  0
 12 22  2  0
 22 23  1  0
 23 24  1  0
 24 25  1  0
 25 26  1  0
 26 27  1  0
 27 28  2  0
 28 29  1  0
 29 30  2  0
 30 31  1  0
 31 32  2  0
 32 33  1  0
 23 34  2  0
  9 35  1  0
  6  1  1  0
 34 10  1  0
 35  4  1  0
 21 16  1  0
 33 24  1  0
 32 27  1  0
  1 36  1  0
  2 37  1  0
  3 38  1  0
  6 39  1  0
  7 40  1  0
  7 41  1  0
  8 42  1  0
  8 43  1  0
 11 44  1  0
 13 45  1  0
 14 46  1  0
 14 47  1  0
 15 48  1  0
 15 49  1  0
 16 50  1  1
 17 51  1  0
 17 52  1  0
 18 53  1  0
 18 54  1  0
 19 55  1  0
 19 56  1  0
 20 57  1  0
 20 58  1  0
 21 59  1  0
 25 60  1  0
 25 61  1  0
 26 62  1  0
 26 63  1  0
 28 64  1  0
 29 65  1  0
 30 66  1  0
 31 67  1  0
 33 68  1  0
 33 69  1  0
 35 70  1  0
 35 71  1  0
M  END
>  <UniqueID>  (48) 
587

>  <SMILES>  (48) 
c1ccc2c(c1)CCN(c1cc(NCC[C@H]3CCCCN3)nc(N3CCc4ccccc4C3)n1)C2

>  <Energy>  (48) 
84.83726583118538

>  <Genealogy>  (48) 
c1ccc2c(c1)CCN(c1cc(NCC[C@H]3CCCCN3)nc(N3CCc4ccccc4C3)n1)C2 (chirality)
c1ccc2c(c1)CCN(c1cc(NCC[C@H]3CCCCN3)nc(N3CCc4ccccc4C3)n1)C2 (3D coordinates assigned)
c1ccc2c(c1)CCN(c1cc(NCC[C@H]3CCCCN3)nc(N3CCc4ccccc4C3)n1)C2 (nonaromatic ring conformer: 84.83726583118538 kcal/mol)

>  <smiles>  (48) 
c1ccc2c(c1)CCN(c1cc(NCCC3CCCCN3)nc(N3CCc4ccccc4C3)n1)C2

>  <score_type>  (48) 
oracle

>  <origin>  (48) 
autodockgpu

>  <m_score__min__energy>  (48) 
-10.380000000000001

>  <m_primary>  (48) 
energy

>  <meeko>  (48) 
{"free_energy": -10.38, "intermolecular_energy": -12.17, "internal_energy": -0.92, "cluster_size": 8, "cluster_id": 1, "rank_in_cluster": 1}

>  <energy>  (48) 
-9.0

>  <cluster_rmsd>  (48) 
1.8

>  <rmsd>  (48) 
269.24

>  <cluster>  (48) 
1

$$$$
VOUYAFWJUZHTKY-RNPWZEQVNA-N
     RDKit          3D

 71 76  0  0  0  0  0  0  0  0999 V2000
  139.5090   69.6930  228.1420 C   0  0  0  0  0  0  0  0  0  0  0  0
  140.5910   70.5790  228.1870 C   0  0  0  0  0  0  0  0  0  0  0  0
  141.0630   71.1700  227.0140 C   0  0  0  0  0  0  0  0  0  0  0  0
  140.4560   70.8870  225.7820 C   0  0  0  0  0  0  0  0  0  0  0  0
  139.3810   69.9660  225.7300 C   0  0  0  0  0  0  0  0  0  0  0  0
  138.9050   69.3860  226.9220 C   0  0  0  0  0  0  0  0  0  0  0  0
  138.6760   69.6590  224.4310 C   0  0  0  0  0  0  0  0  0  0  0  0
  139.5840   69.9280  223.2320 C   0  0  0  0  0  0  0  0  0  0  0  0
  140.1620   71.2680  223.3640 N   0  0  0  0  0  0  0  0  0  0  0  0
  140.1300   72.2120  222.2750 C   0  0  0  0  0  0  0  0  0  0  0  0
  140.1770   71.7780  220.9450 C   0  0  0  0  0  0  0  0  0  0  0  0
  140.1460   72.7360  219.9200 C   0  0  0  0  0  0  0  0  0  0  0  0
  140.2040   72.3620  218.5350 N   0  0  0  0  0  0  0  0  0  0  0  0
  140.7050   73.2520  217.4830 C   0  0  0  0  0  0  0  0  0  0  0  0
  142.2290   73.0970  217.3440 C   0  0  0  0  0  0  0  0  0  0  0  0
  142.9620   73.2550  218.6890 C   0  0  1  0  0  0  0  0  0  0  0  0
  144.4560   72.9100  218.5160 C   0  0  0  0  0  0  0  0  0  0  0  0
  145.2040   72.9880  219.8610 C   0  0  0  0  0  0  0  0  0  0  0  0
  144.5590   73.9840  220.8400 C   0  0  0  0  0  0  0  0  0  0  0  0
  143.8550   75.1210  220.0870 C   0  0  0  0  0  0  0  0  0  0  0  0
  142.7710   74.6320  219.2090 N   0  0  0  0  0  0  0  0  0  0  0  0
  140.0470   74.0530  220.2440 N   0  0  0  0  0  0  0  0  0  0  0  0
  139.9630   74.4670  221.5370 C   0  0  0  0  0  0  0  0  0  0  0  0
  139.8000   75.8690  221.8420 N   0  0  0  0  0  0  0  0  0  0  0  0
  138.6650   76.2780  222.6960 C   0  0  0  0  0  0  0  0  0  0  0  0
  138.4510   77.7980  222.7150 C   0  0  0  0  0  0  0  0  0  0  0  0
  139.7550   78.5090  222.9060 C   0  0  0  0  0  0  0  0  0  0  0  0
  139.8470   79.6510  223.7170 C   0  0  0  0  0  0  0  0  0  0  0  0
  141.0650   80.3290  223.8380 C   0  0  0  0  0  0  0  0  0  0  0  0
  142.1870   79.8820  223.1300 C   0  0  0  0  0  0  0  0  0  0  0  0
  142.0980   78.7530  222.3120 C   0  0  0  0  0  0  0  0  0  0  0  0
  140.8840   78.0550  222.2020 C   0  0  0  0  0  0  0  0  0  0  0  0
  140.7630   76.8520  221.3060 C   0  0  0  0  0  0  0  0  0  0  0  0
  140.0070   73.5420  222.5350 N   0  0  0  0  0  0  0  0  0  0  0  0
  141.0140   71.5250  224.5290 C   0  0  0  0  0  0  0  0  0  0  0  0
  139.1337   69.2375  229.0702 H   0  0  0  0  0  0  0  0  0  0  0  0
  141.0709   70.8104  229.1494 H   0  0  0  0  0  0  0  0  0  0  0  0
  141.9168   71.8623  227.0562 H   0  0  0  0  0  0  0  0  0  0  0  0
  138.0546   68.6890  226.8912 H   0  0  0  0  0  0  0  0  0  0  0  0
  138.3791   68.5998  224.4256 H   0  0  0  0  0  0  0  0  0  0  0  0
  137.7929   70.3100  224.3519 H   0  0  0  0  0  0  0  0  0  0  0  0
  140.3897   69.1797  223.2040 H   0  0  0  0  0  0  0  0  0  0  0  0
  139.0006   69.8643  222.3016 H   0  0  0  0  0  0  0  0  0  0  0  0
  140.2371   70.7056  220.7076 H   0  0  0  0  0  0  0  0  0  0  0  0
  140.1230   71.3470  218.3000 H   0  0  0  0  0  0  0  0  0  0  0  0
  140.2240   72.9939  216.5280 H   0  0  0  0  0  0  0  0  0  0  0  0
  140.4709   74.2933  217.7494 H   0  0  0  0  0  0  0  0  0  0  0  0
  142.4466   72.0978  216.9387 H   0  0  0  0  0  0  0  0  0  0  0  0
  142.5864   73.8918  216.6728 H   0  0  0  0  0  0  0  0  0  0  0  0
  142.5399   72.5565  219.4265 H   0  0  0  0  0  0  0  0  0  0  0  0
  144.5447   71.8898  218.1145 H   0  0  0  0  0  0  0  0  0  0  0  0
  144.9045   73.6386  217.8246 H   0  0  0  0  0  0  0  0  0  0  0  0
  145.2034   71.9896  220.3228 H   0  0  0  0  0  0  0  0  0  0  0  0
  146.2258   73.3388  219.6540 H   0  0  0  0  0  0  0  0  0  0  0  0
  143.8215   73.4526  221.4594 H   0  0  0  0  0  0  0  0  0  0  0  0
  145.3503   74.4184  221.4686 H   0  0  0  0  0  0  0  0  0  0  0  0
  143.4264   75.8184  220.8218 H   0  0  0  0  0  0  0  0  0  0  0  0
  144.6041   75.6145  219.4503 H   0  0  0  0  0  0  0  0  0  0  0  0
  141.8780   74.6590  219.7470 H   0  0  0  0  0  0  0  0  0  0  0  0
  137.7500   75.7992  222.3172 H   0  0  0  0  0  0  0  0  0  0  0  0
  138.8949   75.9635  223.7247 H   0  0  0  0  0  0  0  0  0  0  0  0
  138.0037   78.1125  221.7606 H   0  0  0  0  0  0  0  0  0  0  0  0
  137.7815   78.0525  223.5498 H   0  0  0  0  0  0  0  0  0  0  0  0
  138.9605   80.0134  224.2581 H   0  0  0  0  0  0  0  0  0  0  0  0
  141.1409   81.2125  224.4889 H   0  0  0  0  0  0  0  0  0  0  0  0
  143.1416   80.4214  223.2181 H   0  0  0  0  0  0  0  0  0  0  0  0
  142.9808   78.4098  221.7527 H   0  0  0  0  0  0  0  0  0  0  0  0
  140.4229   77.1797  220.3126 H   0  0  0  0  0  0  0  0  0  0  0  0
  141.7492   76.3687  221.2442 H   0  0  0  0  0  0  0  0  0  0  0  0
  142.0159   71.1140  224.3356 H   0  0  0  0  0  0  0  0  0  0  0  0
  141.0580   72.6125  224.6884 H   0  0  0  0  0  0  0  0  0  0  0  0
  1  2  2  0
  2  3  1  0
  3  4  2  0
  4  5  1  0
  5  6  2  0
  5  7  1  0
  7  8  1  0
  8  9  1  0
  9 10  1  0
 10 11  2  0
 11 12  1  0
 12 13  1  0
 13 14  1  0
 14 15  1  0
 15 16  1  0
 16 17  1  0
 17 18  1  0
 18 19  1  0
 19 20  1  0
 20 21  1  0
 12 22  2  0
 22 23  1  0
 23 24  1  0
 24 25  1  0
 25 26  1  0
 26 27  1  0
 27 28  2  0
 28 29  1  0
 29 30  2  0
 30 31  1  0
 31 32  2  0
 32 33  1  0
 23 34  2  0
  9 35  1  0
  6  1  1  0
 34 10  1  0
 35  4  1  0
 21 16  1  0
 33 24  1  0
 32 27  1  0
  1 36  1  0
  2 37  1  0
  3 38  1  0
  6 39  1  0
  7 40  1  0
  7 41  1  0
  8 42  1  0
  8 43  1  0
 11 44  1  0
 13 45  1  0
 14 46  1  0
 14 47  1  0
 15 48  1  0
 15 49  1  0
 16 50  1  1
 17 51  1  0
 17 52  1  0
 18 53  1  0
 18 54  1  0
 19 55  1  0
 19 56  1  0
 20 57  1  0
 20 58  1  0
 21 59  1  0
 25 60  1  0
 25 61  1  0
 26 62  1  0
 26 63  1  0
 28 64  1  0
 29 65  1  0
 30 66  1  0
 31 67  1  0
 33 68  1  0
 33 69  1  0
 35 70  1  0
 35 71  1  0
M  END
>  <UniqueID>  (49) 
587

>  <SMILES>  (49) 
c1ccc2c(c1)CCN(c1cc(NCC[C@H]3CCCCN3)nc(N3CCc4ccccc4C3)n1)C2

>  <Energy>  (49) 
84.83726583118538

>  <Genealogy>  (49) 
c1ccc2c(c1)CCN(c1cc(NCC[C@H]3CCCCN3)nc(N3CCc4ccccc4C3)n1)C2 (chirality)
c1ccc2c(c1)CCN(c1cc(NCC[C@H]3CCCCN3)nc(N3CCc4ccccc4C3)n1)C2 (3D coordinates assigned)
c1ccc2c(c1)CCN(c1cc(NCC[C@H]3CCCCN3)nc(N3CCc4ccccc4C3)n1)C2 (nonaromatic ring conformer: 84.83726583118538 kcal/mol)

>  <smiles>  (49) 
c1ccc2c(c1)CCN(c1cc(NCCC3CCCCN3)nc(N3CCc4ccccc4C3)n1)C2

>  <score_type>  (49) 
oracle

>  <origin>  (49) 
autodockgpu

>  <m_score__min__energy>  (49) 
-10.380000000000001

>  <m_primary>  (49) 
energy

>  <meeko>  (49) 
{"free_energy": -8.81, "intermolecular_energy": -10.6, "internal_energy": -2.27, "cluster_size": 5, "cluster_id": 5, "rank_in_cluster": 5}

>  <energy>  (49) 
-10.06

>  <cluster_rmsd>  (49) 
0.0

>  <rmsd>  (49) 
269.76

>  <cluster>  (49) 
2

$$$$
VOUYAFWJUZHTKY-RNPWZEQVNA-N
     RDKit          3D

 71 76  0  0  0  0  0  0  0  0999 V2000
  142.2190   80.9320  222.6010 C   0  0  0  0  0  0  0  0  0  0  0  0
  142.0260   80.2770  223.8220 C   0  0  0  0  0  0  0  0  0  0  0  0
  141.5450   78.9660  223.8470 C   0  0  0  0  0  0  0  0  0  0  0  0
  141.2540   78.2940  222.6520 C   0  0  0  0  0  0  0  0  0  0  0  0
  141.4190   78.9660  221.4160 C   0  0  0  0  0  0  0  0  0  0  0  0
  141.9170   80.2830  221.4030 C   0  0  0  0  0  0  0  0  0  0  0  0
  141.1510   78.2680  220.1050 C   0  0  0  0  0  0  0  0  0  0  0  0
  140.1710   77.1100  220.2830 C   0  0  0  0  0  0  0  0  0  0  0  0
  140.6280   76.2680  221.3930 N   0  0  0  0  0  0  0  0  0  0  0  0
  140.7340   74.8370  221.2580 C   0  0  0  0  0  0  0  0  0  0  0  0
  141.3880   74.2640  220.1610 C   0  0  0  0  0  0  0  0  0  0  0  0
  141.4620   72.8660  220.0730 C   0  0  0  0  0  0  0  0  0  0  0  0
  142.1070   72.2110  218.9700 N   0  0  0  0  0  0  0  0  0  0  0  0
  142.1740   72.7860  217.6230 C   0  0  0  0  0  0  0  0  0  0  0  0
  143.2370   73.8960  217.5770 C   0  0  0  0  0  0  0  0  0  0  0  0
  144.4730   73.5640  218.4340 C   0  0  1  0  0  0  0  0  0  0  0  0
  144.3210   74.1870  219.8370 C   0  0  0  0  0  0  0  0  0  0  0  0
  145.5740   73.9340  220.6970 C   0  0  0  0  0  0  0  0  0  0  0  0
  146.3160   72.6470  220.2960 C   0  0  0  0  0  0  0  0  0  0  0  0
  145.3470   71.6090  219.7170 C   0  0  0  0  0  0  0  0  0  0  0  0
  144.6580   72.0930  218.5020 N   0  0  0  0  0  0  0  0  0  0  0  0
  140.9210   72.1090  221.0640 N   0  0  0  0  0  0  0  0  0  0  0  0
  140.3200   72.6700  222.1470 C   0  0  0  0  0  0  0  0  0  0  0  0
  139.8070   71.8360  223.2090 N   0  0  0  0  0  0  0  0  0  0  0  0
  138.6220   70.9960  222.9380 C   0  0  0  0  0  0  0  0  0  0  0  0
  138.0240   70.3800  224.2100 C   0  0  0  0  0  0  0  0  0  0  0  0
  139.1050   69.8000  225.0690 C   0  0  0  0  0  0  0  0  0  0  0  0
  138.9150   68.5890  225.7550 C   0  0  0  0  0  0  0  0  0  0  0  0
  139.9210   68.0940  226.5940 C   0  0  0  0  0  0  0  0  0  0  0  0
  141.1050   68.8180  226.7680 C   0  0  0  0  0  0  0  0  0  0  0  0
  141.2940   70.0290  226.0970 C   0  0  0  0  0  0  0  0  0  0  0  0
  140.2990   70.5220  225.2370 C   0  0  0  0  0  0  0  0  0  0  0  0
  140.4740   71.8370  224.5270 C   0  0  0  0  0  0  0  0  0  0  0  0
  140.2320   74.0270  222.2300 N   0  0  0  0  0  0  0  0  0  0  0  0
  140.7070   76.8850  222.7220 C   0  0  0  0  0  0  0  0  0  0  0  0
  142.6094   81.9603  222.5852 H   0  0  0  0  0  0  0  0  0  0  0  0
  142.2537   80.7959  224.7648 H   0  0  0  0  0  0  0  0  0  0  0  0
  141.3936   78.4577  224.8107 H   0  0  0  0  0  0  0  0  0  0  0  0
  142.0686   80.8022  220.4451 H   0  0  0  0  0  0  0  0  0  0  0  0
  140.7253   78.9916  219.3942 H   0  0  0  0  0  0  0  0  0  0  0  0
  142.1013   77.8635  219.7264 H   0  0  0  0  0  0  0  0  0  0  0  0
  139.1692   77.5051  220.5073 H   0  0  0  0  0  0  0  0  0  0  0  0
  140.1244   76.5155  219.3587 H   0  0  0  0  0  0  0  0  0  0  0  0
  141.8358   74.8986  219.3820 H   0  0  0  0  0  0  0  0  0  0  0  0
  142.7620   71.4250  219.1840 H   0  0  0  0  0  0  0  0  0  0  0  0
  142.4393   71.9976  216.9032 H   0  0  0  0  0  0  0  0  0  0  0  0
  141.1942   73.2136  217.3639 H   0  0  0  0  0  0  0  0  0  0  0  0
  143.5577   74.0345  216.5339 H   0  0  0  0  0  0  0  0  0  0  0  0
  142.7830   74.8111  217.9851 H   0  0  0  0  0  0  0  0  0  0  0  0
  145.3732   73.9950  217.9715 H   0  0  0  0  0  0  0  0  0  0  0  0
  144.1696   75.2716  219.7336 H   0  0  0  0  0  0  0  0  0  0  0  0
  143.4573   73.7208  220.3337 H   0  0  0  0  0  0  0  0  0  0  0  0
  146.2592   74.7866  220.5809 H   0  0  0  0  0  0  0  0  0  0  0  0
  145.2447   73.8179  221.7401 H   0  0  0  0  0  0  0  0  0  0  0  0
  147.0755   72.8913  219.5387 H   0  0  0  0  0  0  0  0  0  0  0  0
  146.7882   72.2217  221.1938 H   0  0  0  0  0  0  0  0  0  0  0  0
  145.9134   70.7008  219.4631 H   0  0  0  0  0  0  0  0  0  0  0  0
  144.5792   71.4074  220.4785 H   0  0  0  0  0  0  0  0  0  0  0  0
  145.2140   71.7930  217.6710 H   0  0  0  0  0  0  0  0  0  0  0  0
  137.8541   71.6177  222.4545 H   0  0  0  0  0  0  0  0  0  0  0  0
  138.9452   70.1678  222.2903 H   0  0  0  0  0  0  0  0  0  0  0  0
  137.4921   71.1599  224.7746 H   0  0  0  0  0  0  0  0  0  0  0  0
  137.3276   69.5780  223.9239 H   0  0  0  0  0  0  0  0  0  0  0  0
  137.9758   68.0294  225.6331 H   0  0  0  0  0  0  0  0  0  0  0  0
  139.7801   67.1361  227.1160 H   0  0  0  0  0  0  0  0  0  0  0  0
  141.8900   68.4328  227.4353 H   0  0  0  0  0  0  0  0  0  0  0  0
  142.2243   70.5976  226.2427 H   0  0  0  0  0  0  0  0  0  0  0  0
  140.0412   72.6371  225.1455 H   0  0  0  0  0  0  0  0  0  0  0  0
  141.5499   72.0019  224.3681 H   0  0  0  0  0  0  0  0  0  0  0  0
  139.6992   76.9151  223.1618 H   0  0  0  0  0  0  0  0  0  0  0  0
  141.3885   76.2824  223.3404 H   0  0  0  0  0  0  0  0  0  0  0  0
  1  2  2  0
  2  3  1  0
  3  4  2  0
  4  5  1  0
  5  6  2  0
  5  7  1  0
  7  8  1  0
  8  9  1  0
  9 10  1  0
 10 11  2  0
 11 12  1  0
 12 13  1  0
 13 14  1  0
 14 15  1  0
 15 16  1  0
 16 17  1  0
 17 18  1  0
 18 19  1  0
 19 20  1  0
 20 21  1  0
 12 22  2  0
 22 23  1  0
 23 24  1  0
 24 25  1  0
 25 26  1  0
 26 27  1  0
 27 28  2  0
 28 29  1  0
 29 30  2  0
 30 31  1  0
 31 32  2  0
 32 33  1  0
 23 34  2  0
  9 35  1  0
  6  1  1  0
 34 10  1  0
 35  4  1  0
 21 16  1  0
 33 24  1  0
 32 27  1  0
  1 36  1  0
  2 37  1  0
  3 38  1  0
  6 39  1  0
  7 40  1  0
  7 41  1  0
  8 42  1  0
  8 43  1  0
 11 44  1  0
 13 45  1  0
 14 46  1  0
 14 47  1  0
 15 48  1  0
 15 49  1  0
 16 50  1  6
 17 51  1  0
 17 52  1  0
 18 53  1  0
 18 54  1  0
 19 55  1  0
 19 56  1  0
 20 57  1  0
 20 58  1  0
 21 59  1  0
 25 60  1  0
 25 61  1  0
 26 62  1  0
 26 63  1  0
 28 64  1  0
 29 65  1  0
 30 66  1  0
 31 67  1  0
 33 68  1  0
 33 69  1  0
 35 70  1  0
 35 71  1  0
M  END
>  <UniqueID>  (50) 
587

>  <SMILES>  (50) 
c1ccc2c(c1)CCN(c1cc(NCC[C@H]3CCCCN3)nc(N3CCc4ccccc4C3)n1)C2

>  <Energy>  (50) 
84.83726583118538

>  <Genealogy>  (50) 
c1ccc2c(c1)CCN(c1cc(NCC[C@H]3CCCCN3)nc(N3CCc4ccccc4C3)n1)C2 (chirality)
c1ccc2c(c1)CCN(c1cc(NCC[C@H]3CCCCN3)nc(N3CCc4ccccc4C3)n1)C2 (3D coordinates assigned)
c1ccc2c(c1)CCN(c1cc(NCC[C@H]3CCCCN3)nc(N3CCc4ccccc4C3)n1)C2 (nonaromatic ring conformer: 84.83726583118538 kcal/mol)

>  <smiles>  (50) 
c1ccc2c(c1)CCN(c1cc(NCCC3CCCCN3)nc(N3CCc4ccccc4C3)n1)C2

>  <score_type>  (50) 
oracle

>  <origin>  (50) 
autodockgpu

>  <m_score__min__energy>  (50) 
-10.380000000000001

>  <m_primary>  (50) 
energy

>  <meeko>  (50) 
{"free_energy": -9.56, "intermolecular_energy": -11.35, "internal_energy": -1.65, "cluster_size": 8, "cluster_id": 1, "rank_in_cluster": 5}

>  <energy>  (50) 
-9.91

>  <cluster_rmsd>  (50) 
1.11

>  <rmsd>  (50) 
269.83

>  <cluster>  (50) 
2

$$$$
VOUYAFWJUZHTKY-RNPWZEQVNA-N
     RDKit          3D

 71 76  0  0  0  0  0  0  0  0999 V2000
  132.2460   73.6880  227.3830 C   0  0  0  0  0  0  0  0  0  0  0  0
  132.1980   72.2950  227.5090 C   0  0  0  0  0  0  0  0  0  0  0  0
  133.0290   71.4900  226.7280 C   0  0  0  0  0  0  0  0  0  0  0  0
  133.9210   72.0690  225.8140 C   0  0  0  0  0  0  0  0  0  0  0  0
  133.9490   73.4770  225.6620 C   0  0  0  0  0  0  0  0  0  0  0  0
  133.1150   74.2780  226.4650 C   0  0  0  0  0  0  0  0  0  0  0  0
  134.9180   74.1420  224.7150 C   0  0  0  0  0  0  0  0  0  0  0  0
  135.3470   73.1890  223.6010 C   0  0  0  0  0  0  0  0  0  0  0  0
  135.7790   71.9230  224.1990 N   0  0  0  0  0  0  0  0  0  0  0  0
  137.0300   71.3060  223.8340 C   0  0  0  0  0  0  0  0  0  0  0  0
  137.3120   69.9840  224.1960 C   0  0  0  0  0  0  0  0  0  0  0  0
  138.5450   69.4290  223.8200 C   0  0  0  0  0  0  0  0  0  0  0  0
  138.9050   68.0830  224.1670 N   0  0  0  0  0  0  0  0  0  0  0  0
  139.7370   67.7470  225.3270 C   0  0  0  0  0  0  0  0  0  0  0  0
  139.1970   68.4520  226.5830 C   0  0  0  0  0  0  0  0  0  0  0  0
  139.6970   69.9030  226.7050 C   0  0  1  0  0  0  0  0  0  0  0  0
  140.2090   70.1620  228.1370 C   0  0  0  0  0  0  0  0  0  0  0  0
  140.6500   71.6280  228.3140 C   0  0  0  0  0  0  0  0  0  0  0  0
  141.1270   72.2640  226.9960 C   0  0  0  0  0  0  0  0  0  0  0  0
  141.7250   71.2080  226.0570 C   0  0  0  0  0  0  0  0  0  0  0  0
  140.7480   70.1610  225.6900 N   0  0  0  0  0  0  0  0  0  0  0  0
  139.4190   70.1790  223.0970 N   0  0  0  0  0  0  0  0  0  0  0  0
  139.1240   71.4510  222.7170 C   0  0  0  0  0  0  0  0  0  0  0  0
  140.0510   72.1990  221.9000 N   0  0  0  0  0  0  0  0  0  0  0  0
  139.9490   73.6740  221.8860 C   0  0  0  0  0  0  0  0  0  0  0  0
  140.7980   74.3200  220.7830 C   0  0  0  0  0  0  0  0  0  0  0  0
  142.1690   73.7190  220.7570 C   0  0  0  0  0  0  0  0  0  0  0  0
  143.3050   74.5110  220.5260 C   0  0  0  0  0  0  0  0  0  0  0  0
  144.5710   73.9180  220.4540 C   0  0  0  0  0  0  0  0  0  0  0  0
  144.7020   72.5310  220.5880 C   0  0  0  0  0  0  0  0  0  0  0  0
  143.5740   71.7360  220.8060 C   0  0  0  0  0  0  0  0  0  0  0  0
  142.3020   72.3260  220.9010 C   0  0  0  0  0  0  0  0  0  0  0  0
  141.0730   71.4840  221.1100 C   0  0  0  0  0  0  0  0  0  0  0  0
  137.9350   71.9990  223.0910 N   0  0  0  0  0  0  0  0  0  0  0  0
  134.7850   71.1620  224.9640 C   0  0  0  0  0  0  0  0  0  0  0  0
  131.5975   74.3187  228.0088 H   0  0  0  0  0  0  0  0  0  0  0  0
  131.5032   71.8330  228.2258 H   0  0  0  0  0  0  0  0  0  0  0  0
  132.9839   70.3957  226.8301 H   0  0  0  0  0  0  0  0  0  0  0  0
  133.1487   75.3732  226.3682 H   0  0  0  0  0  0  0  0  0  0  0  0
  134.4342   75.0224  224.2669 H   0  0  0  0  0  0  0  0  0  0  0  0
  135.8123   74.4369  225.2835 H   0  0  0  0  0  0  0  0  0  0  0  0
  134.4994   73.0072  222.9239 H   0  0  0  0  0  0  0  0  0  0  0  0
  136.1755   73.6329  223.0295 H   0  0  0  0  0  0  0  0  0  0  0  0
  136.5808   69.3908  224.7647 H   0  0  0  0  0  0  0  0  0  0  0  0
  138.3580   67.3040  223.7330 H   0  0  0  0  0  0  0  0  0  0  0  0
  139.7201   66.6585  225.4845 H   0  0  0  0  0  0  0  0  0  0  0  0
  140.7684   68.0808  225.1406 H   0  0  0  0  0  0  0  0  0  0  0  0
  138.0980   68.4601  226.5380 H   0  0  0  0  0  0  0  0  0  0  0  0
  139.5616   67.8977  227.4604 H   0  0  0  0  0  0  0  0  0  0  0  0
  138.8674   70.5995  226.5138 H   0  0  0  0  0  0  0  0  0  0  0  0
  139.4027   69.9409  228.8519 H   0  0  0  0  0  0  0  0  0  0  0  0
  141.0777   69.5123  228.3194 H   0  0  0  0  0  0  0  0  0  0  0  0
  139.7981   72.2086  228.6977 H   0  0  0  0  0  0  0  0  0  0  0  0
  141.4968   71.6395  229.0160 H   0  0  0  0  0  0  0  0  0  0  0  0
  140.2713   72.7437  226.4984 H   0  0  0  0  0  0  0  0  0  0  0  0
  141.9054   73.0058  227.2280 H   0  0  0  0  0  0  0  0  0  0  0  0
  142.0699   71.7065  225.1391 H   0  0  0  0  0  0  0  0  0  0  0  0
  142.5558   70.7198  226.5876 H   0  0  0  0  0  0  0  0  0  0  0  0
  140.2830   70.4480  224.8010 H   0  0  0  0  0  0  0  0  0  0  0  0
  138.8966   73.9517  221.7271 H   0  0  0  0  0  0  0  0  0  0  0  0
  140.3273   74.0406  222.8517 H   0  0  0  0  0  0  0  0  0  0  0  0
  140.3124   74.1562  219.8097 H   0  0  0  0  0  0  0  0  0  0  0  0
  140.8856   75.3975  220.9865 H   0  0  0  0  0  0  0  0  0  0  0  0
  143.2001   75.5989  220.4014 H   0  0  0  0  0  0  0  0  0  0  0  0
  145.4624   74.5418  220.2922 H   0  0  0  0  0  0  0  0  0  0  0  0
  145.6963   72.0653  220.5215 H   0  0  0  0  0  0  0  0  0  0  0  0
  143.6818   70.6456  220.9035 H   0  0  0  0  0  0  0  0  0  0  0  0
  140.6481   71.2234  220.1294 H   0  0  0  0  0  0  0  0  0  0  0  0
  141.3658   70.5803  221.6646 H   0  0  0  0  0  0  0  0  0  0  0  0
  134.1414   70.6102  224.2631 H   0  0  0  0  0  0  0  0  0  0  0  0
  135.3206   70.4720  225.6326 H   0  0  0  0  0  0  0  0  0  0  0  0
  1  2  2  0
  2  3  1  0
  3  4  2  0
  4  5  1  0
  5  6  2  0
  5  7  1  0
  7  8  1  0
  8  9  1  0
  9 10  1  0
 10 11  2  0
 11 12  1  0
 12 13  1  0
 13 14  1  0
 14 15  1  0
 15 16  1  0
 16 17  1  0
 17 18  1  0
 18 19  1  0
 19 20  1  0
 20 21  1  0
 12 22  2  0
 22 23  1  0
 23 24  1  0
 24 25  1  0
 25 26  1  0
 26 27  1  0
 27 28  2  0
 28 29  1  0
 29 30  2  0
 30 31  1  0
 31 32  2  0
 32 33  1  0
 23 34  2  0
  9 35  1  0
  6  1  1  0
 34 10  1  0
 35  4  1  0
 21 16  1  0
 33 24  1  0
 32 27  1  0
  1 36  1  0
  2 37  1  0
  3 38  1  0
  6 39  1  0
  7 40  1  0
  7 41  1  0
  8 42  1  0
  8 43  1  0
 11 44  1  0
 13 45  1  0
 14 46  1  0
 14 47  1  0
 15 48  1  0
 15 49  1  0
 16 50  1  6
 17 51  1  0
 17 52  1  0
 18 53  1  0
 18 54  1  0
 19 55  1  0
 19 56  1  0
 20 57  1  0
 20 58  1  0
 21 59  1  0
 25 60  1  0
 25 61  1  0
 26 62  1  0
 26 63  1  0
 28 64  1  0
 29 65  1  0
 30 66  1  0
 31 67  1  0
 33 68  1  0
 33 69  1  0
 35 70  1  0
 35 71  1  0
M  END
>  <UniqueID>  (51) 
587

>  <SMILES>  (51) 
c1ccc2c(c1)CCN(c1cc(NCC[C@H]3CCCCN3)nc(N3CCc4ccccc4C3)n1)C2

>  <Energy>  (51) 
84.83726583118538

>  <Genealogy>  (51) 
c1ccc2c(c1)CCN(c1cc(NCC[C@H]3CCCCN3)nc(N3CCc4ccccc4C3)n1)C2 (chirality)
c1ccc2c(c1)CCN(c1cc(NCC[C@H]3CCCCN3)nc(N3CCc4ccccc4C3)n1)C2 (3D coordinates assigned)
c1ccc2c(c1)CCN(c1cc(NCC[C@H]3CCCCN3)nc(N3CCc4ccccc4C3)n1)C2 (nonaromatic ring conformer: 84.83726583118538 kcal/mol)

>  <smiles>  (51) 
c1ccc2c(c1)CCN(c1cc(NCCC3CCCCN3)nc(N3CCc4ccccc4C3)n1)C2

>  <score_type>  (51) 
oracle

>  <origin>  (51) 
autodockgpu

>  <m_score__min__energy>  (51) 
-10.380000000000001

>  <m_primary>  (51) 
energy

>  <meeko>  (51) 
{"free_energy": -8.73, "intermolecular_energy": -10.52, "internal_energy": -2.16, "cluster_size": 1, "cluster_id": 6, "rank_in_cluster": 1}

>  <energy>  (51) 
-9.9

>  <cluster_rmsd>  (51) 
0.0

>  <rmsd>  (51) 
269.62

>  <cluster>  (51) 
3

$$$$
VOUYAFWJUZHTKY-RNPWZEQVNA-N
     RDKit          3D

 71 76  0  0  0  0  0  0  0  0999 V2000
  140.2510   68.7700  227.3330 C   0  0  0  0  0  0  0  0  0  0  0  0
  141.0070   69.9190  227.5890 C   0  0  0  0  0  0  0  0  0  0  0  0
  141.1060   70.9230  226.6230 C   0  0  0  0  0  0  0  0  0  0  0  0
  140.4480   70.7910  225.3920 C   0  0  0  0  0  0  0  0  0  0  0  0
  139.7090   69.6150  225.1190 C   0  0  0  0  0  0  0  0  0  0  0  0
  139.6050   68.6150  226.1050 C   0  0  0  0  0  0  0  0  0  0  0  0
  138.9560   69.4480  223.8210 C   0  0  0  0  0  0  0  0  0  0  0  0
  139.5610   70.3110  222.7150 C   0  0  0  0  0  0  0  0  0  0  0  0
  139.7150   71.6810  223.2120 N   0  0  0  0  0  0  0  0  0  0  0  0
  139.2450   72.8130  222.4550 C   0  0  0  0  0  0  0  0  0  0  0  0
  137.9580   72.8250  221.9030 C   0  0  0  0  0  0  0  0  0  0  0  0
  137.5470   73.9500  221.1720 C   0  0  0  0  0  0  0  0  0  0  0  0
  136.2460   74.0250  220.5680 N   0  0  0  0  0  0  0  0  0  0  0  0
  135.1860   74.9140  221.0530 C   0  0  0  0  0  0  0  0  0  0  0  0
  135.2320   76.2510  220.2940 C   0  0  0  0  0  0  0  0  0  0  0  0
  136.4330   77.1210  220.7090 C   0  0  1  0  0  0  0  0  0  0  0  0
  136.2120   78.5760  220.2430 C   0  0  0  0  0  0  0  0  0  0  0  0
  137.4300   79.4590  220.5770 C   0  0  0  0  0  0  0  0  0  0  0  0
  138.2050   78.9540  221.8080 C   0  0  0  0  0  0  0  0  0  0  0  0
  137.2750   78.2230  222.7850 C   0  0  0  0  0  0  0  0  0  0  0  0
  136.6340   77.0380  222.1760 N   0  0  0  0  0  0  0  0  0  0  0  0
  138.3970   75.0030  221.0400 N   0  0  0  0  0  0  0  0  0  0  0  0
  139.6310   75.0030  221.6100 C   0  0  0  0  0  0  0  0  0  0  0  0
  140.4850   76.1620  221.4990 N   0  0  0  0  0  0  0  0  0  0  0  0
  140.7420   76.7240  220.1560 C   0  0  0  0  0  0  0  0  0  0  0  0
  141.8670   77.7680  220.1510 C   0  0  0  0  0  0  0  0  0  0  0  0
  141.6940   78.7300  221.2850 C   0  0  0  0  0  0  0  0  0  0  0  0
  141.9640   80.0980  221.1230 C   0  0  0  0  0  0  0  0  0  0  0  0
  141.8450   80.9700  222.2120 C   0  0  0  0  0  0  0  0  0  0  0  0
  141.4820   80.4740  223.4690 C   0  0  0  0  0  0  0  0  0  0  0  0
  141.2240   79.1100  223.6390 C   0  0  0  0  0  0  0  0  0  0  0  0
  141.3200   78.2330  222.5460 C   0  0  0  0  0  0  0  0  0  0  0  0
  141.0720   76.7580  222.7160 C   0  0  0  0  0  0  0  0  0  0  0  0
  140.0400   73.9080  222.3080 N   0  0  0  0  0  0  0  0  0  0  0  0
  140.6040   71.8880  224.3610 C   0  0  0  0  0  0  0  0  0  0  0  0
  140.1654   67.9870  228.1008 H   0  0  0  0  0  0  0  0  0  0  0  0
  141.5245   70.0320  228.5531 H   0  0  0  0  0  0  0  0  0  0  0  0
  141.7040   71.8229  226.8293 H   0  0  0  0  0  0  0  0  0  0  0  0
  139.0131   67.7092  225.9071 H   0  0  0  0  0  0  0  0  0  0  0  0
  138.9979   68.3921  223.5154 H   0  0  0  0  0  0  0  0  0  0  0  0
  137.9148   69.7654  223.9796 H   0  0  0  0  0  0  0  0  0  0  0  0
  140.5444   69.9092  222.4294 H   0  0  0  0  0  0  0  0  0  0  0  0
  138.9007   70.3059  221.8352 H   0  0  0  0  0  0  0  0  0  0  0  0
  137.2818   71.9683  222.0400 H   0  0  0  0  0  0  0  0  0  0  0  0
  136.1290   73.6240  219.6090 H   0  0  0  0  0  0  0  0  0  0  0  0
  134.2082   74.4369  220.8913 H   0  0  0  0  0  0  0  0  0  0  0  0
  135.3363   75.1029  222.1262 H   0  0  0  0  0  0  0  0  0  0  0  0
  135.3022   76.0430  219.2161 H   0  0  0  0  0  0  0  0  0  0  0  0
  134.3149   76.8070  220.5385 H   0  0  0  0  0  0  0  0  0  0  0  0
  137.3470   76.7477  220.2240 H   0  0  0  0  0  0  0  0  0  0  0  0
  136.0508   78.5837  219.1549 H   0  0  0  0  0  0  0  0  0  0  0  0
  135.3340   78.9804  220.7680 H   0  0  0  0  0  0  0  0  0  0  0  0
  138.1087   79.4658  219.7113 H   0  0  0  0  0  0  0  0  0  0  0  0
  137.0579   80.4682  220.8074 H   0  0  0  0  0  0  0  0  0  0  0  0
  138.9936   78.2622  221.4770 H   0  0  0  0  0  0  0  0  0  0  0  0
  138.6427   79.8208  222.3248 H   0  0  0  0  0  0  0  0  0  0  0  0
  137.8632   77.8977  223.6557 H   0  0  0  0  0  0  0  0  0  0  0  0
  136.4774   78.9229  223.0749 H   0  0  0  0  0  0  0  0  0  0  0  0
  137.2290   76.2050  222.3800 H   0  0  0  0  0  0  0  0  0  0  0  0
  141.0220   75.9030  219.4796 H   0  0  0  0  0  0  0  0  0  0  0  0
  139.8215   77.2289  219.8276 H   0  0  0  0  0  0  0  0  0  0  0  0
  142.8356   77.2570  220.2542 H   0  0  0  0  0  0  0  0  0  0  0  0
  141.8315   78.3250  219.2031 H   0  0  0  0  0  0  0  0  0  0  0  0
  142.2693   80.4852  220.1397 H   0  0  0  0  0  0  0  0  0  0  0  0
  142.0369   82.0450  222.0794 H   0  0  0  0  0  0  0  0  0  0  0  0
  141.3993   81.1588  224.3259 H   0  0  0  0  0  0  0  0  0  0  0  0
  140.9454   78.7233  224.6304 H   0  0  0  0  0  0  0  0  0  0  0  0
  142.0274   76.2580  222.9333 H   0  0  0  0  0  0  0  0  0  0  0  0
  140.3604   76.6217  223.5437 H   0  0  0  0  0  0  0  0  0  0  0  0
  141.6459   71.9007  224.0083 H   0  0  0  0  0  0  0  0  0  0  0  0
  140.3373   72.8446  224.8340 H   0  0  0  0  0  0  0  0  0  0  0  0
  1  2  2  0
  2  3  1  0
  3  4  2  0
  4  5  1  0
  5  6  2  0
  5  7  1  0
  7  8  1  0
  8  9  1  0
  9 10  1  0
 10 11  2  0
 11 12  1  0
 12 13  1  0
 13 14  1  0
 14 15  1  0
 15 16  1  0
 16 17  1  0
 17 18  1  0
 18 19  1  0
 19 20  1  0
 20 21  1  0
 12 22  2  0
 22 23  1  0
 23 24  1  0
 24 25  1  0
 25 26  1  0
 26 27  1  0
 27 28  2  0
 28 29  1  0
 29 30  2  0
 30 31  1  0
 31 32  2  0
 32 33  1  0
 23 34  2  0
  9 35  1  0
  6  1  1  0
 34 10  1  0
 35  4  1  0
 21 16  1  0
 33 24  1  0
 32 27  1  0
  1 36  1  0
  2 37  1  0
  3 38  1  0
  6 39  1  0
  7 40  1  0
  7 41  1  0
  8 42  1  0
  8 43  1  0
 11 44  1  0
 13 45  1  0
 14 46  1  0
 14 47  1  0
 15 48  1  0
 15 49  1  0
 16 50  1  6
 17 51  1  0
 17 52  1  0
 18 53  1  0
 18 54  1  0
 19 55  1  0
 19 56  1  0
 20 57  1  0
 20 58  1  0
 21 59  1  0
 25 60  1  0
 25 61  1  0
 26 62  1  0
 26 63  1  0
 28 64  1  0
 29 65  1  0
 30 66  1  0
 31 67  1  0
 33 68  1  0
 33 69  1  0
 35 70  1  0
 35 71  1  0
M  END
>  <UniqueID>  (52) 
587

>  <SMILES>  (52) 
c1ccc2c(c1)CCN(c1cc(NCC[C@H]3CCCCN3)nc(N3CCc4ccccc4C3)n1)C2

>  <Energy>  (52) 
84.83726583118538

>  <Genealogy>  (52) 
c1ccc2c(c1)CCN(c1cc(NCC[C@H]3CCCCN3)nc(N3CCc4ccccc4C3)n1)C2 (chirality)
c1ccc2c(c1)CCN(c1cc(NCC[C@H]3CCCCN3)nc(N3CCc4ccccc4C3)n1)C2 (3D coordinates assigned)
c1ccc2c(c1)CCN(c1cc(NCC[C@H]3CCCCN3)nc(N3CCc4ccccc4C3)n1)C2 (nonaromatic ring conformer: 84.83726583118538 kcal/mol)

>  <smiles>  (52) 
c1ccc2c(c1)CCN(c1cc(NCCC3CCCCN3)nc(N3CCc4ccccc4C3)n1)C2

>  <score_type>  (52) 
oracle

>  <origin>  (52) 
autodockgpu

>  <m_score__min__energy>  (52) 
-10.380000000000001

>  <m_primary>  (52) 
energy

>  <meeko>  (52) 
{"free_energy": -7.96, "intermolecular_energy": -9.75, "internal_energy": -2.71, "cluster_size": 3, "cluster_id": 4, "rank_in_cluster": 3}

>  <energy>  (52) 
-9.44

>  <cluster_rmsd>  (52) 
0.0

>  <rmsd>  (52) 
269.25

>  <cluster>  (52) 
4

$$$$
VOUYAFWJUZHTKY-RNPWZEQVNA-N
     RDKit          3D

 71 76  0  0  0  0  0  0  0  0999 V2000
  146.1180   70.0130  217.1050 C   0  0  0  0  0  0  0  0  0  0  0  0
  145.8710   69.1980  218.2150 C   0  0  0  0  0  0  0  0  0  0  0  0
  145.1480   69.6930  219.3030 C   0  0  0  0  0  0  0  0  0  0  0  0
  144.6600   71.0070  219.2910 C   0  0  0  0  0  0  0  0  0  0  0  0
  144.9350   71.8440  218.1820 C   0  0  0  0  0  0  0  0  0  0  0  0
  145.6540   71.3300  217.0860 C   0  0  0  0  0  0  0  0  0  0  0  0
  144.3990   73.2530  218.1130 C   0  0  0  0  0  0  0  0  0  0  0  0
  144.1190   73.8080  219.5090 C   0  0  0  0  0  0  0  0  0  0  0  0
  143.3150   72.8360  220.2540 N   0  0  0  0  0  0  0  0  0  0  0  0
  142.1180   73.2280  220.9540 C   0  0  0  0  0  0  0  0  0  0  0  0
  141.2640   72.2700  221.5130 C   0  0  0  0  0  0  0  0  0  0  0  0
  140.1090   72.7020  222.1820 C   0  0  0  0  0  0  0  0  0  0  0  0
  139.1830   71.7740  222.7690 N   0  0  0  0  0  0  0  0  0  0  0  0
  139.2600   71.3370  224.1660 C   0  0  0  0  0  0  0  0  0  0  0  0
  140.7290   71.2800  224.6190 C   0  0  0  0  0  0  0  0  0  0  0  0
  140.9500   70.2820  225.7720 C   0  0  1  0  0  0  0  0  0  0  0  0
  140.6770   70.9740  227.1240 C   0  0  0  0  0  0  0  0  0  0  0  0
  140.9610   70.0220  228.3030 C   0  0  0  0  0  0  0  0  0  0  0  0
  140.7680   68.5420  227.9270 C   0  0  0  0  0  0  0  0  0  0  0  0
  139.7140   68.3850  226.8230 C   0  0  0  0  0  0  0  0  0  0  0  0
  140.0890   69.0900  225.5790 N   0  0  0  0  0  0  0  0  0  0  0  0
  139.8630   74.0350  222.2910 N   0  0  0  0  0  0  0  0  0  0  0  0
  140.7150   74.9630  221.7800 C   0  0  0  0  0  0  0  0  0  0  0  0
  140.4530   76.3710  221.9640 N   0  0  0  0  0  0  0  0  0  0  0  0
  139.1880   76.7750  222.6120 C   0  0  0  0  0  0  0  0  0  0  0  0
  138.9140   78.2810  222.4990 C   0  0  0  0  0  0  0  0  0  0  0  0
  140.1460   79.0650  222.8310 C   0  0  0  0  0  0  0  0  0  0  0  0
  140.0710   80.2570  223.5690 C   0  0  0  0  0  0  0  0  0  0  0  0
  141.2300   80.9990  223.8220 C   0  0  0  0  0  0  0  0  0  0  0  0
  142.4620   80.5660  223.3190 C   0  0  0  0  0  0  0  0  0  0  0  0
  142.5410   79.3860  222.5730 C   0  0  0  0  0  0  0  0  0  0  0  0
  141.3850   78.6250  222.3330 C   0  0  0  0  0  0  0  0  0  0  0  0
  141.4460   77.3660  221.5100 C   0  0  0  0  0  0  0  0  0  0  0  0
  141.8300   74.5490  221.1160 N   0  0  0  0  0  0  0  0  0  0  0  0
  143.9060   71.5160  220.5000 C   0  0  0  0  0  0  0  0  0  0  0  0
  146.6785   69.6158  216.2459 H   0  0  0  0  0  0  0  0  0  0  0  0
  146.2472   68.1645  218.2311 H   0  0  0  0  0  0  0  0  0  0  0  0
  144.9606   69.0480  220.1741 H   0  0  0  0  0  0  0  0  0  0  0  0
  145.8509   71.9680  216.2118 H   0  0  0  0  0  0  0  0  0  0  0  0
  145.1402   73.8946  217.6141 H   0  0  0  0  0  0  0  0  0  0  0  0
  143.4549   73.2387  217.5486 H   0  0  0  0  0  0  0  0  0  0  0  0
  145.0695   73.9813  220.0349 H   0  0  0  0  0  0  0  0  0  0  0  0
  143.5732   74.7597  219.4290 H   0  0  0  0  0  0  0  0  0  0  0  0
  141.4944   71.1977  221.4292 H   0  0  0  0  0  0  0  0  0  0  0  0
  138.2850   71.5950  222.2640 H   0  0  0  0  0  0  0  0  0  0  0  0
  138.7103   72.0475  224.8008 H   0  0  0  0  0  0  0  0  0  0  0  0
  138.8151   70.3350  224.2560 H   0  0  0  0  0  0  0  0  0  0  0  0
  141.3507   70.9754  223.7642 H   0  0  0  0  0  0  0  0  0  0  0  0
  141.0066   72.2801  224.9833 H   0  0  0  0  0  0  0  0  0  0  0  0
  141.9963   69.9424  225.7747 H   0  0  0  0  0  0  0  0  0  0  0  0
  141.3253   71.8582  227.2122 H   0  0  0  0  0  0  0  0  0  0  0  0
  139.6171   71.2662  227.1588 H   0  0  0  0  0  0  0  0  0  0  0  0
  142.0000   70.1694  228.6327 H   0  0  0  0  0  0  0  0  0  0  0  0
  140.2445   70.2591  229.1033 H   0  0  0  0  0  0  0  0  0  0  0  0
  141.7253   68.1343  227.5702 H   0  0  0  0  0  0  0  0  0  0  0  0
  140.4237   67.9973  228.8185 H   0  0  0  0  0  0  0  0  0  0  0  0
  139.5937   67.3147  226.5995 H   0  0  0  0  0  0  0  0  0  0  0  0
  138.7768   68.8290  227.1897 H   0  0  0  0  0  0  0  0  0  0  0  0
  140.5940   68.4160  224.9620 H   0  0  0  0  0  0  0  0  0  0  0  0
  138.3597   76.2307  222.1349 H   0  0  0  0  0  0  0  0  0  0  0  0
  139.2733   76.5342  223.6819 H   0  0  0  0  0  0  0  0  0  0  0  0
  138.6017   78.5159  221.4707 H   0  0  0  0  0  0  0  0  0  0  0  0
  138.1182   78.5519  223.2085 H   0  0  0  0  0  0  0  0  0  0  0  0
  139.1001   80.6080  223.9487 H   0  0  0  0  0  0  0  0  0  0  0  0
  141.1727   81.9228  224.4164 H   0  0  0  0  0  0  0  0  0  0  0  0
  143.3707   81.1555  223.5110 H   0  0  0  0  0  0  0  0  0  0  0  0
  143.5102   79.0530  222.1733 H   0  0  0  0  0  0  0  0  0  0  0  0
  141.2446   77.6170  220.4581 H   0  0  0  0  0  0  0  0  0  0  0  0
  142.4487   76.9284  221.6244 H   0  0  0  0  0  0  0  0  0  0  0  0
  144.6014   71.5893  221.3491 H   0  0  0  0  0  0  0  0  0  0  0  0
  143.0909   70.8103  220.7182 H   0  0  0  0  0  0  0  0  0  0  0  0
  1  2  2  0
  2  3  1  0
  3  4  2  0
  4  5  1  0
  5  6  2  0
  5  7  1  0
  7  8  1  0
  8  9  1  0
  9 10  1  0
 10 11  2  0
 11 12  1  0
 12 13  1  0
 13 14  1  0
 14 15  1  0
 15 16  1  0
 16 17  1  0
 17 18  1  0
 18 19  1  0
 19 20  1  0
 20 21  1  0
 12 22  2  0
 22 23  1  0
 23 24  1  0
 24 25  1  0
 25 26  1  0
 26 27  1  0
 27 28  2  0
 28 29  1  0
 29 30  2  0
 30 31  1  0
 31 32  2  0
 32 33  1  0
 23 34  2  0
  9 35  1  0
  6  1  1  0
 34 10  1  0
 35  4  1  0
 21 16  1  0
 33 24  1  0
 32 27  1  0
  1 36  1  0
  2 37  1  0
  3 38  1  0
  6 39  1  0
  7 40  1  0
  7 41  1  0
  8 42  1  0
  8 43  1  0
 11 44  1  0
 13 45  1  0
 14 46  1  0
 14 47  1  0
 15 48  1  0
 15 49  1  0
 16 50  1  1
 17 51  1  0
 17 52  1  0
 18 53  1  0
 18 54  1  0
 19 55  1  0
 19 56  1  0
 20 57  1  0
 20 58  1  0
 21 59  1  0
 25 60  1  0
 25 61  1  0
 26 62  1  0
 26 63  1  0
 28 64  1  0
 29 65  1  0
 30 66  1  0
 31 67  1  0
 33 68  1  0
 33 69  1  0
 35 70  1  0
 35 71  1  0
M  END
>  <UniqueID>  (53) 
587

>  <SMILES>  (53) 
c1ccc2c(c1)CCN(c1cc(NCC[C@H]3CCCCN3)nc(N3CCc4ccccc4C3)n1)C2

>  <Energy>  (53) 
84.83726583118538

>  <Genealogy>  (53) 
c1ccc2c(c1)CCN(c1cc(NCC[C@H]3CCCCN3)nc(N3CCc4ccccc4C3)n1)C2 (chirality)
c1ccc2c(c1)CCN(c1cc(NCC[C@H]3CCCCN3)nc(N3CCc4ccccc4C3)n1)C2 (3D coordinates assigned)
c1ccc2c(c1)CCN(c1cc(NCC[C@H]3CCCCN3)nc(N3CCc4ccccc4C3)n1)C2 (nonaromatic ring conformer: 84.83726583118538 kcal/mol)

>  <smiles>  (53) 
c1ccc2c(c1)CCN(c1cc(NCCC3CCCCN3)nc(N3CCc4ccccc4C3)n1)C2

>  <score_type>  (53) 
oracle

>  <origin>  (53) 
autodockgpu

>  <m_score__min__energy>  (53) 
-10.380000000000001

>  <m_primary>  (53) 
energy

>  <meeko>  (53) 
{"free_energy": -9.91, "intermolecular_energy": -11.7, "internal_energy": -0.97, "cluster_size": 2, "cluster_id": 2, "rank_in_cluster": 2}

>  <energy>  (53) 
-8.06

>  <cluster_rmsd>  (53) 
1.66

>  <rmsd>  (53) 
269.06

>  <cluster>  (53) 
4

$$$$
VOUYAFWJUZHTKY-RNPWZEQVNA-N
     RDKit          3D

 71 76  0  0  0  0  0  0  0  0999 V2000
  142.2090   80.8810  222.6410 C   0  0  0  0  0  0  0  0  0  0  0  0
  141.8080   80.2760  223.8380 C   0  0  0  0  0  0  0  0  0  0  0  0
  141.3890   78.9440  223.8460 C   0  0  0  0  0  0  0  0  0  0  0  0
  141.3690   78.2000  222.6580 C   0  0  0  0  0  0  0  0  0  0  0  0
  141.7440   78.8190  221.4400 C   0  0  0  0  0  0  0  0  0  0  0  0
  142.1770   80.1590  221.4470 C   0  0  0  0  0  0  0  0  0  0  0  0
  141.7700   78.0450  220.1450 C   0  0  0  0  0  0  0  0  0  0  0  0
  140.8260   76.8450  220.1970 C   0  0  0  0  0  0  0  0  0  0  0  0
  141.0920   76.0840  221.4220 N   0  0  0  0  0  0  0  0  0  0  0  0
  141.2850   74.6560  221.3940 C   0  0  0  0  0  0  0  0  0  0  0  0
  142.1550   74.0660  220.4700 C   0  0  0  0  0  0  0  0  0  0  0  0
  142.3070   72.6710  220.4800 C   0  0  0  0  0  0  0  0  0  0  0  0
  143.1740   71.9980  219.5530 N   0  0  0  0  0  0  0  0  0  0  0  0
  143.3800   72.4500  218.1740 C   0  0  0  0  0  0  0  0  0  0  0  0
  144.6550   71.8140  217.5960 C   0  0  0  0  0  0  0  0  0  0  0  0
  144.7860   70.3230  217.9610 C   0  0  1  0  0  0  0  0  0  0  0  0
  145.4050   69.5460  216.7800 C   0  0  0  0  0  0  0  0  0  0  0  0
  145.4820   68.0380  217.0850 C   0  0  0  0  0  0  0  0  0  0  0  0
  145.6010   67.7460  218.5920 C   0  0  0  0  0  0  0  0  0  0  0  0
  146.3130   68.8920  219.3220 C   0  0  0  0  0  0  0  0  0  0  0  0
  145.5910   70.1760  219.1990 N   0  0  0  0  0  0  0  0  0  0  0  0
  141.6260   71.9360  221.3990 N   0  0  0  0  0  0  0  0  0  0  0  0
  140.8110   72.5170  222.3190 C   0  0  0  0  0  0  0  0  0  0  0  0
  140.1490   71.7110  223.3170 N   0  0  0  0  0  0  0  0  0  0  0  0
  139.0810   70.7860  222.8840 C   0  0  0  0  0  0  0  0  0  0  0  0
  138.2840   70.2020  224.0580 C   0  0  0  0  0  0  0  0  0  0  0  0
  139.2100   69.7360  225.1390 C   0  0  0  0  0  0  0  0  0  0  0  0
  138.9550   68.5540  225.8530 C   0  0  0  0  0  0  0  0  0  0  0  0
  139.8060   68.1670  226.8950 C   0  0  0  0  0  0  0  0  0  0  0  0
  140.8980   68.9700  227.2410 C   0  0  0  0  0  0  0  0  0  0  0  0
  141.1500   70.1540  226.5410 C   0  0  0  0  0  0  0  0  0  0  0  0
  140.3120   70.5380  225.4810 C   0  0  0  0  0  0  0  0  0  0  0  0
  140.5520   71.8220  224.7340 C   0  0  0  0  0  0  0  0  0  0  0  0
  140.6490   73.8690  222.3040 N   0  0  0  0  0  0  0  0  0  0  0  0
  140.8810   76.7680  222.7020 C   0  0  0  0  0  0  0  0  0  0  0  0
  142.5498   81.9269  222.6415 H   0  0  0  0  0  0  0  0  0  0  0  0
  141.8230   80.8517  224.7752 H   0  0  0  0  0  0  0  0  0  0  0  0
  141.0728   78.4758  224.7898 H   0  0  0  0  0  0  0  0  0  0  0  0
  142.4911   80.6384  220.5081 H   0  0  0  0  0  0  0  0  0  0  0  0
  141.4607   78.7090  219.3243 H   0  0  0  0  0  0  0  0  0  0  0  0
  142.7931   77.6753  219.9817 H   0  0  0  0  0  0  0  0  0  0  0  0
  139.7833   77.1953  220.1990 H   0  0  0  0  0  0  0  0  0  0  0  0
  140.9887   76.2045  219.3177 H   0  0  0  0  0  0  0  0  0  0  0  0
  142.7096   74.6846  219.7490 H   0  0  0  0  0  0  0  0  0  0  0  0
  143.8680   71.3180  219.9400 H   0  0  0  0  0  0  0  0  0  0  0  0
  142.5157   72.1546  217.5611 H   0  0  0  0  0  0  0  0  0  0  0  0
  143.4873   73.5447  218.1655 H   0  0  0  0  0  0  0  0  0  0  0  0
  144.6313   71.9085  216.5003 H   0  0  0  0  0  0  0  0  0  0  0  0
  145.5181   72.3417  218.0279 H   0  0  0  0  0  0  0  0  0  0  0  0
  143.7898   69.8992  218.1559 H   0  0  0  0  0  0  0  0  0  0  0  0
  144.7847   69.6998  215.8847 H   0  0  0  0  0  0  0  0  0  0  0  0
  146.4258   69.9204  216.6134 H   0  0  0  0  0  0  0  0  0  0  0  0
  144.5711   67.5540  216.7029 H   0  0  0  0  0  0  0  0  0  0  0  0
  146.3852   67.6441  216.5961 H   0  0  0  0  0  0  0  0  0  0  0  0
  144.5930   67.6221  219.0146 H   0  0  0  0  0  0  0  0  0  0  0  0
  146.1913   66.8273  218.7243 H   0  0  0  0  0  0  0  0  0  0  0  0
  146.3952   68.6341  220.3882 H   0  0  0  0  0  0  0  0  0  0  0  0
  147.3029   69.0193  218.8595 H   0  0  0  0  0  0  0  0  0  0  0  0
  144.9530   70.2710  220.0190 H   0  0  0  0  0  0  0  0  0  0  0  0
  138.3884   71.3326  222.2271 H   0  0  0  0  0  0  0  0  0  0  0  0
  139.5634   69.9461  222.3625 H   0  0  0  0  0  0  0  0  0  0  0  0
  137.6154   70.9761  224.4626 H   0  0  0  0  0  0  0  0  0  0  0  0
  137.6964   69.3445  223.6982 H   0  0  0  0  0  0  0  0  0  0  0  0
  138.0859   67.9317  225.5933 H   0  0  0  0  0  0  0  0  0  0  0  0
  139.6160   67.2316  227.4417 H   0  0  0  0  0  0  0  0  0  0  0  0
  141.5603   68.6692  228.0661 H   0  0  0  0  0  0  0  0  0  0  0  0
  142.0059   70.7858  226.8209 H   0  0  0  0  0  0  0  0  0  0  0  0
  139.9695   72.6253  225.2088 H   0  0  0  0  0  0  0  0  0  0  0  0
  141.6288   72.0438  224.7688 H   0  0  0  0  0  0  0  0  0  0  0  0
  139.8060   76.7646  222.9351 H   0  0  0  0  0  0  0  0  0  0  0  0
  141.4534   76.2340  223.4748 H   0  0  0  0  0  0  0  0  0  0  0  0
  1  2  2  0
  2  3  1  0
  3  4  2  0
  4  5  1  0
  5  6  2  0
  5  7  1  0
  7  8  1  0
  8  9  1  0
  9 10  1  0
 10 11  2  0
 11 12  1  0
 12 13  1  0
 13 14  1  0
 14 15  1  0
 15 16  1  0
 16 17  1  0
 17 18  1  0
 18 19  1  0
 19 20  1  0
 20 21  1  0
 12 22  2  0
 22 23  1  0
 23 24  1  0
 24 25  1  0
 25 26  1  0
 26 27  1  0
 27 28  2  0
 28 29  1  0
 29 30  2  0
 30 31  1  0
 31 32  2  0
 32 33  1  0
 23 34  2  0
  9 35  1  0
  6  1  1  0
 34 10  1  0
 35  4  1  0
 21 16  1  0
 33 24  1  0
 32 27  1  0
  1 36  1  0
  2 37  1  0
  3 38  1  0
  6 39  1  0
  7 40  1  0
  7 41  1  0
  8 42  1  0
  8 43  1  0
 11 44  1  0
 13 45  1  0
 14 46  1  0
 14 47  1  0
 15 48  1  0
 15 49  1  0
 16 50  1  1
 17 51  1  0
 17 52  1  0
 18 53  1  0
 18 54  1  0
 19 55  1  0
 19 56  1  0
 20 57  1  0
 20 58  1  0
 21 59  1  0
 25 60  1  0
 25 61  1  0
 26 62  1  0
 26 63  1  0
 28 64  1  0
 29 65  1  0
 30 66  1  0
 31 67  1  0
 33 68  1  0
 33 69  1  0
 35 70  1  0
 35 71  1  0
M  END
>  <UniqueID>  (54) 
587

>  <SMILES>  (54) 
c1ccc2c(c1)CCN(c1cc(NCC[C@H]3CCCCN3)nc(N3CCc4ccccc4C3)n1)C2

>  <Energy>  (54) 
84.83726583118538

>  <Genealogy>  (54) 
c1ccc2c(c1)CCN(c1cc(NCC[C@H]3CCCCN3)nc(N3CCc4ccccc4C3)n1)C2 (chirality)
c1ccc2c(c1)CCN(c1cc(NCC[C@H]3CCCCN3)nc(N3CCc4ccccc4C3)n1)C2 (3D coordinates assigned)
c1ccc2c(c1)CCN(c1cc(NCC[C@H]3CCCCN3)nc(N3CCc4ccccc4C3)n1)C2 (nonaromatic ring conformer: 84.83726583118538 kcal/mol)

>  <smiles>  (54) 
c1ccc2c(c1)CCN(c1cc(NCCC3CCCCN3)nc(N3CCc4ccccc4C3)n1)C2

>  <score_type>  (54) 
oracle

>  <origin>  (54) 
autodockgpu

>  <m_score__min__energy>  (54) 
-10.380000000000001

>  <m_primary>  (54) 
energy

>  <meeko>  (54) 
{"free_energy": -9.49, "intermolecular_energy": -11.28, "internal_energy": -1.43, "cluster_size": 8, "cluster_id": 1, "rank_in_cluster": 6}

>  <energy>  (54) 
-7.96

>  <cluster_rmsd>  (54) 
1.55

>  <rmsd>  (54) 
269.17

>  <cluster>  (54) 
4

$$$$
VOUYAFWJUZHTKY-RNPWZEQVNA-N
     RDKit          3D

 71 76  0  0  0  0  0  0  0  0999 V2000
  146.1220   70.0810  216.9610 C   0  0  0  0  0  0  0  0  0  0  0  0
  146.0000   69.2680  218.0930 C   0  0  0  0  0  0  0  0  0  0  0  0
  145.3110   69.7300  219.2170 C   0  0  0  0  0  0  0  0  0  0  0  0
  144.7340   71.0070  219.2210 C   0  0  0  0  0  0  0  0  0  0  0  0
  144.8840   71.8440  218.0880 C   0  0  0  0  0  0  0  0  0  0  0  0
  145.5690   71.3630  216.9560 C   0  0  0  0  0  0  0  0  0  0  0  0
  144.2490   73.2120  218.0370 C   0  0  0  0  0  0  0  0  0  0  0  0
  144.0170   73.7680  219.4410 C   0  0  0  0  0  0  0  0  0  0  0  0
  143.3280   72.7550  220.2450 N   0  0  0  0  0  0  0  0  0  0  0  0
  142.1510   73.0760  221.0130 C   0  0  0  0  0  0  0  0  0  0  0  0
  141.4920   74.2990  220.8420 C   0  0  0  0  0  0  0  0  0  0  0  0
  140.3520   74.5660  221.6150 C   0  0  0  0  0  0  0  0  0  0  0  0
  139.6340   75.8040  221.5000 N   0  0  0  0  0  0  0  0  0  0  0  0
  140.1310   76.9520  220.7350 C   0  0  0  0  0  0  0  0  0  0  0  0
  141.4400   77.4700  221.3540 C   0  0  0  0  0  0  0  0  0  0  0  0
  141.3010   78.8960  221.9190 C   0  0  1  0  0  0  0  0  0  0  0  0
  140.2090   78.9220  223.0110 C   0  0  0  0  0  0  0  0  0  0  0  0
  139.9930   80.3510  223.5460 C   0  0  0  0  0  0  0  0  0  0  0  0
  141.2570   81.2220  223.4340 C   0  0  0  0  0  0  0  0  0  0  0  0
  142.5270   80.3660  223.5210 C   0  0  0  0  0  0  0  0  0  0  0  0
  142.6090   79.3630  222.4380 N   0  0  0  0  0  0  0  0  0  0  0  0
  139.9060   73.6240  222.4880 N   0  0  0  0  0  0  0  0  0  0  0  0
  140.5270   72.4230  222.6240 C   0  0  0  0  0  0  0  0  0  0  0  0
  139.9920   71.4230  223.5180 N   0  0  0  0  0  0  0  0  0  0  0  0
  139.1940   70.3190  222.9470 C   0  0  0  0  0  0  0  0  0  0  0  0
  138.4660   69.4930  224.0170 C   0  0  0  0  0  0  0  0  0  0  0  0
  139.3910   69.1690  225.1480 C   0  0  0  0  0  0  0  0  0  0  0  0
  139.3570   67.9130  225.7760 C   0  0  0  0  0  0  0  0  0  0  0  0
  140.1960   67.6520  226.8660 C   0  0  0  0  0  0  0  0  0  0  0  0
  141.0510   68.6500  227.3460 C   0  0  0  0  0  0  0  0  0  0  0  0
  141.0800   69.9050  226.7330 C   0  0  0  0  0  0  0  0  0  0  0  0
  140.2570   70.1690  225.6250 C   0  0  0  0  0  0  0  0  0  0  0  0
  140.2560   71.5230  224.9680 C   0  0  0  0  0  0  0  0  0  0  0  0
  141.6420   72.1640  221.8860 N   0  0  0  0  0  0  0  0  0  0  0  0
  144.0210   71.4820  220.4690 C   0  0  0  0  0  0  0  0  0  0  0  0
  146.6546   69.7095  216.0732 H   0  0  0  0  0  0  0  0  0  0  0  0
  146.4474   68.2631  218.0980 H   0  0  0  0  0  0  0  0  0  0  0  0
  145.2208   69.0870  220.1049 H   0  0  0  0  0  0  0  0  0  0  0  0
  145.6689   71.9995  216.0644 H   0  0  0  0  0  0  0  0  0  0  0  0
  144.9124   73.8949  217.4861 H   0  0  0  0  0  0  0  0  0  0  0  0
  143.2754   73.1247  217.5325 H   0  0  0  0  0  0  0  0  0  0  0  0
  144.9835   74.0132  219.9054 H   0  0  0  0  0  0  0  0  0  0  0  0
  143.4035   74.6792  219.3842 H   0  0  0  0  0  0  0  0  0  0  0  0
  141.8612   75.0373  220.1149 H   0  0  0  0  0  0  0  0  0  0  0  0
  138.6200   75.8060  221.7550 H   0  0  0  0  0  0  0  0  0  0  0  0
  140.3165   76.6441  219.6954 H   0  0  0  0  0  0  0  0  0  0  0  0
  139.3786   77.7541  220.7581 H   0  0  0  0  0  0  0  0  0  0  0  0
  141.7359   76.7944  222.1701 H   0  0  0  0  0  0  0  0  0  0  0  0
  142.1983   77.4983  220.5576 H   0  0  0  0  0  0  0  0  0  0  0  0
  140.9932   79.5849  221.1186 H   0  0  0  0  0  0  0  0  0  0  0  0
  139.2652   78.5518  222.5841 H   0  0  0  0  0  0  0  0  0  0  0  0
  140.5336   78.2822  223.8448 H   0  0  0  0  0  0  0  0  0  0  0  0
  139.1860   80.8253  222.9683 H   0  0  0  0  0  0  0  0  0  0  0  0
  139.7360   80.2722  224.6127 H   0  0  0  0  0  0  0  0  0  0  0  0
  141.2451   81.7501  222.4691 H   0  0  0  0  0  0  0  0  0  0  0  0
  141.2617   81.9398  224.2675 H   0  0  0  0  0  0  0  0  0  0  0  0
  143.4034   81.0276  223.4562 H   0  0  0  0  0  0  0  0  0  0  0  0
  142.4995   79.8235  224.4775 H   0  0  0  0  0  0  0  0  0  0  0  0
  143.1460   79.7820  221.6470 H   0  0  0  0  0  0  0  0  0  0  0  0
  138.4454   70.7445  222.2624 H   0  0  0  0  0  0  0  0  0  0  0  0
  139.8890   69.6446  222.4253 H   0  0  0  0  0  0  0  0  0  0  0  0
  137.6124   70.0705  224.4015 H   0  0  0  0  0  0  0  0  0  0  0  0
  138.1152   68.5540  223.5640 H   0  0  0  0  0  0  0  0  0  0  0  0
  138.6710   67.1343  225.4113 H   0  0  0  0  0  0  0  0  0  0  0  0
  140.1830   66.6619  227.3452 H   0  0  0  0  0  0  0  0  0  0  0  0
  141.7023   68.4459  228.2086 H   0  0  0  0  0  0  0  0  0  0  0  0
  141.7488   70.6886  227.1187 H   0  0  0  0  0  0  0  0  0  0  0  0
  139.4751   72.1441  225.4311 H   0  0  0  0  0  0  0  0  0  0  0  0
  141.2497   71.9738  225.1068 H   0  0  0  0  0  0  0  0  0  0  0  0
  144.7597   71.6147  221.2732 H   0  0  0  0  0  0  0  0  0  0  0  0
  143.2707   70.7263  220.7446 H   0  0  0  0  0  0  0  0  0  0  0  0
  1  2  2  0
  2  3  1  0
  3  4  2  0
  4  5  1  0
  5  6  2  0
  5  7  1  0
  7  8  1  0
  8  9  1  0
  9 10  1  0
 10 11  2  0
 11 12  1  0
 12 13  1  0
 13 14  1  0
 14 15  1  0
 15 16  1  0
 16 17  1  0
 17 18  1  0
 18 19  1  0
 19 20  1  0
 20 21  1  0
 12 22  2  0
 22 23  1  0
 23 24  1  0
 24 25  1  0
 25 26  1  0
 26 27  1  0
 27 28  2  0
 28 29  1  0
 29 30  2  0
 30 31  1  0
 31 32  2  0
 32 33  1  0
 23 34  2  0
  9 35  1  0
  6  1  1  0
 34 10  1  0
 35  4  1  0
 21 16  1  0
 33 24  1  0
 32 27  1  0
  1 36  1  0
  2 37  1  0
  3 38  1  0
  6 39  1  0
  7 40  1  0
  7 41  1  0
  8 42  1  0
  8 43  1  0
 11 44  1  0
 13 45  1  0
 14 46  1  0
 14 47  1  0
 15 48  1  0
 15 49  1  0
 16 50  1  6
 17 51  1  0
 17 52  1  0
 18 53  1  0
 18 54  1  0
 19 55  1  0
 19 56  1  0
 20 57  1  0
 20 58  1  0
 21 59  1  0
 25 60  1  0
 25 61  1  0
 26 62  1  0
 26 63  1  0
 28 64  1  0
 29 65  1  0
 30 66  1  0
 31 67  1  0
 33 68  1  0
 33 69  1  0
 35 70  1  0
 35 71  1  0
M  END
>  <UniqueID>  (55) 
587

>  <SMILES>  (55) 
c1ccc2c(c1)CCN(c1cc(NCC[C@H]3CCCCN3)nc(N3CCc4ccccc4C3)n1)C2

>  <Energy>  (55) 
84.83726583118538

>  <Genealogy>  (55) 
c1ccc2c(c1)CCN(c1cc(NCC[C@H]3CCCCN3)nc(N3CCc4ccccc4C3)n1)C2 (chirality)
c1ccc2c(c1)CCN(c1cc(NCC[C@H]3CCCCN3)nc(N3CCc4ccccc4C3)n1)C2 (3D coordinates assigned)
c1ccc2c(c1)CCN(c1cc(NCC[C@H]3CCCCN3)nc(N3CCc4ccccc4C3)n1)C2 (nonaromatic ring conformer: 84.83726583118538 kcal/mol)

>  <smiles>  (55) 
c1ccc2c(c1)CCN(c1cc(NCCC3CCCCN3)nc(N3CCc4ccccc4C3)n1)C2

>  <score_type>  (55) 
oracle

>  <origin>  (55) 
autodockgpu

>  <m_score__min__energy>  (55) 
-10.380000000000001

>  <m_primary>  (55) 
energy

>  <meeko>  (55) 
{"free_energy": -9.9, "intermolecular_energy": -11.69, "internal_energy": -0.93, "cluster_size": 1, "cluster_id": 3, "rank_in_cluster": 1}

>  <energy>  (55) 
-9.12

>  <cluster_rmsd>  (55) 
0.0

>  <rmsd>  (55) 
269.48

>  <cluster>  (55) 
5

$$$$
VOUYAFWJUZHTKY-RNPWZEQVNA-N
     RDKit          3D

 71 76  0  0  0  0  0  0  0  0999 V2000
  138.2640   80.2110  223.9750 C   0  0  0  0  0  0  0  0  0  0  0  0
  137.1390   79.5270  223.5030 C   0  0  0  0  0  0  0  0  0  0  0  0
  137.2910   78.3510  222.7650 C   0  0  0  0  0  0  0  0  0  0  0  0
  138.5690   77.8440  222.4940 C   0  0  0  0  0  0  0  0  0  0  0  0
  139.7110   78.5510  222.9430 C   0  0  0  0  0  0  0  0  0  0  0  0
  139.5450   79.7290  223.6980 C   0  0  0  0  0  0  0  0  0  0  0  0
  141.1040   78.0220  222.7040 C   0  0  0  0  0  0  0  0  0  0  0  0
  141.1420   77.0900  221.4940 C   0  0  0  0  0  0  0  0  0  0  0  0
  140.0760   76.0930  221.6290 N   0  0  0  0  0  0  0  0  0  0  0  0
  140.3350   74.6860  221.4570 C   0  0  0  0  0  0  0  0  0  0  0  0
  141.0450   74.2160  220.3460 C   0  0  0  0  0  0  0  0  0  0  0  0
  141.2700   72.8360  220.2220 C   0  0  0  0  0  0  0  0  0  0  0  0
  141.9790   72.2840  219.1020 N   0  0  0  0  0  0  0  0  0  0  0  0
  142.0710   72.9530  217.8010 C   0  0  0  0  0  0  0  0  0  0  0  0
  143.0150   74.1630  217.8960 C   0  0  0  0  0  0  0  0  0  0  0  0
  144.3200   73.8340  218.6460 C   0  0  1  0  0  0  0  0  0  0  0  0
  144.2440   74.3740  220.0900 C   0  0  0  0  0  0  0  0  0  0  0  0
  145.5640   74.1250  220.8460 C   0  0  0  0  0  0  0  0  0  0  0  0
  146.3220   72.8920  220.3220 C   0  0  0  0  0  0  0  0  0  0  0  0
  145.3520   71.8490  219.7530 C   0  0  0  0  0  0  0  0  0  0  0  0
  144.5630   72.3710  218.6170 N   0  0  0  0  0  0  0  0  0  0  0  0
  140.8150   71.9990  221.1910 N   0  0  0  0  0  0  0  0  0  0  0  0
  140.1590   72.4640  222.2880 C   0  0  0  0  0  0  0  0  0  0  0  0
  139.7410   71.5530  223.3270 N   0  0  0  0  0  0  0  0  0  0  0  0
  138.5770   70.6780  223.0730 C   0  0  0  0  0  0  0  0  0  0  0  0
  138.0770   69.9680  224.3380 C   0  0  0  0  0  0  0  0  0  0  0  0
  139.2270   69.3900  225.1040 C   0  0  0  0  0  0  0  0  0  0  0  0
  139.1250   68.1370  225.7300 C   0  0  0  0  0  0  0  0  0  0  0  0
  140.1950   67.6410  226.4840 C   0  0  0  0  0  0  0  0  0  0  0  0
  141.3580   68.4050  226.6350 C   0  0  0  0  0  0  0  0  0  0  0  0
  141.4600   69.6580  226.0240 C   0  0  0  0  0  0  0  0  0  0  0  0
  140.3980   70.1530  225.2480 C   0  0  0  0  0  0  0  0  0  0  0  0
  140.4800   71.5110  224.6050 C   0  0  0  0  0  0  0  0  0  0  0  0
  139.9260   73.8010  222.4060 N   0  0  0  0  0  0  0  0  0  0  0  0
  138.6940   76.5820  221.6670 C   0  0  0  0  0  0  0  0  0  0  0  0
  138.1394   81.1306  224.5657 H   0  0  0  0  0  0  0  0  0  0  0  0
  136.1320   79.9162  223.7136 H   0  0  0  0  0  0  0  0  0  0  0  0
  136.4021   77.8195  222.3942 H   0  0  0  0  0  0  0  0  0  0  0  0
  140.4271   80.2706  224.0703 H   0  0  0  0  0  0  0  0  0  0  0  0
  141.7835   78.8686  222.5261 H   0  0  0  0  0  0  0  0  0  0  0  0
  141.4170   77.4527  223.5916 H   0  0  0  0  0  0  0  0  0  0  0  0
  140.9880   77.6729  220.5739 H   0  0  0  0  0  0  0  0  0  0  0  0
  142.1187   76.5866  221.4418 H   0  0  0  0  0  0  0  0  0  0  0  0
  141.4198   74.9153  219.5840 H   0  0  0  0  0  0  0  0  0  0  0  0
  142.6580   71.5100  219.2880 H   0  0  0  0  0  0  0  0  0  0  0  0
  142.4604   72.2452  217.0544 H   0  0  0  0  0  0  0  0  0  0  0  0
  141.0705   73.2989  217.5019 H   0  0  0  0  0  0  0  0  0  0  0  0
  143.2670   74.4950  216.8780 H   0  0  0  0  0  0  0  0  0  0  0  0
  142.4940   74.9506  218.4601 H   0  0  0  0  0  0  0  0  0  0  0  0
  145.1695   74.3245  218.1482 H   0  0  0  0  0  0  0  0  0  0  0  0
  144.0463   75.4556  220.0591 H   0  0  0  0  0  0  0  0  0  0  0  0
  143.4348   73.8479  220.6175 H   0  0  0  0  0  0  0  0  0  0  0  0
  146.2079   75.0095  220.7315 H   0  0  0  0  0  0  0  0  0  0  0  0
  145.3141   73.9393  221.9010 H   0  0  0  0  0  0  0  0  0  0  0  0
  147.0164   73.2071  219.5293 H   0  0  0  0  0  0  0  0  0  0  0  0
  146.8721   72.4378  221.1593 H   0  0  0  0  0  0  0  0  0  0  0  0
  145.9309   70.9787  219.4103 H   0  0  0  0  0  0  0  0  0  0  0  0
  144.6474   71.5762  220.5524 H   0  0  0  0  0  0  0  0  0  0  0  0
  145.0690   72.1390  217.7340 H   0  0  0  0  0  0  0  0  0  0  0  0
  137.7586   71.2912  222.6679 H   0  0  0  0  0  0  0  0  0  0  0  0
  138.8965   69.9012  222.3627 H   0  0  0  0  0  0  0  0  0  0  0  0
  137.5460   70.6919  224.9736 H   0  0  0  0  0  0  0  0  0  0  0  0
  137.3994   69.1528  224.0443 H   0  0  0  0  0  0  0  0  0  0  0  0
  138.2036   67.5449  225.6277 H   0  0  0  0  0  0  0  0  0  0  0  0
  140.1219   66.6510  226.9578 H   0  0  0  0  0  0  0  0  0  0  0  0
  142.1941   68.0183  227.2362 H   0  0  0  0  0  0  0  0  0  0  0  0
  142.3733   70.2578  226.1508 H   0  0  0  0  0  0  0  0  0  0  0  0
  140.0508   72.2569  225.2902 H   0  0  0  0  0  0  0  0  0  0  0  0
  141.5379   71.7303  224.3981 H   0  0  0  0  0  0  0  0  0  0  0  0
  138.3627   76.7946  220.6399 H   0  0  0  0  0  0  0  0  0  0  0  0
  138.0680   75.8051  222.1303 H   0  0  0  0  0  0  0  0  0  0  0  0
  1  2  2  0
  2  3  1  0
  3  4  2  0
  4  5  1  0
  5  6  2  0
  5  7  1  0
  7  8  1  0
  8  9  1  0
  9 10  1  0
 10 11  2  0
 11 12  1  0
 12 13  1  0
 13 14  1  0
 14 15  1  0
 15 16  1  0
 16 17  1  0
 17 18  1  0
 18 19  1  0
 19 20  1  0
 20 21  1  0
 12 22  2  0
 22 23  1  0
 23 24  1  0
 24 25  1  0
 25 26  1  0
 26 27  1  0
 27 28  2  0
 28 29  1  0
 29 30  2  0
 30 31  1  0
 31 32  2  0
 32 33  1  0
 23 34  2  0
  9 35  1  0
  6  1  1  0
 34 10  1  0
 35  4  1  0
 21 16  1  0
 33 24  1  0
 32 27  1  0
  1 36  1  0
  2 37  1  0
  3 38  1  0
  6 39  1  0
  7 40  1  0
  7 41  1  0
  8 42  1  0
  8 43  1  0
 11 44  1  0
 13 45  1  0
 14 46  1  0
 14 47  1  0
 15 48  1  0
 15 49  1  0
 16 50  1  6
 17 51  1  0
 17 52  1  0
 18 53  1  0
 18 54  1  0
 19 55  1  0
 19 56  1  0
 20 57  1  0
 20 58  1  0
 21 59  1  0
 25 60  1  0
 25 61  1  0
 26 62  1  0
 26 63  1  0
 28 64  1  0
 29 65  1  0
 30 66  1  0
 31 67  1  0
 33 68  1  0
 33 69  1  0
 35 70  1  0
 35 71  1  0
M  END
>  <UniqueID>  (56) 
587

>  <SMILES>  (56) 
c1ccc2c(c1)CCN(c1cc(NCC[C@H]3CCCCN3)nc(N3CCc4ccccc4C3)n1)C2

>  <Energy>  (56) 
84.83726583118538

>  <Genealogy>  (56) 
c1ccc2c(c1)CCN(c1cc(NCC[C@H]3CCCCN3)nc(N3CCc4ccccc4C3)n1)C2 (chirality)
c1ccc2c(c1)CCN(c1cc(NCC[C@H]3CCCCN3)nc(N3CCc4ccccc4C3)n1)C2 (3D coordinates assigned)
c1ccc2c(c1)CCN(c1cc(NCC[C@H]3CCCCN3)nc(N3CCc4ccccc4C3)n1)C2 (nonaromatic ring conformer: 84.83726583118538 kcal/mol)

>  <smiles>  (56) 
c1ccc2c(c1)CCN(c1cc(NCCC3CCCCN3)nc(N3CCc4ccccc4C3)n1)C2

>  <score_type>  (56) 
oracle

>  <origin>  (56) 
autodockgpu

>  <m_score__min__energy>  (56) 
-10.380000000000001

>  <m_primary>  (56) 
energy

>  <meeko>  (56) 
{"free_energy": -9.03, "intermolecular_energy": -10.82, "internal_energy": -1.75, "cluster_size": 5, "cluster_id": 5, "rank_in_cluster": 4}

>  <energy>  (56) 
-9.04

>  <cluster_rmsd>  (56) 
0.38

>  <rmsd>  (56) 
269.45

>  <cluster>  (56) 
5

$$$$
VOUYAFWJUZHTKY-RNPWZEQVNA-N
     RDKit          3D

 71 76  0  0  0  0  0  0  0  0999 V2000
  141.9440   81.0620  222.6260 C   0  0  0  0  0  0  0  0  0  0  0  0
  141.7520   80.3900  223.8380 C   0  0  0  0  0  0  0  0  0  0  0  0
  141.4490   79.0260  223.8440 C   0  0  0  0  0  0  0  0  0  0  0  0
  141.3390   78.3190  222.6390 C   0  0  0  0  0  0  0  0  0  0  0  0
  141.5010   79.0030  221.4100 C   0  0  0  0  0  0  0  0  0  0  0  0
  141.8190   80.3750  221.4170 C   0  0  0  0  0  0  0  0  0  0  0  0
  141.4250   78.2730  220.0920 C   0  0  0  0  0  0  0  0  0  0  0  0
  140.5980   76.9940  220.2140 C   0  0  0  0  0  0  0  0  0  0  0  0
  141.0820   76.2240  221.3640 N   0  0  0  0  0  0  0  0  0  0  0  0
  141.3870   74.8200  221.2540 C   0  0  0  0  0  0  0  0  0  0  0  0
  142.3890   74.3670  220.3880 C   0  0  0  0  0  0  0  0  0  0  0  0
  142.6480   72.9890  220.3150 C   0  0  0  0  0  0  0  0  0  0  0  0
  143.6530   72.4550  219.4400 N   0  0  0  0  0  0  0  0  0  0  0  0
  144.8050   71.6840  219.9170 C   0  0  0  0  0  0  0  0  0  0  0  0
  145.4330   70.9000  218.7520 C   0  0  0  0  0  0  0  0  0  0  0  0
  144.8570   69.4780  218.6220 C   0  0  1  0  0  0  0  0  0  0  0  0
  145.7680   68.4740  219.3590 C   0  0  0  0  0  0  0  0  0  0  0  0
  145.2590   67.0300  219.1860 C   0  0  0  0  0  0  0  0  0  0  0  0
  143.7370   66.9620  218.9700 C   0  0  0  0  0  0  0  0  0  0  0  0
  143.0280   68.1340  219.6610 C   0  0  0  0  0  0  0  0  0  0  0  0
  143.4680   69.4460  219.1430 N   0  0  0  0  0  0  0  0  0  0  0  0
  141.9370   72.1380  221.1010 N   0  0  0  0  0  0  0  0  0  0  0  0
  140.9910   72.5860  221.9680 C   0  0  0  0  0  0  0  0  0  0  0  0
  140.2960   71.6590  222.8300 N   0  0  0  0  0  0  0  0  0  0  0  0
  139.5570   70.5380  222.2120 C   0  0  0  0  0  0  0  0  0  0  0  0
  138.6510   69.8000  223.2070 C   0  0  0  0  0  0  0  0  0  0  0  0
  139.3850   69.5280  224.4830 C   0  0  0  0  0  0  0  0  0  0  0  0
  139.2170   68.3170  225.1730 C   0  0  0  0  0  0  0  0  0  0  0  0
  139.8740   68.1070  226.3910 C   0  0  0  0  0  0  0  0  0  0  0  0
  140.6790   69.1140  226.9340 C   0  0  0  0  0  0  0  0  0  0  0  0
  140.8400   70.3260  226.2580 C   0  0  0  0  0  0  0  0  0  0  0  0
  140.2010   70.5370  225.0240 C   0  0  0  0  0  0  0  0  0  0  0  0
  140.3420   71.8450  224.2950 C   0  0  0  0  0  0  0  0  0  0  0  0
  140.7260   73.9200  222.0330 N   0  0  0  0  0  0  0  0  0  0  0  0
  140.9810   76.8490  222.6870 C   0  0  0  0  0  0  0  0  0  0  0  0
  142.1938   82.1333  222.6256 H   0  0  0  0  0  0  0  0  0  0  0  0
  141.8398   80.9368  224.7884 H   0  0  0  0  0  0  0  0  0  0  0  0
  141.2959   78.5041  224.8001 H   0  0  0  0  0  0  0  0  0  0  0  0
  141.9695   80.9074  220.4663 H   0  0  0  0  0  0  0  0  0  0  0  0
  140.9591   78.9312  219.3439 H   0  0  0  0  0  0  0  0  0  0  0  0
  142.4457   77.9993  219.7868 H   0  0  0  0  0  0  0  0  0  0  0  0
  139.5388   77.2517  220.3614 H   0  0  0  0  0  0  0  0  0  0  0  0
  140.6982   76.3962  219.2961 H   0  0  0  0  0  0  0  0  0  0  0  0
  142.9632   75.0778  219.7756 H   0  0  0  0  0  0  0  0  0  0  0  0
  143.4310   72.3960  218.4200 H   0  0  0  0  0  0  0  0  0  0  0  0
  145.5534   72.3709  220.3390 H   0  0  0  0  0  0  0  0  0  0  0  0
  144.4704   70.9760  220.6895 H   0  0  0  0  0  0  0  0  0  0  0  0
  145.2420   71.4452  217.8159 H   0  0  0  0  0  0  0  0  0  0  0  0
  146.5106   70.8078  218.9527 H   0  0  0  0  0  0  0  0  0  0  0  0
  144.8240   69.1862  217.5619 H   0  0  0  0  0  0  0  0  0  0  0  0
  146.7867   68.5469  218.9505 H   0  0  0  0  0  0  0  0  0  0  0  0
  145.7620   68.7197  220.4312 H   0  0  0  0  0  0  0  0  0  0  0  0
  145.7590   66.5820  218.3146 H   0  0  0  0  0  0  0  0  0  0  0  0
  145.4894   66.4820  220.1115 H   0  0  0  0  0  0  0  0  0  0  0  0
  143.5252   66.9997  217.8912 H   0  0  0  0  0  0  0  0  0  0  0  0
  143.3641   66.0229  219.4047 H   0  0  0  0  0  0  0  0  0  0  0  0
  141.9445   68.0360  219.4987 H   0  0  0  0  0  0  0  0  0  0  0  0
  143.2819   68.0946  220.7306 H   0  0  0  0  0  0  0  0  0  0  0  0
  142.8220   69.7260  218.3730 H   0  0  0  0  0  0  0  0  0  0  0  0
  138.9336   70.9352  221.3974 H   0  0  0  0  0  0  0  0  0  0  0  0
  140.3002   69.8157  221.8434 H   0  0  0  0  0  0  0  0  0  0  0  0
  137.7687   70.4207  223.4222 H   0  0  0  0  0  0  0  0  0  0  0  0
  138.3419   68.8420  222.7635 H   0  0  0  0  0  0  0  0  0  0  0  0
  138.5684   67.5324  224.7561 H   0  0  0  0  0  0  0  0  0  0  0  0
  139.7573   67.1503  226.9211 H   0  0  0  0  0  0  0  0  0  0  0  0
  141.1868   68.9511  227.8961 H   0  0  0  0  0  0  0  0  0  0  0  0
  141.4685   71.1172  226.6926 H   0  0  0  0  0  0  0  0  0  0  0  0
  139.5206   72.5118  224.5961 H   0  0  0  0  0  0  0  0  0  0  0  0
  141.3177   72.2808  224.5560 H   0  0  0  0  0  0  0  0  0  0  0  0
  139.9489   76.7450  223.0528 H   0  0  0  0  0  0  0  0  0  0  0  0
  141.6898   76.3446  223.3602 H   0  0  0  0  0  0  0  0  0  0  0  0
  1  2  2  0
  2  3  1  0
  3  4  2  0
  4  5  1  0
  5  6  2  0
  5  7  1  0
  7  8  1  0
  8  9  1  0
  9 10  1  0
 10 11  2  0
 11 12  1  0
 12 13  1  0
 13 14  1  0
 14 15  1  0
 15 16  1  0
 16 17  1  0
 17 18  1  0
 18 19  1  0
 19 20  1  0
 20 21  1  0
 12 22  2  0
 22 23  1  0
 23 24  1  0
 24 25  1  0
 25 26  1  0
 26 27  1  0
 27 28  2  0
 28 29  1  0
 29 30  2  0
 30 31  1  0
 31 32  2  0
 32 33  1  0
 23 34  2  0
  9 35  1  0
  6  1  1  0
 34 10  1  0
 35  4  1  0
 21 16  1  0
 33 24  1  0
 32 27  1  0
  1 36  1  0
  2 37  1  0
  3 38  1  0
  6 39  1  0
  7 40  1  0
  7 41  1  0
  8 42  1  0
  8 43  1  0
 11 44  1  0
 13 45  1  0
 14 46  1  0
 14 47  1  0
 15 48  1  0
 15 49  1  0
 16 50  1  6
 17 51  1  0
 17 52  1  0
 18 53  1  0
 18 54  1  0
 19 55  1  0
 19 56  1  0
 20 57  1  0
 20 58  1  0
 21 59  1  0
 25 60  1  0
 25 61  1  0
 26 62  1  0
 26 63  1  0
 28 64  1  0
 29 65  1  0
 30 66  1  0
 31 67  1  0
 33 68  1  0
 33 69  1  0
 35 70  1  0
 35 71  1  0
M  END
>  <UniqueID>  (57) 
587

>  <SMILES>  (57) 
c1ccc2c(c1)CCN(c1cc(NCC[C@H]3CCCCN3)nc(N3CCc4ccccc4C3)n1)C2

>  <Energy>  (57) 
84.83726583118538

>  <Genealogy>  (57) 
c1ccc2c(c1)CCN(c1cc(NCC[C@H]3CCCCN3)nc(N3CCc4ccccc4C3)n1)C2 (chirality)
c1ccc2c(c1)CCN(c1cc(NCC[C@H]3CCCCN3)nc(N3CCc4ccccc4C3)n1)C2 (3D coordinates assigned)
c1ccc2c(c1)CCN(c1cc(NCC[C@H]3CCCCN3)nc(N3CCc4ccccc4C3)n1)C2 (nonaromatic ring conformer: 84.83726583118538 kcal/mol)

>  <smiles>  (57) 
c1ccc2c(c1)CCN(c1cc(NCCC3CCCCN3)nc(N3CCc4ccccc4C3)n1)C2

>  <score_type>  (57) 
oracle

>  <origin>  (57) 
autodockgpu

>  <m_score__min__energy>  (57) 
-10.380000000000001

>  <m_primary>  (57) 
energy

>  <meeko>  (57) 
{"free_energy": -9.7, "intermolecular_energy": -11.49, "internal_energy": -1.07, "cluster_size": 8, "cluster_id": 1, "rank_in_cluster": 3}

>  <energy>  (57) 
-9.03

>  <cluster_rmsd>  (57) 
0.29

>  <rmsd>  (57) 
269.5

>  <cluster>  (57) 
5

$$$$
VOUYAFWJUZHTKY-RNPWZEQVNA-N
     RDKit          3D

 71 76  0  0  0  0  0  0  0  0999 V2000
  139.5510   69.7840  228.3280 C   0  0  0  0  0  0  0  0  0  0  0  0
  140.6260   70.6790  228.3350 C   0  0  0  0  0  0  0  0  0  0  0  0
  141.0900   71.2290  227.1370 C   0  0  0  0  0  0  0  0  0  0  0  0
  140.4800   70.8940  225.9200 C   0  0  0  0  0  0  0  0  0  0  0  0
  139.4120   69.9640  225.9080 C   0  0  0  0  0  0  0  0  0  0  0  0
  138.9450   69.4260  227.1230 C   0  0  0  0  0  0  0  0  0  0  0  0
  138.7040   69.6020  224.6240 C   0  0  0  0  0  0  0  0  0  0  0  0
  139.6060   69.8310  223.4120 C   0  0  0  0  0  0  0  0  0  0  0  0
  140.1740   71.1800  223.4900 N   0  0  0  0  0  0  0  0  0  0  0  0
  140.1300   72.0810  222.3660 C   0  0  0  0  0  0  0  0  0  0  0  0
  140.2060   71.5990  221.0540 C   0  0  0  0  0  0  0  0  0  0  0  0
  140.1630   72.5170  219.9940 C   0  0  0  0  0  0  0  0  0  0  0  0
  140.2470   72.0930  218.6240 N   0  0  0  0  0  0  0  0  0  0  0  0
  141.4090   72.3600  217.7710 C   0  0  0  0  0  0  0  0  0  0  0  0
  142.6270   71.5700  218.2780 C   0  0  0  0  0  0  0  0  0  0  0  0
  143.4190   72.3350  219.3550 C   0  0  1  0  0  0  0  0  0  0  0  0
  144.9330   72.1930  219.0920 C   0  0  0  0  0  0  0  0  0  0  0  0
  145.7560   72.8880  220.1950 C   0  0  0  0  0  0  0  0  0  0  0  0
  145.0020   74.0620  220.8440 C   0  0  0  0  0  0  0  0  0  0  0  0
  144.0240   74.7060  219.8530 C   0  0  0  0  0  0  0  0  0  0  0  0
  142.9950   73.7570  219.3770 N   0  0  0  0  0  0  0  0  0  0  0  0
  140.0250   73.8410  220.2670 N   0  0  0  0  0  0  0  0  0  0  0  0
  139.9140   74.3010  221.5410 C   0  0  0  0  0  0  0  0  0  0  0  0
  139.7100   75.7090  221.7920 N   0  0  0  0  0  0  0  0  0  0  0  0
  138.4900   76.1290  222.5120 C   0  0  0  0  0  0  0  0  0  0  0  0
  138.2640   77.6460  222.4690 C   0  0  0  0  0  0  0  0  0  0  0  0
  139.5360   78.3740  222.7760 C   0  0  0  0  0  0  0  0  0  0  0  0
  139.5360   79.5370  223.5620 C   0  0  0  0  0  0  0  0  0  0  0  0
  140.7300   80.2290  223.7920 C   0  0  0  0  0  0  0  0  0  0  0  0
  141.9230   79.7760  223.2170 C   0  0  0  0  0  0  0  0  0  0  0  0
  141.9270   78.6250  222.4230 C   0  0  0  0  0  0  0  0  0  0  0  0
  140.7360   77.9130  222.2060 C   0  0  0  0  0  0  0  0  0  0  0  0
  140.7170   76.6880  221.3330 C   0  0  0  0  0  0  0  0  0  0  0  0
  139.9700   73.4160  222.5750 N   0  0  0  0  0  0  0  0  0  0  0  0
  141.0290   71.4880  224.6410 C   0  0  0  0  0  0  0  0  0  0  0  0
  139.1825   69.3615  229.2744 H   0  0  0  0  0  0  0  0  0  0  0  0
  141.1074   70.9506  229.2860 H   0  0  0  0  0  0  0  0  0  0  0  0
  141.9387   71.9287  227.1490 H   0  0  0  0  0  0  0  0  0  0  0  0
  138.1001   68.7216  227.1221 H   0  0  0  0  0  0  0  0  0  0  0  0
  138.4146   68.5414  224.6606 H   0  0  0  0  0  0  0  0  0  0  0  0
  137.8159   70.2432  224.5233 H   0  0  0  0  0  0  0  0  0  0  0  0
  140.4175   69.0884  223.4103 H   0  0  0  0  0  0  0  0  0  0  0  0
  139.0202   69.7266  222.4868 H   0  0  0  0  0  0  0  0  0  0  0  0
  140.2977   70.5205  220.8578 H   0  0  0  0  0  0  0  0  0  0  0  0
  139.5760   71.3600  218.2980 H   0  0  0  0  0  0  0  0  0  0  0  0
  141.1810   72.0550  216.7390 H   0  0  0  0  0  0  0  0  0  0  0  0
  141.6387   73.4353  217.8004 H   0  0  0  0  0  0  0  0  0  0  0  0
  142.2774   70.6189  218.7060 H   0  0  0  0  0  0  0  0  0  0  0  0
  143.2987   71.4056  217.4225 H   0  0  0  0  0  0  0  0  0  0  0  0
  143.2090   71.9066  220.3461 H   0  0  0  0  0  0  0  0  0  0  0  0
  145.1947   71.1249  219.0677 H   0  0  0  0  0  0  0  0  0  0  0  0
  145.1664   72.6705  218.1289 H   0  0  0  0  0  0  0  0  0  0  0  0
  145.9958   72.1494  220.9741 H   0  0  0  0  0  0  0  0  0  0  0  0
  146.6653   73.2935  219.7272 H   0  0  0  0  0  0  0  0  0  0  0  0
  144.4399   73.6910  221.7137 H   0  0  0  0  0  0  0  0  0  0  0  0
  145.7363   74.8206  221.1529 H   0  0  0  0  0  0  0  0  0  0  0  0
  143.5230   75.5501  220.3495 H   0  0  0  0  0  0  0  0  0  0  0  0
  144.6033   75.0378  218.9788 H   0  0  0  0  0  0  0  0  0  0  0  0
  142.1610   73.8420  219.9990 H   0  0  0  0  0  0  0  0  0  0  0  0
  137.6228   75.6318  222.0530 H   0  0  0  0  0  0  0  0  0  0  0  0
  138.6144   75.8435  223.5670 H   0  0  0  0  0  0  0  0  0  0  0  0
  137.9163   77.9320  221.4654 H   0  0  0  0  0  0  0  0  0  0  0  0
  137.5091   77.9150  223.2225 H   0  0  0  0  0  0  0  0  0  0  0  0
  138.5955   79.9050  223.9979 H   0  0  0  0  0  0  0  0  0  0  0  0
  140.7312   81.1289  224.4246 H   0  0  0  0  0  0  0  0  0  0  0  0
  142.8594   80.3266  223.3901 H   0  0  0  0  0  0  0  0  0  0  0  0
  142.8654   78.2763  221.9672 H   0  0  0  0  0  0  0  0  0  0  0  0
  140.4791   76.9881  220.3018 H   0  0  0  0  0  0  0  0  0  0  0  0
  141.7077   76.2129  221.3850 H   0  0  0  0  0  0  0  0  0  0  0  0
  142.0332   71.0773  224.4594 H   0  0  0  0  0  0  0  0  0  0  0  0
  141.0659   72.5811  224.7584 H   0  0  0  0  0  0  0  0  0  0  0  0
  1  2  2  0
  2  3  1  0
  3  4  2  0
  4  5  1  0
  5  6  2  0
  5  7  1  0
  7  8  1  0
  8  9  1  0
  9 10  1  0
 10 11  2  0
 11 12  1  0
 12 13  1  0
 13 14  1  0
 14 15  1  0
 15 16  1  0
 16 17  1  0
 17 18  1  0
 18 19  1  0
 19 20  1  0
 20 21  1  0
 12 22  2  0
 22 23  1  0
 23 24  1  0
 24 25  1  0
 25 26  1  0
 26 27  1  0
 27 28  2  0
 28 29  1  0
 29 30  2  0
 30 31  1  0
 31 32  2  0
 32 33  1  0
 23 34  2  0
  9 35  1  0
  6  1  1  0
 34 10  1  0
 35  4  1  0
 21 16  1  0
 33 24  1  0
 32 27  1  0
  1 36  1  0
  2 37  1  0
  3 38  1  0
  6 39  1  0
  7 40  1  0
  7 41  1  0
  8 42  1  0
  8 43  1  0
 11 44  1  0
 13 45  1  0
 14 46  1  0
 14 47  1  0
 15 48  1  0
 15 49  1  0
 16 50  1  1
 17 51  1  0
 17 52  1  0
 18 53  1  0
 18 54  1  0
 19 55  1  0
 19 56  1  0
 20 57  1  0
 20 58  1  0
 21 59  1  0
 25 60  1  0
 25 61  1  0
 26 62  1  0
 26 63  1  0
 28 64  1  0
 29 65  1  0
 30 66  1  0
 31 67  1  0
 33 68  1  0
 33 69  1  0
 35 70  1  0
 35 71  1  0
M  END
>  <UniqueID>  (58) 
587

>  <SMILES>  (58) 
c1ccc2c(c1)CCN(c1cc(NCC[C@H]3CCCCN3)nc(N3CCc4ccccc4C3)n1)C2

>  <Energy>  (58) 
84.83726583118538

>  <Genealogy>  (58) 
c1ccc2c(c1)CCN(c1cc(NCC[C@H]3CCCCN3)nc(N3CCc4ccccc4C3)n1)C2 (chirality)
c1ccc2c(c1)CCN(c1cc(NCC[C@H]3CCCCN3)nc(N3CCc4ccccc4C3)n1)C2 (3D coordinates assigned)
c1ccc2c(c1)CCN(c1cc(NCC[C@H]3CCCCN3)nc(N3CCc4ccccc4C3)n1)C2 (nonaromatic ring conformer: 84.83726583118538 kcal/mol)

>  <smiles>  (58) 
c1ccc2c(c1)CCN(c1cc(NCCC3CCCCN3)nc(N3CCc4ccccc4C3)n1)C2

>  <score_type>  (58) 
oracle

>  <origin>  (58) 
autodockgpu

>  <m_score__min__energy>  (58) 
-10.380000000000001

>  <m_primary>  (58) 
energy

>  <meeko>  (58) 
{"free_energy": -9.12, "intermolecular_energy": -10.91, "internal_energy": -2.13, "cluster_size": 5, "cluster_id": 5, "rank_in_cluster": 1}

>  <energy>  (58) 
-9.03

>  <cluster_rmsd>  (58) 
1.59

>  <rmsd>  (58) 
269.34

>  <cluster>  (58) 
5

$$$$
VOUYAFWJUZHTKY-RNPWZEQVNA-N
     RDKit          3D

 71 76  0  0  0  0  0  0  0  0999 V2000
  139.5330   69.7780  228.3100 C   0  0  0  0  0  0  0  0  0  0  0  0
  140.6240   70.6540  228.3300 C   0  0  0  0  0  0  0  0  0  0  0  0
  141.0940   71.2160  227.1410 C   0  0  0  0  0  0  0  0  0  0  0  0
  140.4770   70.9130  225.9200 C   0  0  0  0  0  0  0  0  0  0  0  0
  139.3930   70.0010  225.8930 C   0  0  0  0  0  0  0  0  0  0  0  0
  138.9190   69.4510  227.0990 C   0  0  0  0  0  0  0  0  0  0  0  0
  138.6780   69.6740  224.6050 C   0  0  0  0  0  0  0  0  0  0  0  0
  139.5810   69.9090  223.3950 C   0  0  0  0  0  0  0  0  0  0  0  0
  140.1720   71.2460  223.4950 N   0  0  0  0  0  0  0  0  0  0  0  0
  140.1420   72.1670  222.3870 C   0  0  0  0  0  0  0  0  0  0  0  0
  140.2260   71.7080  221.0680 C   0  0  0  0  0  0  0  0  0  0  0  0
  140.1960   72.6450  220.0230 C   0  0  0  0  0  0  0  0  0  0  0  0
  140.2900   72.2450  218.6470 N   0  0  0  0  0  0  0  0  0  0  0  0
  141.1050   72.9560  217.6580 C   0  0  0  0  0  0  0  0  0  0  0  0
  142.5320   72.3810  217.6400 C   0  0  0  0  0  0  0  0  0  0  0  0
  143.3260   72.7380  218.9100 C   0  0  1  0  0  0  0  0  0  0  0  0
  144.8360   72.5420  218.6570 C   0  0  0  0  0  0  0  0  0  0  0  0
  145.6540   72.8200  219.9330 C   0  0  0  0  0  0  0  0  0  0  0  0
  144.9620   73.8240  220.8720 C   0  0  0  0  0  0  0  0  0  0  0  0
  144.0880   74.8070  220.0820 C   0  0  0  0  0  0  0  0  0  0  0  0
  143.0130   74.1270  219.3280 N   0  0  0  0  0  0  0  0  0  0  0  0
  140.0620   73.9650  220.3180 N   0  0  0  0  0  0  0  0  0  0  0  0
  139.9420   74.4030  221.6000 C   0  0  0  0  0  0  0  0  0  0  0  0
  139.7420   75.8070  221.8740 N   0  0  0  0  0  0  0  0  0  0  0  0
  138.5710   76.2100  222.6800 C   0  0  0  0  0  0  0  0  0  0  0  0
  138.3280   77.7250  222.6640 C   0  0  0  0  0  0  0  0  0  0  0  0
  139.6110   78.4640  222.8860 C   0  0  0  0  0  0  0  0  0  0  0  0
  139.6540   79.6220  223.6780 C   0  0  0  0  0  0  0  0  0  0  0  0
  140.8550   80.3250  223.8280 C   0  0  0  0  0  0  0  0  0  0  0  0
  142.0090   79.8870  223.1690 C   0  0  0  0  0  0  0  0  0  0  0  0
  141.9690   78.7420  222.3680 C   0  0  0  0  0  0  0  0  0  0  0  0
  140.7730   78.0190  222.2300 C   0  0  0  0  0  0  0  0  0  0  0  0
  140.7050   76.7980  221.3520 C   0  0  0  0  0  0  0  0  0  0  0  0
  139.9850   73.4990  222.6180 N   0  0  0  0  0  0  0  0  0  0  0  0
  141.0340   71.5200  224.6500 C   0  0  0  0  0  0  0  0  0  0  0  0
  139.1583   69.3462  229.2497 H   0  0  0  0  0  0  0  0  0  0  0  0
  141.1125   70.9005  229.2843 H   0  0  0  0  0  0  0  0  0  0  0  0
  141.9543   71.9011  227.1632 H   0  0  0  0  0  0  0  0  0  0  0  0
  138.0621   68.7613  227.0875 H   0  0  0  0  0  0  0  0  0  0  0  0
  138.3710   68.6179  224.6235 H   0  0  0  0  0  0  0  0  0  0  0  0
  137.8010   70.3322  224.5174 H   0  0  0  0  0  0  0  0  0  0  0  0
  140.3797   69.1528  223.3781 H   0  0  0  0  0  0  0  0  0  0  0  0
  138.9913   69.8310  222.4697 H   0  0  0  0  0  0  0  0  0  0  0  0
  140.3139   70.6327  220.8537 H   0  0  0  0  0  0  0  0  0  0  0  0
  139.9720   71.2810  218.3960 H   0  0  0  0  0  0  0  0  0  0  0  0
  140.6528   72.8395  216.6620 H   0  0  0  0  0  0  0  0  0  0  0  0
  141.1488   74.0220  217.9258 H   0  0  0  0  0  0  0  0  0  0  0  0
  142.4703   71.2858  217.5584 H   0  0  0  0  0  0  0  0  0  0  0  0
  143.0594   72.8207  216.7806 H   0  0  0  0  0  0  0  0  0  0  0  0
  143.0336   72.0674  219.7315 H   0  0  0  0  0  0  0  0  0  0  0  0
  145.0145   71.5055  218.3347 H   0  0  0  0  0  0  0  0  0  0  0  0
  145.1540   73.2500  217.8775 H   0  0  0  0  0  0  0  0  0  0  0  0
  145.7967   71.8726  220.4735 H   0  0  0  0  0  0  0  0  0  0  0  0
  146.6141   73.2593  219.6244 H   0  0  0  0  0  0  0  0  0  0  0  0
  144.3297   73.2731  221.5839 H   0  0  0  0  0  0  0  0  0  0  0  0
  145.7365   74.3953  221.4047 H   0  0  0  0  0  0  0  0  0  0  0  0
  143.6303   75.5172  220.7864 H   0  0  0  0  0  0  0  0  0  0  0  0
  144.7344   75.3198  219.3546 H   0  0  0  0  0  0  0  0  0  0  0  0
  142.1580   74.1060  219.9260 H   0  0  0  0  0  0  0  0  0  0  0  0
  137.6788   75.7072  222.2786 H   0  0  0  0  0  0  0  0  0  0  0  0
  138.7712   75.9187  223.7217 H   0  0  0  0  0  0  0  0  0  0  0  0
  137.9077   78.0140  221.6894 H   0  0  0  0  0  0  0  0  0  0  0  0
  137.6256   77.9813  223.4708 H   0  0  0  0  0  0  0  0  0  0  0  0
  138.7428   79.9775  224.1814 H   0  0  0  0  0  0  0  0  0  0  0  0
  140.8916   81.2218  224.4639 H   0  0  0  0  0  0  0  0  0  0  0  0
  142.9502   80.4451  223.2815 H   0  0  0  0  0  0  0  0  0  0  0  0
  142.8765   78.4066  221.8446 H   0  0  0  0  0  0  0  0  0  0  0  0
  140.3930   77.1014  220.3418 H   0  0  0  0  0  0  0  0  0  0  0  0
  141.7014   76.3324  221.3316 H   0  0  0  0  0  0  0  0  0  0  0  0
  142.0309   71.0959  224.4595 H   0  0  0  0  0  0  0  0  0  0  0  0
  141.0891   72.6101  224.7861 H   0  0  0  0  0  0  0  0  0  0  0  0
  1  2  2  0
  2  3  1  0
  3  4  2  0
  4  5  1  0
  5  6  2  0
  5  7  1  0
  7  8  1  0
  8  9  1  0
  9 10  1  0
 10 11  2  0
 11 12  1  0
 12 13  1  0
 13 14  1  0
 14 15  1  0
 15 16  1  0
 16 17  1  0
 17 18  1  0
 18 19  1  0
 19 20  1  0
 20 21  1  0
 12 22  2  0
 22 23  1  0
 23 24  1  0
 24 25  1  0
 25 26  1  0
 26 27  1  0
 27 28  2  0
 28 29  1  0
 29 30  2  0
 30 31  1  0
 31 32  2  0
 32 33  1  0
 23 34  2  0
  9 35  1  0
  6  1  1  0
 34 10  1  0
 35  4  1  0
 21 16  1  0
 33 24  1  0
 32 27  1  0
  1 36  1  0
  2 37  1  0
  3 38  1  0
  6 39  1  0
  7 40  1  0
  7 41  1  0
  8 42  1  0
  8 43  1  0
 11 44  1  0
 13 45  1  0
 14 46  1  0
 14 47  1  0
 15 48  1  0
 15 49  1  0
 16 50  1  1
 17 51  1  0
 17 52  1  0
 18 53  1  0
 18 54  1  0
 19 55  1  0
 19 56  1  0
 20 57  1  0
 20 58  1  0
 21 59  1  0
 25 60  1  0
 25 61  1  0
 26 62  1  0
 26 63  1  0
 28 64  1  0
 29 65  1  0
 30 66  1  0
 31 67  1  0
 33 68  1  0
 33 69  1  0
 35 70  1  0
 35 71  1  0
M  END
>  <UniqueID>  (59) 
587

>  <SMILES>  (59) 
c1ccc2c(c1)CCN(c1cc(NCC[C@H]3CCCCN3)nc(N3CCc4ccccc4C3)n1)C2

>  <Energy>  (59) 
84.83726583118538

>  <Genealogy>  (59) 
c1ccc2c(c1)CCN(c1cc(NCC[C@H]3CCCCN3)nc(N3CCc4ccccc4C3)n1)C2 (chirality)
c1ccc2c(c1)CCN(c1cc(NCC[C@H]3CCCCN3)nc(N3CCc4ccccc4C3)n1)C2 (3D coordinates assigned)
c1ccc2c(c1)CCN(c1cc(NCC[C@H]3CCCCN3)nc(N3CCc4ccccc4C3)n1)C2 (nonaromatic ring conformer: 84.83726583118538 kcal/mol)

>  <smiles>  (59) 
c1ccc2c(c1)CCN(c1cc(NCCC3CCCCN3)nc(N3CCc4ccccc4C3)n1)C2

>  <score_type>  (59) 
oracle

>  <origin>  (59) 
autodockgpu

>  <m_score__min__energy>  (59) 
-10.380000000000001

>  <m_primary>  (59) 
energy

>  <meeko>  (59) 
{"free_energy": -9.03, "intermolecular_energy": -10.82, "internal_energy": -2.13, "cluster_size": 5, "cluster_id": 5, "rank_in_cluster": 3}

>  <energy>  (59) 
-8.81

>  <cluster_rmsd>  (59) 
0.51

>  <rmsd>  (59) 
269.43

>  <cluster>  (59) 
5

$$$$
VOUYAFWJUZHTKY-RNPWZEQVNA-N
     RDKit          3D

 71 76  0  0  0  0  0  0  0  0999 V2000
  139.3950   69.6390  227.8800 C   0  0  0  0  0  0  0  0  0  0  0  0
  140.5180   70.4680  227.9750 C   0  0  0  0  0  0  0  0  0  0  0  0
  141.0440   71.0720  226.8310 C   0  0  0  0  0  0  0  0  0  0  0  0
  140.4510   70.8560  225.5790 C   0  0  0  0  0  0  0  0  0  0  0  0
  139.3330   69.9910  225.4760 C   0  0  0  0  0  0  0  0  0  0  0  0
  138.8040   69.3990  226.6390 C   0  0  0  0  0  0  0  0  0  0  0  0
  138.6430   69.7590  224.1540 C   0  0  0  0  0  0  0  0  0  0  0  0
  139.5890   70.0190  222.9820 C   0  0  0  0  0  0  0  0  0  0  0  0
  140.2270   71.3250  223.1680 N   0  0  0  0  0  0  0  0  0  0  0  0
  140.2650   72.3020  222.1100 C   0  0  0  0  0  0  0  0  0  0  0  0
  140.4140   71.9110  220.7740 C   0  0  0  0  0  0  0  0  0  0  0  0
  140.4480   72.9000  219.7790 C   0  0  0  0  0  0  0  0  0  0  0  0
  140.6110   72.5700  218.3910 N   0  0  0  0  0  0  0  0  0  0  0  0
  141.9180   72.3510  217.7660 C   0  0  0  0  0  0  0  0  0  0  0  0
  142.7660   71.4070  218.6350 C   0  0  0  0  0  0  0  0  0  0  0  0
  143.6390   72.1670  219.6500 C   0  0  1  0  0  0  0  0  0  0  0  0
  145.1310   71.9910  219.2950 C   0  0  0  0  0  0  0  0  0  0  0  0
  146.0360   72.6800  220.3350 C   0  0  0  0  0  0  0  0  0  0  0  0
  145.3480   73.8760  221.0160 C   0  0  0  0  0  0  0  0  0  0  0  0
  144.3220   74.5300  220.0820 C   0  0  0  0  0  0  0  0  0  0  0  0
  143.2460   73.5970  219.6830 N   0  0  0  0  0  0  0  0  0  0  0  0
  140.3110   74.2050  220.1350 N   0  0  0  0  0  0  0  0  0  0  0  0
  140.1280   74.5780  221.4300 C   0  0  0  0  0  0  0  0  0  0  0  0
  139.9270   75.9680  221.7660 N   0  0  0  0  0  0  0  0  0  0  0  0
  138.8080   76.3240  222.6630 C   0  0  0  0  0  0  0  0  0  0  0  0
  138.5430   77.8340  222.7160 C   0  0  0  0  0  0  0  0  0  0  0  0
  139.8280   78.5860  222.8770 C   0  0  0  0  0  0  0  0  0  0  0  0
  139.9080   79.7180  223.7040 C   0  0  0  0  0  0  0  0  0  0  0  0
  141.1060   80.4350  223.7980 C   0  0  0  0  0  0  0  0  0  0  0  0
  142.2180   80.0390  223.0460 C   0  0  0  0  0  0  0  0  0  0  0  0
  142.1410   78.9210  222.2110 C   0  0  0  0  0  0  0  0  0  0  0  0
  140.9480   78.1830  222.1290 C   0  0  0  0  0  0  0  0  0  0  0  0
  140.8380   76.9930  221.2160 C   0  0  0  0  0  0  0  0  0  0  0  0
  140.1090   73.6230  222.4010 N   0  0  0  0  0  0  0  0  0  0  0  0
  141.0660   71.5040  224.3580 C   0  0  0  0  0  0  0  0  0  0  0  0
  138.9770   69.1753  228.7857 H   0  0  0  0  0  0  0  0  0  0  0  0
  140.9880   70.6446  228.9537 H   0  0  0  0  0  0  0  0  0  0  0  0
  141.9285   71.7208  226.9126 H   0  0  0  0  0  0  0  0  0  0  0  0
  137.9221   68.7453  226.5690 H   0  0  0  0  0  0  0  0  0  0  0  0
  138.2949   68.7165  224.1093 H   0  0  0  0  0  0  0  0  0  0  0  0
  137.7950   70.4554  224.0775 H   0  0  0  0  0  0  0  0  0  0  0  0
  140.3585   69.2337  222.9473 H   0  0  0  0  0  0  0  0  0  0  0  0
  139.0241   70.0111  222.0381 H   0  0  0  0  0  0  0  0  0  0  0  0
  140.5029   70.8471  220.5089 H   0  0  0  0  0  0  0  0  0  0  0  0
  139.7710   72.2310  217.8680 H   0  0  0  0  0  0  0  0  0  0  0  0
  141.7756   71.9015  216.7722 H   0  0  0  0  0  0  0  0  0  0  0  0
  142.4375   73.3157  217.6686 H   0  0  0  0  0  0  0  0  0  0  0  0
  142.0926   70.7324  219.1840 H   0  0  0  0  0  0  0  0  0  0  0  0
  143.4384   70.8499  217.9661 H   0  0  0  0  0  0  0  0  0  0  0  0
  143.4828   71.7531  220.6571 H   0  0  0  0  0  0  0  0  0  0  0  0
  145.3691   70.9174  219.2672 H   0  0  0  0  0  0  0  0  0  0  0  0
  145.3127   72.4539  218.3138 H   0  0  0  0  0  0  0  0  0  0  0  0
  146.3099   71.9449  221.1061 H   0  0  0  0  0  0  0  0  0  0  0  0
  146.9219   73.0613  219.8061 H   0  0  0  0  0  0  0  0  0  0  0  0
  144.8350   73.5258  221.9239 H   0  0  0  0  0  0  0  0  0  0  0  0
  146.1155   74.6225  221.2683 H   0  0  0  0  0  0  0  0  0  0  0  0
  143.8704   75.3890  220.5998 H   0  0  0  0  0  0  0  0  0  0  0  0
  144.8508   74.8414  219.1691 H   0  0  0  0  0  0  0  0  0  0  0  0
  142.4550   73.7060  220.3550 H   0  0  0  0  0  0  0  0  0  0  0  0
  137.8978   75.8202  222.3057 H   0  0  0  0  0  0  0  0  0  0  0  0
  139.0828   76.0011  223.6780 H   0  0  0  0  0  0  0  0  0  0  0  0
  138.0537   78.1488  221.7824 H   0  0  0  0  0  0  0  0  0  0  0  0
  137.8930   78.0514  223.5764 H   0  0  0  0  0  0  0  0  0  0  0  0
  139.0277   80.0416  224.2787 H   0  0  0  0  0  0  0  0  0  0  0  0
  141.1737   81.3091  224.4624 H   0  0  0  0  0  0  0  0  0  0  0  0
  143.1560   80.6098  223.1125 H   0  0  0  0  0  0  0  0  0  0  0  0
  143.0158   78.6182  221.6169 H   0  0  0  0  0  0  0  0  0  0  0  0
  140.4537   77.3258  220.2405 H   0  0  0  0  0  0  0  0  0  0  0  0
  141.8374   76.5452  221.1124 H   0  0  0  0  0  0  0  0  0  0  0  0
  142.0506   71.0504  224.1715 H   0  0  0  0  0  0  0  0  0  0  0  0
  141.1593   72.5826  224.5526 H   0  0  0  0  0  0  0  0  0  0  0  0
  1  2  2  0
  2  3  1  0
  3  4  2  0
  4  5  1  0
  5  6  2  0
  5  7  1  0
  7  8  1  0
  8  9  1  0
  9 10  1  0
 10 11  2  0
 11 12  1  0
 12 13  1  0
 13 14  1  0
 14 15  1  0
 15 16  1  0
 16 17  1  0
 17 18  1  0
 18 19  1  0
 19 20  1  0
 20 21  1  0
 12 22  2  0
 22 23  1  0
 23 24  1  0
 24 25  1  0
 25 26  1  0
 26 27  1  0
 27 28  2  0
 28 29  1  0
 29 30  2  0
 30 31  1  0
 31 32  2  0
 32 33  1  0
 23 34  2  0
  9 35  1  0
  6  1  1  0
 34 10  1  0
 35  4  1  0
 21 16  1  0
 33 24  1  0
 32 27  1  0
  1 36  1  0
  2 37  1  0
  3 38  1  0
  6 39  1  0
  7 40  1  0
  7 41  1  0
  8 42  1  0
  8 43  1  0
 11 44  1  0
 13 45  1  0
 14 46  1  0
 14 47  1  0
 15 48  1  0
 15 49  1  0
 16 50  1  1
 17 51  1  0
 17 52  1  0
 18 53  1  0
 18 54  1  0
 19 55  1  0
 19 56  1  0
 20 57  1  0
 20 58  1  0
 21 59  1  0
 25 60  1  0
 25 61  1  0
 26 62  1  0
 26 63  1  0
 28 64  1  0
 29 65  1  0
 30 66  1  0
 31 67  1  0
 33 68  1  0
 33 69  1  0
 35 70  1  0
 35 71  1  0
M  END
>  <UniqueID>  (60) 
587

>  <SMILES>  (60) 
c1ccc2c(c1)CCN(c1cc(NCC[C@H]3CCCCN3)nc(N3CCc4ccccc4C3)n1)C2

>  <Energy>  (60) 
84.83726583118538

>  <Genealogy>  (60) 
c1ccc2c(c1)CCN(c1cc(NCC[C@H]3CCCCN3)nc(N3CCc4ccccc4C3)n1)C2 (chirality)
c1ccc2c(c1)CCN(c1cc(NCC[C@H]3CCCCN3)nc(N3CCc4ccccc4C3)n1)C2 (3D coordinates assigned)
c1ccc2c(c1)CCN(c1cc(NCC[C@H]3CCCCN3)nc(N3CCc4ccccc4C3)n1)C2 (nonaromatic ring conformer: 84.83726583118538 kcal/mol)

>  <smiles>  (60) 
c1ccc2c(c1)CCN(c1cc(NCCC3CCCCN3)nc(N3CCc4ccccc4C3)n1)C2

>  <score_type>  (60) 
oracle

>  <origin>  (60) 
autodockgpu

>  <m_score__min__energy>  (60) 
-10.380000000000001

>  <m_primary>  (60) 
energy

>  <meeko>  (60) 
{"free_energy": -9.18, "intermolecular_energy": -10.97, "internal_energy": -1.98, "cluster_size": 8, "cluster_id": 1, "rank_in_cluster": 7}

>  <energy>  (60) 
-8.73

>  <cluster_rmsd>  (60) 
0.0

>  <rmsd>  (60) 
269.35

>  <cluster>  (60) 
6

$$$$
VOUYAFWJUZHTKY-RNPWZEQVNA-N
     RDKit          3D

 71 76  0  0  0  0  0  0  0  0999 V2000
  140.2000   68.3320  226.5610 C   0  0  0  0  0  0  0  0  0  0  0  0
  141.0120   69.4160  226.9120 C   0  0  0  0  0  0  0  0  0  0  0  0
  141.0820   70.5380  226.0830 C   0  0  0  0  0  0  0  0  0  0  0  0
  140.3390   70.5900  224.8950 C   0  0  0  0  0  0  0  0  0  0  0  0
  139.5420   69.4810  224.5220 C   0  0  0  0  0  0  0  0  0  0  0  0
  139.4680   68.3610  225.3720 C   0  0  0  0  0  0  0  0  0  0  0  0
  138.6990   69.5090  223.2700 C   0  0  0  0  0  0  0  0  0  0  0  0
  139.2590   70.4970  222.2470 C   0  0  0  0  0  0  0  0  0  0  0  0
  139.4950   71.7830  222.9090 N   0  0  0  0  0  0  0  0  0  0  0  0
  139.0160   73.0190  222.3440 C   0  0  0  0  0  0  0  0  0  0  0  0
  137.6670   73.1800  222.0050 C   0  0  0  0  0  0  0  0  0  0  0  0
  137.2490   74.4020  221.4550 C   0  0  0  0  0  0  0  0  0  0  0  0
  135.8840   74.6310  221.0740 N   0  0  0  0  0  0  0  0  0  0  0  0
  134.9220   75.3410  221.9220 C   0  0  0  0  0  0  0  0  0  0  0  0
  135.5940   75.7670  223.2380 C   0  0  0  0  0  0  0  0  0  0  0  0
  135.1360   74.9130  224.4350 C   0  0  1  0  0  0  0  0  0  0  0  0
  133.6080   75.0380  224.6140 C   0  0  0  0  0  0  0  0  0  0  0  0
  133.1270   74.2530  225.8500 C   0  0  0  0  0  0  0  0  0  0  0  0
  134.0350   73.0550  226.1800 C   0  0  0  0  0  0  0  0  0  0  0  0
  134.7010   72.5010  224.9130 C   0  0  0  0  0  0  0  0  0  0  0  0
  135.5530   73.5030  224.2390 N   0  0  0  0  0  0  0  0  0  0  0  0
  138.1570   75.4000  221.2890 N   0  0  0  0  0  0  0  0  0  0  0  0
  139.4580   75.2520  221.6540 C   0  0  0  0  0  0  0  0  0  0  0  0
  140.3820   76.3530  221.5170 N   0  0  0  0  0  0  0  0  0  0  0  0
  140.6040   76.9270  220.1740 C   0  0  0  0  0  0  0  0  0  0  0  0
  141.7960   77.8920  220.1260 C   0  0  0  0  0  0  0  0  0  0  0  0
  141.7520   78.8380  221.2860 C   0  0  0  0  0  0  0  0  0  0  0  0
  142.1060   80.1880  221.1360 C   0  0  0  0  0  0  0  0  0  0  0  0
  142.1080   81.0400  222.2460 C   0  0  0  0  0  0  0  0  0  0  0  0
  141.7810   80.5410  223.5110 C   0  0  0  0  0  0  0  0  0  0  0  0
  141.4400   79.1950  223.6690 C   0  0  0  0  0  0  0  0  0  0  0  0
  141.4150   78.3380  222.5560 C   0  0  0  0  0  0  0  0  0  0  0  0
  141.0760   76.8800  222.7110 C   0  0  0  0  0  0  0  0  0  0  0  0
  139.8720   74.0640  222.1750 N   0  0  0  0  0  0  0  0  0  0  0  0
  140.4650   71.8100  224.0090 C   0  0  0  0  0  0  0  0  0  0  0  0
  140.1381   67.4554  227.2227 H   0  0  0  0  0  0  0  0  0  0  0  0
  141.5967   69.3846  227.8432 H   0  0  0  0  0  0  0  0  0  0  0  0
  141.7239   71.3860  226.3638 H   0  0  0  0  0  0  0  0  0  0  0  0
  138.8318   67.5063  225.0987 H   0  0  0  0  0  0  0  0  0  0  0  0
  138.6835   68.5029  222.8256 H   0  0  0  0  0  0  0  0  0  0  0  0
  137.6825   69.8291  223.5423 H   0  0  0  0  0  0  0  0  0  0  0  0
  140.2059   70.1114  221.8411 H   0  0  0  0  0  0  0  0  0  0  0  0
  138.5414   70.6278  221.4236 H   0  0  0  0  0  0  0  0  0  0  0  0
  136.9478   72.3636  222.1668 H   0  0  0  0  0  0  0  0  0  0  0  0
  135.6320   74.5130  220.0660 H   0  0  0  0  0  0  0  0  0  0  0  0
  134.5596   76.2344  221.3923 H   0  0  0  0  0  0  0  0  0  0  0  0
  134.0780   74.6727  222.1477 H   0  0  0  0  0  0  0  0  0  0  0  0
  136.6836   75.6646  223.1275 H   0  0  0  0  0  0  0  0  0  0  0  0
  135.3052   76.8091  223.4398 H   0  0  0  0  0  0  0  0  0  0  0  0
  135.6136   75.2787  225.3560 H   0  0  0  0  0  0  0  0  0  0  0  0
  133.3467   76.0992  224.7386 H   0  0  0  0  0  0  0  0  0  0  0  0
  133.1170   74.6204  223.7226 H   0  0  0  0  0  0  0  0  0  0  0  0
  133.1118   74.9324  226.7150 H   0  0  0  0  0  0  0  0  0  0  0  0
  132.1245   73.8596  225.6257 H   0  0  0  0  0  0  0  0  0  0  0  0
  134.8157   73.3791  226.8839 H   0  0  0  0  0  0  0  0  0  0  0  0
  133.4178   72.2612  226.6259 H   0  0  0  0  0  0  0  0  0  0  0  0
  135.3234   71.6374  225.1901 H   0  0  0  0  0  0  0  0  0  0  0  0
  133.9025   72.2149  224.2126 H   0  0  0  0  0  0  0  0  0  0  0  0
  136.5280   73.3960  224.5970 H   0  0  0  0  0  0  0  0  0  0  0  0
  140.7896   76.1047  219.4673 H   0  0  0  0  0  0  0  0  0  0  0  0
  139.7041   77.5009  219.9077 H   0  0  0  0  0  0  0  0  0  0  0  0
  142.7313   77.3143  220.1653 H   0  0  0  0  0  0  0  0  0  0  0  0
  141.7472   78.4715  219.1923 H   0  0  0  0  0  0  0  0  0  0  0  0
  142.3822   80.5766  220.1447 H   0  0  0  0  0  0  0  0  0  0  0  0
  142.3667   82.1021  222.1237 H   0  0  0  0  0  0  0  0  0  0  0  0
  141.7923   81.2100  224.3841 H   0  0  0  0  0  0  0  0  0  0  0  0
  141.1906   78.8056  224.6671 H   0  0  0  0  0  0  0  0  0  0  0  0
  142.0053   76.3117  222.8637 H   0  0  0  0  0  0  0  0  0  0  0  0
  140.4037   76.7729  223.5751 H   0  0  0  0  0  0  0  0  0  0  0  0
  141.4808   71.8417  223.5881 H   0  0  0  0  0  0  0  0  0  0  0  0
  140.2646   72.7014  224.6216 H   0  0  0  0  0  0  0  0  0  0  0  0
  1  2  2  0
  2  3  1  0
  3  4  2  0
  4  5  1  0
  5  6  2  0
  5  7  1  0
  7  8  1  0
  8  9  1  0
  9 10  1  0
 10 11  2  0
 11 12  1  0
 12 13  1  0
 13 14  1  0
 14 15  1  0
 15 16  1  0
 16 17  1  0
 17 18  1  0
 18 19  1  0
 19 20  1  0
 20 21  1  0
 12 22  2  0
 22 23  1  0
 23 24  1  0
 24 25  1  0
 25 26  1  0
 26 27  1  0
 27 28  2  0
 28 29  1  0
 29 30  2  0
 30 31  1  0
 31 32  2  0
 32 33  1  0
 23 34  2  0
  9 35  1  0
  6  1  1  0
 34 10  1  0
 35  4  1  0
 21 16  1  0
 33 24  1  0
 32 27  1  0
  1 36  1  0
  2 37  1  0
  3 38  1  0
  6 39  1  0
  7 40  1  0
  7 41  1  0
  8 42  1  0
  8 43  1  0
 11 44  1  0
 13 45  1  0
 14 46  1  0
 14 47  1  0
 15 48  1  0
 15 49  1  0
 16 50  1  1
 17 51  1  0
 17 52  1  0
 18 53  1  0
 18 54  1  0
 19 55  1  0
 19 56  1  0
 20 57  1  0
 20 58  1  0
 21 59  1  0
 25 60  1  0
 25 61  1  0
 26 62  1  0
 26 63  1  0
 28 64  1  0
 29 65  1  0
 30 66  1  0
 31 67  1  0
 33 68  1  0
 33 69  1  0
 35 70  1  0
 35 71  1  0
M  END
>  <UniqueID>  (61) 
588

>  <SMILES>  (61) 
c1ccc2c(c1)CCN(c1cc(NCC[C@H]3CCCCN3)nc(N3CCc4ccccc4C3)n1)C2

>  <Energy>  (61) 
87.22047786587387

>  <Genealogy>  (61) 
c1ccc2c(c1)CCN(c1cc(NCC[C@H]3CCCCN3)nc(N3CCc4ccccc4C3)n1)C2 (chirality)
c1ccc2c(c1)CCN(c1cc(NCC[C@H]3CCCCN3)nc(N3CCc4ccccc4C3)n1)C2 (3D coordinates assigned)
c1ccc2c(c1)CCN(c1cc(NCC[C@H]3CCCCN3)nc(N3CCc4ccccc4C3)n1)C2 (nonaromatic ring conformer: 87.22047786587387 kcal/mol)

>  <smiles>  (61) 
c1ccc2c(c1)CCN(c1cc(NCCC3CCCCN3)nc(N3CCc4ccccc4C3)n1)C2

>  <score_type>  (61) 
oracle

>  <origin>  (61) 
autodockgpu

>  <m_score__min__energy>  (61) 
-10.380000000000001

>  <m_primary>  (61) 
energy

>  <meeko>  (61) 
{"free_energy": -9.44, "intermolecular_energy": -11.23, "internal_energy": -1.35, "cluster_size": 3, "cluster_id": 4, "rank_in_cluster": 1}

>  <energy>  (61) 
-10.38

>  <cluster_rmsd>  (61) 
0.0

>  <rmsd>  (61) 
269.43

>  <cluster>  (61) 
1

$$$$
VOUYAFWJUZHTKY-RNPWZEQVNA-N
     RDKit          3D

 71 76  0  0  0  0  0  0  0  0999 V2000
  142.0980   81.3230  222.4000 C   0  0  0  0  0  0  0  0  0  0  0  0
  141.4640   80.8530  223.5550 C   0  0  0  0  0  0  0  0  0  0  0  0
  140.9320   79.5620  223.5880 C   0  0  0  0  0  0  0  0  0  0  0  0
  141.0310   78.7250  222.4680 C   0  0  0  0  0  0  0  0  0  0  0  0
  141.6440   79.2100  221.2870 C   0  0  0  0  0  0  0  0  0  0  0  0
  142.1880   80.5090  221.2700 C   0  0  0  0  0  0  0  0  0  0  0  0
  141.8030   78.3310  220.0710 C   0  0  0  0  0  0  0  0  0  0  0  0
  140.7590   77.2150  220.0530 C   0  0  0  0  0  0  0  0  0  0  0  0
  140.7630   76.5410  221.3550 N   0  0  0  0  0  0  0  0  0  0  0  0
  140.8300   75.1050  221.4590 C   0  0  0  0  0  0  0  0  0  0  0  0
  139.8520   74.3880  222.1580 C   0  0  0  0  0  0  0  0  0  0  0  0
  139.9630   72.9910  222.2330 C   0  0  0  0  0  0  0  0  0  0  0  0
  139.0030   72.1940  222.9440 N   0  0  0  0  0  0  0  0  0  0  0  0
  139.3630   71.0000  223.7140 C   0  0  0  0  0  0  0  0  0  0  0  0
  140.5050   71.3260  224.6900 C   0  0  0  0  0  0  0  0  0  0  0  0
  140.7980   70.1680  225.6620 C   0  0  1  0  0  0  0  0  0  0  0  0
  140.6580   70.6580  227.1190 C   0  0  0  0  0  0  0  0  0  0  0  0
  141.0160   69.5420  228.1180 C   0  0  0  0  0  0  0  0  0  0  0  0
  140.7530   68.1350  227.5520 C   0  0  0  0  0  0  0  0  0  0  0  0
  139.6060   68.1550  226.5340 C   0  0  0  0  0  0  0  0  0  0  0  0
  139.8920   69.0280  225.3760 N   0  0  0  0  0  0  0  0  0  0  0  0
  140.9990   72.3730  221.6080 N   0  0  0  0  0  0  0  0  0  0  0  0
  141.9250   73.0700  220.8970 C   0  0  0  0  0  0  0  0  0  0  0  0
  142.9800   72.3750  220.1970 N   0  0  0  0  0  0  0  0  0  0  0  0
  144.3120   73.0100  220.1160 C   0  0  0  0  0  0  0  0  0  0  0  0
  145.2490   72.3070  219.1240 C   0  0  0  0  0  0  0  0  0  0  0  0
  145.1970   70.8230  219.3160 C   0  0  0  0  0  0  0  0  0  0  0  0
  146.3580   70.0380  219.2220 C   0  0  0  0  0  0  0  0  0  0  0  0
  146.2760   68.6470  219.3540 C   0  0  0  0  0  0  0  0  0  0  0  0
  145.0340   68.0360  219.5550 C   0  0  0  0  0  0  0  0  0  0  0  0
  143.8730   68.8110  219.6360 C   0  0  0  0  0  0  0  0  0  0  0  0
  143.9500   70.2090  219.5270 C   0  0  0  0  0  0  0  0  0  0  0  0
  142.7090   71.0570  219.5870 C   0  0  0  0  0  0  0  0  0  0  0  0
  141.8300   74.4270  220.8330 N   0  0  0  0  0  0  0  0  0  0  0  0
  140.4160   77.3440  222.5330 C   0  0  0  0  0  0  0  0  0  0  0  0
  142.5264   82.3360  222.3824 H   0  0  0  0  0  0  0  0  0  0  0  0
  141.3842   81.5019  224.4396 H   0  0  0  0  0  0  0  0  0  0  0  0
  140.4322   79.1999  224.4985 H   0  0  0  0  0  0  0  0  0  0  0  0
  142.6855   80.8832  220.3631 H   0  0  0  0  0  0  0  0  0  0  0  0
  141.6860   78.9459  219.1665 H   0  0  0  0  0  0  0  0  0  0  0  0
  142.8020   77.8718  220.1025 H   0  0  0  0  0  0  0  0  0  0  0  0
  139.7639   77.6431  219.8617 H   0  0  0  0  0  0  0  0  0  0  0  0
  140.9985   76.4930  219.2584 H   0  0  0  0  0  0  0  0  0  0  0  0
  139.0120   74.9099  222.6397 H   0  0  0  0  0  0  0  0  0  0  0  0
  138.0620   72.6130  223.1280 H   0  0  0  0  0  0  0  0  0  0  0  0
  138.4863   70.6551  224.2818 H   0  0  0  0  0  0  0  0  0  0  0  0
  139.6944   70.2116  223.0222 H   0  0  0  0  0  0  0  0  0  0  0  0
  141.4151   71.5386  224.1099 H   0  0  0  0  0  0  0  0  0  0  0  0
  140.1952   72.1951  225.2889 H   0  0  0  0  0  0  0  0  0  0  0  0
  141.8318   69.8187  225.5228 H   0  0  0  0  0  0  0  0  0  0  0  0
  141.3336   71.5116  227.2771 H   0  0  0  0  0  0  0  0  0  0  0  0
  139.6124   70.9549  227.2880 H   0  0  0  0  0  0  0  0  0  0  0  0
  142.0829   69.6257  228.3725 H   0  0  0  0  0  0  0  0  0  0  0  0
  140.3767   69.6699  229.0039 H   0  0  0  0  0  0  0  0  0  0  0  0
  141.6656   67.7701  227.0579 H   0  0  0  0  0  0  0  0  0  0  0  0
  140.4714   67.4712  228.3827 H   0  0  0  0  0  0  0  0  0  0  0  0
  139.4391   67.1303  226.1705 H   0  0  0  0  0  0  0  0  0  0  0  0
  138.7155   68.5542  227.0416 H   0  0  0  0  0  0  0  0  0  0  0  0
  140.3250   68.4450  224.6270 H   0  0  0  0  0  0  0  0  0  0  0  0
  144.1839   74.0551  219.7976 H   0  0  0  0  0  0  0  0  0  0  0  0
  144.7727   72.9394  221.1124 H   0  0  0  0  0  0  0  0  0  0  0  0
  144.9379   72.5504  218.0974 H   0  0  0  0  0  0  0  0  0  0  0  0
  146.2782   72.6529  219.3001 H   0  0  0  0  0  0  0  0  0  0  0  0
  147.3323   70.5168  219.0445 H   0  0  0  0  0  0  0  0  0  0  0  0
  147.1881   68.0345  219.2997 H   0  0  0  0  0  0  0  0  0  0  0  0
  144.9703   66.9419  219.6497 H   0  0  0  0  0  0  0  0  0  0  0  0
  142.8976   68.3248  219.7854 H   0  0  0  0  0  0  0  0  0  0  0  0
  142.3298   71.2076  218.5655 H   0  0  0  0  0  0  0  0  0  0  0  0
  141.9661   70.5362  220.2090 H   0  0  0  0  0  0  0  0  0  0  0  0
  139.3218   77.4429  222.5876 H   0  0  0  0  0  0  0  0  0  0  0  0
  140.8099   76.8341  223.4245 H   0  0  0  0  0  0  0  0  0  0  0  0
  1  2  2  0
  2  3  1  0
  3  4  2  0
  4  5  1  0
  5  6  2  0
  5  7  1  0
  7  8  1  0
  8  9  1  0
  9 10  1  0
 10 11  2  0
 11 12  1  0
 12 13  1  0
 13 14  1  0
 14 15  1  0
 15 16  1  0
 16 17  1  0
 17 18  1  0
 18 19  1  0
 19 20  1  0
 20 21  1  0
 12 22  2  0
 22 23  1  0
 23 24  1  0
 24 25  1  0
 25 26  1  0
 26 27  1  0
 27 28  2  0
 28 29  1  0
 29 30  2  0
 30 31  1  0
 31 32  2  0
 32 33  1  0
 23 34  2  0
  9 35  1  0
  6  1  1  0
 34 10  1  0
 35  4  1  0
 21 16  1  0
 33 24  1  0
 32 27  1  0
  1 36  1  0
  2 37  1  0
  3 38  1  0
  6 39  1  0
  7 40  1  0
  7 41  1  0
  8 42  1  0
  8 43  1  0
 11 44  1  0
 13 45  1  0
 14 46  1  0
 14 47  1  0
 15 48  1  0
 15 49  1  0
 16 50  1  1
 17 51  1  0
 17 52  1  0
 18 53  1  0
 18 54  1  0
 19 55  1  0
 19 56  1  0
 20 57  1  0
 20 58  1  0
 21 59  1  0
 25 60  1  0
 25 61  1  0
 26 62  1  0
 26 63  1  0
 28 64  1  0
 29 65  1  0
 30 66  1  0
 31 67  1  0
 33 68  1  0
 33 69  1  0
 35 70  1  0
 35 71  1  0
M  END
>  <UniqueID>  (62) 
588

>  <SMILES>  (62) 
c1ccc2c(c1)CCN(c1cc(NCC[C@H]3CCCCN3)nc(N3CCc4ccccc4C3)n1)C2

>  <Energy>  (62) 
87.22047786587387

>  <Genealogy>  (62) 
c1ccc2c(c1)CCN(c1cc(NCC[C@H]3CCCCN3)nc(N3CCc4ccccc4C3)n1)C2 (chirality)
c1ccc2c(c1)CCN(c1cc(NCC[C@H]3CCCCN3)nc(N3CCc4ccccc4C3)n1)C2 (3D coordinates assigned)
c1ccc2c(c1)CCN(c1cc(NCC[C@H]3CCCCN3)nc(N3CCc4ccccc4C3)n1)C2 (nonaromatic ring conformer: 87.22047786587387 kcal/mol)

>  <smiles>  (62) 
c1ccc2c(c1)CCN(c1cc(NCCC3CCCCN3)nc(N3CCc4ccccc4C3)n1)C2

>  <score_type>  (62) 
oracle

>  <origin>  (62) 
autodockgpu

>  <m_score__min__energy>  (62) 
-10.380000000000001

>  <m_primary>  (62) 
energy

>  <meeko>  (62) 
{"free_energy": -10.06, "intermolecular_energy": -11.85, "internal_energy": -0.96, "cluster_size": 2, "cluster_id": 2, "rank_in_cluster": 1}

>  <energy>  (62) 
-9.8

>  <cluster_rmsd>  (62) 
0.96

>  <rmsd>  (62) 
269.41

>  <cluster>  (62) 
1

$$$$
VOUYAFWJUZHTKY-RNPWZEQVNA-N
     RDKit          3D

 71 76  0  0  0  0  0  0  0  0999 V2000
  139.5930   69.7190  228.3210 C   0  0  0  0  0  0  0  0  0  0  0  0
  140.6450   70.6410  228.3300 C   0  0  0  0  0  0  0  0  0  0  0  0
  141.0810   71.2210  227.1360 C   0  0  0  0  0  0  0  0  0  0  0  0
  140.4670   70.8890  225.9210 C   0  0  0  0  0  0  0  0  0  0  0  0
  139.4230   69.9320  225.9050 C   0  0  0  0  0  0  0  0  0  0  0  0
  138.9830   69.3640  227.1160 C   0  0  0  0  0  0  0  0  0  0  0  0
  138.7110   69.5720  224.6240 C   0  0  0  0  0  0  0  0  0  0  0  0
  139.5930   69.8430  223.4050 C   0  0  0  0  0  0  0  0  0  0  0  0
  140.1270   71.2040  223.4990 N   0  0  0  0  0  0  0  0  0  0  0  0
  140.0480   72.1210  222.3900 C   0  0  0  0  0  0  0  0  0  0  0  0
  140.0390   71.6550  221.0700 C   0  0  0  0  0  0  0  0  0  0  0  0
  139.9640   72.5880  220.0240 C   0  0  0  0  0  0  0  0  0  0  0  0
  139.9620   72.1800  218.6470 N   0  0  0  0  0  0  0  0  0  0  0  0
  141.1830   71.8470  217.9070 C   0  0  0  0  0  0  0  0  0  0  0  0
  142.2570   71.3170  218.8720 C   0  0  0  0  0  0  0  0  0  0  0  0
  142.9680   72.4480  219.6380 C   0  0  1  0  0  0  0  0  0  0  0  0
  144.4850   72.1690  219.6960 C   0  0  0  0  0  0  0  0  0  0  0  0
  145.2180   73.2450  220.5190 C   0  0  0  0  0  0  0  0  0  0  0  0
  144.4950   74.6040  220.4930 C   0  0  0  0  0  0  0  0  0  0  0  0
  143.7130   74.7880  219.1860 C   0  0  0  0  0  0  0  0  0  0  0  0
  142.6740   73.7540  218.9980 N   0  0  0  0  0  0  0  0  0  0  0  0
  139.8790   73.9110  220.3200 N   0  0  0  0  0  0  0  0  0  0  0  0
  139.8500   74.3580  221.6040 C   0  0  0  0  0  0  0  0  0  0  0  0
  139.6990   75.7670  221.8820 N   0  0  0  0  0  0  0  0  0  0  0  0
  138.5520   76.2060  222.7030 C   0  0  0  0  0  0  0  0  0  0  0  0
  138.3590   77.7290  222.6920 C   0  0  0  0  0  0  0  0  0  0  0  0
  139.6680   78.4250  222.8990 C   0  0  0  0  0  0  0  0  0  0  0  0
  139.7580   79.5800  223.6920 C   0  0  0  0  0  0  0  0  0  0  0  0
  140.9830   80.2430  223.8280 C   0  0  0  0  0  0  0  0  0  0  0  0
  142.1140   79.7690  223.1530 C   0  0  0  0  0  0  0  0  0  0  0  0
  142.0270   78.6270  222.3520 C   0  0  0  0  0  0  0  0  0  0  0  0
  140.8060   77.9430  222.2280 C   0  0  0  0  0  0  0  0  0  0  0  0
  140.6870   76.7270  221.3500 C   0  0  0  0  0  0  0  0  0  0  0  0
  139.9370   73.4580  222.6220 N   0  0  0  0  0  0  0  0  0  0  0  0
  140.9860   71.5160  224.6460 C   0  0  0  0  0  0  0  0  0  0  0  0
  139.2457   69.2729  229.2646 H   0  0  0  0  0  0  0  0  0  0  0  0
  141.1303   70.9101  229.2798 H   0  0  0  0  0  0  0  0  0  0  0  0
  141.9112   71.9425  227.1499 H   0  0  0  0  0  0  0  0  0  0  0  0
  138.1562   68.6384  227.1128 H   0  0  0  0  0  0  0  0  0  0  0  0
  138.4495   68.5038  224.6471 H   0  0  0  0  0  0  0  0  0  0  0  0
  137.8058   70.1918  224.5431 H   0  0  0  0  0  0  0  0  0  0  0  0
  140.4230   69.1214  223.3820 H   0  0  0  0  0  0  0  0  0  0  0  0
  138.9995   69.7382  222.4848 H   0  0  0  0  0  0  0  0  0  0  0  0
  140.0898   70.5771  220.8564 H   0  0  0  0  0  0  0  0  0  0  0  0
  139.0540   71.8690  218.2310 H   0  0  0  0  0  0  0  0  0  0  0  0
  140.9550   71.0754  217.1569 H   0  0  0  0  0  0  0  0  0  0  0  0
  141.5609   72.7522  217.4093 H   0  0  0  0  0  0  0  0  0  0  0  0
  141.7778   70.6449  219.5991 H   0  0  0  0  0  0  0  0  0  0  0  0
  143.0145   70.7896  218.2736 H   0  0  0  0  0  0  0  0  0  0  0  0
  142.5935   72.4886  220.6715 H   0  0  0  0  0  0  0  0  0  0  0  0
  144.6516   71.1862  220.1611 H   0  0  0  0  0  0  0  0  0  0  0  0
  144.8816   72.1848  218.6701 H   0  0  0  0  0  0  0  0  0  0  0  0
  145.2888   72.9034  221.5622 H   0  0  0  0  0  0  0  0  0  0  0  0
  146.2124   73.3877  220.0708 H   0  0  0  0  0  0  0  0  0  0  0  0
  143.7956   74.6552  221.3405 H   0  0  0  0  0  0  0  0  0  0  0  0
  145.2484   75.4023  220.5650 H   0  0  0  0  0  0  0  0  0  0  0  0
  143.2292   75.7758  219.2004 H   0  0  0  0  0  0  0  0  0  0  0  0
  144.4270   74.6996  218.3539 H   0  0  0  0  0  0  0  0  0  0  0  0
  141.7780   74.1180  219.3910 H   0  0  0  0  0  0  0  0  0  0  0  0
  137.6389   75.7335  222.3119 H   0  0  0  0  0  0  0  0  0  0  0  0
  138.7549   75.9060  223.7417 H   0  0  0  0  0  0  0  0  0  0  0  0
  137.9365   78.0333  221.7230 H   0  0  0  0  0  0  0  0  0  0  0  0
  137.6755   78.0068  223.5079 H   0  0  0  0  0  0  0  0  0  0  0  0
  138.8650   79.9642  224.2068 H   0  0  0  0  0  0  0  0  0  0  0  0
  141.0571   81.1365  224.4653 H   0  0  0  0  0  0  0  0  0  0  0  0
  143.0739   80.2968  223.2533 H   0  0  0  0  0  0  0  0  0  0  0  0
  142.9166   78.2628  221.8173 H   0  0  0  0  0  0  0  0  0  0  0  0
  140.3726   77.0423  220.3442 H   0  0  0  0  0  0  0  0  0  0  0  0
  141.6673   76.2291  221.3171 H   0  0  0  0  0  0  0  0  0  0  0  0
  141.9983   71.1342  224.4474 H   0  0  0  0  0  0  0  0  0  0  0  0
  140.9955   72.6077  224.7801 H   0  0  0  0  0  0  0  0  0  0  0  0
  1  2  2  0
  2  3  1  0
  3  4  2  0
  4  5  1  0
  5  6  2  0
  5  7  1  0
  7  8  1  0
  8  9  1  0
  9 10  1  0
 10 11  2  0
 11 12  1  0
 12 13  1  0
 13 14  1  0
 14 15  1  0
 15 16  1  0
 16 17  1  0
 17 18  1  0
 18 19  1  0
 19 20  1  0
 20 21  1  0
 12 22  2  0
 22 23  1  0
 23 24  1  0
 24 25  1  0
 25 26  1  0
 26 27  1  0
 27 28  2  0
 28 29  1  0
 29 30  2  0
 30 31  1  0
 31 32  2  0
 32 33  1  0
 23 34  2  0
  9 35  1  0
  6  1  1  0
 34 10  1  0
 35  4  1  0
 21 16  1  0
 33 24  1  0
 32 27  1  0
  1 36  1  0
  2 37  1  0
  3 38  1  0
  6 39  1  0
  7 40  1  0
  7 41  1  0
  8 42  1  0
  8 43  1  0
 11 44  1  0
 13 45  1  0
 14 46  1  0
 14 47  1  0
 15 48  1  0
 15 49  1  0
 16 50  1  1
 17 51  1  0
 17 52  1  0
 18 53  1  0
 18 54  1  0
 19 55  1  0
 19 56  1  0
 20 57  1  0
 20 58  1  0
 21 59  1  0
 25 60  1  0
 25 61  1  0
 26 62  1  0
 26 63  1  0
 28 64  1  0
 29 65  1  0
 30 66  1  0
 31 67  1  0
 33 68  1  0
 33 69  1  0
 35 70  1  0
 35 71  1  0
M  END
>  <UniqueID>  (63) 
588

>  <SMILES>  (63) 
c1ccc2c(c1)CCN(c1cc(NCC[C@H]3CCCCN3)nc(N3CCc4ccccc4C3)n1)C2

>  <Energy>  (63) 
87.22047786587387

>  <Genealogy>  (63) 
c1ccc2c(c1)CCN(c1cc(NCC[C@H]3CCCCN3)nc(N3CCc4ccccc4C3)n1)C2 (chirality)
c1ccc2c(c1)CCN(c1cc(NCC[C@H]3CCCCN3)nc(N3CCc4ccccc4C3)n1)C2 (3D coordinates assigned)
c1ccc2c(c1)CCN(c1cc(NCC[C@H]3CCCCN3)nc(N3CCc4ccccc4C3)n1)C2 (nonaromatic ring conformer: 87.22047786587387 kcal/mol)

>  <smiles>  (63) 
c1ccc2c(c1)CCN(c1cc(NCCC3CCCCN3)nc(N3CCc4ccccc4C3)n1)C2

>  <score_type>  (63) 
oracle

>  <origin>  (63) 
autodockgpu

>  <m_score__min__energy>  (63) 
-10.380000000000001

>  <m_primary>  (63) 
energy

>  <meeko>  (63) 
{"free_energy": -9.04, "intermolecular_energy": -10.83, "internal_energy": -2.1, "cluster_size": 5, "cluster_id": 5, "rank_in_cluster": 2}

>  <energy>  (63) 
-9.7

>  <cluster_rmsd>  (63) 
0.84

>  <rmsd>  (63) 
269.32

>  <cluster>  (63) 
1

$$$$
VOUYAFWJUZHTKY-RNPWZEQVNA-N
     RDKit          3D

 71 76  0  0  0  0  0  0  0  0999 V2000
  142.1930   80.9560  222.6440 C   0  0  0  0  0  0  0  0  0  0  0  0
  141.9980   80.2880  223.8570 C   0  0  0  0  0  0  0  0  0  0  0  0
  141.5180   78.9770  223.8680 C   0  0  0  0  0  0  0  0  0  0  0  0
  141.2310   78.3170  222.6650 C   0  0  0  0  0  0  0  0  0  0  0  0
  141.3970   79.0020  221.4360 C   0  0  0  0  0  0  0  0  0  0  0  0
  141.8940   80.3190  221.4380 C   0  0  0  0  0  0  0  0  0  0  0  0
  141.1330   78.3170  220.1170 C   0  0  0  0  0  0  0  0  0  0  0  0
  140.1540   77.1560  220.2820 C   0  0  0  0  0  0  0  0  0  0  0  0
  140.6090   76.3040  221.3840 N   0  0  0  0  0  0  0  0  0  0  0  0
  140.7170   74.8740  221.2350 C   0  0  0  0  0  0  0  0  0  0  0  0
  141.3610   74.3130  220.1260 C   0  0  0  0  0  0  0  0  0  0  0  0
  141.4380   72.9150  220.0240 C   0  0  0  0  0  0  0  0  0  0  0  0
  142.0740   72.2730  218.9080 N   0  0  0  0  0  0  0  0  0  0  0  0
  142.2300   72.9100  217.5980 C   0  0  0  0  0  0  0  0  0  0  0  0
  143.2340   74.0720  217.6930 C   0  0  0  0  0  0  0  0  0  0  0  0
  144.4730   73.7110  218.5340 C   0  0  1  0  0  0  0  0  0  0  0  0
  144.3430   74.3180  219.9470 C   0  0  0  0  0  0  0  0  0  0  0  0
  145.6020   74.0370  220.7910 C   0  0  0  0  0  0  0  0  0  0  0  0
  146.3220   72.7450  220.3660 C   0  0  0  0  0  0  0  0  0  0  0  0
  145.3330   71.7270  219.7830 C   0  0  0  0  0  0  0  0  0  0  0  0
  144.6390   72.2370  218.5810 N   0  0  0  0  0  0  0  0  0  0  0  0
  140.9080   72.1480  221.0130 N   0  0  0  0  0  0  0  0  0  0  0  0
  140.3160   72.6980  222.1070 C   0  0  0  0  0  0  0  0  0  0  0  0
  139.8160   71.8530  223.1660 N   0  0  0  0  0  0  0  0  0  0  0  0
  138.6150   71.0320  222.9060 C   0  0  0  0  0  0  0  0  0  0  0  0
  138.0360   70.4010  224.1800 C   0  0  0  0  0  0  0  0  0  0  0  0
  139.1270   69.7950  225.0070 C   0  0  0  0  0  0  0  0  0  0  0  0
  138.9370   68.5750  225.6770 C   0  0  0  0  0  0  0  0  0  0  0  0
  139.9530   68.0540  226.4860 C   0  0  0  0  0  0  0  0  0  0  0  0
  141.1500   68.7610  226.6470 C   0  0  0  0  0  0  0  0  0  0  0  0
  141.3400   69.9810  225.9920 C   0  0  0  0  0  0  0  0  0  0  0  0
  140.3330   70.5000  225.1610 C   0  0  0  0  0  0  0  0  0  0  0  0
  140.5100   71.8240  224.4690 C   0  0  0  0  0  0  0  0  0  0  0  0
  140.2270   74.0530  222.2030 N   0  0  0  0  0  0  0  0  0  0  0  0
  140.6850   76.9070  222.7190 C   0  0  0  0  0  0  0  0  0  0  0  0
  142.5825   81.9847  222.6399 H   0  0  0  0  0  0  0  0  0  0  0  0
  142.2235   80.7972  224.8056 H   0  0  0  0  0  0  0  0  0  0  0  0
  141.3642   78.4590  224.8261 H   0  0  0  0  0  0  0  0  0  0  0  0
  142.0474   80.8483  220.4860 H   0  0  0  0  0  0  0  0  0  0  0  0
  140.7079   79.0471  219.4126 H   0  0  0  0  0  0  0  0  0  0  0  0
  142.0846   77.9179  219.7359 H   0  0  0  0  0  0  0  0  0  0  0  0
  139.1513   77.5478  220.5080 H   0  0  0  0  0  0  0  0  0  0  0  0
  140.1104   76.5704  219.3519 H   0  0  0  0  0  0  0  0  0  0  0  0
  141.7989   74.9561  219.3484 H   0  0  0  0  0  0  0  0  0  0  0  0
  142.6630   71.4300  219.1010 H   0  0  0  0  0  0  0  0  0  0  0  0
  142.5988   72.1684  216.8741 H   0  0  0  0  0  0  0  0  0  0  0  0
  141.2559   73.3010  217.2688 H   0  0  0  0  0  0  0  0  0  0  0  0
  143.5620   74.3392  216.6776 H   0  0  0  0  0  0  0  0  0  0  0  0
  142.7268   74.9135  218.1876 H   0  0  0  0  0  0  0  0  0  0  0  0
  145.3747   74.1354  218.0682 H   0  0  0  0  0  0  0  0  0  0  0  0
  144.2050   75.4058  219.8592 H   0  0  0  0  0  0  0  0  0  0  0  0
  143.4781   73.8571  220.4465 H   0  0  0  0  0  0  0  0  0  0  0  0
  146.2977   74.8816  220.6783 H   0  0  0  0  0  0  0  0  0  0  0  0
  145.2820   73.9123  221.8360 H   0  0  0  0  0  0  0  0  0  0  0  0
  147.0774   72.9887  219.6044 H   0  0  0  0  0  0  0  0  0  0  0  0
  146.7967   72.3017  221.2537 H   0  0  0  0  0  0  0  0  0  0  0  0
  145.8845   70.8147  219.5116 H   0  0  0  0  0  0  0  0  0  0  0  0
  144.5701   71.5251  220.5493 H   0  0  0  0  0  0  0  0  0  0  0  0
  145.1830   71.9410  217.7410 H   0  0  0  0  0  0  0  0  0  0  0  0
  137.8449   71.6712  222.4496 H   0  0  0  0  0  0  0  0  0  0  0  0
  138.9144   70.2113  222.2376 H   0  0  0  0  0  0  0  0  0  0  0  0
  137.5244   71.1771  224.7681 H   0  0  0  0  0  0  0  0  0  0  0  0
  137.3252   69.6114  223.8948 H   0  0  0  0  0  0  0  0  0  0  0  0
  137.9887   68.0288  225.5656 H   0  0  0  0  0  0  0  0  0  0  0  0
  139.8109   67.0893  226.9951 H   0  0  0  0  0  0  0  0  0  0  0  0
  141.9439   68.3552  227.2912 H   0  0  0  0  0  0  0  0  0  0  0  0
  142.2800   70.5360  226.1274 H   0  0  0  0  0  0  0  0  0  0  0  0
  140.1005   72.6191  225.1094 H   0  0  0  0  0  0  0  0  0  0  0  0
  141.5844   71.9780  224.2902 H   0  0  0  0  0  0  0  0  0  0  0  0
  139.6763   76.9317  223.1571 H   0  0  0  0  0  0  0  0  0  0  0  0
  141.3659   76.2985  223.3322 H   0  0  0  0  0  0  0  0  0  0  0  0
  1  2  2  0
  2  3  1  0
  3  4  2  0
  4  5  1  0
  5  6  2  0
  5  7  1  0
  7  8  1  0
  8  9  1  0
  9 10  1  0
 10 11  2  0
 11 12  1  0
 12 13  1  0
 13 14  1  0
 14 15  1  0
 15 16  1  0
 16 17  1  0
 17 18  1  0
 18 19  1  0
 19 20  1  0
 20 21  1  0
 12 22  2  0
 22 23  1  0
 23 24  1  0
 24 25  1  0
 25 26  1  0
 26 27  1  0
 27 28  2  0
 28 29  1  0
 29 30  2  0
 30 31  1  0
 31 32  2  0
 32 33  1  0
 23 34  2  0
  9 35  1  0
  6  1  1  0
 34 10  1  0
 35  4  1  0
 21 16  1  0
 33 24  1  0
 32 27  1  0
  1 36  1  0
  2 37  1  0
  3 38  1  0
  6 39  1  0
  7 40  1  0
  7 41  1  0
  8 42  1  0
  8 43  1  0
 11 44  1  0
 13 45  1  0
 14 46  1  0
 14 47  1  0
 15 48  1  0
 15 49  1  0
 16 50  1  6
 17 51  1  0
 17 52  1  0
 18 53  1  0
 18 54  1  0
 19 55  1  0
 19 56  1  0
 20 57  1  0
 20 58  1  0
 21 59  1  0
 25 60  1  0
 25 61  1  0
 26 62  1  0
 26 63  1  0
 28 64  1  0
 29 65  1  0
 30 66  1  0
 31 67  1  0
 33 68  1  0
 33 69  1  0
 35 70  1  0
 35 71  1  0
M  END
>  <UniqueID>  (64) 
588

>  <SMILES>  (64) 
c1ccc2c(c1)CCN(c1cc(NCC[C@H]3CCCCN3)nc(N3CCc4ccccc4C3)n1)C2

>  <Energy>  (64) 
87.22047786587387

>  <Genealogy>  (64) 
c1ccc2c(c1)CCN(c1cc(NCC[C@H]3CCCCN3)nc(N3CCc4ccccc4C3)n1)C2 (chirality)
c1ccc2c(c1)CCN(c1cc(NCC[C@H]3CCCCN3)nc(N3CCc4ccccc4C3)n1)C2 (3D coordinates assigned)
c1ccc2c(c1)CCN(c1cc(NCC[C@H]3CCCCN3)nc(N3CCc4ccccc4C3)n1)C2 (nonaromatic ring conformer: 87.22047786587387 kcal/mol)

>  <smiles>  (64) 
c1ccc2c(c1)CCN(c1cc(NCCC3CCCCN3)nc(N3CCc4ccccc4C3)n1)C2

>  <score_type>  (64) 
oracle

>  <origin>  (64) 
autodockgpu

>  <m_score__min__energy>  (64) 
-10.380000000000001

>  <m_primary>  (64) 
energy

>  <meeko>  (64) 
{"free_energy": -9.57, "intermolecular_energy": -11.36, "internal_energy": -1.66, "cluster_size": 8, "cluster_id": 1, "rank_in_cluster": 4}

>  <energy>  (64) 
-9.57

>  <cluster_rmsd>  (64) 
1.67

>  <rmsd>  (64) 
269.5

>  <cluster>  (64) 
1

$$$$
VOUYAFWJUZHTKY-RNPWZEQVNA-N
     RDKit          3D

 71 76  0  0  0  0  0  0  0  0999 V2000
  139.8160   69.7480  228.1220 C   0  0  0  0  0  0  0  0  0  0  0  0
  140.7370   70.8010  228.1100 C   0  0  0  0  0  0  0  0  0  0  0  0
  141.0080   71.4840  226.9220 C   0  0  0  0  0  0  0  0  0  0  0  0
  140.3580   71.1250  225.7340 C   0  0  0  0  0  0  0  0  0  0  0  0
  139.4480   70.0390  225.7360 C   0  0  0  0  0  0  0  0  0  0  0  0
  139.1740   69.3660  226.9420 C   0  0  0  0  0  0  0  0  0  0  0  0
  138.7010   69.6420  224.4870 C   0  0  0  0  0  0  0  0  0  0  0  0
  139.4510   70.0790  223.2290 C   0  0  0  0  0  0  0  0  0  0  0  0
  139.8080   71.4950  223.3580 N   0  0  0  0  0  0  0  0  0  0  0  0
  139.5320   72.4390  222.3050 C   0  0  0  0  0  0  0  0  0  0  0  0
  138.5290   72.1910  221.3610 C   0  0  0  0  0  0  0  0  0  0  0  0
  138.3000   73.1400  220.3530 C   0  0  0  0  0  0  0  0  0  0  0  0
  137.2960   72.9450  219.3450 N   0  0  0  0  0  0  0  0  0  0  0  0
  135.9340   73.4760  219.4560 C   0  0  0  0  0  0  0  0  0  0  0  0
  135.6940   74.0190  220.8740 C   0  0  0  0  0  0  0  0  0  0  0  0
  136.5100   75.2930  221.1630 C   0  0  1  0  0  0  0  0  0  0  0  0
  135.5810   76.5250  221.1530 C   0  0  0  0  0  0  0  0  0  0  0  0
  136.3800   77.8250  221.3660 C   0  0  0  0  0  0  0  0  0  0  0  0
  137.6660   77.6020  222.1810 C   0  0  0  0  0  0  0  0  0  0  0  0
  137.5070   76.4250  223.1520 C   0  0  0  0  0  0  0  0  0  0  0  0
  137.2240   75.1520  222.4560 N   0  0  0  0  0  0  0  0  0  0  0  0
  139.0400   74.2810  220.3340 N   0  0  0  0  0  0  0  0  0  0  0  0
  139.9870   74.5350  221.2760 C   0  0  0  0  0  0  0  0  0  0  0  0
  140.7130   75.7830  221.2600 N   0  0  0  0  0  0  0  0  0  0  0  0
  141.1370   76.3370  219.9570 C   0  0  0  0  0  0  0  0  0  0  0  0
  142.1230   77.5050  220.0970 C   0  0  0  0  0  0  0  0  0  0  0  0
  141.6490   78.4680  221.1400 C   0  0  0  0  0  0  0  0  0  0  0  0
  141.7890   79.8550  220.9660 C   0  0  0  0  0  0  0  0  0  0  0  0
  141.3860   80.7330  221.9780 C   0  0  0  0  0  0  0  0  0  0  0  0
  140.8660   80.2300  223.1750 C   0  0  0  0  0  0  0  0  0  0  0  0
  140.7360   78.8500  223.3600 C   0  0  0  0  0  0  0  0  0  0  0  0
  141.1180   77.9630  222.3400 C   0  0  0  0  0  0  0  0  0  0  0  0
  141.0090   76.4740  222.5310 C   0  0  0  0  0  0  0  0  0  0  0  0
  140.2230   73.6110  222.2480 N   0  0  0  0  0  0  0  0  0  0  0  0
  140.6990   71.8700  224.4610 C   0  0  0  0  0  0  0  0  0  0  0  0
  139.5972   69.2203  229.0620 H   0  0  0  0  0  0  0  0  0  0  0  0
  141.2493   71.0920  229.0389 H   0  0  0  0  0  0  0  0  0  0  0  0
  141.7360   72.3086  226.9192 H   0  0  0  0  0  0  0  0  0  0  0  0
  138.4517   68.5364  226.9548 H   0  0  0  0  0  0  0  0  0  0  0  0
  138.5832   68.5484  224.4723 H   0  0  0  0  0  0  0  0  0  0  0  0
  137.7197   70.1390  224.4965 H   0  0  0  0  0  0  0  0  0  0  0  0
  140.3644   69.4766  223.1154 H   0  0  0  0  0  0  0  0  0  0  0  0
  138.8128   69.9342  222.3449 H   0  0  0  0  0  0  0  0  0  0  0  0
  137.9311   71.2689  221.4083 H   0  0  0  0  0  0  0  0  0  0  0  0
  137.6090   72.6340  218.3980 H   0  0  0  0  0  0  0  0  0  0  0  0
  135.7997   74.2890  218.7273 H   0  0  0  0  0  0  0  0  0  0  0  0
  135.2147   72.6691  219.2524 H   0  0  0  0  0  0  0  0  0  0  0  0
  134.6248   74.2517  220.9865 H   0  0  0  0  0  0  0  0  0  0  0  0
  136.0166   73.2462  221.5872 H   0  0  0  0  0  0  0  0  0  0  0  0
  137.2655   75.4367  220.3765 H   0  0  0  0  0  0  0  0  0  0  0  0
  135.0632   76.5765  220.1839 H   0  0  0  0  0  0  0  0  0  0  0  0
  134.8562   76.4223  221.9741 H   0  0  0  0  0  0  0  0  0  0  0  0
  136.6528   78.2360  220.3828 H   0  0  0  0  0  0  0  0  0  0  0  0
  135.7422   78.5191  221.9330 H   0  0  0  0  0  0  0  0  0  0  0  0
  138.4961   77.3892  221.4913 H   0  0  0  0  0  0  0  0  0  0  0  0
  137.8719   78.5113  222.7647 H   0  0  0  0  0  0  0  0  0  0  0  0
  138.4382   76.3135  223.7268 H   0  0  0  0  0  0  0  0  0  0  0  0
  136.6515   76.6453  223.8074 H   0  0  0  0  0  0  0  0  0  0  0  0
  138.1320   74.6680  222.2800 H   0  0  0  0  0  0  0  0  0  0  0  0
  141.6201   75.5375  219.3761 H   0  0  0  0  0  0  0  0  0  0  0  0
  140.2379   76.7224  219.4539 H   0  0  0  0  0  0  0  0  0  0  0  0
  143.1092   77.1136  220.3870 H   0  0  0  0  0  0  0  0  0  0  0  0
  142.1923   78.0300  219.1328 H   0  0  0  0  0  0  0  0  0  0  0  0
  142.2160   80.2512  220.0329 H   0  0  0  0  0  0  0  0  0  0  0  0
  141.4782   81.8194  221.8322 H   0  0  0  0  0  0  0  0  0  0  0  0
  140.5585   80.9218  223.9730 H   0  0  0  0  0  0  0  0  0  0  0  0
  140.3339   78.4584  224.3060 H   0  0  0  0  0  0  0  0  0  0  0  0
  141.9613   76.0947  222.9302 H   0  0  0  0  0  0  0  0  0  0  0  0
  140.1833   76.2764  223.2304 H   0  0  0  0  0  0  0  0  0  0  0  0
  141.7356   71.6355  224.1774 H   0  0  0  0  0  0  0  0  0  0  0  0
  140.5762   72.9466  224.6503 H   0  0  0  0  0  0  0  0  0  0  0  0
  1  2  2  0
  2  3  1  0
  3  4  2  0
  4  5  1  0
  5  6  2  0
  5  7  1  0
  7  8  1  0
  8  9  1  0
  9 10  1  0
 10 11  2  0
 11 12  1  0
 12 13  1  0
 13 14  1  0
 14 15  1  0
 15 16  1  0
 16 17  1  0
 17 18  1  0
 18 19  1  0
 19 20  1  0
 20 21  1  0
 12 22  2  0
 22 23  1  0
 23 24  1  0
 24 25  1  0
 25 26  1  0
 26 27  1  0
 27 28  2  0
 28 29  1  0
 29 30  2  0
 30 31  1  0
 31 32  2  0
 32 33  1  0
 23 34  2  0
  9 35  1  0
  6  1  1  0
 34 10  1  0
 35  4  1  0
 21 16  1  0
 33 24  1  0
 32 27  1  0
  1 36  1  0
  2 37  1  0
  3 38  1  0
  6 39  1  0
  7 40  1  0
  7 41  1  0
  8 42  1  0
  8 43  1  0
 11 44  1  0
 13 45  1  0
 14 46  1  0
 14 47  1  0
 15 48  1  0
 15 49  1  0
 16 50  1  6
 17 51  1  0
 17 52  1  0
 18 53  1  0
 18 54  1  0
 19 55  1  0
 19 56  1  0
 20 57  1  0
 20 58  1  0
 21 59  1  0
 25 60  1  0
 25 61  1  0
 26 62  1  0
 26 63  1  0
 28 64  1  0
 29 65  1  0
 30 66  1  0
 31 67  1  0
 33 68  1  0
 33 69  1  0
 35 70  1  0
 35 71  1  0
M  END
>  <UniqueID>  (65) 
588

>  <SMILES>  (65) 
c1ccc2c(c1)CCN(c1cc(NCC[C@H]3CCCCN3)nc(N3CCc4ccccc4C3)n1)C2

>  <Energy>  (65) 
87.22047786587387

>  <Genealogy>  (65) 
c1ccc2c(c1)CCN(c1cc(NCC[C@H]3CCCCN3)nc(N3CCc4ccccc4C3)n1)C2 (chirality)
c1ccc2c(c1)CCN(c1cc(NCC[C@H]3CCCCN3)nc(N3CCc4ccccc4C3)n1)C2 (3D coordinates assigned)
c1ccc2c(c1)CCN(c1cc(NCC[C@H]3CCCCN3)nc(N3CCc4ccccc4C3)n1)C2 (nonaromatic ring conformer: 87.22047786587387 kcal/mol)

>  <smiles>  (65) 
c1ccc2c(c1)CCN(c1cc(NCCC3CCCCN3)nc(N3CCc4ccccc4C3)n1)C2

>  <score_type>  (65) 
oracle

>  <origin>  (65) 
autodockgpu

>  <m_score__min__energy>  (65) 
-10.380000000000001

>  <m_primary>  (65) 
energy

>  <meeko>  (65) 
{"free_energy": -8.06, "intermolecular_energy": -9.85, "internal_energy": -2.85, "cluster_size": 3, "cluster_id": 4, "rank_in_cluster": 2}

>  <energy>  (65) 
-9.56

>  <cluster_rmsd>  (65) 
1.64

>  <rmsd>  (65) 
269.5

>  <cluster>  (65) 
1

$$$$
VOUYAFWJUZHTKY-RNPWZEQVNA-N
     RDKit          3D

 71 76  0  0  0  0  0  0  0  0999 V2000
  142.1630   80.5690  222.2730 C   0  0  0  0  0  0  0  0  0  0  0  0
  142.1240   79.9550  223.5290 C   0  0  0  0  0  0  0  0  0  0  0  0
  141.6600   78.6440  223.6560 C   0  0  0  0  0  0  0  0  0  0  0  0
  141.2330   77.9300  222.5270 C   0  0  0  0  0  0  0  0  0  0  0  0
  141.2420   78.5610  221.2590 C   0  0  0  0  0  0  0  0  0  0  0  0
  141.7240   79.8790  221.1420 C   0  0  0  0  0  0  0  0  0  0  0  0
  140.8240   77.8180  220.0130 C   0  0  0  0  0  0  0  0  0  0  0  0
  139.8830   76.6620  220.3470 C   0  0  0  0  0  0  0  0  0  0  0  0
  140.4770   75.8610  221.4200 N   0  0  0  0  0  0  0  0  0  0  0  0
  140.5780   74.4260  221.3210 C   0  0  0  0  0  0  0  0  0  0  0  0
  141.1840   73.8220  220.2130 C   0  0  0  0  0  0  0  0  0  0  0  0
  141.2550   72.4220  220.1610 C   0  0  0  0  0  0  0  0  0  0  0  0
  141.8520   71.7370  219.0490 N   0  0  0  0  0  0  0  0  0  0  0  0
  143.1830   71.1250  219.1040 C   0  0  0  0  0  0  0  0  0  0  0  0
  144.2520   72.1510  218.6910 C   0  0  0  0  0  0  0  0  0  0  0  0
  143.6870   73.5800  218.5880 C   0  0  1  0  0  0  0  0  0  0  0  0
  144.2970   74.4650  219.6960 C   0  0  0  0  0  0  0  0  0  0  0  0
  143.6970   75.8840  219.6670 C   0  0  0  0  0  0  0  0  0  0  0  0
  143.2240   76.2980  218.2620 C   0  0  0  0  0  0  0  0  0  0  0  0
  144.0530   75.6040  217.1740 C   0  0  0  0  0  0  0  0  0  0  0  0
  143.9500   74.1310  217.2360 N   0  0  0  0  0  0  0  0  0  0  0  0
  140.7570   71.6930  221.1950 N   0  0  0  0  0  0  0  0  0  0  0  0
  140.2040   72.2850  222.2870 C   0  0  0  0  0  0  0  0  0  0  0  0
  139.7380   71.4810  223.3920 N   0  0  0  0  0  0  0  0  0  0  0  0
  138.5340   70.6470  223.2010 C   0  0  0  0  0  0  0  0  0  0  0  0
  137.9950   70.0660  224.5160 C   0  0  0  0  0  0  0  0  0  0  0  0
  139.1120   69.4960  225.3330 C   0  0  0  0  0  0  0  0  0  0  0  0
  138.9470   68.3040  226.0570 C   0  0  0  0  0  0  0  0  0  0  0  0
  139.9890   67.8190  226.8560 C   0  0  0  0  0  0  0  0  0  0  0  0
  141.1870   68.5350  226.9530 C   0  0  0  0  0  0  0  0  0  0  0  0
  141.3530   69.7280  226.2450 C   0  0  0  0  0  0  0  0  0  0  0  0
  140.3200   70.2110  225.4240 C   0  0  0  0  0  0  0  0  0  0  0  0
  140.4700   71.5070  224.6750 C   0  0  0  0  0  0  0  0  0  0  0  0
  140.1190   73.6430  222.3350 N   0  0  0  0  0  0  0  0  0  0  0  0
  140.7100   76.5220  222.7080 C   0  0  0  0  0  0  0  0  0  0  0  0
  142.5404   81.5977  222.1763 H   0  0  0  0  0  0  0  0  0  0  0  0
  142.4598   80.5065  224.4196 H   0  0  0  0  0  0  0  0  0  0  0  0
  141.6293   78.1685  224.6475 H   0  0  0  0  0  0  0  0  0  0  0  0
  141.7546   80.3662  220.1562 H   0  0  0  0  0  0  0  0  0  0  0  0
  140.3092   78.5152  219.3356 H   0  0  0  0  0  0  0  0  0  0  0  0
  141.7250   77.4060  219.5351 H   0  0  0  0  0  0  0  0  0  0  0  0
  138.9122   77.0599  220.6775 H   0  0  0  0  0  0  0  0  0  0  0  0
  139.7308   76.0360  219.4554 H   0  0  0  0  0  0  0  0  0  0  0  0
  141.5971   74.4342  219.3978 H   0  0  0  0  0  0  0  0  0  0  0  0
  141.2270   71.4460  218.2620 H   0  0  0  0  0  0  0  0  0  0  0  0
  143.3842   70.7824  220.1297 H   0  0  0  0  0  0  0  0  0  0  0  0
  143.2162   70.2708  218.4117 H   0  0  0  0  0  0  0  0  0  0  0  0
  145.0573   72.1429  219.4403 H   0  0  0  0  0  0  0  0  0  0  0  0
  144.6237   71.8653  217.6959 H   0  0  0  0  0  0  0  0  0  0  0  0
  142.5970   73.5604  218.7351 H   0  0  0  0  0  0  0  0  0  0  0  0
  144.0907   74.0078  220.6750 H   0  0  0  0  0  0  0  0  0  0  0  0
  145.3810   74.5408  219.5249 H   0  0  0  0  0  0  0  0  0  0  0  0
  142.8371   75.9170  220.3522 H   0  0  0  0  0  0  0  0  0  0  0  0
  144.4867   76.5860  219.9730 H   0  0  0  0  0  0  0  0  0  0  0  0
  142.1670   76.0182  218.1417 H   0  0  0  0  0  0  0  0  0  0  0  0
  143.3501   77.3857  218.1571 H   0  0  0  0  0  0  0  0  0  0  0  0
  143.6960   75.9413  216.1897 H   0  0  0  0  0  0  0  0  0  0  0  0
  145.1075   75.8720  217.3359 H   0  0  0  0  0  0  0  0  0  0  0  0
  143.1760   73.8320  216.6030 H   0  0  0  0  0  0  0  0  0  0  0  0
  137.7482   71.2649  222.7421 H   0  0  0  0  0  0  0  0  0  0  0  0
  138.8172   69.8008  222.5578 H   0  0  0  0  0  0  0  0  0  0  0  0
  137.4986   70.8638  225.0879 H   0  0  0  0  0  0  0  0  0  0  0  0
  137.2785   69.2643  224.2839 H   0  0  0  0  0  0  0  0  0  0  0  0
  137.9981   67.7510  225.9962 H   0  0  0  0  0  0  0  0  0  0  0  0
  139.8659   66.8752  227.4074 H   0  0  0  0  0  0  0  0  0  0  0  0
  142.0012   68.1574  227.5890 H   0  0  0  0  0  0  0  0  0  0  0  0
  142.2945   70.2904  226.3305 H   0  0  0  0  0  0  0  0  0  0  0  0
  140.0751   72.3254  225.2949 H   0  0  0  0  0  0  0  0  0  0  0  0
  141.5379   71.6582  224.4590 H   0  0  0  0  0  0  0  0  0  0  0  0
  139.7621   76.5625  223.2647 H   0  0  0  0  0  0  0  0  0  0  0  0
  141.4660   75.9433  223.2590 H   0  0  0  0  0  0  0  0  0  0  0  0
  1  2  2  0
  2  3  1  0
  3  4  2  0
  4  5  1  0
  5  6  2  0
  5  7  1  0
  7  8  1  0
  8  9  1  0
  9 10  1  0
 10 11  2  0
 11 12  1  0
 12 13  1  0
 13 14  1  0
 14 15  1  0
 15 16  1  0
 16 17  1  0
 17 18  1  0
 18 19  1  0
 19 20  1  0
 20 21  1  0
 12 22  2  0
 22 23  1  0
 23 24  1  0
 24 25  1  0
 25 26  1  0
 26 27  1  0
 27 28  2  0
 28 29  1  0
 29 30  2  0
 30 31  1  0
 31 32  2  0
 32 33  1  0
 23 34  2  0
  9 35  1  0
  6  1  1  0
 34 10  1  0
 35  4  1  0
 21 16  1  0
 33 24  1  0
 32 27  1  0
  1 36  1  0
  2 37  1  0
  3 38  1  0
  6 39  1  0
  7 40  1  0
  7 41  1  0
  8 42  1  0
  8 43  1  0
 11 44  1  0
 13 45  1  0
 14 46  1  0
 14 47  1  0
 15 48  1  0
 15 49  1  0
 16 50  1  1
 17 51  1  0
 17 52  1  0
 18 53  1  0
 18 54  1  0
 19 55  1  0
 19 56  1  0
 20 57  1  0
 20 58  1  0
 21 59  1  0
 25 60  1  0
 25 61  1  0
 26 62  1  0
 26 63  1  0
 28 64  1  0
 29 65  1  0
 30 66  1  0
 31 67  1  0
 33 68  1  0
 33 69  1  0
 35 70  1  0
 35 71  1  0
M  END
>  <UniqueID>  (66) 
588

>  <SMILES>  (66) 
c1ccc2c(c1)CCN(c1cc(NCC[C@H]3CCCCN3)nc(N3CCc4ccccc4C3)n1)C2

>  <Energy>  (66) 
87.22047786587387

>  <Genealogy>  (66) 
c1ccc2c(c1)CCN(c1cc(NCC[C@H]3CCCCN3)nc(N3CCc4ccccc4C3)n1)C2 (chirality)
c1ccc2c(c1)CCN(c1cc(NCC[C@H]3CCCCN3)nc(N3CCc4ccccc4C3)n1)C2 (3D coordinates assigned)
c1ccc2c(c1)CCN(c1cc(NCC[C@H]3CCCCN3)nc(N3CCc4ccccc4C3)n1)C2 (nonaromatic ring conformer: 87.22047786587387 kcal/mol)

>  <smiles>  (66) 
c1ccc2c(c1)CCN(c1cc(NCCC3CCCCN3)nc(N3CCc4ccccc4C3)n1)C2

>  <score_type>  (66) 
oracle

>  <origin>  (66) 
autodockgpu

>  <m_score__min__energy>  (66) 
-10.380000000000001

>  <m_primary>  (66) 
energy

>  <meeko>  (66) 
{"free_energy": -9.0, "intermolecular_energy": -10.79, "internal_energy": -1.6, "cluster_size": 8, "cluster_id": 1, "rank_in_cluster": 8}

>  <energy>  (66) 
-9.49

>  <cluster_rmsd>  (66) 
1.06

>  <rmsd>  (66) 
269.47

>  <cluster>  (66) 
1

$$$$
VOUYAFWJUZHTKY-RNPWZEQVNA-N
     RDKit          3D

 71 76  0  0  0  0  0  0  0  0999 V2000
  141.8120   80.5330  222.3440 C   0  0  0  0  0  0  0  0  0  0  0  0
  141.1560   79.9790  223.4490 C   0  0  0  0  0  0  0  0  0  0  0  0
  140.7910   78.6310  223.4460 C   0  0  0  0  0  0  0  0  0  0  0  0
  141.0800   77.8200  222.3400 C   0  0  0  0  0  0  0  0  0  0  0  0
  141.7150   78.3860  221.2070 C   0  0  0  0  0  0  0  0  0  0  0  0
  142.0900   79.7430  221.2270 C   0  0  0  0  0  0  0  0  0  0  0  0
  142.0770   77.5410  220.0100 C   0  0  0  0  0  0  0  0  0  0  0  0
  141.1870   76.3020  219.9170 C   0  0  0  0  0  0  0  0  0  0  0  0
  141.1770   75.6270  221.2180 N   0  0  0  0  0  0  0  0  0  0  0  0
  141.4180   74.2100  221.3320 C   0  0  0  0  0  0  0  0  0  0  0  0
  142.3860   73.5790  220.5420 C   0  0  0  0  0  0  0  0  0  0  0  0
  142.5810   72.1970  220.6880 C   0  0  0  0  0  0  0  0  0  0  0  0
  143.5480   71.4840  219.9010 N   0  0  0  0  0  0  0  0  0  0  0  0
  144.6440   72.1430  219.1850 C   0  0  0  0  0  0  0  0  0  0  0  0
  145.2380   71.1870  218.1370 C   0  0  0  0  0  0  0  0  0  0  0  0
  144.8570   69.7180  218.3970 C   0  0  1  0  0  0  0  0  0  0  0  0
  145.3430   68.8350  217.2280 C   0  0  0  0  0  0  0  0  0  0  0  0
  144.9120   67.3680  217.4220 C   0  0  0  0  0  0  0  0  0  0  0  0
  144.7530   66.9910  218.9050 C   0  0  0  0  0  0  0  0  0  0  0  0
  145.6910   67.8220  219.7910 C   0  0  0  0  0  0  0  0  0  0  0  0
  145.4220   69.2720  219.6940 N   0  0  0  0  0  0  0  0  0  0  0  0
  141.8450   71.5160  221.6050 N   0  0  0  0  0  0  0  0  0  0  0  0
  140.9320   72.1390  222.3960 C   0  0  0  0  0  0  0  0  0  0  0  0
  140.2090   71.3950  223.4010 N   0  0  0  0  0  0  0  0  0  0  0  0
  139.1300   70.4840  222.9640 C   0  0  0  0  0  0  0  0  0  0  0  0
  138.2740   69.9720  224.1300 C   0  0  0  0  0  0  0  0  0  0  0  0
  139.1440   69.5250  225.2640 C   0  0  0  0  0  0  0  0  0  0  0  0
  138.8280   68.3820  226.0150 C   0  0  0  0  0  0  0  0  0  0  0  0
  139.6280   68.0130  227.1020 C   0  0  0  0  0  0  0  0  0  0  0  0
  140.7300   68.7990  227.4570 C   0  0  0  0  0  0  0  0  0  0  0  0
  141.0430   69.9450  226.7210 C   0  0  0  0  0  0  0  0  0  0  0  0
  140.2570   70.3090  225.6140 C   0  0  0  0  0  0  0  0  0  0  0  0
  140.5630   71.5530  224.8260 C   0  0  0  0  0  0  0  0  0  0  0  0
  140.7290   73.4780  222.2490 N   0  0  0  0  0  0  0  0  0  0  0  0
  140.6430   76.3720  222.3630 C   0  0  0  0  0  0  0  0  0  0  0  0
  142.1089   81.5921  222.3555 H   0  0  0  0  0  0  0  0  0  0  0  0
  140.9272   80.6071  224.3226 H   0  0  0  0  0  0  0  0  0  0  0  0
  140.2734   78.2030  224.3172 H   0  0  0  0  0  0  0  0  0  0  0  0
  142.6039   80.1823  220.3593 H   0  0  0  0  0  0  0  0  0  0  0  0
  141.9526   78.1412  219.0966 H   0  0  0  0  0  0  0  0  0  0  0  0
  143.1209   77.2119  220.1195 H   0  0  0  0  0  0  0  0  0  0  0  0
  140.1633   76.6018  219.6485 H   0  0  0  0  0  0  0  0  0  0  0  0
  141.5757   75.6204  219.1461 H   0  0  0  0  0  0  0  0  0  0  0  0
  142.9828   74.1558  219.8201 H   0  0  0  0  0  0  0  0  0  0  0  0
  143.6260   70.4510  220.0440 H   0  0  0  0  0  0  0  0  0  0  0  0
  144.2610   73.0429  218.6815 H   0  0  0  0  0  0  0  0  0  0  0  0
  145.4281   72.4227  219.9039 H   0  0  0  0  0  0  0  0  0  0  0  0
  144.8661   71.4775  217.1434 H   0  0  0  0  0  0  0  0  0  0  0  0
  146.3337   71.2641  218.1967 H   0  0  0  0  0  0  0  0  0  0  0  0
  143.7627   69.6236  218.4572 H   0  0  0  0  0  0  0  0  0  0  0  0
  144.9134   69.2142  216.2890 H   0  0  0  0  0  0  0  0  0  0  0  0
  146.4418   68.8741  217.1949 H   0  0  0  0  0  0  0  0  0  0  0  0
  143.9489   67.2133  216.9136 H   0  0  0  0  0  0  0  0  0  0  0  0
  145.7009   66.7294  216.9979 H   0  0  0  0  0  0  0  0  0  0  0  0
  143.7128   67.1741  219.2125 H   0  0  0  0  0  0  0  0  0  0  0  0
  145.0107   65.9283  219.0245 H   0  0  0  0  0  0  0  0  0  0  0  0
  145.5591   67.5077  220.8369 H   0  0  0  0  0  0  0  0  0  0  0  0
  146.7203   67.6485  219.4440 H   0  0  0  0  0  0  0  0  0  0  0  0
  144.7500   69.5300  220.4510 H   0  0  0  0  0  0  0  0  0  0  0  0
  138.4787   71.0230  222.2603 H   0  0  0  0  0  0  0  0  0  0  0  0
  139.6050   69.6103  222.4938 H   0  0  0  0  0  0  0  0  0  0  0  0
  137.6144   70.7810  224.4771 H   0  0  0  0  0  0  0  0  0  0  0  0
  137.6756   69.1168  223.7828 H   0  0  0  0  0  0  0  0  0  0  0  0
  137.9500   67.7754  225.7485 H   0  0  0  0  0  0  0  0  0  0  0  0
  139.3909   67.1058  227.6771 H   0  0  0  0  0  0  0  0  0  0  0  0
  141.3520   68.5139  228.3183 H   0  0  0  0  0  0  0  0  0  0  0  0
  141.9061   70.5634  227.0085 H   0  0  0  0  0  0  0  0  0  0  0  0
  139.9882   72.3918  225.2457 H   0  0  0  0  0  0  0  0  0  0  0  0
  141.6441   71.7451  224.8926 H   0  0  0  0  0  0  0  0  0  0  0  0
  139.5442   76.3306  222.3344 H   0  0  0  0  0  0  0  0  0  0  0  0
  141.0305   75.9110  223.2835 H   0  0  0  0  0  0  0  0  0  0  0  0
  1  2  2  0
  2  3  1  0
  3  4  2  0
  4  5  1  0
  5  6  2  0
  5  7  1  0
  7  8  1  0
  8  9  1  0
  9 10  1  0
 10 11  2  0
 11 12  1  0
 12 13  1  0
 13 14  1  0
 14 15  1  0
 15 16  1  0
 16 17  1  0
 17 18  1  0
 18 19  1  0
 19 20  1  0
 20 21  1  0
 12 22  2  0
 22 23  1  0
 23 24  1  0
 24 25  1  0
 25 26  1  0
 26 27  1  0
 27 28  2  0
 28 29  1  0
 29 30  2  0
 30 31  1  0
 31 32  2  0
 32 33  1  0
 23 34  2  0
  9 35  1  0
  6  1  1  0
 34 10  1  0
 35  4  1  0
 21 16  1  0
 33 24  1  0
 32 27  1  0
  1 36  1  0
  2 37  1  0
  3 38  1  0
  6 39  1  0
  7 40  1  0
  7 41  1  0
  8 42  1  0
  8 43  1  0
 11 44  1  0
 13 45  1  0
 14 46  1  0
 14 47  1  0
 15 48  1  0
 15 49  1  0
 16 50  1  1
 17 51  1  0
 17 52  1  0
 18 53  1  0
 18 54  1  0
 19 55  1  0
 19 56  1  0
 20 57  1  0
 20 58  1  0
 21 59  1  0
 25 60  1  0
 25 61  1  0
 26 62  1  0
 26 63  1  0
 28 64  1  0
 29 65  1  0
 30 66  1  0
 31 67  1  0
 33 68  1  0
 33 69  1  0
 35 70  1  0
 35 71  1  0
M  END
>  <UniqueID>  (67) 
588

>  <SMILES>  (67) 
c1ccc2c(c1)CCN(c1cc(NCC[C@H]3CCCCN3)nc(N3CCc4ccccc4C3)n1)C2

>  <Energy>  (67) 
87.22047786587387

>  <Genealogy>  (67) 
c1ccc2c(c1)CCN(c1cc(NCC[C@H]3CCCCN3)nc(N3CCc4ccccc4C3)n1)C2 (chirality)
c1ccc2c(c1)CCN(c1cc(NCC[C@H]3CCCCN3)nc(N3CCc4ccccc4C3)n1)C2 (3D coordinates assigned)
c1ccc2c(c1)CCN(c1cc(NCC[C@H]3CCCCN3)nc(N3CCc4ccccc4C3)n1)C2 (nonaromatic ring conformer: 87.22047786587387 kcal/mol)

>  <smiles>  (67) 
c1ccc2c(c1)CCN(c1cc(NCCC3CCCCN3)nc(N3CCc4ccccc4C3)n1)C2

>  <score_type>  (67) 
oracle

>  <origin>  (67) 
autodockgpu

>  <m_score__min__energy>  (67) 
-10.380000000000001

>  <m_primary>  (67) 
energy

>  <meeko>  (67) 
{"free_energy": -9.8, "intermolecular_energy": -11.59, "internal_energy": -1.43, "cluster_size": 8, "cluster_id": 1, "rank_in_cluster": 2}

>  <energy>  (67) 
-9.18

>  <cluster_rmsd>  (67) 
1.89

>  <rmsd>  (67) 
269.52

>  <cluster>  (67) 
1

$$$$
VOUYAFWJUZHTKY-RNPWZEQVNA-N
     RDKit          3D

 71 76  0  0  0  0  0  0  0  0999 V2000
  142.0560   80.9470  222.6270 C   0  0  0  0  0  0  0  0  0  0  0  0
  141.7920   80.3000  223.8390 C   0  0  0  0  0  0  0  0  0  0  0  0
  141.4440   78.9470  223.8520 C   0  0  0  0  0  0  0  0  0  0  0  0
  141.3590   78.2250  222.6540 C   0  0  0  0  0  0  0  0  0  0  0  0
  141.5940   78.8860  221.4230 C   0  0  0  0  0  0  0  0  0  0  0  0
  141.9570   80.2460  221.4230 C   0  0  0  0  0  0  0  0  0  0  0  0
  141.5480   78.1380  220.1130 C   0  0  0  0  0  0  0  0  0  0  0  0
  140.6740   76.8890  220.2180 C   0  0  0  0  0  0  0  0  0  0  0  0
  141.0840   76.1210  221.3980 N   0  0  0  0  0  0  0  0  0  0  0  0
  141.3470   74.7060  221.3200 C   0  0  0  0  0  0  0  0  0  0  0  0
  142.2940   74.1980  220.4240 C   0  0  0  0  0  0  0  0  0  0  0  0
  142.5120   72.8120  220.3840 C   0  0  0  0  0  0  0  0  0  0  0  0
  143.4600   72.2220  219.4810 N   0  0  0  0  0  0  0  0  0  0  0  0
  144.1340   70.9470  219.7450 C   0  0  0  0  0  0  0  0  0  0  0  0
  143.1490   69.7810  219.5540 C   0  0  0  0  0  0  0  0  0  0  0  0
  143.8640   68.4230  219.4250 C   0  0  1  0  0  0  0  0  0  0  0  0
  144.0440   68.0650  217.9340 C   0  0  0  0  0  0  0  0  0  0  0  0
  144.6910   66.6760  217.7700 C   0  0  0  0  0  0  0  0  0  0  0  0
  145.5880   66.2980  218.9620 C   0  0  0  0  0  0  0  0  0  0  0  0
  146.1930   67.5460  219.6160 C   0  0  0  0  0  0  0  0  0  0  0  0
  145.1620   68.4650  220.1420 N   0  0  0  0  0  0  0  0  0  0  0  0
  141.8170   72.0060  221.2300 N   0  0  0  0  0  0  0  0  0  0  0  0
  140.9250   72.5080  222.1260 C   0  0  0  0  0  0  0  0  0  0  0  0
  140.2480   71.6280  223.0490 N   0  0  0  0  0  0  0  0  0  0  0  0
  139.4520   70.5090  222.5040 C   0  0  0  0  0  0  0  0  0  0  0  0
  138.5750   69.8290  223.5640 C   0  0  0  0  0  0  0  0  0  0  0  0
  139.3610   69.5780  224.8130 C   0  0  0  0  0  0  0  0  0  0  0  0
  139.1940   68.3950  225.5500 C   0  0  0  0  0  0  0  0  0  0  0  0
  139.9020   68.2060  226.7430 C   0  0  0  0  0  0  0  0  0  0  0  0
  140.7570   69.2080  227.2140 C   0  0  0  0  0  0  0  0  0  0  0  0
  140.9180   70.3930  226.4910 C   0  0  0  0  0  0  0  0  0  0  0  0
  140.2270   70.5810  225.2820 C   0  0  0  0  0  0  0  0  0  0  0  0
  140.3680   71.8610  224.5030 C   0  0  0  0  0  0  0  0  0  0  0  0
  140.7000   73.8510  222.1580 N   0  0  0  0  0  0  0  0  0  0  0  0
  140.9500   76.7690  222.7070 C   0  0  0  0  0  0  0  0  0  0  0  0
  142.3419   82.0092  222.6223 H   0  0  0  0  0  0  0  0  0  0  0  0
  141.8586   80.8582  224.7845 H   0  0  0  0  0  0  0  0  0  0  0  0
  141.2354   78.4454  224.8085 H   0  0  0  0  0  0  0  0  0  0  0  0
  142.1634   80.7584  220.4717 H   0  0  0  0  0  0  0  0  0  0  0  0
  141.1360   78.7996  219.3368 H   0  0  0  0  0  0  0  0  0  0  0  0
  142.5707   77.8258  219.8551 H   0  0  0  0  0  0  0  0  0  0  0  0
  139.6189   77.1838  220.3174 H   0  0  0  0  0  0  0  0  0  0  0  0
  140.7918   76.2742  219.3135 H   0  0  0  0  0  0  0  0  0  0  0  0
  142.8576   74.8727  219.7628 H   0  0  0  0  0  0  0  0  0  0  0  0
  143.4860   72.5790  218.4990 H   0  0  0  0  0  0  0  0  0  0  0  0
  144.9769   70.8295  219.0481 H   0  0  0  0  0  0  0  0  0  0  0  0
  144.5028   70.9417  220.7813 H   0  0  0  0  0  0  0  0  0  0  0  0
  142.4736   69.7435  220.4214 H   0  0  0  0  0  0  0  0  0  0  0  0
  142.5962   69.9588  218.6198 H   0  0  0  0  0  0  0  0  0  0  0  0
  143.2515   67.6353  219.8880 H   0  0  0  0  0  0  0  0  0  0  0  0
  143.0592   68.0625  217.4439 H   0  0  0  0  0  0  0  0  0  0  0  0
  144.7042   68.8141  217.4726 H   0  0  0  0  0  0  0  0  0  0  0  0
  143.8933   65.9243  217.6767 H   0  0  0  0  0  0  0  0  0  0  0  0
  145.3252   66.7072  216.8718 H   0  0  0  0  0  0  0  0  0  0  0  0
  144.9859   65.7579  219.7075 H   0  0  0  0  0  0  0  0  0  0  0  0
  146.4083   65.6640  218.5944 H   0  0  0  0  0  0  0  0  0  0  0  0
  146.8410   67.2300  220.4468 H   0  0  0  0  0  0  0  0  0  0  0  0
  146.7603   68.0865  218.8439 H   0  0  0  0  0  0  0  0  0  0  0  0
  144.9920   68.2260  221.1430 H   0  0  0  0  0  0  0  0  0  0  0  0
  138.8015   70.8967  221.7062 H   0  0  0  0  0  0  0  0  0  0  0  0
  140.1579   69.7548  222.1259 H   0  0  0  0  0  0  0  0  0  0  0  0
  137.7205   70.4806  223.7990 H   0  0  0  0  0  0  0  0  0  0  0  0
  138.2203   68.8662  223.1676 H   0  0  0  0  0  0  0  0  0  0  0  0
  138.5062   67.6157  225.1899 H   0  0  0  0  0  0  0  0  0  0  0  0
  139.7860   67.2703  227.3095 H   0  0  0  0  0  0  0  0  0  0  0  0
  141.3046   69.0626  228.1569 H   0  0  0  0  0  0  0  0  0  0  0  0
  141.5870   71.1801  226.8691 H   0  0  0  0  0  0  0  0  0  0  0  0
  139.5796   72.5600  224.8189 H   0  0  0  0  0  0  0  0  0  0  0  0
  141.3658   72.2781  224.7037 H   0  0  0  0  0  0  0  0  0  0  0  0
  139.9008   76.7048  223.0310 H   0  0  0  0  0  0  0  0  0  0  0  0
  141.6132   76.2516  223.4158 H   0  0  0  0  0  0  0  0  0  0  0  0
  1  2  2  0
  2  3  1  0
  3  4  2  0
  4  5  1  0
  5  6  2  0
  5  7  1  0
  7  8  1  0
  8  9  1  0
  9 10  1  0
 10 11  2  0
 11 12  1  0
 12 13  1  0
 13 14  1  0
 14 15  1  0
 15 16  1  0
 16 17  1  0
 17 18  1  0
 18 19  1  0
 19 20  1  0
 20 21  1  0
 12 22  2  0
 22 23  1  0
 23 24  1  0
 24 25  1  0
 25 26  1  0
 26 27  1  0
 27 28  2  0
 28 29  1  0
 29 30  2  0
 30 31  1  0
 31 32  2  0
 32 33  1  0
 23 34  2  0
  9 35  1  0
  6  1  1  0
 34 10  1  0
 35  4  1  0
 21 16  1  0
 33 24  1  0
 32 27  1  0
  1 36  1  0
  2 37  1  0
  3 38  1  0
  6 39  1  0
  7 40  1  0
  7 41  1  0
  8 42  1  0
  8 43  1  0
 11 44  1  0
 13 45  1  0
 14 46  1  0
 14 47  1  0
 15 48  1  0
 15 49  1  0
 16 50  1  1
 17 51  1  0
 17 52  1  0
 18 53  1  0
 18 54  1  0
 19 55  1  0
 19 56  1  0
 20 57  1  0
 20 58  1  0
 21 59  1  0
 25 60  1  0
 25 61  1  0
 26 62  1  0
 26 63  1  0
 28 64  1  0
 29 65  1  0
 30 66  1  0
 31 67  1  0
 33 68  1  0
 33 69  1  0
 35 70  1  0
 35 71  1  0
M  END
>  <UniqueID>  (68) 
588

>  <SMILES>  (68) 
c1ccc2c(c1)CCN(c1cc(NCC[C@H]3CCCCN3)nc(N3CCc4ccccc4C3)n1)C2

>  <Energy>  (68) 
87.22047786587387

>  <Genealogy>  (68) 
c1ccc2c(c1)CCN(c1cc(NCC[C@H]3CCCCN3)nc(N3CCc4ccccc4C3)n1)C2 (chirality)
c1ccc2c(c1)CCN(c1cc(NCC[C@H]3CCCCN3)nc(N3CCc4ccccc4C3)n1)C2 (3D coordinates assigned)
c1ccc2c(c1)CCN(c1cc(NCC[C@H]3CCCCN3)nc(N3CCc4ccccc4C3)n1)C2 (nonaromatic ring conformer: 87.22047786587387 kcal/mol)

>  <smiles>  (68) 
c1ccc2c(c1)CCN(c1cc(NCCC3CCCCN3)nc(N3CCc4ccccc4C3)n1)C2

>  <score_type>  (68) 
oracle

>  <origin>  (68) 
autodockgpu

>  <m_score__min__energy>  (68) 
-10.380000000000001

>  <m_primary>  (68) 
energy

>  <meeko>  (68) 
{"free_energy": -10.38, "intermolecular_energy": -12.17, "internal_energy": -0.92, "cluster_size": 8, "cluster_id": 1, "rank_in_cluster": 1}

>  <energy>  (68) 
-9.0

>  <cluster_rmsd>  (68) 
1.8

>  <rmsd>  (68) 
269.24

>  <cluster>  (68) 
1

$$$$
VOUYAFWJUZHTKY-RNPWZEQVNA-N
     RDKit          3D

 71 76  0  0  0  0  0  0  0  0999 V2000
  139.5090   69.6930  228.1420 C   0  0  0  0  0  0  0  0  0  0  0  0
  140.5910   70.5790  228.1870 C   0  0  0  0  0  0  0  0  0  0  0  0
  141.0630   71.1700  227.0140 C   0  0  0  0  0  0  0  0  0  0  0  0
  140.4560   70.8870  225.7820 C   0  0  0  0  0  0  0  0  0  0  0  0
  139.3810   69.9660  225.7300 C   0  0  0  0  0  0  0  0  0  0  0  0
  138.9050   69.3860  226.9220 C   0  0  0  0  0  0  0  0  0  0  0  0
  138.6760   69.6590  224.4310 C   0  0  0  0  0  0  0  0  0  0  0  0
  139.5840   69.9280  223.2320 C   0  0  0  0  0  0  0  0  0  0  0  0
  140.1620   71.2680  223.3640 N   0  0  0  0  0  0  0  0  0  0  0  0
  140.1300   72.2120  222.2750 C   0  0  0  0  0  0  0  0  0  0  0  0
  140.1770   71.7780  220.9450 C   0  0  0  0  0  0  0  0  0  0  0  0
  140.1460   72.7360  219.9200 C   0  0  0  0  0  0  0  0  0  0  0  0
  140.2040   72.3620  218.5350 N   0  0  0  0  0  0  0  0  0  0  0  0
  140.7050   73.2520  217.4830 C   0  0  0  0  0  0  0  0  0  0  0  0
  142.2290   73.0970  217.3440 C   0  0  0  0  0  0  0  0  0  0  0  0
  142.9620   73.2550  218.6890 C   0  0  1  0  0  0  0  0  0  0  0  0
  144.4560   72.9100  218.5160 C   0  0  0  0  0  0  0  0  0  0  0  0
  145.2040   72.9880  219.8610 C   0  0  0  0  0  0  0  0  0  0  0  0
  144.5590   73.9840  220.8400 C   0  0  0  0  0  0  0  0  0  0  0  0
  143.8550   75.1210  220.0870 C   0  0  0  0  0  0  0  0  0  0  0  0
  142.7710   74.6320  219.2090 N   0  0  0  0  0  0  0  0  0  0  0  0
  140.0470   74.0530  220.2440 N   0  0  0  0  0  0  0  0  0  0  0  0
  139.9630   74.4670  221.5370 C   0  0  0  0  0  0  0  0  0  0  0  0
  139.8000   75.8690  221.8420 N   0  0  0  0  0  0  0  0  0  0  0  0
  138.6650   76.2780  222.6960 C   0  0  0  0  0  0  0  0  0  0  0  0
  138.4510   77.7980  222.7150 C   0  0  0  0  0  0  0  0  0  0  0  0
  139.7550   78.5090  222.9060 C   0  0  0  0  0  0  0  0  0  0  0  0
  139.8470   79.6510  223.7170 C   0  0  0  0  0  0  0  0  0  0  0  0
  141.0650   80.3290  223.8380 C   0  0  0  0  0  0  0  0  0  0  0  0
  142.1870   79.8820  223.1300 C   0  0  0  0  0  0  0  0  0  0  0  0
  142.0980   78.7530  222.3120 C   0  0  0  0  0  0  0  0  0  0  0  0
  140.8840   78.0550  222.2020 C   0  0  0  0  0  0  0  0  0  0  0  0
  140.7630   76.8520  221.3060 C   0  0  0  0  0  0  0  0  0  0  0  0
  140.0070   73.5420  222.5350 N   0  0  0  0  0  0  0  0  0  0  0  0
  141.0140   71.5250  224.5290 C   0  0  0  0  0  0  0  0  0  0  0  0
  139.1337   69.2375  229.0702 H   0  0  0  0  0  0  0  0  0  0  0  0
  141.0709   70.8104  229.1494 H   0  0  0  0  0  0  0  0  0  0  0  0
  141.9168   71.8623  227.0562 H   0  0  0  0  0  0  0  0  0  0  0  0
  138.0546   68.6890  226.8912 H   0  0  0  0  0  0  0  0  0  0  0  0
  138.3791   68.5998  224.4256 H   0  0  0  0  0  0  0  0  0  0  0  0
  137.7929   70.3100  224.3519 H   0  0  0  0  0  0  0  0  0  0  0  0
  140.3897   69.1797  223.2040 H   0  0  0  0  0  0  0  0  0  0  0  0
  139.0006   69.8643  222.3016 H   0  0  0  0  0  0  0  0  0  0  0  0
  140.2371   70.7056  220.7076 H   0  0  0  0  0  0  0  0  0  0  0  0
  140.1230   71.3470  218.3000 H   0  0  0  0  0  0  0  0  0  0  0  0
  140.2240   72.9939  216.5280 H   0  0  0  0  0  0  0  0  0  0  0  0
  140.4709   74.2933  217.7494 H   0  0  0  0  0  0  0  0  0  0  0  0
  142.4466   72.0978  216.9387 H   0  0  0  0  0  0  0  0  0  0  0  0
  142.5864   73.8918  216.6728 H   0  0  0  0  0  0  0  0  0  0  0  0
  142.5399   72.5565  219.4265 H   0  0  0  0  0  0  0  0  0  0  0  0
  144.5447   71.8898  218.1145 H   0  0  0  0  0  0  0  0  0  0  0  0
  144.9045   73.6386  217.8246 H   0  0  0  0  0  0  0  0  0  0  0  0
  145.2034   71.9896  220.3228 H   0  0  0  0  0  0  0  0  0  0  0  0
  146.2258   73.3388  219.6540 H   0  0  0  0  0  0  0  0  0  0  0  0
  143.8215   73.4526  221.4594 H   0  0  0  0  0  0  0  0  0  0  0  0
  145.3503   74.4184  221.4686 H   0  0  0  0  0  0  0  0  0  0  0  0
  143.4264   75.8184  220.8218 H   0  0  0  0  0  0  0  0  0  0  0  0
  144.6041   75.6145  219.4503 H   0  0  0  0  0  0  0  0  0  0  0  0
  141.8780   74.6590  219.7470 H   0  0  0  0  0  0  0  0  0  0  0  0
  137.7500   75.7992  222.3172 H   0  0  0  0  0  0  0  0  0  0  0  0
  138.8949   75.9635  223.7247 H   0  0  0  0  0  0  0  0  0  0  0  0
  138.0037   78.1125  221.7606 H   0  0  0  0  0  0  0  0  0  0  0  0
  137.7815   78.0525  223.5498 H   0  0  0  0  0  0  0  0  0  0  0  0
  138.9605   80.0134  224.2581 H   0  0  0  0  0  0  0  0  0  0  0  0
  141.1409   81.2125  224.4889 H   0  0  0  0  0  0  0  0  0  0  0  0
  143.1416   80.4214  223.2181 H   0  0  0  0  0  0  0  0  0  0  0  0
  142.9808   78.4098  221.7527 H   0  0  0  0  0  0  0  0  0  0  0  0
  140.4229   77.1797  220.3126 H   0  0  0  0  0  0  0  0  0  0  0  0
  141.7492   76.3687  221.2442 H   0  0  0  0  0  0  0  0  0  0  0  0
  142.0159   71.1140  224.3356 H   0  0  0  0  0  0  0  0  0  0  0  0
  141.0580   72.6125  224.6884 H   0  0  0  0  0  0  0  0  0  0  0  0
  1  2  2  0
  2  3  1  0
  3  4  2  0
  4  5  1  0
  5  6  2  0
  5  7  1  0
  7  8  1  0
  8  9  1  0
  9 10  1  0
 10 11  2  0
 11 12  1  0
 12 13  1  0
 13 14  1  0
 14 15  1  0
 15 16  1  0
 16 17  1  0
 17 18  1  0
 18 19  1  0
 19 20  1  0
 20 21  1  0
 12 22  2  0
 22 23  1  0
 23 24  1  0
 24 25  1  0
 25 26  1  0
 26 27  1  0
 27 28  2  0
 28 29  1  0
 29 30  2  0
 30 31  1  0
 31 32  2  0
 32 33  1  0
 23 34  2  0
  9 35  1  0
  6  1  1  0
 34 10  1  0
 35  4  1  0
 21 16  1  0
 33 24  1  0
 32 27  1  0
  1 36  1  0
  2 37  1  0
  3 38  1  0
  6 39  1  0
  7 40  1  0
  7 41  1  0
  8 42  1  0
  8 43  1  0
 11 44  1  0
 13 45  1  0
 14 46  1  0
 14 47  1  0
 15 48  1  0
 15 49  1  0
 16 50  1  1
 17 51  1  0
 17 52  1  0
 18 53  1  0
 18 54  1  0
 19 55  1  0
 19 56  1  0
 20 57  1  0
 20 58  1  0
 21 59  1  0
 25 60  1  0
 25 61  1  0
 26 62  1  0
 26 63  1  0
 28 64  1  0
 29 65  1  0
 30 66  1  0
 31 67  1  0
 33 68  1  0
 33 69  1  0
 35 70  1  0
 35 71  1  0
M  END
>  <UniqueID>  (69) 
588

>  <SMILES>  (69) 
c1ccc2c(c1)CCN(c1cc(NCC[C@H]3CCCCN3)nc(N3CCc4ccccc4C3)n1)C2

>  <Energy>  (69) 
87.22047786587387

>  <Genealogy>  (69) 
c1ccc2c(c1)CCN(c1cc(NCC[C@H]3CCCCN3)nc(N3CCc4ccccc4C3)n1)C2 (chirality)
c1ccc2c(c1)CCN(c1cc(NCC[C@H]3CCCCN3)nc(N3CCc4ccccc4C3)n1)C2 (3D coordinates assigned)
c1ccc2c(c1)CCN(c1cc(NCC[C@H]3CCCCN3)nc(N3CCc4ccccc4C3)n1)C2 (nonaromatic ring conformer: 87.22047786587387 kcal/mol)

>  <smiles>  (69) 
c1ccc2c(c1)CCN(c1cc(NCCC3CCCCN3)nc(N3CCc4ccccc4C3)n1)C2

>  <score_type>  (69) 
oracle

>  <origin>  (69) 
autodockgpu

>  <m_score__min__energy>  (69) 
-10.380000000000001

>  <m_primary>  (69) 
energy

>  <meeko>  (69) 
{"free_energy": -8.81, "intermolecular_energy": -10.6, "internal_energy": -2.27, "cluster_size": 5, "cluster_id": 5, "rank_in_cluster": 5}

>  <energy>  (69) 
-10.06

>  <cluster_rmsd>  (69) 
0.0

>  <rmsd>  (69) 
269.76

>  <cluster>  (69) 
2

$$$$
VOUYAFWJUZHTKY-RNPWZEQVNA-N
     RDKit          3D

 71 76  0  0  0  0  0  0  0  0999 V2000
  142.2190   80.9320  222.6010 C   0  0  0  0  0  0  0  0  0  0  0  0
  142.0260   80.2770  223.8220 C   0  0  0  0  0  0  0  0  0  0  0  0
  141.5450   78.9660  223.8470 C   0  0  0  0  0  0  0  0  0  0  0  0
  141.2540   78.2940  222.6520 C   0  0  0  0  0  0  0  0  0  0  0  0
  141.4190   78.9660  221.4160 C   0  0  0  0  0  0  0  0  0  0  0  0
  141.9170   80.2830  221.4030 C   0  0  0  0  0  0  0  0  0  0  0  0
  141.1510   78.2680  220.1050 C   0  0  0  0  0  0  0  0  0  0  0  0
  140.1710   77.1100  220.2830 C   0  0  0  0  0  0  0  0  0  0  0  0
  140.6280   76.2680  221.3930 N   0  0  0  0  0  0  0  0  0  0  0  0
  140.7340   74.8370  221.2580 C   0  0  0  0  0  0  0  0  0  0  0  0
  141.3880   74.2640  220.1610 C   0  0  0  0  0  0  0  0  0  0  0  0
  141.4620   72.8660  220.0730 C   0  0  0  0  0  0  0  0  0  0  0  0
  142.1070   72.2110  218.9700 N   0  0  0  0  0  0  0  0  0  0  0  0
  142.1740   72.7860  217.6230 C   0  0  0  0  0  0  0  0  0  0  0  0
  143.2370   73.8960  217.5770 C   0  0  0  0  0  0  0  0  0  0  0  0
  144.4730   73.5640  218.4340 C   0  0  1  0  0  0  0  0  0  0  0  0
  144.3210   74.1870  219.8370 C   0  0  0  0  0  0  0  0  0  0  0  0
  145.5740   73.9340  220.6970 C   0  0  0  0  0  0  0  0  0  0  0  0
  146.3160   72.6470  220.2960 C   0  0  0  0  0  0  0  0  0  0  0  0
  145.3470   71.6090  219.7170 C   0  0  0  0  0  0  0  0  0  0  0  0
  144.6580   72.0930  218.5020 N   0  0  0  0  0  0  0  0  0  0  0  0
  140.9210   72.1090  221.0640 N   0  0  0  0  0  0  0  0  0  0  0  0
  140.3200   72.6700  222.1470 C   0  0  0  0  0  0  0  0  0  0  0  0
  139.8070   71.8360  223.2090 N   0  0  0  0  0  0  0  0  0  0  0  0
  138.6220   70.9960  222.9380 C   0  0  0  0  0  0  0  0  0  0  0  0
  138.0240   70.3800  224.2100 C   0  0  0  0  0  0  0  0  0  0  0  0
  139.1050   69.8000  225.0690 C   0  0  0  0  0  0  0  0  0  0  0  0
  138.9150   68.5890  225.7550 C   0  0  0  0  0  0  0  0  0  0  0  0
  139.9210   68.0940  226.5940 C   0  0  0  0  0  0  0  0  0  0  0  0
  141.1050   68.8180  226.7680 C   0  0  0  0  0  0  0  0  0  0  0  0
  141.2940   70.0290  226.0970 C   0  0  0  0  0  0  0  0  0  0  0  0
  140.2990   70.5220  225.2370 C   0  0  0  0  0  0  0  0  0  0  0  0
  140.4740   71.8370  224.5270 C   0  0  0  0  0  0  0  0  0  0  0  0
  140.2320   74.0270  222.2300 N   0  0  0  0  0  0  0  0  0  0  0  0
  140.7070   76.8850  222.7220 C   0  0  0  0  0  0  0  0  0  0  0  0
  142.6094   81.9603  222.5852 H   0  0  0  0  0  0  0  0  0  0  0  0
  142.2537   80.7959  224.7648 H   0  0  0  0  0  0  0  0  0  0  0  0
  141.3936   78.4577  224.8107 H   0  0  0  0  0  0  0  0  0  0  0  0
  142.0686   80.8022  220.4451 H   0  0  0  0  0  0  0  0  0  0  0  0
  140.7253   78.9916  219.3942 H   0  0  0  0  0  0  0  0  0  0  0  0
  142.1013   77.8635  219.7264 H   0  0  0  0  0  0  0  0  0  0  0  0
  139.1692   77.5051  220.5073 H   0  0  0  0  0  0  0  0  0  0  0  0
  140.1244   76.5155  219.3587 H   0  0  0  0  0  0  0  0  0  0  0  0
  141.8358   74.8986  219.3820 H   0  0  0  0  0  0  0  0  0  0  0  0
  142.7620   71.4250  219.1840 H   0  0  0  0  0  0  0  0  0  0  0  0
  142.4393   71.9976  216.9032 H   0  0  0  0  0  0  0  0  0  0  0  0
  141.1942   73.2136  217.3639 H   0  0  0  0  0  0  0  0  0  0  0  0
  143.5577   74.0345  216.5339 H   0  0  0  0  0  0  0  0  0  0  0  0
  142.7830   74.8111  217.9851 H   0  0  0  0  0  0  0  0  0  0  0  0
  145.3732   73.9950  217.9715 H   0  0  0  0  0  0  0  0  0  0  0  0
  144.1696   75.2716  219.7336 H   0  0  0  0  0  0  0  0  0  0  0  0
  143.4573   73.7208  220.3337 H   0  0  0  0  0  0  0  0  0  0  0  0
  146.2592   74.7866  220.5809 H   0  0  0  0  0  0  0  0  0  0  0  0
  145.2447   73.8179  221.7401 H   0  0  0  0  0  0  0  0  0  0  0  0
  147.0755   72.8913  219.5387 H   0  0  0  0  0  0  0  0  0  0  0  0
  146.7882   72.2217  221.1938 H   0  0  0  0  0  0  0  0  0  0  0  0
  145.9134   70.7008  219.4631 H   0  0  0  0  0  0  0  0  0  0  0  0
  144.5792   71.4074  220.4785 H   0  0  0  0  0  0  0  0  0  0  0  0
  145.2140   71.7930  217.6710 H   0  0  0  0  0  0  0  0  0  0  0  0
  137.8541   71.6177  222.4545 H   0  0  0  0  0  0  0  0  0  0  0  0
  138.9452   70.1678  222.2903 H   0  0  0  0  0  0  0  0  0  0  0  0
  137.4921   71.1599  224.7746 H   0  0  0  0  0  0  0  0  0  0  0  0
  137.3276   69.5780  223.9239 H   0  0  0  0  0  0  0  0  0  0  0  0
  137.9758   68.0294  225.6331 H   0  0  0  0  0  0  0  0  0  0  0  0
  139.7801   67.1361  227.1160 H   0  0  0  0  0  0  0  0  0  0  0  0
  141.8900   68.4328  227.4353 H   0  0  0  0  0  0  0  0  0  0  0  0
  142.2243   70.5976  226.2427 H   0  0  0  0  0  0  0  0  0  0  0  0
  140.0412   72.6371  225.1455 H   0  0  0  0  0  0  0  0  0  0  0  0
  141.5499   72.0019  224.3681 H   0  0  0  0  0  0  0  0  0  0  0  0
  139.6992   76.9151  223.1618 H   0  0  0  0  0  0  0  0  0  0  0  0
  141.3885   76.2824  223.3404 H   0  0  0  0  0  0  0  0  0  0  0  0
  1  2  2  0
  2  3  1  0
  3  4  2  0
  4  5  1  0
  5  6  2  0
  5  7  1  0
  7  8  1  0
  8  9  1  0
  9 10  1  0
 10 11  2  0
 11 12  1  0
 12 13  1  0
 13 14  1  0
 14 15  1  0
 15 16  1  0
 16 17  1  0
 17 18  1  0
 18 19  1  0
 19 20  1  0
 20 21  1  0
 12 22  2  0
 22 23  1  0
 23 24  1  0
 24 25  1  0
 25 26  1  0
 26 27  1  0
 27 28  2  0
 28 29  1  0
 29 30  2  0
 30 31  1  0
 31 32  2  0
 32 33  1  0
 23 34  2  0
  9 35  1  0
  6  1  1  0
 34 10  1  0
 35  4  1  0
 21 16  1  0
 33 24  1  0
 32 27  1  0
  1 36  1  0
  2 37  1  0
  3 38  1  0
  6 39  1  0
  7 40  1  0
  7 41  1  0
  8 42  1  0
  8 43  1  0
 11 44  1  0
 13 45  1  0
 14 46  1  0
 14 47  1  0
 15 48  1  0
 15 49  1  0
 16 50  1  6
 17 51  1  0
 17 52  1  0
 18 53  1  0
 18 54  1  0
 19 55  1  0
 19 56  1  0
 20 57  1  0
 20 58  1  0
 21 59  1  0
 25 60  1  0
 25 61  1  0
 26 62  1  0
 26 63  1  0
 28 64  1  0
 29 65  1  0
 30 66  1  0
 31 67  1  0
 33 68  1  0
 33 69  1  0
 35 70  1  0
 35 71  1  0
M  END
>  <UniqueID>  (70) 
588

>  <SMILES>  (70) 
c1ccc2c(c1)CCN(c1cc(NCC[C@H]3CCCCN3)nc(N3CCc4ccccc4C3)n1)C2

>  <Energy>  (70) 
87.22047786587387

>  <Genealogy>  (70) 
c1ccc2c(c1)CCN(c1cc(NCC[C@H]3CCCCN3)nc(N3CCc4ccccc4C3)n1)C2 (chirality)
c1ccc2c(c1)CCN(c1cc(NCC[C@H]3CCCCN3)nc(N3CCc4ccccc4C3)n1)C2 (3D coordinates assigned)
c1ccc2c(c1)CCN(c1cc(NCC[C@H]3CCCCN3)nc(N3CCc4ccccc4C3)n1)C2 (nonaromatic ring conformer: 87.22047786587387 kcal/mol)

>  <smiles>  (70) 
c1ccc2c(c1)CCN(c1cc(NCCC3CCCCN3)nc(N3CCc4ccccc4C3)n1)C2

>  <score_type>  (70) 
oracle

>  <origin>  (70) 
autodockgpu

>  <m_score__min__energy>  (70) 
-10.380000000000001

>  <m_primary>  (70) 
energy

>  <meeko>  (70) 
{"free_energy": -9.56, "intermolecular_energy": -11.35, "internal_energy": -1.65, "cluster_size": 8, "cluster_id": 1, "rank_in_cluster": 5}

>  <energy>  (70) 
-9.91

>  <cluster_rmsd>  (70) 
1.11

>  <rmsd>  (70) 
269.83

>  <cluster>  (70) 
2

$$$$
VOUYAFWJUZHTKY-RNPWZEQVNA-N
     RDKit          3D

 71 76  0  0  0  0  0  0  0  0999 V2000
  132.2460   73.6880  227.3830 C   0  0  0  0  0  0  0  0  0  0  0  0
  132.1980   72.2950  227.5090 C   0  0  0  0  0  0  0  0  0  0  0  0
  133.0290   71.4900  226.7280 C   0  0  0  0  0  0  0  0  0  0  0  0
  133.9210   72.0690  225.8140 C   0  0  0  0  0  0  0  0  0  0  0  0
  133.9490   73.4770  225.6620 C   0  0  0  0  0  0  0  0  0  0  0  0
  133.1150   74.2780  226.4650 C   0  0  0  0  0  0  0  0  0  0  0  0
  134.9180   74.1420  224.7150 C   0  0  0  0  0  0  0  0  0  0  0  0
  135.3470   73.1890  223.6010 C   0  0  0  0  0  0  0  0  0  0  0  0
  135.7790   71.9230  224.1990 N   0  0  0  0  0  0  0  0  0  0  0  0
  137.0300   71.3060  223.8340 C   0  0  0  0  0  0  0  0  0  0  0  0
  137.3120   69.9840  224.1960 C   0  0  0  0  0  0  0  0  0  0  0  0
  138.5450   69.4290  223.8200 C   0  0  0  0  0  0  0  0  0  0  0  0
  138.9050   68.0830  224.1670 N   0  0  0  0  0  0  0  0  0  0  0  0
  139.7370   67.7470  225.3270 C   0  0  0  0  0  0  0  0  0  0  0  0
  139.1970   68.4520  226.5830 C   0  0  0  0  0  0  0  0  0  0  0  0
  139.6970   69.9030  226.7050 C   0  0  1  0  0  0  0  0  0  0  0  0
  140.2090   70.1620  228.1370 C   0  0  0  0  0  0  0  0  0  0  0  0
  140.6500   71.6280  228.3140 C   0  0  0  0  0  0  0  0  0  0  0  0
  141.1270   72.2640  226.9960 C   0  0  0  0  0  0  0  0  0  0  0  0
  141.7250   71.2080  226.0570 C   0  0  0  0  0  0  0  0  0  0  0  0
  140.7480   70.1610  225.6900 N   0  0  0  0  0  0  0  0  0  0  0  0
  139.4190   70.1790  223.0970 N   0  0  0  0  0  0  0  0  0  0  0  0
  139.1240   71.4510  222.7170 C   0  0  0  0  0  0  0  0  0  0  0  0
  140.0510   72.1990  221.9000 N   0  0  0  0  0  0  0  0  0  0  0  0
  139.9490   73.6740  221.8860 C   0  0  0  0  0  0  0  0  0  0  0  0
  140.7980   74.3200  220.7830 C   0  0  0  0  0  0  0  0  0  0  0  0
  142.1690   73.7190  220.7570 C   0  0  0  0  0  0  0  0  0  0  0  0
  143.3050   74.5110  220.5260 C   0  0  0  0  0  0  0  0  0  0  0  0
  144.5710   73.9180  220.4540 C   0  0  0  0  0  0  0  0  0  0  0  0
  144.7020   72.5310  220.5880 C   0  0  0  0  0  0  0  0  0  0  0  0
  143.5740   71.7360  220.8060 C   0  0  0  0  0  0  0  0  0  0  0  0
  142.3020   72.3260  220.9010 C   0  0  0  0  0  0  0  0  0  0  0  0
  141.0730   71.4840  221.1100 C   0  0  0  0  0  0  0  0  0  0  0  0
  137.9350   71.9990  223.0910 N   0  0  0  0  0  0  0  0  0  0  0  0
  134.7850   71.1620  224.9640 C   0  0  0  0  0  0  0  0  0  0  0  0
  131.5975   74.3187  228.0088 H   0  0  0  0  0  0  0  0  0  0  0  0
  131.5032   71.8330  228.2258 H   0  0  0  0  0  0  0  0  0  0  0  0
  132.9839   70.3957  226.8301 H   0  0  0  0  0  0  0  0  0  0  0  0
  133.1487   75.3732  226.3682 H   0  0  0  0  0  0  0  0  0  0  0  0
  134.4342   75.0224  224.2669 H   0  0  0  0  0  0  0  0  0  0  0  0
  135.8123   74.4369  225.2835 H   0  0  0  0  0  0  0  0  0  0  0  0
  134.4994   73.0072  222.9239 H   0  0  0  0  0  0  0  0  0  0  0  0
  136.1755   73.6329  223.0295 H   0  0  0  0  0  0  0  0  0  0  0  0
  136.5808   69.3908  224.7647 H   0  0  0  0  0  0  0  0  0  0  0  0
  138.3580   67.3040  223.7330 H   0  0  0  0  0  0  0  0  0  0  0  0
  139.7201   66.6585  225.4845 H   0  0  0  0  0  0  0  0  0  0  0  0
  140.7684   68.0808  225.1406 H   0  0  0  0  0  0  0  0  0  0  0  0
  138.0980   68.4601  226.5380 H   0  0  0  0  0  0  0  0  0  0  0  0
  139.5616   67.8977  227.4604 H   0  0  0  0  0  0  0  0  0  0  0  0
  138.8674   70.5995  226.5138 H   0  0  0  0  0  0  0  0  0  0  0  0
  139.4027   69.9409  228.8519 H   0  0  0  0  0  0  0  0  0  0  0  0
  141.0777   69.5123  228.3194 H   0  0  0  0  0  0  0  0  0  0  0  0
  139.7981   72.2086  228.6977 H   0  0  0  0  0  0  0  0  0  0  0  0
  141.4968   71.6395  229.0160 H   0  0  0  0  0  0  0  0  0  0  0  0
  140.2713   72.7437  226.4984 H   0  0  0  0  0  0  0  0  0  0  0  0
  141.9054   73.0058  227.2280 H   0  0  0  0  0  0  0  0  0  0  0  0
  142.0699   71.7065  225.1391 H   0  0  0  0  0  0  0  0  0  0  0  0
  142.5558   70.7198  226.5876 H   0  0  0  0  0  0  0  0  0  0  0  0
  140.2830   70.4480  224.8010 H   0  0  0  0  0  0  0  0  0  0  0  0
  138.8966   73.9517  221.7271 H   0  0  0  0  0  0  0  0  0  0  0  0
  140.3273   74.0406  222.8517 H   0  0  0  0  0  0  0  0  0  0  0  0
  140.3124   74.1562  219.8097 H   0  0  0  0  0  0  0  0  0  0  0  0
  140.8856   75.3975  220.9865 H   0  0  0  0  0  0  0  0  0  0  0  0
  143.2001   75.5989  220.4014 H   0  0  0  0  0  0  0  0  0  0  0  0
  145.4624   74.5418  220.2922 H   0  0  0  0  0  0  0  0  0  0  0  0
  145.6963   72.0653  220.5215 H   0  0  0  0  0  0  0  0  0  0  0  0
  143.6818   70.6456  220.9035 H   0  0  0  0  0  0  0  0  0  0  0  0
  140.6481   71.2234  220.1294 H   0  0  0  0  0  0  0  0  0  0  0  0
  141.3658   70.5803  221.6646 H   0  0  0  0  0  0  0  0  0  0  0  0
  134.1414   70.6102  224.2631 H   0  0  0  0  0  0  0  0  0  0  0  0
  135.3206   70.4720  225.6326 H   0  0  0  0  0  0  0  0  0  0  0  0
  1  2  2  0
  2  3  1  0
  3  4  2  0
  4  5  1  0
  5  6  2  0
  5  7  1  0
  7  8  1  0
  8  9  1  0
  9 10  1  0
 10 11  2  0
 11 12  1  0
 12 13  1  0
 13 14  1  0
 14 15  1  0
 15 16  1  0
 16 17  1  0
 17 18  1  0
 18 19  1  0
 19 20  1  0
 20 21  1  0
 12 22  2  0
 22 23  1  0
 23 24  1  0
 24 25  1  0
 25 26  1  0
 26 27  1  0
 27 28  2  0
 28 29  1  0
 29 30  2  0
 30 31  1  0
 31 32  2  0
 32 33  1  0
 23 34  2  0
  9 35  1  0
  6  1  1  0
 34 10  1  0
 35  4  1  0
 21 16  1  0
 33 24  1  0
 32 27  1  0
  1 36  1  0
  2 37  1  0
  3 38  1  0
  6 39  1  0
  7 40  1  0
  7 41  1  0
  8 42  1  0
  8 43  1  0
 11 44  1  0
 13 45  1  0
 14 46  1  0
 14 47  1  0
 15 48  1  0
 15 49  1  0
 16 50  1  6
 17 51  1  0
 17 52  1  0
 18 53  1  0
 18 54  1  0
 19 55  1  0
 19 56  1  0
 20 57  1  0
 20 58  1  0
 21 59  1  0
 25 60  1  0
 25 61  1  0
 26 62  1  0
 26 63  1  0
 28 64  1  0
 29 65  1  0
 30 66  1  0
 31 67  1  0
 33 68  1  0
 33 69  1  0
 35 70  1  0
 35 71  1  0
M  END
>  <UniqueID>  (71) 
588

>  <SMILES>  (71) 
c1ccc2c(c1)CCN(c1cc(NCC[C@H]3CCCCN3)nc(N3CCc4ccccc4C3)n1)C2

>  <Energy>  (71) 
87.22047786587387

>  <Genealogy>  (71) 
c1ccc2c(c1)CCN(c1cc(NCC[C@H]3CCCCN3)nc(N3CCc4ccccc4C3)n1)C2 (chirality)
c1ccc2c(c1)CCN(c1cc(NCC[C@H]3CCCCN3)nc(N3CCc4ccccc4C3)n1)C2 (3D coordinates assigned)
c1ccc2c(c1)CCN(c1cc(NCC[C@H]3CCCCN3)nc(N3CCc4ccccc4C3)n1)C2 (nonaromatic ring conformer: 87.22047786587387 kcal/mol)

>  <smiles>  (71) 
c1ccc2c(c1)CCN(c1cc(NCCC3CCCCN3)nc(N3CCc4ccccc4C3)n1)C2

>  <score_type>  (71) 
oracle

>  <origin>  (71) 
autodockgpu

>  <m_score__min__energy>  (71) 
-10.380000000000001

>  <m_primary>  (71) 
energy

>  <meeko>  (71) 
{"free_energy": -8.73, "intermolecular_energy": -10.52, "internal_energy": -2.16, "cluster_size": 1, "cluster_id": 6, "rank_in_cluster": 1}

>  <energy>  (71) 
-9.9

>  <cluster_rmsd>  (71) 
0.0

>  <rmsd>  (71) 
269.62

>  <cluster>  (71) 
3

$$$$
VOUYAFWJUZHTKY-RNPWZEQVNA-N
     RDKit          3D

 71 76  0  0  0  0  0  0  0  0999 V2000
  140.2510   68.7700  227.3330 C   0  0  0  0  0  0  0  0  0  0  0  0
  141.0070   69.9190  227.5890 C   0  0  0  0  0  0  0  0  0  0  0  0
  141.1060   70.9230  226.6230 C   0  0  0  0  0  0  0  0  0  0  0  0
  140.4480   70.7910  225.3920 C   0  0  0  0  0  0  0  0  0  0  0  0
  139.7090   69.6150  225.1190 C   0  0  0  0  0  0  0  0  0  0  0  0
  139.6050   68.6150  226.1050 C   0  0  0  0  0  0  0  0  0  0  0  0
  138.9560   69.4480  223.8210 C   0  0  0  0  0  0  0  0  0  0  0  0
  139.5610   70.3110  222.7150 C   0  0  0  0  0  0  0  0  0  0  0  0
  139.7150   71.6810  223.2120 N   0  0  0  0  0  0  0  0  0  0  0  0
  139.2450   72.8130  222.4550 C   0  0  0  0  0  0  0  0  0  0  0  0
  137.9580   72.8250  221.9030 C   0  0  0  0  0  0  0  0  0  0  0  0
  137.5470   73.9500  221.1720 C   0  0  0  0  0  0  0  0  0  0  0  0
  136.2460   74.0250  220.5680 N   0  0  0  0  0  0  0  0  0  0  0  0
  135.1860   74.9140  221.0530 C   0  0  0  0  0  0  0  0  0  0  0  0
  135.2320   76.2510  220.2940 C   0  0  0  0  0  0  0  0  0  0  0  0
  136.4330   77.1210  220.7090 C   0  0  1  0  0  0  0  0  0  0  0  0
  136.2120   78.5760  220.2430 C   0  0  0  0  0  0  0  0  0  0  0  0
  137.4300   79.4590  220.5770 C   0  0  0  0  0  0  0  0  0  0  0  0
  138.2050   78.9540  221.8080 C   0  0  0  0  0  0  0  0  0  0  0  0
  137.2750   78.2230  222.7850 C   0  0  0  0  0  0  0  0  0  0  0  0
  136.6340   77.0380  222.1760 N   0  0  0  0  0  0  0  0  0  0  0  0
  138.3970   75.0030  221.0400 N   0  0  0  0  0  0  0  0  0  0  0  0
  139.6310   75.0030  221.6100 C   0  0  0  0  0  0  0  0  0  0  0  0
  140.4850   76.1620  221.4990 N   0  0  0  0  0  0  0  0  0  0  0  0
  140.7420   76.7240  220.1560 C   0  0  0  0  0  0  0  0  0  0  0  0
  141.8670   77.7680  220.1510 C   0  0  0  0  0  0  0  0  0  0  0  0
  141.6940   78.7300  221.2850 C   0  0  0  0  0  0  0  0  0  0  0  0
  141.9640   80.0980  221.1230 C   0  0  0  0  0  0  0  0  0  0  0  0
  141.8450   80.9700  222.2120 C   0  0  0  0  0  0  0  0  0  0  0  0
  141.4820   80.4740  223.4690 C   0  0  0  0  0  0  0  0  0  0  0  0
  141.2240   79.1100  223.6390 C   0  0  0  0  0  0  0  0  0  0  0  0
  141.3200   78.2330  222.5460 C   0  0  0  0  0  0  0  0  0  0  0  0
  141.0720   76.7580  222.7160 C   0  0  0  0  0  0  0  0  0  0  0  0
  140.0400   73.9080  222.3080 N   0  0  0  0  0  0  0  0  0  0  0  0
  140.6040   71.8880  224.3610 C   0  0  0  0  0  0  0  0  0  0  0  0
  140.1654   67.9870  228.1008 H   0  0  0  0  0  0  0  0  0  0  0  0
  141.5245   70.0320  228.5531 H   0  0  0  0  0  0  0  0  0  0  0  0
  141.7040   71.8229  226.8293 H   0  0  0  0  0  0  0  0  0  0  0  0
  139.0131   67.7092  225.9071 H   0  0  0  0  0  0  0  0  0  0  0  0
  138.9979   68.3921  223.5154 H   0  0  0  0  0  0  0  0  0  0  0  0
  137.9148   69.7654  223.9796 H   0  0  0  0  0  0  0  0  0  0  0  0
  140.5444   69.9092  222.4294 H   0  0  0  0  0  0  0  0  0  0  0  0
  138.9007   70.3059  221.8352 H   0  0  0  0  0  0  0  0  0  0  0  0
  137.2818   71.9683  222.0400 H   0  0  0  0  0  0  0  0  0  0  0  0
  136.1290   73.6240  219.6090 H   0  0  0  0  0  0  0  0  0  0  0  0
  134.2082   74.4369  220.8913 H   0  0  0  0  0  0  0  0  0  0  0  0
  135.3363   75.1029  222.1262 H   0  0  0  0  0  0  0  0  0  0  0  0
  135.3022   76.0430  219.2161 H   0  0  0  0  0  0  0  0  0  0  0  0
  134.3149   76.8070  220.5385 H   0  0  0  0  0  0  0  0  0  0  0  0
  137.3470   76.7477  220.2240 H   0  0  0  0  0  0  0  0  0  0  0  0
  136.0508   78.5837  219.1549 H   0  0  0  0  0  0  0  0  0  0  0  0
  135.3340   78.9804  220.7680 H   0  0  0  0  0  0  0  0  0  0  0  0
  138.1087   79.4658  219.7113 H   0  0  0  0  0  0  0  0  0  0  0  0
  137.0579   80.4682  220.8074 H   0  0  0  0  0  0  0  0  0  0  0  0
  138.9936   78.2622  221.4770 H   0  0  0  0  0  0  0  0  0  0  0  0
  138.6427   79.8208  222.3248 H   0  0  0  0  0  0  0  0  0  0  0  0
  137.8632   77.8977  223.6557 H   0  0  0  0  0  0  0  0  0  0  0  0
  136.4774   78.9229  223.0749 H   0  0  0  0  0  0  0  0  0  0  0  0
  137.2290   76.2050  222.3800 H   0  0  0  0  0  0  0  0  0  0  0  0
  141.0220   75.9030  219.4796 H   0  0  0  0  0  0  0  0  0  0  0  0
  139.8215   77.2289  219.8276 H   0  0  0  0  0  0  0  0  0  0  0  0
  142.8356   77.2570  220.2542 H   0  0  0  0  0  0  0  0  0  0  0  0
  141.8315   78.3250  219.2031 H   0  0  0  0  0  0  0  0  0  0  0  0
  142.2693   80.4852  220.1397 H   0  0  0  0  0  0  0  0  0  0  0  0
  142.0369   82.0450  222.0794 H   0  0  0  0  0  0  0  0  0  0  0  0
  141.3993   81.1588  224.3259 H   0  0  0  0  0  0  0  0  0  0  0  0
  140.9454   78.7233  224.6304 H   0  0  0  0  0  0  0  0  0  0  0  0
  142.0274   76.2580  222.9333 H   0  0  0  0  0  0  0  0  0  0  0  0
  140.3604   76.6217  223.5437 H   0  0  0  0  0  0  0  0  0  0  0  0
  141.6459   71.9007  224.0083 H   0  0  0  0  0  0  0  0  0  0  0  0
  140.3373   72.8446  224.8340 H   0  0  0  0  0  0  0  0  0  0  0  0
  1  2  2  0
  2  3  1  0
  3  4  2  0
  4  5  1  0
  5  6  2  0
  5  7  1  0
  7  8  1  0
  8  9  1  0
  9 10  1  0
 10 11  2  0
 11 12  1  0
 12 13  1  0
 13 14  1  0
 14 15  1  0
 15 16  1  0
 16 17  1  0
 17 18  1  0
 18 19  1  0
 19 20  1  0
 20 21  1  0
 12 22  2  0
 22 23  1  0
 23 24  1  0
 24 25  1  0
 25 26  1  0
 26 27  1  0
 27 28  2  0
 28 29  1  0
 29 30  2  0
 30 31  1  0
 31 32  2  0
 32 33  1  0
 23 34  2  0
  9 35  1  0
  6  1  1  0
 34 10  1  0
 35  4  1  0
 21 16  1  0
 33 24  1  0
 32 27  1  0
  1 36  1  0
  2 37  1  0
  3 38  1  0
  6 39  1  0
  7 40  1  0
  7 41  1  0
  8 42  1  0
  8 43  1  0
 11 44  1  0
 13 45  1  0
 14 46  1  0
 14 47  1  0
 15 48  1  0
 15 49  1  0
 16 50  1  6
 17 51  1  0
 17 52  1  0
 18 53  1  0
 18 54  1  0
 19 55  1  0
 19 56  1  0
 20 57  1  0
 20 58  1  0
 21 59  1  0
 25 60  1  0
 25 61  1  0
 26 62  1  0
 26 63  1  0
 28 64  1  0
 29 65  1  0
 30 66  1  0
 31 67  1  0
 33 68  1  0
 33 69  1  0
 35 70  1  0
 35 71  1  0
M  END
>  <UniqueID>  (72) 
588

>  <SMILES>  (72) 
c1ccc2c(c1)CCN(c1cc(NCC[C@H]3CCCCN3)nc(N3CCc4ccccc4C3)n1)C2

>  <Energy>  (72) 
87.22047786587387

>  <Genealogy>  (72) 
c1ccc2c(c1)CCN(c1cc(NCC[C@H]3CCCCN3)nc(N3CCc4ccccc4C3)n1)C2 (chirality)
c1ccc2c(c1)CCN(c1cc(NCC[C@H]3CCCCN3)nc(N3CCc4ccccc4C3)n1)C2 (3D coordinates assigned)
c1ccc2c(c1)CCN(c1cc(NCC[C@H]3CCCCN3)nc(N3CCc4ccccc4C3)n1)C2 (nonaromatic ring conformer: 87.22047786587387 kcal/mol)

>  <smiles>  (72) 
c1ccc2c(c1)CCN(c1cc(NCCC3CCCCN3)nc(N3CCc4ccccc4C3)n1)C2

>  <score_type>  (72) 
oracle

>  <origin>  (72) 
autodockgpu

>  <m_score__min__energy>  (72) 
-10.380000000000001

>  <m_primary>  (72) 
energy

>  <meeko>  (72) 
{"free_energy": -7.96, "intermolecular_energy": -9.75, "internal_energy": -2.71, "cluster_size": 3, "cluster_id": 4, "rank_in_cluster": 3}

>  <energy>  (72) 
-9.44

>  <cluster_rmsd>  (72) 
0.0

>  <rmsd>  (72) 
269.25

>  <cluster>  (72) 
4

$$$$
VOUYAFWJUZHTKY-RNPWZEQVNA-N
     RDKit          3D

 71 76  0  0  0  0  0  0  0  0999 V2000
  146.1180   70.0130  217.1050 C   0  0  0  0  0  0  0  0  0  0  0  0
  145.8710   69.1980  218.2150 C   0  0  0  0  0  0  0  0  0  0  0  0
  145.1480   69.6930  219.3030 C   0  0  0  0  0  0  0  0  0  0  0  0
  144.6600   71.0070  219.2910 C   0  0  0  0  0  0  0  0  0  0  0  0
  144.9350   71.8440  218.1820 C   0  0  0  0  0  0  0  0  0  0  0  0
  145.6540   71.3300  217.0860 C   0  0  0  0  0  0  0  0  0  0  0  0
  144.3990   73.2530  218.1130 C   0  0  0  0  0  0  0  0  0  0  0  0
  144.1190   73.8080  219.5090 C   0  0  0  0  0  0  0  0  0  0  0  0
  143.3150   72.8360  220.2540 N   0  0  0  0  0  0  0  0  0  0  0  0
  142.1180   73.2280  220.9540 C   0  0  0  0  0  0  0  0  0  0  0  0
  141.2640   72.2700  221.5130 C   0  0  0  0  0  0  0  0  0  0  0  0
  140.1090   72.7020  222.1820 C   0  0  0  0  0  0  0  0  0  0  0  0
  139.1830   71.7740  222.7690 N   0  0  0  0  0  0  0  0  0  0  0  0
  139.2600   71.3370  224.1660 C   0  0  0  0  0  0  0  0  0  0  0  0
  140.7290   71.2800  224.6190 C   0  0  0  0  0  0  0  0  0  0  0  0
  140.9500   70.2820  225.7720 C   0  0  1  0  0  0  0  0  0  0  0  0
  140.6770   70.9740  227.1240 C   0  0  0  0  0  0  0  0  0  0  0  0
  140.9610   70.0220  228.3030 C   0  0  0  0  0  0  0  0  0  0  0  0
  140.7680   68.5420  227.9270 C   0  0  0  0  0  0  0  0  0  0  0  0
  139.7140   68.3850  226.8230 C   0  0  0  0  0  0  0  0  0  0  0  0
  140.0890   69.0900  225.5790 N   0  0  0  0  0  0  0  0  0  0  0  0
  139.8630   74.0350  222.2910 N   0  0  0  0  0  0  0  0  0  0  0  0
  140.7150   74.9630  221.7800 C   0  0  0  0  0  0  0  0  0  0  0  0
  140.4530   76.3710  221.9640 N   0  0  0  0  0  0  0  0  0  0  0  0
  139.1880   76.7750  222.6120 C   0  0  0  0  0  0  0  0  0  0  0  0
  138.9140   78.2810  222.4990 C   0  0  0  0  0  0  0  0  0  0  0  0
  140.1460   79.0650  222.8310 C   0  0  0  0  0  0  0  0  0  0  0  0
  140.0710   80.2570  223.5690 C   0  0  0  0  0  0  0  0  0  0  0  0
  141.2300   80.9990  223.8220 C   0  0  0  0  0  0  0  0  0  0  0  0
  142.4620   80.5660  223.3190 C   0  0  0  0  0  0  0  0  0  0  0  0
  142.5410   79.3860  222.5730 C   0  0  0  0  0  0  0  0  0  0  0  0
  141.3850   78.6250  222.3330 C   0  0  0  0  0  0  0  0  0  0  0  0
  141.4460   77.3660  221.5100 C   0  0  0  0  0  0  0  0  0  0  0  0
  141.8300   74.5490  221.1160 N   0  0  0  0  0  0  0  0  0  0  0  0
  143.9060   71.5160  220.5000 C   0  0  0  0  0  0  0  0  0  0  0  0
  146.6785   69.6158  216.2459 H   0  0  0  0  0  0  0  0  0  0  0  0
  146.2472   68.1645  218.2311 H   0  0  0  0  0  0  0  0  0  0  0  0
  144.9606   69.0480  220.1741 H   0  0  0  0  0  0  0  0  0  0  0  0
  145.8509   71.9680  216.2118 H   0  0  0  0  0  0  0  0  0  0  0  0
  145.1402   73.8946  217.6141 H   0  0  0  0  0  0  0  0  0  0  0  0
  143.4549   73.2387  217.5486 H   0  0  0  0  0  0  0  0  0  0  0  0
  145.0695   73.9813  220.0349 H   0  0  0  0  0  0  0  0  0  0  0  0
  143.5732   74.7597  219.4290 H   0  0  0  0  0  0  0  0  0  0  0  0
  141.4944   71.1977  221.4292 H   0  0  0  0  0  0  0  0  0  0  0  0
  138.2850   71.5950  222.2640 H   0  0  0  0  0  0  0  0  0  0  0  0
  138.7103   72.0475  224.8008 H   0  0  0  0  0  0  0  0  0  0  0  0
  138.8151   70.3350  224.2560 H   0  0  0  0  0  0  0  0  0  0  0  0
  141.3507   70.9754  223.7642 H   0  0  0  0  0  0  0  0  0  0  0  0
  141.0066   72.2801  224.9833 H   0  0  0  0  0  0  0  0  0  0  0  0
  141.9963   69.9424  225.7747 H   0  0  0  0  0  0  0  0  0  0  0  0
  141.3253   71.8582  227.2122 H   0  0  0  0  0  0  0  0  0  0  0  0
  139.6171   71.2662  227.1588 H   0  0  0  0  0  0  0  0  0  0  0  0
  142.0000   70.1694  228.6327 H   0  0  0  0  0  0  0  0  0  0  0  0
  140.2445   70.2591  229.1033 H   0  0  0  0  0  0  0  0  0  0  0  0
  141.7253   68.1343  227.5702 H   0  0  0  0  0  0  0  0  0  0  0  0
  140.4237   67.9973  228.8185 H   0  0  0  0  0  0  0  0  0  0  0  0
  139.5937   67.3147  226.5995 H   0  0  0  0  0  0  0  0  0  0  0  0
  138.7768   68.8290  227.1897 H   0  0  0  0  0  0  0  0  0  0  0  0
  140.5940   68.4160  224.9620 H   0  0  0  0  0  0  0  0  0  0  0  0
  138.3597   76.2307  222.1349 H   0  0  0  0  0  0  0  0  0  0  0  0
  139.2733   76.5342  223.6819 H   0  0  0  0  0  0  0  0  0  0  0  0
  138.6017   78.5159  221.4707 H   0  0  0  0  0  0  0  0  0  0  0  0
  138.1182   78.5519  223.2085 H   0  0  0  0  0  0  0  0  0  0  0  0
  139.1001   80.6080  223.9487 H   0  0  0  0  0  0  0  0  0  0  0  0
  141.1727   81.9228  224.4164 H   0  0  0  0  0  0  0  0  0  0  0  0
  143.3707   81.1555  223.5110 H   0  0  0  0  0  0  0  0  0  0  0  0
  143.5102   79.0530  222.1733 H   0  0  0  0  0  0  0  0  0  0  0  0
  141.2446   77.6170  220.4581 H   0  0  0  0  0  0  0  0  0  0  0  0
  142.4487   76.9284  221.6244 H   0  0  0  0  0  0  0  0  0  0  0  0
  144.6014   71.5893  221.3491 H   0  0  0  0  0  0  0  0  0  0  0  0
  143.0909   70.8103  220.7182 H   0  0  0  0  0  0  0  0  0  0  0  0
  1  2  2  0
  2  3  1  0
  3  4  2  0
  4  5  1  0
  5  6  2  0
  5  7  1  0
  7  8  1  0
  8  9  1  0
  9 10  1  0
 10 11  2  0
 11 12  1  0
 12 13  1  0
 13 14  1  0
 14 15  1  0
 15 16  1  0
 16 17  1  0
 17 18  1  0
 18 19  1  0
 19 20  1  0
 20 21  1  0
 12 22  2  0
 22 23  1  0
 23 24  1  0
 24 25  1  0
 25 26  1  0
 26 27  1  0
 27 28  2  0
 28 29  1  0
 29 30  2  0
 30 31  1  0
 31 32  2  0
 32 33  1  0
 23 34  2  0
  9 35  1  0
  6  1  1  0
 34 10  1  0
 35  4  1  0
 21 16  1  0
 33 24  1  0
 32 27  1  0
  1 36  1  0
  2 37  1  0
  3 38  1  0
  6 39  1  0
  7 40  1  0
  7 41  1  0
  8 42  1  0
  8 43  1  0
 11 44  1  0
 13 45  1  0
 14 46  1  0
 14 47  1  0
 15 48  1  0
 15 49  1  0
 16 50  1  1
 17 51  1  0
 17 52  1  0
 18 53  1  0
 18 54  1  0
 19 55  1  0
 19 56  1  0
 20 57  1  0
 20 58  1  0
 21 59  1  0
 25 60  1  0
 25 61  1  0
 26 62  1  0
 26 63  1  0
 28 64  1  0
 29 65  1  0
 30 66  1  0
 31 67  1  0
 33 68  1  0
 33 69  1  0
 35 70  1  0
 35 71  1  0
M  END
>  <UniqueID>  (73) 
588

>  <SMILES>  (73) 
c1ccc2c(c1)CCN(c1cc(NCC[C@H]3CCCCN3)nc(N3CCc4ccccc4C3)n1)C2

>  <Energy>  (73) 
87.22047786587387

>  <Genealogy>  (73) 
c1ccc2c(c1)CCN(c1cc(NCC[C@H]3CCCCN3)nc(N3CCc4ccccc4C3)n1)C2 (chirality)
c1ccc2c(c1)CCN(c1cc(NCC[C@H]3CCCCN3)nc(N3CCc4ccccc4C3)n1)C2 (3D coordinates assigned)
c1ccc2c(c1)CCN(c1cc(NCC[C@H]3CCCCN3)nc(N3CCc4ccccc4C3)n1)C2 (nonaromatic ring conformer: 87.22047786587387 kcal/mol)

>  <smiles>  (73) 
c1ccc2c(c1)CCN(c1cc(NCCC3CCCCN3)nc(N3CCc4ccccc4C3)n1)C2

>  <score_type>  (73) 
oracle

>  <origin>  (73) 
autodockgpu

>  <m_score__min__energy>  (73) 
-10.380000000000001

>  <m_primary>  (73) 
energy

>  <meeko>  (73) 
{"free_energy": -9.91, "intermolecular_energy": -11.7, "internal_energy": -0.97, "cluster_size": 2, "cluster_id": 2, "rank_in_cluster": 2}

>  <energy>  (73) 
-8.06

>  <cluster_rmsd>  (73) 
1.66

>  <rmsd>  (73) 
269.06

>  <cluster>  (73) 
4

$$$$
VOUYAFWJUZHTKY-RNPWZEQVNA-N
     RDKit          3D

 71 76  0  0  0  0  0  0  0  0999 V2000
  142.2090   80.8810  222.6410 C   0  0  0  0  0  0  0  0  0  0  0  0
  141.8080   80.2760  223.8380 C   0  0  0  0  0  0  0  0  0  0  0  0
  141.3890   78.9440  223.8460 C   0  0  0  0  0  0  0  0  0  0  0  0
  141.3690   78.2000  222.6580 C   0  0  0  0  0  0  0  0  0  0  0  0
  141.7440   78.8190  221.4400 C   0  0  0  0  0  0  0  0  0  0  0  0
  142.1770   80.1590  221.4470 C   0  0  0  0  0  0  0  0  0  0  0  0
  141.7700   78.0450  220.1450 C   0  0  0  0  0  0  0  0  0  0  0  0
  140.8260   76.8450  220.1970 C   0  0  0  0  0  0  0  0  0  0  0  0
  141.0920   76.0840  221.4220 N   0  0  0  0  0  0  0  0  0  0  0  0
  141.2850   74.6560  221.3940 C   0  0  0  0  0  0  0  0  0  0  0  0
  142.1550   74.0660  220.4700 C   0  0  0  0  0  0  0  0  0  0  0  0
  142.3070   72.6710  220.4800 C   0  0  0  0  0  0  0  0  0  0  0  0
  143.1740   71.9980  219.5530 N   0  0  0  0  0  0  0  0  0  0  0  0
  143.3800   72.4500  218.1740 C   0  0  0  0  0  0  0  0  0  0  0  0
  144.6550   71.8140  217.5960 C   0  0  0  0  0  0  0  0  0  0  0  0
  144.7860   70.3230  217.9610 C   0  0  1  0  0  0  0  0  0  0  0  0
  145.4050   69.5460  216.7800 C   0  0  0  0  0  0  0  0  0  0  0  0
  145.4820   68.0380  217.0850 C   0  0  0  0  0  0  0  0  0  0  0  0
  145.6010   67.7460  218.5920 C   0  0  0  0  0  0  0  0  0  0  0  0
  146.3130   68.8920  219.3220 C   0  0  0  0  0  0  0  0  0  0  0  0
  145.5910   70.1760  219.1990 N   0  0  0  0  0  0  0  0  0  0  0  0
  141.6260   71.9360  221.3990 N   0  0  0  0  0  0  0  0  0  0  0  0
  140.8110   72.5170  222.3190 C   0  0  0  0  0  0  0  0  0  0  0  0
  140.1490   71.7110  223.3170 N   0  0  0  0  0  0  0  0  0  0  0  0
  139.0810   70.7860  222.8840 C   0  0  0  0  0  0  0  0  0  0  0  0
  138.2840   70.2020  224.0580 C   0  0  0  0  0  0  0  0  0  0  0  0
  139.2100   69.7360  225.1390 C   0  0  0  0  0  0  0  0  0  0  0  0
  138.9550   68.5540  225.8530 C   0  0  0  0  0  0  0  0  0  0  0  0
  139.8060   68.1670  226.8950 C   0  0  0  0  0  0  0  0  0  0  0  0
  140.8980   68.9700  227.2410 C   0  0  0  0  0  0  0  0  0  0  0  0
  141.1500   70.1540  226.5410 C   0  0  0  0  0  0  0  0  0  0  0  0
  140.3120   70.5380  225.4810 C   0  0  0  0  0  0  0  0  0  0  0  0
  140.5520   71.8220  224.7340 C   0  0  0  0  0  0  0  0  0  0  0  0
  140.6490   73.8690  222.3040 N   0  0  0  0  0  0  0  0  0  0  0  0
  140.8810   76.7680  222.7020 C   0  0  0  0  0  0  0  0  0  0  0  0
  142.5498   81.9269  222.6415 H   0  0  0  0  0  0  0  0  0  0  0  0
  141.8230   80.8517  224.7752 H   0  0  0  0  0  0  0  0  0  0  0  0
  141.0728   78.4758  224.7898 H   0  0  0  0  0  0  0  0  0  0  0  0
  142.4911   80.6384  220.5081 H   0  0  0  0  0  0  0  0  0  0  0  0
  141.4607   78.7090  219.3243 H   0  0  0  0  0  0  0  0  0  0  0  0
  142.7931   77.6753  219.9817 H   0  0  0  0  0  0  0  0  0  0  0  0
  139.7833   77.1953  220.1990 H   0  0  0  0  0  0  0  0  0  0  0  0
  140.9887   76.2045  219.3177 H   0  0  0  0  0  0  0  0  0  0  0  0
  142.7096   74.6846  219.7490 H   0  0  0  0  0  0  0  0  0  0  0  0
  143.8680   71.3180  219.9400 H   0  0  0  0  0  0  0  0  0  0  0  0
  142.5157   72.1546  217.5611 H   0  0  0  0  0  0  0  0  0  0  0  0
  143.4873   73.5447  218.1655 H   0  0  0  0  0  0  0  0  0  0  0  0
  144.6313   71.9085  216.5003 H   0  0  0  0  0  0  0  0  0  0  0  0
  145.5181   72.3417  218.0279 H   0  0  0  0  0  0  0  0  0  0  0  0
  143.7898   69.8992  218.1559 H   0  0  0  0  0  0  0  0  0  0  0  0
  144.7847   69.6998  215.8847 H   0  0  0  0  0  0  0  0  0  0  0  0
  146.4258   69.9204  216.6134 H   0  0  0  0  0  0  0  0  0  0  0  0
  144.5711   67.5540  216.7029 H   0  0  0  0  0  0  0  0  0  0  0  0
  146.3852   67.6441  216.5961 H   0  0  0  0  0  0  0  0  0  0  0  0
  144.5930   67.6221  219.0146 H   0  0  0  0  0  0  0  0  0  0  0  0
  146.1913   66.8273  218.7243 H   0  0  0  0  0  0  0  0  0  0  0  0
  146.3952   68.6341  220.3882 H   0  0  0  0  0  0  0  0  0  0  0  0
  147.3029   69.0193  218.8595 H   0  0  0  0  0  0  0  0  0  0  0  0
  144.9530   70.2710  220.0190 H   0  0  0  0  0  0  0  0  0  0  0  0
  138.3884   71.3326  222.2271 H   0  0  0  0  0  0  0  0  0  0  0  0
  139.5634   69.9461  222.3625 H   0  0  0  0  0  0  0  0  0  0  0  0
  137.6154   70.9761  224.4626 H   0  0  0  0  0  0  0  0  0  0  0  0
  137.6964   69.3445  223.6982 H   0  0  0  0  0  0  0  0  0  0  0  0
  138.0859   67.9317  225.5933 H   0  0  0  0  0  0  0  0  0  0  0  0
  139.6160   67.2316  227.4417 H   0  0  0  0  0  0  0  0  0  0  0  0
  141.5603   68.6692  228.0661 H   0  0  0  0  0  0  0  0  0  0  0  0
  142.0059   70.7858  226.8209 H   0  0  0  0  0  0  0  0  0  0  0  0
  139.9695   72.6253  225.2088 H   0  0  0  0  0  0  0  0  0  0  0  0
  141.6288   72.0438  224.7688 H   0  0  0  0  0  0  0  0  0  0  0  0
  139.8060   76.7646  222.9351 H   0  0  0  0  0  0  0  0  0  0  0  0
  141.4534   76.2340  223.4748 H   0  0  0  0  0  0  0  0  0  0  0  0
  1  2  2  0
  2  3  1  0
  3  4  2  0
  4  5  1  0
  5  6  2  0
  5  7  1  0
  7  8  1  0
  8  9  1  0
  9 10  1  0
 10 11  2  0
 11 12  1  0
 12 13  1  0
 13 14  1  0
 14 15  1  0
 15 16  1  0
 16 17  1  0
 17 18  1  0
 18 19  1  0
 19 20  1  0
 20 21  1  0
 12 22  2  0
 22 23  1  0
 23 24  1  0
 24 25  1  0
 25 26  1  0
 26 27  1  0
 27 28  2  0
 28 29  1  0
 29 30  2  0
 30 31  1  0
 31 32  2  0
 32 33  1  0
 23 34  2  0
  9 35  1  0
  6  1  1  0
 34 10  1  0
 35  4  1  0
 21 16  1  0
 33 24  1  0
 32 27  1  0
  1 36  1  0
  2 37  1  0
  3 38  1  0
  6 39  1  0
  7 40  1  0
  7 41  1  0
  8 42  1  0
  8 43  1  0
 11 44  1  0
 13 45  1  0
 14 46  1  0
 14 47  1  0
 15 48  1  0
 15 49  1  0
 16 50  1  1
 17 51  1  0
 17 52  1  0
 18 53  1  0
 18 54  1  0
 19 55  1  0
 19 56  1  0
 20 57  1  0
 20 58  1  0
 21 59  1  0
 25 60  1  0
 25 61  1  0
 26 62  1  0
 26 63  1  0
 28 64  1  0
 29 65  1  0
 30 66  1  0
 31 67  1  0
 33 68  1  0
 33 69  1  0
 35 70  1  0
 35 71  1  0
M  END
>  <UniqueID>  (74) 
588

>  <SMILES>  (74) 
c1ccc2c(c1)CCN(c1cc(NCC[C@H]3CCCCN3)nc(N3CCc4ccccc4C3)n1)C2

>  <Energy>  (74) 
87.22047786587387

>  <Genealogy>  (74) 
c1ccc2c(c1)CCN(c1cc(NCC[C@H]3CCCCN3)nc(N3CCc4ccccc4C3)n1)C2 (chirality)
c1ccc2c(c1)CCN(c1cc(NCC[C@H]3CCCCN3)nc(N3CCc4ccccc4C3)n1)C2 (3D coordinates assigned)
c1ccc2c(c1)CCN(c1cc(NCC[C@H]3CCCCN3)nc(N3CCc4ccccc4C3)n1)C2 (nonaromatic ring conformer: 87.22047786587387 kcal/mol)

>  <smiles>  (74) 
c1ccc2c(c1)CCN(c1cc(NCCC3CCCCN3)nc(N3CCc4ccccc4C3)n1)C2

>  <score_type>  (74) 
oracle

>  <origin>  (74) 
autodockgpu

>  <m_score__min__energy>  (74) 
-10.380000000000001

>  <m_primary>  (74) 
energy

>  <meeko>  (74) 
{"free_energy": -9.49, "intermolecular_energy": -11.28, "internal_energy": -1.43, "cluster_size": 8, "cluster_id": 1, "rank_in_cluster": 6}

>  <energy>  (74) 
-7.96

>  <cluster_rmsd>  (74) 
1.55

>  <rmsd>  (74) 
269.17

>  <cluster>  (74) 
4

$$$$
VOUYAFWJUZHTKY-RNPWZEQVNA-N
     RDKit          3D

 71 76  0  0  0  0  0  0  0  0999 V2000
  146.1220   70.0810  216.9610 C   0  0  0  0  0  0  0  0  0  0  0  0
  146.0000   69.2680  218.0930 C   0  0  0  0  0  0  0  0  0  0  0  0
  145.3110   69.7300  219.2170 C   0  0  0  0  0  0  0  0  0  0  0  0
  144.7340   71.0070  219.2210 C   0  0  0  0  0  0  0  0  0  0  0  0
  144.8840   71.8440  218.0880 C   0  0  0  0  0  0  0  0  0  0  0  0
  145.5690   71.3630  216.9560 C   0  0  0  0  0  0  0  0  0  0  0  0
  144.2490   73.2120  218.0370 C   0  0  0  0  0  0  0  0  0  0  0  0
  144.0170   73.7680  219.4410 C   0  0  0  0  0  0  0  0  0  0  0  0
  143.3280   72.7550  220.2450 N   0  0  0  0  0  0  0  0  0  0  0  0
  142.1510   73.0760  221.0130 C   0  0  0  0  0  0  0  0  0  0  0  0
  141.4920   74.2990  220.8420 C   0  0  0  0  0  0  0  0  0  0  0  0
  140.3520   74.5660  221.6150 C   0  0  0  0  0  0  0  0  0  0  0  0
  139.6340   75.8040  221.5000 N   0  0  0  0  0  0  0  0  0  0  0  0
  140.1310   76.9520  220.7350 C   0  0  0  0  0  0  0  0  0  0  0  0
  141.4400   77.4700  221.3540 C   0  0  0  0  0  0  0  0  0  0  0  0
  141.3010   78.8960  221.9190 C   0  0  1  0  0  0  0  0  0  0  0  0
  140.2090   78.9220  223.0110 C   0  0  0  0  0  0  0  0  0  0  0  0
  139.9930   80.3510  223.5460 C   0  0  0  0  0  0  0  0  0  0  0  0
  141.2570   81.2220  223.4340 C   0  0  0  0  0  0  0  0  0  0  0  0
  142.5270   80.3660  223.5210 C   0  0  0  0  0  0  0  0  0  0  0  0
  142.6090   79.3630  222.4380 N   0  0  0  0  0  0  0  0  0  0  0  0
  139.9060   73.6240  222.4880 N   0  0  0  0  0  0  0  0  0  0  0  0
  140.5270   72.4230  222.6240 C   0  0  0  0  0  0  0  0  0  0  0  0
  139.9920   71.4230  223.5180 N   0  0  0  0  0  0  0  0  0  0  0  0
  139.1940   70.3190  222.9470 C   0  0  0  0  0  0  0  0  0  0  0  0
  138.4660   69.4930  224.0170 C   0  0  0  0  0  0  0  0  0  0  0  0
  139.3910   69.1690  225.1480 C   0  0  0  0  0  0  0  0  0  0  0  0
  139.3570   67.9130  225.7760 C   0  0  0  0  0  0  0  0  0  0  0  0
  140.1960   67.6520  226.8660 C   0  0  0  0  0  0  0  0  0  0  0  0
  141.0510   68.6500  227.3460 C   0  0  0  0  0  0  0  0  0  0  0  0
  141.0800   69.9050  226.7330 C   0  0  0  0  0  0  0  0  0  0  0  0
  140.2570   70.1690  225.6250 C   0  0  0  0  0  0  0  0  0  0  0  0
  140.2560   71.5230  224.9680 C   0  0  0  0  0  0  0  0  0  0  0  0
  141.6420   72.1640  221.8860 N   0  0  0  0  0  0  0  0  0  0  0  0
  144.0210   71.4820  220.4690 C   0  0  0  0  0  0  0  0  0  0  0  0
  146.6546   69.7095  216.0732 H   0  0  0  0  0  0  0  0  0  0  0  0
  146.4474   68.2631  218.0980 H   0  0  0  0  0  0  0  0  0  0  0  0
  145.2208   69.0870  220.1049 H   0  0  0  0  0  0  0  0  0  0  0  0
  145.6689   71.9995  216.0644 H   0  0  0  0  0  0  0  0  0  0  0  0
  144.9124   73.8949  217.4861 H   0  0  0  0  0  0  0  0  0  0  0  0
  143.2754   73.1247  217.5325 H   0  0  0  0  0  0  0  0  0  0  0  0
  144.9835   74.0132  219.9054 H   0  0  0  0  0  0  0  0  0  0  0  0
  143.4035   74.6792  219.3842 H   0  0  0  0  0  0  0  0  0  0  0  0
  141.8612   75.0373  220.1149 H   0  0  0  0  0  0  0  0  0  0  0  0
  138.6200   75.8060  221.7550 H   0  0  0  0  0  0  0  0  0  0  0  0
  140.3165   76.6441  219.6954 H   0  0  0  0  0  0  0  0  0  0  0  0
  139.3786   77.7541  220.7581 H   0  0  0  0  0  0  0  0  0  0  0  0
  141.7359   76.7944  222.1701 H   0  0  0  0  0  0  0  0  0  0  0  0
  142.1983   77.4983  220.5576 H   0  0  0  0  0  0  0  0  0  0  0  0
  140.9932   79.5849  221.1186 H   0  0  0  0  0  0  0  0  0  0  0  0
  139.2652   78.5518  222.5841 H   0  0  0  0  0  0  0  0  0  0  0  0
  140.5336   78.2822  223.8448 H   0  0  0  0  0  0  0  0  0  0  0  0
  139.1860   80.8253  222.9683 H   0  0  0  0  0  0  0  0  0  0  0  0
  139.7360   80.2722  224.6127 H   0  0  0  0  0  0  0  0  0  0  0  0
  141.2451   81.7501  222.4691 H   0  0  0  0  0  0  0  0  0  0  0  0
  141.2617   81.9398  224.2675 H   0  0  0  0  0  0  0  0  0  0  0  0
  143.4034   81.0276  223.4562 H   0  0  0  0  0  0  0  0  0  0  0  0
  142.4995   79.8235  224.4775 H   0  0  0  0  0  0  0  0  0  0  0  0
  143.1460   79.7820  221.6470 H   0  0  0  0  0  0  0  0  0  0  0  0
  138.4454   70.7445  222.2624 H   0  0  0  0  0  0  0  0  0  0  0  0
  139.8890   69.6446  222.4253 H   0  0  0  0  0  0  0  0  0  0  0  0
  137.6124   70.0705  224.4015 H   0  0  0  0  0  0  0  0  0  0  0  0
  138.1152   68.5540  223.5640 H   0  0  0  0  0  0  0  0  0  0  0  0
  138.6710   67.1343  225.4113 H   0  0  0  0  0  0  0  0  0  0  0  0
  140.1830   66.6619  227.3452 H   0  0  0  0  0  0  0  0  0  0  0  0
  141.7023   68.4459  228.2086 H   0  0  0  0  0  0  0  0  0  0  0  0
  141.7488   70.6886  227.1187 H   0  0  0  0  0  0  0  0  0  0  0  0
  139.4751   72.1441  225.4311 H   0  0  0  0  0  0  0  0  0  0  0  0
  141.2497   71.9738  225.1068 H   0  0  0  0  0  0  0  0  0  0  0  0
  144.7597   71.6147  221.2732 H   0  0  0  0  0  0  0  0  0  0  0  0
  143.2707   70.7263  220.7446 H   0  0  0  0  0  0  0  0  0  0  0  0
  1  2  2  0
  2  3  1  0
  3  4  2  0
  4  5  1  0
  5  6  2  0
  5  7  1  0
  7  8  1  0
  8  9  1  0
  9 10  1  0
 10 11  2  0
 11 12  1  0
 12 13  1  0
 13 14  1  0
 14 15  1  0
 15 16  1  0
 16 17  1  0
 17 18  1  0
 18 19  1  0
 19 20  1  0
 20 21  1  0
 12 22  2  0
 22 23  1  0
 23 24  1  0
 24 25  1  0
 25 26  1  0
 26 27  1  0
 27 28  2  0
 28 29  1  0
 29 30  2  0
 30 31  1  0
 31 32  2  0
 32 33  1  0
 23 34  2  0
  9 35  1  0
  6  1  1  0
 34 10  1  0
 35  4  1  0
 21 16  1  0
 33 24  1  0
 32 27  1  0
  1 36  1  0
  2 37  1  0
  3 38  1  0
  6 39  1  0
  7 40  1  0
  7 41  1  0
  8 42  1  0
  8 43  1  0
 11 44  1  0
 13 45  1  0
 14 46  1  0
 14 47  1  0
 15 48  1  0
 15 49  1  0
 16 50  1  6
 17 51  1  0
 17 52  1  0
 18 53  1  0
 18 54  1  0
 19 55  1  0
 19 56  1  0
 20 57  1  0
 20 58  1  0
 21 59  1  0
 25 60  1  0
 25 61  1  0
 26 62  1  0
 26 63  1  0
 28 64  1  0
 29 65  1  0
 30 66  1  0
 31 67  1  0
 33 68  1  0
 33 69  1  0
 35 70  1  0
 35 71  1  0
M  END
>  <UniqueID>  (75) 
588

>  <SMILES>  (75) 
c1ccc2c(c1)CCN(c1cc(NCC[C@H]3CCCCN3)nc(N3CCc4ccccc4C3)n1)C2

>  <Energy>  (75) 
87.22047786587387

>  <Genealogy>  (75) 
c1ccc2c(c1)CCN(c1cc(NCC[C@H]3CCCCN3)nc(N3CCc4ccccc4C3)n1)C2 (chirality)
c1ccc2c(c1)CCN(c1cc(NCC[C@H]3CCCCN3)nc(N3CCc4ccccc4C3)n1)C2 (3D coordinates assigned)
c1ccc2c(c1)CCN(c1cc(NCC[C@H]3CCCCN3)nc(N3CCc4ccccc4C3)n1)C2 (nonaromatic ring conformer: 87.22047786587387 kcal/mol)

>  <smiles>  (75) 
c1ccc2c(c1)CCN(c1cc(NCCC3CCCCN3)nc(N3CCc4ccccc4C3)n1)C2

>  <score_type>  (75) 
oracle

>  <origin>  (75) 
autodockgpu

>  <m_score__min__energy>  (75) 
-10.380000000000001

>  <m_primary>  (75) 
energy

>  <meeko>  (75) 
{"free_energy": -9.9, "intermolecular_energy": -11.69, "internal_energy": -0.93, "cluster_size": 1, "cluster_id": 3, "rank_in_cluster": 1}

>  <energy>  (75) 
-9.12

>  <cluster_rmsd>  (75) 
0.0

>  <rmsd>  (75) 
269.48

>  <cluster>  (75) 
5

$$$$
VOUYAFWJUZHTKY-RNPWZEQVNA-N
     RDKit          3D

 71 76  0  0  0  0  0  0  0  0999 V2000
  138.2640   80.2110  223.9750 C   0  0  0  0  0  0  0  0  0  0  0  0
  137.1390   79.5270  223.5030 C   0  0  0  0  0  0  0  0  0  0  0  0
  137.2910   78.3510  222.7650 C   0  0  0  0  0  0  0  0  0  0  0  0
  138.5690   77.8440  222.4940 C   0  0  0  0  0  0  0  0  0  0  0  0
  139.7110   78.5510  222.9430 C   0  0  0  0  0  0  0  0  0  0  0  0
  139.5450   79.7290  223.6980 C   0  0  0  0  0  0  0  0  0  0  0  0
  141.1040   78.0220  222.7040 C   0  0  0  0  0  0  0  0  0  0  0  0
  141.1420   77.0900  221.4940 C   0  0  0  0  0  0  0  0  0  0  0  0
  140.0760   76.0930  221.6290 N   0  0  0  0  0  0  0  0  0  0  0  0
  140.3350   74.6860  221.4570 C   0  0  0  0  0  0  0  0  0  0  0  0
  141.0450   74.2160  220.3460 C   0  0  0  0  0  0  0  0  0  0  0  0
  141.2700   72.8360  220.2220 C   0  0  0  0  0  0  0  0  0  0  0  0
  141.9790   72.2840  219.1020 N   0  0  0  0  0  0  0  0  0  0  0  0
  142.0710   72.9530  217.8010 C   0  0  0  0  0  0  0  0  0  0  0  0
  143.0150   74.1630  217.8960 C   0  0  0  0  0  0  0  0  0  0  0  0
  144.3200   73.8340  218.6460 C   0  0  1  0  0  0  0  0  0  0  0  0
  144.2440   74.3740  220.0900 C   0  0  0  0  0  0  0  0  0  0  0  0
  145.5640   74.1250  220.8460 C   0  0  0  0  0  0  0  0  0  0  0  0
  146.3220   72.8920  220.3220 C   0  0  0  0  0  0  0  0  0  0  0  0
  145.3520   71.8490  219.7530 C   0  0  0  0  0  0  0  0  0  0  0  0
  144.5630   72.3710  218.6170 N   0  0  0  0  0  0  0  0  0  0  0  0
  140.8150   71.9990  221.1910 N   0  0  0  0  0  0  0  0  0  0  0  0
  140.1590   72.4640  222.2880 C   0  0  0  0  0  0  0  0  0  0  0  0
  139.7410   71.5530  223.3270 N   0  0  0  0  0  0  0  0  0  0  0  0
  138.5770   70.6780  223.0730 C   0  0  0  0  0  0  0  0  0  0  0  0
  138.0770   69.9680  224.3380 C   0  0  0  0  0  0  0  0  0  0  0  0
  139.2270   69.3900  225.1040 C   0  0  0  0  0  0  0  0  0  0  0  0
  139.1250   68.1370  225.7300 C   0  0  0  0  0  0  0  0  0  0  0  0
  140.1950   67.6410  226.4840 C   0  0  0  0  0  0  0  0  0  0  0  0
  141.3580   68.4050  226.6350 C   0  0  0  0  0  0  0  0  0  0  0  0
  141.4600   69.6580  226.0240 C   0  0  0  0  0  0  0  0  0  0  0  0
  140.3980   70.1530  225.2480 C   0  0  0  0  0  0  0  0  0  0  0  0
  140.4800   71.5110  224.6050 C   0  0  0  0  0  0  0  0  0  0  0  0
  139.9260   73.8010  222.4060 N   0  0  0  0  0  0  0  0  0  0  0  0
  138.6940   76.5820  221.6670 C   0  0  0  0  0  0  0  0  0  0  0  0
  138.1394   81.1306  224.5657 H   0  0  0  0  0  0  0  0  0  0  0  0
  136.1320   79.9162  223.7136 H   0  0  0  0  0  0  0  0  0  0  0  0
  136.4021   77.8195  222.3942 H   0  0  0  0  0  0  0  0  0  0  0  0
  140.4271   80.2706  224.0703 H   0  0  0  0  0  0  0  0  0  0  0  0
  141.7835   78.8686  222.5261 H   0  0  0  0  0  0  0  0  0  0  0  0
  141.4170   77.4527  223.5916 H   0  0  0  0  0  0  0  0  0  0  0  0
  140.9880   77.6729  220.5739 H   0  0  0  0  0  0  0  0  0  0  0  0
  142.1187   76.5866  221.4418 H   0  0  0  0  0  0  0  0  0  0  0  0
  141.4198   74.9153  219.5840 H   0  0  0  0  0  0  0  0  0  0  0  0
  142.6580   71.5100  219.2880 H   0  0  0  0  0  0  0  0  0  0  0  0
  142.4604   72.2452  217.0544 H   0  0  0  0  0  0  0  0  0  0  0  0
  141.0705   73.2989  217.5019 H   0  0  0  0  0  0  0  0  0  0  0  0
  143.2670   74.4950  216.8780 H   0  0  0  0  0  0  0  0  0  0  0  0
  142.4940   74.9506  218.4601 H   0  0  0  0  0  0  0  0  0  0  0  0
  145.1695   74.3245  218.1482 H   0  0  0  0  0  0  0  0  0  0  0  0
  144.0463   75.4556  220.0591 H   0  0  0  0  0  0  0  0  0  0  0  0
  143.4348   73.8479  220.6175 H   0  0  0  0  0  0  0  0  0  0  0  0
  146.2079   75.0095  220.7315 H   0  0  0  0  0  0  0  0  0  0  0  0
  145.3141   73.9393  221.9010 H   0  0  0  0  0  0  0  0  0  0  0  0
  147.0164   73.2071  219.5293 H   0  0  0  0  0  0  0  0  0  0  0  0
  146.8721   72.4378  221.1593 H   0  0  0  0  0  0  0  0  0  0  0  0
  145.9309   70.9787  219.4103 H   0  0  0  0  0  0  0  0  0  0  0  0
  144.6474   71.5762  220.5524 H   0  0  0  0  0  0  0  0  0  0  0  0
  145.0690   72.1390  217.7340 H   0  0  0  0  0  0  0  0  0  0  0  0
  137.7586   71.2912  222.6679 H   0  0  0  0  0  0  0  0  0  0  0  0
  138.8965   69.9012  222.3627 H   0  0  0  0  0  0  0  0  0  0  0  0
  137.5460   70.6919  224.9736 H   0  0  0  0  0  0  0  0  0  0  0  0
  137.3994   69.1528  224.0443 H   0  0  0  0  0  0  0  0  0  0  0  0
  138.2036   67.5449  225.6277 H   0  0  0  0  0  0  0  0  0  0  0  0
  140.1219   66.6510  226.9578 H   0  0  0  0  0  0  0  0  0  0  0  0
  142.1941   68.0183  227.2362 H   0  0  0  0  0  0  0  0  0  0  0  0
  142.3733   70.2578  226.1508 H   0  0  0  0  0  0  0  0  0  0  0  0
  140.0508   72.2569  225.2902 H   0  0  0  0  0  0  0  0  0  0  0  0
  141.5379   71.7303  224.3981 H   0  0  0  0  0  0  0  0  0  0  0  0
  138.3627   76.7946  220.6399 H   0  0  0  0  0  0  0  0  0  0  0  0
  138.0680   75.8051  222.1303 H   0  0  0  0  0  0  0  0  0  0  0  0
  1  2  2  0
  2  3  1  0
  3  4  2  0
  4  5  1  0
  5  6  2  0
  5  7  1  0
  7  8  1  0
  8  9  1  0
  9 10  1  0
 10 11  2  0
 11 12  1  0
 12 13  1  0
 13 14  1  0
 14 15  1  0
 15 16  1  0
 16 17  1  0
 17 18  1  0
 18 19  1  0
 19 20  1  0
 20 21  1  0
 12 22  2  0
 22 23  1  0
 23 24  1  0
 24 25  1  0
 25 26  1  0
 26 27  1  0
 27 28  2  0
 28 29  1  0
 29 30  2  0
 30 31  1  0
 31 32  2  0
 32 33  1  0
 23 34  2  0
  9 35  1  0
  6  1  1  0
 34 10  1  0
 35  4  1  0
 21 16  1  0
 33 24  1  0
 32 27  1  0
  1 36  1  0
  2 37  1  0
  3 38  1  0
  6 39  1  0
  7 40  1  0
  7 41  1  0
  8 42  1  0
  8 43  1  0
 11 44  1  0
 13 45  1  0
 14 46  1  0
 14 47  1  0
 15 48  1  0
 15 49  1  0
 16 50  1  6
 17 51  1  0
 17 52  1  0
 18 53  1  0
 18 54  1  0
 19 55  1  0
 19 56  1  0
 20 57  1  0
 20 58  1  0
 21 59  1  0
 25 60  1  0
 25 61  1  0
 26 62  1  0
 26 63  1  0
 28 64  1  0
 29 65  1  0
 30 66  1  0
 31 67  1  0
 33 68  1  0
 33 69  1  0
 35 70  1  0
 35 71  1  0
M  END
>  <UniqueID>  (76) 
588

>  <SMILES>  (76) 
c1ccc2c(c1)CCN(c1cc(NCC[C@H]3CCCCN3)nc(N3CCc4ccccc4C3)n1)C2

>  <Energy>  (76) 
87.22047786587387

>  <Genealogy>  (76) 
c1ccc2c(c1)CCN(c1cc(NCC[C@H]3CCCCN3)nc(N3CCc4ccccc4C3)n1)C2 (chirality)
c1ccc2c(c1)CCN(c1cc(NCC[C@H]3CCCCN3)nc(N3CCc4ccccc4C3)n1)C2 (3D coordinates assigned)
c1ccc2c(c1)CCN(c1cc(NCC[C@H]3CCCCN3)nc(N3CCc4ccccc4C3)n1)C2 (nonaromatic ring conformer: 87.22047786587387 kcal/mol)

>  <smiles>  (76) 
c1ccc2c(c1)CCN(c1cc(NCCC3CCCCN3)nc(N3CCc4ccccc4C3)n1)C2

>  <score_type>  (76) 
oracle

>  <origin>  (76) 
autodockgpu

>  <m_score__min__energy>  (76) 
-10.380000000000001

>  <m_primary>  (76) 
energy

>  <meeko>  (76) 
{"free_energy": -9.03, "intermolecular_energy": -10.82, "internal_energy": -1.75, "cluster_size": 5, "cluster_id": 5, "rank_in_cluster": 4}

>  <energy>  (76) 
-9.04

>  <cluster_rmsd>  (76) 
0.38

>  <rmsd>  (76) 
269.45

>  <cluster>  (76) 
5

$$$$
VOUYAFWJUZHTKY-RNPWZEQVNA-N
     RDKit          3D

 71 76  0  0  0  0  0  0  0  0999 V2000
  141.9440   81.0620  222.6260 C   0  0  0  0  0  0  0  0  0  0  0  0
  141.7520   80.3900  223.8380 C   0  0  0  0  0  0  0  0  0  0  0  0
  141.4490   79.0260  223.8440 C   0  0  0  0  0  0  0  0  0  0  0  0
  141.3390   78.3190  222.6390 C   0  0  0  0  0  0  0  0  0  0  0  0
  141.5010   79.0030  221.4100 C   0  0  0  0  0  0  0  0  0  0  0  0
  141.8190   80.3750  221.4170 C   0  0  0  0  0  0  0  0  0  0  0  0
  141.4250   78.2730  220.0920 C   0  0  0  0  0  0  0  0  0  0  0  0
  140.5980   76.9940  220.2140 C   0  0  0  0  0  0  0  0  0  0  0  0
  141.0820   76.2240  221.3640 N   0  0  0  0  0  0  0  0  0  0  0  0
  141.3870   74.8200  221.2540 C   0  0  0  0  0  0  0  0  0  0  0  0
  142.3890   74.3670  220.3880 C   0  0  0  0  0  0  0  0  0  0  0  0
  142.6480   72.9890  220.3150 C   0  0  0  0  0  0  0  0  0  0  0  0
  143.6530   72.4550  219.4400 N   0  0  0  0  0  0  0  0  0  0  0  0
  144.8050   71.6840  219.9170 C   0  0  0  0  0  0  0  0  0  0  0  0
  145.4330   70.9000  218.7520 C   0  0  0  0  0  0  0  0  0  0  0  0
  144.8570   69.4780  218.6220 C   0  0  1  0  0  0  0  0  0  0  0  0
  145.7680   68.4740  219.3590 C   0  0  0  0  0  0  0  0  0  0  0  0
  145.2590   67.0300  219.1860 C   0  0  0  0  0  0  0  0  0  0  0  0
  143.7370   66.9620  218.9700 C   0  0  0  0  0  0  0  0  0  0  0  0
  143.0280   68.1340  219.6610 C   0  0  0  0  0  0  0  0  0  0  0  0
  143.4680   69.4460  219.1430 N   0  0  0  0  0  0  0  0  0  0  0  0
  141.9370   72.1380  221.1010 N   0  0  0  0  0  0  0  0  0  0  0  0
  140.9910   72.5860  221.9680 C   0  0  0  0  0  0  0  0  0  0  0  0
  140.2960   71.6590  222.8300 N   0  0  0  0  0  0  0  0  0  0  0  0
  139.5570   70.5380  222.2120 C   0  0  0  0  0  0  0  0  0  0  0  0
  138.6510   69.8000  223.2070 C   0  0  0  0  0  0  0  0  0  0  0  0
  139.3850   69.5280  224.4830 C   0  0  0  0  0  0  0  0  0  0  0  0
  139.2170   68.3170  225.1730 C   0  0  0  0  0  0  0  0  0  0  0  0
  139.8740   68.1070  226.3910 C   0  0  0  0  0  0  0  0  0  0  0  0
  140.6790   69.1140  226.9340 C   0  0  0  0  0  0  0  0  0  0  0  0
  140.8400   70.3260  226.2580 C   0  0  0  0  0  0  0  0  0  0  0  0
  140.2010   70.5370  225.0240 C   0  0  0  0  0  0  0  0  0  0  0  0
  140.3420   71.8450  224.2950 C   0  0  0  0  0  0  0  0  0  0  0  0
  140.7260   73.9200  222.0330 N   0  0  0  0  0  0  0  0  0  0  0  0
  140.9810   76.8490  222.6870 C   0  0  0  0  0  0  0  0  0  0  0  0
  142.1938   82.1333  222.6256 H   0  0  0  0  0  0  0  0  0  0  0  0
  141.8398   80.9368  224.7884 H   0  0  0  0  0  0  0  0  0  0  0  0
  141.2959   78.5041  224.8001 H   0  0  0  0  0  0  0  0  0  0  0  0
  141.9695   80.9074  220.4663 H   0  0  0  0  0  0  0  0  0  0  0  0
  140.9591   78.9312  219.3439 H   0  0  0  0  0  0  0  0  0  0  0  0
  142.4457   77.9993  219.7868 H   0  0  0  0  0  0  0  0  0  0  0  0
  139.5388   77.2517  220.3614 H   0  0  0  0  0  0  0  0  0  0  0  0
  140.6982   76.3962  219.2961 H   0  0  0  0  0  0  0  0  0  0  0  0
  142.9632   75.0778  219.7756 H   0  0  0  0  0  0  0  0  0  0  0  0
  143.4310   72.3960  218.4200 H   0  0  0  0  0  0  0  0  0  0  0  0
  145.5534   72.3709  220.3390 H   0  0  0  0  0  0  0  0  0  0  0  0
  144.4704   70.9760  220.6895 H   0  0  0  0  0  0  0  0  0  0  0  0
  145.2420   71.4452  217.8159 H   0  0  0  0  0  0  0  0  0  0  0  0
  146.5106   70.8078  218.9527 H   0  0  0  0  0  0  0  0  0  0  0  0
  144.8240   69.1862  217.5619 H   0  0  0  0  0  0  0  0  0  0  0  0
  146.7867   68.5469  218.9505 H   0  0  0  0  0  0  0  0  0  0  0  0
  145.7620   68.7197  220.4312 H   0  0  0  0  0  0  0  0  0  0  0  0
  145.7590   66.5820  218.3146 H   0  0  0  0  0  0  0  0  0  0  0  0
  145.4894   66.4820  220.1115 H   0  0  0  0  0  0  0  0  0  0  0  0
  143.5252   66.9997  217.8912 H   0  0  0  0  0  0  0  0  0  0  0  0
  143.3641   66.0229  219.4047 H   0  0  0  0  0  0  0  0  0  0  0  0
  141.9445   68.0360  219.4987 H   0  0  0  0  0  0  0  0  0  0  0  0
  143.2819   68.0946  220.7306 H   0  0  0  0  0  0  0  0  0  0  0  0
  142.8220   69.7260  218.3730 H   0  0  0  0  0  0  0  0  0  0  0  0
  138.9336   70.9352  221.3974 H   0  0  0  0  0  0  0  0  0  0  0  0
  140.3002   69.8157  221.8434 H   0  0  0  0  0  0  0  0  0  0  0  0
  137.7687   70.4207  223.4222 H   0  0  0  0  0  0  0  0  0  0  0  0
  138.3419   68.8420  222.7635 H   0  0  0  0  0  0  0  0  0  0  0  0
  138.5684   67.5324  224.7561 H   0  0  0  0  0  0  0  0  0  0  0  0
  139.7573   67.1503  226.9211 H   0  0  0  0  0  0  0  0  0  0  0  0
  141.1868   68.9511  227.8961 H   0  0  0  0  0  0  0  0  0  0  0  0
  141.4685   71.1172  226.6926 H   0  0  0  0  0  0  0  0  0  0  0  0
  139.5206   72.5118  224.5961 H   0  0  0  0  0  0  0  0  0  0  0  0
  141.3177   72.2808  224.5560 H   0  0  0  0  0  0  0  0  0  0  0  0
  139.9489   76.7450  223.0528 H   0  0  0  0  0  0  0  0  0  0  0  0
  141.6898   76.3446  223.3602 H   0  0  0  0  0  0  0  0  0  0  0  0
  1  2  2  0
  2  3  1  0
  3  4  2  0
  4  5  1  0
  5  6  2  0
  5  7  1  0
  7  8  1  0
  8  9  1  0
  9 10  1  0
 10 11  2  0
 11 12  1  0
 12 13  1  0
 13 14  1  0
 14 15  1  0
 15 16  1  0
 16 17  1  0
 17 18  1  0
 18 19  1  0
 19 20  1  0
 20 21  1  0
 12 22  2  0
 22 23  1  0
 23 24  1  0
 24 25  1  0
 25 26  1  0
 26 27  1  0
 27 28  2  0
 28 29  1  0
 29 30  2  0
 30 31  1  0
 31 32  2  0
 32 33  1  0
 23 34  2  0
  9 35  1  0
  6  1  1  0
 34 10  1  0
 35  4  1  0
 21 16  1  0
 33 24  1  0
 32 27  1  0
  1 36  1  0
  2 37  1  0
  3 38  1  0
  6 39  1  0
  7 40  1  0
  7 41  1  0
  8 42  1  0
  8 43  1  0
 11 44  1  0
 13 45  1  0
 14 46  1  0
 14 47  1  0
 15 48  1  0
 15 49  1  0
 16 50  1  6
 17 51  1  0
 17 52  1  0
 18 53  1  0
 18 54  1  0
 19 55  1  0
 19 56  1  0
 20 57  1  0
 20 58  1  0
 21 59  1  0
 25 60  1  0
 25 61  1  0
 26 62  1  0
 26 63  1  0
 28 64  1  0
 29 65  1  0
 30 66  1  0
 31 67  1  0
 33 68  1  0
 33 69  1  0
 35 70  1  0
 35 71  1  0
M  END
>  <UniqueID>  (77) 
588

>  <SMILES>  (77) 
c1ccc2c(c1)CCN(c1cc(NCC[C@H]3CCCCN3)nc(N3CCc4ccccc4C3)n1)C2

>  <Energy>  (77) 
87.22047786587387

>  <Genealogy>  (77) 
c1ccc2c(c1)CCN(c1cc(NCC[C@H]3CCCCN3)nc(N3CCc4ccccc4C3)n1)C2 (chirality)
c1ccc2c(c1)CCN(c1cc(NCC[C@H]3CCCCN3)nc(N3CCc4ccccc4C3)n1)C2 (3D coordinates assigned)
c1ccc2c(c1)CCN(c1cc(NCC[C@H]3CCCCN3)nc(N3CCc4ccccc4C3)n1)C2 (nonaromatic ring conformer: 87.22047786587387 kcal/mol)

>  <smiles>  (77) 
c1ccc2c(c1)CCN(c1cc(NCCC3CCCCN3)nc(N3CCc4ccccc4C3)n1)C2

>  <score_type>  (77) 
oracle

>  <origin>  (77) 
autodockgpu

>  <m_score__min__energy>  (77) 
-10.380000000000001

>  <m_primary>  (77) 
energy

>  <meeko>  (77) 
{"free_energy": -9.7, "intermolecular_energy": -11.49, "internal_energy": -1.07, "cluster_size": 8, "cluster_id": 1, "rank_in_cluster": 3}

>  <energy>  (77) 
-9.03

>  <cluster_rmsd>  (77) 
0.29

>  <rmsd>  (77) 
269.5

>  <cluster>  (77) 
5

$$$$
VOUYAFWJUZHTKY-RNPWZEQVNA-N
     RDKit          3D

 71 76  0  0  0  0  0  0  0  0999 V2000
  139.5510   69.7840  228.3280 C   0  0  0  0  0  0  0  0  0  0  0  0
  140.6260   70.6790  228.3350 C   0  0  0  0  0  0  0  0  0  0  0  0
  141.0900   71.2290  227.1370 C   0  0  0  0  0  0  0  0  0  0  0  0
  140.4800   70.8940  225.9200 C   0  0  0  0  0  0  0  0  0  0  0  0
  139.4120   69.9640  225.9080 C   0  0  0  0  0  0  0  0  0  0  0  0
  138.9450   69.4260  227.1230 C   0  0  0  0  0  0  0  0  0  0  0  0
  138.7040   69.6020  224.6240 C   0  0  0  0  0  0  0  0  0  0  0  0
  139.6060   69.8310  223.4120 C   0  0  0  0  0  0  0  0  0  0  0  0
  140.1740   71.1800  223.4900 N   0  0  0  0  0  0  0  0  0  0  0  0
  140.1300   72.0810  222.3660 C   0  0  0  0  0  0  0  0  0  0  0  0
  140.2060   71.5990  221.0540 C   0  0  0  0  0  0  0  0  0  0  0  0
  140.1630   72.5170  219.9940 C   0  0  0  0  0  0  0  0  0  0  0  0
  140.2470   72.0930  218.6240 N   0  0  0  0  0  0  0  0  0  0  0  0
  141.4090   72.3600  217.7710 C   0  0  0  0  0  0  0  0  0  0  0  0
  142.6270   71.5700  218.2780 C   0  0  0  0  0  0  0  0  0  0  0  0
  143.4190   72.3350  219.3550 C   0  0  1  0  0  0  0  0  0  0  0  0
  144.9330   72.1930  219.0920 C   0  0  0  0  0  0  0  0  0  0  0  0
  145.7560   72.8880  220.1950 C   0  0  0  0  0  0  0  0  0  0  0  0
  145.0020   74.0620  220.8440 C   0  0  0  0  0  0  0  0  0  0  0  0
  144.0240   74.7060  219.8530 C   0  0  0  0  0  0  0  0  0  0  0  0
  142.9950   73.7570  219.3770 N   0  0  0  0  0  0  0  0  0  0  0  0
  140.0250   73.8410  220.2670 N   0  0  0  0  0  0  0  0  0  0  0  0
  139.9140   74.3010  221.5410 C   0  0  0  0  0  0  0  0  0  0  0  0
  139.7100   75.7090  221.7920 N   0  0  0  0  0  0  0  0  0  0  0  0
  138.4900   76.1290  222.5120 C   0  0  0  0  0  0  0  0  0  0  0  0
  138.2640   77.6460  222.4690 C   0  0  0  0  0  0  0  0  0  0  0  0
  139.5360   78.3740  222.7760 C   0  0  0  0  0  0  0  0  0  0  0  0
  139.5360   79.5370  223.5620 C   0  0  0  0  0  0  0  0  0  0  0  0
  140.7300   80.2290  223.7920 C   0  0  0  0  0  0  0  0  0  0  0  0
  141.9230   79.7760  223.2170 C   0  0  0  0  0  0  0  0  0  0  0  0
  141.9270   78.6250  222.4230 C   0  0  0  0  0  0  0  0  0  0  0  0
  140.7360   77.9130  222.2060 C   0  0  0  0  0  0  0  0  0  0  0  0
  140.7170   76.6880  221.3330 C   0  0  0  0  0  0  0  0  0  0  0  0
  139.9700   73.4160  222.5750 N   0  0  0  0  0  0  0  0  0  0  0  0
  141.0290   71.4880  224.6410 C   0  0  0  0  0  0  0  0  0  0  0  0
  139.1825   69.3615  229.2744 H   0  0  0  0  0  0  0  0  0  0  0  0
  141.1074   70.9506  229.2860 H   0  0  0  0  0  0  0  0  0  0  0  0
  141.9387   71.9287  227.1490 H   0  0  0  0  0  0  0  0  0  0  0  0
  138.1001   68.7216  227.1221 H   0  0  0  0  0  0  0  0  0  0  0  0
  138.4146   68.5414  224.6606 H   0  0  0  0  0  0  0  0  0  0  0  0
  137.8159   70.2432  224.5233 H   0  0  0  0  0  0  0  0  0  0  0  0
  140.4175   69.0884  223.4103 H   0  0  0  0  0  0  0  0  0  0  0  0
  139.0202   69.7266  222.4868 H   0  0  0  0  0  0  0  0  0  0  0  0
  140.2977   70.5205  220.8578 H   0  0  0  0  0  0  0  0  0  0  0  0
  139.5760   71.3600  218.2980 H   0  0  0  0  0  0  0  0  0  0  0  0
  141.1810   72.0550  216.7390 H   0  0  0  0  0  0  0  0  0  0  0  0
  141.6387   73.4353  217.8004 H   0  0  0  0  0  0  0  0  0  0  0  0
  142.2774   70.6189  218.7060 H   0  0  0  0  0  0  0  0  0  0  0  0
  143.2987   71.4056  217.4225 H   0  0  0  0  0  0  0  0  0  0  0  0
  143.2090   71.9066  220.3461 H   0  0  0  0  0  0  0  0  0  0  0  0
  145.1947   71.1249  219.0677 H   0  0  0  0  0  0  0  0  0  0  0  0
  145.1664   72.6705  218.1289 H   0  0  0  0  0  0  0  0  0  0  0  0
  145.9958   72.1494  220.9741 H   0  0  0  0  0  0  0  0  0  0  0  0
  146.6653   73.2935  219.7272 H   0  0  0  0  0  0  0  0  0  0  0  0
  144.4399   73.6910  221.7137 H   0  0  0  0  0  0  0  0  0  0  0  0
  145.7363   74.8206  221.1529 H   0  0  0  0  0  0  0  0  0  0  0  0
  143.5230   75.5501  220.3495 H   0  0  0  0  0  0  0  0  0  0  0  0
  144.6033   75.0378  218.9788 H   0  0  0  0  0  0  0  0  0  0  0  0
  142.1610   73.8420  219.9990 H   0  0  0  0  0  0  0  0  0  0  0  0
  137.6228   75.6318  222.0530 H   0  0  0  0  0  0  0  0  0  0  0  0
  138.6144   75.8435  223.5670 H   0  0  0  0  0  0  0  0  0  0  0  0
  137.9163   77.9320  221.4654 H   0  0  0  0  0  0  0  0  0  0  0  0
  137.5091   77.9150  223.2225 H   0  0  0  0  0  0  0  0  0  0  0  0
  138.5955   79.9050  223.9979 H   0  0  0  0  0  0  0  0  0  0  0  0
  140.7312   81.1289  224.4246 H   0  0  0  0  0  0  0  0  0  0  0  0
  142.8594   80.3266  223.3901 H   0  0  0  0  0  0  0  0  0  0  0  0
  142.8654   78.2763  221.9672 H   0  0  0  0  0  0  0  0  0  0  0  0
  140.4791   76.9881  220.3018 H   0  0  0  0  0  0  0  0  0  0  0  0
  141.7077   76.2129  221.3850 H   0  0  0  0  0  0  0  0  0  0  0  0
  142.0332   71.0773  224.4594 H   0  0  0  0  0  0  0  0  0  0  0  0
  141.0659   72.5811  224.7584 H   0  0  0  0  0  0  0  0  0  0  0  0
  1  2  2  0
  2  3  1  0
  3  4  2  0
  4  5  1  0
  5  6  2  0
  5  7  1  0
  7  8  1  0
  8  9  1  0
  9 10  1  0
 10 11  2  0
 11 12  1  0
 12 13  1  0
 13 14  1  0
 14 15  1  0
 15 16  1  0
 16 17  1  0
 17 18  1  0
 18 19  1  0
 19 20  1  0
 20 21  1  0
 12 22  2  0
 22 23  1  0
 23 24  1  0
 24 25  1  0
 25 26  1  0
 26 27  1  0
 27 28  2  0
 28 29  1  0
 29 30  2  0
 30 31  1  0
 31 32  2  0
 32 33  1  0
 23 34  2  0
  9 35  1  0
  6  1  1  0
 34 10  1  0
 35  4  1  0
 21 16  1  0
 33 24  1  0
 32 27  1  0
  1 36  1  0
  2 37  1  0
  3 38  1  0
  6 39  1  0
  7 40  1  0
  7 41  1  0
  8 42  1  0
  8 43  1  0
 11 44  1  0
 13 45  1  0
 14 46  1  0
 14 47  1  0
 15 48  1  0
 15 49  1  0
 16 50  1  1
 17 51  1  0
 17 52  1  0
 18 53  1  0
 18 54  1  0
 19 55  1  0
 19 56  1  0
 20 57  1  0
 20 58  1  0
 21 59  1  0
 25 60  1  0
 25 61  1  0
 26 62  1  0
 26 63  1  0
 28 64  1  0
 29 65  1  0
 30 66  1  0
 31 67  1  0
 33 68  1  0
 33 69  1  0
 35 70  1  0
 35 71  1  0
M  END
>  <UniqueID>  (78) 
588

>  <SMILES>  (78) 
c1ccc2c(c1)CCN(c1cc(NCC[C@H]3CCCCN3)nc(N3CCc4ccccc4C3)n1)C2

>  <Energy>  (78) 
87.22047786587387

>  <Genealogy>  (78) 
c1ccc2c(c1)CCN(c1cc(NCC[C@H]3CCCCN3)nc(N3CCc4ccccc4C3)n1)C2 (chirality)
c1ccc2c(c1)CCN(c1cc(NCC[C@H]3CCCCN3)nc(N3CCc4ccccc4C3)n1)C2 (3D coordinates assigned)
c1ccc2c(c1)CCN(c1cc(NCC[C@H]3CCCCN3)nc(N3CCc4ccccc4C3)n1)C2 (nonaromatic ring conformer: 87.22047786587387 kcal/mol)

>  <smiles>  (78) 
c1ccc2c(c1)CCN(c1cc(NCCC3CCCCN3)nc(N3CCc4ccccc4C3)n1)C2

>  <score_type>  (78) 
oracle

>  <origin>  (78) 
autodockgpu

>  <m_score__min__energy>  (78) 
-10.380000000000001

>  <m_primary>  (78) 
energy

>  <meeko>  (78) 
{"free_energy": -9.12, "intermolecular_energy": -10.91, "internal_energy": -2.13, "cluster_size": 5, "cluster_id": 5, "rank_in_cluster": 1}

>  <energy>  (78) 
-9.03

>  <cluster_rmsd>  (78) 
1.59

>  <rmsd>  (78) 
269.34

>  <cluster>  (78) 
5

$$$$
VOUYAFWJUZHTKY-RNPWZEQVNA-N
     RDKit          3D

 71 76  0  0  0  0  0  0  0  0999 V2000
  139.5330   69.7780  228.3100 C   0  0  0  0  0  0  0  0  0  0  0  0
  140.6240   70.6540  228.3300 C   0  0  0  0  0  0  0  0  0  0  0  0
  141.0940   71.2160  227.1410 C   0  0  0  0  0  0  0  0  0  0  0  0
  140.4770   70.9130  225.9200 C   0  0  0  0  0  0  0  0  0  0  0  0
  139.3930   70.0010  225.8930 C   0  0  0  0  0  0  0  0  0  0  0  0
  138.9190   69.4510  227.0990 C   0  0  0  0  0  0  0  0  0  0  0  0
  138.6780   69.6740  224.6050 C   0  0  0  0  0  0  0  0  0  0  0  0
  139.5810   69.9090  223.3950 C   0  0  0  0  0  0  0  0  0  0  0  0
  140.1720   71.2460  223.4950 N   0  0  0  0  0  0  0  0  0  0  0  0
  140.1420   72.1670  222.3870 C   0  0  0  0  0  0  0  0  0  0  0  0
  140.2260   71.7080  221.0680 C   0  0  0  0  0  0  0  0  0  0  0  0
  140.1960   72.6450  220.0230 C   0  0  0  0  0  0  0  0  0  0  0  0
  140.2900   72.2450  218.6470 N   0  0  0  0  0  0  0  0  0  0  0  0
  141.1050   72.9560  217.6580 C   0  0  0  0  0  0  0  0  0  0  0  0
  142.5320   72.3810  217.6400 C   0  0  0  0  0  0  0  0  0  0  0  0
  143.3260   72.7380  218.9100 C   0  0  1  0  0  0  0  0  0  0  0  0
  144.8360   72.5420  218.6570 C   0  0  0  0  0  0  0  0  0  0  0  0
  145.6540   72.8200  219.9330 C   0  0  0  0  0  0  0  0  0  0  0  0
  144.9620   73.8240  220.8720 C   0  0  0  0  0  0  0  0  0  0  0  0
  144.0880   74.8070  220.0820 C   0  0  0  0  0  0  0  0  0  0  0  0
  143.0130   74.1270  219.3280 N   0  0  0  0  0  0  0  0  0  0  0  0
  140.0620   73.9650  220.3180 N   0  0  0  0  0  0  0  0  0  0  0  0
  139.9420   74.4030  221.6000 C   0  0  0  0  0  0  0  0  0  0  0  0
  139.7420   75.8070  221.8740 N   0  0  0  0  0  0  0  0  0  0  0  0
  138.5710   76.2100  222.6800 C   0  0  0  0  0  0  0  0  0  0  0  0
  138.3280   77.7250  222.6640 C   0  0  0  0  0  0  0  0  0  0  0  0
  139.6110   78.4640  222.8860 C   0  0  0  0  0  0  0  0  0  0  0  0
  139.6540   79.6220  223.6780 C   0  0  0  0  0  0  0  0  0  0  0  0
  140.8550   80.3250  223.8280 C   0  0  0  0  0  0  0  0  0  0  0  0
  142.0090   79.8870  223.1690 C   0  0  0  0  0  0  0  0  0  0  0  0
  141.9690   78.7420  222.3680 C   0  0  0  0  0  0  0  0  0  0  0  0
  140.7730   78.0190  222.2300 C   0  0  0  0  0  0  0  0  0  0  0  0
  140.7050   76.7980  221.3520 C   0  0  0  0  0  0  0  0  0  0  0  0
  139.9850   73.4990  222.6180 N   0  0  0  0  0  0  0  0  0  0  0  0
  141.0340   71.5200  224.6500 C   0  0  0  0  0  0  0  0  0  0  0  0
  139.1583   69.3462  229.2497 H   0  0  0  0  0  0  0  0  0  0  0  0
  141.1125   70.9005  229.2843 H   0  0  0  0  0  0  0  0  0  0  0  0
  141.9543   71.9011  227.1632 H   0  0  0  0  0  0  0  0  0  0  0  0
  138.0621   68.7613  227.0875 H   0  0  0  0  0  0  0  0  0  0  0  0
  138.3710   68.6179  224.6235 H   0  0  0  0  0  0  0  0  0  0  0  0
  137.8010   70.3322  224.5174 H   0  0  0  0  0  0  0  0  0  0  0  0
  140.3797   69.1528  223.3781 H   0  0  0  0  0  0  0  0  0  0  0  0
  138.9913   69.8310  222.4697 H   0  0  0  0  0  0  0  0  0  0  0  0
  140.3139   70.6327  220.8537 H   0  0  0  0  0  0  0  0  0  0  0  0
  139.9720   71.2810  218.3960 H   0  0  0  0  0  0  0  0  0  0  0  0
  140.6528   72.8395  216.6620 H   0  0  0  0  0  0  0  0  0  0  0  0
  141.1488   74.0220  217.9258 H   0  0  0  0  0  0  0  0  0  0  0  0
  142.4703   71.2858  217.5584 H   0  0  0  0  0  0  0  0  0  0  0  0
  143.0594   72.8207  216.7806 H   0  0  0  0  0  0  0  0  0  0  0  0
  143.0336   72.0674  219.7315 H   0  0  0  0  0  0  0  0  0  0  0  0
  145.0145   71.5055  218.3347 H   0  0  0  0  0  0  0  0  0  0  0  0
  145.1540   73.2500  217.8775 H   0  0  0  0  0  0  0  0  0  0  0  0
  145.7967   71.8726  220.4735 H   0  0  0  0  0  0  0  0  0  0  0  0
  146.6141   73.2593  219.6244 H   0  0  0  0  0  0  0  0  0  0  0  0
  144.3297   73.2731  221.5839 H   0  0  0  0  0  0  0  0  0  0  0  0
  145.7365   74.3953  221.4047 H   0  0  0  0  0  0  0  0  0  0  0  0
  143.6303   75.5172  220.7864 H   0  0  0  0  0  0  0  0  0  0  0  0
  144.7344   75.3198  219.3546 H   0  0  0  0  0  0  0  0  0  0  0  0
  142.1580   74.1060  219.9260 H   0  0  0  0  0  0  0  0  0  0  0  0
  137.6788   75.7072  222.2786 H   0  0  0  0  0  0  0  0  0  0  0  0
  138.7712   75.9187  223.7217 H   0  0  0  0  0  0  0  0  0  0  0  0
  137.9077   78.0140  221.6894 H   0  0  0  0  0  0  0  0  0  0  0  0
  137.6256   77.9813  223.4708 H   0  0  0  0  0  0  0  0  0  0  0  0
  138.7428   79.9775  224.1814 H   0  0  0  0  0  0  0  0  0  0  0  0
  140.8916   81.2218  224.4639 H   0  0  0  0  0  0  0  0  0  0  0  0
  142.9502   80.4451  223.2815 H   0  0  0  0  0  0  0  0  0  0  0  0
  142.8765   78.4066  221.8446 H   0  0  0  0  0  0  0  0  0  0  0  0
  140.3930   77.1014  220.3418 H   0  0  0  0  0  0  0  0  0  0  0  0
  141.7014   76.3324  221.3316 H   0  0  0  0  0  0  0  0  0  0  0  0
  142.0309   71.0959  224.4595 H   0  0  0  0  0  0  0  0  0  0  0  0
  141.0891   72.6101  224.7861 H   0  0  0  0  0  0  0  0  0  0  0  0
  1  2  2  0
  2  3  1  0
  3  4  2  0
  4  5  1  0
  5  6  2  0
  5  7  1  0
  7  8  1  0
  8  9  1  0
  9 10  1  0
 10 11  2  0
 11 12  1  0
 12 13  1  0
 13 14  1  0
 14 15  1  0
 15 16  1  0
 16 17  1  0
 17 18  1  0
 18 19  1  0
 19 20  1  0
 20 21  1  0
 12 22  2  0
 22 23  1  0
 23 24  1  0
 24 25  1  0
 25 26  1  0
 26 27  1  0
 27 28  2  0
 28 29  1  0
 29 30  2  0
 30 31  1  0
 31 32  2  0
 32 33  1  0
 23 34  2  0
  9 35  1  0
  6  1  1  0
 34 10  1  0
 35  4  1  0
 21 16  1  0
 33 24  1  0
 32 27  1  0
  1 36  1  0
  2 37  1  0
  3 38  1  0
  6 39  1  0
  7 40  1  0
  7 41  1  0
  8 42  1  0
  8 43  1  0
 11 44  1  0
 13 45  1  0
 14 46  1  0
 14 47  1  0
 15 48  1  0
 15 49  1  0
 16 50  1  1
 17 51  1  0
 17 52  1  0
 18 53  1  0
 18 54  1  0
 19 55  1  0
 19 56  1  0
 20 57  1  0
 20 58  1  0
 21 59  1  0
 25 60  1  0
 25 61  1  0
 26 62  1  0
 26 63  1  0
 28 64  1  0
 29 65  1  0
 30 66  1  0
 31 67  1  0
 33 68  1  0
 33 69  1  0
 35 70  1  0
 35 71  1  0
M  END
>  <UniqueID>  (79) 
588

>  <SMILES>  (79) 
c1ccc2c(c1)CCN(c1cc(NCC[C@H]3CCCCN3)nc(N3CCc4ccccc4C3)n1)C2

>  <Energy>  (79) 
87.22047786587387

>  <Genealogy>  (79) 
c1ccc2c(c1)CCN(c1cc(NCC[C@H]3CCCCN3)nc(N3CCc4ccccc4C3)n1)C2 (chirality)
c1ccc2c(c1)CCN(c1cc(NCC[C@H]3CCCCN3)nc(N3CCc4ccccc4C3)n1)C2 (3D coordinates assigned)
c1ccc2c(c1)CCN(c1cc(NCC[C@H]3CCCCN3)nc(N3CCc4ccccc4C3)n1)C2 (nonaromatic ring conformer: 87.22047786587387 kcal/mol)

>  <smiles>  (79) 
c1ccc2c(c1)CCN(c1cc(NCCC3CCCCN3)nc(N3CCc4ccccc4C3)n1)C2

>  <score_type>  (79) 
oracle

>  <origin>  (79) 
autodockgpu

>  <m_score__min__energy>  (79) 
-10.380000000000001

>  <m_primary>  (79) 
energy

>  <meeko>  (79) 
{"free_energy": -9.03, "intermolecular_energy": -10.82, "internal_energy": -2.13, "cluster_size": 5, "cluster_id": 5, "rank_in_cluster": 3}

>  <energy>  (79) 
-8.81

>  <cluster_rmsd>  (79) 
0.51

>  <rmsd>  (79) 
269.43

>  <cluster>  (79) 
5

$$$$
VOUYAFWJUZHTKY-RNPWZEQVNA-N
     RDKit          3D

 71 76  0  0  0  0  0  0  0  0999 V2000
  139.3950   69.6390  227.8800 C   0  0  0  0  0  0  0  0  0  0  0  0
  140.5180   70.4680  227.9750 C   0  0  0  0  0  0  0  0  0  0  0  0
  141.0440   71.0720  226.8310 C   0  0  0  0  0  0  0  0  0  0  0  0
  140.4510   70.8560  225.5790 C   0  0  0  0  0  0  0  0  0  0  0  0
  139.3330   69.9910  225.4760 C   0  0  0  0  0  0  0  0  0  0  0  0
  138.8040   69.3990  226.6390 C   0  0  0  0  0  0  0  0  0  0  0  0
  138.6430   69.7590  224.1540 C   0  0  0  0  0  0  0  0  0  0  0  0
  139.5890   70.0190  222.9820 C   0  0  0  0  0  0  0  0  0  0  0  0
  140.2270   71.3250  223.1680 N   0  0  0  0  0  0  0  0  0  0  0  0
  140.2650   72.3020  222.1100 C   0  0  0  0  0  0  0  0  0  0  0  0
  140.4140   71.9110  220.7740 C   0  0  0  0  0  0  0  0  0  0  0  0
  140.4480   72.9000  219.7790 C   0  0  0  0  0  0  0  0  0  0  0  0
  140.6110   72.5700  218.3910 N   0  0  0  0  0  0  0  0  0  0  0  0
  141.9180   72.3510  217.7660 C   0  0  0  0  0  0  0  0  0  0  0  0
  142.7660   71.4070  218.6350 C   0  0  0  0  0  0  0  0  0  0  0  0
  143.6390   72.1670  219.6500 C   0  0  1  0  0  0  0  0  0  0  0  0
  145.1310   71.9910  219.2950 C   0  0  0  0  0  0  0  0  0  0  0  0
  146.0360   72.6800  220.3350 C   0  0  0  0  0  0  0  0  0  0  0  0
  145.3480   73.8760  221.0160 C   0  0  0  0  0  0  0  0  0  0  0  0
  144.3220   74.5300  220.0820 C   0  0  0  0  0  0  0  0  0  0  0  0
  143.2460   73.5970  219.6830 N   0  0  0  0  0  0  0  0  0  0  0  0
  140.3110   74.2050  220.1350 N   0  0  0  0  0  0  0  0  0  0  0  0
  140.1280   74.5780  221.4300 C   0  0  0  0  0  0  0  0  0  0  0  0
  139.9270   75.9680  221.7660 N   0  0  0  0  0  0  0  0  0  0  0  0
  138.8080   76.3240  222.6630 C   0  0  0  0  0  0  0  0  0  0  0  0
  138.5430   77.8340  222.7160 C   0  0  0  0  0  0  0  0  0  0  0  0
  139.8280   78.5860  222.8770 C   0  0  0  0  0  0  0  0  0  0  0  0
  139.9080   79.7180  223.7040 C   0  0  0  0  0  0  0  0  0  0  0  0
  141.1060   80.4350  223.7980 C   0  0  0  0  0  0  0  0  0  0  0  0
  142.2180   80.0390  223.0460 C   0  0  0  0  0  0  0  0  0  0  0  0
  142.1410   78.9210  222.2110 C   0  0  0  0  0  0  0  0  0  0  0  0
  140.9480   78.1830  222.1290 C   0  0  0  0  0  0  0  0  0  0  0  0
  140.8380   76.9930  221.2160 C   0  0  0  0  0  0  0  0  0  0  0  0
  140.1090   73.6230  222.4010 N   0  0  0  0  0  0  0  0  0  0  0  0
  141.0660   71.5040  224.3580 C   0  0  0  0  0  0  0  0  0  0  0  0
  138.9770   69.1753  228.7857 H   0  0  0  0  0  0  0  0  0  0  0  0
  140.9880   70.6446  228.9537 H   0  0  0  0  0  0  0  0  0  0  0  0
  141.9285   71.7208  226.9126 H   0  0  0  0  0  0  0  0  0  0  0  0
  137.9221   68.7453  226.5690 H   0  0  0  0  0  0  0  0  0  0  0  0
  138.2949   68.7165  224.1093 H   0  0  0  0  0  0  0  0  0  0  0  0
  137.7950   70.4554  224.0775 H   0  0  0  0  0  0  0  0  0  0  0  0
  140.3585   69.2337  222.9473 H   0  0  0  0  0  0  0  0  0  0  0  0
  139.0241   70.0111  222.0381 H   0  0  0  0  0  0  0  0  0  0  0  0
  140.5029   70.8471  220.5089 H   0  0  0  0  0  0  0  0  0  0  0  0
  139.7710   72.2310  217.8680 H   0  0  0  0  0  0  0  0  0  0  0  0
  141.7756   71.9015  216.7722 H   0  0  0  0  0  0  0  0  0  0  0  0
  142.4375   73.3157  217.6686 H   0  0  0  0  0  0  0  0  0  0  0  0
  142.0926   70.7324  219.1840 H   0  0  0  0  0  0  0  0  0  0  0  0
  143.4384   70.8499  217.9661 H   0  0  0  0  0  0  0  0  0  0  0  0
  143.4828   71.7531  220.6571 H   0  0  0  0  0  0  0  0  0  0  0  0
  145.3691   70.9174  219.2672 H   0  0  0  0  0  0  0  0  0  0  0  0
  145.3127   72.4539  218.3138 H   0  0  0  0  0  0  0  0  0  0  0  0
  146.3099   71.9449  221.1061 H   0  0  0  0  0  0  0  0  0  0  0  0
  146.9219   73.0613  219.8061 H   0  0  0  0  0  0  0  0  0  0  0  0
  144.8350   73.5258  221.9239 H   0  0  0  0  0  0  0  0  0  0  0  0
  146.1155   74.6225  221.2683 H   0  0  0  0  0  0  0  0  0  0  0  0
  143.8704   75.3890  220.5998 H   0  0  0  0  0  0  0  0  0  0  0  0
  144.8508   74.8414  219.1691 H   0  0  0  0  0  0  0  0  0  0  0  0
  142.4550   73.7060  220.3550 H   0  0  0  0  0  0  0  0  0  0  0  0
  137.8978   75.8202  222.3057 H   0  0  0  0  0  0  0  0  0  0  0  0
  139.0828   76.0011  223.6780 H   0  0  0  0  0  0  0  0  0  0  0  0
  138.0537   78.1488  221.7824 H   0  0  0  0  0  0  0  0  0  0  0  0
  137.8930   78.0514  223.5764 H   0  0  0  0  0  0  0  0  0  0  0  0
  139.0277   80.0416  224.2787 H   0  0  0  0  0  0  0  0  0  0  0  0
  141.1737   81.3091  224.4624 H   0  0  0  0  0  0  0  0  0  0  0  0
  143.1560   80.6098  223.1125 H   0  0  0  0  0  0  0  0  0  0  0  0
  143.0158   78.6182  221.6169 H   0  0  0  0  0  0  0  0  0  0  0  0
  140.4537   77.3258  220.2405 H   0  0  0  0  0  0  0  0  0  0  0  0
  141.8374   76.5452  221.1124 H   0  0  0  0  0  0  0  0  0  0  0  0
  142.0506   71.0504  224.1715 H   0  0  0  0  0  0  0  0  0  0  0  0
  141.1593   72.5826  224.5526 H   0  0  0  0  0  0  0  0  0  0  0  0
  1  2  2  0
  2  3  1  0
  3  4  2  0
  4  5  1  0
  5  6  2  0
  5  7  1  0
  7  8  1  0
  8  9  1  0
  9 10  1  0
 10 11  2  0
 11 12  1  0
 12 13  1  0
 13 14  1  0
 14 15  1  0
 15 16  1  0
 16 17  1  0
 17 18  1  0
 18 19  1  0
 19 20  1  0
 20 21  1  0
 12 22  2  0
 22 23  1  0
 23 24  1  0
 24 25  1  0
 25 26  1  0
 26 27  1  0
 27 28  2  0
 28 29  1  0
 29 30  2  0
 30 31  1  0
 31 32  2  0
 32 33  1  0
 23 34  2  0
  9 35  1  0
  6  1  1  0
 34 10  1  0
 35  4  1  0
 21 16  1  0
 33 24  1  0
 32 27  1  0
  1 36  1  0
  2 37  1  0
  3 38  1  0
  6 39  1  0
  7 40  1  0
  7 41  1  0
  8 42  1  0
  8 43  1  0
 11 44  1  0
 13 45  1  0
 14 46  1  0
 14 47  1  0
 15 48  1  0
 15 49  1  0
 16 50  1  1
 17 51  1  0
 17 52  1  0
 18 53  1  0
 18 54  1  0
 19 55  1  0
 19 56  1  0
 20 57  1  0
 20 58  1  0
 21 59  1  0
 25 60  1  0
 25 61  1  0
 26 62  1  0
 26 63  1  0
 28 64  1  0
 29 65  1  0
 30 66  1  0
 31 67  1  0
 33 68  1  0
 33 69  1  0
 35 70  1  0
 35 71  1  0
M  END
>  <UniqueID>  (80) 
588

>  <SMILES>  (80) 
c1ccc2c(c1)CCN(c1cc(NCC[C@H]3CCCCN3)nc(N3CCc4ccccc4C3)n1)C2

>  <Energy>  (80) 
87.22047786587387

>  <Genealogy>  (80) 
c1ccc2c(c1)CCN(c1cc(NCC[C@H]3CCCCN3)nc(N3CCc4ccccc4C3)n1)C2 (chirality)
c1ccc2c(c1)CCN(c1cc(NCC[C@H]3CCCCN3)nc(N3CCc4ccccc4C3)n1)C2 (3D coordinates assigned)
c1ccc2c(c1)CCN(c1cc(NCC[C@H]3CCCCN3)nc(N3CCc4ccccc4C3)n1)C2 (nonaromatic ring conformer: 87.22047786587387 kcal/mol)

>  <smiles>  (80) 
c1ccc2c(c1)CCN(c1cc(NCCC3CCCCN3)nc(N3CCc4ccccc4C3)n1)C2

>  <score_type>  (80) 
oracle

>  <origin>  (80) 
autodockgpu

>  <m_score__min__energy>  (80) 
-10.380000000000001

>  <m_primary>  (80) 
energy

>  <meeko>  (80) 
{"free_energy": -9.18, "intermolecular_energy": -10.97, "internal_energy": -1.98, "cluster_size": 8, "cluster_id": 1, "rank_in_cluster": 7}

>  <energy>  (80) 
-8.73

>  <cluster_rmsd>  (80) 
0.0

>  <rmsd>  (80) 
269.35

>  <cluster>  (80) 
6

$$$$
