MESWETRYUNDHFU-HEWZJLJBNA-N
     RDKit          3D

 48 51  0  0  0  0  0  0  0  0999 V2000
  141.8542   80.3239  219.0841 H   0  0  0  0  0  0  0  0  0  0  0  0
  141.4480   79.7790  219.9490 C   0  0  0  0  0  0  0  0  0  0  0  0
  140.6220   78.7460  219.7300 C   0  0  0  0  0  0  0  0  0  0  0  0
  139.6712   78.9254  219.2068 H   0  0  0  0  0  0  0  0  0  0  0  0
  140.9520   77.3640  220.1730 C   0  0  0  0  0  0  0  0  0  0  0  0
  142.2080   76.9060  219.9170 N   0  0  0  0  0  0  0  0  0  0  0  0
  142.6050   75.6580  220.2480 C   0  0  0  0  0  0  0  0  0  0  0  0
  143.9090   75.2390  219.9610 C   0  0  0  0  0  0  0  0  0  0  0  0
  144.6123   75.9271  219.4692 H   0  0  0  0  0  0  0  0  0  0  0  0
  144.3180   73.9440  220.3000 C   0  0  0  0  0  0  0  0  0  0  0  0
  145.9530   73.4180  219.9400 Cl  0  0  0  0  0  0  0  0  0  0  0  0
  143.4240   73.0700  220.9270 C   0  0  0  0  0  0  0  0  0  0  0  0
  143.7472   72.0531  221.1943 H   0  0  0  0  0  0  0  0  0  0  0  0
  142.1200   73.4860  221.2150 C   0  0  0  0  0  0  0  0  0  0  0  0
  141.4195   72.7952  221.7071 H   0  0  0  0  0  0  0  0  0  0  0  0
  141.7020   74.7880  220.8760 C   0  0  0  0  0  0  0  0  0  0  0  0
  140.4070   75.2570  221.1470 C   0  0  0  0  0  0  0  0  0  0  0  0
  139.5830   74.4900  221.7240 O   0  0  0  0  0  0  0  0  0  0  0  0
  140.0350   76.5370  220.7980 N   0  0  0  0  0  0  0  0  0  0  0  0
  138.6660   76.9900  221.1380 C   0  0  0  0  0  0  0  0  0  0  0  0
  138.0837   77.0883  220.2100 H   0  0  0  0  0  0  0  0  0  0  0  0
  138.2185   76.2440  221.8112 H   0  0  0  0  0  0  0  0  0  0  0  0
  138.6720   78.3530  221.8710 C   0  0  2  0  0  0  0  0  0  0  0  0
  139.0720   79.0917  221.1608 H   0  0  0  0  0  0  0  0  0  0  0  0
  139.5960   78.3610  223.1060 C   0  0  0  0  0  0  0  0  0  0  0  0
  140.6034   78.0473  222.7950 H   0  0  0  0  0  0  0  0  0  0  0  0
  139.1687   77.6704  223.8479 H   0  0  0  0  0  0  0  0  0  0  0  0
  139.6880   79.6960  223.7350 N   0  0  0  0  0  0  0  0  0  0  0  0
  140.5130   80.1990  223.3320 H   0  0  0  0  0  0  0  0  0  0  0  0
  138.4990   80.5500  223.5480 C   0  0  0  0  0  0  0  0  0  0  0  0
  138.6149   81.1194  222.6140 H   0  0  0  0  0  0  0  0  0  0  0  0
  138.4234   81.2194  224.4176 H   0  0  0  0  0  0  0  0  0  0  0  0
  137.2070   79.7320  223.4700 C   0  0  0  0  0  0  0  0  0  0  0  0
  136.3553   80.4178  223.3504 H   0  0  0  0  0  0  0  0  0  0  0  0
  137.1091   79.1481  224.3971 H   0  0  0  0  0  0  0  0  0  0  0  0
  137.2350   78.7550  222.2810 C   0  0  0  0  0  0  0  0  0  0  0  0
  136.7447   79.2339  221.4206 H   0  0  0  0  0  0  0  0  0  0  0  0
  136.7100   77.8395  222.5913 H   0  0  0  0  0  0  0  0  0  0  0  0
  141.8340   80.2140  221.3080 C   0  0  0  0  0  0  0  0  0  0  0  0
  141.4810   81.4470  221.7720 N   0  0  0  0  0  0  0  0  0  0  0  0
  141.8220   81.8730  223.0180 C   0  0  0  0  0  0  0  0  0  0  0  0
  141.5200   82.8745  223.3584 H   0  0  0  0  0  0  0  0  0  0  0  0
  142.5550   81.0400  223.8650 C   0  0  0  0  0  0  0  0  0  0  0  0
  142.8340   81.3791  224.8736 H   0  0  0  0  0  0  0  0  0  0  0  0
  142.9300   79.7720  223.4180 C   0  0  0  0  0  0  0  0  0  0  0  0
  143.5077   79.1046  224.0743 H   0  0  0  0  0  0  0  0  0  0  0  0
  142.5700   79.3530  222.1360 C   0  0  0  0  0  0  0  0  0  0  0  0
  142.8613   78.3547  221.7774 H   0  0  0  0  0  0  0  0  0  0  0  0
  1  2  1  0
  2  3  2  0
  3  4  1  0
  3  5  1  0
  5  6  2  0
  6  7  1  0
  7  8  2  0
  8  9  1  0
  8 10  1  0
 10 11  1  0
 10 12  2  0
 12 13  1  0
 12 14  1  0
 14 15  1  0
 14 16  2  0
 16 17  1  0
 17 18  2  0
 17 19  1  0
 19 20  1  0
 20 21  1  0
 20 22  1  0
 20 23  1  0
 23 24  1  6
 23 25  1  0
 25 26  1  0
 25 27  1  0
 25 28  1  0
 28 29  1  0
 28 30  1  0
 30 31  1  0
 30 32  1  0
 30 33  1  0
 33 34  1  0
 33 35  1  0
 33 36  1  0
 36 37  1  0
 36 38  1  0
  2 39  1  0
 39 40  2  0
 40 41  1  0
 41 42  1  0
 41 43  2  0
 43 44  1  0
 43 45  1  0
 45 46  1  0
 45 47  2  0
 47 48  1  0
 19  5  1  0
 36 23  1  0
 47 39  1  0
 16  7  1  0
M  END
>  <UniqueID>  (1) 
432

>  <SMILES>  (1) 
O=c1c2ccc(Cl)cc2nc(/C=C/c2ccccn2)n1C[C@H]1CCCNC1

>  <Energy>  (1) 
67.45969388579687

>  <Genealogy>  (1) 
O=c1c2ccc(Cl)cc2nc(/C=C/c2ccccn2)n1C[C@H]1CCCNC1 (chirality)
O=c1c2ccc(Cl)cc2nc(/C=C/c2ccccn2)n1C[C@H]1CCCNC1 (cis-trans isomerization)
O=c1c2ccc(Cl)cc2nc(/C=C/c2ccccn2)n1C[C@H]1CCCNC1 (3D coordinates assigned)
O=c1c2ccc(Cl)cc2nc(/C=C/c2ccccn2)n1C[C@H]1CCCNC1 (nonaromatic ring conformer: 67.45969388579687 kcal/mol)

>  <smiles>  (1) 
O=c1c2ccc(Cl)cc2nc(/C=C/c2ccccn2)n1CC1CCCNC1

>  <score_type>  (1) 
oracle

>  <origin>  (1) 
autodockgpu

>  <m_score__min__energy>  (1) 
-8.0899999999999999

>  <m_primary>  (1) 
energy

>  <meeko>  (1) 
{"free_energy": -6.39, "intermolecular_energy": -7.88, "internal_energy": -2.1, "cluster_size": 4, "cluster_id": 4, "rank_in_cluster": 3}

>  <energy>  (1) 
-8.09

>  <cluster_rmsd>  (1) 
0.0

>  <rmsd>  (1) 
271.48

>  <cluster>  (1) 
1

$$$$
MESWETRYUNDHFU-HEWZJLJBNA-N
     RDKit          3D

 48 51  0  0  0  0  0  0  0  0999 V2000
  143.9014   79.8206  222.8164 H   0  0  0  0  0  0  0  0  0  0  0  0
  142.8060   79.8450  222.7190 C   0  0  0  0  0  0  0  0  0  0  0  0
  142.0770   78.9600  223.4140 C   0  0  0  0  0  0  0  0  0  0  0  0
  142.5873   78.2759  224.1080 H   0  0  0  0  0  0  0  0  0  0  0  0
  140.5970   78.8760  223.2740 C   0  0  0  0  0  0  0  0  0  0  0  0
  139.8550   79.8620  223.8480 N   0  0  0  0  0  0  0  0  0  0  0  0
  138.5050   79.8670  223.8080 C   0  0  0  0  0  0  0  0  0  0  0  0
  137.7910   80.9060  224.4160 C   0  0  0  0  0  0  0  0  0  0  0  0
  138.3298   81.7199  224.9232 H   0  0  0  0  0  0  0  0  0  0  0  0
  136.3920   80.9100  224.3790 C   0  0  0  0  0  0  0  0  0  0  0  0
  135.4970   82.2120  225.1410 Cl  0  0  0  0  0  0  0  0  0  0  0  0
  135.7080   79.8740  223.7330 C   0  0  0  0  0  0  0  0  0  0  0  0
  134.6084   79.8774  223.7037 H   0  0  0  0  0  0  0  0  0  0  0  0
  136.4180   78.8350  223.1250 C   0  0  0  0  0  0  0  0  0  0  0  0
  135.8757   78.0229  222.6186 H   0  0  0  0  0  0  0  0  0  0  0  0
  137.8260   78.8250  223.1590 C   0  0  0  0  0  0  0  0  0  0  0  0
  138.5870   77.8080  222.5610 C   0  0  0  0  0  0  0  0  0  0  0  0
  137.9930   76.8680  221.9600 O   0  0  0  0  0  0  0  0  0  0  0  0
  139.9640   77.8350  222.6180 N   0  0  0  0  0  0  0  0  0  0  0  0
  140.7170   76.7530  221.9410 C   0  0  0  0  0  0  0  0  0  0  0  0
  141.4338   76.3193  222.6538 H   0  0  0  0  0  0  0  0  0  0  0  0
  139.9936   75.9994  221.5965 H   0  0  0  0  0  0  0  0  0  0  0  0
  141.4920   77.2720  220.7060 C   0  0  2  0  0  0  0  0  0  0  0  0
  142.1794   78.0501  221.0694 H   0  0  0  0  0  0  0  0  0  0  0  0
  140.5710   77.9300  219.6570 C   0  0  0  0  0  0  0  0  0  0  0  0
  139.9856   78.7212  220.1482 H   0  0  0  0  0  0  0  0  0  0  0  0
  139.9217   77.1447  219.2427 H   0  0  0  0  0  0  0  0  0  0  0  0
  141.3260   78.5260  218.5360 N   0  0  0  0  0  0  0  0  0  0  0  0
  141.5080   79.5340  218.7530 H   0  0  0  0  0  0  0  0  0  0  0  0
  142.6240   77.8820  218.2530 C   0  0  0  0  0  0  0  0  0  0  0  0
  143.3997   78.3623  218.8675 H   0  0  0  0  0  0  0  0  0  0  0  0
  142.8343   78.0011  217.1799 H   0  0  0  0  0  0  0  0  0  0  0  0
  142.6040   76.3830  218.5660 C   0  0  0  0  0  0  0  0  0  0  0  0
  143.5857   75.9522  218.3196 H   0  0  0  0  0  0  0  0  0  0  0  0
  141.8114   75.9131  217.9652 H   0  0  0  0  0  0  0  0  0  0  0  0
  142.3030   76.1270  220.0540 C   0  0  0  0  0  0  0  0  0  0  0  0
  143.2563   76.0204  220.5924 H   0  0  0  0  0  0  0  0  0  0  0  0
  141.6951   75.2124  220.1169 H   0  0  0  0  0  0  0  0  0  0  0  0
  142.1940   80.8520  221.8270 C   0  0  0  0  0  0  0  0  0  0  0  0
  142.1710   80.6660  220.4760 N   0  0  0  0  0  0  0  0  0  0  0  0
  141.6150   81.5750  219.6320 C   0  0  0  0  0  0  0  0  0  0  0  0
  141.6140   81.3898  218.5477 H   0  0  0  0  0  0  0  0  0  0  0  0
  141.0450   82.7440  220.1410 C   0  0  0  0  0  0  0  0  0  0  0  0
  140.5940   83.4837  219.4632 H   0  0  0  0  0  0  0  0  0  0  0  0
  141.0540   82.9630  221.5190 C   0  0  0  0  0  0  0  0  0  0  0  0
  140.6093   83.8792  221.9347 H   0  0  0  0  0  0  0  0  0  0  0  0
  141.6290   82.0160  222.3690 C   0  0  0  0  0  0  0  0  0  0  0  0
  141.6388   82.1817  223.4564 H   0  0  0  0  0  0  0  0  0  0  0  0
  1  2  1  0
  2  3  2  0
  3  4  1  0
  3  5  1  0
  5  6  2  0
  6  7  1  0
  7  8  2  0
  8  9  1  0
  8 10  1  0
 10 11  1  0
 10 12  2  0
 12 13  1  0
 12 14  1  0
 14 15  1  0
 14 16  2  0
 16 17  1  0
 17 18  2  0
 17 19  1  0
 19 20  1  0
 20 21  1  0
 20 22  1  0
 20 23  1  0
 23 24  1  1
 23 25  1  0
 25 26  1  0
 25 27  1  0
 25 28  1  0
 28 29  1  0
 28 30  1  0
 30 31  1  0
 30 32  1  0
 30 33  1  0
 33 34  1  0
 33 35  1  0
 33 36  1  0
 36 37  1  0
 36 38  1  0
  2 39  1  0
 39 40  2  0
 40 41  1  0
 41 42  1  0
 41 43  2  0
 43 44  1  0
 43 45  1  0
 45 46  1  0
 45 47  2  0
 47 48  1  0
 19  5  1  0
 36 23  1  0
 47 39  1  0
 16  7  1  0
M  END
>  <UniqueID>  (2) 
432

>  <SMILES>  (2) 
O=c1c2ccc(Cl)cc2nc(/C=C/c2ccccn2)n1C[C@H]1CCCNC1

>  <Energy>  (2) 
67.45969388579687

>  <Genealogy>  (2) 
O=c1c2ccc(Cl)cc2nc(/C=C/c2ccccn2)n1C[C@H]1CCCNC1 (chirality)
O=c1c2ccc(Cl)cc2nc(/C=C/c2ccccn2)n1C[C@H]1CCCNC1 (cis-trans isomerization)
O=c1c2ccc(Cl)cc2nc(/C=C/c2ccccn2)n1C[C@H]1CCCNC1 (3D coordinates assigned)
O=c1c2ccc(Cl)cc2nc(/C=C/c2ccccn2)n1C[C@H]1CCCNC1 (nonaromatic ring conformer: 67.45969388579687 kcal/mol)

>  <smiles>  (2) 
O=c1c2ccc(Cl)cc2nc(/C=C/c2ccccn2)n1CC1CCCNC1

>  <score_type>  (2) 
oracle

>  <origin>  (2) 
autodockgpu

>  <m_score__min__energy>  (2) 
-8.0899999999999999

>  <m_primary>  (2) 
energy

>  <meeko>  (2) 
{"free_energy": -5.87, "intermolecular_energy": -7.36, "internal_energy": -2.47, "cluster_size": 2, "cluster_id": 6, "rank_in_cluster": 2}

>  <energy>  (2) 
-7.98

>  <cluster_rmsd>  (2) 
0.29

>  <rmsd>  (2) 
271.52

>  <cluster>  (2) 
1

$$$$
MESWETRYUNDHFU-HEWZJLJBNA-N
     RDKit          3D

 48 51  0  0  0  0  0  0  0  0999 V2000
  138.7023   72.2969  222.4254 H   0  0  0  0  0  0  0  0  0  0  0  0
  139.7300   72.1190  222.7750 C   0  0  0  0  0  0  0  0  0  0  0  0
  140.7520   72.5350  222.0120 C   0  0  0  0  0  0  0  0  0  0  0  0
  141.5112   71.8054  221.6936 H   0  0  0  0  0  0  0  0  0  0  0  0
  140.8900   73.9540  221.5830 C   0  0  0  0  0  0  0  0  0  0  0  0
  140.1980   74.8920  222.2850 N   0  0  0  0  0  0  0  0  0  0  0  0
  140.2270   76.2040  221.9630 C   0  0  0  0  0  0  0  0  0  0  0  0
  139.4940   77.1260  222.7180 C   0  0  0  0  0  0  0  0  0  0  0  0
  138.8962   76.7829  223.5753 H   0  0  0  0  0  0  0  0  0  0  0  0
  139.5210   78.4850  222.3830 C   0  0  0  0  0  0  0  0  0  0  0  0
  138.6020   79.6410  223.3290 Cl  0  0  0  0  0  0  0  0  0  0  0  0
  140.2810   78.9200  221.2920 C   0  0  0  0  0  0  0  0  0  0  0  0
  140.3020   79.9879  221.0290 H   0  0  0  0  0  0  0  0  0  0  0  0
  141.0140   78.0010  220.5350 C   0  0  0  0  0  0  0  0  0  0  0  0
  141.6099   78.3474  219.6777 H   0  0  0  0  0  0  0  0  0  0  0  0
  140.9910   76.6320  220.8680 C   0  0  0  0  0  0  0  0  0  0  0  0
  141.7120   75.6690  220.1440 C   0  0  0  0  0  0  0  0  0  0  0  0
  142.4170   76.0380  219.1610 O   0  0  0  0  0  0  0  0  0  0  0  0
  141.6620   74.3380  220.5010 N   0  0  0  0  0  0  0  0  0  0  0  0
  142.4690   73.3700  219.7220 C   0  0  0  0  0  0  0  0  0  0  0  0
  142.2878   72.3588  220.1152 H   0  0  0  0  0  0  0  0  0  0  0  0
  142.1667   73.4465  218.6671 H   0  0  0  0  0  0  0  0  0  0  0  0
  143.9830   73.6760  219.8090 C   0  0  2  0  0  0  0  0  0  0  0  0
  144.0986   74.7537  219.6217 H   0  0  0  0  0  0  0  0  0  0  0  0
  144.8040   72.9350  218.7320 C   0  0  0  0  0  0  0  0  0  0  0  0
  144.3844   73.1721  217.7432 H   0  0  0  0  0  0  0  0  0  0  0  0
  144.7449   71.8581  218.9482 H   0  0  0  0  0  0  0  0  0  0  0  0
  146.2320   73.3190  218.7460 N   0  0  0  0  0  0  0  0  0  0  0  0
  146.3740   74.1030  218.0670 H   0  0  0  0  0  0  0  0  0  0  0  0
  146.7400   73.7600  220.0600 C   0  0  0  0  0  0  0  0  0  0  0  0
  146.5759   74.8433  220.1579 H   0  0  0  0  0  0  0  0  0  0  0  0
  147.8104   73.5113  220.1091 H   0  0  0  0  0  0  0  0  0  0  0  0
  146.0380   73.0480  221.2200 C   0  0  0  0  0  0  0  0  0  0  0  0
  146.4676   73.4001  222.1695 H   0  0  0  0  0  0  0  0  0  0  0  0
  146.1872   71.9643  221.1042 H   0  0  0  0  0  0  0  0  0  0  0  0
  144.5250   73.3340  221.2170 C   0  0  0  0  0  0  0  0  0  0  0  0
  144.3266   74.1842  221.8862 H   0  0  0  0  0  0  0  0  0  0  0  0
  144.0143   72.4206  221.5559 H   0  0  0  0  0  0  0  0  0  0  0  0
  139.9320   71.4310  224.0670 C   0  0  0  0  0  0  0  0  0  0  0  0
  140.8510   71.8890  224.9660 N   0  0  0  0  0  0  0  0  0  0  0  0
  141.0570   71.2760  226.1620 C   0  0  0  0  0  0  0  0  0  0  0  0
  141.8062   71.6743  226.8621 H   0  0  0  0  0  0  0  0  0  0  0  0
  140.3180   70.1410  226.5020 C   0  0  0  0  0  0  0  0  0  0  0  0
  140.4811   69.6396  227.4674 H   0  0  0  0  0  0  0  0  0  0  0  0
  139.3700   69.6500  225.6030 C   0  0  0  0  0  0  0  0  0  0  0  0
  138.7799   68.7573  225.8575 H   0  0  0  0  0  0  0  0  0  0  0  0
  139.1720   70.2940  224.3800 C   0  0  0  0  0  0  0  0  0  0  0  0
  138.4258   69.9128  223.6674 H   0  0  0  0  0  0  0  0  0  0  0  0
  1  2  1  0
  2  3  2  0
  3  4  1  0
  3  5  1  0
  5  6  2  0
  6  7  1  0
  7  8  2  0
  8  9  1  0
  8 10  1  0
 10 11  1  0
 10 12  2  0
 12 13  1  0
 12 14  1  0
 14 15  1  0
 14 16  2  0
 16 17  1  0
 17 18  2  0
 17 19  1  0
 19 20  1  0
 20 21  1  0
 20 22  1  0
 20 23  1  0
 23 24  1  6
 23 25  1  0
 25 26  1  0
 25 27  1  0
 25 28  1  0
 28 29  1  0
 28 30  1  0
 30 31  1  0
 30 32  1  0
 30 33  1  0
 33 34  1  0
 33 35  1  0
 33 36  1  0
 36 37  1  0
 36 38  1  0
  2 39  1  0
 39 40  2  0
 40 41  1  0
 41 42  1  0
 41 43  2  0
 43 44  1  0
 43 45  1  0
 45 46  1  0
 45 47  2  0
 47 48  1  0
 19  5  1  0
 36 23  1  0
 47 39  1  0
 16  7  1  0
M  END
>  <UniqueID>  (3) 
432

>  <SMILES>  (3) 
O=c1c2ccc(Cl)cc2nc(/C=C/c2ccccn2)n1C[C@H]1CCCNC1

>  <Energy>  (3) 
67.45969388579687

>  <Genealogy>  (3) 
O=c1c2ccc(Cl)cc2nc(/C=C/c2ccccn2)n1C[C@H]1CCCNC1 (chirality)
O=c1c2ccc(Cl)cc2nc(/C=C/c2ccccn2)n1C[C@H]1CCCNC1 (cis-trans isomerization)
O=c1c2ccc(Cl)cc2nc(/C=C/c2ccccn2)n1C[C@H]1CCCNC1 (3D coordinates assigned)
O=c1c2ccc(Cl)cc2nc(/C=C/c2ccccn2)n1C[C@H]1CCCNC1 (nonaromatic ring conformer: 67.45969388579687 kcal/mol)

>  <smiles>  (3) 
O=c1c2ccc(Cl)cc2nc(/C=C/c2ccccn2)n1CC1CCCNC1

>  <score_type>  (3) 
oracle

>  <origin>  (3) 
autodockgpu

>  <m_score__min__energy>  (3) 
-8.0899999999999999

>  <m_primary>  (3) 
energy

>  <meeko>  (3) 
{"free_energy": -7.98, "intermolecular_energy": -9.47, "internal_energy": -0.95, "cluster_size": 7, "cluster_id": 1, "rank_in_cluster": 2}

>  <energy>  (3) 
-7.92

>  <cluster_rmsd>  (3) 
0.63

>  <rmsd>  (3) 
271.46

>  <cluster>  (3) 
1

$$$$
MESWETRYUNDHFU-HEWZJLJBNA-N
     RDKit          3D

 48 51  0  0  0  0  0  0  0  0999 V2000
  139.9586   76.2289  223.0793 H   0  0  0  0  0  0  0  0  0  0  0  0
  140.7080   76.8260  222.5390 C   0  0  0  0  0  0  0  0  0  0  0  0
  141.3770   76.2580  221.5250 C   0  0  0  0  0  0  0  0  0  0  0  0
  141.6702   75.2009  221.6055 H   0  0  0  0  0  0  0  0  0  0  0  0
  141.7350   77.0140  220.2940 C   0  0  0  0  0  0  0  0  0  0  0  0
  141.5690   78.3650  220.3160 N   0  0  0  0  0  0  0  0  0  0  0  0
  141.8340   79.1440  219.2440 C   0  0  0  0  0  0  0  0  0  0  0  0
  141.6440   80.5280  219.3220 C   0  0  0  0  0  0  0  0  0  0  0  0
  141.2824   80.9817  220.2566 H   0  0  0  0  0  0  0  0  0  0  0  0
  141.9140   81.3350  218.2110 C   0  0  0  0  0  0  0  0  0  0  0  0
  141.6760   83.0710  218.3080 Cl  0  0  0  0  0  0  0  0  0  0  0  0
  142.3740   80.7570  217.0230 C   0  0  0  0  0  0  0  0  0  0  0  0
  142.5868   81.3920  216.1504 H   0  0  0  0  0  0  0  0  0  0  0  0
  142.5640   79.3740  216.9420 C   0  0  0  0  0  0  0  0  0  0  0  0
  142.9251   78.9236  216.0056 H   0  0  0  0  0  0  0  0  0  0  0  0
  142.2940   78.5560  218.0570 C   0  0  0  0  0  0  0  0  0  0  0  0
  142.4720   77.1640  218.0300 C   0  0  0  0  0  0  0  0  0  0  0  0
  142.8990   76.6180  216.9730 O   0  0  0  0  0  0  0  0  0  0  0  0
  142.1950   76.3990  219.1430 N   0  0  0  0  0  0  0  0  0  0  0  0
  142.4330   74.9380  219.0680 C   0  0  0  0  0  0  0  0  0  0  0  0
  141.7437   74.4298  219.7584 H   0  0  0  0  0  0  0  0  0  0  0  0
  142.2625   74.6185  218.0293 H   0  0  0  0  0  0  0  0  0  0  0  0
  143.8860   74.5680  219.4500 C   0  0  2  0  0  0  0  0  0  0  0  0
  144.4575   75.5078  219.4611 H   0  0  0  0  0  0  0  0  0  0  0  0
  144.5560   73.6380  218.4170 C   0  0  0  0  0  0  0  0  0  0  0  0
  144.4894   74.1074  217.4244 H   0  0  0  0  0  0  0  0  0  0  0  0
  144.0285   72.6731  218.4446 H   0  0  0  0  0  0  0  0  0  0  0  0
  145.9780   73.3810  218.7250 N   0  0  0  0  0  0  0  0  0  0  0  0
  146.5630   74.0830  218.2140 H   0  0  0  0  0  0  0  0  0  0  0  0
  146.3240   73.4600  220.1580 C   0  0  0  0  0  0  0  0  0  0  0  0
  146.5879   74.4996  220.4022 H   0  0  0  0  0  0  0  0  0  0  0  0
  147.1691   72.7798  220.3399 H   0  0  0  0  0  0  0  0  0  0  0  0
  145.1640   73.0210  221.0570 C   0  0  0  0  0  0  0  0  0  0  0  0
  145.4823   73.0817  222.1082 H   0  0  0  0  0  0  0  0  0  0  0  0
  144.8907   71.9888  220.7926 H   0  0  0  0  0  0  0  0  0  0  0  0
  143.9300   73.9180  220.8540 C   0  0  0  0  0  0  0  0  0  0  0  0
  143.9474   74.7163  221.6106 H   0  0  0  0  0  0  0  0  0  0  0  0
  143.0380   73.2819  220.9528 H   0  0  0  0  0  0  0  0  0  0  0  0
  140.9400   78.2250  222.9580 C   0  0  0  0  0  0  0  0  0  0  0  0
  142.2000   78.6740  223.2240 N   0  0  0  0  0  0  0  0  0  0  0  0
  142.4420   79.9550  223.6120 C   0  0  0  0  0  0  0  0  0  0  0  0
  143.4721   80.2819  223.8172 H   0  0  0  0  0  0  0  0  0  0  0  0
  141.3840   80.8550  223.7500 C   0  0  0  0  0  0  0  0  0  0  0  0
  141.5731   81.8919  224.0647 H   0  0  0  0  0  0  0  0  0  0  0  0
  140.0830   80.4240  223.4840 C   0  0  0  0  0  0  0  0  0  0  0  0
  139.2392   81.1222  223.5870 H   0  0  0  0  0  0  0  0  0  0  0  0
  139.8550   79.1050  223.0870 C   0  0  0  0  0  0  0  0  0  0  0  0
  138.8324   78.7584  222.8770 H   0  0  0  0  0  0  0  0  0  0  0  0
  1  2  1  0
  2  3  2  0
  3  4  1  0
  3  5  1  0
  5  6  2  0
  6  7  1  0
  7  8  2  0
  8  9  1  0
  8 10  1  0
 10 11  1  0
 10 12  2  0
 12 13  1  0
 12 14  1  0
 14 15  1  0
 14 16  2  0
 16 17  1  0
 17 18  2  0
 17 19  1  0
 19 20  1  0
 20 21  1  0
 20 22  1  0
 20 23  1  0
 23 24  1  1
 23 25  1  0
 25 26  1  0
 25 27  1  0
 25 28  1  0
 28 29  1  0
 28 30  1  0
 30 31  1  0
 30 32  1  0
 30 33  1  0
 33 34  1  0
 33 35  1  0
 33 36  1  0
 36 37  1  0
 36 38  1  0
  2 39  1  0
 39 40  2  0
 40 41  1  0
 41 42  1  0
 41 43  2  0
 43 44  1  0
 43 45  1  0
 45 46  1  0
 45 47  2  0
 47 48  1  0
 19  5  1  0
 36 23  1  0
 47 39  1  0
 16  7  1  0
M  END
>  <UniqueID>  (4) 
432

>  <SMILES>  (4) 
O=c1c2ccc(Cl)cc2nc(/C=C/c2ccccn2)n1C[C@H]1CCCNC1

>  <Energy>  (4) 
67.45969388579687

>  <Genealogy>  (4) 
O=c1c2ccc(Cl)cc2nc(/C=C/c2ccccn2)n1C[C@H]1CCCNC1 (chirality)
O=c1c2ccc(Cl)cc2nc(/C=C/c2ccccn2)n1C[C@H]1CCCNC1 (cis-trans isomerization)
O=c1c2ccc(Cl)cc2nc(/C=C/c2ccccn2)n1C[C@H]1CCCNC1 (3D coordinates assigned)
O=c1c2ccc(Cl)cc2nc(/C=C/c2ccccn2)n1C[C@H]1CCCNC1 (nonaromatic ring conformer: 67.45969388579687 kcal/mol)

>  <smiles>  (4) 
O=c1c2ccc(Cl)cc2nc(/C=C/c2ccccn2)n1CC1CCCNC1

>  <score_type>  (4) 
oracle

>  <origin>  (4) 
autodockgpu

>  <m_score__min__energy>  (4) 
-8.0899999999999999

>  <m_primary>  (4) 
energy

>  <meeko>  (4) 
{"free_energy": -7.33, "intermolecular_energy": -8.82, "internal_energy": -1.2, "cluster_size": 3, "cluster_id": 3, "rank_in_cluster": 2}

>  <energy>  (4) 
-7.91

>  <cluster_rmsd>  (4) 
0.39

>  <rmsd>  (4) 
271.57

>  <cluster>  (4) 
1

$$$$
MESWETRYUNDHFU-HEWZJLJBNA-N
     RDKit          3D

 48 51  0  0  0  0  0  0  0  0999 V2000
  142.0417   71.9049  222.1395 H   0  0  0  0  0  0  0  0  0  0  0  0
  140.9690   72.0470  222.3370 C   0  0  0  0  0  0  0  0  0  0  0  0
  140.2750   72.8880  221.5560 C   0  0  0  0  0  0  0  0  0  0  0  0
  139.3645   72.5243  221.0572 H   0  0  0  0  0  0  0  0  0  0  0  0
  140.7000   74.2990  221.3440 C   0  0  0  0  0  0  0  0  0  0  0  0
  140.0700   75.2600  222.0730 N   0  0  0  0  0  0  0  0  0  0  0  0
  140.3550   76.5740  221.9380 C   0  0  0  0  0  0  0  0  0  0  0  0
  139.6750   77.5210  222.7130 C   0  0  0  0  0  0  0  0  0  0  0  0
  138.9111   77.1952  223.4344 H   0  0  0  0  0  0  0  0  0  0  0  0
  139.9670   78.8820  222.5700 C   0  0  0  0  0  0  0  0  0  0  0  0
  139.1150   80.0690  223.5410 Cl  0  0  0  0  0  0  0  0  0  0  0  0
  140.9390   79.2950  221.6530 C   0  0  0  0  0  0  0  0  0  0  0  0
  141.1684   80.3651  221.5419 H   0  0  0  0  0  0  0  0  0  0  0  0
  141.6200   78.3520  220.8770 C   0  0  0  0  0  0  0  0  0  0  0  0
  142.3833   78.6817  220.1568 H   0  0  0  0  0  0  0  0  0  0  0  0
  141.3300   76.9800  221.0160 C   0  0  0  0  0  0  0  0  0  0  0  0
  141.9880   75.9920  220.2660 C   0  0  0  0  0  0  0  0  0  0  0  0
  142.8800   76.3390  219.4390 O   0  0  0  0  0  0  0  0  0  0  0  0
  141.6740   74.6600  220.4300 N   0  0  0  0  0  0  0  0  0  0  0  0
  142.4220   73.6580  219.6350 C   0  0  0  0  0  0  0  0  0  0  0  0
  142.1550   72.6516  219.9897 H   0  0  0  0  0  0  0  0  0  0  0  0
  142.1507   73.7911  218.5773 H   0  0  0  0  0  0  0  0  0  0  0  0
  143.9540   73.8440  219.7640 C   0  0  2  0  0  0  0  0  0  0  0  0
  144.1558   74.9151  219.6159 H   0  0  0  0  0  0  0  0  0  0  0  0
  144.7400   73.0760  218.6800 C   0  0  0  0  0  0  0  0  0  0  0  0
  144.3626   73.3758  217.6912 H   0  0  0  0  0  0  0  0  0  0  0  0
  144.5936   72.0006  218.8589 H   0  0  0  0  0  0  0  0  0  0  0  0
  146.1920   73.3480  218.7360 N   0  0  0  0  0  0  0  0  0  0  0  0
  146.4090   74.1400  218.0860 H   0  0  0  0  0  0  0  0  0  0  0  0
  146.7020   73.7080  220.0730 C   0  0  0  0  0  0  0  0  0  0  0  0
  146.6186   74.7971  220.2028 H   0  0  0  0  0  0  0  0  0  0  0  0
  147.7492   73.3772  220.1361 H   0  0  0  0  0  0  0  0  0  0  0  0
  145.9210   73.0160  221.1940 C   0  0  0  0  0  0  0  0  0  0  0  0
  146.3543   73.3038  222.1632 H   0  0  0  0  0  0  0  0  0  0  0  0
  145.9896   71.9283  221.0449 H   0  0  0  0  0  0  0  0  0  0  0  0
  144.4360   73.4170  221.1700 C   0  0  0  0  0  0  0  0  0  0  0  0
  144.2877   74.2583  221.8630 H   0  0  0  0  0  0  0  0  0  0  0  0
  143.8497   72.5352  221.4678 H   0  0  0  0  0  0  0  0  0  0  0  0
  140.3470   71.3040  223.4530 C   0  0  0  0  0  0  0  0  0  0  0  0
  139.3530   70.3990  223.2210 N   0  0  0  0  0  0  0  0  0  0  0  0
  138.7630   69.7020  224.2280 C   0  0  0  0  0  0  0  0  0  0  0  0
  137.9641   68.9804  224.0021 H   0  0  0  0  0  0  0  0  0  0  0  0
  139.1700   69.9010  225.5490 C   0  0  0  0  0  0  0  0  0  0  0  0
  138.6957   69.3403  226.3679 H   0  0  0  0  0  0  0  0  0  0  0  0
  140.1860   70.8200  225.8180 C   0  0  0  0  0  0  0  0  0  0  0  0
  140.5185   70.9875  226.8531 H   0  0  0  0  0  0  0  0  0  0  0  0
  140.7790   71.5260  224.7690 C   0  0  0  0  0  0  0  0  0  0  0  0
  141.5800   72.2517  224.9735 H   0  0  0  0  0  0  0  0  0  0  0  0
  1  2  1  0
  2  3  2  0
  3  4  1  0
  3  5  1  0
  5  6  2  0
  6  7  1  0
  7  8  2  0
  8  9  1  0
  8 10  1  0
 10 11  1  0
 10 12  2  0
 12 13  1  0
 12 14  1  0
 14 15  1  0
 14 16  2  0
 16 17  1  0
 17 18  2  0
 17 19  1  0
 19 20  1  0
 20 21  1  0
 20 22  1  0
 20 23  1  0
 23 24  1  6
 23 25  1  0
 25 26  1  0
 25 27  1  0
 25 28  1  0
 28 29  1  0
 28 30  1  0
 30 31  1  0
 30 32  1  0
 30 33  1  0
 33 34  1  0
 33 35  1  0
 33 36  1  0
 36 37  1  0
 36 38  1  0
  2 39  1  0
 39 40  2  0
 40 41  1  0
 41 42  1  0
 41 43  2  0
 43 44  1  0
 43 45  1  0
 45 46  1  0
 45 47  2  0
 47 48  1  0
 19  5  1  0
 36 23  1  0
 47 39  1  0
 16  7  1  0
M  END
>  <UniqueID>  (5) 
432

>  <SMILES>  (5) 
O=c1c2ccc(Cl)cc2nc(/C=C/c2ccccn2)n1C[C@H]1CCCNC1

>  <Energy>  (5) 
67.45969388579687

>  <Genealogy>  (5) 
O=c1c2ccc(Cl)cc2nc(/C=C/c2ccccn2)n1C[C@H]1CCCNC1 (chirality)
O=c1c2ccc(Cl)cc2nc(/C=C/c2ccccn2)n1C[C@H]1CCCNC1 (cis-trans isomerization)
O=c1c2ccc(Cl)cc2nc(/C=C/c2ccccn2)n1C[C@H]1CCCNC1 (3D coordinates assigned)
O=c1c2ccc(Cl)cc2nc(/C=C/c2ccccn2)n1C[C@H]1CCCNC1 (nonaromatic ring conformer: 67.45969388579687 kcal/mol)

>  <smiles>  (5) 
O=c1c2ccc(Cl)cc2nc(/C=C/c2ccccn2)n1CC1CCCNC1

>  <score_type>  (5) 
oracle

>  <origin>  (5) 
autodockgpu

>  <m_score__min__energy>  (5) 
-8.0899999999999999

>  <m_primary>  (5) 
energy

>  <meeko>  (5) 
{"free_energy": -7.92, "intermolecular_energy": -9.41, "internal_energy": -0.94, "cluster_size": 7, "cluster_id": 1, "rank_in_cluster": 3}

>  <energy>  (5) 
-7.76

>  <cluster_rmsd>  (5) 
0.78

>  <rmsd>  (5) 
271.38

>  <cluster>  (5) 
1

$$$$
MESWETRYUNDHFU-HEWZJLJBNA-N
     RDKit          3D

 48 51  0  0  0  0  0  0  0  0999 V2000
  139.9240   76.2439  223.0204 H   0  0  0  0  0  0  0  0  0  0  0  0
  140.6990   76.8380  222.5140 C   0  0  0  0  0  0  0  0  0  0  0  0
  141.3940   76.2740  221.5160 C   0  0  0  0  0  0  0  0  0  0  0  0
  141.7118   75.2254  221.6136 H   0  0  0  0  0  0  0  0  0  0  0  0
  141.7490   77.0240  220.2790 C   0  0  0  0  0  0  0  0  0  0  0  0
  141.5910   78.3750  220.2980 N   0  0  0  0  0  0  0  0  0  0  0  0
  141.8540   79.1490  219.2220 C   0  0  0  0  0  0  0  0  0  0  0  0
  141.6740   80.5350  219.2960 C   0  0  0  0  0  0  0  0  0  0  0  0
  141.3219   80.9948  220.2312 H   0  0  0  0  0  0  0  0  0  0  0  0
  141.9420   81.3360  218.1800 C   0  0  0  0  0  0  0  0  0  0  0  0
  141.7150   83.0730  218.2720 Cl  0  0  0  0  0  0  0  0  0  0  0  0
  142.3900   80.7510  216.9910 C   0  0  0  0  0  0  0  0  0  0  0  0
  142.6005   81.3815  216.1145 H   0  0  0  0  0  0  0  0  0  0  0  0
  142.5710   79.3660  216.9140 C   0  0  0  0  0  0  0  0  0  0  0  0
  142.9233   78.9098  215.9771 H   0  0  0  0  0  0  0  0  0  0  0  0
  142.3030   78.5540  218.0340 C   0  0  0  0  0  0  0  0  0  0  0  0
  142.4720   77.1610  218.0110 C   0  0  0  0  0  0  0  0  0  0  0  0
  142.8880   76.6080  216.9520 O   0  0  0  0  0  0  0  0  0  0  0  0
  142.1970   76.4010  219.1280 N   0  0  0  0  0  0  0  0  0  0  0  0
  142.4250   74.9380  219.0570 C   0  0  0  0  0  0  0  0  0  0  0  0
  141.7324   74.4365  219.7489 H   0  0  0  0  0  0  0  0  0  0  0  0
  142.2521   74.6168  218.0193 H   0  0  0  0  0  0  0  0  0  0  0  0
  143.8760   74.5590  219.4400 C   0  0  2  0  0  0  0  0  0  0  0  0
  144.4504   75.4967  219.4689 H   0  0  0  0  0  0  0  0  0  0  0  0
  144.5490   73.6450  218.3950 C   0  0  0  0  0  0  0  0  0  0  0  0
  144.4883   74.1310  217.4100 H   0  0  0  0  0  0  0  0  0  0  0  0
  144.0194   72.6809  218.4036 H   0  0  0  0  0  0  0  0  0  0  0  0
  145.9690   73.3800  218.7060 N   0  0  0  0  0  0  0  0  0  0  0  0
  146.5580   74.0880  218.2090 H   0  0  0  0  0  0  0  0  0  0  0  0
  146.3080   73.4360  220.1420 C   0  0  0  0  0  0  0  0  0  0  0  0
  146.5724   74.4712  220.4037 H   0  0  0  0  0  0  0  0  0  0  0  0
  147.1511   72.7517  220.3175 H   0  0  0  0  0  0  0  0  0  0  0  0
  145.1430   72.9850  221.0280 C   0  0  0  0  0  0  0  0  0  0  0  0
  145.4562   73.0284  222.0816 H   0  0  0  0  0  0  0  0  0  0  0  0
  144.8692   71.9576  220.7459 H   0  0  0  0  0  0  0  0  0  0  0  0
  143.9110   73.8880  220.8330 C   0  0  0  0  0  0  0  0  0  0  0  0
  143.9261   74.6744  221.6019 H   0  0  0  0  0  0  0  0  0  0  0  0
  143.0171   73.2526  220.9178 H   0  0  0  0  0  0  0  0  0  0  0  0
  140.9340   78.2270  222.9600 C   0  0  0  0  0  0  0  0  0  0  0  0
  142.1960   78.6700  223.2270 N   0  0  0  0  0  0  0  0  0  0  0  0
  142.4420   79.9420  223.6390 C   0  0  0  0  0  0  0  0  0  0  0  0
  143.4736   80.2634  223.8449 H   0  0  0  0  0  0  0  0  0  0  0  0
  141.3850   80.8410  223.8010 C   0  0  0  0  0  0  0  0  0  0  0  0
  141.5774   81.8716  224.1338 H   0  0  0  0  0  0  0  0  0  0  0  0
  140.0830   80.4170  223.5360 C   0  0  0  0  0  0  0  0  0  0  0  0
  139.2406   81.1134  223.6598 H   0  0  0  0  0  0  0  0  0  0  0  0
  139.8510   79.1060  223.1130 C   0  0  0  0  0  0  0  0  0  0  0  0
  138.8267   78.7652  222.9014 H   0  0  0  0  0  0  0  0  0  0  0  0
  1  2  1  0
  2  3  2  0
  3  4  1  0
  3  5  1  0
  5  6  2  0
  6  7  1  0
  7  8  2  0
  8  9  1  0
  8 10  1  0
 10 11  1  0
 10 12  2  0
 12 13  1  0
 12 14  1  0
 14 15  1  0
 14 16  2  0
 16 17  1  0
 17 18  2  0
 17 19  1  0
 19 20  1  0
 20 21  1  0
 20 22  1  0
 20 23  1  0
 23 24  1  1
 23 25  1  0
 25 26  1  0
 25 27  1  0
 25 28  1  0
 28 29  1  0
 28 30  1  0
 30 31  1  0
 30 32  1  0
 30 33  1  0
 33 34  1  0
 33 35  1  0
 33 36  1  0
 36 37  1  0
 36 38  1  0
  2 39  1  0
 39 40  2  0
 40 41  1  0
 41 42  1  0
 41 43  2  0
 43 44  1  0
 43 45  1  0
 45 46  1  0
 45 47  2  0
 47 48  1  0
 19  5  1  0
 36 23  1  0
 47 39  1  0
 16  7  1  0
M  END
>  <UniqueID>  (6) 
432

>  <SMILES>  (6) 
O=c1c2ccc(Cl)cc2nc(/C=C/c2ccccn2)n1C[C@H]1CCCNC1

>  <Energy>  (6) 
67.45969388579687

>  <Genealogy>  (6) 
O=c1c2ccc(Cl)cc2nc(/C=C/c2ccccn2)n1C[C@H]1CCCNC1 (chirality)
O=c1c2ccc(Cl)cc2nc(/C=C/c2ccccn2)n1C[C@H]1CCCNC1 (cis-trans isomerization)
O=c1c2ccc(Cl)cc2nc(/C=C/c2ccccn2)n1C[C@H]1CCCNC1 (3D coordinates assigned)
O=c1c2ccc(Cl)cc2nc(/C=C/c2ccccn2)n1C[C@H]1CCCNC1 (nonaromatic ring conformer: 67.45969388579687 kcal/mol)

>  <smiles>  (6) 
O=c1c2ccc(Cl)cc2nc(/C=C/c2ccccn2)n1CC1CCCNC1

>  <score_type>  (6) 
oracle

>  <origin>  (6) 
autodockgpu

>  <m_score__min__energy>  (6) 
-8.0899999999999999

>  <m_primary>  (6) 
energy

>  <meeko>  (6) 
{"free_energy": -7.31, "intermolecular_energy": -8.8, "internal_energy": -1.22, "cluster_size": 3, "cluster_id": 3, "rank_in_cluster": 3}

>  <energy>  (6) 
-7.5

>  <cluster_rmsd>  (6) 
0.84

>  <rmsd>  (6) 
271.32

>  <cluster>  (6) 
1

$$$$
MESWETRYUNDHFU-HEWZJLJBNA-N
     RDKit          3D

 48 51  0  0  0  0  0  0  0  0999 V2000
  142.1943   72.5068  222.0659 H   0  0  0  0  0  0  0  0  0  0  0  0
  141.1020   72.5890  221.9650 C   0  0  0  0  0  0  0  0  0  0  0  0
  140.6010   73.3810  221.0070 C   0  0  0  0  0  0  0  0  0  0  0  0
  139.9184   72.9486  220.2607 H   0  0  0  0  0  0  0  0  0  0  0  0
  140.9400   74.8280  220.9220 C   0  0  0  0  0  0  0  0  0  0  0  0
  140.3340   75.6670  221.8040 N   0  0  0  0  0  0  0  0  0  0  0  0
  140.5460   77.0020  221.7960 C   0  0  0  0  0  0  0  0  0  0  0  0
  139.8950   77.8200  222.7270 C   0  0  0  0  0  0  0  0  0  0  0  0
  139.2134   77.3759  223.4674 H   0  0  0  0  0  0  0  0  0  0  0  0
  140.1110   79.2020  222.7160 C   0  0  0  0  0  0  0  0  0  0  0  0
  139.2940   80.2270  223.8820 Cl  0  0  0  0  0  0  0  0  0  0  0  0
  140.9780   79.7660  221.7750 C   0  0  0  0  0  0  0  0  0  0  0  0
  141.1477   80.8528  221.7677 H   0  0  0  0  0  0  0  0  0  0  0  0
  141.6300   78.9520  220.8430 C   0  0  0  0  0  0  0  0  0  0  0  0
  142.3104   79.4001  220.1039 H   0  0  0  0  0  0  0  0  0  0  0  0
  141.4170   77.5590  220.8490 C   0  0  0  0  0  0  0  0  0  0  0  0
  142.0490   76.6970  219.9400 C   0  0  0  0  0  0  0  0  0  0  0  0
  142.8480   77.1800  219.0870 O   0  0  0  0  0  0  0  0  0  0  0  0
  141.8120   75.3400  219.9770 N   0  0  0  0  0  0  0  0  0  0  0  0
  142.5320   74.4730  219.0150 C   0  0  0  0  0  0  0  0  0  0  0  0
  142.0499   73.4844  218.9982 H   0  0  0  0  0  0  0  0  0  0  0  0
  142.4890   74.9536  218.0265 H   0  0  0  0  0  0  0  0  0  0  0  0
  144.0220   74.2960  219.3960 C   0  0  2  0  0  0  0  0  0  0  0  0
  144.4842   75.2922  219.3333 H   0  0  0  0  0  0  0  0  0  0  0  0
  144.7840   73.3790  218.4170 C   0  0  0  0  0  0  0  0  0  0  0  0
  144.6561   73.7687  217.3963 H   0  0  0  0  0  0  0  0  0  0  0  0
  144.3697   72.3650  218.5173 H   0  0  0  0  0  0  0  0  0  0  0  0
  146.2290   73.3060  218.7190 N   0  0  0  0  0  0  0  0  0  0  0  0
  146.7260   74.0330  218.1520 H   0  0  0  0  0  0  0  0  0  0  0  0
  146.5760   73.5230  220.1370 C   0  0  0  0  0  0  0  0  0  0  0  0
  146.7218   74.6002  220.3054 H   0  0  0  0  0  0  0  0  0  0  0  0
  147.4947   72.9571  220.3509 H   0  0  0  0  0  0  0  0  0  0  0  0
  145.4810   73.0190  221.0830 C   0  0  0  0  0  0  0  0  0  0  0  0
  145.7994   73.1883  222.1222 H   0  0  0  0  0  0  0  0  0  0  0  0
  145.3249   71.9467  220.8938 H   0  0  0  0  0  0  0  0  0  0  0  0
  144.1510   73.7540  220.8400 C   0  0  0  0  0  0  0  0  0  0  0  0
  144.0833   74.5995  221.5404 H   0  0  0  0  0  0  0  0  0  0  0  0
  143.3382   73.0295  220.9963 H   0  0  0  0  0  0  0  0  0  0  0  0
  140.2420   71.8210  222.8920 C   0  0  0  0  0  0  0  0  0  0  0  0
  140.7280   71.3740  224.0850 N   0  0  0  0  0  0  0  0  0  0  0  0
  139.9590   70.6660  224.9560 C   0  0  0  0  0  0  0  0  0  0  0  0
  140.3845   70.3212  225.9100 H   0  0  0  0  0  0  0  0  0  0  0  0
  138.6310   70.3770  224.6400 C   0  0  0  0  0  0  0  0  0  0  0  0
  138.0047   69.8047  225.3402 H   0  0  0  0  0  0  0  0  0  0  0  0
  138.1060   70.8220  223.4260 C   0  0  0  0  0  0  0  0  0  0  0  0
  137.0608   70.6016  223.1635 H   0  0  0  0  0  0  0  0  0  0  0  0
  138.9110   71.5480  222.5450 C   0  0  0  0  0  0  0  0  0  0  0  0
  138.5041   71.9028  221.5866 H   0  0  0  0  0  0  0  0  0  0  0  0
  1  2  1  0
  2  3  2  0
  3  4  1  0
  3  5  1  0
  5  6  2  0
  6  7  1  0
  7  8  2  0
  8  9  1  0
  8 10  1  0
 10 11  1  0
 10 12  2  0
 12 13  1  0
 12 14  1  0
 14 15  1  0
 14 16  2  0
 16 17  1  0
 17 18  2  0
 17 19  1  0
 19 20  1  0
 20 21  1  0
 20 22  1  0
 20 23  1  0
 23 24  1  1
 23 25  1  0
 25 26  1  0
 25 27  1  0
 25 28  1  0
 28 29  1  0
 28 30  1  0
 30 31  1  0
 30 32  1  0
 30 33  1  0
 33 34  1  0
 33 35  1  0
 33 36  1  0
 36 37  1  0
 36 38  1  0
  2 39  1  0
 39 40  2  0
 40 41  1  0
 41 42  1  0
 41 43  2  0
 43 44  1  0
 43 45  1  0
 45 46  1  0
 45 47  2  0
 47 48  1  0
 19  5  1  0
 36 23  1  0
 47 39  1  0
 16  7  1  0
M  END
>  <UniqueID>  (7) 
432

>  <SMILES>  (7) 
O=c1c2ccc(Cl)cc2nc(/C=C/c2ccccn2)n1C[C@H]1CCCNC1

>  <Energy>  (7) 
67.45969388579687

>  <Genealogy>  (7) 
O=c1c2ccc(Cl)cc2nc(/C=C/c2ccccn2)n1C[C@H]1CCCNC1 (chirality)
O=c1c2ccc(Cl)cc2nc(/C=C/c2ccccn2)n1C[C@H]1CCCNC1 (cis-trans isomerization)
O=c1c2ccc(Cl)cc2nc(/C=C/c2ccccn2)n1C[C@H]1CCCNC1 (3D coordinates assigned)
O=c1c2ccc(Cl)cc2nc(/C=C/c2ccccn2)n1C[C@H]1CCCNC1 (nonaromatic ring conformer: 67.45969388579687 kcal/mol)

>  <smiles>  (7) 
O=c1c2ccc(Cl)cc2nc(/C=C/c2ccccn2)n1CC1CCCNC1

>  <score_type>  (7) 
oracle

>  <origin>  (7) 
autodockgpu

>  <m_score__min__energy>  (7) 
-8.0899999999999999

>  <m_primary>  (7) 
energy

>  <meeko>  (7) 
{"free_energy": -7.5, "intermolecular_energy": -8.99, "internal_energy": -1.09, "cluster_size": 7, "cluster_id": 1, "rank_in_cluster": 6}

>  <energy>  (7) 
-7.48

>  <cluster_rmsd>  (7) 
1.26

>  <rmsd>  (7) 
271.56

>  <cluster>  (7) 
1

$$$$
MESWETRYUNDHFU-HEWZJLJBNA-N
     RDKit          3D

 48 51  0  0  0  0  0  0  0  0999 V2000
  142.0159   71.6344  222.0332 H   0  0  0  0  0  0  0  0  0  0  0  0
  141.0220   71.9290  222.4010 C   0  0  0  0  0  0  0  0  0  0  0  0
  140.2820   72.7650  221.6590 C   0  0  0  0  0  0  0  0  0  0  0  0
  139.3451   72.3971  221.2154 H   0  0  0  0  0  0  0  0  0  0  0  0
  140.6900   74.1770  221.4170 C   0  0  0  0  0  0  0  0  0  0  0  0
  140.0460   75.1460  222.1220 N   0  0  0  0  0  0  0  0  0  0  0  0
  140.3160   76.4600  221.9590 C   0  0  0  0  0  0  0  0  0  0  0  0
  139.6230   77.4150  222.7110 C   0  0  0  0  0  0  0  0  0  0  0  0
  138.8615   77.0961  223.4379 H   0  0  0  0  0  0  0  0  0  0  0  0
  139.8990   78.7760  222.5380 C   0  0  0  0  0  0  0  0  0  0  0  0
  139.0290   79.9740  223.4800 Cl  0  0  0  0  0  0  0  0  0  0  0  0
  140.8690   79.1810  221.6150 C   0  0  0  0  0  0  0  0  0  0  0  0
  141.0863   80.2510  221.4813 H   0  0  0  0  0  0  0  0  0  0  0  0
  141.5630   78.2290  220.8620 C   0  0  0  0  0  0  0  0  0  0  0  0
  142.3242   78.5515  220.1364 H   0  0  0  0  0  0  0  0  0  0  0  0
  141.2890   76.8570  221.0310 C   0  0  0  0  0  0  0  0  0  0  0  0
  141.9610   75.8610  220.3050 C   0  0  0  0  0  0  0  0  0  0  0  0
  142.8510   76.1990  219.4730 O   0  0  0  0  0  0  0  0  0  0  0  0
  141.6620   74.5290  220.4980 N   0  0  0  0  0  0  0  0  0  0  0  0
  142.4250   73.5180  219.7270 C   0  0  0  0  0  0  0  0  0  0  0  0
  142.1979   72.5193  220.1284 H   0  0  0  0  0  0  0  0  0  0  0  0
  142.1269   73.5992  218.6713 H   0  0  0  0  0  0  0  0  0  0  0  0
  143.9520   73.7560  219.8130 C   0  0  2  0  0  0  0  0  0  0  0  0
  144.1133   74.8310  219.6446 H   0  0  0  0  0  0  0  0  0  0  0  0
  144.7360   73.0000  218.7200 C   0  0  0  0  0  0  0  0  0  0  0  0
  144.3234   73.2726  217.7374 H   0  0  0  0  0  0  0  0  0  0  0  0
  144.6313   71.9230  218.9178 H   0  0  0  0  0  0  0  0  0  0  0  0
  146.1780   73.3210  218.7340 N   0  0  0  0  0  0  0  0  0  0  0  0
  146.3520   74.1100  218.0680 H   0  0  0  0  0  0  0  0  0  0  0  0
  146.7110   73.7160  220.0540 C   0  0  0  0  0  0  0  0  0  0  0  0
  146.5953   74.8035  220.1722 H   0  0  0  0  0  0  0  0  0  0  0  0
  147.7698   73.4204  220.0938 H   0  0  0  0  0  0  0  0  0  0  0  0
  145.9820   73.0140  221.2040 C   0  0  0  0  0  0  0  0  0  0  0  0
  146.4293   73.3299  222.1580 H   0  0  0  0  0  0  0  0  0  0  0  0
  146.0837   71.9272  221.0681 H   0  0  0  0  0  0  0  0  0  0  0  0
  144.4840   73.3650  221.2120 C   0  0  0  0  0  0  0  0  0  0  0  0
  144.3249   74.2106  221.8974 H   0  0  0  0  0  0  0  0  0  0  0  0
  143.9356   72.4681  221.5359 H   0  0  0  0  0  0  0  0  0  0  0  0
  140.5540   71.3880  223.6940 C   0  0  0  0  0  0  0  0  0  0  0  0
  141.0550   71.8600  224.8710 N   0  0  0  0  0  0  0  0  0  0  0  0
  140.6420   71.3800  226.0750 C   0  0  0  0  0  0  0  0  0  0  0  0
  141.0687   71.7856  227.0042 H   0  0  0  0  0  0  0  0  0  0  0  0
  139.6770   70.3730  226.1320 C   0  0  0  0  0  0  0  0  0  0  0  0
  139.3397   69.9803  227.1026 H   0  0  0  0  0  0  0  0  0  0  0  0
  139.1450   69.8700  224.9440 C   0  0  0  0  0  0  0  0  0  0  0  0
  138.3833   69.0769  224.9732 H   0  0  0  0  0  0  0  0  0  0  0  0
  139.5820   70.3760  223.7180 C   0  0  0  0  0  0  0  0  0  0  0  0
  139.1672   69.9841  222.7776 H   0  0  0  0  0  0  0  0  0  0  0  0
  1  2  1  0
  2  3  2  0
  3  4  1  0
  3  5  1  0
  5  6  2  0
  6  7  1  0
  7  8  2  0
  8  9  1  0
  8 10  1  0
 10 11  1  0
 10 12  2  0
 12 13  1  0
 12 14  1  0
 14 15  1  0
 14 16  2  0
 16 17  1  0
 17 18  2  0
 17 19  1  0
 19 20  1  0
 20 21  1  0
 20 22  1  0
 20 23  1  0
 23 24  1  6
 23 25  1  0
 25 26  1  0
 25 27  1  0
 25 28  1  0
 28 29  1  0
 28 30  1  0
 30 31  1  0
 30 32  1  0
 30 33  1  0
 33 34  1  0
 33 35  1  0
 33 36  1  0
 36 37  1  0
 36 38  1  0
  2 39  1  0
 39 40  2  0
 40 41  1  0
 41 42  1  0
 41 43  2  0
 43 44  1  0
 43 45  1  0
 45 46  1  0
 45 47  2  0
 47 48  1  0
 19  5  1  0
 36 23  1  0
 47 39  1  0
 16  7  1  0
M  END
>  <UniqueID>  (8) 
432

>  <SMILES>  (8) 
O=c1c2ccc(Cl)cc2nc(/C=C/c2ccccn2)n1C[C@H]1CCCNC1

>  <Energy>  (8) 
67.45969388579687

>  <Genealogy>  (8) 
O=c1c2ccc(Cl)cc2nc(/C=C/c2ccccn2)n1C[C@H]1CCCNC1 (chirality)
O=c1c2ccc(Cl)cc2nc(/C=C/c2ccccn2)n1C[C@H]1CCCNC1 (cis-trans isomerization)
O=c1c2ccc(Cl)cc2nc(/C=C/c2ccccn2)n1C[C@H]1CCCNC1 (3D coordinates assigned)
O=c1c2ccc(Cl)cc2nc(/C=C/c2ccccn2)n1C[C@H]1CCCNC1 (nonaromatic ring conformer: 67.45969388579687 kcal/mol)

>  <smiles>  (8) 
O=c1c2ccc(Cl)cc2nc(/C=C/c2ccccn2)n1CC1CCCNC1

>  <score_type>  (8) 
oracle

>  <origin>  (8) 
autodockgpu

>  <m_score__min__energy>  (8) 
-8.0899999999999999

>  <m_primary>  (8) 
energy

>  <meeko>  (8) 
{"free_energy": -7.91, "intermolecular_energy": -9.4, "internal_energy": -0.93, "cluster_size": 7, "cluster_id": 1, "rank_in_cluster": 4}

>  <energy>  (8) 
-7.79

>  <cluster_rmsd>  (8) 
0.0

>  <rmsd>  (8) 
271.25

>  <cluster>  (8) 
2

$$$$
MESWETRYUNDHFU-HEWZJLJBNA-N
     RDKit          3D

 48 51  0  0  0  0  0  0  0  0999 V2000
  138.4056   72.4761  222.2295 H   0  0  0  0  0  0  0  0  0  0  0  0
  139.4480   72.2370  222.4870 C   0  0  0  0  0  0  0  0  0  0  0  0
  140.4220   72.6140  221.6460 C   0  0  0  0  0  0  0  0  0  0  0  0
  141.0085   71.8405  221.1286 H   0  0  0  0  0  0  0  0  0  0  0  0
  140.7340   74.0470  221.3910 C   0  0  0  0  0  0  0  0  0  0  0  0
  140.0580   74.9760  222.1200 N   0  0  0  0  0  0  0  0  0  0  0  0
  140.2410   76.3030  221.9480 C   0  0  0  0  0  0  0  0  0  0  0  0
  139.5180   77.2160  222.7250 C   0  0  0  0  0  0  0  0  0  0  0  0
  138.8035   76.8523  223.4781 H   0  0  0  0  0  0  0  0  0  0  0  0
  139.7040   78.5910  222.5440 C   0  0  0  0  0  0  0  0  0  0  0  0
  138.7970   79.7350  223.5180 Cl  0  0  0  0  0  0  0  0  0  0  0  0
  140.6130   79.0530  221.5870 C   0  0  0  0  0  0  0  0  0  0  0  0
  140.7589   80.1341  221.4458 H   0  0  0  0  0  0  0  0  0  0  0  0
  141.3370   78.1440  220.8090 C   0  0  0  0  0  0  0  0  0  0  0  0
  142.0509   78.5116  220.0572 H   0  0  0  0  0  0  0  0  0  0  0  0
  141.1540   76.7590  220.9860 C   0  0  0  0  0  0  0  0  0  0  0  0
  141.8590   75.8040  220.2350 C   0  0  0  0  0  0  0  0  0  0  0  0
  142.6960   76.1950  219.3720 O   0  0  0  0  0  0  0  0  0  0  0  0
  141.6500   74.4570  220.4370 N   0  0  0  0  0  0  0  0  0  0  0  0
  142.4440   73.4940  219.6390 C   0  0  0  0  0  0  0  0  0  0  0  0
  142.2263   72.4752  219.9920 H   0  0  0  0  0  0  0  0  0  0  0  0
  142.1650   73.6162  218.5820 H   0  0  0  0  0  0  0  0  0  0  0  0
  143.9650   73.7530  219.7660 C   0  0  2  0  0  0  0  0  0  0  0  0
  144.1185   74.8262  219.5797 H   0  0  0  0  0  0  0  0  0  0  0  0
  144.7910   72.9840  218.7130 C   0  0  0  0  0  0  0  0  0  0  0  0
  144.4047   73.2303  217.7129 H   0  0  0  0  0  0  0  0  0  0  0  0
  144.6937   71.9102  218.9307 H   0  0  0  0  0  0  0  0  0  0  0  0
  146.2280   73.3240  218.7630 N   0  0  0  0  0  0  0  0  0  0  0  0
  146.4120   74.1010  218.0860 H   0  0  0  0  0  0  0  0  0  0  0  0
  146.7160   73.7530  220.0890 C   0  0  0  0  0  0  0  0  0  0  0  0
  146.5838   74.8412  220.1804 H   0  0  0  0  0  0  0  0  0  0  0  0
  147.7765   73.4714  220.1666 H   0  0  0  0  0  0  0  0  0  0  0  0
  145.9610   73.0660  221.2320 C   0  0  0  0  0  0  0  0  0  0  0  0
  146.3759   73.4072  222.1919 H   0  0  0  0  0  0  0  0  0  0  0  0
  146.0793   71.9779  221.1224 H   0  0  0  0  0  0  0  0  0  0  0  0
  144.4590   73.3990  221.1880 C   0  0  0  0  0  0  0  0  0  0  0  0
  144.2698   74.2572  221.8496 H   0  0  0  0  0  0  0  0  0  0  0  0
  143.9114   72.5029  221.5153 H   0  0  0  0  0  0  0  0  0  0  0  0
  139.7200   71.5130  223.7460 C   0  0  0  0  0  0  0  0  0  0  0  0
  140.7370   71.9000  224.5680 N   0  0  0  0  0  0  0  0  0  0  0  0
  141.0100   71.2520  225.7320 C   0  0  0  0  0  0  0  0  0  0  0  0
  141.8382   71.5935  226.3704 H   0  0  0  0  0  0  0  0  0  0  0  0
  140.2390   70.1530  226.1170 C   0  0  0  0  0  0  0  0  0  0  0  0
  140.4548   69.6243  227.0572 H   0  0  0  0  0  0  0  0  0  0  0  0
  139.1920   69.7330  225.2960 C   0  0  0  0  0  0  0  0  0  0  0  0
  138.5769   68.8683  225.5857 H   0  0  0  0  0  0  0  0  0  0  0  0
  138.9270   70.4130  224.1060 C   0  0  0  0  0  0  0  0  0  0  0  0
  138.1019   70.0886  223.4549 H   0  0  0  0  0  0  0  0  0  0  0  0
  1  2  1  0
  2  3  2  0
  3  4  1  0
  3  5  1  0
  5  6  2  0
  6  7  1  0
  7  8  2  0
  8  9  1  0
  8 10  1  0
 10 11  1  0
 10 12  2  0
 12 13  1  0
 12 14  1  0
 14 15  1  0
 14 16  2  0
 16 17  1  0
 17 18  2  0
 17 19  1  0
 19 20  1  0
 20 21  1  0
 20 22  1  0
 20 23  1  0
 23 24  1  6
 23 25  1  0
 25 26  1  0
 25 27  1  0
 25 28  1  0
 28 29  1  0
 28 30  1  0
 30 31  1  0
 30 32  1  0
 30 33  1  0
 33 34  1  0
 33 35  1  0
 33 36  1  0
 36 37  1  0
 36 38  1  0
  2 39  1  0
 39 40  2  0
 40 41  1  0
 41 42  1  0
 41 43  2  0
 43 44  1  0
 43 45  1  0
 45 46  1  0
 45 47  2  0
 47 48  1  0
 19  5  1  0
 36 23  1  0
 47 39  1  0
 16  7  1  0
M  END
>  <UniqueID>  (9) 
432

>  <SMILES>  (9) 
O=c1c2ccc(Cl)cc2nc(/C=C/c2ccccn2)n1C[C@H]1CCCNC1

>  <Energy>  (9) 
67.45969388579687

>  <Genealogy>  (9) 
O=c1c2ccc(Cl)cc2nc(/C=C/c2ccccn2)n1C[C@H]1CCCNC1 (chirality)
O=c1c2ccc(Cl)cc2nc(/C=C/c2ccccn2)n1C[C@H]1CCCNC1 (cis-trans isomerization)
O=c1c2ccc(Cl)cc2nc(/C=C/c2ccccn2)n1C[C@H]1CCCNC1 (3D coordinates assigned)
O=c1c2ccc(Cl)cc2nc(/C=C/c2ccccn2)n1C[C@H]1CCCNC1 (nonaromatic ring conformer: 67.45969388579687 kcal/mol)

>  <smiles>  (9) 
O=c1c2ccc(Cl)cc2nc(/C=C/c2ccccn2)n1CC1CCCNC1

>  <score_type>  (9) 
oracle

>  <origin>  (9) 
autodockgpu

>  <m_score__min__energy>  (9) 
-8.0899999999999999

>  <m_primary>  (9) 
energy

>  <meeko>  (9) 
{"free_energy": -8.09, "intermolecular_energy": -9.58, "internal_energy": -0.94, "cluster_size": 7, "cluster_id": 1, "rank_in_cluster": 1}

>  <energy>  (9) 
-7.77

>  <cluster_rmsd>  (9) 
0.56

>  <rmsd>  (9) 
271.29

>  <cluster>  (9) 
2

$$$$
MESWETRYUNDHFU-HEWZJLJBNA-N
     RDKit          3D

 48 51  0  0  0  0  0  0  0  0999 V2000
  139.7035   75.8903  222.9109 H   0  0  0  0  0  0  0  0  0  0  0  0
  140.4390   76.5370  222.4100 C   0  0  0  0  0  0  0  0  0  0  0  0
  141.1550   76.0330  221.3950 C   0  0  0  0  0  0  0  0  0  0  0  0
  141.4386   74.9704  221.4183 H   0  0  0  0  0  0  0  0  0  0  0  0
  141.5780   76.8680  220.2370 C   0  0  0  0  0  0  0  0  0  0  0  0
  141.3600   78.2090  220.3170 N   0  0  0  0  0  0  0  0  0  0  0  0
  141.6770   79.0550  219.3120 C   0  0  0  0  0  0  0  0  0  0  0  0
  141.4310   80.4260  219.4480 C   0  0  0  0  0  0  0  0  0  0  0  0
  140.9835   80.8150  220.3745 H   0  0  0  0  0  0  0  0  0  0  0  0
  141.7540   81.3020  218.4060 C   0  0  0  0  0  0  0  0  0  0  0  0
  141.4450   83.0210  218.5760 Cl  0  0  0  0  0  0  0  0  0  0  0  0
  142.3250   80.8060  217.2290 C   0  0  0  0  0  0  0  0  0  0  0  0
  142.5812   81.4955  216.4111 H   0  0  0  0  0  0  0  0  0  0  0  0
  142.5710   79.4370  217.0890 C   0  0  0  0  0  0  0  0  0  0  0  0
  143.0175   79.0516  216.1605 H   0  0  0  0  0  0  0  0  0  0  0  0
  142.2480   78.5500  218.1350 C   0  0  0  0  0  0  0  0  0  0  0  0
  142.4790   77.1680  218.0490 C   0  0  0  0  0  0  0  0  0  0  0  0
  143.0050   76.6960  217.0000 O   0  0  0  0  0  0  0  0  0  0  0  0
  142.1470   76.3330  219.0940 N   0  0  0  0  0  0  0  0  0  0  0  0
  142.4430   74.8870  218.9610 C   0  0  0  0  0  0  0  0  0  0  0  0
  141.7383   74.3207  219.5877 H   0  0  0  0  0  0  0  0  0  0  0  0
  142.3387   74.6140  217.9005 H   0  0  0  0  0  0  0  0  0  0  0  0
  143.8880   74.5500  219.4030 C   0  0  2  0  0  0  0  0  0  0  0  0
  144.4424   75.4999  219.4211 H   0  0  0  0  0  0  0  0  0  0  0  0
  144.6120   73.6170  218.4100 C   0  0  0  0  0  0  0  0  0  0  0  0
  144.5742   74.0701  217.4084 H   0  0  0  0  0  0  0  0  0  0  0  0
  144.1009   72.6432  218.4326 H   0  0  0  0  0  0  0  0  0  0  0  0
  146.0260   73.3910  218.7750 N   0  0  0  0  0  0  0  0  0  0  0  0
  146.6180   74.0960  218.2750 H   0  0  0  0  0  0  0  0  0  0  0  0
  146.3170   73.4990  220.2190 C   0  0  0  0  0  0  0  0  0  0  0  0
  146.5526   74.5470  220.4561 H   0  0  0  0  0  0  0  0  0  0  0  0
  147.1674   72.8385  220.4439 H   0  0  0  0  0  0  0  0  0  0  0  0
  145.1310   73.0520  221.0800 C   0  0  0  0  0  0  0  0  0  0  0  0
  145.4077   73.1341  222.1415 H   0  0  0  0  0  0  0  0  0  0  0  0
  144.8866   72.0113  220.8209 H   0  0  0  0  0  0  0  0  0  0  0  0
  143.8900   73.9220  220.8170 C   0  0  0  0  0  0  0  0  0  0  0  0
  143.8639   74.7315  221.5613 H   0  0  0  0  0  0  0  0  0  0  0  0
  143.0066   73.2708  220.8919 H   0  0  0  0  0  0  0  0  0  0  0  0
  140.6000   77.9290  222.8820 C   0  0  0  0  0  0  0  0  0  0  0  0
  139.5620   78.8120  222.8150 N   0  0  0  0  0  0  0  0  0  0  0  0
  139.6820   80.0980  223.2410 C   0  0  0  0  0  0  0  0  0  0  0  0
  138.8236   80.7824  223.1718 H   0  0  0  0  0  0  0  0  0  0  0  0
  140.8940   80.5500  223.7660 C   0  0  0  0  0  0  0  0  0  0  0  0
  140.9969   81.5893  224.1114 H   0  0  0  0  0  0  0  0  0  0  0  0
  141.9730   79.6700  223.8480 C   0  0  0  0  0  0  0  0  0  0  0  0
  142.9337   80.0121  224.2603 H   0  0  0  0  0  0  0  0  0  0  0  0
  141.8300   78.3530  223.4050 C   0  0  0  0  0  0  0  0  0  0  0  0
  142.6765   77.6532  223.4660 H   0  0  0  0  0  0  0  0  0  0  0  0
  1  2  1  0
  2  3  2  0
  3  4  1  0
  3  5  1  0
  5  6  2  0
  6  7  1  0
  7  8  2  0
  8  9  1  0
  8 10  1  0
 10 11  1  0
 10 12  2  0
 12 13  1  0
 12 14  1  0
 14 15  1  0
 14 16  2  0
 16 17  1  0
 17 18  2  0
 17 19  1  0
 19 20  1  0
 20 21  1  0
 20 22  1  0
 20 23  1  0
 23 24  1  1
 23 25  1  0
 25 26  1  0
 25 27  1  0
 25 28  1  0
 28 29  1  0
 28 30  1  0
 30 31  1  0
 30 32  1  0
 30 33  1  0
 33 34  1  0
 33 35  1  0
 33 36  1  0
 36 37  1  0
 36 38  1  0
  2 39  1  0
 39 40  2  0
 40 41  1  0
 41 42  1  0
 41 43  2  0
 43 44  1  0
 43 45  1  0
 45 46  1  0
 45 47  2  0
 47 48  1  0
 19  5  1  0
 36 23  1  0
 47 39  1  0
 16  7  1  0
M  END
>  <UniqueID>  (10) 
432

>  <SMILES>  (10) 
O=c1c2ccc(Cl)cc2nc(/C=C/c2ccccn2)n1C[C@H]1CCCNC1

>  <Energy>  (10) 
67.45969388579687

>  <Genealogy>  (10) 
O=c1c2ccc(Cl)cc2nc(/C=C/c2ccccn2)n1C[C@H]1CCCNC1 (chirality)
O=c1c2ccc(Cl)cc2nc(/C=C/c2ccccn2)n1C[C@H]1CCCNC1 (cis-trans isomerization)
O=c1c2ccc(Cl)cc2nc(/C=C/c2ccccn2)n1C[C@H]1CCCNC1 (3D coordinates assigned)
O=c1c2ccc(Cl)cc2nc(/C=C/c2ccccn2)n1C[C@H]1CCCNC1 (nonaromatic ring conformer: 67.45969388579687 kcal/mol)

>  <smiles>  (10) 
O=c1c2ccc(Cl)cc2nc(/C=C/c2ccccn2)n1CC1CCCNC1

>  <score_type>  (10) 
oracle

>  <origin>  (10) 
autodockgpu

>  <m_score__min__energy>  (10) 
-8.0899999999999999

>  <m_primary>  (10) 
energy

>  <meeko>  (10) 
{"free_energy": -7.36, "intermolecular_energy": -8.85, "internal_energy": -1.19, "cluster_size": 3, "cluster_id": 3, "rank_in_cluster": 1}

>  <energy>  (10) 
-7.75

>  <cluster_rmsd>  (10) 
0.79

>  <rmsd>  (10) 
271.17

>  <cluster>  (10) 
2

$$$$
MESWETRYUNDHFU-HEWZJLJBNA-N
     RDKit          3D

 48 51  0  0  0  0  0  0  0  0999 V2000
  141.6608   71.3926  222.2240 H   0  0  0  0  0  0  0  0  0  0  0  0
  140.7840   71.7930  222.7540 C   0  0  0  0  0  0  0  0  0  0  0  0
  140.0200   72.7070  222.1380 C   0  0  0  0  0  0  0  0  0  0  0  0
  138.9472   72.5035  222.0055 H   0  0  0  0  0  0  0  0  0  0  0  0
  140.5800   73.9890  221.6280 C   0  0  0  0  0  0  0  0  0  0  0  0
  140.3130   75.1170  222.3400 N   0  0  0  0  0  0  0  0  0  0  0  0
  140.7460   76.3370  221.9520 C   0  0  0  0  0  0  0  0  0  0  0  0
  140.4410   77.4650  222.7220 C   0  0  0  0  0  0  0  0  0  0  0  0
  139.8522   77.3580  223.6449 H   0  0  0  0  0  0  0  0  0  0  0  0
  140.8850   78.7290  222.3180 C   0  0  0  0  0  0  0  0  0  0  0  0
  140.5030   80.1440  223.2830 Cl  0  0  0  0  0  0  0  0  0  0  0  0
  141.6340   78.8640  221.1440 C   0  0  0  0  0  0  0  0  0  0  0  0
  141.9831   79.8579  220.8274 H   0  0  0  0  0  0  0  0  0  0  0  0
  141.9400   77.7390  220.3720 C   0  0  0  0  0  0  0  0  0  0  0  0
  142.5284   77.8498  219.4492 H   0  0  0  0  0  0  0  0  0  0  0  0
  141.4960   76.4640  220.7740 C   0  0  0  0  0  0  0  0  0  0  0  0
  141.7790   75.3020  220.0390 C   0  0  0  0  0  0  0  0  0  0  0  0
  142.4650   75.3940  218.9810 O   0  0  0  0  0  0  0  0  0  0  0  0
  141.3240   74.0720  220.4650 N   0  0  0  0  0  0  0  0  0  0  0  0
  141.6800   72.8750  219.6670 C   0  0  0  0  0  0  0  0  0  0  0  0
  141.0981   72.0169  220.0346 H   0  0  0  0  0  0  0  0  0  0  0  0
  141.4504   73.0884  218.6126 H   0  0  0  0  0  0  0  0  0  0  0  0
  143.1870   72.5380  219.7700 C   0  0  2  0  0  0  0  0  0  0  0  0
  143.2533   71.4837  220.0766 H   0  0  0  0  0  0  0  0  0  0  0  0
  143.9130   73.3730  220.8450 C   0  0  0  0  0  0  0  0  0  0  0  0
  143.3883   73.2468  221.8035 H   0  0  0  0  0  0  0  0  0  0  0  0
  143.9054   74.4222  220.5145 H   0  0  0  0  0  0  0  0  0  0  0  0
  145.3230   72.9680  221.0200 N   0  0  0  0  0  0  0  0  0  0  0  0
  145.3750   72.2570  221.7860 H   0  0  0  0  0  0  0  0  0  0  0  0
  145.9520   72.3850  219.8180 C   0  0  0  0  0  0  0  0  0  0  0  0
  145.7708   71.3000  219.8139 H   0  0  0  0  0  0  0  0  0  0  0  0
  147.0280   72.6103  219.8562 H   0  0  0  0  0  0  0  0  0  0  0  0
  145.3910   72.9840  218.5250 C   0  0  0  0  0  0  0  0  0  0  0  0
  145.9059   72.5288  217.6661 H   0  0  0  0  0  0  0  0  0  0  0  0
  145.5560   74.0714  218.5455 H   0  0  0  0  0  0  0  0  0  0  0  0
  143.8800   72.7240  218.3990 C   0  0  0  0  0  0  0  0  0  0  0  0
  143.7288   71.8124  217.8023 H   0  0  0  0  0  0  0  0  0  0  0  0
  143.4313   73.6057  217.9181 H   0  0  0  0  0  0  0  0  0  0  0  0
  140.4930   71.3030  224.1180 C   0  0  0  0  0  0  0  0  0  0  0  0
  141.0720   71.8860  225.2070 N   0  0  0  0  0  0  0  0  0  0  0  0
  140.8220   71.4560  226.4720 C   0  0  0  0  0  0  0  0  0  0  0  0
  141.3067   71.9511  227.3264 H   0  0  0  0  0  0  0  0  0  0  0  0
  139.9510   70.3870  226.6880 C   0  0  0  0  0  0  0  0  0  0  0  0
  139.7455   70.0349  227.7097 H   0  0  0  0  0  0  0  0  0  0  0  0
  139.3440   69.7700  225.5940 C   0  0  0  0  0  0  0  0  0  0  0  0
  138.6561   68.9257  225.7487 H   0  0  0  0  0  0  0  0  0  0  0  0
  139.6120   70.2270  224.3020 C   0  0  0  0  0  0  0  0  0  0  0  0
  139.1356   69.7466  223.4346 H   0  0  0  0  0  0  0  0  0  0  0  0
  1  2  1  0
  2  3  2  0
  3  4  1  0
  3  5  1  0
  5  6  2  0
  6  7  1  0
  7  8  2  0
  8  9  1  0
  8 10  1  0
 10 11  1  0
 10 12  2  0
 12 13  1  0
 12 14  1  0
 14 15  1  0
 14 16  2  0
 16 17  1  0
 17 18  2  0
 17 19  1  0
 19 20  1  0
 20 21  1  0
 20 22  1  0
 20 23  1  0
 23 24  1  1
 23 25  1  0
 25 26  1  0
 25 27  1  0
 25 28  1  0
 28 29  1  0
 28 30  1  0
 30 31  1  0
 30 32  1  0
 30 33  1  0
 33 34  1  0
 33 35  1  0
 33 36  1  0
 36 37  1  0
 36 38  1  0
  2 39  1  0
 39 40  2  0
 40 41  1  0
 41 42  1  0
 41 43  2  0
 43 44  1  0
 43 45  1  0
 45 46  1  0
 45 47  2  0
 47 48  1  0
 19  5  1  0
 36 23  1  0
 47 39  1  0
 16  7  1  0
M  END
>  <UniqueID>  (11) 
432

>  <SMILES>  (11) 
O=c1c2ccc(Cl)cc2nc(/C=C/c2ccccn2)n1C[C@H]1CCCNC1

>  <Energy>  (11) 
67.45969388579687

>  <Genealogy>  (11) 
O=c1c2ccc(Cl)cc2nc(/C=C/c2ccccn2)n1C[C@H]1CCCNC1 (chirality)
O=c1c2ccc(Cl)cc2nc(/C=C/c2ccccn2)n1C[C@H]1CCCNC1 (cis-trans isomerization)
O=c1c2ccc(Cl)cc2nc(/C=C/c2ccccn2)n1C[C@H]1CCCNC1 (3D coordinates assigned)
O=c1c2ccc(Cl)cc2nc(/C=C/c2ccccn2)n1C[C@H]1CCCNC1 (nonaromatic ring conformer: 67.45969388579687 kcal/mol)

>  <smiles>  (11) 
O=c1c2ccc(Cl)cc2nc(/C=C/c2ccccn2)n1CC1CCCNC1

>  <score_type>  (11) 
oracle

>  <origin>  (11) 
autodockgpu

>  <m_score__min__energy>  (11) 
-8.0899999999999999

>  <m_primary>  (11) 
energy

>  <meeko>  (11) 
{"free_energy": -7.48, "intermolecular_energy": -8.97, "internal_energy": -0.97, "cluster_size": 7, "cluster_id": 1, "rank_in_cluster": 7}

>  <energy>  (11) 
-7.36

>  <cluster_rmsd>  (11) 
0.0

>  <rmsd>  (11) 
271.43

>  <cluster>  (11) 
3

$$$$
MESWETRYUNDHFU-HEWZJLJBNA-N
     RDKit          3D

 48 51  0  0  0  0  0  0  0  0999 V2000
  141.8747   80.3651  219.0814 H   0  0  0  0  0  0  0  0  0  0  0  0
  141.4590   79.7960  219.9260 C   0  0  0  0  0  0  0  0  0  0  0  0
  140.6330   78.7710  219.6690 C   0  0  0  0  0  0  0  0  0  0  0  0
  139.7065   78.9606  219.1071 H   0  0  0  0  0  0  0  0  0  0  0  0
  140.9320   77.3850  220.1210 C   0  0  0  0  0  0  0  0  0  0  0  0
  142.1890   76.9110  219.9050 N   0  0  0  0  0  0  0  0  0  0  0  0
  142.5590   75.6570  220.2480 C   0  0  0  0  0  0  0  0  0  0  0  0
  143.8660   75.2210  220.0010 C   0  0  0  0  0  0  0  0  0  0  0  0
  144.5927   75.8999  219.5309 H   0  0  0  0  0  0  0  0  0  0  0  0
  144.2480   73.9220  220.3520 C   0  0  0  0  0  0  0  0  0  0  0  0
  145.8860   73.3750  220.0420 Cl  0  0  0  0  0  0  0  0  0  0  0  0
  143.3240   73.0590  220.9500 C   0  0  0  0  0  0  0  0  0  0  0  0
  143.6260   72.0381  221.2267 H   0  0  0  0  0  0  0  0  0  0  0  0
  142.0170   73.4910  221.1970 C   0  0  0  0  0  0  0  0  0  0  0  0
  141.2927   72.8088  221.6661 H   0  0  0  0  0  0  0  0  0  0  0  0
  141.6260   74.7990  220.8460 C   0  0  0  0  0  0  0  0  0  0  0  0
  140.3290   75.2840  221.0770 C   0  0  0  0  0  0  0  0  0  0  0  0
  139.4780   74.5290  221.6280 O   0  0  0  0  0  0  0  0  0  0  0  0
  139.9860   76.5700  220.7170 N   0  0  0  0  0  0  0  0  0  0  0  0
  138.6120   77.0400  221.0140 C   0  0  0  0  0  0  0  0  0  0  0  0
  138.0741   77.1873  220.0659 H   0  0  0  0  0  0  0  0  0  0  0  0
  138.1189   76.2787  221.6363 H   0  0  0  0  0  0  0  0  0  0  0  0
  138.6140   78.3730  221.8000 C   0  0  2  0  0  0  0  0  0  0  0  0
  139.0077   79.1405  221.1175 H   0  0  0  0  0  0  0  0  0  0  0  0
  139.5430   78.3380  223.0320 C   0  0  0  0  0  0  0  0  0  0  0  0
  140.5510   78.0423  222.7055 H   0  0  0  0  0  0  0  0  0  0  0  0
  139.1221   77.6166  223.7478 H   0  0  0  0  0  0  0  0  0  0  0  0
  139.6300   79.6470  223.7120 N   0  0  0  0  0  0  0  0  0  0  0  0
  140.4500   80.1710  223.3260 H   0  0  0  0  0  0  0  0  0  0  0  0
  138.4360   80.5030  223.5620 C   0  0  0  0  0  0  0  0  0  0  0  0
  138.5459   81.1084  222.6502 H   0  0  0  0  0  0  0  0  0  0  0  0
  138.3604   81.1388  224.4565 H   0  0  0  0  0  0  0  0  0  0  0  0
  137.1470   79.6810  223.4570 C   0  0  0  0  0  0  0  0  0  0  0  0
  136.2912   80.3661  223.3666 H   0  0  0  0  0  0  0  0  0  0  0  0
  137.0548   79.0616  224.3613 H   0  0  0  0  0  0  0  0  0  0  0  0
  137.1770   78.7510  222.2310 C   0  0  0  0  0  0  0  0  0  0  0  0
  136.6808   79.2600  221.3916 H   0  0  0  0  0  0  0  0  0  0  0  0
  136.6590   77.8210  222.5081 H   0  0  0  0  0  0  0  0  0  0  0  0
  141.8320   80.1900  221.3010 C   0  0  0  0  0  0  0  0  0  0  0  0
  141.4930   81.4170  221.7920 N   0  0  0  0  0  0  0  0  0  0  0  0
  141.8220   81.8050  223.0530 C   0  0  0  0  0  0  0  0  0  0  0  0
  141.5301   82.8018  223.4153 H   0  0  0  0  0  0  0  0  0  0  0  0
  142.5300   80.9390  223.8880 C   0  0  0  0  0  0  0  0  0  0  0  0
  142.8012   81.2484  224.9082 H   0  0  0  0  0  0  0  0  0  0  0  0
  142.8900   79.6770  223.4150 C   0  0  0  0  0  0  0  0  0  0  0  0
  143.4466   78.9836  224.0626 H   0  0  0  0  0  0  0  0  0  0  0  0
  142.5420   79.2960  222.1170 C   0  0  0  0  0  0  0  0  0  0  0  0
  142.8225   78.3025  221.7372 H   0  0  0  0  0  0  0  0  0  0  0  0
  1  2  1  0
  2  3  2  0
  3  4  1  0
  3  5  1  0
  5  6  2  0
  6  7  1  0
  7  8  2  0
  8  9  1  0
  8 10  1  0
 10 11  1  0
 10 12  2  0
 12 13  1  0
 12 14  1  0
 14 15  1  0
 14 16  2  0
 16 17  1  0
 17 18  2  0
 17 19  1  0
 19 20  1  0
 20 21  1  0
 20 22  1  0
 20 23  1  0
 23 24  1  6
 23 25  1  0
 25 26  1  0
 25 27  1  0
 25 28  1  0
 28 29  1  0
 28 30  1  0
 30 31  1  0
 30 32  1  0
 30 33  1  0
 33 34  1  0
 33 35  1  0
 33 36  1  0
 36 37  1  0
 36 38  1  0
  2 39  1  0
 39 40  2  0
 40 41  1  0
 41 42  1  0
 41 43  2  0
 43 44  1  0
 43 45  1  0
 45 46  1  0
 45 47  2  0
 47 48  1  0
 19  5  1  0
 36 23  1  0
 47 39  1  0
 16  7  1  0
M  END
>  <UniqueID>  (12) 
432

>  <SMILES>  (12) 
O=c1c2ccc(Cl)cc2nc(/C=C/c2ccccn2)n1C[C@H]1CCCNC1

>  <Energy>  (12) 
67.45969388579687

>  <Genealogy>  (12) 
O=c1c2ccc(Cl)cc2nc(/C=C/c2ccccn2)n1C[C@H]1CCCNC1 (chirality)
O=c1c2ccc(Cl)cc2nc(/C=C/c2ccccn2)n1C[C@H]1CCCNC1 (cis-trans isomerization)
O=c1c2ccc(Cl)cc2nc(/C=C/c2ccccn2)n1C[C@H]1CCCNC1 (3D coordinates assigned)
O=c1c2ccc(Cl)cc2nc(/C=C/c2ccccn2)n1C[C@H]1CCCNC1 (nonaromatic ring conformer: 67.45969388579687 kcal/mol)

>  <smiles>  (12) 
O=c1c2ccc(Cl)cc2nc(/C=C/c2ccccn2)n1CC1CCCNC1

>  <score_type>  (12) 
oracle

>  <origin>  (12) 
autodockgpu

>  <m_score__min__energy>  (12) 
-8.0899999999999999

>  <m_primary>  (12) 
energy

>  <meeko>  (12) 
{"free_energy": -6.25, "intermolecular_energy": -7.74, "internal_energy": -2.14, "cluster_size": 4, "cluster_id": 4, "rank_in_cluster": 4}

>  <energy>  (12) 
-7.33

>  <cluster_rmsd>  (12) 
0.61

>  <rmsd>  (12) 
271.51

>  <cluster>  (12) 
3

$$$$
MESWETRYUNDHFU-HEWZJLJBNA-N
     RDKit          3D

 48 51  0  0  0  0  0  0  0  0999 V2000
  140.1024   76.2845  222.8890 H   0  0  0  0  0  0  0  0  0  0  0  0
  140.8590   76.7110  222.2140 C   0  0  0  0  0  0  0  0  0  0  0  0
  141.2450   75.9990  221.1450 C   0  0  0  0  0  0  0  0  0  0  0  0
  141.7211   76.5200  220.3012 H   0  0  0  0  0  0  0  0  0  0  0  0
  141.0490   74.5250  221.0650 C   0  0  0  0  0  0  0  0  0  0  0  0
  140.2530   73.9470  222.0060 N   0  0  0  0  0  0  0  0  0  0  0  0
  140.0310   72.6150  222.0450 C   0  0  0  0  0  0  0  0  0  0  0  0
  139.2040   72.0720  223.0350 C   0  0  0  0  0  0  0  0  0  0  0  0
  138.7321   72.7306  223.7790 H   0  0  0  0  0  0  0  0  0  0  0  0
  138.9770   70.6920  223.0790 C   0  0  0  0  0  0  0  0  0  0  0  0
  137.9410   70.0120  224.3200 Cl  0  0  0  0  0  0  0  0  0  0  0  0
  139.5770   69.8550  222.1320 C   0  0  0  0  0  0  0  0  0  0  0  0
  139.3976   68.7703  222.1665 H   0  0  0  0  0  0  0  0  0  0  0  0
  140.4040   70.3940  221.1420 C   0  0  0  0  0  0  0  0  0  0  0  0
  140.8748   69.7321  220.4002 H   0  0  0  0  0  0  0  0  0  0  0  0
  140.6360   71.7830  221.0920 C   0  0  0  0  0  0  0  0  0  0  0  0
  141.4540   72.3750  220.1170 C   0  0  0  0  0  0  0  0  0  0  0  0
  141.9980   71.6420  219.2420 O   0  0  0  0  0  0  0  0  0  0  0  0
  141.6570   73.7380  220.1040 N   0  0  0  0  0  0  0  0  0  0  0  0
  142.5030   74.3130  219.0310 C   0  0  0  0  0  0  0  0  0  0  0  0
  142.3363   73.7447  218.1041 H   0  0  0  0  0  0  0  0  0  0  0  0
  142.2222   75.3691  218.9055 H   0  0  0  0  0  0  0  0  0  0  0  0
  144.0080   74.2570  219.3880 C   0  0  2  0  0  0  0  0  0  0  0  0
  144.4034   75.2739  219.2481 H   0  0  0  0  0  0  0  0  0  0  0  0
  144.8080   73.3240  218.4550 C   0  0  0  0  0  0  0  0  0  0  0  0
  144.6349   73.6333  217.4137 H   0  0  0  0  0  0  0  0  0  0  0  0
  144.4620   72.2953  218.6340 H   0  0  0  0  0  0  0  0  0  0  0  0
  146.2610   73.3630  218.7260 N   0  0  0  0  0  0  0  0  0  0  0  0
  146.6990   74.0790  218.1000 H   0  0  0  0  0  0  0  0  0  0  0  0
  146.6210   73.6970  220.1190 C   0  0  0  0  0  0  0  0  0  0  0  0
  146.7010   74.7901  220.2122 H   0  0  0  0  0  0  0  0  0  0  0  0
  147.5780   73.2055  220.3485 H   0  0  0  0  0  0  0  0  0  0  0  0
  145.5790   73.1910  221.1210 C   0  0  0  0  0  0  0  0  0  0  0  0
  145.9057   73.4494  222.1391 H   0  0  0  0  0  0  0  0  0  0  0  0
  145.4879   72.1008  221.0067 H   0  0  0  0  0  0  0  0  0  0  0  0
  144.2000   73.8240  220.8610 C   0  0  0  0  0  0  0  0  0  0  0  0
  144.0926   74.7095  221.5046 H   0  0  0  0  0  0  0  0  0  0  0  0
  143.4382   73.0626  221.0847 H   0  0  0  0  0  0  0  0  0  0  0  0
  141.4120   78.0470  222.5190 C   0  0  0  0  0  0  0  0  0  0  0  0
  141.6630   78.4210  223.8070 N   0  0  0  0  0  0  0  0  0  0  0  0
  142.1700   79.6440  224.1170 C   0  0  0  0  0  0  0  0  0  0  0  0
  142.3597   79.9103  225.1673 H   0  0  0  0  0  0  0  0  0  0  0  0
  142.4500   80.5620  223.1030 C   0  0  0  0  0  0  0  0  0  0  0  0
  142.8598   81.5531  223.3476 H   0  0  0  0  0  0  0  0  0  0  0  0
  142.2040   80.2080  221.7750 C   0  0  0  0  0  0  0  0  0  0  0  0
  142.4193   80.9206  220.9652 H   0  0  0  0  0  0  0  0  0  0  0  0
  141.6840   78.9470  221.4780 C   0  0  0  0  0  0  0  0  0  0  0  0
  141.4887   78.6608  220.4340 H   0  0  0  0  0  0  0  0  0  0  0  0
  1  2  1  0
  2  3  2  0
  3  4  1  0
  3  5  1  0
  5  6  2  0
  6  7  1  0
  7  8  2  0
  8  9  1  0
  8 10  1  0
 10 11  1  0
 10 12  2  0
 12 13  1  0
 12 14  1  0
 14 15  1  0
 14 16  2  0
 16 17  1  0
 17 18  2  0
 17 19  1  0
 19 20  1  0
 20 21  1  0
 20 22  1  0
 20 23  1  0
 23 24  1  1
 23 25  1  0
 25 26  1  0
 25 27  1  0
 25 28  1  0
 28 29  1  0
 28 30  1  0
 30 31  1  0
 30 32  1  0
 30 33  1  0
 33 34  1  0
 33 35  1  0
 33 36  1  0
 36 37  1  0
 36 38  1  0
  2 39  1  0
 39 40  2  0
 40 41  1  0
 41 42  1  0
 41 43  2  0
 43 44  1  0
 43 45  1  0
 45 46  1  0
 45 47  2  0
 47 48  1  0
 19  5  1  0
 36 23  1  0
 47 39  1  0
 16  7  1  0
M  END
>  <UniqueID>  (13) 
432

>  <SMILES>  (13) 
O=c1c2ccc(Cl)cc2nc(/C=C/c2ccccn2)n1C[C@H]1CCCNC1

>  <Energy>  (13) 
67.45969388579687

>  <Genealogy>  (13) 
O=c1c2ccc(Cl)cc2nc(/C=C/c2ccccn2)n1C[C@H]1CCCNC1 (chirality)
O=c1c2ccc(Cl)cc2nc(/C=C/c2ccccn2)n1C[C@H]1CCCNC1 (cis-trans isomerization)
O=c1c2ccc(Cl)cc2nc(/C=C/c2ccccn2)n1C[C@H]1CCCNC1 (3D coordinates assigned)
O=c1c2ccc(Cl)cc2nc(/C=C/c2ccccn2)n1C[C@H]1CCCNC1 (nonaromatic ring conformer: 67.45969388579687 kcal/mol)

>  <smiles>  (13) 
O=c1c2ccc(Cl)cc2nc(/C=C/c2ccccn2)n1CC1CCCNC1

>  <score_type>  (13) 
oracle

>  <origin>  (13) 
autodockgpu

>  <m_score__min__energy>  (13) 
-8.0899999999999999

>  <m_primary>  (13) 
energy

>  <meeko>  (13) 
{"free_energy": -7.77, "intermolecular_energy": -9.26, "internal_energy": -1.05, "cluster_size": 3, "cluster_id": 2, "rank_in_cluster": 2}

>  <energy>  (13) 
-7.31

>  <cluster_rmsd>  (13) 
0.61

>  <rmsd>  (13) 
271.5

>  <cluster>  (13) 
3

$$$$
MESWETRYUNDHFU-HEWZJLJBNA-N
     RDKit          3D

 48 51  0  0  0  0  0  0  0  0999 V2000
  142.1415   72.1731  222.0182 H   0  0  0  0  0  0  0  0  0  0  0  0
  141.0480   72.2780  222.0750 C   0  0  0  0  0  0  0  0  0  0  0  0
  140.4350   73.1120  221.2230 C   0  0  0  0  0  0  0  0  0  0  0  0
  139.6186   72.7270  220.5943 H   0  0  0  0  0  0  0  0  0  0  0  0
  140.8260   74.5440  221.1020 C   0  0  0  0  0  0  0  0  0  0  0  0
  140.2110   75.4340  221.9280 N   0  0  0  0  0  0  0  0  0  0  0  0
  140.4680   76.7600  221.8830 C   0  0  0  0  0  0  0  0  0  0  0  0
  139.8060   77.6310  222.7550 C   0  0  0  0  0  0  0  0  0  0  0  0
  139.0789   77.2362  223.4799 H   0  0  0  0  0  0  0  0  0  0  0  0
  140.0690   79.0050  222.7050 C   0  0  0  0  0  0  0  0  0  0  0  0
  139.2390   80.0970  223.7990 Cl  0  0  0  0  0  0  0  0  0  0  0  0
  140.9940   79.5060  221.7840 C   0  0  0  0  0  0  0  0  0  0  0  0
  141.2008   80.5857  221.7468 H   0  0  0  0  0  0  0  0  0  0  0  0
  141.6570   78.6390  220.9100 C   0  0  0  0  0  0  0  0  0  0  0  0
  142.3832   79.0378  220.1864 H   0  0  0  0  0  0  0  0  0  0  0  0
  141.3960   77.2550  220.9550 C   0  0  0  0  0  0  0  0  0  0  0  0
  142.0380   76.3400  220.1050 C   0  0  0  0  0  0  0  0  0  0  0  0
  142.8870   76.7660  219.2710 O   0  0  0  0  0  0  0  0  0  0  0  0
  141.7540   74.9930  220.1790 N   0  0  0  0  0  0  0  0  0  0  0  0
  142.4850   74.0690  219.2790 C   0  0  0  0  0  0  0  0  0  0  0  0
  142.1079   73.0476  219.4358 H   0  0  0  0  0  0  0  0  0  0  0  0
  142.3178   74.3994  218.2432 H   0  0  0  0  0  0  0  0  0  0  0  0
  144.0090   74.0860  219.5470 C   0  0  2  0  0  0  0  0  0  0  0  0
  144.3370   75.1304  219.4393 H   0  0  0  0  0  0  0  0  0  0  0  0
  144.8030   73.2500  218.5220 C   0  0  0  0  0  0  0  0  0  0  0  0
  144.5503   73.5997  217.5101 H   0  0  0  0  0  0  0  0  0  0  0  0
  144.5272   72.1949  218.6659 H   0  0  0  0  0  0  0  0  0  0  0  0
  146.2650   73.3620  218.7110 N   0  0  0  0  0  0  0  0  0  0  0  0
  146.6230   74.1320  218.0990 H   0  0  0  0  0  0  0  0  0  0  0  0
  146.6880   73.6490  220.0960 C   0  0  0  0  0  0  0  0  0  0  0  0
  146.7105   74.7392  220.2411 H   0  0  0  0  0  0  0  0  0  0  0  0
  147.6836   73.2054  220.2444 H   0  0  0  0  0  0  0  0  0  0  0  0
  145.7390   73.0330  221.1290 C   0  0  0  0  0  0  0  0  0  0  0  0
  146.1111   73.2612  222.1387 H   0  0  0  0  0  0  0  0  0  0  0  0
  145.7039   71.9460  220.9643 H   0  0  0  0  0  0  0  0  0  0  0  0
  144.3130   73.5940  220.9810 C   0  0  0  0  0  0  0  0  0  0  0  0
  144.1938   74.4389  221.6752 H   0  0  0  0  0  0  0  0  0  0  0  0
  143.6108   72.7781  221.2073 H   0  0  0  0  0  0  0  0  0  0  0  0
  140.3100   71.4940  223.0880 C   0  0  0  0  0  0  0  0  0  0  0  0
  139.2450   70.7200  222.7310 N   0  0  0  0  0  0  0  0  0  0  0  0
  138.5480   69.9890  223.6420 C   0  0  0  0  0  0  0  0  0  0  0  0
  137.6944   69.3759  223.3173 H   0  0  0  0  0  0  0  0  0  0  0  0
  138.9150   70.0160  224.9890 C   0  0  0  0  0  0  0  0  0  0  0  0
  138.3546   69.4275  225.7303 H   0  0  0  0  0  0  0  0  0  0  0  0
  140.0020   70.7990  225.3840 C   0  0  0  0  0  0  0  0  0  0  0  0
  140.3036   70.8304  226.4414 H   0  0  0  0  0  0  0  0  0  0  0  0
  140.7050   71.5420  224.4330 C   0  0  0  0  0  0  0  0  0  0  0  0
  141.5625   72.1605  224.7367 H   0  0  0  0  0  0  0  0  0  0  0  0
  1  2  1  0
  2  3  2  0
  3  4  1  0
  3  5  1  0
  5  6  2  0
  6  7  1  0
  7  8  2  0
  8  9  1  0
  8 10  1  0
 10 11  1  0
 10 12  2  0
 12 13  1  0
 12 14  1  0
 14 15  1  0
 14 16  2  0
 16 17  1  0
 17 18  2  0
 17 19  1  0
 19 20  1  0
 20 21  1  0
 20 22  1  0
 20 23  1  0
 23 24  1  1
 23 25  1  0
 25 26  1  0
 25 27  1  0
 25 28  1  0
 28 29  1  0
 28 30  1  0
 30 31  1  0
 30 32  1  0
 30 33  1  0
 33 34  1  0
 33 35  1  0
 33 36  1  0
 36 37  1  0
 36 38  1  0
  2 39  1  0
 39 40  2  0
 40 41  1  0
 41 42  1  0
 41 43  2  0
 43 44  1  0
 43 45  1  0
 45 46  1  0
 45 47  2  0
 47 48  1  0
 19  5  1  0
 36 23  1  0
 47 39  1  0
 16  7  1  0
M  END
>  <UniqueID>  (14) 
432

>  <SMILES>  (14) 
O=c1c2ccc(Cl)cc2nc(/C=C/c2ccccn2)n1C[C@H]1CCCNC1

>  <Energy>  (14) 
67.45969388579687

>  <Genealogy>  (14) 
O=c1c2ccc(Cl)cc2nc(/C=C/c2ccccn2)n1C[C@H]1CCCNC1 (chirality)
O=c1c2ccc(Cl)cc2nc(/C=C/c2ccccn2)n1C[C@H]1CCCNC1 (cis-trans isomerization)
O=c1c2ccc(Cl)cc2nc(/C=C/c2ccccn2)n1C[C@H]1CCCNC1 (3D coordinates assigned)
O=c1c2ccc(Cl)cc2nc(/C=C/c2ccccn2)n1C[C@H]1CCCNC1 (nonaromatic ring conformer: 67.45969388579687 kcal/mol)

>  <smiles>  (14) 
O=c1c2ccc(Cl)cc2nc(/C=C/c2ccccn2)n1CC1CCCNC1

>  <score_type>  (14) 
oracle

>  <origin>  (14) 
autodockgpu

>  <m_score__min__energy>  (14) 
-8.0899999999999999

>  <m_primary>  (14) 
energy

>  <meeko>  (14) 
{"free_energy": -7.76, "intermolecular_energy": -9.26, "internal_energy": -1.05, "cluster_size": 7, "cluster_id": 1, "rank_in_cluster": 5}

>  <energy>  (14) 
-6.47

>  <cluster_rmsd>  (14) 
0.0

>  <rmsd>  (14) 
272.01

>  <cluster>  (14) 
4

$$$$
MESWETRYUNDHFU-HEWZJLJBNA-N
     RDKit          3D

 48 51  0  0  0  0  0  0  0  0999 V2000
  143.9179   79.8709  222.8216 H   0  0  0  0  0  0  0  0  0  0  0  0
  142.8230   79.8880  222.7170 C   0  0  0  0  0  0  0  0  0  0  0  0
  142.0960   78.9960  223.4040 C   0  0  0  0  0  0  0  0  0  0  0  0
  142.6132   78.2683  224.0466 H   0  0  0  0  0  0  0  0  0  0  0  0
  140.6100   78.9600  223.3240 C   0  0  0  0  0  0  0  0  0  0  0  0
  139.9250   79.9750  223.9160 N   0  0  0  0  0  0  0  0  0  0  0  0
  138.5740   80.0260  223.9290 C   0  0  0  0  0  0  0  0  0  0  0  0
  137.9200   81.0940  224.5530 C   0  0  0  0  0  0  0  0  0  0  0  0
  138.5051   81.8944  225.0295 H   0  0  0  0  0  0  0  0  0  0  0  0
  136.5220   81.1440  224.5710 C   0  0  0  0  0  0  0  0  0  0  0  0
  135.7020   82.4830  225.3540 Cl  0  0  0  0  0  0  0  0  0  0  0  0
  135.7790   80.1270  223.9630 C   0  0  0  0  0  0  0  0  0  0  0  0
  134.6798   80.1680  223.9761 H   0  0  0  0  0  0  0  0  0  0  0  0
  136.4290   79.0590  223.3390 C   0  0  0  0  0  0  0  0  0  0  0  0
  135.8403   78.2609  222.8631 H   0  0  0  0  0  0  0  0  0  0  0  0
  137.8360   79.0020  223.3180 C   0  0  0  0  0  0  0  0  0  0  0  0
  138.5390   77.9550  222.7000 C   0  0  0  0  0  0  0  0  0  0  0  0
  137.8900   77.0290  222.1330 O   0  0  0  0  0  0  0  0  0  0  0  0
  139.9170   77.9350  222.7030 N   0  0  0  0  0  0  0  0  0  0  0  0
  140.6060   76.8220  222.0080 C   0  0  0  0  0  0  0  0  0  0  0  0
  141.3024   76.3411  222.7107 H   0  0  0  0  0  0  0  0  0  0  0  0
  139.8407   76.1130  221.6592 H   0  0  0  0  0  0  0  0  0  0  0  0
  141.4010   77.3140  220.7740 C   0  0  2  0  0  0  0  0  0  0  0  0
  142.0964   78.0865  221.1340 H   0  0  0  0  0  0  0  0  0  0  0  0
  140.5000   77.9720  219.7080 C   0  0  0  0  0  0  0  0  0  0  0  0
  139.9220   78.7782  220.1833 H   0  0  0  0  0  0  0  0  0  0  0  0
  139.8426   77.1914  219.2975 H   0  0  0  0  0  0  0  0  0  0  0  0
  141.2750   78.5420  218.5870 N   0  0  0  0  0  0  0  0  0  0  0  0
  141.4700   79.5500  218.7930 H   0  0  0  0  0  0  0  0  0  0  0  0
  142.5660   77.8750  218.3250 C   0  0  0  0  0  0  0  0  0  0  0  0
  143.3430   78.3522  218.9402 H   0  0  0  0  0  0  0  0  0  0  0  0
  142.7878   77.9762  217.2524 H   0  0  0  0  0  0  0  0  0  0  0  0
  142.5210   76.3810  218.6580 C   0  0  0  0  0  0  0  0  0  0  0  0
  143.4989   75.9330  218.4278 H   0  0  0  0  0  0  0  0  0  0  0  0
  141.7277   75.9147  218.0553 H   0  0  0  0  0  0  0  0  0  0  0  0
  142.2010   76.1490  220.1450 C   0  0  0  0  0  0  0  0  0  0  0  0
  143.1470   76.0350  220.6946 H   0  0  0  0  0  0  0  0  0  0  0  0
  141.5785   75.2446  220.2130 H   0  0  0  0  0  0  0  0  0  0  0  0
  142.2100   80.8940  221.8240 C   0  0  0  0  0  0  0  0  0  0  0  0
  142.1850   80.7060  220.4730 N   0  0  0  0  0  0  0  0  0  0  0  0
  141.6280   81.6150  219.6290 C   0  0  0  0  0  0  0  0  0  0  0  0
  141.6273   81.4301  218.5447 H   0  0  0  0  0  0  0  0  0  0  0  0
  141.0570   82.7830  220.1380 C   0  0  0  0  0  0  0  0  0  0  0  0
  140.6042   83.5217  219.4603 H   0  0  0  0  0  0  0  0  0  0  0  0
  141.0670   83.0030  221.5160 C   0  0  0  0  0  0  0  0  0  0  0  0
  140.6217   83.9190  221.9315 H   0  0  0  0  0  0  0  0  0  0  0  0
  141.6440   82.0570  222.3660 C   0  0  0  0  0  0  0  0  0  0  0  0
  141.6544   82.2230  223.4534 H   0  0  0  0  0  0  0  0  0  0  0  0
  1  2  1  0
  2  3  2  0
  3  4  1  0
  3  5  1  0
  5  6  2  0
  6  7  1  0
  7  8  2  0
  8  9  1  0
  8 10  1  0
 10 11  1  0
 10 12  2  0
 12 13  1  0
 12 14  1  0
 14 15  1  0
 14 16  2  0
 16 17  1  0
 17 18  2  0
 17 19  1  0
 19 20  1  0
 20 21  1  0
 20 22  1  0
 20 23  1  0
 23 24  1  1
 23 25  1  0
 25 26  1  0
 25 27  1  0
 25 28  1  0
 28 29  1  0
 28 30  1  0
 30 31  1  0
 30 32  1  0
 30 33  1  0
 33 34  1  0
 33 35  1  0
 33 36  1  0
 36 37  1  0
 36 38  1  0
  2 39  1  0
 39 40  2  0
 40 41  1  0
 41 42  1  0
 41 43  2  0
 43 44  1  0
 43 45  1  0
 45 46  1  0
 45 47  2  0
 47 48  1  0
 19  5  1  0
 36 23  1  0
 47 39  1  0
 16  7  1  0
M  END
>  <UniqueID>  (15) 
432

>  <SMILES>  (15) 
O=c1c2ccc(Cl)cc2nc(/C=C/c2ccccn2)n1C[C@H]1CCCNC1

>  <Energy>  (15) 
67.45969388579687

>  <Genealogy>  (15) 
O=c1c2ccc(Cl)cc2nc(/C=C/c2ccccn2)n1C[C@H]1CCCNC1 (chirality)
O=c1c2ccc(Cl)cc2nc(/C=C/c2ccccn2)n1C[C@H]1CCCNC1 (cis-trans isomerization)
O=c1c2ccc(Cl)cc2nc(/C=C/c2ccccn2)n1C[C@H]1CCCNC1 (3D coordinates assigned)
O=c1c2ccc(Cl)cc2nc(/C=C/c2ccccn2)n1C[C@H]1CCCNC1 (nonaromatic ring conformer: 67.45969388579687 kcal/mol)

>  <smiles>  (15) 
O=c1c2ccc(Cl)cc2nc(/C=C/c2ccccn2)n1CC1CCCNC1

>  <score_type>  (15) 
oracle

>  <origin>  (15) 
autodockgpu

>  <m_score__min__energy>  (15) 
-8.0899999999999999

>  <m_primary>  (15) 
energy

>  <meeko>  (15) 
{"free_energy": -5.87, "intermolecular_energy": -7.36, "internal_energy": -2.46, "cluster_size": 2, "cluster_id": 6, "rank_in_cluster": 1}

>  <energy>  (15) 
-6.43

>  <cluster_rmsd>  (15) 
0.08

>  <rmsd>  (15) 
272.05

>  <cluster>  (15) 
4

$$$$
MESWETRYUNDHFU-HEWZJLJBNA-N
     RDKit          3D

 48 51  0  0  0  0  0  0  0  0999 V2000
  139.3717   76.2684  222.6981 H   0  0  0  0  0  0  0  0  0  0  0  0
  140.2860   76.7410  222.3100 C   0  0  0  0  0  0  0  0  0  0  0  0
  141.0790   76.0350  221.4900 C   0  0  0  0  0  0  0  0  0  0  0  0
  141.8835   76.5541  220.9484 H   0  0  0  0  0  0  0  0  0  0  0  0
  140.9030   74.5700  221.2910 C   0  0  0  0  0  0  0  0  0  0  0  0
  140.1380   73.9010  222.1950 N   0  0  0  0  0  0  0  0  0  0  0  0
  139.9380   72.5670  222.1260 C   0  0  0  0  0  0  0  0  0  0  0  0
  139.1410   71.9280  223.0840 C   0  0  0  0  0  0  0  0  0  0  0  0
  138.6752   72.5134  223.8904 H   0  0  0  0  0  0  0  0  0  0  0  0
  138.9370   70.5460  223.0160 C   0  0  0  0  0  0  0  0  0  0  0  0
  137.9400   69.7450  224.2170 Cl  0  0  0  0  0  0  0  0  0  0  0  0
  139.5290   69.8020  221.9900 C   0  0  0  0  0  0  0  0  0  0  0  0
  139.3679   68.7151  221.9374 H   0  0  0  0  0  0  0  0  0  0  0  0
  140.3250   70.4360  221.0310 C   0  0  0  0  0  0  0  0  0  0  0  0
  140.7886   69.8473  220.2257 H   0  0  0  0  0  0  0  0  0  0  0  0
  140.5340   71.8280  221.0950 C   0  0  0  0  0  0  0  0  0  0  0  0
  141.3200   72.5150  220.1550 C   0  0  0  0  0  0  0  0  0  0  0  0
  141.8560   71.8680  219.2100 O   0  0  0  0  0  0  0  0  0  0  0  0
  141.5020   73.8780  220.2530 N   0  0  0  0  0  0  0  0  0  0  0  0
  142.3150   74.5550  219.2160 C   0  0  0  0  0  0  0  0  0  0  0  0
  142.0492   74.1431  218.2313 H   0  0  0  0  0  0  0  0  0  0  0  0
  142.1018   75.6329  219.2670 H   0  0  0  0  0  0  0  0  0  0  0  0
  143.8330   74.3560  219.4480 C   0  0  2  0  0  0  0  0  0  0  0  0
  144.2973   75.3505  219.3747 H   0  0  0  0  0  0  0  0  0  0  0  0
  144.4890   73.4670  218.3710 C   0  0  0  0  0  0  0  0  0  0  0  0
  144.2684   73.8916  217.3805 H   0  0  0  0  0  0  0  0  0  0  0  0
  144.0759   72.4530  218.4771 H   0  0  0  0  0  0  0  0  0  0  0  0
  145.9550   73.3740  218.5310 N   0  0  0  0  0  0  0  0  0  0  0  0
  146.4030   74.1150  217.9430 H   0  0  0  0  0  0  0  0  0  0  0  0
  146.4380   73.5410  219.9160 C   0  0  0  0  0  0  0  0  0  0  0  0
  146.6107   74.6108  220.1047 H   0  0  0  0  0  0  0  0  0  0  0  0
  147.3669   72.9615  220.0227 H   0  0  0  0  0  0  0  0  0  0  0  0
  145.4330   73.0140  220.9450 C   0  0  0  0  0  0  0  0  0  0  0  0
  145.8505   73.1465  221.9540 H   0  0  0  0  0  0  0  0  0  0  0  0
  145.2487   71.9497  220.7368 H   0  0  0  0  0  0  0  0  0  0  0  0
  144.0930   73.7660  220.8540 C   0  0  0  0  0  0  0  0  0  0  0  0
  144.1008   74.5883  221.5846 H   0  0  0  0  0  0  0  0  0  0  0  0
  143.2914   73.0425  221.0638 H   0  0  0  0  0  0  0  0  0  0  0  0
  140.5940   78.1300  222.7120 C   0  0  0  0  0  0  0  0  0  0  0  0
  139.6480   78.9090  223.3100 N   0  0  0  0  0  0  0  0  0  0  0  0
  139.9040   80.1890  223.6900 C   0  0  0  0  0  0  0  0  0  0  0  0
  139.1163   80.7871  224.1714 H   0  0  0  0  0  0  0  0  0  0  0  0
  141.1650   80.7450  223.4700 C   0  0  0  0  0  0  0  0  0  0  0  0
  141.3772   81.7805  223.7745 H   0  0  0  0  0  0  0  0  0  0  0  0
  142.1540   79.9720  222.8590 C   0  0  0  0  0  0  0  0  0  0  0  0
  143.1526   80.3964  222.6783 H   0  0  0  0  0  0  0  0  0  0  0  0
  141.8720   78.6590  222.4780 C   0  0  0  0  0  0  0  0  0  0  0  0
  142.6467   78.0433  221.9975 H   0  0  0  0  0  0  0  0  0  0  0  0
  1  2  1  0
  2  3  2  0
  3  4  1  0
  3  5  1  0
  5  6  2  0
  6  7  1  0
  7  8  2  0
  8  9  1  0
  8 10  1  0
 10 11  1  0
 10 12  2  0
 12 13  1  0
 12 14  1  0
 14 15  1  0
 14 16  2  0
 16 17  1  0
 17 18  2  0
 17 19  1  0
 19 20  1  0
 20 21  1  0
 20 22  1  0
 20 23  1  0
 23 24  1  1
 23 25  1  0
 25 26  1  0
 25 27  1  0
 25 28  1  0
 28 29  1  0
 28 30  1  0
 30 31  1  0
 30 32  1  0
 30 33  1  0
 33 34  1  0
 33 35  1  0
 33 36  1  0
 36 37  1  0
 36 38  1  0
  2 39  1  0
 39 40  2  0
 40 41  1  0
 41 42  1  0
 41 43  2  0
 43 44  1  0
 43 45  1  0
 45 46  1  0
 45 47  2  0
 47 48  1  0
 19  5  1  0
 36 23  1  0
 47 39  1  0
 16  7  1  0
M  END
>  <UniqueID>  (16) 
432

>  <SMILES>  (16) 
O=c1c2ccc(Cl)cc2nc(/C=C/c2ccccn2)n1C[C@H]1CCCNC1

>  <Energy>  (16) 
67.45969388579687

>  <Genealogy>  (16) 
O=c1c2ccc(Cl)cc2nc(/C=C/c2ccccn2)n1C[C@H]1CCCNC1 (chirality)
O=c1c2ccc(Cl)cc2nc(/C=C/c2ccccn2)n1C[C@H]1CCCNC1 (cis-trans isomerization)
O=c1c2ccc(Cl)cc2nc(/C=C/c2ccccn2)n1C[C@H]1CCCNC1 (3D coordinates assigned)
O=c1c2ccc(Cl)cc2nc(/C=C/c2ccccn2)n1C[C@H]1CCCNC1 (nonaromatic ring conformer: 67.45969388579687 kcal/mol)

>  <smiles>  (16) 
O=c1c2ccc(Cl)cc2nc(/C=C/c2ccccn2)n1CC1CCCNC1

>  <score_type>  (16) 
oracle

>  <origin>  (16) 
autodockgpu

>  <m_score__min__energy>  (16) 
-8.0899999999999999

>  <m_primary>  (16) 
energy

>  <meeko>  (16) 
{"free_energy": -7.75, "intermolecular_energy": -9.24, "internal_energy": -1.0, "cluster_size": 3, "cluster_id": 2, "rank_in_cluster": 3}

>  <energy>  (16) 
-6.39

>  <cluster_rmsd>  (16) 
0.09

>  <rmsd>  (16) 
272.04

>  <cluster>  (16) 
4

$$$$
MESWETRYUNDHFU-HEWZJLJBNA-N
     RDKit          3D

 48 51  0  0  0  0  0  0  0  0999 V2000
  141.9091   80.2933  219.0955 H   0  0  0  0  0  0  0  0  0  0  0  0
  141.4790   79.7780  219.9670 C   0  0  0  0  0  0  0  0  0  0  0  0
  140.6350   78.7560  219.7610 C   0  0  0  0  0  0  0  0  0  0  0  0
  139.6744   78.9500  219.2615 H   0  0  0  0  0  0  0  0  0  0  0  0
  140.9590   77.3670  220.1880 C   0  0  0  0  0  0  0  0  0  0  0  0
  142.2140   76.9080  219.9300 N   0  0  0  0  0  0  0  0  0  0  0  0
  142.6040   75.6540  220.2470 C   0  0  0  0  0  0  0  0  0  0  0  0
  143.9070   75.2330  219.9570 C   0  0  0  0  0  0  0  0  0  0  0  0
  144.6136   75.9242  219.4743 H   0  0  0  0  0  0  0  0  0  0  0  0
  144.3110   73.9330  220.2810 C   0  0  0  0  0  0  0  0  0  0  0  0
  145.9440   73.4040  219.9180 Cl  0  0  0  0  0  0  0  0  0  0  0  0
  143.4120   73.0550  220.8950 C   0  0  0  0  0  0  0  0  0  0  0  0
  143.7306   72.0335  221.1498 H   0  0  0  0  0  0  0  0  0  0  0  0
  142.1090   73.4720  221.1860 C   0  0  0  0  0  0  0  0  0  0  0  0
  141.4050   72.7780  221.6684 H   0  0  0  0  0  0  0  0  0  0  0  0
  141.6970   74.7800  220.8620 C   0  0  0  0  0  0  0  0  0  0  0  0
  140.4030   75.2500  221.1360 C   0  0  0  0  0  0  0  0  0  0  0  0
  139.5740   74.4810  221.7020 O   0  0  0  0  0  0  0  0  0  0  0  0
  140.0370   76.5370  220.8010 N   0  0  0  0  0  0  0  0  0  0  0  0
  138.6690   76.9910  221.1430 C   0  0  0  0  0  0  0  0  0  0  0  0
  138.0831   77.0828  220.2166 H   0  0  0  0  0  0  0  0  0  0  0  0
  138.2244   76.2491  221.8226 H   0  0  0  0  0  0  0  0  0  0  0  0
  138.6770   78.3590  221.8670 C   0  0  2  0  0  0  0  0  0  0  0  0
  139.0694   79.0932  221.1480 H   0  0  0  0  0  0  0  0  0  0  0  0
  139.6110   78.3790  223.0950 C   0  0  0  0  0  0  0  0  0  0  0  0
  140.6169   78.0664  222.7781 H   0  0  0  0  0  0  0  0  0  0  0  0
  139.1913   77.6925  223.8450 H   0  0  0  0  0  0  0  0  0  0  0  0
  139.7040   79.7170  223.7140 N   0  0  0  0  0  0  0  0  0  0  0  0
  140.5240   80.2210  223.3000 H   0  0  0  0  0  0  0  0  0  0  0  0
  138.5110   80.5680  223.5300 C   0  0  0  0  0  0  0  0  0  0  0  0
  138.6182   81.1310  222.5911 H   0  0  0  0  0  0  0  0  0  0  0  0
  138.4404   81.2443  224.3947 H   0  0  0  0  0  0  0  0  0  0  0  0
  137.2210   79.7450  223.4680 C   0  0  0  0  0  0  0  0  0  0  0  0
  136.3660   80.4271  223.3503 H   0  0  0  0  0  0  0  0  0  0  0  0
  137.1323   79.1674  224.3999 H   0  0  0  0  0  0  0  0  0  0  0  0
  137.2430   78.7600  222.2860 C   0  0  0  0  0  0  0  0  0  0  0  0
  136.7444   79.2314  221.4262 H   0  0  0  0  0  0  0  0  0  0  0  0
  136.7236   77.8451  222.6074 H   0  0  0  0  0  0  0  0  0  0  0  0
  141.8530   80.2380  221.3220 C   0  0  0  0  0  0  0  0  0  0  0  0
  141.4960   81.4790  221.7610 N   0  0  0  0  0  0  0  0  0  0  0  0
  141.8280   81.9270  223.0010 C   0  0  0  0  0  0  0  0  0  0  0  0
  141.5230   82.9342  223.3210 H   0  0  0  0  0  0  0  0  0  0  0  0
  142.5550   81.1110  223.8680 C   0  0  0  0  0  0  0  0  0  0  0  0
  142.8257   81.4687  224.8724 H   0  0  0  0  0  0  0  0  0  0  0  0
  142.9350   79.8360  223.4470 C   0  0  0  0  0  0  0  0  0  0  0  0
  143.5095   79.1817  224.1192 H   0  0  0  0  0  0  0  0  0  0  0  0
  142.5840   79.3930  222.1700 C   0  0  0  0  0  0  0  0  0  0  0  0
  142.8787   78.3887  221.8316 H   0  0  0  0  0  0  0  0  0  0  0  0
  1  2  1  0
  2  3  2  0
  3  4  1  0
  3  5  1  0
  5  6  2  0
  6  7  1  0
  7  8  2  0
  8  9  1  0
  8 10  1  0
 10 11  1  0
 10 12  2  0
 12 13  1  0
 12 14  1  0
 14 15  1  0
 14 16  2  0
 16 17  1  0
 17 18  2  0
 17 19  1  0
 19 20  1  0
 20 21  1  0
 20 22  1  0
 20 23  1  0
 23 24  1  6
 23 25  1  0
 25 26  1  0
 25 27  1  0
 25 28  1  0
 28 29  1  0
 28 30  1  0
 30 31  1  0
 30 32  1  0
 30 33  1  0
 33 34  1  0
 33 35  1  0
 33 36  1  0
 36 37  1  0
 36 38  1  0
  2 39  1  0
 39 40  2  0
 40 41  1  0
 41 42  1  0
 41 43  2  0
 43 44  1  0
 43 45  1  0
 45 46  1  0
 45 47  2  0
 47 48  1  0
 19  5  1  0
 36 23  1  0
 47 39  1  0
 16  7  1  0
M  END
>  <UniqueID>  (17) 
432

>  <SMILES>  (17) 
O=c1c2ccc(Cl)cc2nc(/C=C/c2ccccn2)n1C[C@H]1CCCNC1

>  <Energy>  (17) 
67.45969388579687

>  <Genealogy>  (17) 
O=c1c2ccc(Cl)cc2nc(/C=C/c2ccccn2)n1C[C@H]1CCCNC1 (chirality)
O=c1c2ccc(Cl)cc2nc(/C=C/c2ccccn2)n1C[C@H]1CCCNC1 (cis-trans isomerization)
O=c1c2ccc(Cl)cc2nc(/C=C/c2ccccn2)n1C[C@H]1CCCNC1 (3D coordinates assigned)
O=c1c2ccc(Cl)cc2nc(/C=C/c2ccccn2)n1C[C@H]1CCCNC1 (nonaromatic ring conformer: 67.45969388579687 kcal/mol)

>  <smiles>  (17) 
O=c1c2ccc(Cl)cc2nc(/C=C/c2ccccn2)n1CC1CCCNC1

>  <score_type>  (17) 
oracle

>  <origin>  (17) 
autodockgpu

>  <m_score__min__energy>  (17) 
-8.0899999999999999

>  <m_primary>  (17) 
energy

>  <meeko>  (17) 
{"free_energy": -6.43, "intermolecular_energy": -7.92, "internal_energy": -2.07, "cluster_size": 4, "cluster_id": 4, "rank_in_cluster": 2}

>  <energy>  (17) 
-6.25

>  <cluster_rmsd>  (17) 
0.15

>  <rmsd>  (17) 
272.0

>  <cluster>  (17) 
4

$$$$
MESWETRYUNDHFU-HEWZJLJBNA-N
     RDKit          3D

 48 51  0  0  0  0  0  0  0  0999 V2000
  141.8824   80.1728  219.0450 H   0  0  0  0  0  0  0  0  0  0  0  0
  141.4550   79.6860  219.9340 C   0  0  0  0  0  0  0  0  0  0  0  0
  140.6060   78.6630  219.7630 C   0  0  0  0  0  0  0  0  0  0  0  0
  139.6304   78.8524  219.2916 H   0  0  0  0  0  0  0  0  0  0  0  0
  140.9440   77.2780  220.1920 C   0  0  0  0  0  0  0  0  0  0  0  0
  142.1950   76.8220  219.9140 N   0  0  0  0  0  0  0  0  0  0  0  0
  142.5970   75.5720  220.2320 C   0  0  0  0  0  0  0  0  0  0  0  0
  143.8970   75.1550  219.9210 C   0  0  0  0  0  0  0  0  0  0  0  0
  144.5918   75.8461  219.4213 H   0  0  0  0  0  0  0  0  0  0  0  0
  144.3120   73.8590  220.2460 C   0  0  0  0  0  0  0  0  0  0  0  0
  145.9410   73.3350  219.8560 Cl  0  0  0  0  0  0  0  0  0  0  0  0
  143.4280   72.9800  220.8810 C   0  0  0  0  0  0  0  0  0  0  0  0
  143.7558   71.9615  221.1362 H   0  0  0  0  0  0  0  0  0  0  0  0
  142.1290   73.3930  221.1920 C   0  0  0  0  0  0  0  0  0  0  0  0
  141.4367   72.6986  221.6906 H   0  0  0  0  0  0  0  0  0  0  0  0
  141.7050   74.6970  220.8680 C   0  0  0  0  0  0  0  0  0  0  0  0
  140.4140   75.1640  221.1630 C   0  0  0  0  0  0  0  0  0  0  0  0
  139.5990   74.3940  221.7480 O   0  0  0  0  0  0  0  0  0  0  0  0
  140.0370   76.4470  220.8270 N   0  0  0  0  0  0  0  0  0  0  0  0
  138.6730   76.8970  221.1910 C   0  0  0  0  0  0  0  0  0  0  0  0
  138.0597   76.9452  220.2791 H   0  0  0  0  0  0  0  0  0  0  0  0
  138.2582   76.1767  221.9115 H   0  0  0  0  0  0  0  0  0  0  0  0
  138.6830   78.2920  221.8610 C   0  0  2  0  0  0  0  0  0  0  0  0
  139.0703   78.9984  221.1120 H   0  0  0  0  0  0  0  0  0  0  0  0
  139.6240   78.3610  223.0820 C   0  0  0  0  0  0  0  0  0  0  0  0
  140.6284   78.0368  222.7720 H   0  0  0  0  0  0  0  0  0  0  0  0
  139.2094   77.7042  223.8610 H   0  0  0  0  0  0  0  0  0  0  0  0
  139.7190   79.7230  223.6470 N   0  0  0  0  0  0  0  0  0  0  0  0
  140.5350   80.2110  223.2090 H   0  0  0  0  0  0  0  0  0  0  0  0
  138.5230   80.5640  223.4370 C   0  0  0  0  0  0  0  0  0  0  0  0
  138.6239   81.0904  222.4764 H   0  0  0  0  0  0  0  0  0  0  0  0
  138.4560   81.2725  224.2757 H   0  0  0  0  0  0  0  0  0  0  0  0
  137.2340   79.7380  223.4140 C   0  0  0  0  0  0  0  0  0  0  0  0
  136.3777   80.4142  223.2741 H   0  0  0  0  0  0  0  0  0  0  0  0
  137.1515   79.1972  224.3683 H   0  0  0  0  0  0  0  0  0  0  0  0
  137.2500   78.7070  222.2720 C   0  0  0  0  0  0  0  0  0  0  0  0
  136.7456   79.1432  221.3972 H   0  0  0  0  0  0  0  0  0  0  0  0
  136.7336   77.8049  222.6320 H   0  0  0  0  0  0  0  0  0  0  0  0
  141.8390   80.1850  221.2710 C   0  0  0  0  0  0  0  0  0  0  0  0
  141.4840   81.4380  221.6770 N   0  0  0  0  0  0  0  0  0  0  0  0
  141.8240   81.9220  222.9010 C   0  0  0  0  0  0  0  0  0  0  0  0
  141.5194   82.9375  223.1942 H   0  0  0  0  0  0  0  0  0  0  0  0
  142.5590   81.1320  223.7860 C   0  0  0  0  0  0  0  0  0  0  0  0
  142.8374   81.5190  224.7773 H   0  0  0  0  0  0  0  0  0  0  0  0
  142.9370   79.8450  223.3990 C   0  0  0  0  0  0  0  0  0  0  0  0
  143.5166   79.2103  224.0855 H   0  0  0  0  0  0  0  0  0  0  0  0
  142.5770   79.3660  222.1380 C   0  0  0  0  0  0  0  0  0  0  0  0
  142.8703   78.3526  221.8264 H   0  0  0  0  0  0  0  0  0  0  0  0
  1  2  1  0
  2  3  2  0
  3  4  1  0
  3  5  1  0
  5  6  2  0
  6  7  1  0
  7  8  2  0
  8  9  1  0
  8 10  1  0
 10 11  1  0
 10 12  2  0
 12 13  1  0
 12 14  1  0
 14 15  1  0
 14 16  2  0
 16 17  1  0
 17 18  2  0
 17 19  1  0
 19 20  1  0
 20 21  1  0
 20 22  1  0
 20 23  1  0
 23 24  1  6
 23 25  1  0
 25 26  1  0
 25 27  1  0
 25 28  1  0
 28 29  1  0
 28 30  1  0
 30 31  1  0
 30 32  1  0
 30 33  1  0
 33 34  1  0
 33 35  1  0
 33 36  1  0
 36 37  1  0
 36 38  1  0
  2 39  1  0
 39 40  2  0
 40 41  1  0
 41 42  1  0
 41 43  2  0
 43 44  1  0
 43 45  1  0
 45 46  1  0
 45 47  2  0
 47 48  1  0
 19  5  1  0
 36 23  1  0
 47 39  1  0
 16  7  1  0
M  END
>  <UniqueID>  (18) 
432

>  <SMILES>  (18) 
O=c1c2ccc(Cl)cc2nc(/C=C/c2ccccn2)n1C[C@H]1CCCNC1

>  <Energy>  (18) 
67.45969388579687

>  <Genealogy>  (18) 
O=c1c2ccc(Cl)cc2nc(/C=C/c2ccccn2)n1C[C@H]1CCCNC1 (chirality)
O=c1c2ccc(Cl)cc2nc(/C=C/c2ccccn2)n1C[C@H]1CCCNC1 (cis-trans isomerization)
O=c1c2ccc(Cl)cc2nc(/C=C/c2ccccn2)n1C[C@H]1CCCNC1 (3D coordinates assigned)
O=c1c2ccc(Cl)cc2nc(/C=C/c2ccccn2)n1C[C@H]1CCCNC1 (nonaromatic ring conformer: 67.45969388579687 kcal/mol)

>  <smiles>  (18) 
O=c1c2ccc(Cl)cc2nc(/C=C/c2ccccn2)n1CC1CCCNC1

>  <score_type>  (18) 
oracle

>  <origin>  (18) 
autodockgpu

>  <m_score__min__energy>  (18) 
-8.0899999999999999

>  <m_primary>  (18) 
energy

>  <meeko>  (18) 
{"free_energy": -6.47, "intermolecular_energy": -7.96, "internal_energy": -2.02, "cluster_size": 4, "cluster_id": 4, "rank_in_cluster": 1}

>  <energy>  (18) 
-6.32

>  <cluster_rmsd>  (18) 
0.0

>  <rmsd>  (18) 
270.85

>  <cluster>  (18) 
5

$$$$
MESWETRYUNDHFU-HEWZJLJBNA-N
     RDKit          3D

 48 51  0  0  0  0  0  0  0  0999 V2000
  140.4872   76.2572  223.1535 H   0  0  0  0  0  0  0  0  0  0  0  0
  140.9540   76.7690  222.2990 C   0  0  0  0  0  0  0  0  0  0  0  0
  141.0930   76.1010  221.1450 C   0  0  0  0  0  0  0  0  0  0  0  0
  141.3241   76.6629  220.2280 H   0  0  0  0  0  0  0  0  0  0  0  0
  140.9440   74.6210  221.0670 C   0  0  0  0  0  0  0  0  0  0  0  0
  140.1480   74.0210  221.9930 N   0  0  0  0  0  0  0  0  0  0  0  0
  139.9670   72.6830  222.0320 C   0  0  0  0  0  0  0  0  0  0  0  0
  139.1370   72.1170  223.0070 C   0  0  0  0  0  0  0  0  0  0  0  0
  138.6299   72.7626  223.7391 H   0  0  0  0  0  0  0  0  0  0  0  0
  138.9520   70.7310  223.0510 C   0  0  0  0  0  0  0  0  0  0  0  0
  137.9130   70.0220  224.2740 Cl  0  0  0  0  0  0  0  0  0  0  0  0
  139.5980   69.9110  222.1200 C   0  0  0  0  0  0  0  0  0  0  0  0
  139.4525   68.8212  222.1552 H   0  0  0  0  0  0  0  0  0  0  0  0
  140.4280   70.4720  221.1450 C   0  0  0  0  0  0  0  0  0  0  0  0
  140.9336   69.8230  220.4148 H   0  0  0  0  0  0  0  0  0  0  0  0
  140.6180   71.8670  221.0960 C   0  0  0  0  0  0  0  0  0  0  0  0
  141.4360   72.4820  220.1340 C   0  0  0  0  0  0  0  0  0  0  0  0
  142.0210   71.7640  219.2740 O   0  0  0  0  0  0  0  0  0  0  0  0
  141.5970   73.8510  220.1210 N   0  0  0  0  0  0  0  0  0  0  0  0
  142.4470   74.4490  219.0640 C   0  0  0  0  0  0  0  0  0  0  0  0
  142.2567   73.9245  218.1160 H   0  0  0  0  0  0  0  0  0  0  0  0
  142.1923   75.5162  218.9858 H   0  0  0  0  0  0  0  0  0  0  0  0
  143.9530   74.3400  219.4020 C   0  0  2  0  0  0  0  0  0  0  0  0
  144.3783   75.3458  219.2696 H   0  0  0  0  0  0  0  0  0  0  0  0
  144.7130   73.3950  218.4480 C   0  0  0  0  0  0  0  0  0  0  0  0
  144.5379   73.7233  217.4128 H   0  0  0  0  0  0  0  0  0  0  0  0
  144.3371   72.3753  218.6181 H   0  0  0  0  0  0  0  0  0  0  0  0
  146.1680   73.3850  218.7020 N   0  0  0  0  0  0  0  0  0  0  0  0
  146.6220   74.0940  218.0800 H   0  0  0  0  0  0  0  0  0  0  0  0
  146.5550   73.6900  220.0940 C   0  0  0  0  0  0  0  0  0  0  0  0
  146.6708   74.7788  220.1993 H   0  0  0  0  0  0  0  0  0  0  0  0
  147.4984   73.1654  220.3055 H   0  0  0  0  0  0  0  0  0  0  0  0
  145.5100   73.2050  221.1030 C   0  0  0  0  0  0  0  0  0  0  0  0
  145.8567   73.4415  222.1198 H   0  0  0  0  0  0  0  0  0  0  0  0
  145.3837   72.1195  220.9778 H   0  0  0  0  0  0  0  0  0  0  0  0
  144.1490   73.8830  220.8670 C   0  0  0  0  0  0  0  0  0  0  0  0
  144.0766   74.7634  221.5225 H   0  0  0  0  0  0  0  0  0  0  0  0
  143.3669   73.1425  221.0904 H   0  0  0  0  0  0  0  0  0  0  0  0
  141.4040   78.1670  222.4670 C   0  0  0  0  0  0  0  0  0  0  0  0
  141.4610   79.0140  221.4000 N   0  0  0  0  0  0  0  0  0  0  0  0
  141.8710   80.3050  221.5260 C   0  0  0  0  0  0  0  0  0  0  0  0
  141.9031   80.9601  220.6429 H   0  0  0  0  0  0  0  0  0  0  0  0
  142.2510   80.7990  222.7750 C   0  0  0  0  0  0  0  0  0  0  0  0
  142.5846   81.8417  222.8827 H   0  0  0  0  0  0  0  0  0  0  0  0
  142.2030   79.9550  223.8860 C   0  0  0  0  0  0  0  0  0  0  0  0
  142.4993   80.3300  224.8768 H   0  0  0  0  0  0  0  0  0  0  0  0
  141.7780   78.6340  223.7360 C   0  0  0  0  0  0  0  0  0  0  0  0
  141.7366   77.9635  224.6070 H   0  0  0  0  0  0  0  0  0  0  0  0
  1  2  1  0
  2  3  2  0
  3  4  1  0
  3  5  1  0
  5  6  2  0
  6  7  1  0
  7  8  2  0
  8  9  1  0
  8 10  1  0
 10 11  1  0
 10 12  2  0
 12 13  1  0
 12 14  1  0
 14 15  1  0
 14 16  2  0
 16 17  1  0
 17 18  2  0
 17 19  1  0
 19 20  1  0
 20 21  1  0
 20 22  1  0
 20 23  1  0
 23 24  1  1
 23 25  1  0
 25 26  1  0
 25 27  1  0
 25 28  1  0
 28 29  1  0
 28 30  1  0
 30 31  1  0
 30 32  1  0
 30 33  1  0
 33 34  1  0
 33 35  1  0
 33 36  1  0
 36 37  1  0
 36 38  1  0
  2 39  1  0
 39 40  2  0
 40 41  1  0
 41 42  1  0
 41 43  2  0
 43 44  1  0
 43 45  1  0
 45 46  1  0
 45 47  2  0
 47 48  1  0
 19  5  1  0
 36 23  1  0
 47 39  1  0
 16  7  1  0
M  END
>  <UniqueID>  (19) 
432

>  <SMILES>  (19) 
O=c1c2ccc(Cl)cc2nc(/C=C/c2ccccn2)n1C[C@H]1CCCNC1

>  <Energy>  (19) 
67.45969388579687

>  <Genealogy>  (19) 
O=c1c2ccc(Cl)cc2nc(/C=C/c2ccccn2)n1C[C@H]1CCCNC1 (chirality)
O=c1c2ccc(Cl)cc2nc(/C=C/c2ccccn2)n1C[C@H]1CCCNC1 (cis-trans isomerization)
O=c1c2ccc(Cl)cc2nc(/C=C/c2ccccn2)n1C[C@H]1CCCNC1 (3D coordinates assigned)
O=c1c2ccc(Cl)cc2nc(/C=C/c2ccccn2)n1C[C@H]1CCCNC1 (nonaromatic ring conformer: 67.45969388579687 kcal/mol)

>  <smiles>  (19) 
O=c1c2ccc(Cl)cc2nc(/C=C/c2ccccn2)n1CC1CCCNC1

>  <score_type>  (19) 
oracle

>  <origin>  (19) 
autodockgpu

>  <m_score__min__energy>  (19) 
-8.0899999999999999

>  <m_primary>  (19) 
energy

>  <meeko>  (19) 
{"free_energy": -7.79, "intermolecular_energy": -9.28, "internal_energy": -1.04, "cluster_size": 3, "cluster_id": 2, "rank_in_cluster": 1}

>  <energy>  (19) 
-5.87

>  <cluster_rmsd>  (19) 
0.0

>  <rmsd>  (19) 
272.26

>  <cluster>  (19) 
6

$$$$
MESWETRYUNDHFU-HEWZJLJBNA-N
     RDKit          3D

 48 51  0  0  0  0  0  0  0  0999 V2000
  141.7283   71.7633  222.2320 H   0  0  0  0  0  0  0  0  0  0  0  0
  140.6800   71.7470  222.5650 C   0  0  0  0  0  0  0  0  0  0  0  0
  139.7460   72.3060  221.7820 C   0  0  0  0  0  0  0  0  0  0  0  0
  139.2797   71.6994  220.9917 H   0  0  0  0  0  0  0  0  0  0  0  0
  139.3210   73.7230  221.9500 C   0  0  0  0  0  0  0  0  0  0  0  0
  140.2970   74.6540  222.1320 N   0  0  0  0  0  0  0  0  0  0  0  0
  140.0220   75.9630  222.3240 C   0  0  0  0  0  0  0  0  0  0  0  0
  141.0650   76.8770  222.5080 C   0  0  0  0  0  0  0  0  0  0  0  0
  142.1088   76.5303  222.4931 H   0  0  0  0  0  0  0  0  0  0  0  0
  140.7810   78.2320  222.7110 C   0  0  0  0  0  0  0  0  0  0  0  0
  142.0880   79.3790  222.9420 Cl  0  0  0  0  0  0  0  0  0  0  0  0
  139.4530   78.6720  222.7310 C   0  0  0  0  0  0  0  0  0  0  0  0
  139.2304   79.7373  222.8911 H   0  0  0  0  0  0  0  0  0  0  0  0
  138.4080   77.7610  222.5480 C   0  0  0  0  0  0  0  0  0  0  0  0
  137.3654   78.1112  222.5641 H   0  0  0  0  0  0  0  0  0  0  0  0
  138.6880   76.3950  222.3430 C   0  0  0  0  0  0  0  0  0  0  0  0
  137.6770   75.4400  222.1500 C   0  0  0  0  0  0  0  0  0  0  0  0
  136.4690   75.8140  222.1510 O   0  0  0  0  0  0  0  0  0  0  0  0
  137.9930   74.1130  221.9540 N   0  0  0  0  0  0  0  0  0  0  0  0
  136.8870   73.1530  221.7230 C   0  0  0  0  0  0  0  0  0  0  0  0
  135.9351   73.7041  221.7105 H   0  0  0  0  0  0  0  0  0  0  0  0
  137.0682   72.6505  220.7614 H   0  0  0  0  0  0  0  0  0  0  0  0
  136.8220   72.0680  222.8250 C   0  0  2  0  0  0  0  0  0  0  0  0
  137.7863   72.0960  223.3535 H   0  0  0  0  0  0  0  0  0  0  0  0
  136.6580   70.6450  222.2510 C   0  0  0  0  0  0  0  0  0  0  0  0
  137.4659   70.4608  221.5276 H   0  0  0  0  0  0  0  0  0  0  0  0
  135.6685   70.5882  221.7739 H   0  0  0  0  0  0  0  0  0  0  0  0
  136.7130   69.6040  223.2990 N   0  0  0  0  0  0  0  0  0  0  0  0
  137.7000   69.2670  223.3850 H   0  0  0  0  0  0  0  0  0  0  0  0
  136.2670   70.0470  224.6350 C   0  0  0  0  0  0  0  0  0  0  0  0
  137.1297   70.4611  225.1775 H   0  0  0  0  0  0  0  0  0  0  0  0
  135.8472   69.1751  225.1580 H   0  0  0  0  0  0  0  0  0  0  0  0
  135.1750   71.1180  224.5530 C   0  0  0  0  0  0  0  0  0  0  0  0
  134.8688   71.3964  225.5722 H   0  0  0  0  0  0  0  0  0  0  0  0
  134.3248   70.7048  223.9905 H   0  0  0  0  0  0  0  0  0  0  0  0
  135.6780   72.3740  223.8200 C   0  0  0  0  0  0  0  0  0  0  0  0
  136.0445   73.0938  224.5667 H   0  0  0  0  0  0  0  0  0  0  0  0
  134.8352   72.7804  223.2417 H   0  0  0  0  0  0  0  0  0  0  0  0
  140.3550   71.1100  223.8580 C   0  0  0  0  0  0  0  0  0  0  0  0
  139.7010   69.9140  223.9020 N   0  0  0  0  0  0  0  0  0  0  0  0
  139.3900   69.3050  225.0780 C   0  0  0  0  0  0  0  0  0  0  0  0
  138.8629   68.3395  225.0743 H   0  0  0  0  0  0  0  0  0  0  0  0
  139.7390   69.9040  226.2890 C   0  0  0  0  0  0  0  0  0  0  0  0
  139.4891   69.4167  227.2430 H   0  0  0  0  0  0  0  0  0  0  0  0
  140.4090   71.1290  226.2760 C   0  0  0  0  0  0  0  0  0  0  0  0
  140.6902   71.6137  227.2226 H   0  0  0  0  0  0  0  0  0  0  0  0
  140.7210   71.7370  225.0590 C   0  0  0  0  0  0  0  0  0  0  0  0
  141.2502   72.7012  225.0414 H   0  0  0  0  0  0  0  0  0  0  0  0
  1  2  1  0
  2  3  2  0
  3  4  1  0
  3  5  1  0
  5  6  2  0
  6  7  1  0
  7  8  2  0
  8  9  1  0
  8 10  1  0
 10 11  1  0
 10 12  2  0
 12 13  1  0
 12 14  1  0
 14 15  1  0
 14 16  2  0
 16 17  1  0
 17 18  2  0
 17 19  1  0
 19 20  1  0
 20 21  1  0
 20 22  1  0
 20 23  1  0
 23 24  1  1
 23 25  1  0
 25 26  1  0
 25 27  1  0
 25 28  1  0
 28 29  1  0
 28 30  1  0
 30 31  1  0
 30 32  1  0
 30 33  1  0
 33 34  1  0
 33 35  1  0
 33 36  1  0
 36 37  1  0
 36 38  1  0
  2 39  1  0
 39 40  2  0
 40 41  1  0
 41 42  1  0
 41 43  2  0
 43 44  1  0
 43 45  1  0
 45 46  1  0
 45 47  2  0
 47 48  1  0
 19  5  1  0
 36 23  1  0
 47 39  1  0
 16  7  1  0
M  END
>  <UniqueID>  (20) 
432

>  <SMILES>  (20) 
O=c1c2ccc(Cl)cc2nc(/C=C/c2ccccn2)n1C[C@H]1CCCNC1

>  <Energy>  (20) 
67.45969388579687

>  <Genealogy>  (20) 
O=c1c2ccc(Cl)cc2nc(/C=C/c2ccccn2)n1C[C@H]1CCCNC1 (chirality)
O=c1c2ccc(Cl)cc2nc(/C=C/c2ccccn2)n1C[C@H]1CCCNC1 (cis-trans isomerization)
O=c1c2ccc(Cl)cc2nc(/C=C/c2ccccn2)n1C[C@H]1CCCNC1 (3D coordinates assigned)
O=c1c2ccc(Cl)cc2nc(/C=C/c2ccccn2)n1C[C@H]1CCCNC1 (nonaromatic ring conformer: 67.45969388579687 kcal/mol)

>  <smiles>  (20) 
O=c1c2ccc(Cl)cc2nc(/C=C/c2ccccn2)n1CC1CCCNC1

>  <score_type>  (20) 
oracle

>  <origin>  (20) 
autodockgpu

>  <m_score__min__energy>  (20) 
-8.0899999999999999

>  <m_primary>  (20) 
energy

>  <meeko>  (20) 
{"free_energy": -6.32, "intermolecular_energy": -7.81, "internal_energy": -2.22, "cluster_size": 1, "cluster_id": 5, "rank_in_cluster": 1}

>  <energy>  (20) 
-5.87

>  <cluster_rmsd>  (20) 
0.18

>  <rmsd>  (20) 
272.16

>  <cluster>  (20) 
6

$$$$
MESWETRYUNDHFU-LOWQCSRCNA-N
     RDKit          3D

 48 51  0  0  0  0  0  0  0  0999 V2000
  142.5093   80.5020  219.0667 H   0  0  0  0  0  0  0  0  0  0  0  0
  141.9150   79.9490  219.8090 C   0  0  0  0  0  0  0  0  0  0  0  0
  141.1210   78.9560  219.3870 C   0  0  0  0  0  0  0  0  0  0  0  0
  140.3173   79.1748  218.6685 H   0  0  0  0  0  0  0  0  0  0  0  0
  141.3070   77.5660  219.8720 C   0  0  0  0  0  0  0  0  0  0  0  0
  142.5290   77.0000  219.6900 N   0  0  0  0  0  0  0  0  0  0  0  0
  142.8010   75.7330  220.0750 C   0  0  0  0  0  0  0  0  0  0  0  0
  144.0760   75.1960  219.8660 C   0  0  0  0  0  0  0  0  0  0  0  0
  144.8574   75.8054  219.3885 H   0  0  0  0  0  0  0  0  0  0  0  0
  144.3580   73.8840  220.2640 C   0  0  0  0  0  0  0  0  0  0  0  0
  145.9570   73.2120  220.0030 Cl  0  0  0  0  0  0  0  0  0  0  0  0
  143.3640   73.1090  220.8690 C   0  0  0  0  0  0  0  0  0  0  0  0
  143.5860   72.0777  221.1806 H   0  0  0  0  0  0  0  0  0  0  0  0
  142.0880   73.6420  221.0790 C   0  0  0  0  0  0  0  0  0  0  0  0
  141.3088   73.0284  221.5548 H   0  0  0  0  0  0  0  0  0  0  0  0
  141.7980   74.9620  220.6830 C   0  0  0  0  0  0  0  0  0  0  0  0
  140.5370   75.5490  220.8820 C   0  0  0  0  0  0  0  0  0  0  0  0
  139.6250   74.8770  221.4440 O   0  0  0  0  0  0  0  0  0  0  0  0
  140.2970   76.8460  220.4820 N   0  0  0  0  0  0  0  0  0  0  0  0
  138.9800   77.4490  220.8020 C   0  0  0  0  0  0  0  0  0  0  0  0
  138.4836   77.7395  219.8644 H   0  0  0  0  0  0  0  0  0  0  0  0
  138.3846   76.7026  221.3482 H   0  0  0  0  0  0  0  0  0  0  0  0
  139.1270   78.7000  221.7000 C   0  0  1  0  0  0  0  0  0  0  0  0
  140.2040   78.8857  221.8245 H   0  0  0  0  0  0  0  0  0  0  0  0
  138.5150   79.9610  221.0520 C   0  0  0  0  0  0  0  0  0  0  0  0
  137.4347   79.8000  220.9214 H   0  0  0  0  0  0  0  0  0  0  0  0
  139.0234   80.1187  220.0893 H   0  0  0  0  0  0  0  0  0  0  0  0
  138.7160   81.1780  221.8660 N   0  0  0  0  0  0  0  0  0  0  0  0
  139.5800   81.6660  221.5280 H   0  0  0  0  0  0  0  0  0  0  0  0
  138.8720   80.9380  223.3130 C   0  0  0  0  0  0  0  0  0  0  0  0
  138.5457   81.8352  223.8594 H   0  0  0  0  0  0  0  0  0  0  0  0
  139.9315   80.7173  223.5095 H   0  0  0  0  0  0  0  0  0  0  0  0
  138.0430   79.7420  223.7860 C   0  0  0  0  0  0  0  0  0  0  0  0
  136.9830   79.9279  223.5585 H   0  0  0  0  0  0  0  0  0  0  0  0
  138.1923   79.6217  224.8692 H   0  0  0  0  0  0  0  0  0  0  0  0
  138.4860   78.4460  223.0870 C   0  0  0  0  0  0  0  0  0  0  0  0
  137.6057   77.7999  222.9542 H   0  0  0  0  0  0  0  0  0  0  0  0
  139.2487   77.9717  223.7221 H   0  0  0  0  0  0  0  0  0  0  0  0
  142.0240   80.3310  221.2330 C   0  0  0  0  0  0  0  0  0  0  0  0
  141.7290   81.6000  221.6400 N   0  0  0  0  0  0  0  0  0  0  0  0
  141.8240   81.9780  222.9430 C   0  0  0  0  0  0  0  0  0  0  0  0
  141.5824   83.0107  223.2349 H   0  0  0  0  0  0  0  0  0  0  0  0
  142.2280   81.0560  223.9100 C   0  0  0  0  0  0  0  0  0  0  0  0
  142.3044   81.3553  224.9658 H   0  0  0  0  0  0  0  0  0  0  0  0
  142.5340   79.7500  223.5230 C   0  0  0  0  0  0  0  0  0  0  0  0
  142.8508   79.0123  224.2749 H   0  0  0  0  0  0  0  0  0  0  0  0
  142.4370   79.3820  222.1790 C   0  0  0  0  0  0  0  0  0  0  0  0
  142.6825   78.3566  221.8655 H   0  0  0  0  0  0  0  0  0  0  0  0
  1  2  1  0
  2  3  2  0
  3  4  1  0
  3  5  1  0
  5  6  2  0
  6  7  1  0
  7  8  2  0
  8  9  1  0
  8 10  1  0
 10 11  1  0
 10 12  2  0
 12 13  1  0
 12 14  1  0
 14 15  1  0
 14 16  2  0
 16 17  1  0
 17 18  2  0
 17 19  1  0
 19 20  1  0
 20 21  1  0
 20 22  1  0
 20 23  1  0
 23 24  1  1
 23 25  1  0
 25 26  1  0
 25 27  1  0
 25 28  1  0
 28 29  1  0
 28 30  1  0
 30 31  1  0
 30 32  1  0
 30 33  1  0
 33 34  1  0
 33 35  1  0
 33 36  1  0
 36 37  1  0
 36 38  1  0
  2 39  1  0
 39 40  2  0
 40 41  1  0
 41 42  1  0
 41 43  2  0
 43 44  1  0
 43 45  1  0
 45 46  1  0
 45 47  2  0
 47 48  1  0
 19  5  1  0
 36 23  1  0
 47 39  1  0
 16  7  1  0
M  END
>  <UniqueID>  (21) 
433

>  <SMILES>  (21) 
O=c1c2ccc(Cl)cc2nc(/C=C/c2ccccn2)n1C[C@@H]1CCCNC1

>  <Energy>  (21) 
68.12828973817594

>  <Genealogy>  (21) 
O=c1c2ccc(Cl)cc2nc(/C=C/c2ccccn2)n1C[C@@H]1CCCNC1 (chirality)
O=c1c2ccc(Cl)cc2nc(/C=C/c2ccccn2)n1C[C@@H]1CCCNC1 (cis-trans isomerization)
O=c1c2ccc(Cl)cc2nc(/C=C/c2ccccn2)n1C[C@@H]1CCCNC1 (3D coordinates assigned)
O=c1c2ccc(Cl)cc2nc(/C=C/c2ccccn2)n1C[C@@H]1CCCNC1 (nonaromatic ring conformer: 68.12828973817594 kcal/mol)

>  <smiles>  (21) 
O=c1c2ccc(Cl)cc2nc(/C=C/c2ccccn2)n1CC1CCCNC1

>  <score_type>  (21) 
oracle

>  <origin>  (21) 
autodockgpu

>  <m_score__min__energy>  (21) 
-7.7199999999999998

>  <m_primary>  (21) 
energy

>  <meeko>  (21) 
{"free_energy": -6.23, "intermolecular_energy": -7.72, "internal_energy": -2.44, "cluster_size": 3, "cluster_id": 5, "rank_in_cluster": 1}

>  <energy>  (21) 
-7.72

>  <cluster_rmsd>  (21) 
0.0

>  <rmsd>  (21) 
270.64

>  <cluster>  (21) 
1

$$$$
MESWETRYUNDHFU-LOWQCSRCNA-N
     RDKit          3D

 48 51  0  0  0  0  0  0  0  0999 V2000
  141.7490   71.5688  221.9534 H   0  0  0  0  0  0  0  0  0  0  0  0
  140.7940   71.8800  222.4020 C   0  0  0  0  0  0  0  0  0  0  0  0
  140.0540   72.7990  221.7670 C   0  0  0  0  0  0  0  0  0  0  0  0
  138.9992   72.5820  221.5428 H   0  0  0  0  0  0  0  0  0  0  0  0
  140.6310   74.1030  221.3610 C   0  0  0  0  0  0  0  0  0  0  0  0
  140.3690   75.1760  222.1530 N   0  0  0  0  0  0  0  0  0  0  0  0
  140.8290   76.4140  221.8660 C   0  0  0  0  0  0  0  0  0  0  0  0
  140.5320   77.4870  222.7150 C   0  0  0  0  0  0  0  0  0  0  0  0
  139.9246   77.3220  223.6172 H   0  0  0  0  0  0  0  0  0  0  0  0
  141.0070   78.7690  222.4170 C   0  0  0  0  0  0  0  0  0  0  0  0
  140.6350   80.1120  223.4820 Cl  0  0  0  0  0  0  0  0  0  0  0  0
  141.7770   78.9790  221.2680 C   0  0  0  0  0  0  0  0  0  0  0  0
  142.1491   79.9873  221.0338 H   0  0  0  0  0  0  0  0  0  0  0  0
  142.0750   77.9100  220.4160 C   0  0  0  0  0  0  0  0  0  0  0  0
  142.6798   78.0800  219.5131 H   0  0  0  0  0  0  0  0  0  0  0  0
  141.6020   76.6160  220.7120 C   0  0  0  0  0  0  0  0  0  0  0  0
  141.8840   75.5070  219.8970 C   0  0  0  0  0  0  0  0  0  0  0  0
  142.5930   75.6650  218.8620 O   0  0  0  0  0  0  0  0  0  0  0  0
  141.4040   74.2580  220.2250 N   0  0  0  0  0  0  0  0  0  0  0  0
  141.8090   73.1040  219.3840 C   0  0  0  0  0  0  0  0  0  0  0  0
  141.1813   72.2379  219.6407 H   0  0  0  0  0  0  0  0  0  0  0  0
  141.6787   73.3858  218.3287 H   0  0  0  0  0  0  0  0  0  0  0  0
  143.2940   72.7300  219.6040 C   0  0  1  0  0  0  0  0  0  0  0  0
  143.3353   71.6415  219.7574 H   0  0  0  0  0  0  0  0  0  0  0  0
  144.1680   73.0540  218.3730 C   0  0  0  0  0  0  0  0  0  0  0  0
  144.1452   74.1404  218.2019 H   0  0  0  0  0  0  0  0  0  0  0  0
  143.7556   72.4976  217.5184 H   0  0  0  0  0  0  0  0  0  0  0  0
  145.5740   72.6320  218.5420 N   0  0  0  0  0  0  0  0  0  0  0  0
  145.6880   71.6770  218.1240 H   0  0  0  0  0  0  0  0  0  0  0  0
  146.0390   72.5670  219.9400 C   0  0  0  0  0  0  0  0  0  0  0  0
  147.1284   72.7184  219.9598 H   0  0  0  0  0  0  0  0  0  0  0  0
  145.7682   71.5802  220.3437 H   0  0  0  0  0  0  0  0  0  0  0  0
  145.3750   73.6350  220.8130 C   0  0  0  0  0  0  0  0  0  0  0  0
  145.6011   74.6286  220.3987 H   0  0  0  0  0  0  0  0  0  0  0  0
  145.7685   73.5427  221.8361 H   0  0  0  0  0  0  0  0  0  0  0  0
  143.8500   73.4460  220.8590 C   0  0  0  0  0  0  0  0  0  0  0  0
  143.3758   74.4354  220.9376 H   0  0  0  0  0  0  0  0  0  0  0  0
  143.6218   72.8126  221.7289 H   0  0  0  0  0  0  0  0  0  0  0  0
  140.3780   71.2680  223.6810 C   0  0  0  0  0  0  0  0  0  0  0  0
  141.0480   71.5420  224.8380 N   0  0  0  0  0  0  0  0  0  0  0  0
  140.6880   70.9900  226.0270 C   0  0  0  0  0  0  0  0  0  0  0  0
  141.2539   71.2311  226.9389 H   0  0  0  0  0  0  0  0  0  0  0  0
  139.6000   70.1170  226.0910 C   0  0  0  0  0  0  0  0  0  0  0  0
  139.3020   69.6692  227.0505 H   0  0  0  0  0  0  0  0  0  0  0  0
  138.8950   69.8190  224.9240 C   0  0  0  0  0  0  0  0  0  0  0  0
  138.0344   69.1348  224.9599 H   0  0  0  0  0  0  0  0  0  0  0  0
  139.2840   70.3910  223.7100 C   0  0  0  0  0  0  0  0  0  0  0  0
  138.7370   70.1555  222.7852 H   0  0  0  0  0  0  0  0  0  0  0  0
  1  2  1  0
  2  3  2  0
  3  4  1  0
  3  5  1  0
  5  6  2  0
  6  7  1  0
  7  8  2  0
  8  9  1  0
  8 10  1  0
 10 11  1  0
 10 12  2  0
 12 13  1  0
 12 14  1  0
 14 15  1  0
 14 16  2  0
 16 17  1  0
 17 18  2  0
 17 19  1  0
 19 20  1  0
 20 21  1  0
 20 22  1  0
 20 23  1  0
 23 24  1  1
 23 25  1  0
 25 26  1  0
 25 27  1  0
 25 28  1  0
 28 29  1  0
 28 30  1  0
 30 31  1  0
 30 32  1  0
 30 33  1  0
 33 34  1  0
 33 35  1  0
 33 36  1  0
 36 37  1  0
 36 38  1  0
  2 39  1  0
 39 40  2  0
 40 41  1  0
 41 42  1  0
 41 43  2  0
 43 44  1  0
 43 45  1  0
 45 46  1  0
 45 47  2  0
 47 48  1  0
 19  5  1  0
 36 23  1  0
 47 39  1  0
 16  7  1  0
M  END
>  <UniqueID>  (22) 
433

>  <SMILES>  (22) 
O=c1c2ccc(Cl)cc2nc(/C=C/c2ccccn2)n1C[C@@H]1CCCNC1

>  <Energy>  (22) 
68.12828973817594

>  <Genealogy>  (22) 
O=c1c2ccc(Cl)cc2nc(/C=C/c2ccccn2)n1C[C@@H]1CCCNC1 (chirality)
O=c1c2ccc(Cl)cc2nc(/C=C/c2ccccn2)n1C[C@@H]1CCCNC1 (cis-trans isomerization)
O=c1c2ccc(Cl)cc2nc(/C=C/c2ccccn2)n1C[C@@H]1CCCNC1 (3D coordinates assigned)
O=c1c2ccc(Cl)cc2nc(/C=C/c2ccccn2)n1C[C@@H]1CCCNC1 (nonaromatic ring conformer: 68.12828973817594 kcal/mol)

>  <smiles>  (22) 
O=c1c2ccc(Cl)cc2nc(/C=C/c2ccccn2)n1CC1CCCNC1

>  <score_type>  (22) 
oracle

>  <origin>  (22) 
autodockgpu

>  <m_score__min__energy>  (22) 
-7.7199999999999998

>  <m_primary>  (22) 
energy

>  <meeko>  (22) 
{"free_energy": -7.55, "intermolecular_energy": -9.04, "internal_energy": -1.07, "cluster_size": 8, "cluster_id": 1, "rank_in_cluster": 7}

>  <energy>  (22) 
-7.7

>  <cluster_rmsd>  (22) 
0.13

>  <rmsd>  (22) 
270.64

>  <cluster>  (22) 
1

$$$$
MESWETRYUNDHFU-LOWQCSRCNA-N
     RDKit          3D

 48 51  0  0  0  0  0  0  0  0999 V2000
  143.6125   79.3546  222.9154 H   0  0  0  0  0  0  0  0  0  0  0  0
  142.5440   79.4900  222.6920 C   0  0  0  0  0  0  0  0  0  0  0  0
  141.6480   78.7490  223.3590 C   0  0  0  0  0  0  0  0  0  0  0  0
  141.9959   77.9164  223.9881 H   0  0  0  0  0  0  0  0  0  0  0  0
  140.1950   79.0330  223.2630 C   0  0  0  0  0  0  0  0  0  0  0  0
  139.6510   79.8300  224.2200 N   0  0  0  0  0  0  0  0  0  0  0  0
  138.3340   80.1360  224.2400 C   0  0  0  0  0  0  0  0  0  0  0  0
  137.8220   80.9630  225.2470 C   0  0  0  0  0  0  0  0  0  0  0  0
  138.4915   81.3645  226.0220 H   0  0  0  0  0  0  0  0  0  0  0  0
  136.4590   81.2790  225.2680 C   0  0  0  0  0  0  0  0  0  0  0  0
  135.8180   82.3160  226.5290 Cl  0  0  0  0  0  0  0  0  0  0  0  0
  135.6070   80.7660  224.2840 C   0  0  0  0  0  0  0  0  0  0  0  0
  134.5354   81.0136  224.3024 H   0  0  0  0  0  0  0  0  0  0  0  0
  136.1150   79.9390  223.2770 C   0  0  0  0  0  0  0  0  0  0  0  0
  135.4417   79.5373  222.5055 H   0  0  0  0  0  0  0  0  0  0  0  0
  137.4870   79.6190  223.2480 C   0  0  0  0  0  0  0  0  0  0  0  0
  138.0490   78.8030  222.2510 C   0  0  0  0  0  0  0  0  0  0  0  0
  137.3060   78.3410  221.3390 O   0  0  0  0  0  0  0  0  0  0  0  0
  139.3970   78.5170  222.2590 N   0  0  0  0  0  0  0  0  0  0  0  0
  139.9560   77.7310  221.1320 C   0  0  0  0  0  0  0  0  0  0  0  0
  139.1888   77.6344  220.3497 H   0  0  0  0  0  0  0  0  0  0  0  0
  140.8425   78.2597  220.7517 H   0  0  0  0  0  0  0  0  0  0  0  0
  140.3940   76.3170  221.5820 C   0  0  1  0  0  0  0  0  0  0  0  0
  140.8186   76.4141  222.5921 H   0  0  0  0  0  0  0  0  0  0  0  0
  139.2030   75.3380  221.6760 C   0  0  0  0  0  0  0  0  0  0  0  0
  138.7639   75.2215  220.6742 H   0  0  0  0  0  0  0  0  0  0  0  0
  138.4820   75.7612  222.3909 H   0  0  0  0  0  0  0  0  0  0  0  0
  139.5960   74.0050  222.1770 N   0  0  0  0  0  0  0  0  0  0  0  0
  139.4410   73.9800  223.2130 H   0  0  0  0  0  0  0  0  0  0  0  0
  141.0010   73.6370  221.9240 C   0  0  0  0  0  0  0  0  0  0  0  0
  141.0792   72.5406  221.8823 H   0  0  0  0  0  0  0  0  0  0  0  0
  141.6127   74.0482  222.7405 H   0  0  0  0  0  0  0  0  0  0  0  0
  141.5170   74.2200  220.6060 C   0  0  0  0  0  0  0  0  0  0  0  0
  140.8889   73.8530  219.7809 H   0  0  0  0  0  0  0  0  0  0  0  0
  142.5611   73.9020  220.4692 H   0  0  0  0  0  0  0  0  0  0  0  0
  141.4740   75.7570  220.6240 C   0  0  0  0  0  0  0  0  0  0  0  0
  141.2598   76.1143  219.6059 H   0  0  0  0  0  0  0  0  0  0  0  0
  142.4512   76.1110  220.9842 H   0  0  0  0  0  0  0  0  0  0  0  0
  142.1530   80.4820  221.6680 C   0  0  0  0  0  0  0  0  0  0  0  0
  142.1890   80.1670  220.3410 N   0  0  0  0  0  0  0  0  0  0  0  0
  141.8370   81.0620  219.3790 C   0  0  0  0  0  0  0  0  0  0  0  0
  141.8817   80.7750  218.3180 H   0  0  0  0  0  0  0  0  0  0  0  0
  141.4190   82.3450  219.7380 C   0  0  0  0  0  0  0  0  0  0  0  0
  141.1315   83.0727  218.9649 H   0  0  0  0  0  0  0  0  0  0  0  0
  141.3700   82.6940  221.0880 C   0  0  0  0  0  0  0  0  0  0  0  0
  141.0396   83.7003  221.3850 H   0  0  0  0  0  0  0  0  0  0  0  0
  141.7410   81.7640  222.0620 C   0  0  0  0  0  0  0  0  0  0  0  0
  141.7104   82.0342  223.1279 H   0  0  0  0  0  0  0  0  0  0  0  0
  1  2  1  0
  2  3  2  0
  3  4  1  0
  3  5  1  0
  5  6  2  0
  6  7  1  0
  7  8  2  0
  8  9  1  0
  8 10  1  0
 10 11  1  0
 10 12  2  0
 12 13  1  0
 12 14  1  0
 14 15  1  0
 14 16  2  0
 16 17  1  0
 17 18  2  0
 17 19  1  0
 19 20  1  0
 20 21  1  0
 20 22  1  0
 20 23  1  0
 23 24  1  1
 23 25  1  0
 25 26  1  0
 25 27  1  0
 25 28  1  0
 28 29  1  0
 28 30  1  0
 30 31  1  0
 30 32  1  0
 30 33  1  0
 33 34  1  0
 33 35  1  0
 33 36  1  0
 36 37  1  0
 36 38  1  0
  2 39  1  0
 39 40  2  0
 40 41  1  0
 41 42  1  0
 41 43  2  0
 43 44  1  0
 43 45  1  0
 45 46  1  0
 45 47  2  0
 47 48  1  0
 19  5  1  0
 36 23  1  0
 47 39  1  0
 16  7  1  0
M  END
>  <UniqueID>  (23) 
433

>  <SMILES>  (23) 
O=c1c2ccc(Cl)cc2nc(/C=C/c2ccccn2)n1C[C@@H]1CCCNC1

>  <Energy>  (23) 
68.12828973817594

>  <Genealogy>  (23) 
O=c1c2ccc(Cl)cc2nc(/C=C/c2ccccn2)n1C[C@@H]1CCCNC1 (chirality)
O=c1c2ccc(Cl)cc2nc(/C=C/c2ccccn2)n1C[C@@H]1CCCNC1 (cis-trans isomerization)
O=c1c2ccc(Cl)cc2nc(/C=C/c2ccccn2)n1C[C@@H]1CCCNC1 (3D coordinates assigned)
O=c1c2ccc(Cl)cc2nc(/C=C/c2ccccn2)n1C[C@@H]1CCCNC1 (nonaromatic ring conformer: 68.12828973817594 kcal/mol)

>  <smiles>  (23) 
O=c1c2ccc(Cl)cc2nc(/C=C/c2ccccn2)n1CC1CCCNC1

>  <score_type>  (23) 
oracle

>  <origin>  (23) 
autodockgpu

>  <m_score__min__energy>  (23) 
-7.7199999999999998

>  <m_primary>  (23) 
energy

>  <meeko>  (23) 
{"free_energy": -6.8, "intermolecular_energy": -8.3, "internal_energy": -1.53, "cluster_size": 2, "cluster_id": 3, "rank_in_cluster": 2}

>  <energy>  (23) 
-7.65

>  <cluster_rmsd>  (23) 
0.58

>  <rmsd>  (23) 
270.65

>  <cluster>  (23) 
1

$$$$
MESWETRYUNDHFU-LOWQCSRCNA-N
     RDKit          3D

 48 51  0  0  0  0  0  0  0  0999 V2000
  139.8147   67.3845  226.6443 H   0  0  0  0  0  0  0  0  0  0  0  0
  139.6550   68.2780  226.0230 C   0  0  0  0  0  0  0  0  0  0  0  0
  139.0180   68.1430  224.8530 C   0  0  0  0  0  0  0  0  0  0  0  0
  139.3044   67.3270  224.1732 H   0  0  0  0  0  0  0  0  0  0  0  0
  137.9330   69.0740  224.4570 C   0  0  0  0  0  0  0  0  0  0  0  0
  136.8940   69.2260  225.3200 N   0  0  0  0  0  0  0  0  0  0  0  0
  135.8450   70.0340  225.0490 C   0  0  0  0  0  0  0  0  0  0  0  0
  134.7990   70.1570  225.9720 C   0  0  0  0  0  0  0  0  0  0  0  0
  134.8321   69.5966  226.9180 H   0  0  0  0  0  0  0  0  0  0  0  0
  133.7120   70.9920  225.6920 C   0  0  0  0  0  0  0  0  0  0  0  0
  132.4030   71.1460  226.8490 Cl  0  0  0  0  0  0  0  0  0  0  0  0
  133.6690   71.7030  224.4880 C   0  0  0  0  0  0  0  0  0  0  0  0
  132.8131   72.3578  224.2676 H   0  0  0  0  0  0  0  0  0  0  0  0
  134.7120   71.5830  223.5640 C   0  0  0  0  0  0  0  0  0  0  0  0
  134.6748   72.1447  222.6189 H   0  0  0  0  0  0  0  0  0  0  0  0
  135.8100   70.7450  223.8400 C   0  0  0  0  0  0  0  0  0  0  0  0
  136.8890   70.5990  222.9510 C   0  0  0  0  0  0  0  0  0  0  0  0
  136.8850   71.2450  221.8640 O   0  0  0  0  0  0  0  0  0  0  0  0
  137.9450   69.7710  223.2630 N   0  0  0  0  0  0  0  0  0  0  0  0
  139.1020   69.7260  222.3350 C   0  0  0  0  0  0  0  0  0  0  0  0
  139.9450   69.2317  222.8400 H   0  0  0  0  0  0  0  0  0  0  0  0
  138.7991   69.1687  221.4363 H   0  0  0  0  0  0  0  0  0  0  0  0
  139.5410   71.1440  221.8980 C   0  0  1  0  0  0  0  0  0  0  0  0
  138.7154   71.5741  221.3120 H   0  0  0  0  0  0  0  0  0  0  0  0
  139.7840   72.0780  223.1030 C   0  0  0  0  0  0  0  0  0  0  0  0
  140.6103   71.6695  223.7033 H   0  0  0  0  0  0  0  0  0  0  0  0
  138.8475   72.1273  223.6780 H   0  0  0  0  0  0  0  0  0  0  0  0
  140.1310   73.4570  222.6980 N   0  0  0  0  0  0  0  0  0  0  0  0
  139.2540   74.0300  222.6840 H   0  0  0  0  0  0  0  0  0  0  0  0
  140.7630   73.5730  221.3700 C   0  0  0  0  0  0  0  0  0  0  0  0
  141.3874   74.4784  221.3512 H   0  0  0  0  0  0  0  0  0  0  0  0
  139.9641   73.6265  220.6158 H   0  0  0  0  0  0  0  0  0  0  0  0
  141.6400   72.3600  221.0470 C   0  0  0  0  0  0  0  0  0  0  0  0
  142.4201   72.2661  221.8168 H   0  0  0  0  0  0  0  0  0  0  0  0
  142.0904   72.5102  220.0547 H   0  0  0  0  0  0  0  0  0  0  0  0
  140.8100   71.0670  221.0140 C   0  0  0  0  0  0  0  0  0  0  0  0
  141.4376   70.2376  221.3721 H   0  0  0  0  0  0  0  0  0  0  0  0
  140.4808   70.9120  219.9759 H   0  0  0  0  0  0  0  0  0  0  0  0
  140.1520   69.5820  226.5120 C   0  0  0  0  0  0  0  0  0  0  0  0
  140.8510   70.4160  225.6880 N   0  0  0  0  0  0  0  0  0  0  0  0
  141.3220   71.6190  226.1140 C   0  0  0  0  0  0  0  0  0  0  0  0
  141.8843   72.2650  225.4237 H   0  0  0  0  0  0  0  0  0  0  0  0
  141.0920   72.0340  227.4270 C   0  0  0  0  0  0  0  0  0  0  0  0
  141.4688   73.0065  227.7767 H   0  0  0  0  0  0  0  0  0  0  0  0
  140.3790   71.2020  228.2910 C   0  0  0  0  0  0  0  0  0  0  0  0
  140.1883   71.5177  229.3273 H   0  0  0  0  0  0  0  0  0  0  0  0
  139.9080   69.9680  227.8380 C   0  0  0  0  0  0  0  0  0  0  0  0
  139.3504   69.3044  228.5153 H   0  0  0  0  0  0  0  0  0  0  0  0
  1  2  1  0
  2  3  2  0
  3  4  1  0
  3  5  1  0
  5  6  2  0
  6  7  1  0
  7  8  2  0
  8  9  1  0
  8 10  1  0
 10 11  1  0
 10 12  2  0
 12 13  1  0
 12 14  1  0
 14 15  1  0
 14 16  2  0
 16 17  1  0
 17 18  2  0
 17 19  1  0
 19 20  1  0
 20 21  1  0
 20 22  1  0
 20 23  1  0
 23 24  1  6
 23 25  1  0
 25 26  1  0
 25 27  1  0
 25 28  1  0
 28 29  1  0
 28 30  1  0
 30 31  1  0
 30 32  1  0
 30 33  1  0
 33 34  1  0
 33 35  1  0
 33 36  1  0
 36 37  1  0
 36 38  1  0
  2 39  1  0
 39 40  2  0
 40 41  1  0
 41 42  1  0
 41 43  2  0
 43 44  1  0
 43 45  1  0
 45 46  1  0
 45 47  2  0
 47 48  1  0
 19  5  1  0
 36 23  1  0
 47 39  1  0
 16  7  1  0
M  END
>  <UniqueID>  (24) 
433

>  <SMILES>  (24) 
O=c1c2ccc(Cl)cc2nc(/C=C/c2ccccn2)n1C[C@@H]1CCCNC1

>  <Energy>  (24) 
68.12828973817594

>  <Genealogy>  (24) 
O=c1c2ccc(Cl)cc2nc(/C=C/c2ccccn2)n1C[C@@H]1CCCNC1 (chirality)
O=c1c2ccc(Cl)cc2nc(/C=C/c2ccccn2)n1C[C@@H]1CCCNC1 (cis-trans isomerization)
O=c1c2ccc(Cl)cc2nc(/C=C/c2ccccn2)n1C[C@@H]1CCCNC1 (3D coordinates assigned)
O=c1c2ccc(Cl)cc2nc(/C=C/c2ccccn2)n1C[C@@H]1CCCNC1 (nonaromatic ring conformer: 68.12828973817594 kcal/mol)

>  <smiles>  (24) 
O=c1c2ccc(Cl)cc2nc(/C=C/c2ccccn2)n1CC1CCCNC1

>  <score_type>  (24) 
oracle

>  <origin>  (24) 
autodockgpu

>  <m_score__min__energy>  (24) 
-7.7199999999999998

>  <m_primary>  (24) 
energy

>  <meeko>  (24) 
{"free_energy": -7.07, "intermolecular_energy": -8.56, "internal_energy": -1.45, "cluster_size": 3, "cluster_id": 2, "rank_in_cluster": 1}

>  <energy>  (24) 
-7.61

>  <cluster_rmsd>  (24) 
0.62

>  <rmsd>  (24) 
270.62

>  <cluster>  (24) 
1

$$$$
MESWETRYUNDHFU-LOWQCSRCNA-N
     RDKit          3D

 48 51  0  0  0  0  0  0  0  0999 V2000
  142.5591   80.4816  219.0592 H   0  0  0  0  0  0  0  0  0  0  0  0
  141.9490   79.8600  219.7310 C   0  0  0  0  0  0  0  0  0  0  0  0
  141.2170   78.8700  219.2040 C   0  0  0  0  0  0  0  0  0  0  0  0
  140.5093   79.0943  218.3923 H   0  0  0  0  0  0  0  0  0  0  0  0
  141.3440   77.4760  219.6960 C   0  0  0  0  0  0  0  0  0  0  0  0
  142.5710   76.8960  219.6200 N   0  0  0  0  0  0  0  0  0  0  0  0
  142.7930   75.6250  220.0210 C   0  0  0  0  0  0  0  0  0  0  0  0
  144.0760   75.0730  219.9230 C   0  0  0  0  0  0  0  0  0  0  0  0
  144.9039   75.6749  219.5200 H   0  0  0  0  0  0  0  0  0  0  0  0
  144.3060   73.7570  220.3370 C   0  0  0  0  0  0  0  0  0  0  0  0
  145.9150   73.0670  220.2150 Cl  0  0  0  0  0  0  0  0  0  0  0  0
  143.2530   72.9900  220.8480 C   0  0  0  0  0  0  0  0  0  0  0  0
  143.4346   71.9547  221.1723 H   0  0  0  0  0  0  0  0  0  0  0  0
  141.9700   73.5380  220.9470 C   0  0  0  0  0  0  0  0  0  0  0  0
  141.1444   72.9321  221.3487 H   0  0  0  0  0  0  0  0  0  0  0  0
  141.7320   74.8630  220.5340 C   0  0  0  0  0  0  0  0  0  0  0  0
  140.4640   75.4640  220.6240 C   0  0  0  0  0  0  0  0  0  0  0  0
  139.4990   74.8000  221.0990 O   0  0  0  0  0  0  0  0  0  0  0  0
  140.2760   76.7650  220.2110 N   0  0  0  0  0  0  0  0  0  0  0  0
  138.9420   77.3820  220.4160 C   0  0  0  0  0  0  0  0  0  0  0  0
  138.5877   77.7917  219.4586 H   0  0  0  0  0  0  0  0  0  0  0  0
  138.2583   76.6053  220.7892 H   0  0  0  0  0  0  0  0  0  0  0  0
  138.9940   78.5220  221.4610 C   0  0  1  0  0  0  0  0  0  0  0  0
  140.0423   78.6255  221.7779 H   0  0  0  0  0  0  0  0  0  0  0  0
  138.5580   79.8800  220.8680 C   0  0  0  0  0  0  0  0  0  0  0  0
  137.5088   79.8026  220.5468 H   0  0  0  0  0  0  0  0  0  0  0  0
  139.2276   80.1033  220.0243 H   0  0  0  0  0  0  0  0  0  0  0  0
  138.6750   80.9910  221.8350 N   0  0  0  0  0  0  0  0  0  0  0  0
  139.6040   81.4550  221.6980 H   0  0  0  0  0  0  0  0  0  0  0  0
  138.5770   80.5930  223.2520 C   0  0  0  0  0  0  0  0  0  0  0  0
  138.2061   81.4479  223.8365 H   0  0  0  0  0  0  0  0  0  0  0  0
  139.5779   80.2857  223.5894 H   0  0  0  0  0  0  0  0  0  0  0  0
  137.6260   79.4090  223.4490 C   0  0  0  0  0  0  0  0  0  0  0  0
  136.6283   79.6840  223.0762 H   0  0  0  0  0  0  0  0  0  0  0  0
  137.5860   79.1685  224.5217 H   0  0  0  0  0  0  0  0  0  0  0  0
  138.1210   78.1670  222.6890 C   0  0  0  0  0  0  0  0  0  0  0  0
  137.2471   77.5944  222.3449 H   0  0  0  0  0  0  0  0  0  0  0  0
  138.7456   77.5831  223.3810 H   0  0  0  0  0  0  0  0  0  0  0  0
  141.9690   80.1500  221.1810 C   0  0  0  0  0  0  0  0  0  0  0  0
  141.7640   81.4180  221.6420 N   0  0  0  0  0  0  0  0  0  0  0  0
  141.7810   81.7120  222.9700 C   0  0  0  0  0  0  0  0  0  0  0  0
  141.6165   82.7464  223.3062 H   0  0  0  0  0  0  0  0  0  0  0  0
  142.0070   80.7020  223.9060 C   0  0  0  0  0  0  0  0  0  0  0  0
  142.0195   80.9333  224.9813 H   0  0  0  0  0  0  0  0  0  0  0  0
  142.2170   79.3950  223.4630 C   0  0  0  0  0  0  0  0  0  0  0  0
  142.3932   78.5885  224.1900 H   0  0  0  0  0  0  0  0  0  0  0  0
  142.2030   79.1130  222.0950 C   0  0  0  0  0  0  0  0  0  0  0  0
  142.3740   78.0867  221.7381 H   0  0  0  0  0  0  0  0  0  0  0  0
  1  2  1  0
  2  3  2  0
  3  4  1  0
  3  5  1  0
  5  6  2  0
  6  7  1  0
  7  8  2  0
  8  9  1  0
  8 10  1  0
 10 11  1  0
 10 12  2  0
 12 13  1  0
 12 14  1  0
 14 15  1  0
 14 16  2  0
 16 17  1  0
 17 18  2  0
 17 19  1  0
 19 20  1  0
 20 21  1  0
 20 22  1  0
 20 23  1  0
 23 24  1  1
 23 25  1  0
 25 26  1  0
 25 27  1  0
 25 28  1  0
 28 29  1  0
 28 30  1  0
 30 31  1  0
 30 32  1  0
 30 33  1  0
 33 34  1  0
 33 35  1  0
 33 36  1  0
 36 37  1  0
 36 38  1  0
  2 39  1  0
 39 40  2  0
 40 41  1  0
 41 42  1  0
 41 43  2  0
 43 44  1  0
 43 45  1  0
 45 46  1  0
 45 47  2  0
 47 48  1  0
 19  5  1  0
 36 23  1  0
 47 39  1  0
 16  7  1  0
M  END
>  <UniqueID>  (25) 
433

>  <SMILES>  (25) 
O=c1c2ccc(Cl)cc2nc(/C=C/c2ccccn2)n1C[C@@H]1CCCNC1

>  <Energy>  (25) 
68.12828973817594

>  <Genealogy>  (25) 
O=c1c2ccc(Cl)cc2nc(/C=C/c2ccccn2)n1C[C@@H]1CCCNC1 (chirality)
O=c1c2ccc(Cl)cc2nc(/C=C/c2ccccn2)n1C[C@@H]1CCCNC1 (cis-trans isomerization)
O=c1c2ccc(Cl)cc2nc(/C=C/c2ccccn2)n1C[C@@H]1CCCNC1 (3D coordinates assigned)
O=c1c2ccc(Cl)cc2nc(/C=C/c2ccccn2)n1C[C@@H]1CCCNC1 (nonaromatic ring conformer: 68.12828973817594 kcal/mol)

>  <smiles>  (25) 
O=c1c2ccc(Cl)cc2nc(/C=C/c2ccccn2)n1CC1CCCNC1

>  <score_type>  (25) 
oracle

>  <origin>  (25) 
autodockgpu

>  <m_score__min__energy>  (25) 
-7.7199999999999998

>  <m_primary>  (25) 
energy

>  <meeko>  (25) 
{"free_energy": -6.12, "intermolecular_energy": -7.61, "internal_energy": -2.5, "cluster_size": 3, "cluster_id": 5, "rank_in_cluster": 3}

>  <energy>  (25) 
-7.56

>  <cluster_rmsd>  (25) 
0.4

>  <rmsd>  (25) 
270.63

>  <cluster>  (25) 
1

$$$$
MESWETRYUNDHFU-LOWQCSRCNA-N
     RDKit          3D

 48 51  0  0  0  0  0  0  0  0999 V2000
  141.7762   71.5678  221.9743 H   0  0  0  0  0  0  0  0  0  0  0  0
  140.8220   71.8840  222.4210 C   0  0  0  0  0  0  0  0  0  0  0  0
  140.0770   72.7910  221.7740 C   0  0  0  0  0  0  0  0  0  0  0  0
  139.0250   72.5638  221.5469 H   0  0  0  0  0  0  0  0  0  0  0  0
  140.6470   74.0960  221.3590 C   0  0  0  0  0  0  0  0  0  0  0  0
  140.3860   75.1710  222.1510 N   0  0  0  0  0  0  0  0  0  0  0  0
  140.8390   76.4090  221.8560 C   0  0  0  0  0  0  0  0  0  0  0  0
  140.5440   77.4830  222.7040 C   0  0  0  0  0  0  0  0  0  0  0  0
  139.9447   77.3182  223.6115 H   0  0  0  0  0  0  0  0  0  0  0  0
  141.0110   78.7660  222.3980 C   0  0  0  0  0  0  0  0  0  0  0  0
  140.6430   80.1110  223.4630 Cl  0  0  0  0  0  0  0  0  0  0  0  0
  141.7720   78.9760  221.2430 C   0  0  0  0  0  0  0  0  0  0  0  0
  142.1383   79.9851  221.0030 H   0  0  0  0  0  0  0  0  0  0  0  0
  142.0680   77.9060  220.3930 C   0  0  0  0  0  0  0  0  0  0  0  0
  142.6662   78.0753  219.4855 H   0  0  0  0  0  0  0  0  0  0  0  0
  141.6020   76.6120  220.6960 C   0  0  0  0  0  0  0  0  0  0  0  0
  141.8830   75.5010  219.8810 C   0  0  0  0  0  0  0  0  0  0  0  0
  142.5830   75.6590  218.8410 O   0  0  0  0  0  0  0  0  0  0  0  0
  141.4100   74.2500  220.2170 N   0  0  0  0  0  0  0  0  0  0  0  0
  141.8140   73.0970  219.3760 C   0  0  0  0  0  0  0  0  0  0  0  0
  141.1749   72.2359  219.6210 H   0  0  0  0  0  0  0  0  0  0  0  0
  141.6994   73.3857  218.3208 H   0  0  0  0  0  0  0  0  0  0  0  0
  143.2920   72.7070  219.6110 C   0  0  1  0  0  0  0  0  0  0  0  0
  143.3178   71.6226  219.7938 H   0  0  0  0  0  0  0  0  0  0  0  0
  144.1740   72.9860  218.3740 C   0  0  0  0  0  0  0  0  0  0  0  0
  144.1675   74.0677  218.1743 H   0  0  0  0  0  0  0  0  0  0  0  0
  143.7559   72.4136  217.5328 H   0  0  0  0  0  0  0  0  0  0  0  0
  145.5740   72.5480  218.5590 N   0  0  0  0  0  0  0  0  0  0  0  0
  145.6750   71.5820  218.1670 H   0  0  0  0  0  0  0  0  0  0  0  0
  146.0330   72.5140  219.9600 C   0  0  0  0  0  0  0  0  0  0  0  0
  147.1244   72.6498  219.9799 H   0  0  0  0  0  0  0  0  0  0  0  0
  145.7459   71.5426  220.3889 H   0  0  0  0  0  0  0  0  0  0  0  0
  145.3820   73.6150  220.8020 C   0  0  0  0  0  0  0  0  0  0  0  0
  145.6236   74.5937  220.3618 H   0  0  0  0  0  0  0  0  0  0  0  0
  145.7713   73.5450  221.8284 H   0  0  0  0  0  0  0  0  0  0  0  0
  143.8540   73.4490  220.8480 C   0  0  0  0  0  0  0  0  0  0  0  0
  143.3937   74.4468  220.8980 H   0  0  0  0  0  0  0  0  0  0  0  0
  143.6139   72.8430  221.7341 H   0  0  0  0  0  0  0  0  0  0  0  0
  140.4110   71.2920  223.7120 C   0  0  0  0  0  0  0  0  0  0  0  0
  141.0440   71.6380  224.8710 N   0  0  0  0  0  0  0  0  0  0  0  0
  140.6880   71.1060  226.0710 C   0  0  0  0  0  0  0  0  0  0  0  0
  141.2221   71.4047  226.9851 H   0  0  0  0  0  0  0  0  0  0  0  0
  139.6450   70.1810  226.1430 C   0  0  0  0  0  0  0  0  0  0  0  0
  139.3513   69.7485  227.1108 H   0  0  0  0  0  0  0  0  0  0  0  0
  138.9790   69.8110  224.9740 C   0  0  0  0  0  0  0  0  0  0  0  0
  138.1530   69.0858  225.0170 H   0  0  0  0  0  0  0  0  0  0  0  0
  139.3620   70.3620  223.7500 C   0  0  0  0  0  0  0  0  0  0  0  0
  138.8458   70.0694  222.8238 H   0  0  0  0  0  0  0  0  0  0  0  0
  1  2  1  0
  2  3  2  0
  3  4  1  0
  3  5  1  0
  5  6  2  0
  6  7  1  0
  7  8  2  0
  8  9  1  0
  8 10  1  0
 10 11  1  0
 10 12  2  0
 12 13  1  0
 12 14  1  0
 14 15  1  0
 14 16  2  0
 16 17  1  0
 17 18  2  0
 17 19  1  0
 19 20  1  0
 20 21  1  0
 20 22  1  0
 20 23  1  0
 23 24  1  1
 23 25  1  0
 25 26  1  0
 25 27  1  0
 25 28  1  0
 28 29  1  0
 28 30  1  0
 30 31  1  0
 30 32  1  0
 30 33  1  0
 33 34  1  0
 33 35  1  0
 33 36  1  0
 36 37  1  0
 36 38  1  0
  2 39  1  0
 39 40  2  0
 40 41  1  0
 41 42  1  0
 41 43  2  0
 43 44  1  0
 43 45  1  0
 45 46  1  0
 45 47  2  0
 47 48  1  0
 19  5  1  0
 36 23  1  0
 47 39  1  0
 16  7  1  0
M  END
>  <UniqueID>  (26) 
433

>  <SMILES>  (26) 
O=c1c2ccc(Cl)cc2nc(/C=C/c2ccccn2)n1C[C@@H]1CCCNC1

>  <Energy>  (26) 
68.12828973817594

>  <Genealogy>  (26) 
O=c1c2ccc(Cl)cc2nc(/C=C/c2ccccn2)n1C[C@@H]1CCCNC1 (chirality)
O=c1c2ccc(Cl)cc2nc(/C=C/c2ccccn2)n1C[C@@H]1CCCNC1 (cis-trans isomerization)
O=c1c2ccc(Cl)cc2nc(/C=C/c2ccccn2)n1C[C@@H]1CCCNC1 (3D coordinates assigned)
O=c1c2ccc(Cl)cc2nc(/C=C/c2ccccn2)n1C[C@@H]1CCCNC1 (nonaromatic ring conformer: 68.12828973817594 kcal/mol)

>  <smiles>  (26) 
O=c1c2ccc(Cl)cc2nc(/C=C/c2ccccn2)n1CC1CCCNC1

>  <score_type>  (26) 
oracle

>  <origin>  (26) 
autodockgpu

>  <m_score__min__energy>  (26) 
-7.7199999999999998

>  <m_primary>  (26) 
energy

>  <meeko>  (26) 
{"free_energy": -7.55, "intermolecular_energy": -9.04, "internal_energy": -1.08, "cluster_size": 8, "cluster_id": 1, "rank_in_cluster": 8}

>  <energy>  (26) 
-7.56

>  <cluster_rmsd>  (26) 
0.66

>  <rmsd>  (26) 
270.56

>  <cluster>  (26) 
1

$$$$
MESWETRYUNDHFU-LOWQCSRCNA-N
     RDKit          3D

 48 51  0  0  0  0  0  0  0  0999 V2000
  138.7446   72.8529  222.5398 H   0  0  0  0  0  0  0  0  0  0  0  0
  139.7160   72.3610  222.6960 C   0  0  0  0  0  0  0  0  0  0  0  0
  140.6940   72.5690  221.8040 C   0  0  0  0  0  0  0  0  0  0  0  0
  141.2493   71.7094  221.4005 H   0  0  0  0  0  0  0  0  0  0  0  0
  141.0410   73.9390  221.3510 C   0  0  0  0  0  0  0  0  0  0  0  0
  140.7040   74.9710  222.1700 N   0  0  0  0  0  0  0  0  0  0  0  0
  140.9560   76.2590  221.8460 C   0  0  0  0  0  0  0  0  0  0  0  0
  140.5900   77.2860  222.7240 C   0  0  0  0  0  0  0  0  0  0  0  0
  140.0984   77.0445  223.6779 H   0  0  0  0  0  0  0  0  0  0  0  0
  140.8490   78.6190  222.3890 C   0  0  0  0  0  0  0  0  0  0  0  0
  140.3920   79.9060  223.4910 Cl  0  0  0  0  0  0  0  0  0  0  0  0
  141.4710   78.9270  221.1750 C   0  0  0  0  0  0  0  0  0  0  0  0
  141.6729   79.9759  220.9121 H   0  0  0  0  0  0  0  0  0  0  0  0
  141.8370   77.9030  220.2940 C   0  0  0  0  0  0  0  0  0  0  0  0
  142.3253   78.1491  219.3395 H   0  0  0  0  0  0  0  0  0  0  0  0
  141.5820   76.5590  220.6260 C   0  0  0  0  0  0  0  0  0  0  0  0
  141.9410   75.4930  219.7830 C   0  0  0  0  0  0  0  0  0  0  0  0
  142.5210   75.7410  218.6880 O   0  0  0  0  0  0  0  0  0  0  0  0
  141.6750   74.1910  220.1490 N   0  0  0  0  0  0  0  0  0  0  0  0
  142.1600   73.1000  219.2680 C   0  0  0  0  0  0  0  0  0  0  0  0
  141.5071   72.2236  219.3933 H   0  0  0  0  0  0  0  0  0  0  0  0
  142.1382   73.4623  218.2296 H   0  0  0  0  0  0  0  0  0  0  0  0
  143.6130   72.6950  219.6070 C   0  0  1  0  0  0  0  0  0  0  0  0
  143.6035   71.6216  219.8472 H   0  0  0  0  0  0  0  0  0  0  0  0
  144.5690   72.8900  218.4100 C   0  0  0  0  0  0  0  0  0  0  0  0
  144.5977   73.9594  218.1539 H   0  0  0  0  0  0  0  0  0  0  0  0
  144.1859   72.2809  217.5780 H   0  0  0  0  0  0  0  0  0  0  0  0
  145.9460   72.4360  218.6960 N   0  0  0  0  0  0  0  0  0  0  0  0
  146.0480   71.4480  218.3610 H   0  0  0  0  0  0  0  0  0  0  0  0
  146.3260   72.4680  220.1210 C   0  0  0  0  0  0  0  0  0  0  0  0
  147.4174   72.5838  220.1953 H   0  0  0  0  0  0  0  0  0  0  0  0
  145.9943   71.5265  220.5831 H   0  0  0  0  0  0  0  0  0  0  0  0
  145.6540   73.6240  220.8660 C   0  0  0  0  0  0  0  0  0  0  0  0
  145.9413   74.5731  220.3898 H   0  0  0  0  0  0  0  0  0  0  0  0
  145.9840   73.6012  221.9151 H   0  0  0  0  0  0  0  0  0  0  0  0
  144.1220   73.4900  220.8340 C   0  0  0  0  0  0  0  0  0  0  0  0
  143.6819   74.4977  220.8066 H   0  0  0  0  0  0  0  0  0  0  0  0
  143.8199   72.9361  221.7351 H   0  0  0  0  0  0  0  0  0  0  0  0
  139.8920   71.4960  223.8820 C   0  0  0  0  0  0  0  0  0  0  0  0
  140.7150   71.8720  224.9040 N   0  0  0  0  0  0  0  0  0  0  0  0
  140.8970   71.0940  226.0050 C   0  0  0  0  0  0  0  0  0  0  0  0
  141.5707   71.4267  226.8084 H   0  0  0  0  0  0  0  0  0  0  0  0
  140.2290   69.8740  226.1150 C   0  0  0  0  0  0  0  0  0  0  0  0
  140.3707   69.2410  227.0034 H   0  0  0  0  0  0  0  0  0  0  0  0
  139.3790   69.4650  225.0860 C   0  0  0  0  0  0  0  0  0  0  0  0
  138.8432   68.5073  225.1618 H   0  0  0  0  0  0  0  0  0  0  0  0
  139.2100   70.2740  223.9600 C   0  0  0  0  0  0  0  0  0  0  0  0
  138.5476   69.9549  223.1418 H   0  0  0  0  0  0  0  0  0  0  0  0
  1  2  1  0
  2  3  2  0
  3  4  1  0
  3  5  1  0
  5  6  2  0
  6  7  1  0
  7  8  2  0
  8  9  1  0
  8 10  1  0
 10 11  1  0
 10 12  2  0
 12 13  1  0
 12 14  1  0
 14 15  1  0
 14 16  2  0
 16 17  1  0
 17 18  2  0
 17 19  1  0
 19 20  1  0
 20 21  1  0
 20 22  1  0
 20 23  1  0
 23 24  1  1
 23 25  1  0
 25 26  1  0
 25 27  1  0
 25 28  1  0
 28 29  1  0
 28 30  1  0
 30 31  1  0
 30 32  1  0
 30 33  1  0
 33 34  1  0
 33 35  1  0
 33 36  1  0
 36 37  1  0
 36 38  1  0
  2 39  1  0
 39 40  2  0
 40 41  1  0
 41 42  1  0
 41 43  2  0
 43 44  1  0
 43 45  1  0
 45 46  1  0
 45 47  2  0
 47 48  1  0
 19  5  1  0
 36 23  1  0
 47 39  1  0
 16  7  1  0
M  END
>  <UniqueID>  (27) 
433

>  <SMILES>  (27) 
O=c1c2ccc(Cl)cc2nc(/C=C/c2ccccn2)n1C[C@@H]1CCCNC1

>  <Energy>  (27) 
68.12828973817594

>  <Genealogy>  (27) 
O=c1c2ccc(Cl)cc2nc(/C=C/c2ccccn2)n1C[C@@H]1CCCNC1 (chirality)
O=c1c2ccc(Cl)cc2nc(/C=C/c2ccccn2)n1C[C@@H]1CCCNC1 (cis-trans isomerization)
O=c1c2ccc(Cl)cc2nc(/C=C/c2ccccn2)n1C[C@@H]1CCCNC1 (3D coordinates assigned)
O=c1c2ccc(Cl)cc2nc(/C=C/c2ccccn2)n1C[C@@H]1CCCNC1 (nonaromatic ring conformer: 68.12828973817594 kcal/mol)

>  <smiles>  (27) 
O=c1c2ccc(Cl)cc2nc(/C=C/c2ccccn2)n1CC1CCCNC1

>  <score_type>  (27) 
oracle

>  <origin>  (27) 
autodockgpu

>  <m_score__min__energy>  (27) 
-7.7199999999999998

>  <m_primary>  (27) 
energy

>  <meeko>  (27) 
{"free_energy": -7.7, "intermolecular_energy": -9.19, "internal_energy": -1.03, "cluster_size": 8, "cluster_id": 1, "rank_in_cluster": 2}

>  <energy>  (27) 
-7.55

>  <cluster_rmsd>  (27) 
0.45

>  <rmsd>  (27) 
270.58

>  <cluster>  (27) 
1

$$$$
MESWETRYUNDHFU-LOWQCSRCNA-N
     RDKit          3D

 48 51  0  0  0  0  0  0  0  0999 V2000
  139.4465   67.7646  226.8066 H   0  0  0  0  0  0  0  0  0  0  0  0
  139.5060   68.6130  226.1090 C   0  0  0  0  0  0  0  0  0  0  0  0
  139.0160   68.4640  224.8700 C   0  0  0  0  0  0  0  0  0  0  0  0
  139.4975   67.7553  224.1802 H   0  0  0  0  0  0  0  0  0  0  0  0
  137.8360   69.2380  224.4130 C   0  0  0  0  0  0  0  0  0  0  0  0
  136.8250   69.4190  225.3040 N   0  0  0  0  0  0  0  0  0  0  0  0
  135.6970   70.0910  224.9860 C   0  0  0  0  0  0  0  0  0  0  0  0
  134.6850   70.2520  225.9390 C   0  0  0  0  0  0  0  0  0  0  0  0
  134.8090   69.8322  226.9482 H   0  0  0  0  0  0  0  0  0  0  0  0
  133.5160   70.9460  225.6100 C   0  0  0  0  0  0  0  0  0  0  0  0
  132.2480   71.1480  226.8060 Cl  0  0  0  0  0  0  0  0  0  0  0  0
  133.3570   71.4790  224.3260 C   0  0  0  0  0  0  0  0  0  0  0  0
  132.4370   72.0240  224.0678 H   0  0  0  0  0  0  0  0  0  0  0  0
  134.3660   71.3200  223.3700 C   0  0  0  0  0  0  0  0  0  0  0  0
  134.2373   71.7396  222.3614 H   0  0  0  0  0  0  0  0  0  0  0  0
  135.5460   70.6240  223.6960 C   0  0  0  0  0  0  0  0  0  0  0  0
  136.5950   70.4470  222.7770 C   0  0  0  0  0  0  0  0  0  0  0  0
  136.4860   70.9340  221.6150 O   0  0  0  0  0  0  0  0  0  0  0  0
  137.7340   69.7620  223.1380 N   0  0  0  0  0  0  0  0  0  0  0  0
  138.8490   69.6870  222.1620 C   0  0  0  0  0  0  0  0  0  0  0  0
  139.6643   69.0907  222.5975 H   0  0  0  0  0  0  0  0  0  0  0  0
  138.4677   69.2211  221.2414 H   0  0  0  0  0  0  0  0  0  0  0  0
  139.3910   71.0900  221.8030 C   0  0  1  0  0  0  0  0  0  0  0  0
  138.6153   71.5958  221.2093 H   0  0  0  0  0  0  0  0  0  0  0  0
  139.6490   71.9560  223.0560 C   0  0  0  0  0  0  0  0  0  0  0  0
  140.4266   71.4711  223.6645 H   0  0  0  0  0  0  0  0  0  0  0  0
  138.6979   72.0408  223.6021 H   0  0  0  0  0  0  0  0  0  0  0  0
  140.0950   73.3250  222.7230 N   0  0  0  0  0  0  0  0  0  0  0  0
  139.2570   73.9540  222.7050 H   0  0  0  0  0  0  0  0  0  0  0  0
  140.7820   73.4560  221.4240 C   0  0  0  0  0  0  0  0  0  0  0  0
  141.4625   74.3192  221.4670 H   0  0  0  0  0  0  0  0  0  0  0  0
  140.0167   73.5928  220.6458 H   0  0  0  0  0  0  0  0  0  0  0  0
  141.5920   72.2040  221.0780 C   0  0  0  0  0  0  0  0  0  0  0  0
  142.3359   72.0281  221.8690 H   0  0  0  0  0  0  0  0  0  0  0  0
  142.0868   72.3662  220.1091 H   0  0  0  0  0  0  0  0  0  0  0  0
  140.6840   70.9690  220.9600 C   0  0  0  0  0  0  0  0  0  0  0  0
  141.2450   70.0868  221.3021 H   0  0  0  0  0  0  0  0  0  0  0  0
  140.3838   70.8791  219.9056 H   0  0  0  0  0  0  0  0  0  0  0  0
  140.1230   69.8730  226.5740 C   0  0  0  0  0  0  0  0  0  0  0  0
  140.8470   70.6530  225.7190 N   0  0  0  0  0  0  0  0  0  0  0  0
  141.4280   71.8150  226.1220 C   0  0  0  0  0  0  0  0  0  0  0  0
  142.0082   72.4167  225.4069 H   0  0  0  0  0  0  0  0  0  0  0  0
  141.2880   72.2440  227.4430 C   0  0  0  0  0  0  0  0  0  0  0  0
  141.7532   73.1842  227.7741 H   0  0  0  0  0  0  0  0  0  0  0  0
  140.5520   71.4680  228.3390 C   0  0  0  0  0  0  0  0  0  0  0  0
  140.4318   71.7958  229.3821 H   0  0  0  0  0  0  0  0  0  0  0  0
  139.9680   70.2740  227.9090 C   0  0  0  0  0  0  0  0  0  0  0  0
  139.3917   69.6538  228.6113 H   0  0  0  0  0  0  0  0  0  0  0  0
  1  2  1  0
  2  3  2  0
  3  4  1  0
  3  5  1  0
  5  6  2  0
  6  7  1  0
  7  8  2  0
  8  9  1  0
  8 10  1  0
 10 11  1  0
 10 12  2  0
 12 13  1  0
 12 14  1  0
 14 15  1  0
 14 16  2  0
 16 17  1  0
 17 18  2  0
 17 19  1  0
 19 20  1  0
 20 21  1  0
 20 22  1  0
 20 23  1  0
 23 24  1  6
 23 25  1  0
 25 26  1  0
 25 27  1  0
 25 28  1  0
 28 29  1  0
 28 30  1  0
 30 31  1  0
 30 32  1  0
 30 33  1  0
 33 34  1  0
 33 35  1  0
 33 36  1  0
 36 37  1  0
 36 38  1  0
  2 39  1  0
 39 40  2  0
 40 41  1  0
 41 42  1  0
 41 43  2  0
 43 44  1  0
 43 45  1  0
 45 46  1  0
 45 47  2  0
 47 48  1  0
 19  5  1  0
 36 23  1  0
 47 39  1  0
 16  7  1  0
M  END
>  <UniqueID>  (28) 
433

>  <SMILES>  (28) 
O=c1c2ccc(Cl)cc2nc(/C=C/c2ccccn2)n1C[C@@H]1CCCNC1

>  <Energy>  (28) 
68.12828973817594

>  <Genealogy>  (28) 
O=c1c2ccc(Cl)cc2nc(/C=C/c2ccccn2)n1C[C@@H]1CCCNC1 (chirality)
O=c1c2ccc(Cl)cc2nc(/C=C/c2ccccn2)n1C[C@@H]1CCCNC1 (cis-trans isomerization)
O=c1c2ccc(Cl)cc2nc(/C=C/c2ccccn2)n1C[C@@H]1CCCNC1 (3D coordinates assigned)
O=c1c2ccc(Cl)cc2nc(/C=C/c2ccccn2)n1C[C@@H]1CCCNC1 (nonaromatic ring conformer: 68.12828973817594 kcal/mol)

>  <smiles>  (28) 
O=c1c2ccc(Cl)cc2nc(/C=C/c2ccccn2)n1CC1CCCNC1

>  <score_type>  (28) 
oracle

>  <origin>  (28) 
autodockgpu

>  <m_score__min__energy>  (28) 
-7.7199999999999998

>  <m_primary>  (28) 
energy

>  <meeko>  (28) 
{"free_energy": -7.06, "intermolecular_energy": -8.55, "internal_energy": -1.51, "cluster_size": 3, "cluster_id": 2, "rank_in_cluster": 2}

>  <energy>  (28) 
-7.55

>  <cluster_rmsd>  (28) 
0.43

>  <rmsd>  (28) 
270.59

>  <cluster>  (28) 
1

$$$$
MESWETRYUNDHFU-LOWQCSRCNA-N
     RDKit          3D

 48 51  0  0  0  0  0  0  0  0999 V2000
  143.6930   79.3553  222.9734 H   0  0  0  0  0  0  0  0  0  0  0  0
  142.6170   79.4230  222.7550 C   0  0  0  0  0  0  0  0  0  0  0  0
  141.7740   78.6190  223.4170 C   0  0  0  0  0  0  0  0  0  0  0  0
  142.1755   77.7762  223.9987 H   0  0  0  0  0  0  0  0  0  0  0  0
  140.3080   78.8460  223.3790 C   0  0  0  0  0  0  0  0  0  0  0  0
  139.8200   79.9000  224.0860 N   0  0  0  0  0  0  0  0  0  0  0  0
  138.5000   80.1850  224.1360 C   0  0  0  0  0  0  0  0  0  0  0  0
  138.0490   81.2820  224.8790 C   0  0  0  0  0  0  0  0  0  0  0  0
  138.7693   81.9119  225.4216 H   0  0  0  0  0  0  0  0  0  0  0  0
  136.6820   81.5780  224.9320 C   0  0  0  0  0  0  0  0  0  0  0  0
  136.1160   82.9540  225.8610 Cl  0  0  0  0  0  0  0  0  0  0  0  0
  135.7660   80.7740  224.2440 C   0  0  0  0  0  0  0  0  0  0  0  0
  134.6915   81.0056  224.2871 H   0  0  0  0  0  0  0  0  0  0  0  0
  136.2140   79.6770  223.5020 C   0  0  0  0  0  0  0  0  0  0  0  0
  135.4905   79.0476  222.9631 H   0  0  0  0  0  0  0  0  0  0  0  0
  137.5880   79.3750  223.4420 C   0  0  0  0  0  0  0  0  0  0  0  0
  138.0910   78.2920  222.7010 C   0  0  0  0  0  0  0  0  0  0  0  0
  137.2870   77.5600  222.0550 O   0  0  0  0  0  0  0  0  0  0  0  0
  139.4440   78.0340  222.6670 N   0  0  0  0  0  0  0  0  0  0  0  0
  139.9310   76.9380  221.7940 C   0  0  0  0  0  0  0  0  0  0  0  0
  140.6908   76.3588  222.3392 H   0  0  0  0  0  0  0  0  0  0  0  0
  139.0716   76.3062  221.5251 H   0  0  0  0  0  0  0  0  0  0  0  0
  140.5570   77.4820  220.4880 C   0  0  1  0  0  0  0  0  0  0  0  0
  140.5771   78.5788  220.5688 H   0  0  0  0  0  0  0  0  0  0  0  0
  142.0150   77.0100  220.2970 C   0  0  0  0  0  0  0  0  0  0  0  0
  142.0208   75.9135  220.2095 H   0  0  0  0  0  0  0  0  0  0  0  0
  142.5910   77.3529  221.1691 H   0  0  0  0  0  0  0  0  0  0  0  0
  142.6490   77.5830  219.0920 N   0  0  0  0  0  0  0  0  0  0  0  0
  143.1750   78.4460  219.3710 H   0  0  0  0  0  0  0  0  0  0  0  0
  141.7120   77.9580  218.0160 C   0  0  0  0  0  0  0  0  0  0  0  0
  142.2412   77.9146  217.0526 H   0  0  0  0  0  0  0  0  0  0  0  0
  141.3458   78.9745  218.2221 H   0  0  0  0  0  0  0  0  0  0  0  0
  140.5030   77.0210  217.9590 C   0  0  0  0  0  0  0  0  0  0  0  0
  140.8542   75.9914  217.7960 H   0  0  0  0  0  0  0  0  0  0  0  0
  139.8509   77.3431  217.1338 H   0  0  0  0  0  0  0  0  0  0  0  0
  139.6960   77.0750  219.2680 C   0  0  0  0  0  0  0  0  0  0  0  0
  139.2666   76.0801  219.4573 H   0  0  0  0  0  0  0  0  0  0  0  0
  138.9153   77.8400  219.1441 H   0  0  0  0  0  0  0  0  0  0  0  0
  142.1580   80.3970  221.7430 C   0  0  0  0  0  0  0  0  0  0  0  0
  142.2020   80.0960  220.4130 N   0  0  0  0  0  0  0  0  0  0  0  0
  141.7890   80.9760  219.4610 C   0  0  0  0  0  0  0  0  0  0  0  0
  141.8421   80.7006  218.3973 H   0  0  0  0  0  0  0  0  0  0  0  0
  141.2980   82.2280  219.8340 C   0  0  0  0  0  0  0  0  0  0  0  0
  140.9604   82.9431  219.0694 H   0  0  0  0  0  0  0  0  0  0  0  0
  141.2400   82.5630  221.1880 C   0  0  0  0  0  0  0  0  0  0  0  0
  140.8524   83.5452  221.4963 H   0  0  0  0  0  0  0  0  0  0  0  0
  141.6750   81.6490  222.1510 C   0  0  0  0  0  0  0  0  0  0  0  0
  141.6390   81.9089  223.2193 H   0  0  0  0  0  0  0  0  0  0  0  0
  1  2  1  0
  2  3  2  0
  3  4  1  0
  3  5  1  0
  5  6  2  0
  6  7  1  0
  7  8  2  0
  8  9  1  0
  8 10  1  0
 10 11  1  0
 10 12  2  0
 12 13  1  0
 12 14  1  0
 14 15  1  0
 14 16  2  0
 16 17  1  0
 17 18  2  0
 17 19  1  0
 19 20  1  0
 20 21  1  0
 20 22  1  0
 20 23  1  0
 23 24  1  1
 23 25  1  0
 25 26  1  0
 25 27  1  0
 25 28  1  0
 28 29  1  0
 28 30  1  0
 30 31  1  0
 30 32  1  0
 30 33  1  0
 33 34  1  0
 33 35  1  0
 33 36  1  0
 36 37  1  0
 36 38  1  0
  2 39  1  0
 39 40  2  0
 40 41  1  0
 41 42  1  0
 41 43  2  0
 43 44  1  0
 43 45  1  0
 45 46  1  0
 45 47  2  0
 47 48  1  0
 19  5  1  0
 36 23  1  0
 47 39  1  0
 16  7  1  0
M  END
>  <UniqueID>  (29) 
433

>  <SMILES>  (29) 
O=c1c2ccc(Cl)cc2nc(/C=C/c2ccccn2)n1C[C@@H]1CCCNC1

>  <Energy>  (29) 
68.12828973817594

>  <Genealogy>  (29) 
O=c1c2ccc(Cl)cc2nc(/C=C/c2ccccn2)n1C[C@@H]1CCCNC1 (chirality)
O=c1c2ccc(Cl)cc2nc(/C=C/c2ccccn2)n1C[C@@H]1CCCNC1 (cis-trans isomerization)
O=c1c2ccc(Cl)cc2nc(/C=C/c2ccccn2)n1C[C@@H]1CCCNC1 (3D coordinates assigned)
O=c1c2ccc(Cl)cc2nc(/C=C/c2ccccn2)n1C[C@@H]1CCCNC1 (nonaromatic ring conformer: 68.12828973817594 kcal/mol)

>  <smiles>  (29) 
O=c1c2ccc(Cl)cc2nc(/C=C/c2ccccn2)n1CC1CCCNC1

>  <score_type>  (29) 
oracle

>  <origin>  (29) 
autodockgpu

>  <m_score__min__energy>  (29) 
-7.7199999999999998

>  <m_primary>  (29) 
energy

>  <meeko>  (29) 
{"free_energy": -5.88, "intermolecular_energy": -7.37, "internal_energy": -2.52, "cluster_size": 4, "cluster_id": 4, "rank_in_cluster": 4}

>  <energy>  (29) 
-7.07

>  <cluster_rmsd>  (29) 
0.0

>  <rmsd>  (29) 
270.18

>  <cluster>  (29) 
2

$$$$
MESWETRYUNDHFU-LOWQCSRCNA-N
     RDKit          3D

 48 51  0  0  0  0  0  0  0  0999 V2000
  142.4456   80.7449  219.0949 H   0  0  0  0  0  0  0  0  0  0  0  0
  141.9100   80.0420  219.7500 C   0  0  0  0  0  0  0  0  0  0  0  0
  141.2240   79.0360  219.1910 C   0  0  0  0  0  0  0  0  0  0  0  0
  140.5520   79.2450  218.3456 H   0  0  0  0  0  0  0  0  0  0  0  0
  141.3540   77.6460  219.6910 C   0  0  0  0  0  0  0  0  0  0  0  0
  142.5760   77.0580  219.5910 N   0  0  0  0  0  0  0  0  0  0  0  0
  142.8010   75.7890  219.9980 C   0  0  0  0  0  0  0  0  0  0  0  0
  144.0780   75.2300  219.8750 C   0  0  0  0  0  0  0  0  0  0  0  0
  144.8992   75.8242  219.4478 H   0  0  0  0  0  0  0  0  0  0  0  0
  144.3110   73.9160  220.2950 C   0  0  0  0  0  0  0  0  0  0  0  0
  145.9120   73.2160  220.1410 Cl  0  0  0  0  0  0  0  0  0  0  0  0
  143.2660   73.1590  220.8360 C   0  0  0  0  0  0  0  0  0  0  0  0
  143.4498   72.1254  221.1644 H   0  0  0  0  0  0  0  0  0  0  0  0
  141.9880   73.7140  220.9600 C   0  0  0  0  0  0  0  0  0  0  0  0
  141.1689   73.1153  221.3850 H   0  0  0  0  0  0  0  0  0  0  0  0
  141.7470   75.0380  220.5420 C   0  0  0  0  0  0  0  0  0  0  0  0
  140.4860   75.6470  220.6560 C   0  0  0  0  0  0  0  0  0  0  0  0
  139.5280   74.9920  221.1590 O   0  0  0  0  0  0  0  0  0  0  0  0
  140.2940   76.9450  220.2370 N   0  0  0  0  0  0  0  0  0  0  0  0
  138.9700   77.5710  220.4680 C   0  0  0  0  0  0  0  0  0  0  0  0
  138.5858   77.9554  219.5116 H   0  0  0  0  0  0  0  0  0  0  0  0
  138.2976   76.8066  220.8847 H   0  0  0  0  0  0  0  0  0  0  0  0
  139.0570   78.7390  221.4790 C   0  0  1  0  0  0  0  0  0  0  0  0
  140.1186   78.8671  221.7370 H   0  0  0  0  0  0  0  0  0  0  0  0
  138.5680   80.0740  220.8760 C   0  0  0  0  0  0  0  0  0  0  0  0
  137.5048   79.9723  220.6128 H   0  0  0  0  0  0  0  0  0  0  0  0
  139.1885   80.2856  219.9927 H   0  0  0  0  0  0  0  0  0  0  0  0
  138.7170   81.2110  221.8070 N   0  0  0  0  0  0  0  0  0  0  0  0
  139.6300   81.6860  221.6100 H   0  0  0  0  0  0  0  0  0  0  0  0
  138.7000   80.8490  223.2370 C   0  0  0  0  0  0  0  0  0  0  0  0
  138.3467   81.7134  223.8183 H   0  0  0  0  0  0  0  0  0  0  0  0
  139.7220   80.5655  223.5287 H   0  0  0  0  0  0  0  0  0  0  0  0
  137.7800   79.6570  223.5140 C   0  0  0  0  0  0  0  0  0  0  0  0
  136.7598   79.9073  223.1877 H   0  0  0  0  0  0  0  0  0  0  0  0
  137.7999   79.4440  224.5930 H   0  0  0  0  0  0  0  0  0  0  0  0
  138.2550   78.4030  222.7600 C   0  0  0  0  0  0  0  0  0  0  0  0
  137.3738   77.8087  222.4768 H   0  0  0  0  0  0  0  0  0  0  0  0
  138.9244   77.8467  223.4326 H   0  0  0  0  0  0  0  0  0  0  0  0
  141.9750   80.2440  221.2130 C   0  0  0  0  0  0  0  0  0  0  0  0
  141.7730   81.4800  221.7560 N   0  0  0  0  0  0  0  0  0  0  0  0
  141.8300   81.6940  223.0980 C   0  0  0  0  0  0  0  0  0  0  0  0
  141.6657   82.7042  223.5011 H   0  0  0  0  0  0  0  0  0  0  0  0
  142.0970   80.6320  223.9640 C   0  0  0  0  0  0  0  0  0  0  0  0
  142.1429   80.7983  225.0504 H   0  0  0  0  0  0  0  0  0  0  0  0
  142.3050   79.3570  223.4360 C   0  0  0  0  0  0  0  0  0  0  0  0
  142.5128   78.5104  224.1069 H   0  0  0  0  0  0  0  0  0  0  0  0
  142.2490   79.1570  222.0550 C   0  0  0  0  0  0  0  0  0  0  0  0
  142.4183   78.1559  221.6318 H   0  0  0  0  0  0  0  0  0  0  0  0
  1  2  1  0
  2  3  2  0
  3  4  1  0
  3  5  1  0
  5  6  2  0
  6  7  1  0
  7  8  2  0
  8  9  1  0
  8 10  1  0
 10 11  1  0
 10 12  2  0
 12 13  1  0
 12 14  1  0
 14 15  1  0
 14 16  2  0
 16 17  1  0
 17 18  2  0
 17 19  1  0
 19 20  1  0
 20 21  1  0
 20 22  1  0
 20 23  1  0
 23 24  1  1
 23 25  1  0
 25 26  1  0
 25 27  1  0
 25 28  1  0
 28 29  1  0
 28 30  1  0
 30 31  1  0
 30 32  1  0
 30 33  1  0
 33 34  1  0
 33 35  1  0
 33 36  1  0
 36 37  1  0
 36 38  1  0
  2 39  1  0
 39 40  2  0
 40 41  1  0
 41 42  1  0
 41 43  2  0
 43 44  1  0
 43 45  1  0
 45 46  1  0
 45 47  2  0
 47 48  1  0
 19  5  1  0
 36 23  1  0
 47 39  1  0
 16  7  1  0
M  END
>  <UniqueID>  (30) 
433

>  <SMILES>  (30) 
O=c1c2ccc(Cl)cc2nc(/C=C/c2ccccn2)n1C[C@@H]1CCCNC1

>  <Energy>  (30) 
68.12828973817594

>  <Genealogy>  (30) 
O=c1c2ccc(Cl)cc2nc(/C=C/c2ccccn2)n1C[C@@H]1CCCNC1 (chirality)
O=c1c2ccc(Cl)cc2nc(/C=C/c2ccccn2)n1C[C@@H]1CCCNC1 (cis-trans isomerization)
O=c1c2ccc(Cl)cc2nc(/C=C/c2ccccn2)n1C[C@@H]1CCCNC1 (3D coordinates assigned)
O=c1c2ccc(Cl)cc2nc(/C=C/c2ccccn2)n1C[C@@H]1CCCNC1 (nonaromatic ring conformer: 68.12828973817594 kcal/mol)

>  <smiles>  (30) 
O=c1c2ccc(Cl)cc2nc(/C=C/c2ccccn2)n1CC1CCCNC1

>  <score_type>  (30) 
oracle

>  <origin>  (30) 
autodockgpu

>  <m_score__min__energy>  (30) 
-7.7199999999999998

>  <m_primary>  (30) 
energy

>  <meeko>  (30) 
{"free_energy": -6.17, "intermolecular_energy": -7.66, "internal_energy": -2.44, "cluster_size": 3, "cluster_id": 5, "rank_in_cluster": 2}

>  <energy>  (30) 
-7.06

>  <cluster_rmsd>  (30) 
0.28

>  <rmsd>  (30) 
270.1

>  <cluster>  (30) 
2

$$$$
MESWETRYUNDHFU-LOWQCSRCNA-N
     RDKit          3D

 48 51  0  0  0  0  0  0  0  0999 V2000
  143.6670   79.8417  222.9201 H   0  0  0  0  0  0  0  0  0  0  0  0
  142.5880   79.8700  222.7080 C   0  0  0  0  0  0  0  0  0  0  0  0
  141.7760   79.0490  223.3890 C   0  0  0  0  0  0  0  0  0  0  0  0
  142.2111   78.2682  224.0302 H   0  0  0  0  0  0  0  0  0  0  0  0
  140.3010   79.1750  223.2930 C   0  0  0  0  0  0  0  0  0  0  0  0
  139.6790   79.9490  224.2220 N   0  0  0  0  0  0  0  0  0  0  0  0
  138.3380   80.1170  224.2390 C   0  0  0  0  0  0  0  0  0  0  0  0
  137.7460   80.9250  225.2160 C   0  0  0  0  0  0  0  0  0  0  0  0
  138.3725   81.4246  225.9696 H   0  0  0  0  0  0  0  0  0  0  0  0
  136.3570   81.0980  225.2350 C   0  0  0  0  0  0  0  0  0  0  0  0
  135.6150   82.1120  226.4600 Cl  0  0  0  0  0  0  0  0  0  0  0  0
  135.5600   80.4600  224.2780 C   0  0  0  0  0  0  0  0  0  0  0  0
  134.4684   80.5950  224.2942 H   0  0  0  0  0  0  0  0  0  0  0  0
  136.1490   79.6510  223.3010 C   0  0  0  0  0  0  0  0  0  0  0  0
  135.5189   79.1504  222.5510 H   0  0  0  0  0  0  0  0  0  0  0  0
  137.5460   79.4750  223.2740 C   0  0  0  0  0  0  0  0  0  0  0  0
  138.1880   78.6830  222.3060 C   0  0  0  0  0  0  0  0  0  0  0  0
  137.4930   78.1110  221.4180 O   0  0  0  0  0  0  0  0  0  0  0  0
  139.5580   78.5400  222.3150 N   0  0  0  0  0  0  0  0  0  0  0  0
  140.1930   77.7730  221.2160 C   0  0  0  0  0  0  0  0  0  0  0  0
  139.5030   77.7389  220.3600 H   0  0  0  0  0  0  0  0  0  0  0  0
  141.1327   78.2763  220.9447 H   0  0  0  0  0  0  0  0  0  0  0  0
  140.5280   76.3260  221.6480 C   0  0  1  0  0  0  0  0  0  0  0  0
  140.9720   76.3813  222.6529 H   0  0  0  0  0  0  0  0  0  0  0  0
  139.2680   75.4390  221.7510 C   0  0  0  0  0  0  0  0  0  0  0  0
  138.8076   75.3657  220.7547 H   0  0  0  0  0  0  0  0  0  0  0  0
  138.5915   75.9087  222.4802 H   0  0  0  0  0  0  0  0  0  0  0  0
  139.5650   74.0750  222.2350 N   0  0  0  0  0  0  0  0  0  0  0  0
  139.4240   74.0520  223.2730 H   0  0  0  0  0  0  0  0  0  0  0  0
  140.9360   73.6040  221.9580 C   0  0  0  0  0  0  0  0  0  0  0  0
  140.9307   72.5052  221.9059 H   0  0  0  0  0  0  0  0  0  0  0  0
  141.5887   73.9598  222.7688 H   0  0  0  0  0  0  0  0  0  0  0  0
  141.4750   74.1590  220.6380 C   0  0  0  0  0  0  0  0  0  0  0  0
  140.8088   73.8487  219.8195 H   0  0  0  0  0  0  0  0  0  0  0  0
  142.4899   73.7643  220.4824 H   0  0  0  0  0  0  0  0  0  0  0  0
  141.5490   75.6950  220.6700 C   0  0  0  0  0  0  0  0  0  0  0  0
  141.3487   76.0774  219.6582 H   0  0  0  0  0  0  0  0  0  0  0  0
  142.5551   75.9703  221.0193 H   0  0  0  0  0  0  0  0  0  0  0  0
  142.0900   80.8120  221.6830 C   0  0  0  0  0  0  0  0  0  0  0  0
  141.5500   82.0130  222.0420 N   0  0  0  0  0  0  0  0  0  0  0  0
  141.0830   82.8960  221.1200 C   0  0  0  0  0  0  0  0  0  0  0  0
  140.6515   83.8541  221.4453 H   0  0  0  0  0  0  0  0  0  0  0  0
  141.1510   82.5870  219.7600 C   0  0  0  0  0  0  0  0  0  0  0  0
  140.7758   83.2977  219.0089 H   0  0  0  0  0  0  0  0  0  0  0  0
  141.7000   81.3670  219.3640 C   0  0  0  0  0  0  0  0  0  0  0  0
  141.7635   81.1125  218.2957 H   0  0  0  0  0  0  0  0  0  0  0  0
  142.1690   80.4690  220.3260 C   0  0  0  0  0  0  0  0  0  0  0  0
  142.5962   79.5021  220.0216 H   0  0  0  0  0  0  0  0  0  0  0  0
  1  2  1  0
  2  3  2  0
  3  4  1  0
  3  5  1  0
  5  6  2  0
  6  7  1  0
  7  8  2  0
  8  9  1  0
  8 10  1  0
 10 11  1  0
 10 12  2  0
 12 13  1  0
 12 14  1  0
 14 15  1  0
 14 16  2  0
 16 17  1  0
 17 18  2  0
 17 19  1  0
 19 20  1  0
 20 21  1  0
 20 22  1  0
 20 23  1  0
 23 24  1  1
 23 25  1  0
 25 26  1  0
 25 27  1  0
 25 28  1  0
 28 29  1  0
 28 30  1  0
 30 31  1  0
 30 32  1  0
 30 33  1  0
 33 34  1  0
 33 35  1  0
 33 36  1  0
 36 37  1  0
 36 38  1  0
  2 39  1  0
 39 40  2  0
 40 41  1  0
 41 42  1  0
 41 43  2  0
 43 44  1  0
 43 45  1  0
 45 46  1  0
 45 47  2  0
 47 48  1  0
 19  5  1  0
 36 23  1  0
 47 39  1  0
 16  7  1  0
M  END
>  <UniqueID>  (31) 
433

>  <SMILES>  (31) 
O=c1c2ccc(Cl)cc2nc(/C=C/c2ccccn2)n1C[C@@H]1CCCNC1

>  <Energy>  (31) 
68.12828973817594

>  <Genealogy>  (31) 
O=c1c2ccc(Cl)cc2nc(/C=C/c2ccccn2)n1C[C@@H]1CCCNC1 (chirality)
O=c1c2ccc(Cl)cc2nc(/C=C/c2ccccn2)n1C[C@@H]1CCCNC1 (cis-trans isomerization)
O=c1c2ccc(Cl)cc2nc(/C=C/c2ccccn2)n1C[C@@H]1CCCNC1 (3D coordinates assigned)
O=c1c2ccc(Cl)cc2nc(/C=C/c2ccccn2)n1C[C@@H]1CCCNC1 (nonaromatic ring conformer: 68.12828973817594 kcal/mol)

>  <smiles>  (31) 
O=c1c2ccc(Cl)cc2nc(/C=C/c2ccccn2)n1CC1CCCNC1

>  <score_type>  (31) 
oracle

>  <origin>  (31) 
autodockgpu

>  <m_score__min__energy>  (31) 
-7.7199999999999998

>  <m_primary>  (31) 
energy

>  <meeko>  (31) 
{"free_energy": -6.86, "intermolecular_energy": -8.35, "internal_energy": -1.5, "cluster_size": 2, "cluster_id": 3, "rank_in_cluster": 1}

>  <energy>  (31) 
-7.05

>  <cluster_rmsd>  (31) 
0.28

>  <rmsd>  (31) 
270.12

>  <cluster>  (31) 
2

$$$$
MESWETRYUNDHFU-LOWQCSRCNA-N
     RDKit          3D

 48 51  0  0  0  0  0  0  0  0999 V2000
  143.8453   79.8196  222.8471 H   0  0  0  0  0  0  0  0  0  0  0  0
  142.7530   79.8270  222.7170 C   0  0  0  0  0  0  0  0  0  0  0  0
  142.0140   78.9650  223.4290 C   0  0  0  0  0  0  0  0  0  0  0  0
  142.5149   78.2269  224.0727 H   0  0  0  0  0  0  0  0  0  0  0  0
  140.5320   78.9890  223.3640 C   0  0  0  0  0  0  0  0  0  0  0  0
  139.8950   80.0020  224.0110 N   0  0  0  0  0  0  0  0  0  0  0  0
  138.5480   80.1080  224.0330 C   0  0  0  0  0  0  0  0  0  0  0  0
  137.9410   81.1710  224.7130 C   0  0  0  0  0  0  0  0  0  0  0  0
  138.5606   81.9196  225.2283 H   0  0  0  0  0  0  0  0  0  0  0  0
  136.5460   81.2810  224.7370 C   0  0  0  0  0  0  0  0  0  0  0  0
  135.7860   82.6130  225.5880 Cl  0  0  0  0  0  0  0  0  0  0  0  0
  135.7580   80.3270  224.0840 C   0  0  0  0  0  0  0  0  0  0  0  0
  134.6616   80.4132  224.1055 H   0  0  0  0  0  0  0  0  0  0  0  0
  136.3610   79.2640  223.4040 C   0  0  0  0  0  0  0  0  0  0  0  0
  135.7377   78.5166  222.8913 H   0  0  0  0  0  0  0  0  0  0  0  0
  137.7650   79.1480  223.3740 C   0  0  0  0  0  0  0  0  0  0  0  0
  138.4210   78.1070  222.6950 C   0  0  0  0  0  0  0  0  0  0  0  0
  137.7340   77.2420  222.0810 O   0  0  0  0  0  0  0  0  0  0  0  0
  139.7970   78.0330  222.6880 N   0  0  0  0  0  0  0  0  0  0  0  0
  140.4410   76.9700  221.8780 C   0  0  0  0  0  0  0  0  0  0  0  0
  141.1224   76.3946  222.5219 H   0  0  0  0  0  0  0  0  0  0  0  0
  139.6501   76.3258  221.4663 H   0  0  0  0  0  0  0  0  0  0  0  0
  141.2460   77.5600  220.6970 C   0  0  1  0  0  0  0  0  0  0  0  0
  141.8298   78.4050  221.0909 H   0  0  0  0  0  0  0  0  0  0  0  0
  142.2490   76.5440  220.1070 C   0  0  0  0  0  0  0  0  0  0  0  0
  141.6868   75.6896  219.7020 H   0  0  0  0  0  0  0  0  0  0  0  0
  142.9270   76.2386  220.9176 H   0  0  0  0  0  0  0  0  0  0  0  0
  143.0770   77.1190  219.0270 N   0  0  0  0  0  0  0  0  0  0  0  0
  143.9760   77.4630  219.4430 H   0  0  0  0  0  0  0  0  0  0  0  0
  142.4580   78.2450  218.3020 C   0  0  0  0  0  0  0  0  0  0  0  0
  142.8799   78.2894  217.2871 H   0  0  0  0  0  0  0  0  0  0  0  0
  142.6708   79.1683  218.8607 H   0  0  0  0  0  0  0  0  0  0  0  0
  140.9390   78.0920  218.2000 C   0  0  0  0  0  0  0  0  0  0  0  0
  140.7074   77.1504  217.6806 H   0  0  0  0  0  0  0  0  0  0  0  0
  140.5392   78.9515  217.6420 H   0  0  0  0  0  0  0  0  0  0  0  0
  140.2870   78.0700  219.5930 C   0  0  0  0  0  0  0  0  0  0  0  0
  139.4077   77.4100  219.5590 H   0  0  0  0  0  0  0  0  0  0  0  0
  140.0115   79.1045  219.8459 H   0  0  0  0  0  0  0  0  0  0  0  0
  142.1580   80.7870  221.7640 C   0  0  0  0  0  0  0  0  0  0  0  0
  142.1780   80.5430  220.4220 N   0  0  0  0  0  0  0  0  0  0  0  0
  141.6410   81.4120  219.5240 C   0  0  0  0  0  0  0  0  0  0  0  0
  141.6789   81.1847  218.4484 H   0  0  0  0  0  0  0  0  0  0  0  0
  141.0420   82.5920  219.9670 C   0  0  0  0  0  0  0  0  0  0  0  0
  140.6035   83.2974  219.2457 H   0  0  0  0  0  0  0  0  0  0  0  0
  141.0050   82.8680  221.3350 C   0  0  0  0  0  0  0  0  0  0  0  0
  140.5334   83.7931  221.6980 H   0  0  0  0  0  0  0  0  0  0  0  0
  141.5680   81.9670  222.2420 C   0  0  0  0  0  0  0  0  0  0  0  0
  141.5490   82.1806  223.3209 H   0  0  0  0  0  0  0  0  0  0  0  0
  1  2  1  0
  2  3  2  0
  3  4  1  0
  3  5  1  0
  5  6  2  0
  6  7  1  0
  7  8  2  0
  8  9  1  0
  8 10  1  0
 10 11  1  0
 10 12  2  0
 12 13  1  0
 12 14  1  0
 14 15  1  0
 14 16  2  0
 16 17  1  0
 17 18  2  0
 17 19  1  0
 19 20  1  0
 20 21  1  0
 20 22  1  0
 20 23  1  0
 23 24  1  1
 23 25  1  0
 25 26  1  0
 25 27  1  0
 25 28  1  0
 28 29  1  0
 28 30  1  0
 30 31  1  0
 30 32  1  0
 30 33  1  0
 33 34  1  0
 33 35  1  0
 33 36  1  0
 36 37  1  0
 36 38  1  0
  2 39  1  0
 39 40  2  0
 40 41  1  0
 41 42  1  0
 41 43  2  0
 43 44  1  0
 43 45  1  0
 45 46  1  0
 45 47  2  0
 47 48  1  0
 19  5  1  0
 36 23  1  0
 47 39  1  0
 16  7  1  0
M  END
>  <UniqueID>  (32) 
433

>  <SMILES>  (32) 
O=c1c2ccc(Cl)cc2nc(/C=C/c2ccccn2)n1C[C@@H]1CCCNC1

>  <Energy>  (32) 
68.12828973817594

>  <Genealogy>  (32) 
O=c1c2ccc(Cl)cc2nc(/C=C/c2ccccn2)n1C[C@@H]1CCCNC1 (chirality)
O=c1c2ccc(Cl)cc2nc(/C=C/c2ccccn2)n1C[C@@H]1CCCNC1 (cis-trans isomerization)
O=c1c2ccc(Cl)cc2nc(/C=C/c2ccccn2)n1C[C@@H]1CCCNC1 (3D coordinates assigned)
O=c1c2ccc(Cl)cc2nc(/C=C/c2ccccn2)n1C[C@@H]1CCCNC1 (nonaromatic ring conformer: 68.12828973817594 kcal/mol)

>  <smiles>  (32) 
O=c1c2ccc(Cl)cc2nc(/C=C/c2ccccn2)n1CC1CCCNC1

>  <score_type>  (32) 
oracle

>  <origin>  (32) 
autodockgpu

>  <m_score__min__energy>  (32) 
-7.7199999999999998

>  <m_primary>  (32) 
energy

>  <meeko>  (32) 
{"free_energy": -6.44, "intermolecular_energy": -7.93, "internal_energy": -1.99, "cluster_size": 4, "cluster_id": 4, "rank_in_cluster": 2}

>  <energy>  (32) 
-6.86

>  <cluster_rmsd>  (32) 
0.0

>  <rmsd>  (32) 
271.5

>  <cluster>  (32) 
3

$$$$
MESWETRYUNDHFU-LOWQCSRCNA-N
     RDKit          3D

 48 51  0  0  0  0  0  0  0  0999 V2000
  139.4336   67.7820  226.8279 H   0  0  0  0  0  0  0  0  0  0  0  0
  139.4950   68.6300  226.1300 C   0  0  0  0  0  0  0  0  0  0  0  0
  139.0010   68.4830  224.8930 C   0  0  0  0  0  0  0  0  0  0  0  0
  139.4782   67.7728  224.2017 H   0  0  0  0  0  0  0  0  0  0  0  0
  137.8220   69.2610  224.4390 C   0  0  0  0  0  0  0  0  0  0  0  0
  136.8160   69.4480  225.3340 N   0  0  0  0  0  0  0  0  0  0  0  0
  135.6890   70.1240  225.0190 C   0  0  0  0  0  0  0  0  0  0  0  0
  134.6810   70.2900  225.9770 C   0  0  0  0  0  0  0  0  0  0  0  0
  134.8070   69.8706  226.9861 H   0  0  0  0  0  0  0  0  0  0  0  0
  133.5140   70.9890  225.6510 C   0  0  0  0  0  0  0  0  0  0  0  0
  132.2520   71.1980  226.8520 Cl  0  0  0  0  0  0  0  0  0  0  0  0
  133.3520   71.5200  224.3670 C   0  0  0  0  0  0  0  0  0  0  0  0
  132.4333   72.0684  224.1117 H   0  0  0  0  0  0  0  0  0  0  0  0
  134.3560   71.3550  223.4070 C   0  0  0  0  0  0  0  0  0  0  0  0
  134.2244   71.7730  222.3981 H   0  0  0  0  0  0  0  0  0  0  0  0
  135.5350   70.6550  223.7290 C   0  0  0  0  0  0  0  0  0  0  0  0
  136.5790   70.4720  222.8060 C   0  0  0  0  0  0  0  0  0  0  0  0
  136.4670   70.9580  221.6440 O   0  0  0  0  0  0  0  0  0  0  0  0
  137.7170   69.7830  223.1630 N   0  0  0  0  0  0  0  0  0  0  0  0
  138.8270   69.7010  222.1830 C   0  0  0  0  0  0  0  0  0  0  0  0
  139.6409   69.1006  222.6156 H   0  0  0  0  0  0  0  0  0  0  0  0
  138.4399   69.2362  221.2643 H   0  0  0  0  0  0  0  0  0  0  0  0
  139.3750   71.1020  221.8210 C   0  0  1  0  0  0  0  0  0  0  0  0
  138.6033   71.6080  221.2223 H   0  0  0  0  0  0  0  0  0  0  0  0
  139.6290   71.9730  223.0700 C   0  0  0  0  0  0  0  0  0  0  0  0
  140.4018   71.4885  223.6849 H   0  0  0  0  0  0  0  0  0  0  0  0
  138.6749   72.0636  223.6098 H   0  0  0  0  0  0  0  0  0  0  0  0
  140.0810   73.3390  222.7340 N   0  0  0  0  0  0  0  0  0  0  0  0
  139.2440   73.9700  222.7100 H   0  0  0  0  0  0  0  0  0  0  0  0
  140.7730   73.4620  221.4380 C   0  0  0  0  0  0  0  0  0  0  0  0
  141.4551   74.3240  221.4797 H   0  0  0  0  0  0  0  0  0  0  0  0
  140.0106   73.5962  220.6565 H   0  0  0  0  0  0  0  0  0  0  0  0
  141.5820   72.2070  221.1000 C   0  0  0  0  0  0  0  0  0  0  0  0
  142.3228   72.0328  221.8943 H   0  0  0  0  0  0  0  0  0  0  0  0
  142.0809   72.3641  220.1323 H   0  0  0  0  0  0  0  0  0  0  0  0
  140.6710   70.9730  220.9840 C   0  0  0  0  0  0  0  0  0  0  0  0
  141.2281   70.0910  221.3329 H   0  0  0  0  0  0  0  0  0  0  0  0
  140.3752   70.8783  219.9288 H   0  0  0  0  0  0  0  0  0  0  0  0
  140.1190   69.8870  226.5930 C   0  0  0  0  0  0  0  0  0  0  0  0
  140.8580   70.6550  225.7410 N   0  0  0  0  0  0  0  0  0  0  0  0
  141.4450   71.8140  226.1420 C   0  0  0  0  0  0  0  0  0  0  0  0
  142.0368   72.4061  225.4284 H   0  0  0  0  0  0  0  0  0  0  0  0
  141.2970   72.2530  227.4590 C   0  0  0  0  0  0  0  0  0  0  0  0
  141.7685   73.1904  227.7892 H   0  0  0  0  0  0  0  0  0  0  0  0
  140.5440   71.4890  228.3520 C   0  0  0  0  0  0  0  0  0  0  0  0
  140.4155   71.8247  229.3916 H   0  0  0  0  0  0  0  0  0  0  0  0
  139.9540   70.2980  227.9240 C   0  0  0  0  0  0  0  0  0  0  0  0
  139.3651   69.6875  228.6243 H   0  0  0  0  0  0  0  0  0  0  0  0
  1  2  1  0
  2  3  2  0
  3  4  1  0
  3  5  1  0
  5  6  2  0
  6  7  1  0
  7  8  2  0
  8  9  1  0
  8 10  1  0
 10 11  1  0
 10 12  2  0
 12 13  1  0
 12 14  1  0
 14 15  1  0
 14 16  2  0
 16 17  1  0
 17 18  2  0
 17 19  1  0
 19 20  1  0
 20 21  1  0
 20 22  1  0
 20 23  1  0
 23 24  1  6
 23 25  1  0
 25 26  1  0
 25 27  1  0
 25 28  1  0
 28 29  1  0
 28 30  1  0
 30 31  1  0
 30 32  1  0
 30 33  1  0
 33 34  1  0
 33 35  1  0
 33 36  1  0
 36 37  1  0
 36 38  1  0
  2 39  1  0
 39 40  2  0
 40 41  1  0
 41 42  1  0
 41 43  2  0
 43 44  1  0
 43 45  1  0
 45 46  1  0
 45 47  2  0
 47 48  1  0
 19  5  1  0
 36 23  1  0
 47 39  1  0
 16  7  1  0
M  END
>  <UniqueID>  (33) 
433

>  <SMILES>  (33) 
O=c1c2ccc(Cl)cc2nc(/C=C/c2ccccn2)n1C[C@@H]1CCCNC1

>  <Energy>  (33) 
68.12828973817594

>  <Genealogy>  (33) 
O=c1c2ccc(Cl)cc2nc(/C=C/c2ccccn2)n1C[C@@H]1CCCNC1 (chirality)
O=c1c2ccc(Cl)cc2nc(/C=C/c2ccccn2)n1C[C@@H]1CCCNC1 (cis-trans isomerization)
O=c1c2ccc(Cl)cc2nc(/C=C/c2ccccn2)n1C[C@@H]1CCCNC1 (3D coordinates assigned)
O=c1c2ccc(Cl)cc2nc(/C=C/c2ccccn2)n1C[C@@H]1CCCNC1 (nonaromatic ring conformer: 68.12828973817594 kcal/mol)

>  <smiles>  (33) 
O=c1c2ccc(Cl)cc2nc(/C=C/c2ccccn2)n1CC1CCCNC1

>  <score_type>  (33) 
oracle

>  <origin>  (33) 
autodockgpu

>  <m_score__min__energy>  (33) 
-7.7199999999999998

>  <m_primary>  (33) 
energy

>  <meeko>  (33) 
{"free_energy": -7.05, "intermolecular_energy": -8.54, "internal_energy": -1.51, "cluster_size": 3, "cluster_id": 2, "rank_in_cluster": 3}

>  <energy>  (33) 
-6.8

>  <cluster_rmsd>  (33) 
0.58

>  <rmsd>  (33) 
271.47

>  <cluster>  (33) 
3

$$$$
MESWETRYUNDHFU-LOWQCSRCNA-N
     RDKit          3D

 48 51  0  0  0  0  0  0  0  0999 V2000
  143.6609   79.3307  223.0318 H   0  0  0  0  0  0  0  0  0  0  0  0
  142.5910   79.3890  222.7830 C   0  0  0  0  0  0  0  0  0  0  0  0
  141.7390   78.5690  223.4120 C   0  0  0  0  0  0  0  0  0  0  0  0
  142.1310   77.7011  223.9626 H   0  0  0  0  0  0  0  0  0  0  0  0
  140.2760   78.8110  223.3790 C   0  0  0  0  0  0  0  0  0  0  0  0
  139.8020   79.8700  224.0890 N   0  0  0  0  0  0  0  0  0  0  0  0
  138.4850   80.1690  224.1440 C   0  0  0  0  0  0  0  0  0  0  0  0
  138.0480   81.2710  224.8880 C   0  0  0  0  0  0  0  0  0  0  0  0
  138.7767   81.8946  225.4266 H   0  0  0  0  0  0  0  0  0  0  0  0
  136.6840   81.5800  224.9470 C   0  0  0  0  0  0  0  0  0  0  0  0
  136.1370   82.9620  225.8790 Cl  0  0  0  0  0  0  0  0  0  0  0  0
  135.7580   80.7870  224.2620 C   0  0  0  0  0  0  0  0  0  0  0  0
  134.6863   81.0307  224.3085 H   0  0  0  0  0  0  0  0  0  0  0  0
  136.1910   79.6850  223.5180 C   0  0  0  0  0  0  0  0  0  0  0  0
  135.4588   79.0632  222.9820 H   0  0  0  0  0  0  0  0  0  0  0  0
  137.5620   79.3690  223.4530 C   0  0  0  0  0  0  0  0  0  0  0  0
  138.0500   78.2800  222.7100 C   0  0  0  0  0  0  0  0  0  0  0  0
  137.2370   77.5570  222.0670 O   0  0  0  0  0  0  0  0  0  0  0  0
  139.4010   78.0090  222.6710 N   0  0  0  0  0  0  0  0  0  0  0  0
  139.8720   76.9080  221.7960 C   0  0  0  0  0  0  0  0  0  0  0  0
  140.6065   76.3032  222.3479 H   0  0  0  0  0  0  0  0  0  0  0  0
  139.0005   76.3021  221.5073 H   0  0  0  0  0  0  0  0  0  0  0  0
  140.5340   77.4470  220.5060 C   0  0  1  0  0  0  0  0  0  0  0  0
  140.5655   78.5433  220.5902 H   0  0  0  0  0  0  0  0  0  0  0  0
  141.9900   76.9560  220.3460 C   0  0  0  0  0  0  0  0  0  0  0  0
  141.9834   75.8597  220.2557 H   0  0  0  0  0  0  0  0  0  0  0  0
  142.5512   77.2889  221.2316 H   0  0  0  0  0  0  0  0  0  0  0  0
  142.6580   77.5240  219.1560 N   0  0  0  0  0  0  0  0  0  0  0  0
  143.1880   78.3800  219.4480 H   0  0  0  0  0  0  0  0  0  0  0  0
  141.7500   77.9120  218.0600 C   0  0  0  0  0  0  0  0  0  0  0  0
  142.2998   77.8631  217.1085 H   0  0  0  0  0  0  0  0  0  0  0  0
  141.3920   78.9329  218.2592 H   0  0  0  0  0  0  0  0  0  0  0  0
  140.5310   76.9900  217.9750 C   0  0  0  0  0  0  0  0  0  0  0  0
  140.8732   75.9565  217.8177 H   0  0  0  0  0  0  0  0  0  0  0  0
  139.9011   77.3221  217.1366 H   0  0  0  0  0  0  0  0  0  0  0  0
  139.6960   77.0510  219.2650 C   0  0  0  0  0  0  0  0  0  0  0  0
  139.2516   76.0606  219.4428 H   0  0  0  0  0  0  0  0  0  0  0  0
  138.9270   77.8250  219.1247 H   0  0  0  0  0  0  0  0  0  0  0  0
  142.1510   80.3690  221.7680 C   0  0  0  0  0  0  0  0  0  0  0  0
  142.2030   80.0690  220.4380 N   0  0  0  0  0  0  0  0  0  0  0  0
  141.8070   80.9530  219.4840 C   0  0  0  0  0  0  0  0  0  0  0  0
  141.8664   80.6779  218.4206 H   0  0  0  0  0  0  0  0  0  0  0  0
  141.3250   82.2100  219.8540 C   0  0  0  0  0  0  0  0  0  0  0  0
  141.0023   82.9294  219.0870 H   0  0  0  0  0  0  0  0  0  0  0  0
  141.2570   82.5440  221.2070 C   0  0  0  0  0  0  0  0  0  0  0  0
  140.8750   83.5292  221.5127 H   0  0  0  0  0  0  0  0  0  0  0  0
  141.6750   81.6250  222.1730 C   0  0  0  0  0  0  0  0  0  0  0  0
  141.6312   81.8840  223.2412 H   0  0  0  0  0  0  0  0  0  0  0  0
  1  2  1  0
  2  3  2  0
  3  4  1  0
  3  5  1  0
  5  6  2  0
  6  7  1  0
  7  8  2  0
  8  9  1  0
  8 10  1  0
 10 11  1  0
 10 12  2  0
 12 13  1  0
 12 14  1  0
 14 15  1  0
 14 16  2  0
 16 17  1  0
 17 18  2  0
 17 19  1  0
 19 20  1  0
 20 21  1  0
 20 22  1  0
 20 23  1  0
 23 24  1  1
 23 25  1  0
 25 26  1  0
 25 27  1  0
 25 28  1  0
 28 29  1  0
 28 30  1  0
 30 31  1  0
 30 32  1  0
 30 33  1  0
 33 34  1  0
 33 35  1  0
 33 36  1  0
 36 37  1  0
 36 38  1  0
  2 39  1  0
 39 40  2  0
 40 41  1  0
 41 42  1  0
 41 43  2  0
 43 44  1  0
 43 45  1  0
 45 46  1  0
 45 47  2  0
 47 48  1  0
 19  5  1  0
 36 23  1  0
 47 39  1  0
 16  7  1  0
M  END
>  <UniqueID>  (34) 
433

>  <SMILES>  (34) 
O=c1c2ccc(Cl)cc2nc(/C=C/c2ccccn2)n1C[C@@H]1CCCNC1

>  <Energy>  (34) 
68.12828973817594

>  <Genealogy>  (34) 
O=c1c2ccc(Cl)cc2nc(/C=C/c2ccccn2)n1C[C@@H]1CCCNC1 (chirality)
O=c1c2ccc(Cl)cc2nc(/C=C/c2ccccn2)n1C[C@@H]1CCCNC1 (cis-trans isomerization)
O=c1c2ccc(Cl)cc2nc(/C=C/c2ccccn2)n1C[C@@H]1CCCNC1 (3D coordinates assigned)
O=c1c2ccc(Cl)cc2nc(/C=C/c2ccccn2)n1C[C@@H]1CCCNC1 (nonaromatic ring conformer: 68.12828973817594 kcal/mol)

>  <smiles>  (34) 
O=c1c2ccc(Cl)cc2nc(/C=C/c2ccccn2)n1CC1CCCNC1

>  <score_type>  (34) 
oracle

>  <origin>  (34) 
autodockgpu

>  <m_score__min__energy>  (34) 
-7.7199999999999998

>  <m_primary>  (34) 
energy

>  <meeko>  (34) 
{"free_energy": -5.88, "intermolecular_energy": -7.38, "internal_energy": -2.51, "cluster_size": 4, "cluster_id": 4, "rank_in_cluster": 3}

>  <energy>  (34) 
-6.48

>  <cluster_rmsd>  (34) 
0.0

>  <rmsd>  (34) 
271.5

>  <cluster>  (34) 
4

$$$$
MESWETRYUNDHFU-LOWQCSRCNA-N
     RDKit          3D

 48 51  0  0  0  0  0  0  0  0999 V2000
  138.6728   72.7586  222.6385 H   0  0  0  0  0  0  0  0  0  0  0  0
  139.6580   72.2850  222.7610 C   0  0  0  0  0  0  0  0  0  0  0  0
  140.5850   72.4720  221.8120 C   0  0  0  0  0  0  0  0  0  0  0  0
  141.0752   71.5991  221.3562 H   0  0  0  0  0  0  0  0  0  0  0  0
  140.9620   73.8350  221.3650 C   0  0  0  0  0  0  0  0  0  0  0  0
  140.6180   74.8740  222.1720 N   0  0  0  0  0  0  0  0  0  0  0  0
  140.8950   76.1580  221.8520 C   0  0  0  0  0  0  0  0  0  0  0  0
  140.5200   77.1920  222.7170 C   0  0  0  0  0  0  0  0  0  0  0  0
  139.9999   76.9598  223.6580 H   0  0  0  0  0  0  0  0  0  0  0  0
  140.8060   78.5210  222.3860 C   0  0  0  0  0  0  0  0  0  0  0  0
  140.3370   79.8170  223.4720 Cl  0  0  0  0  0  0  0  0  0  0  0  0
  141.4640   78.8170  221.1880 C   0  0  0  0  0  0  0  0  0  0  0  0
  141.6864   79.8623  220.9276 H   0  0  0  0  0  0  0  0  0  0  0  0
  141.8400   77.7860  220.3200 C   0  0  0  0  0  0  0  0  0  0  0  0
  142.3580   78.0228  219.3789 H   0  0  0  0  0  0  0  0  0  0  0  0
  141.5570   76.4460  220.6480 C   0  0  0  0  0  0  0  0  0  0  0  0
  141.9240   75.3730  219.8180 C   0  0  0  0  0  0  0  0  0  0  0  0
  142.5370   75.6100  218.7380 O   0  0  0  0  0  0  0  0  0  0  0  0
  141.6310   74.0760  220.1790 N   0  0  0  0  0  0  0  0  0  0  0  0
  142.1240   72.9760  219.3150 C   0  0  0  0  0  0  0  0  0  0  0  0
  141.4857   72.0925  219.4638 H   0  0  0  0  0  0  0  0  0  0  0  0
  142.0868   73.3179  218.2702 H   0  0  0  0  0  0  0  0  0  0  0  0
  143.5870   72.5990  219.6470 C   0  0  1  0  0  0  0  0  0  0  0  0
  143.5943   71.5331  219.9187 H   0  0  0  0  0  0  0  0  0  0  0  0
  144.5260   72.7710  218.4320 C   0  0  0  0  0  0  0  0  0  0  0  0
  144.5377   73.8326  218.1442 H   0  0  0  0  0  0  0  0  0  0  0  0
  144.1409   72.1334  217.6226 H   0  0  0  0  0  0  0  0  0  0  0  0
  145.9120   72.3430  218.7150 N   0  0  0  0  0  0  0  0  0  0  0  0
  146.0220   71.3470  218.4080 H   0  0  0  0  0  0  0  0  0  0  0  0
  146.3080   72.4210  220.1330 C   0  0  0  0  0  0  0  0  0  0  0  0
  147.3987   72.5514  220.1908 H   0  0  0  0  0  0  0  0  0  0  0  0
  145.9929   71.4897  220.6264 H   0  0  0  0  0  0  0  0  0  0  0  0
  145.6310   73.5910  220.8520 C   0  0  0  0  0  0  0  0  0  0  0  0
  145.9005   74.5289  220.3443 H   0  0  0  0  0  0  0  0  0  0  0  0
  145.9743   73.6041  221.8970 H   0  0  0  0  0  0  0  0  0  0  0  0
  144.1010   73.4370  220.8430 C   0  0  0  0  0  0  0  0  0  0  0  0
  143.6478   74.4379  220.7908 H   0  0  0  0  0  0  0  0  0  0  0  0
  143.8171   72.9067  221.7640 H   0  0  0  0  0  0  0  0  0  0  0  0
  139.9080   71.4670  223.9660 C   0  0  0  0  0  0  0  0  0  0  0  0
  140.7750   71.8910  224.9310 N   0  0  0  0  0  0  0  0  0  0  0  0
  141.0250   71.1560  226.0480 C   0  0  0  0  0  0  0  0  0  0  0  0
  141.7327   71.5273  226.8038 H   0  0  0  0  0  0  0  0  0  0  0  0
  140.3830   69.9300  226.2350 C   0  0  0  0  0  0  0  0  0  0  0  0
  140.5794   69.3317  227.1369 H   0  0  0  0  0  0  0  0  0  0  0  0
  139.4900   69.4720  225.2660 C   0  0  0  0  0  0  0  0  0  0  0  0
  138.9748   68.5098  225.4027 H   0  0  0  0  0  0  0  0  0  0  0  0
  139.2510   70.2370  224.1220 C   0  0  0  0  0  0  0  0  0  0  0  0
  138.5540   69.8784  223.3503 H   0  0  0  0  0  0  0  0  0  0  0  0
  1  2  1  0
  2  3  2  0
  3  4  1  0
  3  5  1  0
  5  6  2  0
  6  7  1  0
  7  8  2  0
  8  9  1  0
  8 10  1  0
 10 11  1  0
 10 12  2  0
 12 13  1  0
 12 14  1  0
 14 15  1  0
 14 16  2  0
 16 17  1  0
 17 18  2  0
 17 19  1  0
 19 20  1  0
 20 21  1  0
 20 22  1  0
 20 23  1  0
 23 24  1  1
 23 25  1  0
 25 26  1  0
 25 27  1  0
 25 28  1  0
 28 29  1  0
 28 30  1  0
 30 31  1  0
 30 32  1  0
 30 33  1  0
 33 34  1  0
 33 35  1  0
 33 36  1  0
 36 37  1  0
 36 38  1  0
  2 39  1  0
 39 40  2  0
 40 41  1  0
 41 42  1  0
 41 43  2  0
 43 44  1  0
 43 45  1  0
 45 46  1  0
 45 47  2  0
 47 48  1  0
 19  5  1  0
 36 23  1  0
 47 39  1  0
 16  7  1  0
M  END
>  <UniqueID>  (35) 
433

>  <SMILES>  (35) 
O=c1c2ccc(Cl)cc2nc(/C=C/c2ccccn2)n1C[C@@H]1CCCNC1

>  <Energy>  (35) 
68.12828973817594

>  <Genealogy>  (35) 
O=c1c2ccc(Cl)cc2nc(/C=C/c2ccccn2)n1C[C@@H]1CCCNC1 (chirality)
O=c1c2ccc(Cl)cc2nc(/C=C/c2ccccn2)n1C[C@@H]1CCCNC1 (cis-trans isomerization)
O=c1c2ccc(Cl)cc2nc(/C=C/c2ccccn2)n1C[C@@H]1CCCNC1 (3D coordinates assigned)
O=c1c2ccc(Cl)cc2nc(/C=C/c2ccccn2)n1C[C@@H]1CCCNC1 (nonaromatic ring conformer: 68.12828973817594 kcal/mol)

>  <smiles>  (35) 
O=c1c2ccc(Cl)cc2nc(/C=C/c2ccccn2)n1CC1CCCNC1

>  <score_type>  (35) 
oracle

>  <origin>  (35) 
autodockgpu

>  <m_score__min__energy>  (35) 
-7.7199999999999998

>  <m_primary>  (35) 
energy

>  <meeko>  (35) 
{"free_energy": -7.72, "intermolecular_energy": -9.22, "internal_energy": -1.04, "cluster_size": 8, "cluster_id": 1, "rank_in_cluster": 1}

>  <energy>  (35) 
-6.44

>  <cluster_rmsd>  (35) 
0.13

>  <rmsd>  (35) 
271.49

>  <cluster>  (35) 
4

$$$$
MESWETRYUNDHFU-LOWQCSRCNA-N
     RDKit          3D

 48 51  0  0  0  0  0  0  0  0999 V2000
  138.6849   72.9857  222.1658 H   0  0  0  0  0  0  0  0  0  0  0  0
  139.6350   72.4920  222.4180 C   0  0  0  0  0  0  0  0  0  0  0  0
  140.7140   72.7510  221.6670 C   0  0  0  0  0  0  0  0  0  0  0  0
  141.3628   71.9216  221.3489 H   0  0  0  0  0  0  0  0  0  0  0  0
  141.0490   74.1370  221.2570 C   0  0  0  0  0  0  0  0  0  0  0  0
  140.6930   75.1410  222.1010 N   0  0  0  0  0  0  0  0  0  0  0  0
  140.9330   76.4400  221.8160 C   0  0  0  0  0  0  0  0  0  0  0  0
  140.5480   77.4380  222.7200 C   0  0  0  0  0  0  0  0  0  0  0  0
  140.0518   77.1639  223.6627 H   0  0  0  0  0  0  0  0  0  0  0  0
  140.7940   78.7830  222.4250 C   0  0  0  0  0  0  0  0  0  0  0  0
  140.3130   80.0330  223.5580 Cl  0  0  0  0  0  0  0  0  0  0  0  0
  141.4230   79.1320  221.2250 C   0  0  0  0  0  0  0  0  0  0  0  0
  141.6151   80.1901  220.9937 H   0  0  0  0  0  0  0  0  0  0  0  0
  141.8080   78.1390  220.3190 C   0  0  0  0  0  0  0  0  0  0  0  0
  142.3016   78.4177  219.3763 H   0  0  0  0  0  0  0  0  0  0  0  0
  141.5650   76.7820  220.6110 C   0  0  0  0  0  0  0  0  0  0  0  0
  141.9440   75.7450  219.7410 C   0  0  0  0  0  0  0  0  0  0  0  0
  142.5300   76.0300  218.6580 O   0  0  0  0  0  0  0  0  0  0  0  0
  141.6900   74.4300  220.0670 N   0  0  0  0  0  0  0  0  0  0  0  0
  142.1940   73.3700  219.1610 C   0  0  0  0  0  0  0  0  0  0  0  0
  141.5087   72.5106  219.2019 H   0  0  0  0  0  0  0  0  0  0  0  0
  142.2459   73.7848  218.1435 H   0  0  0  0  0  0  0  0  0  0  0  0
  143.6120   72.9000  219.5630 C   0  0  1  0  0  0  0  0  0  0  0  0
  143.5333   71.8427  219.8561 H   0  0  0  0  0  0  0  0  0  0  0  0
  144.6100   72.9770  218.3870 C   0  0  0  0  0  0  0  0  0  0  0  0
  144.7089   74.0282  218.0783 H   0  0  0  0  0  0  0  0  0  0  0  0
  144.2143   72.3486  217.5755 H   0  0  0  0  0  0  0  0  0  0  0  0
  145.9490   72.4600  218.7370 N   0  0  0  0  0  0  0  0  0  0  0  0
  146.0010   71.4520  218.4560 H   0  0  0  0  0  0  0  0  0  0  0  0
  146.2910   72.5440  220.1700 C   0  0  0  0  0  0  0  0  0  0  0  0
  147.3849   72.5995  220.2719 H   0  0  0  0  0  0  0  0  0  0  0  0
  145.8912   71.6489  220.6690 H   0  0  0  0  0  0  0  0  0  0  0  0
  145.6690   73.7750  220.8340 C   0  0  0  0  0  0  0  0  0  0  0  0
  146.0247   74.6792  220.3183 H   0  0  0  0  0  0  0  0  0  0  0  0
  145.9688   73.7892  221.8923 H   0  0  0  0  0  0  0  0  0  0  0  0
  144.1330   73.7280  220.7630 C   0  0  0  0  0  0  0  0  0  0  0  0
  143.7539   74.7565  220.6711 H   0  0  0  0  0  0  0  0  0  0  0  0
  143.7741   73.2409  221.6817 H   0  0  0  0  0  0  0  0  0  0  0  0
  139.6710   71.5690  223.5720 C   0  0  0  0  0  0  0  0  0  0  0  0
  138.7070   70.6170  223.7340 N   0  0  0  0  0  0  0  0  0  0  0  0
  138.7150   69.7570  224.7890 C   0  0  0  0  0  0  0  0  0  0  0  0
  137.9198   69.0039  224.8909 H   0  0  0  0  0  0  0  0  0  0  0  0
  139.7320   69.8310  225.7410 C   0  0  0  0  0  0  0  0  0  0  0  0
  139.7448   69.1380  226.5951 H   0  0  0  0  0  0  0  0  0  0  0  0
  140.7330   70.7930  225.5990 C   0  0  0  0  0  0  0  0  0  0  0  0
  141.5428   70.8589  226.3405 H   0  0  0  0  0  0  0  0  0  0  0  0
  140.7050   71.6720  224.5140 C   0  0  0  0  0  0  0  0  0  0  0  0
  141.4864   72.4377  224.3994 H   0  0  0  0  0  0  0  0  0  0  0  0
  1  2  1  0
  2  3  2  0
  3  4  1  0
  3  5  1  0
  5  6  2  0
  6  7  1  0
  7  8  2  0
  8  9  1  0
  8 10  1  0
 10 11  1  0
 10 12  2  0
 12 13  1  0
 12 14  1  0
 14 15  1  0
 14 16  2  0
 16 17  1  0
 17 18  2  0
 17 19  1  0
 19 20  1  0
 20 21  1  0
 20 22  1  0
 20 23  1  0
 23 24  1  1
 23 25  1  0
 25 26  1  0
 25 27  1  0
 25 28  1  0
 28 29  1  0
 28 30  1  0
 30 31  1  0
 30 32  1  0
 30 33  1  0
 33 34  1  0
 33 35  1  0
 33 36  1  0
 36 37  1  0
 36 38  1  0
  2 39  1  0
 39 40  2  0
 40 41  1  0
 41 42  1  0
 41 43  2  0
 43 44  1  0
 43 45  1  0
 45 46  1  0
 45 47  2  0
 47 48  1  0
 19  5  1  0
 36 23  1  0
 47 39  1  0
 16  7  1  0
M  END
>  <UniqueID>  (36) 
433

>  <SMILES>  (36) 
O=c1c2ccc(Cl)cc2nc(/C=C/c2ccccn2)n1C[C@@H]1CCCNC1

>  <Energy>  (36) 
68.12828973817594

>  <Genealogy>  (36) 
O=c1c2ccc(Cl)cc2nc(/C=C/c2ccccn2)n1C[C@@H]1CCCNC1 (chirality)
O=c1c2ccc(Cl)cc2nc(/C=C/c2ccccn2)n1C[C@@H]1CCCNC1 (cis-trans isomerization)
O=c1c2ccc(Cl)cc2nc(/C=C/c2ccccn2)n1C[C@@H]1CCCNC1 (3D coordinates assigned)
O=c1c2ccc(Cl)cc2nc(/C=C/c2ccccn2)n1C[C@@H]1CCCNC1 (nonaromatic ring conformer: 68.12828973817594 kcal/mol)

>  <smiles>  (36) 
O=c1c2ccc(Cl)cc2nc(/C=C/c2ccccn2)n1CC1CCCNC1

>  <score_type>  (36) 
oracle

>  <origin>  (36) 
autodockgpu

>  <m_score__min__energy>  (36) 
-7.7199999999999998

>  <m_primary>  (36) 
energy

>  <meeko>  (36) 
{"free_energy": -7.56, "intermolecular_energy": -9.05, "internal_energy": -1.04, "cluster_size": 8, "cluster_id": 1, "rank_in_cluster": 6}

>  <energy>  (36) 
-5.88

>  <cluster_rmsd>  (36) 
0.69

>  <rmsd>  (36) 
271.37

>  <cluster>  (36) 
4

$$$$
MESWETRYUNDHFU-LOWQCSRCNA-N
     RDKit          3D

 48 51  0  0  0  0  0  0  0  0999 V2000
  138.8143   73.0731  222.5876 H   0  0  0  0  0  0  0  0  0  0  0  0
  139.7400   72.4860  222.6790 C   0  0  0  0  0  0  0  0  0  0  0  0
  140.7340   72.7140  221.8110 C   0  0  0  0  0  0  0  0  0  0  0  0
  141.3208   71.8665  221.4270 H   0  0  0  0  0  0  0  0  0  0  0  0
  141.0580   74.0890  221.3580 C   0  0  0  0  0  0  0  0  0  0  0  0
  140.6960   75.1160  222.1720 N   0  0  0  0  0  0  0  0  0  0  0  0
  140.9260   76.4080  221.8470 C   0  0  0  0  0  0  0  0  0  0  0  0
  140.5340   77.4290  222.7200 C   0  0  0  0  0  0  0  0  0  0  0  0
  140.0401   77.1799  223.6708 H   0  0  0  0  0  0  0  0  0  0  0  0
  140.7700   78.7670  222.3840 C   0  0  0  0  0  0  0  0  0  0  0  0
  140.2810   80.0470  223.4800 Cl  0  0  0  0  0  0  0  0  0  0  0  0
  141.3950   79.0840  221.1740 C   0  0  0  0  0  0  0  0  0  0  0  0
  141.5789   80.1360  220.9103 H   0  0  0  0  0  0  0  0  0  0  0  0
  141.7870   78.0660  220.2980 C   0  0  0  0  0  0  0  0  0  0  0  0
  142.2783   78.3194  219.3470 H   0  0  0  0  0  0  0  0  0  0  0  0
  141.5540   76.7170  220.6310 C   0  0  0  0  0  0  0  0  0  0  0  0
  141.9400   75.6560  219.7930 C   0  0  0  0  0  0  0  0  0  0  0  0
  142.5230   75.9130  218.7010 O   0  0  0  0  0  0  0  0  0  0  0  0
  141.6960   74.3510  220.1590 N   0  0  0  0  0  0  0  0  0  0  0  0
  142.2080   73.2670  219.2850 C   0  0  0  0  0  0  0  0  0  0  0  0
  141.5284   72.4046  219.3515 H   0  0  0  0  0  0  0  0  0  0  0  0
  142.2578   73.6515  218.2556 H   0  0  0  0  0  0  0  0  0  0  0  0
  143.6280   72.8190  219.7010 C   0  0  1  0  0  0  0  0  0  0  0  0
  143.5447   71.7909  220.0833 H   0  0  0  0  0  0  0  0  0  0  0  0
  144.6060   72.7880  218.5060 C   0  0  0  0  0  0  0  0  0  0  0  0
  144.7080   73.8088  218.1090 H   0  0  0  0  0  0  0  0  0  0  0  0
  144.1909   72.0978  217.7568 H   0  0  0  0  0  0  0  0  0  0  0  0
  145.9470   72.2890  218.8750 N   0  0  0  0  0  0  0  0  0  0  0  0
  145.9860   71.2610  218.6780 H   0  0  0  0  0  0  0  0  0  0  0  0
  146.3150   72.4890  220.2900 C   0  0  0  0  0  0  0  0  0  0  0  0
  147.4109   72.5430  220.3682 H   0  0  0  0  0  0  0  0  0  0  0  0
  145.9173   71.6422  220.8685 H   0  0  0  0  0  0  0  0  0  0  0  0
  145.7140   73.7770  220.8600 C   0  0  0  0  0  0  0  0  0  0  0  0
  146.0683   74.6321  220.2656 H   0  0  0  0  0  0  0  0  0  0  0  0
  146.0317   73.8757  221.9085 H   0  0  0  0  0  0  0  0  0  0  0  0
  144.1780   73.7390  220.8180 C   0  0  0  0  0  0  0  0  0  0  0  0
  143.8063   74.7600  220.6464 H   0  0  0  0  0  0  0  0  0  0  0  0
  143.8316   73.3332  221.7800 H   0  0  0  0  0  0  0  0  0  0  0  0
  139.8370   71.4770  223.7550 C   0  0  0  0  0  0  0  0  0  0  0  0
  139.1060   70.3260  223.7010 N   0  0  0  0  0  0  0  0  0  0  0  0
  139.1750   69.3830  224.6780 C   0  0  0  0  0  0  0  0  0  0  0  0
  138.5688   68.4682  224.6033 H   0  0  0  0  0  0  0  0  0  0  0  0
  140.0160   69.5760  225.7770 C   0  0  0  0  0  0  0  0  0  0  0  0
  140.0776   68.8165  226.5703 H   0  0  0  0  0  0  0  0  0  0  0  0
  140.7770   70.7430  225.8570 C   0  0  0  0  0  0  0  0  0  0  0  0
  141.4463   70.9060  226.7146 H   0  0  0  0  0  0  0  0  0  0  0  0
  140.6880   71.7040  224.8470 C   0  0  0  0  0  0  0  0  0  0  0  0
  141.2793   72.6296  224.9073 H   0  0  0  0  0  0  0  0  0  0  0  0
  1  2  1  0
  2  3  2  0
  3  4  1  0
  3  5  1  0
  5  6  2  0
  6  7  1  0
  7  8  2  0
  8  9  1  0
  8 10  1  0
 10 11  1  0
 10 12  2  0
 12 13  1  0
 12 14  1  0
 14 15  1  0
 14 16  2  0
 16 17  1  0
 17 18  2  0
 17 19  1  0
 19 20  1  0
 20 21  1  0
 20 22  1  0
 20 23  1  0
 23 24  1  1
 23 25  1  0
 25 26  1  0
 25 27  1  0
 25 28  1  0
 28 29  1  0
 28 30  1  0
 30 31  1  0
 30 32  1  0
 30 33  1  0
 33 34  1  0
 33 35  1  0
 33 36  1  0
 36 37  1  0
 36 38  1  0
  2 39  1  0
 39 40  2  0
 40 41  1  0
 41 42  1  0
 41 43  2  0
 43 44  1  0
 43 45  1  0
 45 46  1  0
 45 47  2  0
 47 48  1  0
 19  5  1  0
 36 23  1  0
 47 39  1  0
 16  7  1  0
M  END
>  <UniqueID>  (37) 
433

>  <SMILES>  (37) 
O=c1c2ccc(Cl)cc2nc(/C=C/c2ccccn2)n1C[C@@H]1CCCNC1

>  <Energy>  (37) 
68.12828973817594

>  <Genealogy>  (37) 
O=c1c2ccc(Cl)cc2nc(/C=C/c2ccccn2)n1C[C@@H]1CCCNC1 (chirality)
O=c1c2ccc(Cl)cc2nc(/C=C/c2ccccn2)n1C[C@@H]1CCCNC1 (cis-trans isomerization)
O=c1c2ccc(Cl)cc2nc(/C=C/c2ccccn2)n1C[C@@H]1CCCNC1 (3D coordinates assigned)
O=c1c2ccc(Cl)cc2nc(/C=C/c2ccccn2)n1C[C@@H]1CCCNC1 (nonaromatic ring conformer: 68.12828973817594 kcal/mol)

>  <smiles>  (37) 
O=c1c2ccc(Cl)cc2nc(/C=C/c2ccccn2)n1CC1CCCNC1

>  <score_type>  (37) 
oracle

>  <origin>  (37) 
autodockgpu

>  <m_score__min__energy>  (37) 
-7.7199999999999998

>  <m_primary>  (37) 
energy

>  <meeko>  (37) 
{"free_energy": -7.61, "intermolecular_energy": -9.1, "internal_energy": -1.02, "cluster_size": 8, "cluster_id": 1, "rank_in_cluster": 4}

>  <energy>  (37) 
-5.88

>  <cluster_rmsd>  (37) 
0.67

>  <rmsd>  (37) 
271.36

>  <cluster>  (37) 
4

$$$$
MESWETRYUNDHFU-LOWQCSRCNA-N
     RDKit          3D

 48 51  0  0  0  0  0  0  0  0999 V2000
  138.7181   73.0058  222.6293 H   0  0  0  0  0  0  0  0  0  0  0  0
  139.6710   72.4610  222.7010 C   0  0  0  0  0  0  0  0  0  0  0  0
  140.6090   72.6800  221.7700 C   0  0  0  0  0  0  0  0  0  0  0  0
  141.1260   71.8237  221.3125 H   0  0  0  0  0  0  0  0  0  0  0  0
  140.9630   74.0560  221.3450 C   0  0  0  0  0  0  0  0  0  0  0  0
  140.5790   75.0780  222.1550 N   0  0  0  0  0  0  0  0  0  0  0  0
  140.8330   76.3710  221.8530 C   0  0  0  0  0  0  0  0  0  0  0  0
  140.4170   77.3870  222.7220 C   0  0  0  0  0  0  0  0  0  0  0  0
  139.8851   77.1329  223.6507 H   0  0  0  0  0  0  0  0  0  0  0  0
  140.6780   78.7260  222.4090 C   0  0  0  0  0  0  0  0  0  0  0  0
  140.1580   79.9990  223.4990 Cl  0  0  0  0  0  0  0  0  0  0  0  0
  141.3530   79.0490  221.2270 C   0  0  0  0  0  0  0  0  0  0  0  0
  141.5569   80.1017  220.9816 H   0  0  0  0  0  0  0  0  0  0  0  0
  141.7690   78.0370  220.3570 C   0  0  0  0  0  0  0  0  0  0  0  0
  142.2987   78.2957  219.4283 H   0  0  0  0  0  0  0  0  0  0  0  0
  141.5120   76.6870  220.6660 C   0  0  0  0  0  0  0  0  0  0  0  0
  141.9200   75.6310  219.8320 C   0  0  0  0  0  0  0  0  0  0  0  0
  142.5480   75.8940  218.7670 O   0  0  0  0  0  0  0  0  0  0  0  0
  141.6500   74.3240  220.1750 N   0  0  0  0  0  0  0  0  0  0  0  0
  142.1850   73.2450  219.3090 C   0  0  0  0  0  0  0  0  0  0  0  0
  141.5201   72.3713  219.3760 H   0  0  0  0  0  0  0  0  0  0  0  0
  142.2335   73.6248  218.2778 H   0  0  0  0  0  0  0  0  0  0  0  0
  143.6110   72.8240  219.7360 C   0  0  1  0  0  0  0  0  0  0  0  0
  143.5419   71.8017  220.1361 H   0  0  0  0  0  0  0  0  0  0  0  0
  144.5920   72.7860  218.5430 C   0  0  0  0  0  0  0  0  0  0  0  0
  144.6802   73.8009  218.1281 H   0  0  0  0  0  0  0  0  0  0  0  0
  144.1886   72.0771  217.8050 H   0  0  0  0  0  0  0  0  0  0  0  0
  145.9390   72.3130  218.9240 N   0  0  0  0  0  0  0  0  0  0  0  0
  145.9930   71.2820  218.7450 H   0  0  0  0  0  0  0  0  0  0  0  0
  146.3010   72.5430  220.3360 C   0  0  0  0  0  0  0  0  0  0  0  0
  147.3958   72.6140  220.4153 H   0  0  0  0  0  0  0  0  0  0  0  0
  145.9140   71.7008  220.9284 H   0  0  0  0  0  0  0  0  0  0  0  0
  145.6810   73.8310  220.8820 C   0  0  0  0  0  0  0  0  0  0  0  0
  146.0245   74.6806  220.2735 H   0  0  0  0  0  0  0  0  0  0  0  0
  145.9950   73.9520  221.9293 H   0  0  0  0  0  0  0  0  0  0  0  0
  144.1450   73.7710  220.8380 C   0  0  0  0  0  0  0  0  0  0  0  0
  143.7594   74.7835  220.6479 H   0  0  0  0  0  0  0  0  0  0  0  0
  143.8019   73.3777  221.8063 H   0  0  0  0  0  0  0  0  0  0  0  0
  139.8660   71.5160  223.8210 C   0  0  0  0  0  0  0  0  0  0  0  0
  139.2450   70.3000  223.8240 N   0  0  0  0  0  0  0  0  0  0  0  0
  139.4050   69.4130  224.8420 C   0  0  0  0  0  0  0  0  0  0  0  0
  138.8871   68.4430  224.8132 H   0  0  0  0  0  0  0  0  0  0  0  0
  140.2270   69.7340  225.9240 C   0  0  0  0  0  0  0  0  0  0  0  0
  140.3616   69.0203  226.7502 H   0  0  0  0  0  0  0  0  0  0  0  0
  140.8760   70.9690  225.9470 C   0  0  0  0  0  0  0  0  0  0  0  0
  141.5290   71.2326  226.7921 H   0  0  0  0  0  0  0  0  0  0  0  0
  140.6950   71.8700  224.8950 C   0  0  0  0  0  0  0  0  0  0  0  0
  141.1981   72.8481  224.9090 H   0  0  0  0  0  0  0  0  0  0  0  0
  1  2  1  0
  2  3  2  0
  3  4  1  0
  3  5  1  0
  5  6  2  0
  6  7  1  0
  7  8  2  0
  8  9  1  0
  8 10  1  0
 10 11  1  0
 10 12  2  0
 12 13  1  0
 12 14  1  0
 14 15  1  0
 14 16  2  0
 16 17  1  0
 17 18  2  0
 17 19  1  0
 19 20  1  0
 20 21  1  0
 20 22  1  0
 20 23  1  0
 23 24  1  1
 23 25  1  0
 25 26  1  0
 25 27  1  0
 25 28  1  0
 28 29  1  0
 28 30  1  0
 30 31  1  0
 30 32  1  0
 30 33  1  0
 33 34  1  0
 33 35  1  0
 33 36  1  0
 36 37  1  0
 36 38  1  0
  2 39  1  0
 39 40  2  0
 40 41  1  0
 41 42  1  0
 41 43  2  0
 43 44  1  0
 43 45  1  0
 45 46  1  0
 45 47  2  0
 47 48  1  0
 19  5  1  0
 36 23  1  0
 47 39  1  0
 16  7  1  0
M  END
>  <UniqueID>  (38) 
433

>  <SMILES>  (38) 
O=c1c2ccc(Cl)cc2nc(/C=C/c2ccccn2)n1C[C@@H]1CCCNC1

>  <Energy>  (38) 
68.12828973817594

>  <Genealogy>  (38) 
O=c1c2ccc(Cl)cc2nc(/C=C/c2ccccn2)n1C[C@@H]1CCCNC1 (chirality)
O=c1c2ccc(Cl)cc2nc(/C=C/c2ccccn2)n1C[C@@H]1CCCNC1 (cis-trans isomerization)
O=c1c2ccc(Cl)cc2nc(/C=C/c2ccccn2)n1C[C@@H]1CCCNC1 (3D coordinates assigned)
O=c1c2ccc(Cl)cc2nc(/C=C/c2ccccn2)n1C[C@@H]1CCCNC1 (nonaromatic ring conformer: 68.12828973817594 kcal/mol)

>  <smiles>  (38) 
O=c1c2ccc(Cl)cc2nc(/C=C/c2ccccn2)n1CC1CCCNC1

>  <score_type>  (38) 
oracle

>  <origin>  (38) 
autodockgpu

>  <m_score__min__energy>  (38) 
-7.7199999999999998

>  <m_primary>  (38) 
energy

>  <meeko>  (38) 
{"free_energy": -7.65, "intermolecular_energy": -9.14, "internal_energy": -1.02, "cluster_size": 8, "cluster_id": 1, "rank_in_cluster": 3}

>  <energy>  (38) 
-6.23

>  <cluster_rmsd>  (38) 
0.0

>  <rmsd>  (38) 
271.11

>  <cluster>  (38) 
5

$$$$
MESWETRYUNDHFU-LOWQCSRCNA-N
     RDKit          3D

 48 51  0  0  0  0  0  0  0  0999 V2000
  141.8219   71.5623  222.0019 H   0  0  0  0  0  0  0  0  0  0  0  0
  140.8800   71.8930  222.4640 C   0  0  0  0  0  0  0  0  0  0  0  0
  140.1100   72.7670  221.8020 C   0  0  0  0  0  0  0  0  0  0  0  0
  139.0690   72.5001  221.5672 H   0  0  0  0  0  0  0  0  0  0  0  0
  140.6360   74.0880  221.3800 C   0  0  0  0  0  0  0  0  0  0  0  0
  140.3460   75.1570  222.1690 N   0  0  0  0  0  0  0  0  0  0  0  0
  140.7600   76.4080  221.8670 C   0  0  0  0  0  0  0  0  0  0  0  0
  140.4360   77.4750  222.7130 C   0  0  0  0  0  0  0  0  0  0  0  0
  139.8461   77.2947  223.6238 H   0  0  0  0  0  0  0  0  0  0  0  0
  140.8620   78.7710  222.4010 C   0  0  0  0  0  0  0  0  0  0  0  0
  140.4570   80.1080  223.4630 Cl  0  0  0  0  0  0  0  0  0  0  0  0
  141.6100   79.0000  221.2420 C   0  0  0  0  0  0  0  0  0  0  0  0
  141.9438   80.0191  220.9972 H   0  0  0  0  0  0  0  0  0  0  0  0
  141.9350   77.9370  220.3930 C   0  0  0  0  0  0  0  0  0  0  0  0
  142.5227   78.1220  219.4817 H   0  0  0  0  0  0  0  0  0  0  0  0
  141.5110   76.6300  220.7030 C   0  0  0  0  0  0  0  0  0  0  0  0
  141.8210   75.5250  219.8910 C   0  0  0  0  0  0  0  0  0  0  0  0
  142.5120   75.7010  218.8470 O   0  0  0  0  0  0  0  0  0  0  0  0
  141.3890   74.2620  220.2330 N   0  0  0  0  0  0  0  0  0  0  0  0
  141.8240   73.1180  219.3940 C   0  0  0  0  0  0  0  0  0  0  0  0
  141.1955   72.2457  219.6266 H   0  0  0  0  0  0  0  0  0  0  0  0
  141.7201   73.4076  218.3379 H   0  0  0  0  0  0  0  0  0  0  0  0
  143.3050   72.7520  219.6510 C   0  0  1  0  0  0  0  0  0  0  0  0
  143.3358   71.6818  219.9035 H   0  0  0  0  0  0  0  0  0  0  0  0
  144.1840   72.9540  218.3970 C   0  0  0  0  0  0  0  0  0  0  0  0
  144.1714   74.0203  218.1272 H   0  0  0  0  0  0  0  0  0  0  0  0
  143.7676   72.3251  217.5963 H   0  0  0  0  0  0  0  0  0  0  0  0
  145.5850   72.5370  218.6060 N   0  0  0  0  0  0  0  0  0  0  0  0
  145.6910   71.5470  218.2770 H   0  0  0  0  0  0  0  0  0  0  0  0
  146.0470   72.5940  220.0060 C   0  0  0  0  0  0  0  0  0  0  0  0
  147.1379   72.7349  220.0150 H   0  0  0  0  0  0  0  0  0  0  0  0
  145.7648   71.6508  220.4967 H   0  0  0  0  0  0  0  0  0  0  0  0
  145.3930   73.7440  220.7770 C   0  0  0  0  0  0  0  0  0  0  0  0
  145.6291   74.6934  220.2742 H   0  0  0  0  0  0  0  0  0  0  0  0
  145.7849   73.7423  221.8048 H   0  0  0  0  0  0  0  0  0  0  0  0
  143.8660   73.5740  220.8370 C   0  0  0  0  0  0  0  0  0  0  0  0
  143.4010   74.5708  220.8245 H   0  0  0  0  0  0  0  0  0  0  0  0
  143.6307   73.0245  221.7604 H   0  0  0  0  0  0  0  0  0  0  0  0
  140.5130   71.3560  223.7910 C   0  0  0  0  0  0  0  0  0  0  0  0
  141.0780   71.8570  224.9280 N   0  0  0  0  0  0  0  0  0  0  0  0
  140.7610   71.3780  226.1600 C   0  0  0  0  0  0  0  0  0  0  0  0
  141.2391   71.8030  227.0549 H   0  0  0  0  0  0  0  0  0  0  0  0
  139.8290   70.3470  226.2900 C   0  0  0  0  0  0  0  0  0  0  0  0
  139.5672   69.9565  227.2845 H   0  0  0  0  0  0  0  0  0  0  0  0
  139.2330   69.8170  225.1450 C   0  0  0  0  0  0  0  0  0  0  0  0
  138.4939   69.0071  225.2334 H   0  0  0  0  0  0  0  0  0  0  0  0
  139.5760   70.3160  223.8870 C   0  0  0  0  0  0  0  0  0  0  0  0
  139.1160   69.8977  222.9796 H   0  0  0  0  0  0  0  0  0  0  0  0
  1  2  1  0
  2  3  2  0
  3  4  1  0
  3  5  1  0
  5  6  2  0
  6  7  1  0
  7  8  2  0
  8  9  1  0
  8 10  1  0
 10 11  1  0
 10 12  2  0
 12 13  1  0
 12 14  1  0
 14 15  1  0
 14 16  2  0
 16 17  1  0
 17 18  2  0
 17 19  1  0
 19 20  1  0
 20 21  1  0
 20 22  1  0
 20 23  1  0
 23 24  1  1
 23 25  1  0
 25 26  1  0
 25 27  1  0
 25 28  1  0
 28 29  1  0
 28 30  1  0
 30 31  1  0
 30 32  1  0
 30 33  1  0
 33 34  1  0
 33 35  1  0
 33 36  1  0
 36 37  1  0
 36 38  1  0
  2 39  1  0
 39 40  2  0
 40 41  1  0
 41 42  1  0
 41 43  2  0
 43 44  1  0
 43 45  1  0
 45 46  1  0
 45 47  2  0
 47 48  1  0
 19  5  1  0
 36 23  1  0
 47 39  1  0
 16  7  1  0
M  END
>  <UniqueID>  (39) 
433

>  <SMILES>  (39) 
O=c1c2ccc(Cl)cc2nc(/C=C/c2ccccn2)n1C[C@@H]1CCCNC1

>  <Energy>  (39) 
68.12828973817594

>  <Genealogy>  (39) 
O=c1c2ccc(Cl)cc2nc(/C=C/c2ccccn2)n1C[C@@H]1CCCNC1 (chirality)
O=c1c2ccc(Cl)cc2nc(/C=C/c2ccccn2)n1C[C@@H]1CCCNC1 (cis-trans isomerization)
O=c1c2ccc(Cl)cc2nc(/C=C/c2ccccn2)n1C[C@@H]1CCCNC1 (3D coordinates assigned)
O=c1c2ccc(Cl)cc2nc(/C=C/c2ccccn2)n1C[C@@H]1CCCNC1 (nonaromatic ring conformer: 68.12828973817594 kcal/mol)

>  <smiles>  (39) 
O=c1c2ccc(Cl)cc2nc(/C=C/c2ccccn2)n1CC1CCCNC1

>  <score_type>  (39) 
oracle

>  <origin>  (39) 
autodockgpu

>  <m_score__min__energy>  (39) 
-7.7199999999999998

>  <m_primary>  (39) 
energy

>  <meeko>  (39) 
{"free_energy": -7.56, "intermolecular_energy": -9.05, "internal_energy": -1.07, "cluster_size": 8, "cluster_id": 1, "rank_in_cluster": 5}

>  <energy>  (39) 
-6.17

>  <cluster_rmsd>  (39) 
0.25

>  <rmsd>  (39) 
271.0

>  <cluster>  (39) 
5

$$$$
MESWETRYUNDHFU-LOWQCSRCNA-N
     RDKit          3D

 48 51  0  0  0  0  0  0  0  0999 V2000
  143.9092   79.9897  222.8897 H   0  0  0  0  0  0  0  0  0  0  0  0
  142.8230   79.9260  222.7280 C   0  0  0  0  0  0  0  0  0  0  0  0
  142.1210   79.0190  223.4210 C   0  0  0  0  0  0  0  0  0  0  0  0
  142.6527   78.2870  224.0467 H   0  0  0  0  0  0  0  0  0  0  0  0
  140.6390   78.9850  223.3590 C   0  0  0  0  0  0  0  0  0  0  0  0
  139.9640   79.9840  223.9860 N   0  0  0  0  0  0  0  0  0  0  0  0
  138.6140   80.0380  224.0080 C   0  0  0  0  0  0  0  0  0  0  0  0
  137.9660   81.0890  224.6680 C   0  0  0  0  0  0  0  0  0  0  0  0
  138.5564   81.8708  225.1682 H   0  0  0  0  0  0  0  0  0  0  0  0
  136.5680   81.1460  224.6920 C   0  0  0  0  0  0  0  0  0  0  0  0
  135.7560   82.4640  225.5170 Cl  0  0  0  0  0  0  0  0  0  0  0  0
  135.8170   80.1490  224.0590 C   0  0  0  0  0  0  0  0  0  0  0  0
  134.7181   80.1927  224.0805 H   0  0  0  0  0  0  0  0  0  0  0  0
  136.4610   79.0970  223.3990 C   0  0  0  0  0  0  0  0  0  0  0  0
  135.8672   78.3155  222.9023 H   0  0  0  0  0  0  0  0  0  0  0  0
  137.8680   79.0360  223.3690 C   0  0  0  0  0  0  0  0  0  0  0  0
  138.5640   78.0070  222.7100 C   0  0  0  0  0  0  0  0  0  0  0  0
  137.9100   77.1040  222.1140 O   0  0  0  0  0  0  0  0  0  0  0  0
  139.9410   77.9870  222.7030 N   0  0  0  0  0  0  0  0  0  0  0  0
  140.6260   76.9350  221.9130 C   0  0  0  0  0  0  0  0  0  0  0  0
  141.3374   76.4065  222.5646 H   0  0  0  0  0  0  0  0  0  0  0  0
  139.8615   76.2467  221.5234 H   0  0  0  0  0  0  0  0  0  0  0  0
  141.3950   77.5310  220.7110 C   0  0  1  0  0  0  0  0  0  0  0  0
  141.9949   78.3700  221.0933 H   0  0  0  0  0  0  0  0  0  0  0  0
  142.3740   76.5160  220.0800 C   0  0  0  0  0  0  0  0  0  0  0  0
  141.7950   75.6678  219.6860 H   0  0  0  0  0  0  0  0  0  0  0  0
  143.0763   76.2011  220.8659 H   0  0  0  0  0  0  0  0  0  0  0  0
  143.1700   77.0960  218.9790 N   0  0  0  0  0  0  0  0  0  0  0  0
  144.0830   77.4320  219.3690 H   0  0  0  0  0  0  0  0  0  0  0  0
  142.5330   78.2310  218.2840 C   0  0  0  0  0  0  0  0  0  0  0  0
  142.9219   78.2821  217.2563 H   0  0  0  0  0  0  0  0  0  0  0  0
  142.7682   79.1484  218.8434 H   0  0  0  0  0  0  0  0  0  0  0  0
  141.0100   78.0860  218.2300 C   0  0  0  0  0  0  0  0  0  0  0  0
  140.7569   77.1504  217.7097 H   0  0  0  0  0  0  0  0  0  0  0  0
  140.5964   78.9525  217.6931 H   0  0  0  0  0  0  0  0  0  0  0  0
  140.4040   78.0540  219.6430 C   0  0  0  0  0  0  0  0  0  0  0  0
  139.5213   77.3977  219.6317 H   0  0  0  0  0  0  0  0  0  0  0  0
  140.1418   79.0875  219.9135 H   0  0  0  0  0  0  0  0  0  0  0  0
  142.1950   80.8440  221.7550 C   0  0  0  0  0  0  0  0  0  0  0  0
  142.1890   80.5510  220.4220 N   0  0  0  0  0  0  0  0  0  0  0  0
  141.6210   81.3800  219.5050 C   0  0  0  0  0  0  0  0  0  0  0  0
  141.6375   81.1138  218.4378 H   0  0  0  0  0  0  0  0  0  0  0  0
  141.0170   82.5690  219.9190 C   0  0  0  0  0  0  0  0  0  0  0  0
  140.5547   83.2431  219.1829 H   0  0  0  0  0  0  0  0  0  0  0  0
  141.0060   82.8930  221.2760 C   0  0  0  0  0  0  0  0  0  0  0  0
  140.5301   83.8246  221.6160 H   0  0  0  0  0  0  0  0  0  0  0  0
  141.6000   82.0330  222.2020 C   0  0  0  0  0  0  0  0  0  0  0  0
  141.6013   82.2857  223.2726 H   0  0  0  0  0  0  0  0  0  0  0  0
  1  2  1  0
  2  3  2  0
  3  4  1  0
  3  5  1  0
  5  6  2  0
  6  7  1  0
  7  8  2  0
  8  9  1  0
  8 10  1  0
 10 11  1  0
 10 12  2  0
 12 13  1  0
 12 14  1  0
 14 15  1  0
 14 16  2  0
 16 17  1  0
 17 18  2  0
 17 19  1  0
 19 20  1  0
 20 21  1  0
 20 22  1  0
 20 23  1  0
 23 24  1  1
 23 25  1  0
 25 26  1  0
 25 27  1  0
 25 28  1  0
 28 29  1  0
 28 30  1  0
 30 31  1  0
 30 32  1  0
 30 33  1  0
 33 34  1  0
 33 35  1  0
 33 36  1  0
 36 37  1  0
 36 38  1  0
  2 39  1  0
 39 40  2  0
 40 41  1  0
 41 42  1  0
 41 43  2  0
 43 44  1  0
 43 45  1  0
 45 46  1  0
 45 47  2  0
 47 48  1  0
 19  5  1  0
 36 23  1  0
 47 39  1  0
 16  7  1  0
M  END
>  <UniqueID>  (40) 
433

>  <SMILES>  (40) 
O=c1c2ccc(Cl)cc2nc(/C=C/c2ccccn2)n1C[C@@H]1CCCNC1

>  <Energy>  (40) 
68.12828973817594

>  <Genealogy>  (40) 
O=c1c2ccc(Cl)cc2nc(/C=C/c2ccccn2)n1C[C@@H]1CCCNC1 (chirality)
O=c1c2ccc(Cl)cc2nc(/C=C/c2ccccn2)n1C[C@@H]1CCCNC1 (cis-trans isomerization)
O=c1c2ccc(Cl)cc2nc(/C=C/c2ccccn2)n1C[C@@H]1CCCNC1 (3D coordinates assigned)
O=c1c2ccc(Cl)cc2nc(/C=C/c2ccccn2)n1C[C@@H]1CCCNC1 (nonaromatic ring conformer: 68.12828973817594 kcal/mol)

>  <smiles>  (40) 
O=c1c2ccc(Cl)cc2nc(/C=C/c2ccccn2)n1CC1CCCNC1

>  <score_type>  (40) 
oracle

>  <origin>  (40) 
autodockgpu

>  <m_score__min__energy>  (40) 
-7.7199999999999998

>  <m_primary>  (40) 
energy

>  <meeko>  (40) 
{"free_energy": -6.48, "intermolecular_energy": -7.97, "internal_energy": -1.99, "cluster_size": 4, "cluster_id": 4, "rank_in_cluster": 1}

>  <energy>  (40) 
-6.12

>  <cluster_rmsd>  (40) 
0.31

>  <rmsd>  (40) 
270.93

>  <cluster>  (40) 
5

$$$$
MESWETRYUNDHFU-MWCBREBHNA-O
     RDKit          3D

 49 52  0  0  0  0  0  0  0  0999 V2000
  139.8219   82.5027  220.9341 H   0  0  0  0  0  0  0  0  0  0  0  0
  140.0490   81.4350  220.7980 C   0  0  0  0  0  0  0  0  0  0  0  0
  139.6280   80.8250  219.6830 C   0  0  0  0  0  0  0  0  0  0  0  0
  138.6038   81.0075  219.3256 H   0  0  0  0  0  0  0  0  0  0  0  0
  140.5110   79.9070  218.9160 C   0  0  0  0  0  0  0  0  0  0  0  0
  141.0860   78.8760  219.5910 N   0  0  0  0  0  0  0  0  0  0  0  0
  141.9220   78.0000  218.9920 C   0  0  0  0  0  0  0  0  0  0  0  0
  142.4820   76.9530  219.7310 C   0  0  0  0  0  0  0  0  0  0  0  0
  142.2375   76.8415  220.7977 H   0  0  0  0  0  0  0  0  0  0  0  0
  143.3520   76.0480  219.1160 C   0  0  0  0  0  0  0  0  0  0  0  0
  144.0580   74.7370  220.0440 Cl  0  0  0  0  0  0  0  0  0  0  0  0
  143.6620   76.1890  217.7600 C   0  0  0  0  0  0  0  0  0  0  0  0
  144.3490   75.4783  217.2774 H   0  0  0  0  0  0  0  0  0  0  0  0
  143.1010   77.2310  217.0160 C   0  0  0  0  0  0  0  0  0  0  0  0
  143.3435   77.3351  215.9481 H   0  0  0  0  0  0  0  0  0  0  0  0
  142.2250   78.1490  217.6310 C   0  0  0  0  0  0  0  0  0  0  0  0
  141.6370   79.2140  216.9310 C   0  0  0  0  0  0  0  0  0  0  0  0
  141.9040   79.3650  215.7020 O   0  0  0  0  0  0  0  0  0  0  0  0
  140.7730   80.0800  217.5700 N   0  0  0  0  0  0  0  0  0  0  0  0
  140.1380   81.1770  216.7960 C   0  0  0  0  0  0  0  0  0  0  0  0
  139.8269   80.7848  215.8166 H   0  0  0  0  0  0  0  0  0  0  0  0
  139.2766   81.5422  217.3745 H   0  0  0  0  0  0  0  0  0  0  0  0
  141.0990   82.3710  216.5720 C   0  0  1  0  0  0  0  0  0  0  0  0
  140.4860   83.2647  216.3834 H   0  0  0  0  0  0  0  0  0  0  0  0
  141.9510   82.6030  217.8440 C   0  0  0  0  0  0  0  0  0  0  0  0
  141.3576   83.1708  218.5757 H   0  0  0  0  0  0  0  0  0  0  0  0
  142.2381   81.6245  218.2565 H   0  0  0  0  0  0  0  0  0  0  0  0
  143.2220   83.3850  217.5170 C   0  0  0  0  0  0  0  0  0  0  0  0
  142.9422   84.3695  217.1140 H   0  0  0  0  0  0  0  0  0  0  0  0
  143.8084   83.4925  218.4414 H   0  0  0  0  0  0  0  0  0  0  0  0
  144.0900   82.6450  216.4760 C   0  0  0  0  0  0  0  0  0  0  0  0
  144.5442   83.3903  215.8064 H   0  0  0  0  0  0  0  0  0  0  0  0
  144.8473   82.0714  217.0305 H   0  0  0  0  0  0  0  0  0  0  0  0
  143.3230   81.6820  215.6560 N   0  0  0  0  0  0  0  0  0  0  0  0
  143.2290   80.7720  216.1670 H   0  0  0  0  0  0  0  0  0  0  0  0
  143.8520   81.4990  214.7710 H   0  0  0  0  0  0  0  0  0  0  0  0
  141.9910   82.1950  215.3110 C   0  0  0  0  0  0  0  0  0  0  0  0
  142.1021   83.1700  214.8139 H   0  0  0  0  0  0  0  0  0  0  0  0
  141.5045   81.4667  214.6455 H   0  0  0  0  0  0  0  0  0  0  0  0
  140.8060   80.7310  221.8520 C   0  0  0  0  0  0  0  0  0  0  0  0
  140.1560   79.9890  222.7940 N   0  0  0  0  0  0  0  0  0  0  0  0
  140.8240   79.3480  223.7900 C   0  0  0  0  0  0  0  0  0  0  0  0
  140.2677   78.7576  224.5329 H   0  0  0  0  0  0  0  0  0  0  0  0
  142.2130   79.4380  223.8710 C   0  0  0  0  0  0  0  0  0  0  0  0
  142.7571   78.9289  224.6802 H   0  0  0  0  0  0  0  0  0  0  0  0
  142.9060   80.1820  222.9130 C   0  0  0  0  0  0  0  0  0  0  0  0
  144.0039   80.2403  222.9494 H   0  0  0  0  0  0  0  0  0  0  0  0
  142.2040   80.8510  221.9100 C   0  0  0  0  0  0  0  0  0  0  0  0
  142.7400   81.4661  221.1722 H   0  0  0  0  0  0  0  0  0  0  0  0
  1  2  1  0
  2  3  2  0
  3  4  1  0
  3  5  1  0
  5  6  2  0
  6  7  1  0
  7  8  2  0
  8  9  1  0
  8 10  1  0
 10 11  1  0
 10 12  2  0
 12 13  1  0
 12 14  1  0
 14 15  1  0
 14 16  2  0
 16 17  1  0
 17 18  2  0
 17 19  1  0
 19 20  1  0
 20 21  1  0
 20 22  1  0
 20 23  1  0
 23 24  1  6
 23 25  1  0
 25 26  1  0
 25 27  1  0
 25 28  1  0
 28 29  1  0
 28 30  1  0
 28 31  1  0
 31 32  1  0
 31 33  1  0
 31 34  1  0
 34 35  1  0
 34 36  1  0
 34 37  1  0
 37 38  1  0
 37 39  1  0
  2 40  1  0
 40 41  2  0
 41 42  1  0
 42 43  1  0
 42 44  2  0
 44 45  1  0
 44 46  1  0
 46 47  1  0
 46 48  2  0
 48 49  1  0
 19  5  1  0
 37 23  1  0
 48 40  1  0
 16  7  1  0
M  CHG  1  34   1
M  END
>  <UniqueID>  (41) 
434

>  <SMILES>  (41) 
O=c1c2ccc(Cl)cc2nc(/C=C/c2ccccn2)n1C[C@H]1CCC[NH2+]C1

>  <Energy>  (41) 
68.19965088154082

>  <Genealogy>  (41) 
O=c1c2ccc(Cl)cc2nc(/C=C/c2ccccn2)n1CC1CCC[NH2+]C1 (protonated)
O=c1c2ccc(Cl)cc2nc(/C=C/c2ccccn2)n1C[C@H]1CCC[NH2+]C1 (chirality)
O=c1c2ccc(Cl)cc2nc(/C=C/c2ccccn2)n1C[C@H]1CCC[NH2+]C1 (cis-trans isomerization)
O=c1c2ccc(Cl)cc2nc(/C=C/c2ccccn2)n1C[C@H]1CCC[NH2+]C1 (3D coordinates assigned)
O=c1c2ccc(Cl)cc2nc(/C=C/c2ccccn2)n1C[C@H]1CCC[NH2+]C1 (nonaromatic ring conformer: 68.19965088154082 kcal/mol)

>  <smiles>  (41) 
O=c1c2ccc(Cl)cc2nc(/C=C/c2ccccn2)n1CC1CCCNC1

>  <score_type>  (41) 
oracle

>  <origin>  (41) 
autodockgpu

>  <m_score__min__energy>  (41) 
-7.1100000000000003

>  <m_primary>  (41) 
energy

>  <meeko>  (41) 
{"free_energy": -6.84, "intermolecular_energy": -8.33, "internal_energy": -2.27, "cluster_size": 13, "cluster_id": 1, "rank_in_cluster": 13}

>  <energy>  (41) 
-7.11

>  <cluster_rmsd>  (41) 
0.0

>  <rmsd>  (41) 
271.63

>  <cluster>  (41) 
1

$$$$
MESWETRYUNDHFU-MWCBREBHNA-O
     RDKit          3D

 49 52  0  0  0  0  0  0  0  0999 V2000
  140.8677   82.9941  221.1337 H   0  0  0  0  0  0  0  0  0  0  0  0
  140.7470   81.9100  220.9920 C   0  0  0  0  0  0  0  0  0  0  0  0
  140.2350   81.4650  219.8380 C   0  0  0  0  0  0  0  0  0  0  0  0
  139.2801   81.8776  219.4803 H   0  0  0  0  0  0  0  0  0  0  0  0
  140.9250   80.4270  219.0280 C   0  0  0  0  0  0  0  0  0  0  0  0
  141.4440   79.3560  219.6860 N   0  0  0  0  0  0  0  0  0  0  0  0
  142.1090   78.3700  219.0460 C   0  0  0  0  0  0  0  0  0  0  0  0
  142.6180   77.2870  219.7710 C   0  0  0  0  0  0  0  0  0  0  0  0
  142.4720   77.2373  220.8601 H   0  0  0  0  0  0  0  0  0  0  0  0
  143.3120   76.2680  219.1120 C   0  0  0  0  0  0  0  0  0  0  0  0
  143.9550   74.9120  220.0210 Cl  0  0  0  0  0  0  0  0  0  0  0  0
  143.4970   76.3300  217.7280 C   0  0  0  0  0  0  0  0  0  0  0  0
  144.0458   75.5289  217.2112 H   0  0  0  0  0  0  0  0  0  0  0  0
  142.9860   77.4080  216.9990 C   0  0  0  0  0  0  0  0  0  0  0  0
  143.1290   77.4502  215.9091 H   0  0  0  0  0  0  0  0  0  0  0  0
  142.2880   78.4410  217.6570 C   0  0  0  0  0  0  0  0  0  0  0  0
  141.7580   79.5460  216.9730 C   0  0  0  0  0  0  0  0  0  0  0  0
  141.9140   79.6270  215.7190 O   0  0  0  0  0  0  0  0  0  0  0  0
  141.0680   80.5270  217.6560 N   0  0  0  0  0  0  0  0  0  0  0  0
  140.4860   81.6670  216.9020 C   0  0  0  0  0  0  0  0  0  0  0  0
  140.0982   81.2954  215.9421 H   0  0  0  0  0  0  0  0  0  0  0  0
  139.6847   82.1035  217.5163 H   0  0  0  0  0  0  0  0  0  0  0  0
  141.5280   82.7780  216.6220 C   0  0  1  0  0  0  0  0  0  0  0  0
  141.0089   83.7463  216.6764 H   0  0  0  0  0  0  0  0  0  0  0  0
  142.6380   82.7390  217.7010 C   0  0  0  0  0  0  0  0  0  0  0  0
  142.2790   83.2531  218.6048 H   0  0  0  0  0  0  0  0  0  0  0  0
  142.8736   81.6877  217.9229 H   0  0  0  0  0  0  0  0  0  0  0  0
  143.9090   83.4280  217.2060 C   0  0  0  0  0  0  0  0  0  0  0  0
  143.6834   84.4831  216.9917 H   0  0  0  0  0  0  0  0  0  0  0  0
  144.6755   83.3431  217.9903 H   0  0  0  0  0  0  0  0  0  0  0  0
  144.4520   82.7600  215.9230 C   0  0  0  0  0  0  0  0  0  0  0  0
  144.8569   83.5434  215.2655 H   0  0  0  0  0  0  0  0  0  0  0  0
  145.2239   82.0395  216.2313 H   0  0  0  0  0  0  0  0  0  0  0  0
  143.4210   82.0070  215.1770 N   0  0  0  0  0  0  0  0  0  0  0  0
  143.3140   81.0470  215.5850 H   0  0  0  0  0  0  0  0  0  0  0  0
  143.7350   81.8990  214.1840 H   0  0  0  0  0  0  0  0  0  0  0  0
  142.1230   82.6950  215.1880 C   0  0  0  0  0  0  0  0  0  0  0  0
  142.2568   83.7148  214.7981 H   0  0  0  0  0  0  0  0  0  0  0  0
  141.4255   82.1211  214.5602 H   0  0  0  0  0  0  0  0  0  0  0  0
  141.1560   81.0020  222.0820 C   0  0  0  0  0  0  0  0  0  0  0  0
  140.2200   80.3100  222.7950 N   0  0  0  0  0  0  0  0  0  0  0  0
  140.5640   79.4850  223.8190 C   0  0  0  0  0  0  0  0  0  0  0  0
  139.7838   78.9411  224.3717 H   0  0  0  0  0  0  0  0  0  0  0  0
  141.9040   79.3270  224.1700 C   0  0  0  0  0  0  0  0  0  0  0  0
  142.1863   78.6677  225.0041 H   0  0  0  0  0  0  0  0  0  0  0  0
  142.8840   80.0150  223.4510 C   0  0  0  0  0  0  0  0  0  0  0  0
  143.9468   79.8798  223.7004 H   0  0  0  0  0  0  0  0  0  0  0  0
  142.5130   80.8740  222.4160 C   0  0  0  0  0  0  0  0  0  0  0  0
  143.2764   81.4451  221.8674 H   0  0  0  0  0  0  0  0  0  0  0  0
  1  2  1  0
  2  3  2  0
  3  4  1  0
  3  5  1  0
  5  6  2  0
  6  7  1  0
  7  8  2  0
  8  9  1  0
  8 10  1  0
 10 11  1  0
 10 12  2  0
 12 13  1  0
 12 14  1  0
 14 15  1  0
 14 16  2  0
 16 17  1  0
 17 18  2  0
 17 19  1  0
 19 20  1  0
 20 21  1  0
 20 22  1  0
 20 23  1  0
 23 24  1  6
 23 25  1  0
 25 26  1  0
 25 27  1  0
 25 28  1  0
 28 29  1  0
 28 30  1  0
 28 31  1  0
 31 32  1  0
 31 33  1  0
 31 34  1  0
 34 35  1  0
 34 36  1  0
 34 37  1  0
 37 38  1  0
 37 39  1  0
  2 40  1  0
 40 41  2  0
 41 42  1  0
 42 43  1  0
 42 44  2  0
 44 45  1  0
 44 46  1  0
 46 47  1  0
 46 48  2  0
 48 49  1  0
 19  5  1  0
 37 23  1  0
 48 40  1  0
 16  7  1  0
M  CHG  1  34   1
M  END
>  <UniqueID>  (42) 
434

>  <SMILES>  (42) 
O=c1c2ccc(Cl)cc2nc(/C=C/c2ccccn2)n1C[C@H]1CCC[NH2+]C1

>  <Energy>  (42) 
68.19965088154082

>  <Genealogy>  (42) 
O=c1c2ccc(Cl)cc2nc(/C=C/c2ccccn2)n1CC1CCC[NH2+]C1 (protonated)
O=c1c2ccc(Cl)cc2nc(/C=C/c2ccccn2)n1C[C@H]1CCC[NH2+]C1 (chirality)
O=c1c2ccc(Cl)cc2nc(/C=C/c2ccccn2)n1C[C@H]1CCC[NH2+]C1 (cis-trans isomerization)
O=c1c2ccc(Cl)cc2nc(/C=C/c2ccccn2)n1C[C@H]1CCC[NH2+]C1 (3D coordinates assigned)
O=c1c2ccc(Cl)cc2nc(/C=C/c2ccccn2)n1C[C@H]1CCC[NH2+]C1 (nonaromatic ring conformer: 68.19965088154082 kcal/mol)

>  <smiles>  (42) 
O=c1c2ccc(Cl)cc2nc(/C=C/c2ccccn2)n1CC1CCCNC1

>  <score_type>  (42) 
oracle

>  <origin>  (42) 
autodockgpu

>  <m_score__min__energy>  (42) 
-7.1100000000000003

>  <m_primary>  (42) 
energy

>  <meeko>  (42) 
{"free_energy": -7.02, "intermolecular_energy": -8.52, "internal_energy": -2.22, "cluster_size": 13, "cluster_id": 1, "rank_in_cluster": 9}

>  <energy>  (42) 
-7.07

>  <cluster_rmsd>  (42) 
0.59

>  <rmsd>  (42) 
271.57

>  <cluster>  (42) 
1

$$$$
MESWETRYUNDHFU-MWCBREBHNA-O
     RDKit          3D

 49 52  0  0  0  0  0  0  0  0999 V2000
  143.7923   79.9272  223.0539 H   0  0  0  0  0  0  0  0  0  0  0  0
  142.7140   79.8750  222.8430 C   0  0  0  0  0  0  0  0  0  0  0  0
  141.9780   78.9530  223.4770 C   0  0  0  0  0  0  0  0  0  0  0  0
  142.4806   78.2109  224.1147 H   0  0  0  0  0  0  0  0  0  0  0  0
  140.4980   78.9080  223.3400 C   0  0  0  0  0  0  0  0  0  0  0  0
  139.7900   79.9700  223.8070 N   0  0  0  0  0  0  0  0  0  0  0  0
  138.4410   80.0170  223.7500 C   0  0  0  0  0  0  0  0  0  0  0  0
  137.7610   81.1370  224.2400 C   0  0  0  0  0  0  0  0  0  0  0  0
  138.3251   81.9796  224.6664 H   0  0  0  0  0  0  0  0  0  0  0  0
  136.3640   81.1860  224.1880 C   0  0  0  0  0  0  0  0  0  0  0  0
  135.5100   82.5880  224.8070 Cl  0  0  0  0  0  0  0  0  0  0  0  0
  135.6470   80.1160  223.6450 C   0  0  0  0  0  0  0  0  0  0  0  0
  134.5483   80.1546  223.6071 H   0  0  0  0  0  0  0  0  0  0  0  0
  136.3230   78.9970  223.1500 C   0  0  0  0  0  0  0  0  0  0  0  0
  135.7551   78.1595  222.7187 H   0  0  0  0  0  0  0  0  0  0  0  0
  137.7300   78.9390  223.2020 C   0  0  0  0  0  0  0  0  0  0  0  0
  138.4570   77.8390  222.7210 C   0  0  0  0  0  0  0  0  0  0  0  0
  137.8310   76.8560  222.2270 O   0  0  0  0  0  0  0  0  0  0  0  0
  139.8360   77.8310  222.7780 N   0  0  0  0  0  0  0  0  0  0  0  0
  140.5810   76.6690  222.2300 C   0  0  0  0  0  0  0  0  0  0  0  0
  141.6221   76.7184  222.5817 H   0  0  0  0  0  0  0  0  0  0  0  0
  140.0817   75.7536  222.5803 H   0  0  0  0  0  0  0  0  0  0  0  0
  140.5790   76.6470  220.6820 C   0  0  1  0  0  0  0  0  0  0  0  0
  140.0145   75.7596  220.3596 H   0  0  0  0  0  0  0  0  0  0  0  0
  139.8760   77.9160  220.1410 C   0  0  0  0  0  0  0  0  0  0  0  0
  138.7867   77.7681  220.1804 H   0  0  0  0  0  0  0  0  0  0  0  0
  140.1717   78.7727  220.7643 H   0  0  0  0  0  0  0  0  0  0  0  0
  140.2900   78.1990  218.6970 C   0  0  0  0  0  0  0  0  0  0  0  0
  139.9879   77.3504  218.0656 H   0  0  0  0  0  0  0  0  0  0  0  0
  139.7944   79.1253  218.3709 H   0  0  0  0  0  0  0  0  0  0  0  0
  141.8170   78.3970  218.5750 C   0  0  0  0  0  0  0  0  0  0  0  0
  142.1527   77.9499  217.6277 H   0  0  0  0  0  0  0  0  0  0  0  0
  142.0099   79.4793  218.6129 H   0  0  0  0  0  0  0  0  0  0  0  0
  142.5760   77.7770  219.6820 N   0  0  0  0  0  0  0  0  0  0  0  0
  142.5970   78.4240  220.5070 H   0  0  0  0  0  0  0  0  0  0  0  0
  143.5630   77.6260  219.3690 H   0  0  0  0  0  0  0  0  0  0  0  0
  142.0040   76.4850  220.0830 C   0  0  0  0  0  0  0  0  0  0  0  0
  141.9472   75.8312  219.2002 H   0  0  0  0  0  0  0  0  0  0  0  0
  142.6530   76.0485  220.8565 H   0  0  0  0  0  0  0  0  0  0  0  0
  142.1340   80.8240  221.8720 C   0  0  0  0  0  0  0  0  0  0  0  0
  142.1560   80.5490  220.5360 N   0  0  0  0  0  0  0  0  0  0  0  0
  141.6520   81.4130  219.6170 C   0  0  0  0  0  0  0  0  0  0  0  0
  141.6870   81.1591  218.5473 H   0  0  0  0  0  0  0  0  0  0  0  0
  141.0900   82.6220  220.0280 C   0  0  0  0  0  0  0  0  0  0  0  0
  140.6876   83.3286  219.2872 H   0  0  0  0  0  0  0  0  0  0  0  0
  141.0440   82.9250  221.3900 C   0  0  0  0  0  0  0  0  0  0  0  0
  140.5818   83.8634  221.7302 H   0  0  0  0  0  0  0  0  0  0  0  0
  141.5850   82.0360  222.3190 C   0  0  0  0  0  0  0  0  0  0  0  0
  141.5814   82.2824  223.3911 H   0  0  0  0  0  0  0  0  0  0  0  0
  1  2  1  0
  2  3  2  0
  3  4  1  0
  3  5  1  0
  5  6  2  0
  6  7  1  0
  7  8  2  0
  8  9  1  0
  8 10  1  0
 10 11  1  0
 10 12  2  0
 12 13  1  0
 12 14  1  0
 14 15  1  0
 14 16  2  0
 16 17  1  0
 17 18  2  0
 17 19  1  0
 19 20  1  0
 20 21  1  0
 20 22  1  0
 20 23  1  0
 23 24  1  1
 23 25  1  0
 25 26  1  0
 25 27  1  0
 25 28  1  0
 28 29  1  0
 28 30  1  0
 28 31  1  0
 31 32  1  0
 31 33  1  0
 31 34  1  0
 34 35  1  0
 34 36  1  0
 34 37  1  0
 37 38  1  0
 37 39  1  0
  2 40  1  0
 40 41  2  0
 41 42  1  0
 42 43  1  0
 42 44  2  0
 44 45  1  0
 44 46  1  0
 46 47  1  0
 46 48  2  0
 48 49  1  0
 19  5  1  0
 37 23  1  0
 48 40  1  0
 16  7  1  0
M  CHG  1  34   1
M  END
>  <UniqueID>  (43) 
434

>  <SMILES>  (43) 
O=c1c2ccc(Cl)cc2nc(/C=C/c2ccccn2)n1C[C@H]1CCC[NH2+]C1

>  <Energy>  (43) 
68.19965088154082

>  <Genealogy>  (43) 
O=c1c2ccc(Cl)cc2nc(/C=C/c2ccccn2)n1CC1CCC[NH2+]C1 (protonated)
O=c1c2ccc(Cl)cc2nc(/C=C/c2ccccn2)n1C[C@H]1CCC[NH2+]C1 (chirality)
O=c1c2ccc(Cl)cc2nc(/C=C/c2ccccn2)n1C[C@H]1CCC[NH2+]C1 (cis-trans isomerization)
O=c1c2ccc(Cl)cc2nc(/C=C/c2ccccn2)n1C[C@H]1CCC[NH2+]C1 (3D coordinates assigned)
O=c1c2ccc(Cl)cc2nc(/C=C/c2ccccn2)n1C[C@H]1CCC[NH2+]C1 (nonaromatic ring conformer: 68.19965088154082 kcal/mol)

>  <smiles>  (43) 
O=c1c2ccc(Cl)cc2nc(/C=C/c2ccccn2)n1CC1CCCNC1

>  <score_type>  (43) 
oracle

>  <origin>  (43) 
autodockgpu

>  <m_score__min__energy>  (43) 
-7.1100000000000003

>  <m_primary>  (43) 
energy

>  <meeko>  (43) 
{"free_energy": -6.61, "intermolecular_energy": -8.1, "internal_energy": -2.48, "cluster_size": 6, "cluster_id": 3, "rank_in_cluster": 2}

>  <energy>  (43) 
-7.05

>  <cluster_rmsd>  (43) 
0.6

>  <rmsd>  (43) 
271.56

>  <cluster>  (43) 
1

$$$$
MESWETRYUNDHFU-MWCBREBHNA-O
     RDKit          3D

 49 52  0  0  0  0  0  0  0  0999 V2000
  143.8048   79.9153  223.0711 H   0  0  0  0  0  0  0  0  0  0  0  0
  142.7310   79.8480  222.8420 C   0  0  0  0  0  0  0  0  0  0  0  0
  141.9970   78.9180  223.4670 C   0  0  0  0  0  0  0  0  0  0  0  0
  142.5008   78.1688  224.0954 H   0  0  0  0  0  0  0  0  0  0  0  0
  140.5170   78.8750  223.3310 C   0  0  0  0  0  0  0  0  0  0  0  0
  139.8110   79.9440  223.7860 N   0  0  0  0  0  0  0  0  0  0  0  0
  138.4630   79.9930  223.7300 C   0  0  0  0  0  0  0  0  0  0  0  0
  137.7850   81.1200  224.2060 C   0  0  0  0  0  0  0  0  0  0  0  0
  138.3509   81.9671  224.6209 H   0  0  0  0  0  0  0  0  0  0  0  0
  136.3880   81.1710  224.1550 C   0  0  0  0  0  0  0  0  0  0  0  0
  135.5380   82.5830  224.7580 Cl  0  0  0  0  0  0  0  0  0  0  0  0
  135.6680   80.0960  223.6260 C   0  0  0  0  0  0  0  0  0  0  0  0
  134.5694   80.1366  223.5880 H   0  0  0  0  0  0  0  0  0  0  0  0
  136.3420   78.9690  223.1450 C   0  0  0  0  0  0  0  0  0  0  0  0
  135.7721   78.1268  222.7256 H   0  0  0  0  0  0  0  0  0  0  0  0
  137.7490   78.9090  223.1960 C   0  0  0  0  0  0  0  0  0  0  0  0
  138.4730   77.8010  222.7280 C   0  0  0  0  0  0  0  0  0  0  0  0
  137.8450   76.8140  222.2470 O   0  0  0  0  0  0  0  0  0  0  0  0
  139.8520   77.7920  222.7840 N   0  0  0  0  0  0  0  0  0  0  0  0
  140.5950   76.6220  222.2500 C   0  0  0  0  0  0  0  0  0  0  0  0
  141.6380   76.6778  222.5949 H   0  0  0  0  0  0  0  0  0  0  0  0
  140.0987   75.7117  222.6175 H   0  0  0  0  0  0  0  0  0  0  0  0
  140.5840   76.5760  220.7020 C   0  0  1  0  0  0  0  0  0  0  0  0
  140.0156   75.6854  220.3957 H   0  0  0  0  0  0  0  0  0  0  0  0
  139.8810   77.8380  220.1460 C   0  0  0  0  0  0  0  0  0  0  0  0
  138.7916   77.6929  220.1931 H   0  0  0  0  0  0  0  0  0  0  0  0
  140.1817   78.7032  220.7551 H   0  0  0  0  0  0  0  0  0  0  0  0
  140.2880   78.0990  218.6960 C   0  0  0  0  0  0  0  0  0  0  0  0
  139.9800   77.2423  218.0786 H   0  0  0  0  0  0  0  0  0  0  0  0
  139.7934   79.0222  218.3597 H   0  0  0  0  0  0  0  0  0  0  0  0
  141.8150   78.2910  218.5620 C   0  0  0  0  0  0  0  0  0  0  0  0
  142.1443   77.8280  217.6201 H   0  0  0  0  0  0  0  0  0  0  0  0
  142.0114   79.3732  218.5812 H   0  0  0  0  0  0  0  0  0  0  0  0
  142.5780   77.6860  219.6750 N   0  0  0  0  0  0  0  0  0  0  0  0
  142.6060   78.3450  220.4900 H   0  0  0  0  0  0  0  0  0  0  0  0
  143.5640   77.5270  219.3590 H   0  0  0  0  0  0  0  0  0  0  0  0
  142.0060   76.4010  220.0980 C   0  0  0  0  0  0  0  0  0  0  0  0
  141.9432   75.7342  219.2254 H   0  0  0  0  0  0  0  0  0  0  0  0
  142.6582   75.9740  220.8741 H   0  0  0  0  0  0  0  0  0  0  0  0
  142.1560   80.7860  221.8580 C   0  0  0  0  0  0  0  0  0  0  0  0
  142.1750   80.4920  220.5260 N   0  0  0  0  0  0  0  0  0  0  0  0
  141.6740   81.3460  219.5950 C   0  0  0  0  0  0  0  0  0  0  0  0
  141.7050   81.0762  218.5290 H   0  0  0  0  0  0  0  0  0  0  0  0
  141.1210   82.5630  219.9890 C   0  0  0  0  0  0  0  0  0  0  0  0
  140.7234   83.2618  219.2383 H   0  0  0  0  0  0  0  0  0  0  0  0
  141.0770   82.8860  221.3470 C   0  0  0  0  0  0  0  0  0  0  0  0
  140.6189   83.8311  221.6740 H   0  0  0  0  0  0  0  0  0  0  0  0
  141.6150   82.0080  222.2880 C   0  0  0  0  0  0  0  0  0  0  0  0
  141.6154   82.2705  223.3562 H   0  0  0  0  0  0  0  0  0  0  0  0
  1  2  1  0
  2  3  2  0
  3  4  1  0
  3  5  1  0
  5  6  2  0
  6  7  1  0
  7  8  2  0
  8  9  1  0
  8 10  1  0
 10 11  1  0
 10 12  2  0
 12 13  1  0
 12 14  1  0
 14 15  1  0
 14 16  2  0
 16 17  1  0
 17 18  2  0
 17 19  1  0
 19 20  1  0
 20 21  1  0
 20 22  1  0
 20 23  1  0
 23 24  1  1
 23 25  1  0
 25 26  1  0
 25 27  1  0
 25 28  1  0
 28 29  1  0
 28 30  1  0
 28 31  1  0
 31 32  1  0
 31 33  1  0
 31 34  1  0
 34 35  1  0
 34 36  1  0
 34 37  1  0
 37 38  1  0
 37 39  1  0
  2 40  1  0
 40 41  2  0
 41 42  1  0
 42 43  1  0
 42 44  2  0
 44 45  1  0
 44 46  1  0
 46 47  1  0
 46 48  2  0
 48 49  1  0
 19  5  1  0
 37 23  1  0
 48 40  1  0
 16  7  1  0
M  CHG  1  34   1
M  END
>  <UniqueID>  (44) 
434

>  <SMILES>  (44) 
O=c1c2ccc(Cl)cc2nc(/C=C/c2ccccn2)n1C[C@H]1CCC[NH2+]C1

>  <Energy>  (44) 
68.19965088154082

>  <Genealogy>  (44) 
O=c1c2ccc(Cl)cc2nc(/C=C/c2ccccn2)n1CC1CCC[NH2+]C1 (protonated)
O=c1c2ccc(Cl)cc2nc(/C=C/c2ccccn2)n1C[C@H]1CCC[NH2+]C1 (chirality)
O=c1c2ccc(Cl)cc2nc(/C=C/c2ccccn2)n1C[C@H]1CCC[NH2+]C1 (cis-trans isomerization)
O=c1c2ccc(Cl)cc2nc(/C=C/c2ccccn2)n1C[C@H]1CCC[NH2+]C1 (3D coordinates assigned)
O=c1c2ccc(Cl)cc2nc(/C=C/c2ccccn2)n1C[C@H]1CCC[NH2+]C1 (nonaromatic ring conformer: 68.19965088154082 kcal/mol)

>  <smiles>  (44) 
O=c1c2ccc(Cl)cc2nc(/C=C/c2ccccn2)n1CC1CCCNC1

>  <score_type>  (44) 
oracle

>  <origin>  (44) 
autodockgpu

>  <m_score__min__energy>  (44) 
-7.1100000000000003

>  <m_primary>  (44) 
energy

>  <meeko>  (44) 
{"free_energy": -6.61, "intermolecular_energy": -8.1, "internal_energy": -2.47, "cluster_size": 6, "cluster_id": 3, "rank_in_cluster": 1}

>  <energy>  (44) 
-7.05

>  <cluster_rmsd>  (44) 
0.6

>  <rmsd>  (44) 
271.53

>  <cluster>  (44) 
1

$$$$
MESWETRYUNDHFU-MWCBREBHNA-O
     RDKit          3D

 49 52  0  0  0  0  0  0  0  0999 V2000
  140.8560   83.0403  221.2467 H   0  0  0  0  0  0  0  0  0  0  0  0
  140.7370   81.9610  221.0710 C   0  0  0  0  0  0  0  0  0  0  0  0
  140.2450   81.5510  219.8950 C   0  0  0  0  0  0  0  0  0  0  0  0
  139.3129   81.9971  219.5179 H   0  0  0  0  0  0  0  0  0  0  0  0
  140.9290   80.5070  219.0870 C   0  0  0  0  0  0  0  0  0  0  0  0
  141.4310   79.4280  219.7460 N   0  0  0  0  0  0  0  0  0  0  0  0
  142.0880   78.4370  219.1070 C   0  0  0  0  0  0  0  0  0  0  0  0
  142.5800   77.3460  219.8320 C   0  0  0  0  0  0  0  0  0  0  0  0
  142.4269   77.2955  220.9201 H   0  0  0  0  0  0  0  0  0  0  0  0
  143.2660   76.3200  219.1750 C   0  0  0  0  0  0  0  0  0  0  0  0
  143.8870   74.9540  220.0850 Cl  0  0  0  0  0  0  0  0  0  0  0  0
  143.4600   76.3830  217.7920 C   0  0  0  0  0  0  0  0  0  0  0  0
  144.0023   75.5767  217.2764 H   0  0  0  0  0  0  0  0  0  0  0  0
  142.9660   77.4690  217.0630 C   0  0  0  0  0  0  0  0  0  0  0  0
  143.1158   77.5122  215.9741 H   0  0  0  0  0  0  0  0  0  0  0  0
  142.2770   78.5080  217.7190 C   0  0  0  0  0  0  0  0  0  0  0  0
  141.7630   79.6210  217.0350 C   0  0  0  0  0  0  0  0  0  0  0  0
  141.9270   79.7030  215.7820 O   0  0  0  0  0  0  0  0  0  0  0  0
  141.0800   80.6080  217.7160 N   0  0  0  0  0  0  0  0  0  0  0  0
  140.5170   81.7570  216.9610 C   0  0  0  0  0  0  0  0  0  0  0  0
  140.1143   81.3894  216.0056 H   0  0  0  0  0  0  0  0  0  0  0  0
  139.7300   82.2131  217.5795 H   0  0  0  0  0  0  0  0  0  0  0  0
  141.5800   82.8450  216.6680 C   0  0  1  0  0  0  0  0  0  0  0  0
  141.0809   83.8242  216.7125 H   0  0  0  0  0  0  0  0  0  0  0  0
  142.6900   82.7960  217.7460 C   0  0  0  0  0  0  0  0  0  0  0  0
  142.3425   83.3270  218.6445 H   0  0  0  0  0  0  0  0  0  0  0  0
  142.9052   81.7429  217.9797 H   0  0  0  0  0  0  0  0  0  0  0  0
  143.9740   83.4550  217.2410 C   0  0  0  0  0  0  0  0  0  0  0  0
  143.7686   84.5119  217.0156 H   0  0  0  0  0  0  0  0  0  0  0  0
  144.7403   83.3636  218.0249 H   0  0  0  0  0  0  0  0  0  0  0  0
  144.5010   82.7630  215.9650 C   0  0  0  0  0  0  0  0  0  0  0  0
  144.9187   83.5314  215.2978 H   0  0  0  0  0  0  0  0  0  0  0  0
  145.2601   82.0318  216.2798 H   0  0  0  0  0  0  0  0  0  0  0  0
  143.4550   82.0210  215.2300 N   0  0  0  0  0  0  0  0  0  0  0  0
  143.3310   81.0680  215.6480 H   0  0  0  0  0  0  0  0  0  0  0  0
  143.7670   81.8960  214.2380 H   0  0  0  0  0  0  0  0  0  0  0  0
  142.1710   82.7330  215.2340 C   0  0  0  0  0  0  0  0  0  0  0  0
  142.3234   83.7452  214.8312 H   0  0  0  0  0  0  0  0  0  0  0  0
  141.4618   82.1647  214.6142 H   0  0  0  0  0  0  0  0  0  0  0  0
  141.1260   81.0210  222.1410 C   0  0  0  0  0  0  0  0  0  0  0  0
  140.1750   80.3460  222.8500 N   0  0  0  0  0  0  0  0  0  0  0  0
  140.5010   79.4920  223.8560 C   0  0  0  0  0  0  0  0  0  0  0  0
  139.7087   78.9636  224.4065 H   0  0  0  0  0  0  0  0  0  0  0  0
  141.8390   79.2850  224.1910 C   0  0  0  0  0  0  0  0  0  0  0  0
  142.1076   78.6021  225.0104 H   0  0  0  0  0  0  0  0  0  0  0  0
  142.8340   79.9540  223.4750 C   0  0  0  0  0  0  0  0  0  0  0  0
  143.8941   79.7802  223.7118 H   0  0  0  0  0  0  0  0  0  0  0  0
  142.4820   80.8430  222.4590 C   0  0  0  0  0  0  0  0  0  0  0  0
  143.2585   81.3986  221.9128 H   0  0  0  0  0  0  0  0  0  0  0  0
  1  2  1  0
  2  3  2  0
  3  4  1  0
  3  5  1  0
  5  6  2  0
  6  7  1  0
  7  8  2  0
  8  9  1  0
  8 10  1  0
 10 11  1  0
 10 12  2  0
 12 13  1  0
 12 14  1  0
 14 15  1  0
 14 16  2  0
 16 17  1  0
 17 18  2  0
 17 19  1  0
 19 20  1  0
 20 21  1  0
 20 22  1  0
 20 23  1  0
 23 24  1  6
 23 25  1  0
 25 26  1  0
 25 27  1  0
 25 28  1  0
 28 29  1  0
 28 30  1  0
 28 31  1  0
 31 32  1  0
 31 33  1  0
 31 34  1  0
 34 35  1  0
 34 36  1  0
 34 37  1  0
 37 38  1  0
 37 39  1  0
  2 40  1  0
 40 41  2  0
 41 42  1  0
 42 43  1  0
 42 44  2  0
 44 45  1  0
 44 46  1  0
 46 47  1  0
 46 48  2  0
 48 49  1  0
 19  5  1  0
 37 23  1  0
 48 40  1  0
 16  7  1  0
M  CHG  1  34   1
M  END
>  <UniqueID>  (45) 
434

>  <SMILES>  (45) 
O=c1c2ccc(Cl)cc2nc(/C=C/c2ccccn2)n1C[C@H]1CCC[NH2+]C1

>  <Energy>  (45) 
68.19965088154082

>  <Genealogy>  (45) 
O=c1c2ccc(Cl)cc2nc(/C=C/c2ccccn2)n1CC1CCC[NH2+]C1 (protonated)
O=c1c2ccc(Cl)cc2nc(/C=C/c2ccccn2)n1C[C@H]1CCC[NH2+]C1 (chirality)
O=c1c2ccc(Cl)cc2nc(/C=C/c2ccccn2)n1C[C@H]1CCC[NH2+]C1 (cis-trans isomerization)
O=c1c2ccc(Cl)cc2nc(/C=C/c2ccccn2)n1C[C@H]1CCC[NH2+]C1 (3D coordinates assigned)
O=c1c2ccc(Cl)cc2nc(/C=C/c2ccccn2)n1C[C@H]1CCC[NH2+]C1 (nonaromatic ring conformer: 68.19965088154082 kcal/mol)

>  <smiles>  (45) 
O=c1c2ccc(Cl)cc2nc(/C=C/c2ccccn2)n1CC1CCCNC1

>  <score_type>  (45) 
oracle

>  <origin>  (45) 
autodockgpu

>  <m_score__min__energy>  (45) 
-7.1100000000000003

>  <m_primary>  (45) 
energy

>  <meeko>  (45) 
{"free_energy": -7.03, "intermolecular_energy": -8.52, "internal_energy": -2.23, "cluster_size": 13, "cluster_id": 1, "rank_in_cluster": 8}

>  <energy>  (45) 
-7.05

>  <cluster_rmsd>  (45) 
0.59

>  <rmsd>  (45) 
271.55

>  <cluster>  (45) 
1

$$$$
MESWETRYUNDHFU-MWCBREBHNA-O
     RDKit          3D

 49 52  0  0  0  0  0  0  0  0999 V2000
  140.8525   83.0595  221.2454 H   0  0  0  0  0  0  0  0  0  0  0  0
  140.7430   81.9860  221.0320 C   0  0  0  0  0  0  0  0  0  0  0  0
  140.2630   81.6130  219.8390 C   0  0  0  0  0  0  0  0  0  0  0  0
  139.3590   82.1023  219.4475 H   0  0  0  0  0  0  0  0  0  0  0  0
  140.9220   80.5540  219.0310 C   0  0  0  0  0  0  0  0  0  0  0  0
  141.4320   79.4810  219.6930 N   0  0  0  0  0  0  0  0  0  0  0  0
  142.0700   78.4770  219.0540 C   0  0  0  0  0  0  0  0  0  0  0  0
  142.5710   77.3930  219.7830 C   0  0  0  0  0  0  0  0  0  0  0  0
  142.4401   77.3573  220.8746 H   0  0  0  0  0  0  0  0  0  0  0  0
  143.2380   76.3550  219.1250 C   0  0  0  0  0  0  0  0  0  0  0  0
  143.8700   74.9980  220.0400 Cl  0  0  0  0  0  0  0  0  0  0  0  0
  143.4010   76.3980  217.7380 C   0  0  0  0  0  0  0  0  0  0  0  0
  143.9263   75.5810  217.2216 H   0  0  0  0  0  0  0  0  0  0  0  0
  142.8980   77.4770  217.0050 C   0  0  0  0  0  0  0  0  0  0  0  0
  143.0247   77.5049  215.9127 H   0  0  0  0  0  0  0  0  0  0  0  0
  142.2290   78.5290  217.6620 C   0  0  0  0  0  0  0  0  0  0  0  0
  141.7070   79.6350  216.9740 C   0  0  0  0  0  0  0  0  0  0  0  0
  141.8440   79.7000  215.7170 O   0  0  0  0  0  0  0  0  0  0  0  0
  141.0450   80.6360  217.6560 N   0  0  0  0  0  0  0  0  0  0  0  0
  140.4720   81.7780  216.8980 C   0  0  0  0  0  0  0  0  0  0  0  0
  140.0582   81.4019  215.9507 H   0  0  0  0  0  0  0  0  0  0  0  0
  139.6921   82.2388  217.5220 H   0  0  0  0  0  0  0  0  0  0  0  0
  141.5300   82.8640  216.5830 C   0  0  1  0  0  0  0  0  0  0  0  0
  141.0266   83.8417  216.6097 H   0  0  0  0  0  0  0  0  0  0  0  0
  142.6420   82.8390  217.6600 C   0  0  0  0  0  0  0  0  0  0  0  0
  142.2935   83.3844  218.5494 H   0  0  0  0  0  0  0  0  0  0  0  0
  142.8621   81.7911  217.9118 H   0  0  0  0  0  0  0  0  0  0  0  0
  143.9220   83.4940  217.1420 C   0  0  0  0  0  0  0  0  0  0  0  0
  143.7116   84.5455  216.8967 H   0  0  0  0  0  0  0  0  0  0  0  0
  144.6893   83.4214  217.9269 H   0  0  0  0  0  0  0  0  0  0  0  0
  144.4510   82.7800  215.8790 C   0  0  0  0  0  0  0  0  0  0  0  0
  144.8656   83.5372  215.1973 H   0  0  0  0  0  0  0  0  0  0  0  0
  145.2128   82.0576  216.2072 H   0  0  0  0  0  0  0  0  0  0  0  0
  143.4070   82.0200  215.1580 N   0  0  0  0  0  0  0  0  0  0  0  0
  143.2860   81.0750  215.5950 H   0  0  0  0  0  0  0  0  0  0  0  0
  143.7170   81.8780  214.1680 H   0  0  0  0  0  0  0  0  0  0  0  0
  142.1200   82.7280  215.1510 C   0  0  0  0  0  0  0  0  0  0  0  0
  142.2686   83.7333  214.7298 H   0  0  0  0  0  0  0  0  0  0  0  0
  141.4121   82.1460  214.5426 H   0  0  0  0  0  0  0  0  0  0  0  0
  141.1310   81.0130  222.0720 C   0  0  0  0  0  0  0  0  0  0  0  0
  140.1850   80.2580  222.7020 N   0  0  0  0  0  0  0  0  0  0  0  0
  140.5090   79.3710  223.6800 C   0  0  0  0  0  0  0  0  0  0  0  0
  139.7207   78.7779  224.1667 H   0  0  0  0  0  0  0  0  0  0  0  0
  141.8390   79.2120  224.0670 C   0  0  0  0  0  0  0  0  0  0  0  0
  142.1050   78.5019  224.8639 H   0  0  0  0  0  0  0  0  0  0  0  0
  142.8300   79.9640  223.4320 C   0  0  0  0  0  0  0  0  0  0  0  0
  143.8860   79.8303  223.7096 H   0  0  0  0  0  0  0  0  0  0  0  0
  142.4780   80.8850  222.4450 C   0  0  0  0  0  0  0  0  0  0  0  0
  143.2488   81.5049  221.9637 H   0  0  0  0  0  0  0  0  0  0  0  0
  1  2  1  0
  2  3  2  0
  3  4  1  0
  3  5  1  0
  5  6  2  0
  6  7  1  0
  7  8  2  0
  8  9  1  0
  8 10  1  0
 10 11  1  0
 10 12  2  0
 12 13  1  0
 12 14  1  0
 14 15  1  0
 14 16  2  0
 16 17  1  0
 17 18  2  0
 17 19  1  0
 19 20  1  0
 20 21  1  0
 20 22  1  0
 20 23  1  0
 23 24  1  6
 23 25  1  0
 25 26  1  0
 25 27  1  0
 25 28  1  0
 28 29  1  0
 28 30  1  0
 28 31  1  0
 31 32  1  0
 31 33  1  0
 31 34  1  0
 34 35  1  0
 34 36  1  0
 34 37  1  0
 37 38  1  0
 37 39  1  0
  2 40  1  0
 40 41  2  0
 41 42  1  0
 42 43  1  0
 42 44  2  0
 44 45  1  0
 44 46  1  0
 46 47  1  0
 46 48  2  0
 48 49  1  0
 19  5  1  0
 37 23  1  0
 48 40  1  0
 16  7  1  0
M  CHG  1  34   1
M  END
>  <UniqueID>  (46) 
434

>  <SMILES>  (46) 
O=c1c2ccc(Cl)cc2nc(/C=C/c2ccccn2)n1C[C@H]1CCC[NH2+]C1

>  <Energy>  (46) 
68.19965088154082

>  <Genealogy>  (46) 
O=c1c2ccc(Cl)cc2nc(/C=C/c2ccccn2)n1CC1CCC[NH2+]C1 (protonated)
O=c1c2ccc(Cl)cc2nc(/C=C/c2ccccn2)n1C[C@H]1CCC[NH2+]C1 (chirality)
O=c1c2ccc(Cl)cc2nc(/C=C/c2ccccn2)n1C[C@H]1CCC[NH2+]C1 (cis-trans isomerization)
O=c1c2ccc(Cl)cc2nc(/C=C/c2ccccn2)n1C[C@H]1CCC[NH2+]C1 (3D coordinates assigned)
O=c1c2ccc(Cl)cc2nc(/C=C/c2ccccn2)n1C[C@H]1CCC[NH2+]C1 (nonaromatic ring conformer: 68.19965088154082 kcal/mol)

>  <smiles>  (46) 
O=c1c2ccc(Cl)cc2nc(/C=C/c2ccccn2)n1CC1CCCNC1

>  <score_type>  (46) 
oracle

>  <origin>  (46) 
autodockgpu

>  <m_score__min__energy>  (46) 
-7.1100000000000003

>  <m_primary>  (46) 
energy

>  <meeko>  (46) 
{"free_energy": -7.05, "intermolecular_energy": -8.54, "internal_energy": -2.21, "cluster_size": 13, "cluster_id": 1, "rank_in_cluster": 4}

>  <energy>  (46) 
-7.05

>  <cluster_rmsd>  (46) 
0.61

>  <rmsd>  (46) 
271.53

>  <cluster>  (46) 
1

$$$$
MESWETRYUNDHFU-MWCBREBHNA-O
     RDKit          3D

 49 52  0  0  0  0  0  0  0  0999 V2000
  143.8054   79.8505  223.0945 H   0  0  0  0  0  0  0  0  0  0  0  0
  142.7390   79.7640  222.8390 C   0  0  0  0  0  0  0  0  0  0  0  0
  142.0140   78.8020  223.4230 C   0  0  0  0  0  0  0  0  0  0  0  0
  142.5238   78.0385  224.0290 H   0  0  0  0  0  0  0  0  0  0  0  0
  140.5360   78.7410  223.2720 C   0  0  0  0  0  0  0  0  0  0  0  0
  139.8120   79.7960  223.7300 N   0  0  0  0  0  0  0  0  0  0  0  0
  138.4640   79.8280  223.6610 C   0  0  0  0  0  0  0  0  0  0  0  0
  137.7660   80.9410  224.1410 C   0  0  0  0  0  0  0  0  0  0  0  0
  138.3167   81.7913  224.5697 H   0  0  0  0  0  0  0  0  0  0  0  0
  136.3700   80.9750  224.0770 C   0  0  0  0  0  0  0  0  0  0  0  0
  135.4950   82.3700  224.6840 Cl  0  0  0  0  0  0  0  0  0  0  0  0
  135.6690   79.8970  223.5290 C   0  0  0  0  0  0  0  0  0  0  0  0
  134.5704   79.9243  223.4800 H   0  0  0  0  0  0  0  0  0  0  0  0
  136.3620   78.7840  223.0430 C   0  0  0  0  0  0  0  0  0  0  0  0
  135.8071   77.9394  222.6086 H   0  0  0  0  0  0  0  0  0  0  0  0
  137.7700   78.7410  223.1080 C   0  0  0  0  0  0  0  0  0  0  0  0
  138.5130   77.6480  222.6370 C   0  0  0  0  0  0  0  0  0  0  0  0
  137.9020   76.6570  222.1390 O   0  0  0  0  0  0  0  0  0  0  0  0
  139.8910   77.6560  222.7070 N   0  0  0  0  0  0  0  0  0  0  0  0
  140.6540   76.5000  222.1680 C   0  0  0  0  0  0  0  0  0  0  0  0
  141.6889   76.5563  222.5366 H   0  0  0  0  0  0  0  0  0  0  0  0
  140.1561   75.5800  222.5080 H   0  0  0  0  0  0  0  0  0  0  0  0
  140.6770   76.4820  220.6200 C   0  0  1  0  0  0  0  0  0  0  0  0
  140.1363   75.5840  220.2864 H   0  0  0  0  0  0  0  0  0  0  0  0
  139.9560   77.7370  220.0710 C   0  0  0  0  0  0  0  0  0  0  0  0
  138.8696   77.5660  220.0928 H   0  0  0  0  0  0  0  0  0  0  0  0
  140.2233   78.5983  220.7008 H   0  0  0  0  0  0  0  0  0  0  0  0
  140.3870   78.0320  218.6340 C   0  0  0  0  0  0  0  0  0  0  0  0
  140.1119   77.1791  217.9961 H   0  0  0  0  0  0  0  0  0  0  0  0
  139.8781   78.9491  218.3024 H   0  0  0  0  0  0  0  0  0  0  0  0
  141.9110   78.2610  218.5360 C   0  0  0  0  0  0  0  0  0  0  0  0
  142.2704   77.8220  217.5936 H   0  0  0  0  0  0  0  0  0  0  0  0
  142.0813   79.3469  218.5780 H   0  0  0  0  0  0  0  0  0  0  0  0
  142.6650   77.6550  219.6540 N   0  0  0  0  0  0  0  0  0  0  0  0
  142.6610   78.3000  220.4810 H   0  0  0  0  0  0  0  0  0  0  0  0
  143.6610   77.5240  219.3560 H   0  0  0  0  0  0  0  0  0  0  0  0
  142.1140   76.3500  220.0430 C   0  0  0  0  0  0  0  0  0  0  0  0
  142.0843   75.6974  219.1580 H   0  0  0  0  0  0  0  0  0  0  0  0
  142.7599   75.9243  220.8250 H   0  0  0  0  0  0  0  0  0  0  0  0
  142.1640   80.7130  221.8660 C   0  0  0  0  0  0  0  0  0  0  0  0
  142.1670   80.4260  220.5320 N   0  0  0  0  0  0  0  0  0  0  0  0
  141.6650   81.2900  219.6100 C   0  0  0  0  0  0  0  0  0  0  0  0
  141.6825   81.0254  218.5424 H   0  0  0  0  0  0  0  0  0  0  0  0
  141.1280   82.5110  220.0160 C   0  0  0  0  0  0  0  0  0  0  0  0
  140.7299   83.2178  219.2730 H   0  0  0  0  0  0  0  0  0  0  0  0
  141.1010   82.8270  221.3760 C   0  0  0  0  0  0  0  0  0  0  0  0
  140.6563   83.7752  221.7124 H   0  0  0  0  0  0  0  0  0  0  0  0
  141.6390   81.9380  222.3080 C   0  0  0  0  0  0  0  0  0  0  0  0
  141.6516   82.1944  223.3776 H   0  0  0  0  0  0  0  0  0  0  0  0
  1  2  1  0
  2  3  2  0
  3  4  1  0
  3  5  1  0
  5  6  2  0
  6  7  1  0
  7  8  2  0
  8  9  1  0
  8 10  1  0
 10 11  1  0
 10 12  2  0
 12 13  1  0
 12 14  1  0
 14 15  1  0
 14 16  2  0
 16 17  1  0
 17 18  2  0
 17 19  1  0
 19 20  1  0
 20 21  1  0
 20 22  1  0
 20 23  1  0
 23 24  1  6
 23 25  1  0
 25 26  1  0
 25 27  1  0
 25 28  1  0
 28 29  1  0
 28 30  1  0
 28 31  1  0
 31 32  1  0
 31 33  1  0
 31 34  1  0
 34 35  1  0
 34 36  1  0
 34 37  1  0
 37 38  1  0
 37 39  1  0
  2 40  1  0
 40 41  2  0
 41 42  1  0
 42 43  1  0
 42 44  2  0
 44 45  1  0
 44 46  1  0
 46 47  1  0
 46 48  2  0
 48 49  1  0
 19  5  1  0
 37 23  1  0
 48 40  1  0
 16  7  1  0
M  CHG  1  34   1
M  END
>  <UniqueID>  (47) 
434

>  <SMILES>  (47) 
O=c1c2ccc(Cl)cc2nc(/C=C/c2ccccn2)n1C[C@H]1CCC[NH2+]C1

>  <Energy>  (47) 
68.19965088154082

>  <Genealogy>  (47) 
O=c1c2ccc(Cl)cc2nc(/C=C/c2ccccn2)n1CC1CCC[NH2+]C1 (protonated)
O=c1c2ccc(Cl)cc2nc(/C=C/c2ccccn2)n1C[C@H]1CCC[NH2+]C1 (chirality)
O=c1c2ccc(Cl)cc2nc(/C=C/c2ccccn2)n1C[C@H]1CCC[NH2+]C1 (cis-trans isomerization)
O=c1c2ccc(Cl)cc2nc(/C=C/c2ccccn2)n1C[C@H]1CCC[NH2+]C1 (3D coordinates assigned)
O=c1c2ccc(Cl)cc2nc(/C=C/c2ccccn2)n1C[C@H]1CCC[NH2+]C1 (nonaromatic ring conformer: 68.19965088154082 kcal/mol)

>  <smiles>  (47) 
O=c1c2ccc(Cl)cc2nc(/C=C/c2ccccn2)n1CC1CCCNC1

>  <score_type>  (47) 
oracle

>  <origin>  (47) 
autodockgpu

>  <m_score__min__energy>  (47) 
-7.1100000000000003

>  <m_primary>  (47) 
energy

>  <meeko>  (47) 
{"free_energy": -6.6, "intermolecular_energy": -8.09, "internal_energy": -2.48, "cluster_size": 6, "cluster_id": 3, "rank_in_cluster": 3}

>  <energy>  (47) 
-7.04

>  <cluster_rmsd>  (47) 
0.59

>  <rmsd>  (47) 
271.58

>  <cluster>  (47) 
1

$$$$
MESWETRYUNDHFU-MWCBREBHNA-O
     RDKit          3D

 49 52  0  0  0  0  0  0  0  0999 V2000
  140.5520   82.9298  221.0201 H   0  0  0  0  0  0  0  0  0  0  0  0
  140.5520   81.8420  220.8570 C   0  0  0  0  0  0  0  0  0  0  0  0
  140.0930   81.3660  219.6930 C   0  0  0  0  0  0  0  0  0  0  0  0
  139.1278   81.7278  219.3088 H   0  0  0  0  0  0  0  0  0  0  0  0
  140.8550   80.3610  218.9070 C   0  0  0  0  0  0  0  0  0  0  0  0
  141.3490   79.2830  219.5740 N   0  0  0  0  0  0  0  0  0  0  0  0
  142.0750   78.3260  218.9570 C   0  0  0  0  0  0  0  0  0  0  0  0
  142.5550   77.2340  219.6880 C   0  0  0  0  0  0  0  0  0  0  0  0
  142.3365   77.1541  220.7631 H   0  0  0  0  0  0  0  0  0  0  0  0
  143.3120   76.2440  219.0540 C   0  0  0  0  0  0  0  0  0  0  0  0
  143.9180   74.8780  219.9730 Cl  0  0  0  0  0  0  0  0  0  0  0  0
  143.5870   76.3430  217.6870 C   0  0  0  0  0  0  0  0  0  0  0  0
  144.1837   75.5644  217.1893 H   0  0  0  0  0  0  0  0  0  0  0  0
  143.1050   77.4300  216.9510 C   0  0  0  0  0  0  0  0  0  0  0  0
  143.3196   77.5022  215.8746 H   0  0  0  0  0  0  0  0  0  0  0  0
  142.3450   78.4330  217.5850 C   0  0  0  0  0  0  0  0  0  0  0  0
  141.8390   79.5450  216.8930 C   0  0  0  0  0  0  0  0  0  0  0  0
  142.0770   79.6590  215.6540 O   0  0  0  0  0  0  0  0  0  0  0  0
  141.0870   80.4960  217.5500 N   0  0  0  0  0  0  0  0  0  0  0  0
  140.5350   81.6450  216.7860 C   0  0  0  0  0  0  0  0  0  0  0  0
  140.1715   81.2813  215.8136 H   0  0  0  0  0  0  0  0  0  0  0  0
  139.7205   82.0843  217.3806 H   0  0  0  0  0  0  0  0  0  0  0  0
  141.5920   82.7500  216.5410 C   0  0  1  0  0  0  0  0  0  0  0  0
  141.0917   83.7237  216.6485 H   0  0  0  0  0  0  0  0  0  0  0  0
  142.7170   82.6410  217.5990 C   0  0  0  0  0  0  0  0  0  0  0  0
  142.3811   83.1181  218.5315 H   0  0  0  0  0  0  0  0  0  0  0  0
  142.9370   81.5765  217.7679 H   0  0  0  0  0  0  0  0  0  0  0  0
  143.9930   83.3310  217.1160 C   0  0  0  0  0  0  0  0  0  0  0  0
  143.7833   84.3988  216.9555 H   0  0  0  0  0  0  0  0  0  0  0  0
  144.7702   83.1960  217.8826 H   0  0  0  0  0  0  0  0  0  0  0  0
  144.5030   82.7150  215.7940 C   0  0  0  0  0  0  0  0  0  0  0  0
  144.9103   83.5217  215.1668 H   0  0  0  0  0  0  0  0  0  0  0  0
  145.2673   81.9682  216.0552 H   0  0  0  0  0  0  0  0  0  0  0  0
  143.4480   82.0150  215.0320 N   0  0  0  0  0  0  0  0  0  0  0  0
  143.3310   81.0390  215.3960 H   0  0  0  0  0  0  0  0  0  0  0  0
  143.7460   81.9490  214.0300 H   0  0  0  0  0  0  0  0  0  0  0  0
  142.1630   82.7240  215.0950 C   0  0  0  0  0  0  0  0  0  0  0  0
  142.3091   83.7584  214.7506 H   0  0  0  0  0  0  0  0  0  0  0  0
  141.4458   82.1926  214.4522 H   0  0  0  0  0  0  0  0  0  0  0  0
  141.0580   80.9640  221.9300 C   0  0  0  0  0  0  0  0  0  0  0  0
  140.1920   80.2900  222.7410 N   0  0  0  0  0  0  0  0  0  0  0  0
  140.6280   79.4930  223.7520 C   0  0  0  0  0  0  0  0  0  0  0  0
  139.9017   78.9640  224.3865 H   0  0  0  0  0  0  0  0  0  0  0  0
  141.9940   79.3450  223.9860 C   0  0  0  0  0  0  0  0  0  0  0  0
  142.3512   78.7084  224.8089 H   0  0  0  0  0  0  0  0  0  0  0  0
  142.9050   80.0140  223.1640 C   0  0  0  0  0  0  0  0  0  0  0  0
  143.9861   79.8855  223.3210 H   0  0  0  0  0  0  0  0  0  0  0  0
  142.4410   80.8450  222.1440 C   0  0  0  0  0  0  0  0  0  0  0  0
  143.1508   81.4012  221.5140 H   0  0  0  0  0  0  0  0  0  0  0  0
  1  2  1  0
  2  3  2  0
  3  4  1  0
  3  5  1  0
  5  6  2  0
  6  7  1  0
  7  8  2  0
  8  9  1  0
  8 10  1  0
 10 11  1  0
 10 12  2  0
 12 13  1  0
 12 14  1  0
 14 15  1  0
 14 16  2  0
 16 17  1  0
 17 18  2  0
 17 19  1  0
 19 20  1  0
 20 21  1  0
 20 22  1  0
 20 23  1  0
 23 24  1  1
 23 25  1  0
 25 26  1  0
 25 27  1  0
 25 28  1  0
 28 29  1  0
 28 30  1  0
 28 31  1  0
 31 32  1  0
 31 33  1  0
 31 34  1  0
 34 35  1  0
 34 36  1  0
 34 37  1  0
 37 38  1  0
 37 39  1  0
  2 40  1  0
 40 41  2  0
 41 42  1  0
 42 43  1  0
 42 44  2  0
 44 45  1  0
 44 46  1  0
 46 47  1  0
 46 48  2  0
 48 49  1  0
 19  5  1  0
 37 23  1  0
 48 40  1  0
 16  7  1  0
M  CHG  1  34   1
M  END
>  <UniqueID>  (48) 
434

>  <SMILES>  (48) 
O=c1c2ccc(Cl)cc2nc(/C=C/c2ccccn2)n1C[C@H]1CCC[NH2+]C1

>  <Energy>  (48) 
68.19965088154082

>  <Genealogy>  (48) 
O=c1c2ccc(Cl)cc2nc(/C=C/c2ccccn2)n1CC1CCC[NH2+]C1 (protonated)
O=c1c2ccc(Cl)cc2nc(/C=C/c2ccccn2)n1C[C@H]1CCC[NH2+]C1 (chirality)
O=c1c2ccc(Cl)cc2nc(/C=C/c2ccccn2)n1C[C@H]1CCC[NH2+]C1 (cis-trans isomerization)
O=c1c2ccc(Cl)cc2nc(/C=C/c2ccccn2)n1C[C@H]1CCC[NH2+]C1 (3D coordinates assigned)
O=c1c2ccc(Cl)cc2nc(/C=C/c2ccccn2)n1C[C@H]1CCC[NH2+]C1 (nonaromatic ring conformer: 68.19965088154082 kcal/mol)

>  <smiles>  (48) 
O=c1c2ccc(Cl)cc2nc(/C=C/c2ccccn2)n1CC1CCCNC1

>  <score_type>  (48) 
oracle

>  <origin>  (48) 
autodockgpu

>  <m_score__min__energy>  (48) 
-7.1100000000000003

>  <m_primary>  (48) 
energy

>  <meeko>  (48) 
{"free_energy": -6.89, "intermolecular_energy": -8.39, "internal_energy": -2.28, "cluster_size": 13, "cluster_id": 1, "rank_in_cluster": 12}

>  <energy>  (48) 
-7.03

>  <cluster_rmsd>  (48) 
0.59

>  <rmsd>  (48) 
271.59

>  <cluster>  (48) 
1

$$$$
MESWETRYUNDHFU-MWCBREBHNA-O
     RDKit          3D

 49 52  0  0  0  0  0  0  0  0999 V2000
  143.7725   79.9115  223.1671 H   0  0  0  0  0  0  0  0  0  0  0  0
  142.7260   79.7750  222.8570 C   0  0  0  0  0  0  0  0  0  0  0  0
  142.0240   78.7660  223.3880 C   0  0  0  0  0  0  0  0  0  0  0  0
  142.5546   77.9706  223.9319 H   0  0  0  0  0  0  0  0  0  0  0  0
  140.5440   78.6950  223.2600 C   0  0  0  0  0  0  0  0  0  0  0  0
  139.8200   79.7480  223.7250 N   0  0  0  0  0  0  0  0  0  0  0  0
  138.4710   79.7720  223.6770 C   0  0  0  0  0  0  0  0  0  0  0  0
  137.7740   80.8820  224.1640 C   0  0  0  0  0  0  0  0  0  0  0  0
  138.3259   81.7370  224.5816 H   0  0  0  0  0  0  0  0  0  0  0  0
  136.3770   80.9070  224.1210 C   0  0  0  0  0  0  0  0  0  0  0  0
  135.5030   82.2990  224.7360 Cl  0  0  0  0  0  0  0  0  0  0  0  0
  135.6750   79.8220  223.5890 C   0  0  0  0  0  0  0  0  0  0  0  0
  134.5756   79.8417  223.5575 H   0  0  0  0  0  0  0  0  0  0  0  0
  136.3670   78.7120  223.0970 C   0  0  0  0  0  0  0  0  0  0  0  0
  135.8107   77.8621  222.6748 H   0  0  0  0  0  0  0  0  0  0  0  0
  137.7750   78.6780  223.1400 C   0  0  0  0  0  0  0  0  0  0  0  0
  138.5180   77.5870  222.6610 C   0  0  0  0  0  0  0  0  0  0  0  0
  137.9050   76.5910  222.1770 O   0  0  0  0  0  0  0  0  0  0  0  0
  139.8970   77.6040  222.7100 N   0  0  0  0  0  0  0  0  0  0  0  0
  140.6580   76.4510  222.1640 C   0  0  0  0  0  0  0  0  0  0  0  0
  141.6944   76.5069  222.5285 H   0  0  0  0  0  0  0  0  0  0  0  0
  140.1615   75.5298  222.5030 H   0  0  0  0  0  0  0  0  0  0  0  0
  140.6750   76.4370  220.6150 C   0  0  1  0  0  0  0  0  0  0  0  0
  140.1411   75.5353  220.2805 H   0  0  0  0  0  0  0  0  0  0  0  0
  139.9420   77.6890  220.0740 C   0  0  0  0  0  0  0  0  0  0  0  0
  138.8570   77.5102  220.1010 H   0  0  0  0  0  0  0  0  0  0  0  0
  140.2067   78.5500  220.7053 H   0  0  0  0  0  0  0  0  0  0  0  0
  140.3630   77.9920  218.6360 C   0  0  0  0  0  0  0  0  0  0  0  0
  140.0920   77.1388  217.9967 H   0  0  0  0  0  0  0  0  0  0  0  0
  139.8447   78.9056  218.3093 H   0  0  0  0  0  0  0  0  0  0  0  0
  141.8850   78.2340  218.5320 C   0  0  0  0  0  0  0  0  0  0  0  0
  142.2439   77.8008  217.5867 H   0  0  0  0  0  0  0  0  0  0  0  0
  142.0465   79.3212  218.5765 H   0  0  0  0  0  0  0  0  0  0  0  0
  142.6490   77.6310  219.6450 N   0  0  0  0  0  0  0  0  0  0  0  0
  142.6430   78.2730  220.4730 H   0  0  0  0  0  0  0  0  0  0  0  0
  143.6440   77.5090  219.3420 H   0  0  0  0  0  0  0  0  0  0  0  0
  142.1110   76.3200  220.0320 C   0  0  0  0  0  0  0  0  0  0  0  0
  142.0837   75.6700  219.1450 H   0  0  0  0  0  0  0  0  0  0  0  0
  142.7636   75.8978  220.8103 H   0  0  0  0  0  0  0  0  0  0  0  0
  142.1500   80.7120  221.8710 C   0  0  0  0  0  0  0  0  0  0  0  0
  142.1690   80.4150  220.5400 N   0  0  0  0  0  0  0  0  0  0  0  0
  141.6680   81.2670  219.6070 C   0  0  0  0  0  0  0  0  0  0  0  0
  141.6987   80.9949  218.5416 H   0  0  0  0  0  0  0  0  0  0  0  0
  141.1150   82.4860  219.9990 C   0  0  0  0  0  0  0  0  0  0  0  0
  140.7172   83.1836  219.2473 H   0  0  0  0  0  0  0  0  0  0  0  0
  141.0720   82.8110  221.3570 C   0  0  0  0  0  0  0  0  0  0  0  0
  140.6149   83.7571  221.6825 H   0  0  0  0  0  0  0  0  0  0  0  0
  141.6090   81.9350  222.2990 C   0  0  0  0  0  0  0  0  0  0  0  0
  141.6089   82.1991  223.3668 H   0  0  0  0  0  0  0  0  0  0  0  0
  1  2  1  0
  2  3  2  0
  3  4  1  0
  3  5  1  0
  5  6  2  0
  6  7  1  0
  7  8  2  0
  8  9  1  0
  8 10  1  0
 10 11  1  0
 10 12  2  0
 12 13  1  0
 12 14  1  0
 14 15  1  0
 14 16  2  0
 16 17  1  0
 17 18  2  0
 17 19  1  0
 19 20  1  0
 20 21  1  0
 20 22  1  0
 20 23  1  0
 23 24  1  6
 23 25  1  0
 25 26  1  0
 25 27  1  0
 25 28  1  0
 28 29  1  0
 28 30  1  0
 28 31  1  0
 31 32  1  0
 31 33  1  0
 31 34  1  0
 34 35  1  0
 34 36  1  0
 34 37  1  0
 37 38  1  0
 37 39  1  0
  2 40  1  0
 40 41  2  0
 41 42  1  0
 42 43  1  0
 42 44  2  0
 44 45  1  0
 44 46  1  0
 46 47  1  0
 46 48  2  0
 48 49  1  0
 19  5  1  0
 37 23  1  0
 48 40  1  0
 16  7  1  0
M  CHG  1  34   1
M  END
>  <UniqueID>  (49) 
434

>  <SMILES>  (49) 
O=c1c2ccc(Cl)cc2nc(/C=C/c2ccccn2)n1C[C@H]1CCC[NH2+]C1

>  <Energy>  (49) 
68.19965088154082

>  <Genealogy>  (49) 
O=c1c2ccc(Cl)cc2nc(/C=C/c2ccccn2)n1CC1CCC[NH2+]C1 (protonated)
O=c1c2ccc(Cl)cc2nc(/C=C/c2ccccn2)n1C[C@H]1CCC[NH2+]C1 (chirality)
O=c1c2ccc(Cl)cc2nc(/C=C/c2ccccn2)n1C[C@H]1CCC[NH2+]C1 (cis-trans isomerization)
O=c1c2ccc(Cl)cc2nc(/C=C/c2ccccn2)n1C[C@H]1CCC[NH2+]C1 (3D coordinates assigned)
O=c1c2ccc(Cl)cc2nc(/C=C/c2ccccn2)n1C[C@H]1CCC[NH2+]C1 (nonaromatic ring conformer: 68.19965088154082 kcal/mol)

>  <smiles>  (49) 
O=c1c2ccc(Cl)cc2nc(/C=C/c2ccccn2)n1CC1CCCNC1

>  <score_type>  (49) 
oracle

>  <origin>  (49) 
autodockgpu

>  <m_score__min__energy>  (49) 
-7.1100000000000003

>  <m_primary>  (49) 
energy

>  <meeko>  (49) 
{"free_energy": -6.6, "intermolecular_energy": -8.09, "internal_energy": -2.47, "cluster_size": 6, "cluster_id": 3, "rank_in_cluster": 6}

>  <energy>  (49) 
-7.02

>  <cluster_rmsd>  (49) 
0.6

>  <rmsd>  (49) 
271.54

>  <cluster>  (49) 
1

$$$$
MESWETRYUNDHFU-MWCBREBHNA-O
     RDKit          3D

 49 52  0  0  0  0  0  0  0  0999 V2000
  143.8496   79.8762  223.0044 H   0  0  0  0  0  0  0  0  0  0  0  0
  142.7650   79.8380  222.8250 C   0  0  0  0  0  0  0  0  0  0  0  0
  142.0310   78.9540  223.5110 C   0  0  0  0  0  0  0  0  0  0  0  0
  142.5315   78.2701  224.2123 H   0  0  0  0  0  0  0  0  0  0  0  0
  140.5550   78.8740  223.3480 C   0  0  0  0  0  0  0  0  0  0  0  0
  139.8140   79.9210  223.8000 N   0  0  0  0  0  0  0  0  0  0  0  0
  138.4660   79.9370  223.7200 C   0  0  0  0  0  0  0  0  0  0  0  0
  137.7520   81.0420  224.1940 C   0  0  0  0  0  0  0  0  0  0  0  0
  138.2891   81.8992  224.6261 H   0  0  0  0  0  0  0  0  0  0  0  0
  136.3550   81.0580  224.1190 C   0  0  0  0  0  0  0  0  0  0  0  0
  135.4590   82.4430  224.7180 Cl  0  0  0  0  0  0  0  0  0  0  0  0
  135.6730   79.9710  223.5660 C   0  0  0  0  0  0  0  0  0  0  0  0
  134.5746   79.9845  223.5076 H   0  0  0  0  0  0  0  0  0  0  0  0
  136.3830   78.8670  223.0870 C   0  0  0  0  0  0  0  0  0  0  0  0
  135.8419   78.0153  222.6491 H   0  0  0  0  0  0  0  0  0  0  0  0
  137.7900   78.8410  223.1630 C   0  0  0  0  0  0  0  0  0  0  0  0
  138.5500   77.7570  222.6980 C   0  0  0  0  0  0  0  0  0  0  0  0
  137.9550   76.7580  222.1960 O   0  0  0  0  0  0  0  0  0  0  0  0
  139.9270   77.7810  222.7790 N   0  0  0  0  0  0  0  0  0  0  0  0
  140.7090   76.6350  222.2480 C   0  0  0  0  0  0  0  0  0  0  0  0
  141.7501   76.7278  222.5909 H   0  0  0  0  0  0  0  0  0  0  0  0
  140.2450   75.7095  222.6197 H   0  0  0  0  0  0  0  0  0  0  0  0
  140.6970   76.5830  220.7000 C   0  0  1  0  0  0  0  0  0  0  0  0
  140.1307   75.6896  220.3980 H   0  0  0  0  0  0  0  0  0  0  0  0
  139.9910   77.8420  220.1400 C   0  0  0  0  0  0  0  0  0  0  0  0
  138.9019   77.6953  220.1890 H   0  0  0  0  0  0  0  0  0  0  0  0
  140.2909   78.7101  220.7454 H   0  0  0  0  0  0  0  0  0  0  0  0
  140.3960   78.0980  218.6880 C   0  0  0  0  0  0  0  0  0  0  0  0
  140.0895   77.2380  218.0745 H   0  0  0  0  0  0  0  0  0  0  0  0
  139.8988   79.0185  218.3482 H   0  0  0  0  0  0  0  0  0  0  0  0
  141.9220   78.2930  218.5520 C   0  0  0  0  0  0  0  0  0  0  0  0
  142.2515   77.8266  217.6119 H   0  0  0  0  0  0  0  0  0  0  0  0
  142.1155   79.3757  218.5665 H   0  0  0  0  0  0  0  0  0  0  0  0
  142.6880   77.6950  219.6670 N   0  0  0  0  0  0  0  0  0  0  0  0
  142.7140   78.3570  220.4790 H   0  0  0  0  0  0  0  0  0  0  0  0
  143.6730   77.5370  219.3510 H   0  0  0  0  0  0  0  0  0  0  0  0
  142.1190   76.4100  220.0950 C   0  0  0  0  0  0  0  0  0  0  0  0
  142.0569   75.7402  219.2247 H   0  0  0  0  0  0  0  0  0  0  0  0
  142.7729   75.9875  220.8721 H   0  0  0  0  0  0  0  0  0  0  0  0
  142.1770   80.7640  221.8370 C   0  0  0  0  0  0  0  0  0  0  0  0
  142.1970   80.4620  220.5060 N   0  0  0  0  0  0  0  0  0  0  0  0
  141.6830   81.3040  219.5710 C   0  0  0  0  0  0  0  0  0  0  0  0
  141.7145   81.0279  218.5067 H   0  0  0  0  0  0  0  0  0  0  0  0
  141.1160   82.5170  219.9590 C   0  0  0  0  0  0  0  0  0  0  0  0
  140.7076   83.2062  219.2051 H   0  0  0  0  0  0  0  0  0  0  0  0
  141.0720   82.8480  221.3160 C   0  0  0  0  0  0  0  0  0  0  0  0
  140.6044   83.7900  221.6384 H   0  0  0  0  0  0  0  0  0  0  0  0
  141.6220   81.9820  222.2610 C   0  0  0  0  0  0  0  0  0  0  0  0
  141.6209   82.2506  223.3277 H   0  0  0  0  0  0  0  0  0  0  0  0
  1  2  1  0
  2  3  2  0
  3  4  1  0
  3  5  1  0
  5  6  2  0
  6  7  1  0
  7  8  2  0
  8  9  1  0
  8 10  1  0
 10 11  1  0
 10 12  2  0
 12 13  1  0
 12 14  1  0
 14 15  1  0
 14 16  2  0
 16 17  1  0
 17 18  2  0
 17 19  1  0
 19 20  1  0
 20 21  1  0
 20 22  1  0
 20 23  1  0
 23 24  1  1
 23 25  1  0
 25 26  1  0
 25 27  1  0
 25 28  1  0
 28 29  1  0
 28 30  1  0
 28 31  1  0
 31 32  1  0
 31 33  1  0
 31 34  1  0
 34 35  1  0
 34 36  1  0
 34 37  1  0
 37 38  1  0
 37 39  1  0
  2 40  1  0
 40 41  2  0
 41 42  1  0
 42 43  1  0
 42 44  2  0
 44 45  1  0
 44 46  1  0
 46 47  1  0
 46 48  2  0
 48 49  1  0
 19  5  1  0
 37 23  1  0
 48 40  1  0
 16  7  1  0
M  CHG  1  34   1
M  END
>  <UniqueID>  (50) 
434

>  <SMILES>  (50) 
O=c1c2ccc(Cl)cc2nc(/C=C/c2ccccn2)n1C[C@H]1CCC[NH2+]C1

>  <Energy>  (50) 
68.19965088154082

>  <Genealogy>  (50) 
O=c1c2ccc(Cl)cc2nc(/C=C/c2ccccn2)n1CC1CCC[NH2+]C1 (protonated)
O=c1c2ccc(Cl)cc2nc(/C=C/c2ccccn2)n1C[C@H]1CCC[NH2+]C1 (chirality)
O=c1c2ccc(Cl)cc2nc(/C=C/c2ccccn2)n1C[C@H]1CCC[NH2+]C1 (cis-trans isomerization)
O=c1c2ccc(Cl)cc2nc(/C=C/c2ccccn2)n1C[C@H]1CCC[NH2+]C1 (3D coordinates assigned)
O=c1c2ccc(Cl)cc2nc(/C=C/c2ccccn2)n1C[C@H]1CCC[NH2+]C1 (nonaromatic ring conformer: 68.19965088154082 kcal/mol)

>  <smiles>  (50) 
O=c1c2ccc(Cl)cc2nc(/C=C/c2ccccn2)n1CC1CCCNC1

>  <score_type>  (50) 
oracle

>  <origin>  (50) 
autodockgpu

>  <m_score__min__energy>  (50) 
-7.1100000000000003

>  <m_primary>  (50) 
energy

>  <meeko>  (50) 
{"free_energy": -6.6, "intermolecular_energy": -8.09, "internal_energy": -2.47, "cluster_size": 6, "cluster_id": 3, "rank_in_cluster": 5}

>  <energy>  (50) 
-6.93

>  <cluster_rmsd>  (50) 
0.61

>  <rmsd>  (50) 
271.51

>  <cluster>  (50) 
1

$$$$
MESWETRYUNDHFU-MWCBREBHNA-O
     RDKit          3D

 49 52  0  0  0  0  0  0  0  0999 V2000
  142.0227   80.2336  219.3366 H   0  0  0  0  0  0  0  0  0  0  0  0
  141.6050   79.5430  220.0840 C   0  0  0  0  0  0  0  0  0  0  0  0
  140.9120   78.4780  219.6600 C   0  0  0  0  0  0  0  0  0  0  0  0
  140.0882   78.6230  218.9457 H   0  0  0  0  0  0  0  0  0  0  0  0
  141.2300   77.1050  220.1320 C   0  0  0  0  0  0  0  0  0  0  0  0
  142.3060   76.4820  219.5820 N   0  0  0  0  0  0  0  0  0  0  0  0
  142.6650   75.2260  219.9250 C   0  0  0  0  0  0  0  0  0  0  0  0
  143.7850   74.6340  219.3320 C   0  0  0  0  0  0  0  0  0  0  0  0
  144.3745   75.1934  218.5907 H   0  0  0  0  0  0  0  0  0  0  0  0
  144.1560   73.3310  219.6810 C   0  0  0  0  0  0  0  0  0  0  0  0
  145.5580   72.5870  218.9340 Cl  0  0  0  0  0  0  0  0  0  0  0  0
  143.4080   72.6210  220.6240 C   0  0  0  0  0  0  0  0  0  0  0  0
  143.6992   71.5959  220.8965 H   0  0  0  0  0  0  0  0  0  0  0  0
  142.2900   73.2110  221.2220 C   0  0  0  0  0  0  0  0  0  0  0  0
  141.7068   72.6501  221.9672 H   0  0  0  0  0  0  0  0  0  0  0  0
  141.9080   74.5220  220.8730 C   0  0  0  0  0  0  0  0  0  0  0  0
  140.7950   75.1590  221.4420 C   0  0  0  0  0  0  0  0  0  0  0  0
  140.0990   74.5350  222.2970 O   0  0  0  0  0  0  0  0  0  0  0  0
  140.4660   76.4500  221.0820 N   0  0  0  0  0  0  0  0  0  0  0  0
  139.3030   77.1120  221.7250 C   0  0  0  0  0  0  0  0  0  0  0  0
  139.3864   76.9927  222.8153 H   0  0  0  0  0  0  0  0  0  0  0  0
  139.3168   78.1729  221.4346 H   0  0  0  0  0  0  0  0  0  0  0  0
  137.9530   76.5110  221.2600 C   0  0  1  0  0  0  0  0  0  0  0  0
  137.3000   77.3428  220.9571 H   0  0  0  0  0  0  0  0  0  0  0  0
  138.1860   75.5840  220.0420 C   0  0  0  0  0  0  0  0  0  0  0  0
  138.2677   76.1979  219.1329 H   0  0  0  0  0  0  0  0  0  0  0  0
  139.1128   75.0147  220.2065 H   0  0  0  0  0  0  0  0  0  0  0  0
  137.0300   74.5970  219.8770 C   0  0  0  0  0  0  0  0  0  0  0  0
  136.1016   75.1601  219.7013 H   0  0  0  0  0  0  0  0  0  0  0  0
  137.2566   73.9396  219.0247 H   0  0  0  0  0  0  0  0  0  0  0  0
  136.8530   73.7170  221.1340 C   0  0  0  0  0  0  0  0  0  0  0  0
  135.7778   73.5502  221.2954 H   0  0  0  0  0  0  0  0  0  0  0  0
  137.3946   72.7767  220.9536 H   0  0  0  0  0  0  0  0  0  0  0  0
  137.4230   74.3250  222.3560 N   0  0  0  0  0  0  0  0  0  0  0  0
  138.4510   74.1250  222.4090 H   0  0  0  0  0  0  0  0  0  0  0  0
  136.9690   73.8870  223.1920 H   0  0  0  0  0  0  0  0  0  0  0  0
  137.1990   75.7760  222.4030 C   0  0  0  0  0  0  0  0  0  0  0  0
  136.1215   75.9738  222.3041 H   0  0  0  0  0  0  0  0  0  0  0  0
  137.5820   76.1513  223.3634 H   0  0  0  0  0  0  0  0  0  0  0  0
  141.8300   79.8260  221.5150 C   0  0  0  0  0  0  0  0  0  0  0  0
  141.9830   78.8060  222.4080 N   0  0  0  0  0  0  0  0  0  0  0  0
  142.1680   79.0350  223.7350 C   0  0  0  0  0  0  0  0  0  0  0  0
  142.2871   78.1884  224.4272 H   0  0  0  0  0  0  0  0  0  0  0  0
  142.2070   80.3420  224.2200 C   0  0  0  0  0  0  0  0  0  0  0  0
  142.3481   80.5326  225.2941 H   0  0  0  0  0  0  0  0  0  0  0  0
  142.0650   81.4060  223.3270 C   0  0  0  0  0  0  0  0  0  0  0  0
  142.1196   82.4422  223.6922 H   0  0  0  0  0  0  0  0  0  0  0  0
  141.8540   81.1540  221.9720 C   0  0  0  0  0  0  0  0  0  0  0  0
  141.7078   81.9866  221.2681 H   0  0  0  0  0  0  0  0  0  0  0  0
  1  2  1  0
  2  3  2  0
  3  4  1  0
  3  5  1  0
  5  6  2  0
  6  7  1  0
  7  8  2  0
  8  9  1  0
  8 10  1  0
 10 11  1  0
 10 12  2  0
 12 13  1  0
 12 14  1  0
 14 15  1  0
 14 16  2  0
 16 17  1  0
 17 18  2  0
 17 19  1  0
 19 20  1  0
 20 21  1  0
 20 22  1  0
 20 23  1  0
 23 24  1  6
 23 25  1  0
 25 26  1  0
 25 27  1  0
 25 28  1  0
 28 29  1  0
 28 30  1  0
 28 31  1  0
 31 32  1  0
 31 33  1  0
 31 34  1  0
 34 35  1  0
 34 36  1  0
 34 37  1  0
 37 38  1  0
 37 39  1  0
  2 40  1  0
 40 41  2  0
 41 42  1  0
 42 43  1  0
 42 44  2  0
 44 45  1  0
 44 46  1  0
 46 47  1  0
 46 48  2  0
 48 49  1  0
 19  5  1  0
 37 23  1  0
 48 40  1  0
 16  7  1  0
M  CHG  1  34   1
M  END
>  <UniqueID>  (51) 
434

>  <SMILES>  (51) 
O=c1c2ccc(Cl)cc2nc(/C=C/c2ccccn2)n1C[C@H]1CCC[NH2+]C1

>  <Energy>  (51) 
68.19965088154082

>  <Genealogy>  (51) 
O=c1c2ccc(Cl)cc2nc(/C=C/c2ccccn2)n1CC1CCC[NH2+]C1 (protonated)
O=c1c2ccc(Cl)cc2nc(/C=C/c2ccccn2)n1C[C@H]1CCC[NH2+]C1 (chirality)
O=c1c2ccc(Cl)cc2nc(/C=C/c2ccccn2)n1C[C@H]1CCC[NH2+]C1 (cis-trans isomerization)
O=c1c2ccc(Cl)cc2nc(/C=C/c2ccccn2)n1C[C@H]1CCC[NH2+]C1 (3D coordinates assigned)
O=c1c2ccc(Cl)cc2nc(/C=C/c2ccccn2)n1C[C@H]1CCC[NH2+]C1 (nonaromatic ring conformer: 68.19965088154082 kcal/mol)

>  <smiles>  (51) 
O=c1c2ccc(Cl)cc2nc(/C=C/c2ccccn2)n1CC1CCCNC1

>  <score_type>  (51) 
oracle

>  <origin>  (51) 
autodockgpu

>  <m_score__min__energy>  (51) 
-7.1100000000000003

>  <m_primary>  (51) 
energy

>  <meeko>  (51) 
{"free_energy": -6.79, "intermolecular_energy": -8.28, "internal_energy": -2.11, "cluster_size": 1, "cluster_id": 2, "rank_in_cluster": 1}

>  <energy>  (51) 
-6.9

>  <cluster_rmsd>  (51) 
0.56

>  <rmsd>  (51) 
271.49

>  <cluster>  (51) 
1

$$$$
MESWETRYUNDHFU-MWCBREBHNA-O
     RDKit          3D

 49 52  0  0  0  0  0  0  0  0999 V2000
  140.9752   83.0745  221.2504 H   0  0  0  0  0  0  0  0  0  0  0  0
  140.8250   82.0040  221.0470 C   0  0  0  0  0  0  0  0  0  0  0  0
  140.3310   81.6380  219.8580 C   0  0  0  0  0  0  0  0  0  0  0  0
  139.4219   82.1290  219.4805 H   0  0  0  0  0  0  0  0  0  0  0  0
  140.9810   80.5840  219.0350 C   0  0  0  0  0  0  0  0  0  0  0  0
  141.4780   79.4970  219.6830 N   0  0  0  0  0  0  0  0  0  0  0  0
  142.1070   78.4950  219.0300 C   0  0  0  0  0  0  0  0  0  0  0  0
  142.5940   77.3950  219.7440 C   0  0  0  0  0  0  0  0  0  0  0  0
  142.4602   77.3447  220.8347 H   0  0  0  0  0  0  0  0  0  0  0  0
  143.2510   76.3590  219.0720 C   0  0  0  0  0  0  0  0  0  0  0  0
  143.8660   74.9820  219.9680 Cl  0  0  0  0  0  0  0  0  0  0  0  0
  143.4190   76.4220  217.6860 C   0  0  0  0  0  0  0  0  0  0  0  0
  143.9375   75.6076  217.1587 H   0  0  0  0  0  0  0  0  0  0  0  0
  142.9300   77.5170  216.9680 C   0  0  0  0  0  0  0  0  0  0  0  0
  143.0603   77.5598  215.8766 H   0  0  0  0  0  0  0  0  0  0  0  0
  142.2700   78.5670  217.6390 C   0  0  0  0  0  0  0  0  0  0  0  0
  141.7620   79.6890  216.9660 C   0  0  0  0  0  0  0  0  0  0  0  0
  141.9050   79.7710  215.7110 O   0  0  0  0  0  0  0  0  0  0  0  0
  141.1090   80.6860  217.6620 N   0  0  0  0  0  0  0  0  0  0  0  0
  140.5510   81.8460  216.9200 C   0  0  0  0  0  0  0  0  0  0  0  0
  140.1123   81.4856  215.9779 H   0  0  0  0  0  0  0  0  0  0  0  0
  139.7930   82.3219  217.5596 H   0  0  0  0  0  0  0  0  0  0  0  0
  141.6300   82.9080  216.5930 C   0  0  1  0  0  0  0  0  0  0  0  0
  141.1478   83.8963  216.6177 H   0  0  0  0  0  0  0  0  0  0  0  0
  142.7470   82.8660  217.6640 C   0  0  0  0  0  0  0  0  0  0  0  0
  142.4149   83.4238  218.5521 H   0  0  0  0  0  0  0  0  0  0  0  0
  142.9465   81.8152  217.9210 H   0  0  0  0  0  0  0  0  0  0  0  0
  144.0370   83.4910  217.1350 C   0  0  0  0  0  0  0  0  0  0  0  0
  143.8473   84.5457  216.8866 H   0  0  0  0  0  0  0  0  0  0  0  0
  144.8073   83.4045  217.9154 H   0  0  0  0  0  0  0  0  0  0  0  0
  144.5440   82.7610  215.8710 C   0  0  0  0  0  0  0  0  0  0  0  0
  144.9693   83.5068  215.1834 H   0  0  0  0  0  0  0  0  0  0  0  0
  145.2937   82.0249  216.1969 H   0  0  0  0  0  0  0  0  0  0  0  0
  143.4800   82.0200  215.1610 N   0  0  0  0  0  0  0  0  0  0  0  0
  143.3430   81.0790  215.6020 H   0  0  0  0  0  0  0  0  0  0  0  0
  143.7810   81.8670  214.1700 H   0  0  0  0  0  0  0  0  0  0  0  0
  142.2070   82.7540  215.1580 C   0  0  0  0  0  0  0  0  0  0  0  0
  142.3729   83.7541  214.7311 H   0  0  0  0  0  0  0  0  0  0  0  0
  141.4836   82.1842  214.5564 H   0  0  0  0  0  0  0  0  0  0  0  0
  141.1760   81.0260  222.0960 C   0  0  0  0  0  0  0  0  0  0  0  0
  140.2010   80.3430  222.7630 N   0  0  0  0  0  0  0  0  0  0  0  0
  140.4930   79.4540  223.7490 C   0  0  0  0  0  0  0  0  0  0  0  0
  139.6815   78.9209  224.2659 H   0  0  0  0  0  0  0  0  0  0  0  0
  141.8200   79.2170  224.1060 C   0  0  0  0  0  0  0  0  0  0  0  0
  142.0610   78.5047  224.9088 H   0  0  0  0  0  0  0  0  0  0  0  0
  142.8400   79.8940  223.4330 C   0  0  0  0  0  0  0  0  0  0  0  0
  143.8922   79.6986  223.6875 H   0  0  0  0  0  0  0  0  0  0  0  0
  142.5220   80.8180  222.4380 C   0  0  0  0  0  0  0  0  0  0  0  0
  143.3180   81.3786  221.9260 H   0  0  0  0  0  0  0  0  0  0  0  0
  1  2  1  0
  2  3  2  0
  3  4  1  0
  3  5  1  0
  5  6  2  0
  6  7  1  0
  7  8  2  0
  8  9  1  0
  8 10  1  0
 10 11  1  0
 10 12  2  0
 12 13  1  0
 12 14  1  0
 14 15  1  0
 14 16  2  0
 16 17  1  0
 17 18  2  0
 17 19  1  0
 19 20  1  0
 20 21  1  0
 20 22  1  0
 20 23  1  0
 23 24  1  6
 23 25  1  0
 25 26  1  0
 25 27  1  0
 25 28  1  0
 28 29  1  0
 28 30  1  0
 28 31  1  0
 31 32  1  0
 31 33  1  0
 31 34  1  0
 34 35  1  0
 34 36  1  0
 34 37  1  0
 37 38  1  0
 37 39  1  0
  2 40  1  0
 40 41  2  0
 41 42  1  0
 42 43  1  0
 42 44  2  0
 44 45  1  0
 44 46  1  0
 46 47  1  0
 46 48  2  0
 48 49  1  0
 19  5  1  0
 37 23  1  0
 48 40  1  0
 16  7  1  0
M  CHG  1  34   1
M  END
>  <UniqueID>  (52) 
434

>  <SMILES>  (52) 
O=c1c2ccc(Cl)cc2nc(/C=C/c2ccccn2)n1C[C@H]1CCC[NH2+]C1

>  <Energy>  (52) 
68.19965088154082

>  <Genealogy>  (52) 
O=c1c2ccc(Cl)cc2nc(/C=C/c2ccccn2)n1CC1CCC[NH2+]C1 (protonated)
O=c1c2ccc(Cl)cc2nc(/C=C/c2ccccn2)n1C[C@H]1CCC[NH2+]C1 (chirality)
O=c1c2ccc(Cl)cc2nc(/C=C/c2ccccn2)n1C[C@H]1CCC[NH2+]C1 (cis-trans isomerization)
O=c1c2ccc(Cl)cc2nc(/C=C/c2ccccn2)n1C[C@H]1CCC[NH2+]C1 (3D coordinates assigned)
O=c1c2ccc(Cl)cc2nc(/C=C/c2ccccn2)n1C[C@H]1CCC[NH2+]C1 (nonaromatic ring conformer: 68.19965088154082 kcal/mol)

>  <smiles>  (52) 
O=c1c2ccc(Cl)cc2nc(/C=C/c2ccccn2)n1CC1CCCNC1

>  <score_type>  (52) 
oracle

>  <origin>  (52) 
autodockgpu

>  <m_score__min__energy>  (52) 
-7.1100000000000003

>  <m_primary>  (52) 
energy

>  <meeko>  (52) 
{"free_energy": -7.05, "intermolecular_energy": -8.54, "internal_energy": -2.22, "cluster_size": 13, "cluster_id": 1, "rank_in_cluster": 3}

>  <energy>  (52) 
-6.89

>  <cluster_rmsd>  (52) 
0.65

>  <rmsd>  (52) 
271.45

>  <cluster>  (52) 
1

$$$$
MESWETRYUNDHFU-MWCBREBHNA-O
     RDKit          3D

 49 52  0  0  0  0  0  0  0  0999 V2000
  139.2562   82.2765  221.2488 H   0  0  0  0  0  0  0  0  0  0  0  0
  140.2200   81.8110  220.9950 C   0  0  0  0  0  0  0  0  0  0  0  0
  140.7460   82.0410  219.7860 C   0  0  0  0  0  0  0  0  0  0  0  0
  140.8168   83.0756  219.4191 H   0  0  0  0  0  0  0  0  0  0  0  0
  141.2370   80.9310  218.9270 C   0  0  0  0  0  0  0  0  0  0  0  0
  141.6650   79.7980  219.5450 N   0  0  0  0  0  0  0  0  0  0  0  0
  142.1500   78.7420  218.8560 C   0  0  0  0  0  0  0  0  0  0  0  0
  142.5730   77.5970  219.5410 C   0  0  0  0  0  0  0  0  0  0  0  0
  142.5059   77.5566  220.6382 H   0  0  0  0  0  0  0  0  0  0  0  0
  143.0810   76.5040  218.8310 C   0  0  0  0  0  0  0  0  0  0  0  0
  143.6150   75.0710  219.6910 Cl  0  0  0  0  0  0  0  0  0  0  0  0
  143.1650   76.5540  217.4370 C   0  0  0  0  0  0  0  0  0  0  0  0
  143.5661   75.6945  216.8799 H   0  0  0  0  0  0  0  0  0  0  0  0
  142.7400   77.6950  216.7490 C   0  0  0  0  0  0  0  0  0  0  0  0
  142.8042   77.7290  215.6514 H   0  0  0  0  0  0  0  0  0  0  0  0
  142.2300   78.8010  217.4570 C   0  0  0  0  0  0  0  0  0  0  0  0
  141.7920   79.9700  216.8150 C   0  0  0  0  0  0  0  0  0  0  0  0
  141.8600   80.0410  215.5530 O   0  0  0  0  0  0  0  0  0  0  0  0
  141.2850   81.0240  217.5480 N   0  0  0  0  0  0  0  0  0  0  0  0
  140.7960   82.2340  216.8400 C   0  0  0  0  0  0  0  0  0  0  0  0
  140.2601   81.9202  215.9321 H   0  0  0  0  0  0  0  0  0  0  0  0
  140.1350   82.7821  217.5275 H   0  0  0  0  0  0  0  0  0  0  0  0
  141.9500   83.1840  216.4340 C   0  0  1  0  0  0  0  0  0  0  0  0
  141.5602   84.2125  216.4505 H   0  0  0  0  0  0  0  0  0  0  0  0
  143.1080   83.0670  217.4550 C   0  0  0  0  0  0  0  0  0  0  0  0
  142.8697   83.6753  218.3400 H   0  0  0  0  0  0  0  0  0  0  0  0
  143.2234   82.0090  217.7331 H   0  0  0  0  0  0  0  0  0  0  0  0
  144.4240   83.5570  216.8520 C   0  0  0  0  0  0  0  0  0  0  0  0
  144.3199   84.6178  216.5804 H   0  0  0  0  0  0  0  0  0  0  0  0
  145.2189   83.4213  217.6002 H   0  0  0  0  0  0  0  0  0  0  0  0
  144.8020   82.7500  215.5900 C   0  0  0  0  0  0  0  0  0  0  0  0
  145.2616   83.4349  214.8621 H   0  0  0  0  0  0  0  0  0  0  0  0
  145.4945   81.9559  215.9060 H   0  0  0  0  0  0  0  0  0  0  0  0
  143.6440   82.0920  214.9490 N   0  0  0  0  0  0  0  0  0  0  0  0
  143.4420   81.1800  215.4250 H   0  0  0  0  0  0  0  0  0  0  0  0
  143.8840   81.8860  213.9510 H   0  0  0  0  0  0  0  0  0  0  0  0
  142.4440   82.9400  214.9800 C   0  0  0  0  0  0  0  0  0  0  0  0
  142.6802   83.9091  214.5163 H   0  0  0  0  0  0  0  0  0  0  0  0
  141.6447   82.4236  214.4282 H   0  0  0  0  0  0  0  0  0  0  0  0
  140.8820   80.9570  222.0020 C   0  0  0  0  0  0  0  0  0  0  0  0
  142.1560   81.2280  222.4110 N   0  0  0  0  0  0  0  0  0  0  0  0
  142.8000   80.4470  223.3180 C   0  0  0  0  0  0  0  0  0  0  0  0
  143.8264   80.6950  223.6262 H   0  0  0  0  0  0  0  0  0  0  0  0
  142.1610   79.3320  223.8580 C   0  0  0  0  0  0  0  0  0  0  0  0
  142.6812   78.6912  224.5851 H   0  0  0  0  0  0  0  0  0  0  0  0
  140.8530   79.0370  223.4660 C   0  0  0  0  0  0  0  0  0  0  0  0
  140.3279   78.1754  223.9040 H   0  0  0  0  0  0  0  0  0  0  0  0
  140.2140   79.8360  222.5190 C   0  0  0  0  0  0  0  0  0  0  0  0
  139.1966   79.5904  222.1804 H   0  0  0  0  0  0  0  0  0  0  0  0
  1  2  1  0
  2  3  2  0
  3  4  1  0
  3  5  1  0
  5  6  2  0
  6  7  1  0
  7  8  2  0
  8  9  1  0
  8 10  1  0
 10 11  1  0
 10 12  2  0
 12 13  1  0
 12 14  1  0
 14 15  1  0
 14 16  2  0
 16 17  1  0
 17 18  2  0
 17 19  1  0
 19 20  1  0
 20 21  1  0
 20 22  1  0
 20 23  1  0
 23 24  1  6
 23 25  1  0
 25 26  1  0
 25 27  1  0
 25 28  1  0
 28 29  1  0
 28 30  1  0
 28 31  1  0
 31 32  1  0
 31 33  1  0
 31 34  1  0
 34 35  1  0
 34 36  1  0
 34 37  1  0
 37 38  1  0
 37 39  1  0
  2 40  1  0
 40 41  2  0
 41 42  1  0
 42 43  1  0
 42 44  2  0
 44 45  1  0
 44 46  1  0
 46 47  1  0
 46 48  2  0
 48 49  1  0
 19  5  1  0
 37 23  1  0
 48 40  1  0
 16  7  1  0
M  CHG  1  34   1
M  END
>  <UniqueID>  (53) 
434

>  <SMILES>  (53) 
O=c1c2ccc(Cl)cc2nc(/C=C/c2ccccn2)n1C[C@H]1CCC[NH2+]C1

>  <Energy>  (53) 
68.19965088154082

>  <Genealogy>  (53) 
O=c1c2ccc(Cl)cc2nc(/C=C/c2ccccn2)n1CC1CCC[NH2+]C1 (protonated)
O=c1c2ccc(Cl)cc2nc(/C=C/c2ccccn2)n1C[C@H]1CCC[NH2+]C1 (chirality)
O=c1c2ccc(Cl)cc2nc(/C=C/c2ccccn2)n1C[C@H]1CCC[NH2+]C1 (cis-trans isomerization)
O=c1c2ccc(Cl)cc2nc(/C=C/c2ccccn2)n1C[C@H]1CCC[NH2+]C1 (3D coordinates assigned)
O=c1c2ccc(Cl)cc2nc(/C=C/c2ccccn2)n1C[C@H]1CCC[NH2+]C1 (nonaromatic ring conformer: 68.19965088154082 kcal/mol)

>  <smiles>  (53) 
O=c1c2ccc(Cl)cc2nc(/C=C/c2ccccn2)n1CC1CCCNC1

>  <score_type>  (53) 
oracle

>  <origin>  (53) 
autodockgpu

>  <m_score__min__energy>  (53) 
-7.1100000000000003

>  <m_primary>  (53) 
energy

>  <meeko>  (53) 
{"free_energy": -6.9, "intermolecular_energy": -8.39, "internal_energy": -2.17, "cluster_size": 13, "cluster_id": 1, "rank_in_cluster": 11}

>  <energy>  (53) 
-6.84

>  <cluster_rmsd>  (53) 
0.74

>  <rmsd>  (53) 
271.37

>  <cluster>  (53) 
1

$$$$
MESWETRYUNDHFU-MWCBREBHNA-O
     RDKit          3D

 49 52  0  0  0  0  0  0  0  0999 V2000
  140.8842   83.0456  221.2180 H   0  0  0  0  0  0  0  0  0  0  0  0
  140.7530   81.9660  221.0530 C   0  0  0  0  0  0  0  0  0  0  0  0
  140.2530   81.5500  219.8820 C   0  0  0  0  0  0  0  0  0  0  0  0
  139.3195   81.9957  219.5079 H   0  0  0  0  0  0  0  0  0  0  0  0
  140.9300   80.5000  219.0760 C   0  0  0  0  0  0  0  0  0  0  0  0
  141.4360   79.4250  219.7380 N   0  0  0  0  0  0  0  0  0  0  0  0
  142.0880   78.4290  219.1010 C   0  0  0  0  0  0  0  0  0  0  0  0
  142.5840   77.3420  219.8290 C   0  0  0  0  0  0  0  0  0  0  0  0
  142.4383   77.2980  220.9184 H   0  0  0  0  0  0  0  0  0  0  0  0
  143.2650   76.3110  219.1730 C   0  0  0  0  0  0  0  0  0  0  0  0
  143.8910   74.9510  220.0870 Cl  0  0  0  0  0  0  0  0  0  0  0  0
  143.4490   76.3660  217.7890 C   0  0  0  0  0  0  0  0  0  0  0  0
  143.9869   75.5562  217.2743 H   0  0  0  0  0  0  0  0  0  0  0  0
  142.9510   77.4480  217.0570 C   0  0  0  0  0  0  0  0  0  0  0  0
  143.0942   77.4847  215.9670 H   0  0  0  0  0  0  0  0  0  0  0  0
  142.2660   78.4920  217.7110 C   0  0  0  0  0  0  0  0  0  0  0  0
  141.7490   79.6010  217.0230 C   0  0  0  0  0  0  0  0  0  0  0  0
  141.9040   79.6750  215.7690 O   0  0  0  0  0  0  0  0  0  0  0  0
  141.0720   80.5920  217.7040 N   0  0  0  0  0  0  0  0  0  0  0  0
  140.5040   81.7370  216.9460 C   0  0  0  0  0  0  0  0  0  0  0  0
  140.1028   81.3652  215.9916 H   0  0  0  0  0  0  0  0  0  0  0  0
  139.7153   82.1913  217.5637 H   0  0  0  0  0  0  0  0  0  0  0  0
  141.5620   82.8290  216.6500 C   0  0  1  0  0  0  0  0  0  0  0  0
  141.0565   83.8053  216.6854 H   0  0  0  0  0  0  0  0  0  0  0  0
  142.6680   82.7930  217.7340 C   0  0  0  0  0  0  0  0  0  0  0  0
  142.3136   83.3281  218.6274 H   0  0  0  0  0  0  0  0  0  0  0  0
  142.8877   81.7426  217.9755 H   0  0  0  0  0  0  0  0  0  0  0  0
  143.9500   83.4550  217.2310 C   0  0  0  0  0  0  0  0  0  0  0  0
  143.7402   84.5095  216.9988 H   0  0  0  0  0  0  0  0  0  0  0  0
  144.7131   83.3713  218.0188 H   0  0  0  0  0  0  0  0  0  0  0  0
  144.4870   82.7590  215.9610 C   0  0  0  0  0  0  0  0  0  0  0  0
  144.9035   83.5261  215.2916 H   0  0  0  0  0  0  0  0  0  0  0  0
  145.2488   82.0338  216.2831 H   0  0  0  0  0  0  0  0  0  0  0  0
  143.4480   82.0070  215.2250 N   0  0  0  0  0  0  0  0  0  0  0  0
  143.3270   81.0560  215.6490 H   0  0  0  0  0  0  0  0  0  0  0  0
  143.7650   81.8780  214.2350 H   0  0  0  0  0  0  0  0  0  0  0  0
  142.1600   82.7130  215.2200 C   0  0  0  0  0  0  0  0  0  0  0  0
  142.3093   83.7240  214.8130 H   0  0  0  0  0  0  0  0  0  0  0  0
  141.4565   82.1381  214.5999 H   0  0  0  0  0  0  0  0  0  0  0  0
  141.1350   81.0320  222.1310 C   0  0  0  0  0  0  0  0  0  0  0  0
  140.1810   80.3570  222.8340 N   0  0  0  0  0  0  0  0  0  0  0  0
  140.5000   79.5090  223.8470 C   0  0  0  0  0  0  0  0  0  0  0  0
  139.7043   78.9808  224.3928 H   0  0  0  0  0  0  0  0  0  0  0  0
  141.8360   79.3080  224.1950 C   0  0  0  0  0  0  0  0  0  0  0  0
  142.0995   78.6297  225.0199 H   0  0  0  0  0  0  0  0  0  0  0  0
  142.8350   79.9770  223.4850 C   0  0  0  0  0  0  0  0  0  0  0  0
  143.8935   79.8080  223.7320 H   0  0  0  0  0  0  0  0  0  0  0  0
  142.4890   80.8600  222.4620 C   0  0  0  0  0  0  0  0  0  0  0  0
  143.2685   81.4158  221.9202 H   0  0  0  0  0  0  0  0  0  0  0  0
  1  2  1  0
  2  3  2  0
  3  4  1  0
  3  5  1  0
  5  6  2  0
  6  7  1  0
  7  8  2  0
  8  9  1  0
  8 10  1  0
 10 11  1  0
 10 12  2  0
 12 13  1  0
 12 14  1  0
 14 15  1  0
 14 16  2  0
 16 17  1  0
 17 18  2  0
 17 19  1  0
 19 20  1  0
 20 21  1  0
 20 22  1  0
 20 23  1  0
 23 24  1  6
 23 25  1  0
 25 26  1  0
 25 27  1  0
 25 28  1  0
 28 29  1  0
 28 30  1  0
 28 31  1  0
 31 32  1  0
 31 33  1  0
 31 34  1  0
 34 35  1  0
 34 36  1  0
 34 37  1  0
 37 38  1  0
 37 39  1  0
  2 40  1  0
 40 41  2  0
 41 42  1  0
 42 43  1  0
 42 44  2  0
 44 45  1  0
 44 46  1  0
 46 47  1  0
 46 48  2  0
 48 49  1  0
 19  5  1  0
 37 23  1  0
 48 40  1  0
 16  7  1  0
M  CHG  1  34   1
M  END
>  <UniqueID>  (54) 
434

>  <SMILES>  (54) 
O=c1c2ccc(Cl)cc2nc(/C=C/c2ccccn2)n1C[C@H]1CCC[NH2+]C1

>  <Energy>  (54) 
68.19965088154082

>  <Genealogy>  (54) 
O=c1c2ccc(Cl)cc2nc(/C=C/c2ccccn2)n1CC1CCC[NH2+]C1 (protonated)
O=c1c2ccc(Cl)cc2nc(/C=C/c2ccccn2)n1C[C@H]1CCC[NH2+]C1 (chirality)
O=c1c2ccc(Cl)cc2nc(/C=C/c2ccccn2)n1C[C@H]1CCC[NH2+]C1 (cis-trans isomerization)
O=c1c2ccc(Cl)cc2nc(/C=C/c2ccccn2)n1C[C@H]1CCC[NH2+]C1 (3D coordinates assigned)
O=c1c2ccc(Cl)cc2nc(/C=C/c2ccccn2)n1C[C@H]1CCC[NH2+]C1 (nonaromatic ring conformer: 68.19965088154082 kcal/mol)

>  <smiles>  (54) 
O=c1c2ccc(Cl)cc2nc(/C=C/c2ccccn2)n1CC1CCCNC1

>  <score_type>  (54) 
oracle

>  <origin>  (54) 
autodockgpu

>  <m_score__min__energy>  (54) 
-7.1100000000000003

>  <m_primary>  (54) 
energy

>  <meeko>  (54) 
{"free_energy": -7.04, "intermolecular_energy": -8.53, "internal_energy": -2.22, "cluster_size": 13, "cluster_id": 1, "rank_in_cluster": 7}

>  <energy>  (54) 
-6.79

>  <cluster_rmsd>  (54) 
0.0

>  <rmsd>  (54) 
271.72

>  <cluster>  (54) 
2

$$$$
MESWETRYUNDHFU-MWCBREBHNA-O
     RDKit          3D

 49 52  0  0  0  0  0  0  0  0999 V2000
  140.6476   83.1009  221.2299 H   0  0  0  0  0  0  0  0  0  0  0  0
  140.6380   82.0210  221.0210 C   0  0  0  0  0  0  0  0  0  0  0  0
  140.1400   81.5960  219.8530 C   0  0  0  0  0  0  0  0  0  0  0  0
  139.1948   82.0221  219.4855 H   0  0  0  0  0  0  0  0  0  0  0  0
  140.8340   80.5620  219.0410 C   0  0  0  0  0  0  0  0  0  0  0  0
  141.3550   79.4910  219.6970 N   0  0  0  0  0  0  0  0  0  0  0  0
  142.0240   78.5090  219.0550 C   0  0  0  0  0  0  0  0  0  0  0  0
  142.5350   77.4250  219.7760 C   0  0  0  0  0  0  0  0  0  0  0  0
  142.3877   77.3714  220.8648 H   0  0  0  0  0  0  0  0  0  0  0  0
  143.2330   76.4090  219.1150 C   0  0  0  0  0  0  0  0  0  0  0  0
  143.8780   75.0520  220.0210 Cl  0  0  0  0  0  0  0  0  0  0  0  0
  143.4190   76.4760  217.7310 C   0  0  0  0  0  0  0  0  0  0  0  0
  143.9702   75.6779  217.2121 H   0  0  0  0  0  0  0  0  0  0  0  0
  142.9060   77.5550  217.0050 C   0  0  0  0  0  0  0  0  0  0  0  0
  143.0503   77.6014  215.9155 H   0  0  0  0  0  0  0  0  0  0  0  0
  142.2040   78.5840  217.6660 C   0  0  0  0  0  0  0  0  0  0  0  0
  141.6710   79.6900  216.9840 C   0  0  0  0  0  0  0  0  0  0  0  0
  141.8280   79.7750  215.7310 O   0  0  0  0  0  0  0  0  0  0  0  0
  140.9780   80.6660  217.6700 N   0  0  0  0  0  0  0  0  0  0  0  0
  140.3940   81.8070  216.9190 C   0  0  0  0  0  0  0  0  0  0  0  0
  139.9925   81.4343  215.9652 H   0  0  0  0  0  0  0  0  0  0  0  0
  139.6032   82.2504  217.5419 H   0  0  0  0  0  0  0  0  0  0  0  0
  141.4390   82.9120  216.6220 C   0  0  1  0  0  0  0  0  0  0  0  0
  140.8932   83.8436  216.4119 H   0  0  0  0  0  0  0  0  0  0  0  0
  142.3420   83.1240  217.8620 C   0  0  0  0  0  0  0  0  0  0  0  0
  141.8160   83.7653  218.5845 H   0  0  0  0  0  0  0  0  0  0  0  0
  142.5624   82.1423  218.3066 H   0  0  0  0  0  0  0  0  0  0  0  0
  143.6620   83.7890  217.4720 C   0  0  0  0  0  0  0  0  0  0  0  0
  143.4498   84.7765  217.0362 H   0  0  0  0  0  0  0  0  0  0  0  0
  144.2807   83.8851  218.3764 H   0  0  0  0  0  0  0  0  0  0  0  0
  144.4390   82.9420  216.4410 C   0  0  0  0  0  0  0  0  0  0  0  0
  144.9312   83.6220  215.7301 H   0  0  0  0  0  0  0  0  0  0  0  0
  145.1639   82.3319  216.9999 H   0  0  0  0  0  0  0  0  0  0  0  0
  143.5770   82.0120  215.6810 N   0  0  0  0  0  0  0  0  0  0  0  0
  143.4260   81.1330  216.2320 H   0  0  0  0  0  0  0  0  0  0  0  0
  144.0640   81.7530  214.7910 H   0  0  0  0  0  0  0  0  0  0  0  0
  142.2790   82.6160  215.3480 C   0  0  0  0  0  0  0  0  0  0  0  0
  142.4524   83.5587  214.8083 H   0  0  0  0  0  0  0  0  0  0  0  0
  141.7185   81.9029  214.7257 H   0  0  0  0  0  0  0  0  0  0  0  0
  141.1750   81.0960  222.0400 C   0  0  0  0  0  0  0  0  0  0  0  0
  142.5220   80.9270  222.1810 N   0  0  0  0  0  0  0  0  0  0  0  0
  143.0450   80.0670  223.0930 C   0  0  0  0  0  0  0  0  0  0  0  0
  144.1359   79.9564  223.1810 H   0  0  0  0  0  0  0  0  0  0  0  0
  142.2010   79.3240  223.9180 C   0  0  0  0  0  0  0  0  0  0  0  0
  142.6196   78.6189  224.6512 H   0  0  0  0  0  0  0  0  0  0  0  0
  140.8180   79.4850  223.8030 C   0  0  0  0  0  0  0  0  0  0  0  0
  140.1413   78.9251  224.4653 H   0  0  0  0  0  0  0  0  0  0  0  0
  140.2970   80.3560  222.8480 C   0  0  0  0  0  0  0  0  0  0  0  0
  139.2087   80.4627  222.7284 H   0  0  0  0  0  0  0  0  0  0  0  0
  1  2  1  0
  2  3  2  0
  3  4  1  0
  3  5  1  0
  5  6  2  0
  6  7  1  0
  7  8  2  0
  8  9  1  0
  8 10  1  0
 10 11  1  0
 10 12  2  0
 12 13  1  0
 12 14  1  0
 14 15  1  0
 14 16  2  0
 16 17  1  0
 17 18  2  0
 17 19  1  0
 19 20  1  0
 20 21  1  0
 20 22  1  0
 20 23  1  0
 23 24  1  6
 23 25  1  0
 25 26  1  0
 25 27  1  0
 25 28  1  0
 28 29  1  0
 28 30  1  0
 28 31  1  0
 31 32  1  0
 31 33  1  0
 31 34  1  0
 34 35  1  0
 34 36  1  0
 34 37  1  0
 37 38  1  0
 37 39  1  0
  2 40  1  0
 40 41  2  0
 41 42  1  0
 42 43  1  0
 42 44  2  0
 44 45  1  0
 44 46  1  0
 46 47  1  0
 46 48  2  0
 48 49  1  0
 19  5  1  0
 37 23  1  0
 48 40  1  0
 16  7  1  0
M  CHG  1  34   1
M  END
>  <UniqueID>  (55) 
434

>  <SMILES>  (55) 
O=c1c2ccc(Cl)cc2nc(/C=C/c2ccccn2)n1C[C@H]1CCC[NH2+]C1

>  <Energy>  (55) 
68.19965088154082

>  <Genealogy>  (55) 
O=c1c2ccc(Cl)cc2nc(/C=C/c2ccccn2)n1CC1CCC[NH2+]C1 (protonated)
O=c1c2ccc(Cl)cc2nc(/C=C/c2ccccn2)n1C[C@H]1CCC[NH2+]C1 (chirality)
O=c1c2ccc(Cl)cc2nc(/C=C/c2ccccn2)n1C[C@H]1CCC[NH2+]C1 (cis-trans isomerization)
O=c1c2ccc(Cl)cc2nc(/C=C/c2ccccn2)n1C[C@H]1CCC[NH2+]C1 (3D coordinates assigned)
O=c1c2ccc(Cl)cc2nc(/C=C/c2ccccn2)n1C[C@H]1CCC[NH2+]C1 (nonaromatic ring conformer: 68.19965088154082 kcal/mol)

>  <smiles>  (55) 
O=c1c2ccc(Cl)cc2nc(/C=C/c2ccccn2)n1CC1CCCNC1

>  <score_type>  (55) 
oracle

>  <origin>  (55) 
autodockgpu

>  <m_score__min__energy>  (55) 
-7.1100000000000003

>  <m_primary>  (55) 
energy

>  <meeko>  (55) 
{"free_energy": -7.11, "intermolecular_energy": -8.6, "internal_energy": -2.19, "cluster_size": 13, "cluster_id": 1, "rank_in_cluster": 1}

>  <energy>  (55) 
-6.61

>  <cluster_rmsd>  (55) 
0.0

>  <rmsd>  (55) 
272.74

>  <cluster>  (55) 
3

$$$$
MESWETRYUNDHFU-MWCBREBHNA-O
     RDKit          3D

 49 52  0  0  0  0  0  0  0  0999 V2000
  140.3766   82.8363  221.0794 H   0  0  0  0  0  0  0  0  0  0  0  0
  140.4610   81.7530  220.9080 C   0  0  0  0  0  0  0  0  0  0  0  0
  140.0130   81.2480  219.7520 C   0  0  0  0  0  0  0  0  0  0  0  0
  139.0333   81.5704  219.3697 H   0  0  0  0  0  0  0  0  0  0  0  0
  140.8070   80.2620  218.9720 C   0  0  0  0  0  0  0  0  0  0  0  0
  141.3190   79.1950  219.6420 N   0  0  0  0  0  0  0  0  0  0  0  0
  142.0730   78.2560  219.0320 C   0  0  0  0  0  0  0  0  0  0  0  0
  142.5700   77.1750  219.7660 C   0  0  0  0  0  0  0  0  0  0  0  0
  142.3427   77.0886  220.8388 H   0  0  0  0  0  0  0  0  0  0  0  0
  143.3560   76.2030  219.1380 C   0  0  0  0  0  0  0  0  0  0  0  0
  143.9850   74.8490  220.0610 Cl  0  0  0  0  0  0  0  0  0  0  0  0
  143.6430   76.3110  217.7740 C   0  0  0  0  0  0  0  0  0  0  0  0
  144.2626   75.5472  217.2812 H   0  0  0  0  0  0  0  0  0  0  0  0
  143.1440   77.3880  217.0350 C   0  0  0  0  0  0  0  0  0  0  0  0
  143.3688   77.4673  215.9611 H   0  0  0  0  0  0  0  0  0  0  0  0
  142.3540   78.3720  217.6620 C   0  0  0  0  0  0  0  0  0  0  0  0
  141.8310   79.4740  216.9670 C   0  0  0  0  0  0  0  0  0  0  0  0
  142.0780   79.5960  215.7310 O   0  0  0  0  0  0  0  0  0  0  0  0
  141.0490   80.4060  217.6190 N   0  0  0  0  0  0  0  0  0  0  0  0
  140.4790   81.5420  216.8500 C   0  0  0  0  0  0  0  0  0  0  0  0
  140.1592   81.1761  215.8632 H   0  0  0  0  0  0  0  0  0  0  0  0
  139.6309   81.9446  217.4233 H   0  0  0  0  0  0  0  0  0  0  0  0
  141.5020   82.6880  216.6490 C   0  0  1  0  0  0  0  0  0  0  0  0
  140.9600   83.6414  216.7341 H   0  0  0  0  0  0  0  0  0  0  0  0
  142.5850   82.6220  217.7540 C   0  0  0  0  0  0  0  0  0  0  0  0
  142.1917   83.0850  218.6710 H   0  0  0  0  0  0  0  0  0  0  0  0
  142.8388   81.5667  217.9329 H   0  0  0  0  0  0  0  0  0  0  0  0
  143.8520   83.3610  217.3250 C   0  0  0  0  0  0  0  0  0  0  0  0
  143.6078   84.4199  217.1541 H   0  0  0  0  0  0  0  0  0  0  0  0
  144.6004   83.2560  218.1243 H   0  0  0  0  0  0  0  0  0  0  0  0
  144.4420   82.7660  216.0270 C   0  0  0  0  0  0  0  0  0  0  0  0
  144.8444   83.5881  215.4170 H   0  0  0  0  0  0  0  0  0  0  0  0
  145.2228   82.0493  216.3215 H   0  0  0  0  0  0  0  0  0  0  0  0
  143.4480   82.0260  215.2210 N   0  0  0  0  0  0  0  0  0  0  0  0
  143.3530   81.0460  215.5810 H   0  0  0  0  0  0  0  0  0  0  0  0
  143.7900   81.9710  214.2330 H   0  0  0  0  0  0  0  0  0  0  0  0
  142.1350   82.6840  215.2290 C   0  0  0  0  0  0  0  0  0  0  0  0
  142.2551   83.7233  214.8894 H   0  0  0  0  0  0  0  0  0  0  0  0
  141.4671   82.1244  214.5576 H   0  0  0  0  0  0  0  0  0  0  0  0
  141.0640   80.9130  221.9620 C   0  0  0  0  0  0  0  0  0  0  0  0
  140.2730   80.2040  222.8190 N   0  0  0  0  0  0  0  0  0  0  0  0
  140.7980   79.4400  223.8140 C   0  0  0  0  0  0  0  0  0  0  0  0
  140.1316   78.8814  224.4877 H   0  0  0  0  0  0  0  0  0  0  0  0
  142.1800   79.3640  223.9810 C   0  0  0  0  0  0  0  0  0  0  0  0
  142.6092   78.7543  224.7897 H   0  0  0  0  0  0  0  0  0  0  0  0
  143.0140   80.0700  223.1110 C   0  0  0  0  0  0  0  0  0  0  0  0
  144.1067   79.9984  223.2158 H   0  0  0  0  0  0  0  0  0  0  0  0
  142.4590   80.8660  222.1090 C   0  0  0  0  0  0  0  0  0  0  0  0
  143.1081   81.4510  221.4408 H   0  0  0  0  0  0  0  0  0  0  0  0
  1  2  1  0
  2  3  2  0
  3  4  1  0
  3  5  1  0
  5  6  2  0
  6  7  1  0
  7  8  2  0
  8  9  1  0
  8 10  1  0
 10 11  1  0
 10 12  2  0
 12 13  1  0
 12 14  1  0
 14 15  1  0
 14 16  2  0
 16 17  1  0
 17 18  2  0
 17 19  1  0
 19 20  1  0
 20 21  1  0
 20 22  1  0
 20 23  1  0
 23 24  1  1
 23 25  1  0
 25 26  1  0
 25 27  1  0
 25 28  1  0
 28 29  1  0
 28 30  1  0
 28 31  1  0
 31 32  1  0
 31 33  1  0
 31 34  1  0
 34 35  1  0
 34 36  1  0
 34 37  1  0
 37 38  1  0
 37 39  1  0
  2 40  1  0
 40 41  2  0
 41 42  1  0
 42 43  1  0
 42 44  2  0
 44 45  1  0
 44 46  1  0
 46 47  1  0
 46 48  2  0
 48 49  1  0
 19  5  1  0
 37 23  1  0
 48 40  1  0
 16  7  1  0
M  CHG  1  34   1
M  END
>  <UniqueID>  (56) 
434

>  <SMILES>  (56) 
O=c1c2ccc(Cl)cc2nc(/C=C/c2ccccn2)n1C[C@H]1CCC[NH2+]C1

>  <Energy>  (56) 
68.19965088154082

>  <Genealogy>  (56) 
O=c1c2ccc(Cl)cc2nc(/C=C/c2ccccn2)n1CC1CCC[NH2+]C1 (protonated)
O=c1c2ccc(Cl)cc2nc(/C=C/c2ccccn2)n1C[C@H]1CCC[NH2+]C1 (chirality)
O=c1c2ccc(Cl)cc2nc(/C=C/c2ccccn2)n1C[C@H]1CCC[NH2+]C1 (cis-trans isomerization)
O=c1c2ccc(Cl)cc2nc(/C=C/c2ccccn2)n1C[C@H]1CCC[NH2+]C1 (3D coordinates assigned)
O=c1c2ccc(Cl)cc2nc(/C=C/c2ccccn2)n1C[C@H]1CCC[NH2+]C1 (nonaromatic ring conformer: 68.19965088154082 kcal/mol)

>  <smiles>  (56) 
O=c1c2ccc(Cl)cc2nc(/C=C/c2ccccn2)n1CC1CCCNC1

>  <score_type>  (56) 
oracle

>  <origin>  (56) 
autodockgpu

>  <m_score__min__energy>  (56) 
-7.1100000000000003

>  <m_primary>  (56) 
energy

>  <meeko>  (56) 
{"free_energy": -6.93, "intermolecular_energy": -8.42, "internal_energy": -2.29, "cluster_size": 13, "cluster_id": 1, "rank_in_cluster": 10}

>  <energy>  (56) 
-6.61

>  <cluster_rmsd>  (56) 
0.06

>  <rmsd>  (56) 
272.76

>  <cluster>  (56) 
3

$$$$
MESWETRYUNDHFU-MWCBREBHNA-O
     RDKit          3D

 49 52  0  0  0  0  0  0  0  0999 V2000
  143.7509   79.9353  223.2444 H   0  0  0  0  0  0  0  0  0  0  0  0
  142.7120   79.7910  222.9130 C   0  0  0  0  0  0  0  0  0  0  0  0
  142.0030   78.7850  223.4400 C   0  0  0  0  0  0  0  0  0  0  0  0
  142.5252   77.9957  224.0006 H   0  0  0  0  0  0  0  0  0  0  0  0
  140.5260   78.7100  223.2850 C   0  0  0  0  0  0  0  0  0  0  0  0
  139.7900   79.7570  223.7440 N   0  0  0  0  0  0  0  0  0  0  0  0
  138.4410   79.7750  223.6710 C   0  0  0  0  0  0  0  0  0  0  0  0
  137.7320   80.8800  224.1520 C   0  0  0  0  0  0  0  0  0  0  0  0
  138.2733   81.7344  224.5843 H   0  0  0  0  0  0  0  0  0  0  0  0
  136.3350   80.9000  224.0840 C   0  0  0  0  0  0  0  0  0  0  0  0
  135.4450   82.2850  224.6930 Cl  0  0  0  0  0  0  0  0  0  0  0  0
  135.6470   79.8160  223.5330 C   0  0  0  0  0  0  0  0  0  0  0  0
  134.5483   79.8319  223.4822 H   0  0  0  0  0  0  0  0  0  0  0  0
  136.3520   78.7110  223.0460 C   0  0  0  0  0  0  0  0  0  0  0  0
  135.8070   77.8618  222.6081 H   0  0  0  0  0  0  0  0  0  0  0  0
  137.7600   78.6830  223.1150 C   0  0  0  0  0  0  0  0  0  0  0  0
  138.5150   77.5980  222.6430 C   0  0  0  0  0  0  0  0  0  0  0  0
  137.9150   76.6020  222.1410 O   0  0  0  0  0  0  0  0  0  0  0  0
  139.8930   77.6190  222.7160 N   0  0  0  0  0  0  0  0  0  0  0  0
  140.6690   76.4730  222.1770 C   0  0  0  0  0  0  0  0  0  0  0  0
  141.7052   76.5459  222.5390 H   0  0  0  0  0  0  0  0  0  0  0  0
  140.1865   75.5472  222.5236 H   0  0  0  0  0  0  0  0  0  0  0  0
  140.6830   76.4490  220.6290 C   0  0  1  0  0  0  0  0  0  0  0  0
  140.1359   75.5528  220.3012 H   0  0  0  0  0  0  0  0  0  0  0  0
  139.9660   77.7070  220.0800 C   0  0  0  0  0  0  0  0  0  0  0  0
  138.8788   77.5422  220.1079 H   0  0  0  0  0  0  0  0  0  0  0  0
  140.2416   78.5684  220.7061 H   0  0  0  0  0  0  0  0  0  0  0  0
  140.3910   77.9960  218.6400 C   0  0  0  0  0  0  0  0  0  0  0  0
  140.1084   77.1428  218.0057 H   0  0  0  0  0  0  0  0  0  0  0  0
  139.8850   78.9147  218.3083 H   0  0  0  0  0  0  0  0  0  0  0  0
  141.9160   78.2170  218.5340 C   0  0  0  0  0  0  0  0  0  0  0  0
  142.2685   77.7733  217.5912 H   0  0  0  0  0  0  0  0  0  0  0  0
  142.0917   79.3022  218.5721 H   0  0  0  0  0  0  0  0  0  0  0  0
  142.6730   77.6110  219.6500 N   0  0  0  0  0  0  0  0  0  0  0  0
  142.6750   78.2580  220.4740 H   0  0  0  0  0  0  0  0  0  0  0  0
  143.6660   77.4740  219.3470 H   0  0  0  0  0  0  0  0  0  0  0  0
  142.1180   76.3090  220.0450 C   0  0  0  0  0  0  0  0  0  0  0  0
  142.0812   75.6543  219.1618 H   0  0  0  0  0  0  0  0  0  0  0  0
  142.7657   75.8823  220.8250 H   0  0  0  0  0  0  0  0  0  0  0  0
  142.1550   80.7140  221.9050 C   0  0  0  0  0  0  0  0  0  0  0  0
  142.1850   80.3940  220.5790 N   0  0  0  0  0  0  0  0  0  0  0  0
  141.7000   81.2330  219.6260 C   0  0  0  0  0  0  0  0  0  0  0  0
  141.7389   80.9417  218.5660 H   0  0  0  0  0  0  0  0  0  0  0  0
  141.1530   82.4630  219.9910 C   0  0  0  0  0  0  0  0  0  0  0  0
  140.7689   83.1503  219.2228 H   0  0  0  0  0  0  0  0  0  0  0  0
  141.0980   82.8130  221.3420 C   0  0  0  0  0  0  0  0  0  0  0  0
  140.6447   83.7682  221.6456 H   0  0  0  0  0  0  0  0  0  0  0  0
  141.6190   81.9490  222.3060 C   0  0  0  0  0  0  0  0  0  0  0  0
  141.6101   82.2321  223.3689 H   0  0  0  0  0  0  0  0  0  0  0  0
  1  2  1  0
  2  3  2  0
  3  4  1  0
  3  5  1  0
  5  6  2  0
  6  7  1  0
  7  8  2  0
  8  9  1  0
  8 10  1  0
 10 11  1  0
 10 12  2  0
 12 13  1  0
 12 14  1  0
 14 15  1  0
 14 16  2  0
 16 17  1  0
 17 18  2  0
 17 19  1  0
 19 20  1  0
 20 21  1  0
 20 22  1  0
 20 23  1  0
 23 24  1  6
 23 25  1  0
 25 26  1  0
 25 27  1  0
 25 28  1  0
 28 29  1  0
 28 30  1  0
 28 31  1  0
 31 32  1  0
 31 33  1  0
 31 34  1  0
 34 35  1  0
 34 36  1  0
 34 37  1  0
 37 38  1  0
 37 39  1  0
  2 40  1  0
 40 41  2  0
 41 42  1  0
 42 43  1  0
 42 44  2  0
 44 45  1  0
 44 46  1  0
 46 47  1  0
 46 48  2  0
 48 49  1  0
 19  5  1  0
 37 23  1  0
 48 40  1  0
 16  7  1  0
M  CHG  1  34   1
M  END
>  <UniqueID>  (57) 
434

>  <SMILES>  (57) 
O=c1c2ccc(Cl)cc2nc(/C=C/c2ccccn2)n1C[C@H]1CCC[NH2+]C1

>  <Energy>  (57) 
68.19965088154082

>  <Genealogy>  (57) 
O=c1c2ccc(Cl)cc2nc(/C=C/c2ccccn2)n1CC1CCC[NH2+]C1 (protonated)
O=c1c2ccc(Cl)cc2nc(/C=C/c2ccccn2)n1C[C@H]1CCC[NH2+]C1 (chirality)
O=c1c2ccc(Cl)cc2nc(/C=C/c2ccccn2)n1C[C@H]1CCC[NH2+]C1 (cis-trans isomerization)
O=c1c2ccc(Cl)cc2nc(/C=C/c2ccccn2)n1C[C@H]1CCC[NH2+]C1 (3D coordinates assigned)
O=c1c2ccc(Cl)cc2nc(/C=C/c2ccccn2)n1C[C@H]1CCC[NH2+]C1 (nonaromatic ring conformer: 68.19965088154082 kcal/mol)

>  <smiles>  (57) 
O=c1c2ccc(Cl)cc2nc(/C=C/c2ccccn2)n1CC1CCCNC1

>  <score_type>  (57) 
oracle

>  <origin>  (57) 
autodockgpu

>  <m_score__min__energy>  (57) 
-7.1100000000000003

>  <m_primary>  (57) 
energy

>  <meeko>  (57) 
{"free_energy": -6.6, "intermolecular_energy": -8.09, "internal_energy": -2.47, "cluster_size": 6, "cluster_id": 3, "rank_in_cluster": 4}

>  <energy>  (57) 
-6.6

>  <cluster_rmsd>  (57) 
0.15

>  <rmsd>  (57) 
272.69

>  <cluster>  (57) 
3

$$$$
MESWETRYUNDHFU-MWCBREBHNA-O
     RDKit          3D

 49 52  0  0  0  0  0  0  0  0999 V2000
  140.8986   83.0315  221.2149 H   0  0  0  0  0  0  0  0  0  0  0  0
  140.7540   81.9540  221.0470 C   0  0  0  0  0  0  0  0  0  0  0  0
  140.2440   81.5480  219.8780 C   0  0  0  0  0  0  0  0  0  0  0  0
  139.3057   81.9947  219.5174 H   0  0  0  0  0  0  0  0  0  0  0  0
  140.9160   80.5070  219.0550 C   0  0  0  0  0  0  0  0  0  0  0  0
  141.4280   79.4260  219.7010 N   0  0  0  0  0  0  0  0  0  0  0  0
  142.0760   78.4380  219.0480 C   0  0  0  0  0  0  0  0  0  0  0  0
  142.5790   77.3440  219.7600 C   0  0  0  0  0  0  0  0  0  0  0  0
  142.4411   77.2875  220.8498 H   0  0  0  0  0  0  0  0  0  0  0  0
  143.2570   76.3220  219.0880 C   0  0  0  0  0  0  0  0  0  0  0  0
  143.8920   74.9520  219.9820 Cl  0  0  0  0  0  0  0  0  0  0  0  0
  143.4300   76.3920  217.7030 C   0  0  0  0  0  0  0  0  0  0  0  0
  143.9648   75.5883  217.1756 H   0  0  0  0  0  0  0  0  0  0  0  0
  142.9250   77.4810  216.9860 C   0  0  0  0  0  0  0  0  0  0  0  0
  143.0595   77.5301  215.8953 H   0  0  0  0  0  0  0  0  0  0  0  0
  142.2440   78.5160  217.6580 C   0  0  0  0  0  0  0  0  0  0  0  0
  141.7200   79.6320  216.9860 C   0  0  0  0  0  0  0  0  0  0  0  0
  141.8650   79.7200  215.7320 O   0  0  0  0  0  0  0  0  0  0  0  0
  141.0470   80.6150  217.6820 N   0  0  0  0  0  0  0  0  0  0  0  0
  140.4720   81.7680  216.9420 C   0  0  0  0  0  0  0  0  0  0  0  0
  140.0471   81.4040  215.9949 H   0  0  0  0  0  0  0  0  0  0  0  0
  139.7007   82.2256  217.5789 H   0  0  0  0  0  0  0  0  0  0  0  0
  141.5320   82.8530  216.6280 C   0  0  1  0  0  0  0  0  0  0  0  0
  141.0301   83.8315  216.6549 H   0  0  0  0  0  0  0  0  0  0  0  0
  142.6430   82.8260  217.7060 C   0  0  0  0  0  0  0  0  0  0  0  0
  142.2947   83.3720  218.5951 H   0  0  0  0  0  0  0  0  0  0  0  0
  142.8610   81.7777  217.9579 H   0  0  0  0  0  0  0  0  0  0  0  0
  143.9250   83.4790  217.1890 C   0  0  0  0  0  0  0  0  0  0  0  0
  143.7171   84.5313  216.9452 H   0  0  0  0  0  0  0  0  0  0  0  0
  144.6920   83.4035  217.9739 H   0  0  0  0  0  0  0  0  0  0  0  0
  144.4530   82.7650  215.9240 C   0  0  0  0  0  0  0  0  0  0  0  0
  144.8686   83.5223  215.2430 H   0  0  0  0  0  0  0  0  0  0  0  0
  145.2138   82.0410  216.2511 H   0  0  0  0  0  0  0  0  0  0  0  0
  143.4080   82.0080  215.2030 N   0  0  0  0  0  0  0  0  0  0  0  0
  143.2860   81.0620  215.6380 H   0  0  0  0  0  0  0  0  0  0  0  0
  143.7190   81.8670  214.2130 H   0  0  0  0  0  0  0  0  0  0  0  0
  142.1220   82.7180  215.1960 C   0  0  0  0  0  0  0  0  0  0  0  0
  142.2722   83.7235  214.7761 H   0  0  0  0  0  0  0  0  0  0  0  0
  141.4134   82.1381  214.5864 H   0  0  0  0  0  0  0  0  0  0  0  0
  141.1300   81.0120  222.1200 C   0  0  0  0  0  0  0  0  0  0  0  0
  140.1710   80.3320  222.8130 N   0  0  0  0  0  0  0  0  0  0  0  0
  140.4840   79.4760  223.8210 C   0  0  0  0  0  0  0  0  0  0  0  0
  139.6850   78.9434  224.3576 H   0  0  0  0  0  0  0  0  0  0  0  0
  141.8180   79.2720  224.1760 C   0  0  0  0  0  0  0  0  0  0  0  0
  142.0766   78.5881  224.9978 H   0  0  0  0  0  0  0  0  0  0  0  0
  142.8210   79.9460  223.4760 C   0  0  0  0  0  0  0  0  0  0  0  0
  143.8781   79.7744  223.7272 H   0  0  0  0  0  0  0  0  0  0  0  0
  142.4810   80.8370  222.4580 C   0  0  0  0  0  0  0  0  0  0  0  0
  143.2639   81.3969  221.9254 H   0  0  0  0  0  0  0  0  0  0  0  0
  1  2  1  0
  2  3  2  0
  3  4  1  0
  3  5  1  0
  5  6  2  0
  6  7  1  0
  7  8  2  0
  8  9  1  0
  8 10  1  0
 10 11  1  0
 10 12  2  0
 12 13  1  0
 12 14  1  0
 14 15  1  0
 14 16  2  0
 16 17  1  0
 17 18  2  0
 17 19  1  0
 19 20  1  0
 20 21  1  0
 20 22  1  0
 20 23  1  0
 23 24  1  6
 23 25  1  0
 25 26  1  0
 25 27  1  0
 25 28  1  0
 28 29  1  0
 28 30  1  0
 28 31  1  0
 31 32  1  0
 31 33  1  0
 31 34  1  0
 34 35  1  0
 34 36  1  0
 34 37  1  0
 37 38  1  0
 37 39  1  0
  2 40  1  0
 40 41  2  0
 41 42  1  0
 42 43  1  0
 42 44  2  0
 44 45  1  0
 44 46  1  0
 46 47  1  0
 46 48  2  0
 48 49  1  0
 19  5  1  0
 37 23  1  0
 48 40  1  0
 16  7  1  0
M  CHG  1  34   1
M  END
>  <UniqueID>  (58) 
434

>  <SMILES>  (58) 
O=c1c2ccc(Cl)cc2nc(/C=C/c2ccccn2)n1C[C@H]1CCC[NH2+]C1

>  <Energy>  (58) 
68.19965088154082

>  <Genealogy>  (58) 
O=c1c2ccc(Cl)cc2nc(/C=C/c2ccccn2)n1CC1CCC[NH2+]C1 (protonated)
O=c1c2ccc(Cl)cc2nc(/C=C/c2ccccn2)n1C[C@H]1CCC[NH2+]C1 (chirality)
O=c1c2ccc(Cl)cc2nc(/C=C/c2ccccn2)n1C[C@H]1CCC[NH2+]C1 (cis-trans isomerization)
O=c1c2ccc(Cl)cc2nc(/C=C/c2ccccn2)n1C[C@H]1CCC[NH2+]C1 (3D coordinates assigned)
O=c1c2ccc(Cl)cc2nc(/C=C/c2ccccn2)n1C[C@H]1CCC[NH2+]C1 (nonaromatic ring conformer: 68.19965088154082 kcal/mol)

>  <smiles>  (58) 
O=c1c2ccc(Cl)cc2nc(/C=C/c2ccccn2)n1CC1CCCNC1

>  <score_type>  (58) 
oracle

>  <origin>  (58) 
autodockgpu

>  <m_score__min__energy>  (58) 
-7.1100000000000003

>  <m_primary>  (58) 
energy

>  <meeko>  (58) 
{"free_energy": -7.05, "intermolecular_energy": -8.54, "internal_energy": -2.22, "cluster_size": 13, "cluster_id": 1, "rank_in_cluster": 5}

>  <energy>  (58) 
-6.6

>  <cluster_rmsd>  (58) 
0.19

>  <rmsd>  (58) 
272.69

>  <cluster>  (58) 
3

$$$$
MESWETRYUNDHFU-MWCBREBHNA-O
     RDKit          3D

 49 52  0  0  0  0  0  0  0  0999 V2000
  141.0334   83.1173  221.3515 H   0  0  0  0  0  0  0  0  0  0  0  0
  140.8730   82.0560  221.1110 C   0  0  0  0  0  0  0  0  0  0  0  0
  140.3770   81.7370  219.9090 C   0  0  0  0  0  0  0  0  0  0  0  0
  139.4962   82.2767  219.5309 H   0  0  0  0  0  0  0  0  0  0  0  0
  140.9890   80.6700  219.0730 C   0  0  0  0  0  0  0  0  0  0  0  0
  141.4870   79.5780  219.7110 N   0  0  0  0  0  0  0  0  0  0  0  0
  142.0830   78.5650  219.0450 C   0  0  0  0  0  0  0  0  0  0  0  0
  142.5730   77.4600  219.7490 C   0  0  0  0  0  0  0  0  0  0  0  0
  142.4681   77.4153  220.8431 H   0  0  0  0  0  0  0  0  0  0  0  0
  143.1960   76.4120  219.0640 C   0  0  0  0  0  0  0  0  0  0  0  0
  143.8160   75.0290  219.9480 Cl  0  0  0  0  0  0  0  0  0  0  0  0
  143.3260   76.4670  217.6730 C   0  0  0  0  0  0  0  0  0  0  0  0
  143.8172   75.6431  217.1346 H   0  0  0  0  0  0  0  0  0  0  0  0
  142.8330   77.5670  216.9650 C   0  0  0  0  0  0  0  0  0  0  0  0
  142.9335   77.6041  215.8702 H   0  0  0  0  0  0  0  0  0  0  0  0
  142.2080   78.6280  217.6490 C   0  0  0  0  0  0  0  0  0  0  0  0
  141.6970   79.7560  216.9870 C   0  0  0  0  0  0  0  0  0  0  0  0
  141.8050   79.8310  215.7270 O   0  0  0  0  0  0  0  0  0  0  0  0
  141.0790   80.7650  217.6960 N   0  0  0  0  0  0  0  0  0  0  0  0
  140.5170   81.9300  216.9650 C   0  0  0  0  0  0  0  0  0  0  0  0
  140.0436   81.5719  216.0389 H   0  0  0  0  0  0  0  0  0  0  0  0
  139.7869   82.4215  217.6249 H   0  0  0  0  0  0  0  0  0  0  0  0
  141.6020   82.9720  216.5990 C   0  0  1  0  0  0  0  0  0  0  0  0
  141.1263   83.9638  216.5943 H   0  0  0  0  0  0  0  0  0  0  0  0
  142.7250   82.9560  217.6650 C   0  0  0  0  0  0  0  0  0  0  0  0
  142.4024   83.5452  218.5360 H   0  0  0  0  0  0  0  0  0  0  0  0
  142.9176   81.9125  217.9550 H   0  0  0  0  0  0  0  0  0  0  0  0
  144.0180   83.5530  217.1090 C   0  0  0  0  0  0  0  0  0  0  0  0
  143.8358   84.6006  216.8272 H   0  0  0  0  0  0  0  0  0  0  0  0
  144.7920   83.4860  217.8878 H   0  0  0  0  0  0  0  0  0  0  0  0
  144.5110   82.7780  215.8680 C   0  0  0  0  0  0  0  0  0  0  0  0
  144.9391   83.4973  215.1543 H   0  0  0  0  0  0  0  0  0  0  0  0
  145.2553   82.0461  216.2149 H   0  0  0  0  0  0  0  0  0  0  0  0
  143.4380   82.0230  215.1870 N   0  0  0  0  0  0  0  0  0  0  0  0
  143.2960   81.0980  215.6600 H   0  0  0  0  0  0  0  0  0  0  0  0
  143.7330   81.8350  214.2000 H   0  0  0  0  0  0  0  0  0  0  0  0
  142.1720   82.7670  215.1670 C   0  0  0  0  0  0  0  0  0  0  0  0
  142.3445   83.7516  214.7078 H   0  0  0  0  0  0  0  0  0  0  0  0
  141.4411   82.1840  214.5875 H   0  0  0  0  0  0  0  0  0  0  0  0
  141.2130   81.0400  222.1260 C   0  0  0  0  0  0  0  0  0  0  0  0
  140.2320   80.3130  222.7360 N   0  0  0  0  0  0  0  0  0  0  0  0
  140.5120   79.3870  223.6900 C   0  0  0  0  0  0  0  0  0  0  0  0
  139.6958   78.8187  224.1601 H   0  0  0  0  0  0  0  0  0  0  0  0
  141.8320   79.1560  224.0740 C   0  0  0  0  0  0  0  0  0  0  0  0
  142.0627   78.4142  224.8527 H   0  0  0  0  0  0  0  0  0  0  0  0
  142.8590   79.8770  223.4590 C   0  0  0  0  0  0  0  0  0  0  0  0
  143.9069   79.6864  223.7337 H   0  0  0  0  0  0  0  0  0  0  0  0
  142.5530   80.8390  222.4960 C   0  0  0  0  0  0  0  0  0  0  0  0
  143.3530   81.4340  222.0312 H   0  0  0  0  0  0  0  0  0  0  0  0
  1  2  1  0
  2  3  2  0
  3  4  1  0
  3  5  1  0
  5  6  2  0
  6  7  1  0
  7  8  2  0
  8  9  1  0
  8 10  1  0
 10 11  1  0
 10 12  2  0
 12 13  1  0
 12 14  1  0
 14 15  1  0
 14 16  2  0
 16 17  1  0
 17 18  2  0
 17 19  1  0
 19 20  1  0
 20 21  1  0
 20 22  1  0
 20 23  1  0
 23 24  1  6
 23 25  1  0
 25 26  1  0
 25 27  1  0
 25 28  1  0
 28 29  1  0
 28 30  1  0
 28 31  1  0
 31 32  1  0
 31 33  1  0
 31 34  1  0
 34 35  1  0
 34 36  1  0
 34 37  1  0
 37 38  1  0
 37 39  1  0
  2 40  1  0
 40 41  2  0
 41 42  1  0
 42 43  1  0
 42 44  2  0
 44 45  1  0
 44 46  1  0
 46 47  1  0
 46 48  2  0
 48 49  1  0
 19  5  1  0
 37 23  1  0
 48 40  1  0
 16  7  1  0
M  CHG  1  34   1
M  END
>  <UniqueID>  (59) 
434

>  <SMILES>  (59) 
O=c1c2ccc(Cl)cc2nc(/C=C/c2ccccn2)n1C[C@H]1CCC[NH2+]C1

>  <Energy>  (59) 
68.19965088154082

>  <Genealogy>  (59) 
O=c1c2ccc(Cl)cc2nc(/C=C/c2ccccn2)n1CC1CCC[NH2+]C1 (protonated)
O=c1c2ccc(Cl)cc2nc(/C=C/c2ccccn2)n1C[C@H]1CCC[NH2+]C1 (chirality)
O=c1c2ccc(Cl)cc2nc(/C=C/c2ccccn2)n1C[C@H]1CCC[NH2+]C1 (cis-trans isomerization)
O=c1c2ccc(Cl)cc2nc(/C=C/c2ccccn2)n1C[C@H]1CCC[NH2+]C1 (3D coordinates assigned)
O=c1c2ccc(Cl)cc2nc(/C=C/c2ccccn2)n1C[C@H]1CCC[NH2+]C1 (nonaromatic ring conformer: 68.19965088154082 kcal/mol)

>  <smiles>  (59) 
O=c1c2ccc(Cl)cc2nc(/C=C/c2ccccn2)n1CC1CCCNC1

>  <score_type>  (59) 
oracle

>  <origin>  (59) 
autodockgpu

>  <m_score__min__energy>  (59) 
-7.1100000000000003

>  <m_primary>  (59) 
energy

>  <meeko>  (59) 
{"free_energy": -7.07, "intermolecular_energy": -8.56, "internal_energy": -2.2, "cluster_size": 13, "cluster_id": 1, "rank_in_cluster": 2}

>  <energy>  (59) 
-6.6

>  <cluster_rmsd>  (59) 
0.09

>  <rmsd>  (59) 
272.75

>  <cluster>  (59) 
3

$$$$
MESWETRYUNDHFU-MWCBREBHNA-O
     RDKit          3D

 49 52  0  0  0  0  0  0  0  0999 V2000
  140.9471   83.0880  221.2490 H   0  0  0  0  0  0  0  0  0  0  0  0
  140.8050   82.0180  221.0370 C   0  0  0  0  0  0  0  0  0  0  0  0
  140.3150   81.6580  219.8440 C   0  0  0  0  0  0  0  0  0  0  0  0
  139.4161   82.1615  219.4586 H   0  0  0  0  0  0  0  0  0  0  0  0
  140.9570   80.5940  219.0280 C   0  0  0  0  0  0  0  0  0  0  0  0
  141.4570   79.5120  219.6830 N   0  0  0  0  0  0  0  0  0  0  0  0
  142.0790   78.5030  219.0370 C   0  0  0  0  0  0  0  0  0  0  0  0
  142.5700   77.4100  219.7590 C   0  0  0  0  0  0  0  0  0  0  0  0
  142.4454   77.3725  220.8513 H   0  0  0  0  0  0  0  0  0  0  0  0
  143.2190   76.3650  219.0940 C   0  0  0  0  0  0  0  0  0  0  0  0
  143.8390   74.9960  220.0000 Cl  0  0  0  0  0  0  0  0  0  0  0  0
  143.3770   76.4120  217.7060 C   0  0  0  0  0  0  0  0  0  0  0  0
  143.8904   75.5911  217.1839 H   0  0  0  0  0  0  0  0  0  0  0  0
  142.8840   77.5000  216.9800 C   0  0  0  0  0  0  0  0  0  0  0  0
  143.0060   77.5306  215.8872 H   0  0  0  0  0  0  0  0  0  0  0  0
  142.2310   78.5580  217.6440 C   0  0  0  0  0  0  0  0  0  0  0  0
  141.7200   79.6740  216.9630 C   0  0  0  0  0  0  0  0  0  0  0  0
  141.8520   79.7420  215.7050 O   0  0  0  0  0  0  0  0  0  0  0  0
  141.0740   80.6800  217.6530 N   0  0  0  0  0  0  0  0  0  0  0  0
  140.5120   81.8320  216.9020 C   0  0  0  0  0  0  0  0  0  0  0  0
  140.0817   81.4636  215.9590 H   0  0  0  0  0  0  0  0  0  0  0  0
  139.7468   82.3053  217.5348 H   0  0  0  0  0  0  0  0  0  0  0  0
  141.5850   82.9010  216.5760 C   0  0  1  0  0  0  0  0  0  0  0  0
  141.1013   83.8880  216.6202 H   0  0  0  0  0  0  0  0  0  0  0  0
  142.7160   82.8460  217.6320 C   0  0  0  0  0  0  0  0  0  0  0  0
  142.3947   83.3912  218.5317 H   0  0  0  0  0  0  0  0  0  0  0  0
  142.9201   81.7921  217.8720 H   0  0  0  0  0  0  0  0  0  0  0  0
  143.9990   83.4800  217.0950 C   0  0  0  0  0  0  0  0  0  0  0  0
  143.8051   84.5376  216.8627 H   0  0  0  0  0  0  0  0  0  0  0  0
  144.7793   83.3850  217.8644 H   0  0  0  0  0  0  0  0  0  0  0  0
  144.4900   82.7670  215.8160 C   0  0  0  0  0  0  0  0  0  0  0  0
  144.9054   83.5221  215.1324 H   0  0  0  0  0  0  0  0  0  0  0  0
  145.2446   82.0279  216.1231 H   0  0  0  0  0  0  0  0  0  0  0  0
  143.4180   82.0330  215.1100 N   0  0  0  0  0  0  0  0  0  0  0  0
  143.2880   81.0870  215.5410 H   0  0  0  0  0  0  0  0  0  0  0  0
  143.7080   81.8930  214.1130 H   0  0  0  0  0  0  0  0  0  0  0  0
  142.1450   82.7660  215.1320 C   0  0  0  0  0  0  0  0  0  0  0  0
  142.3053   83.7717  214.7162 H   0  0  0  0  0  0  0  0  0  0  0  0
  141.4147   82.2035  214.5318 H   0  0  0  0  0  0  0  0  0  0  0  0
  141.1620   81.0350  222.0790 C   0  0  0  0  0  0  0  0  0  0  0  0
  140.1910   80.3260  222.7260 N   0  0  0  0  0  0  0  0  0  0  0  0
  140.4870   79.4310  223.7050 C   0  0  0  0  0  0  0  0  0  0  0  0
  139.6793   78.8765  224.2052 H   0  0  0  0  0  0  0  0  0  0  0  0
  141.8140   79.2150  224.0760 C   0  0  0  0  0  0  0  0  0  0  0  0
  142.0584   78.4983  224.8739 H   0  0  0  0  0  0  0  0  0  0  0  0
  142.8290   79.9180  223.4240 C   0  0  0  0  0  0  0  0  0  0  0  0
  143.8813   79.7388  223.6897 H   0  0  0  0  0  0  0  0  0  0  0  0
  142.5070   80.8480  222.4350 C   0  0  0  0  0  0  0  0  0  0  0  0
  143.2989   81.4287  221.9393 H   0  0  0  0  0  0  0  0  0  0  0  0
  1  2  1  0
  2  3  2  0
  3  4  1  0
  3  5  1  0
  5  6  2  0
  6  7  1  0
  7  8  2  0
  8  9  1  0
  8 10  1  0
 10 11  1  0
 10 12  2  0
 12 13  1  0
 12 14  1  0
 14 15  1  0
 14 16  2  0
 16 17  1  0
 17 18  2  0
 17 19  1  0
 19 20  1  0
 20 21  1  0
 20 22  1  0
 20 23  1  0
 23 24  1  6
 23 25  1  0
 25 26  1  0
 25 27  1  0
 25 28  1  0
 28 29  1  0
 28 30  1  0
 28 31  1  0
 31 32  1  0
 31 33  1  0
 31 34  1  0
 34 35  1  0
 34 36  1  0
 34 37  1  0
 37 38  1  0
 37 39  1  0
  2 40  1  0
 40 41  2  0
 41 42  1  0
 42 43  1  0
 42 44  2  0
 44 45  1  0
 44 46  1  0
 46 47  1  0
 46 48  2  0
 48 49  1  0
 19  5  1  0
 37 23  1  0
 48 40  1  0
 16  7  1  0
M  CHG  1  34   1
M  END
>  <UniqueID>  (60) 
434

>  <SMILES>  (60) 
O=c1c2ccc(Cl)cc2nc(/C=C/c2ccccn2)n1C[C@H]1CCC[NH2+]C1

>  <Energy>  (60) 
68.19965088154082

>  <Genealogy>  (60) 
O=c1c2ccc(Cl)cc2nc(/C=C/c2ccccn2)n1CC1CCC[NH2+]C1 (protonated)
O=c1c2ccc(Cl)cc2nc(/C=C/c2ccccn2)n1C[C@H]1CCC[NH2+]C1 (chirality)
O=c1c2ccc(Cl)cc2nc(/C=C/c2ccccn2)n1C[C@H]1CCC[NH2+]C1 (cis-trans isomerization)
O=c1c2ccc(Cl)cc2nc(/C=C/c2ccccn2)n1C[C@H]1CCC[NH2+]C1 (3D coordinates assigned)
O=c1c2ccc(Cl)cc2nc(/C=C/c2ccccn2)n1C[C@H]1CCC[NH2+]C1 (nonaromatic ring conformer: 68.19965088154082 kcal/mol)

>  <smiles>  (60) 
O=c1c2ccc(Cl)cc2nc(/C=C/c2ccccn2)n1CC1CCCNC1

>  <score_type>  (60) 
oracle

>  <origin>  (60) 
autodockgpu

>  <m_score__min__energy>  (60) 
-7.1100000000000003

>  <m_primary>  (60) 
energy

>  <meeko>  (60) 
{"free_energy": -7.05, "intermolecular_energy": -8.54, "internal_energy": -2.21, "cluster_size": 13, "cluster_id": 1, "rank_in_cluster": 6}

>  <energy>  (60) 
-6.6

>  <cluster_rmsd>  (60) 
0.18

>  <rmsd>  (60) 
272.69

>  <cluster>  (60) 
3

$$$$
MESWETRYUNDHFU-QZJYLSAJNA-O
     RDKit          3D

 49 52  0  0  0  0  0  0  0  0999 V2000
  140.7820   83.4080  221.9478 H   0  0  0  0  0  0  0  0  0  0  0  0
  140.7990   82.3930  221.5240 C   0  0  0  0  0  0  0  0  0  0  0  0
  140.4480   82.2420  220.2400 C   0  0  0  0  0  0  0  0  0  0  0  0
  139.6522   82.8761  219.8222 H   0  0  0  0  0  0  0  0  0  0  0  0
  141.1090   81.2380  219.3680 C   0  0  0  0  0  0  0  0  0  0  0  0
  141.3980   80.0300  219.9210 N   0  0  0  0  0  0  0  0  0  0  0  0
  141.9580   79.0270  219.2100 C   0  0  0  0  0  0  0  0  0  0  0  0
  142.2430   77.8040  219.8290 C   0  0  0  0  0  0  0  0  0  0  0  0
  142.0250   77.6648  220.8981 H   0  0  0  0  0  0  0  0  0  0  0  0
  142.8050   76.7590  219.0880 C   0  0  0  0  0  0  0  0  0  0  0  0
  143.1630   75.2270  219.8640 Cl  0  0  0  0  0  0  0  0  0  0  0  0
  143.0810   76.9360  217.7290 C   0  0  0  0  0  0  0  0  0  0  0  0
  143.5240   76.1141  217.1474 H   0  0  0  0  0  0  0  0  0  0  0  0
  142.7950   78.1560  217.1070 C   0  0  0  0  0  0  0  0  0  0  0  0
  143.0104   78.2900  216.0366 H   0  0  0  0  0  0  0  0  0  0  0  0
  142.2320   79.2130  217.8480 C   0  0  0  0  0  0  0  0  0  0  0  0
  141.9370   80.4610  217.2740 C   0  0  0  0  0  0  0  0  0  0  0  0
  142.1500   80.6320  216.0410 O   0  0  0  0  0  0  0  0  0  0  0  0
  141.4260   81.4850  218.0430 N   0  0  0  0  0  0  0  0  0  0  0  0
  141.1980   82.8120  217.4140 C   0  0  0  0  0  0  0  0  0  0  0  0
  140.7621   82.6454  216.4179 H   0  0  0  0  0  0  0  0  0  0  0  0
  140.5364   83.3631  218.0985 H   0  0  0  0  0  0  0  0  0  0  0  0
  142.4700   83.6950  217.2410 C   0  0  2  0  0  0  0  0  0  0  0  0
  142.3938   84.3548  218.1179 H   0  0  0  0  0  0  0  0  0  0  0  0
  142.4590   84.6320  216.0110 C   0  0  0  0  0  0  0  0  0  0  0  0
  141.4155   84.8919  215.7795 H   0  0  0  0  0  0  0  0  0  0  0  0
  143.0590   85.5167  216.2703 H   0  0  0  0  0  0  0  0  0  0  0  0
  143.0910   84.0050  214.7660 C   0  0  0  0  0  0  0  0  0  0  0  0
  142.4348   83.2061  214.3903 H   0  0  0  0  0  0  0  0  0  0  0  0
  143.2167   84.7845  214.0001 H   0  0  0  0  0  0  0  0  0  0  0  0
  144.4610   83.4150  215.1000 C   0  0  0  0  0  0  0  0  0  0  0  0
  144.8885   82.9581  214.1953 H   0  0  0  0  0  0  0  0  0  0  0  0
  145.1157   84.2205  215.4641 H   0  0  0  0  0  0  0  0  0  0  0  0
  144.3400   82.3930  216.1460 N   0  0  0  0  0  0  0  0  0  0  0  0
  143.7300   81.6190  215.8070 H   0  0  0  0  0  0  0  0  0  0  0  0
  145.2890   81.9920  216.3280 H   0  0  0  0  0  0  0  0  0  0  0  0
  143.8250   82.9590  217.4050 C   0  0  0  0  0  0  0  0  0  0  0  0
  143.6915   82.1397  218.1267 H   0  0  0  0  0  0  0  0  0  0  0  0
  144.5584   83.7024  217.7506 H   0  0  0  0  0  0  0  0  0  0  0  0
  141.2080   81.2790  222.4070 C   0  0  0  0  0  0  0  0  0  0  0  0
  140.2290   80.5270  222.9840 N   0  0  0  0  0  0  0  0  0  0  0  0
  140.5070   79.4730  223.7970 C   0  0  0  0  0  0  0  0  0  0  0  0
  139.6867   78.8961  224.2491 H   0  0  0  0  0  0  0  0  0  0  0  0
  141.8320   79.1230  224.0580 C   0  0  0  0  0  0  0  0  0  0  0  0
  142.0638   78.2742  224.7182 H   0  0  0  0  0  0  0  0  0  0  0  0
  142.8590   79.8620  223.4720 C   0  0  0  0  0  0  0  0  0  0  0  0
  143.9083   79.5946  223.6655 H   0  0  0  0  0  0  0  0  0  0  0  0
  142.5560   80.9410  222.6400 C   0  0  0  0  0  0  0  0  0  0  0  0
  143.3628   81.5226  222.1701 H   0  0  0  0  0  0  0  0  0  0  0  0
  1  2  1  0
  2  3  2  0
  3  4  1  0
  3  5  1  0
  5  6  2  0
  6  7  1  0
  7  8  2  0
  8  9  1  0
  8 10  1  0
 10 11  1  0
 10 12  2  0
 12 13  1  0
 12 14  1  0
 14 15  1  0
 14 16  2  0
 16 17  1  0
 17 18  2  0
 17 19  1  0
 19 20  1  0
 20 21  1  0
 20 22  1  0
 20 23  1  0
 23 24  1  1
 23 25  1  0
 25 26  1  0
 25 27  1  0
 25 28  1  0
 28 29  1  0
 28 30  1  0
 28 31  1  0
 31 32  1  0
 31 33  1  0
 31 34  1  0
 34 35  1  0
 34 36  1  0
 34 37  1  0
 37 38  1  0
 37 39  1  0
  2 40  1  0
 40 41  2  0
 41 42  1  0
 42 43  1  0
 42 44  2  0
 44 45  1  0
 44 46  1  0
 46 47  1  0
 46 48  2  0
 48 49  1  0
 19  5  1  0
 37 23  1  0
 48 40  1  0
 16  7  1  0
M  CHG  1  34   1
M  END
>  <UniqueID>  (61) 
435

>  <SMILES>  (61) 
O=c1c2ccc(Cl)cc2nc(/C=C/c2ccccn2)n1C[C@@H]1CCC[NH2+]C1

>  <Energy>  (61) 
68.65703999713388

>  <Genealogy>  (61) 
O=c1c2ccc(Cl)cc2nc(/C=C/c2ccccn2)n1CC1CCC[NH2+]C1 (protonated)
O=c1c2ccc(Cl)cc2nc(/C=C/c2ccccn2)n1C[C@@H]1CCC[NH2+]C1 (chirality)
O=c1c2ccc(Cl)cc2nc(/C=C/c2ccccn2)n1C[C@@H]1CCC[NH2+]C1 (cis-trans isomerization)
O=c1c2ccc(Cl)cc2nc(/C=C/c2ccccn2)n1C[C@@H]1CCC[NH2+]C1 (3D coordinates assigned)
O=c1c2ccc(Cl)cc2nc(/C=C/c2ccccn2)n1C[C@@H]1CCC[NH2+]C1 (nonaromatic ring conformer: 68.65703999713388 kcal/mol)

>  <smiles>  (61) 
O=c1c2ccc(Cl)cc2nc(/C=C/c2ccccn2)n1CC1CCCNC1

>  <score_type>  (61) 
oracle

>  <origin>  (61) 
autodockgpu

>  <m_score__min__energy>  (61) 
-7.6699999999999999

>  <m_primary>  (61) 
energy

>  <meeko>  (61) 
{"free_energy": -7.63, "intermolecular_energy": -9.13, "internal_energy": -2.01, "cluster_size": 4, "cluster_id": 1, "rank_in_cluster": 3}

>  <energy>  (61) 
-7.67

>  <cluster_rmsd>  (61) 
0.0

>  <rmsd>  (61) 
271.48

>  <cluster>  (61) 
1

$$$$
MESWETRYUNDHFU-QZJYLSAJNA-O
     RDKit          3D

 49 52  0  0  0  0  0  0  0  0999 V2000
  138.9295   77.8477  223.5497 H   0  0  0  0  0  0  0  0  0  0  0  0
  139.6160   78.1330  222.7390 C   0  0  0  0  0  0  0  0  0  0  0  0
  139.5310   77.4660  221.5790 C   0  0  0  0  0  0  0  0  0  0  0  0
  138.5460   77.3262  221.1098 H   0  0  0  0  0  0  0  0  0  0  0  0
  140.7370   76.9120  220.9140 C   0  0  0  0  0  0  0  0  0  0  0  0
  141.0070   75.5940  221.1140 N   0  0  0  0  0  0  0  0  0  0  0  0
  142.0510   74.9740  220.5230 C   0  0  0  0  0  0  0  0  0  0  0  0
  142.2900   73.6160  220.7690 C   0  0  0  0  0  0  0  0  0  0  0  0
  141.6362   73.0578  221.4552 H   0  0  0  0  0  0  0  0  0  0  0  0
  143.3600   72.9700  220.1420 C   0  0  0  0  0  0  0  0  0  0  0  0
  143.6600   71.2690  220.4510 Cl  0  0  0  0  0  0  0  0  0  0  0  0
  144.1900   73.6780  219.2680 C   0  0  0  0  0  0  0  0  0  0  0  0
  145.0309   73.1680  218.7752 H   0  0  0  0  0  0  0  0  0  0  0  0
  143.9530   75.0340  219.0190 C   0  0  0  0  0  0  0  0  0  0  0  0
  144.6071   75.5877  218.3294 H   0  0  0  0  0  0  0  0  0  0  0  0
  142.8790   75.6920  219.6490 C   0  0  0  0  0  0  0  0  0  0  0  0
  142.6040   77.0540  219.4410 C   0  0  0  0  0  0  0  0  0  0  0  0
  143.3230   77.7060  218.6330 O   0  0  0  0  0  0  0  0  0  0  0  0
  141.5690   77.6730  220.1110 N   0  0  0  0  0  0  0  0  0  0  0  0
  141.3600   79.1320  219.9200 C   0  0  0  0  0  0  0  0  0  0  0  0
  140.6660   79.4805  220.6991 H   0  0  0  0  0  0  0  0  0  0  0  0
  142.3575   79.5919  219.9794 H   0  0  0  0  0  0  0  0  0  0  0  0
  140.7770   79.5470  218.5360 C   0  0  2  0  0  0  0  0  0  0  0  0
  139.9821   80.2444  218.8390 H   0  0  0  0  0  0  0  0  0  0  0  0
  140.0670   78.4170  217.7550 C   0  0  0  0  0  0  0  0  0  0  0  0
  139.6525   77.6998  218.4787 H   0  0  0  0  0  0  0  0  0  0  0  0
  139.2841   78.8873  217.1419 H   0  0  0  0  0  0  0  0  0  0  0  0
  140.9970   77.6620  216.8010 C   0  0  0  0  0  0  0  0  0  0  0  0
  141.7051   77.0584  217.3877 H   0  0  0  0  0  0  0  0  0  0  0  0
  140.3909   77.0116  216.1532 H   0  0  0  0  0  0  0  0  0  0  0  0
  141.7770   78.6440  215.9260 C   0  0  0  0  0  0  0  0  0  0  0  0
  142.4482   78.0813  215.2606 H   0  0  0  0  0  0  0  0  0  0  0  0
  141.0637   79.2360  215.3337 H   0  0  0  0  0  0  0  0  0  0  0  0
  142.5730   79.5540  216.7570 N   0  0  0  0  0  0  0  0  0  0  0  0
  143.2600   79.0040  217.3150 H   0  0  0  0  0  0  0  0  0  0  0  0
  143.1140   80.1900  216.1260 H   0  0  0  0  0  0  0  0  0  0  0  0
  141.7220   80.3790  217.6320 C   0  0  0  0  0  0  0  0  0  0  0  0
  142.3724   80.9891  218.2760 H   0  0  0  0  0  0  0  0  0  0  0  0
  141.0865   80.9951  216.9789 H   0  0  0  0  0  0  0  0  0  0  0  0
  140.5760   79.2290  222.9960 C   0  0  0  0  0  0  0  0  0  0  0  0
  140.2110   80.4940  222.6470 N   0  0  0  0  0  0  0  0  0  0  0  0
  141.0190   81.5680  222.8580 C   0  0  0  0  0  0  0  0  0  0  0  0
  140.6891   82.5726  222.5548 H   0  0  0  0  0  0  0  0  0  0  0  0
  142.2660   81.3950  223.4590 C   0  0  0  0  0  0  0  0  0  0  0  0
  142.9268   82.2581  223.6279 H   0  0  0  0  0  0  0  0  0  0  0  0
  142.6650   80.1160  223.8430 C   0  0  0  0  0  0  0  0  0  0  0  0
  143.6438   79.9661  224.3220 H   0  0  0  0  0  0  0  0  0  0  0  0
  141.8230   79.0250  223.6200 C   0  0  0  0  0  0  0  0  0  0  0  0
  142.1302   78.0149  223.9287 H   0  0  0  0  0  0  0  0  0  0  0  0
  1  2  1  0
  2  3  2  0
  3  4  1  0
  3  5  1  0
  5  6  2  0
  6  7  1  0
  7  8  2  0
  8  9  1  0
  8 10  1  0
 10 11  1  0
 10 12  2  0
 12 13  1  0
 12 14  1  0
 14 15  1  0
 14 16  2  0
 16 17  1  0
 17 18  2  0
 17 19  1  0
 19 20  1  0
 20 21  1  0
 20 22  1  0
 20 23  1  0
 23 24  1  1
 23 25  1  0
 25 26  1  0
 25 27  1  0
 25 28  1  0
 28 29  1  0
 28 30  1  0
 28 31  1  0
 31 32  1  0
 31 33  1  0
 31 34  1  0
 34 35  1  0
 34 36  1  0
 34 37  1  0
 37 38  1  0
 37 39  1  0
  2 40  1  0
 40 41  2  0
 41 42  1  0
 42 43  1  0
 42 44  2  0
 44 45  1  0
 44 46  1  0
 46 47  1  0
 46 48  2  0
 48 49  1  0
 19  5  1  0
 37 23  1  0
 48 40  1  0
 16  7  1  0
M  CHG  1  34   1
M  END
>  <UniqueID>  (62) 
435

>  <SMILES>  (62) 
O=c1c2ccc(Cl)cc2nc(/C=C/c2ccccn2)n1C[C@@H]1CCC[NH2+]C1

>  <Energy>  (62) 
68.65703999713388

>  <Genealogy>  (62) 
O=c1c2ccc(Cl)cc2nc(/C=C/c2ccccn2)n1CC1CCC[NH2+]C1 (protonated)
O=c1c2ccc(Cl)cc2nc(/C=C/c2ccccn2)n1C[C@@H]1CCC[NH2+]C1 (chirality)
O=c1c2ccc(Cl)cc2nc(/C=C/c2ccccn2)n1C[C@@H]1CCC[NH2+]C1 (cis-trans isomerization)
O=c1c2ccc(Cl)cc2nc(/C=C/c2ccccn2)n1C[C@@H]1CCC[NH2+]C1 (3D coordinates assigned)
O=c1c2ccc(Cl)cc2nc(/C=C/c2ccccn2)n1C[C@@H]1CCC[NH2+]C1 (nonaromatic ring conformer: 68.65703999713388 kcal/mol)

>  <smiles>  (62) 
O=c1c2ccc(Cl)cc2nc(/C=C/c2ccccn2)n1CC1CCCNC1

>  <score_type>  (62) 
oracle

>  <origin>  (62) 
autodockgpu

>  <m_score__min__energy>  (62) 
-7.6699999999999999

>  <m_primary>  (62) 
energy

>  <meeko>  (62) 
{"free_energy": -7.29, "intermolecular_energy": -8.78, "internal_energy": -2.29, "cluster_size": 16, "cluster_id": 2, "rank_in_cluster": 10}

>  <energy>  (62) 
-7.66

>  <cluster_rmsd>  (62) 
0.52

>  <rmsd>  (62) 
271.43

>  <cluster>  (62) 
1

$$$$
MESWETRYUNDHFU-QZJYLSAJNA-O
     RDKit          3D

 49 52  0  0  0  0  0  0  0  0999 V2000
  138.8699   77.9013  223.4902 H   0  0  0  0  0  0  0  0  0  0  0  0
  139.6230   78.1240  222.7200 C   0  0  0  0  0  0  0  0  0  0  0  0
  139.5370   77.4750  221.5500 C   0  0  0  0  0  0  0  0  0  0  0  0
  138.5541   77.3592  221.0699 H   0  0  0  0  0  0  0  0  0  0  0  0
  140.7400   76.9090  220.8880 C   0  0  0  0  0  0  0  0  0  0  0  0
  141.0030   75.5920  221.0970 N   0  0  0  0  0  0  0  0  0  0  0  0
  142.0430   74.9610  220.5100 C   0  0  0  0  0  0  0  0  0  0  0  0
  142.2740   73.6040  220.7650 C   0  0  0  0  0  0  0  0  0  0  0  0
  141.6171   73.0545  221.4553 H   0  0  0  0  0  0  0  0  0  0  0  0
  143.3400   72.9470  220.1420 C   0  0  0  0  0  0  0  0  0  0  0  0
  143.6310   71.2470  220.4630 Cl  0  0  0  0  0  0  0  0  0  0  0  0
  144.1730   73.6450  219.2620 C   0  0  0  0  0  0  0  0  0  0  0  0
  145.0102   73.1268  218.7715 H   0  0  0  0  0  0  0  0  0  0  0  0
  143.9440   75.0010  219.0040 C   0  0  0  0  0  0  0  0  0  0  0  0
  144.6007   75.5464  218.3103 H   0  0  0  0  0  0  0  0  0  0  0  0
  142.8740   75.6690  219.6310 C   0  0  0  0  0  0  0  0  0  0  0  0
  142.6070   77.0310  219.4130 C   0  0  0  0  0  0  0  0  0  0  0  0
  143.3290   77.6730  218.6000 O   0  0  0  0  0  0  0  0  0  0  0  0
  141.5760   77.6600  220.0790 N   0  0  0  0  0  0  0  0  0  0  0  0
  141.3750   79.1190  219.8780 C   0  0  0  0  0  0  0  0  0  0  0  0
  140.6951   79.4796  220.6639 H   0  0  0  0  0  0  0  0  0  0  0  0
  142.3766   79.5719  219.9189 H   0  0  0  0  0  0  0  0  0  0  0  0
  140.7750   79.5260  218.4990 C   0  0  2  0  0  0  0  0  0  0  0  0
  139.9697   80.2082  218.8090 H   0  0  0  0  0  0  0  0  0  0  0  0
  140.0800   78.3860  217.7200 C   0  0  0  0  0  0  0  0  0  0  0  0
  139.6816   77.6606  218.4447 H   0  0  0  0  0  0  0  0  0  0  0  0
  139.2861   78.8445  217.1121 H   0  0  0  0  0  0  0  0  0  0  0  0
  141.0170   77.6480  216.7590 C   0  0  0  0  0  0  0  0  0  0  0  0
  141.7390   77.0559  217.3405 H   0  0  0  0  0  0  0  0  0  0  0  0
  140.4179   76.9882  216.1142 H   0  0  0  0  0  0  0  0  0  0  0  0
  141.7740   78.6430  215.8810 C   0  0  0  0  0  0  0  0  0  0  0  0
  142.4504   78.0923  215.2108 H   0  0  0  0  0  0  0  0  0  0  0  0
  141.0470   79.2234  215.2939 H   0  0  0  0  0  0  0  0  0  0  0  0
  142.5600   79.5660  216.7080 N   0  0  0  0  0  0  0  0  0  0  0  0
  143.2600   79.0260  217.2610 H   0  0  0  0  0  0  0  0  0  0  0  0
  143.0860   80.2120  216.0750 H   0  0  0  0  0  0  0  0  0  0  0  0
  141.7010   80.3750  217.5900 C   0  0  0  0  0  0  0  0  0  0  0  0
  142.3454   80.9946  218.2310 H   0  0  0  0  0  0  0  0  0  0  0  0
  141.0511   80.9813  216.9418 H   0  0  0  0  0  0  0  0  0  0  0  0
  140.6680   79.1210  223.0390 C   0  0  0  0  0  0  0  0  0  0  0  0
  141.9700   78.7700  222.8430 N   0  0  0  0  0  0  0  0  0  0  0  0
  142.9980   79.6240  223.0930 C   0  0  0  0  0  0  0  0  0  0  0  0
  144.0357   79.2978  222.9291 H   0  0  0  0  0  0  0  0  0  0  0  0
  142.7380   80.9130  223.5570 C   0  0  0  0  0  0  0  0  0  0  0  0
  143.5657   81.6070  223.7652 H   0  0  0  0  0  0  0  0  0  0  0  0
  141.4160   81.3120  223.7540 C   0  0  0  0  0  0  0  0  0  0  0  0
  141.1959   82.3275  224.1149 H   0  0  0  0  0  0  0  0  0  0  0  0
  140.3720   80.4220  223.4930 C   0  0  0  0  0  0  0  0  0  0  0  0
  139.3275   80.7337  223.6405 H   0  0  0  0  0  0  0  0  0  0  0  0
  1  2  1  0
  2  3  2  0
  3  4  1  0
  3  5  1  0
  5  6  2  0
  6  7  1  0
  7  8  2  0
  8  9  1  0
  8 10  1  0
 10 11  1  0
 10 12  2  0
 12 13  1  0
 12 14  1  0
 14 15  1  0
 14 16  2  0
 16 17  1  0
 17 18  2  0
 17 19  1  0
 19 20  1  0
 20 21  1  0
 20 22  1  0
 20 23  1  0
 23 24  1  1
 23 25  1  0
 25 26  1  0
 25 27  1  0
 25 28  1  0
 28 29  1  0
 28 30  1  0
 28 31  1  0
 31 32  1  0
 31 33  1  0
 31 34  1  0
 34 35  1  0
 34 36  1  0
 34 37  1  0
 37 38  1  0
 37 39  1  0
  2 40  1  0
 40 41  2  0
 41 42  1  0
 42 43  1  0
 42 44  2  0
 44 45  1  0
 44 46  1  0
 46 47  1  0
 46 48  2  0
 48 49  1  0
 19  5  1  0
 37 23  1  0
 48 40  1  0
 16  7  1  0
M  CHG  1  34   1
M  END
>  <UniqueID>  (63) 
435

>  <SMILES>  (63) 
O=c1c2ccc(Cl)cc2nc(/C=C/c2ccccn2)n1C[C@@H]1CCC[NH2+]C1

>  <Energy>  (63) 
68.65703999713388

>  <Genealogy>  (63) 
O=c1c2ccc(Cl)cc2nc(/C=C/c2ccccn2)n1CC1CCC[NH2+]C1 (protonated)
O=c1c2ccc(Cl)cc2nc(/C=C/c2ccccn2)n1C[C@@H]1CCC[NH2+]C1 (chirality)
O=c1c2ccc(Cl)cc2nc(/C=C/c2ccccn2)n1C[C@@H]1CCC[NH2+]C1 (cis-trans isomerization)
O=c1c2ccc(Cl)cc2nc(/C=C/c2ccccn2)n1C[C@@H]1CCC[NH2+]C1 (3D coordinates assigned)
O=c1c2ccc(Cl)cc2nc(/C=C/c2ccccn2)n1C[C@@H]1CCC[NH2+]C1 (nonaromatic ring conformer: 68.65703999713388 kcal/mol)

>  <smiles>  (63) 
O=c1c2ccc(Cl)cc2nc(/C=C/c2ccccn2)n1CC1CCCNC1

>  <score_type>  (63) 
oracle

>  <origin>  (63) 
autodockgpu

>  <m_score__min__energy>  (63) 
-7.6699999999999999

>  <m_primary>  (63) 
energy

>  <meeko>  (63) 
{"free_energy": -7.31, "intermolecular_energy": -8.8, "internal_energy": -2.24, "cluster_size": 16, "cluster_id": 2, "rank_in_cluster": 6}

>  <energy>  (63) 
-7.63

>  <cluster_rmsd>  (63) 
0.1

>  <rmsd>  (63) 
271.45

>  <cluster>  (63) 
1

$$$$
MESWETRYUNDHFU-QZJYLSAJNA-O
     RDKit          3D

 49 52  0  0  0  0  0  0  0  0999 V2000
  138.7367   77.6916  223.5084 H   0  0  0  0  0  0  0  0  0  0  0  0
  139.4710   77.9340  222.7260 C   0  0  0  0  0  0  0  0  0  0  0  0
  139.4260   77.2350  221.5830 C   0  0  0  0  0  0  0  0  0  0  0  0
  138.4537   77.0507  221.1028 H   0  0  0  0  0  0  0  0  0  0  0  0
  140.6610   76.7040  220.9510 C   0  0  0  0  0  0  0  0  0  0  0  0
  140.9300   75.3830  221.1250 N   0  0  0  0  0  0  0  0  0  0  0  0
  142.0000   74.7830  220.5590 C   0  0  0  0  0  0  0  0  0  0  0  0
  142.2360   73.4200  220.7760 C   0  0  0  0  0  0  0  0  0  0  0  0
  141.5580   72.8402  221.4195 H   0  0  0  0  0  0  0  0  0  0  0  0
  143.3330   72.7960  220.1750 C   0  0  0  0  0  0  0  0  0  0  0  0
  143.6290   71.0880  220.4480 Cl  0  0  0  0  0  0  0  0  0  0  0  0
  144.1930   73.5320  219.3540 C   0  0  0  0  0  0  0  0  0  0  0  0
  145.0546   73.0391  218.8801 H   0  0  0  0  0  0  0  0  0  0  0  0
  143.9600   74.8940  219.1340 C   0  0  0  0  0  0  0  0  0  0  0  0
  144.6386   75.4698  218.4875 H   0  0  0  0  0  0  0  0  0  0  0  0
  142.8580   75.5290  219.7390 C   0  0  0  0  0  0  0  0  0  0  0  0
  142.5850   76.8950  219.5590 C   0  0  0  0  0  0  0  0  0  0  0  0
  143.3320   77.5720  218.7980 O   0  0  0  0  0  0  0  0  0  0  0  0
  141.5210   77.4900  220.2030 N   0  0  0  0  0  0  0  0  0  0  0  0
  141.3120   78.9530  220.0450 C   0  0  0  0  0  0  0  0  0  0  0  0
  140.6068   79.2813  220.8228 H   0  0  0  0  0  0  0  0  0  0  0  0
  142.3077   79.4128  220.1295 H   0  0  0  0  0  0  0  0  0  0  0  0
  140.7470   79.4010  218.6630 C   0  0  2  0  0  0  0  0  0  0  0  0
  139.9441   80.0866  218.9717 H   0  0  0  0  0  0  0  0  0  0  0  0
  140.0540   78.2890  217.8430 C   0  0  0  0  0  0  0  0  0  0  0  0
  139.6319   77.5515  218.5415 H   0  0  0  0  0  0  0  0  0  0  0  0
  139.2778   78.7712  217.2307 H   0  0  0  0  0  0  0  0  0  0  0  0
  141.0030   77.5630  216.8840 C   0  0  0  0  0  0  0  0  0  0  0  0
  141.7057   76.9487  217.4660 H   0  0  0  0  0  0  0  0  0  0  0  0
  140.4103   76.9260  216.2110 H   0  0  0  0  0  0  0  0  0  0  0  0
  141.7900   78.5700  216.0460 C   0  0  0  0  0  0  0  0  0  0  0  0
  142.4737   78.0277  215.3763 H   0  0  0  0  0  0  0  0  0  0  0  0
  141.0826   79.1734  215.4582 H   0  0  0  0  0  0  0  0  0  0  0  0
  142.5690   79.4620  216.9120 N   0  0  0  0  0  0  0  0  0  0  0  0
  143.2510   78.9010  217.4660 H   0  0  0  0  0  0  0  0  0  0  0  0
  143.1160   80.1160  216.3060 H   0  0  0  0  0  0  0  0  0  0  0  0
  141.7020   80.2600  217.7950 C   0  0  0  0  0  0  0  0  0  0  0  0
  142.3402   80.8556  218.4643 H   0  0  0  0  0  0  0  0  0  0  0  0
  141.0736   80.8903  217.1486 H   0  0  0  0  0  0  0  0  0  0  0  0
  140.4470   79.0110  223.0000 C   0  0  0  0  0  0  0  0  0  0  0  0
  140.0670   80.2970  222.7590 N   0  0  0  0  0  0  0  0  0  0  0  0
  140.8900   81.3540  222.9960 C   0  0  0  0  0  0  0  0  0  0  0  0
  140.5471   82.3769  222.7813 H   0  0  0  0  0  0  0  0  0  0  0  0
  142.1680   81.1410  223.5110 C   0  0  0  0  0  0  0  0  0  0  0  0
  142.8400   81.9911  223.6999 H   0  0  0  0  0  0  0  0  0  0  0  0
  142.5850   79.8390  223.7840 C   0  0  0  0  0  0  0  0  0  0  0  0
  143.5890   79.6575  224.1952 H   0  0  0  0  0  0  0  0  0  0  0  0
  141.7270   78.7650  223.5350 C   0  0  0  0  0  0  0  0  0  0  0  0
  142.0480   77.7361  223.7548 H   0  0  0  0  0  0  0  0  0  0  0  0
  1  2  1  0
  2  3  2  0
  3  4  1  0
  3  5  1  0
  5  6  2  0
  6  7  1  0
  7  8  2  0
  8  9  1  0
  8 10  1  0
 10 11  1  0
 10 12  2  0
 12 13  1  0
 12 14  1  0
 14 15  1  0
 14 16  2  0
 16 17  1  0
 17 18  2  0
 17 19  1  0
 19 20  1  0
 20 21  1  0
 20 22  1  0
 20 23  1  0
 23 24  1  1
 23 25  1  0
 25 26  1  0
 25 27  1  0
 25 28  1  0
 28 29  1  0
 28 30  1  0
 28 31  1  0
 31 32  1  0
 31 33  1  0
 31 34  1  0
 34 35  1  0
 34 36  1  0
 34 37  1  0
 37 38  1  0
 37 39  1  0
  2 40  1  0
 40 41  2  0
 41 42  1  0
 42 43  1  0
 42 44  2  0
 44 45  1  0
 44 46  1  0
 46 47  1  0
 46 48  2  0
 48 49  1  0
 19  5  1  0
 37 23  1  0
 48 40  1  0
 16  7  1  0
M  CHG  1  34   1
M  END
>  <UniqueID>  (64) 
435

>  <SMILES>  (64) 
O=c1c2ccc(Cl)cc2nc(/C=C/c2ccccn2)n1C[C@@H]1CCC[NH2+]C1

>  <Energy>  (64) 
68.65703999713388

>  <Genealogy>  (64) 
O=c1c2ccc(Cl)cc2nc(/C=C/c2ccccn2)n1CC1CCC[NH2+]C1 (protonated)
O=c1c2ccc(Cl)cc2nc(/C=C/c2ccccn2)n1C[C@@H]1CCC[NH2+]C1 (chirality)
O=c1c2ccc(Cl)cc2nc(/C=C/c2ccccn2)n1C[C@@H]1CCC[NH2+]C1 (cis-trans isomerization)
O=c1c2ccc(Cl)cc2nc(/C=C/c2ccccn2)n1C[C@@H]1CCC[NH2+]C1 (3D coordinates assigned)
O=c1c2ccc(Cl)cc2nc(/C=C/c2ccccn2)n1C[C@@H]1CCC[NH2+]C1 (nonaromatic ring conformer: 68.65703999713388 kcal/mol)

>  <smiles>  (64) 
O=c1c2ccc(Cl)cc2nc(/C=C/c2ccccn2)n1CC1CCCNC1

>  <score_type>  (64) 
oracle

>  <origin>  (64) 
autodockgpu

>  <m_score__min__energy>  (64) 
-7.6699999999999999

>  <m_primary>  (64) 
energy

>  <meeko>  (64) 
{"free_energy": -7.24, "intermolecular_energy": -8.73, "internal_energy": -2.3, "cluster_size": 16, "cluster_id": 2, "rank_in_cluster": 16}

>  <energy>  (64) 
-7.59

>  <cluster_rmsd>  (64) 
0.23

>  <rmsd>  (64) 
271.41

>  <cluster>  (64) 
1

$$$$
MESWETRYUNDHFU-QZJYLSAJNA-O
     RDKit          3D

 49 52  0  0  0  0  0  0  0  0999 V2000
  138.9411   77.8153  223.5269 H   0  0  0  0  0  0  0  0  0  0  0  0
  139.6220   78.1080  222.7140 C   0  0  0  0  0  0  0  0  0  0  0  0
  139.5400   77.4410  221.5530 C   0  0  0  0  0  0  0  0  0  0  0  0
  138.5560   77.3000  221.0819 H   0  0  0  0  0  0  0  0  0  0  0  0
  140.7480   76.8890  220.8900 C   0  0  0  0  0  0  0  0  0  0  0  0
  141.0210   75.5720  221.0900 N   0  0  0  0  0  0  0  0  0  0  0  0
  142.0670   74.9540  220.5010 C   0  0  0  0  0  0  0  0  0  0  0  0
  142.3080   73.5970  220.7470 C   0  0  0  0  0  0  0  0  0  0  0  0
  141.6542   73.0373  221.4320 H   0  0  0  0  0  0  0  0  0  0  0  0
  143.3810   72.9530  220.1210 C   0  0  0  0  0  0  0  0  0  0  0  0
  143.6840   71.2520  220.4310 Cl  0  0  0  0  0  0  0  0  0  0  0  0
  144.2100   73.6630  219.2480 C   0  0  0  0  0  0  0  0  0  0  0  0
  145.0525   73.1551  218.7559 H   0  0  0  0  0  0  0  0  0  0  0  0
  143.9700   75.0190  218.9990 C   0  0  0  0  0  0  0  0  0  0  0  0
  144.6235   75.5745  218.3102 H   0  0  0  0  0  0  0  0  0  0  0  0
  142.8940   75.6740  219.6280 C   0  0  0  0  0  0  0  0  0  0  0  0
  142.6170   77.0360  219.4200 C   0  0  0  0  0  0  0  0  0  0  0  0
  143.3360   77.6890  218.6120 O   0  0  0  0  0  0  0  0  0  0  0  0
  141.5800   77.6520  220.0880 N   0  0  0  0  0  0  0  0  0  0  0  0
  141.3680   79.1100  219.8970 C   0  0  0  0  0  0  0  0  0  0  0  0
  140.6778   79.4582  220.6796 H   0  0  0  0  0  0  0  0  0  0  0  0
  142.3651   79.5713  219.9506 H   0  0  0  0  0  0  0  0  0  0  0  0
  140.7770   79.5230  218.5160 C   0  0  2  0  0  0  0  0  0  0  0  0
  139.9708   80.2046  218.8252 H   0  0  0  0  0  0  0  0  0  0  0  0
  140.0860   78.3870  217.7280 C   0  0  0  0  0  0  0  0  0  0  0  0
  139.6828   77.6588  218.4471 H   0  0  0  0  0  0  0  0  0  0  0  0
  139.2960   78.8485  217.1174 H   0  0  0  0  0  0  0  0  0  0  0  0
  141.0280   77.6530  216.7700 C   0  0  0  0  0  0  0  0  0  0  0  0
  141.7463   77.0583  217.3534 H   0  0  0  0  0  0  0  0  0  0  0  0
  140.4325   76.9961  216.1190 H   0  0  0  0  0  0  0  0  0  0  0  0
  141.7910   78.6520  215.9000 C   0  0  0  0  0  0  0  0  0  0  0  0
  142.4711   78.1041  215.2312 H   0  0  0  0  0  0  0  0  0  0  0  0
  141.0681   79.2353  215.3108 H   0  0  0  0  0  0  0  0  0  0  0  0
  142.5720   79.5700  216.7360 N   0  0  0  0  0  0  0  0  0  0  0  0
  143.2690   79.0290  217.2910 H   0  0  0  0  0  0  0  0  0  0  0  0
  143.1020   80.2190  216.1090 H   0  0  0  0  0  0  0  0  0  0  0  0
  141.7080   80.3760  217.6150 C   0  0  0  0  0  0  0  0  0  0  0  0
  142.3483   80.9939  218.2617 H   0  0  0  0  0  0  0  0  0  0  0  0
  141.0619   80.9845  216.9652 H   0  0  0  0  0  0  0  0  0  0  0  0
  140.5720   79.2130  222.9680 C   0  0  0  0  0  0  0  0  0  0  0  0
  140.2030   80.4720  222.6020 N   0  0  0  0  0  0  0  0  0  0  0  0
  141.0020   81.5520  222.8090 C   0  0  0  0  0  0  0  0  0  0  0  0
  140.6695   82.5510  222.4905 H   0  0  0  0  0  0  0  0  0  0  0  0
  142.2430   81.3940  223.4250 C   0  0  0  0  0  0  0  0  0  0  0  0
  142.8964   82.2632  223.5910 H   0  0  0  0  0  0  0  0  0  0  0  0
  142.6460   80.1220  223.8280 C   0  0  0  0  0  0  0  0  0  0  0  0
  143.6200   79.9838  224.3201 H   0  0  0  0  0  0  0  0  0  0  0  0
  141.8130   79.0230  223.6070 C   0  0  0  0  0  0  0  0  0  0  0  0
  142.1232   78.0180  223.9290 H   0  0  0  0  0  0  0  0  0  0  0  0
  1  2  1  0
  2  3  2  0
  3  4  1  0
  3  5  1  0
  5  6  2  0
  6  7  1  0
  7  8  2  0
  8  9  1  0
  8 10  1  0
 10 11  1  0
 10 12  2  0
 12 13  1  0
 12 14  1  0
 14 15  1  0
 14 16  2  0
 16 17  1  0
 17 18  2  0
 17 19  1  0
 19 20  1  0
 20 21  1  0
 20 22  1  0
 20 23  1  0
 23 24  1  1
 23 25  1  0
 25 26  1  0
 25 27  1  0
 25 28  1  0
 28 29  1  0
 28 30  1  0
 28 31  1  0
 31 32  1  0
 31 33  1  0
 31 34  1  0
 34 35  1  0
 34 36  1  0
 34 37  1  0
 37 38  1  0
 37 39  1  0
  2 40  1  0
 40 41  2  0
 41 42  1  0
 42 43  1  0
 42 44  2  0
 44 45  1  0
 44 46  1  0
 46 47  1  0
 46 48  2  0
 48 49  1  0
 19  5  1  0
 37 23  1  0
 48 40  1  0
 16  7  1  0
M  CHG  1  34   1
M  END
>  <UniqueID>  (65) 
435

>  <SMILES>  (65) 
O=c1c2ccc(Cl)cc2nc(/C=C/c2ccccn2)n1C[C@@H]1CCC[NH2+]C1

>  <Energy>  (65) 
68.65703999713388

>  <Genealogy>  (65) 
O=c1c2ccc(Cl)cc2nc(/C=C/c2ccccn2)n1CC1CCC[NH2+]C1 (protonated)
O=c1c2ccc(Cl)cc2nc(/C=C/c2ccccn2)n1C[C@@H]1CCC[NH2+]C1 (chirality)
O=c1c2ccc(Cl)cc2nc(/C=C/c2ccccn2)n1C[C@@H]1CCC[NH2+]C1 (cis-trans isomerization)
O=c1c2ccc(Cl)cc2nc(/C=C/c2ccccn2)n1C[C@@H]1CCC[NH2+]C1 (3D coordinates assigned)
O=c1c2ccc(Cl)cc2nc(/C=C/c2ccccn2)n1C[C@@H]1CCC[NH2+]C1 (nonaromatic ring conformer: 68.65703999713388 kcal/mol)

>  <smiles>  (65) 
O=c1c2ccc(Cl)cc2nc(/C=C/c2ccccn2)n1CC1CCCNC1

>  <score_type>  (65) 
oracle

>  <origin>  (65) 
autodockgpu

>  <m_score__min__energy>  (65) 
-7.6699999999999999

>  <m_primary>  (65) 
energy

>  <meeko>  (65) 
{"free_energy": -7.29, "intermolecular_energy": -8.78, "internal_energy": -2.28, "cluster_size": 16, "cluster_id": 2, "rank_in_cluster": 9}

>  <energy>  (65) 
-7.32

>  <cluster_rmsd>  (65) 
0.0

>  <rmsd>  (65) 
271.25

>  <cluster>  (65) 
2

$$$$
MESWETRYUNDHFU-QZJYLSAJNA-O
     RDKit          3D

 49 52  0  0  0  0  0  0  0  0999 V2000
  138.7755   77.9137  223.4630 H   0  0  0  0  0  0  0  0  0  0  0  0
  139.5560   78.1170  222.7150 C   0  0  0  0  0  0  0  0  0  0  0  0
  139.4910   77.4660  221.5450 C   0  0  0  0  0  0  0  0  0  0  0  0
  138.5154   77.3409  221.0526 H   0  0  0  0  0  0  0  0  0  0  0  0
  140.7070   76.9100  220.8990 C   0  0  0  0  0  0  0  0  0  0  0  0
  140.9790   75.5960  221.1130 N   0  0  0  0  0  0  0  0  0  0  0  0
  142.0330   74.9740  220.5390 C   0  0  0  0  0  0  0  0  0  0  0  0
  142.2740   73.6200  220.7990 C   0  0  0  0  0  0  0  0  0  0  0  0
  141.6143   73.0655  221.4826 H   0  0  0  0  0  0  0  0  0  0  0  0
  143.3530   72.9720  220.1900 C   0  0  0  0  0  0  0  0  0  0  0  0
  143.6560   71.2750  220.5160 Cl  0  0  0  0  0  0  0  0  0  0  0  0
  144.1910   73.6770  219.3200 C   0  0  0  0  0  0  0  0  0  0  0  0
  145.0398   73.1665  218.8416 H   0  0  0  0  0  0  0  0  0  0  0  0
  143.9520   75.0300  219.0570 C   0  0  0  0  0  0  0  0  0  0  0  0
  144.6122   75.5805  218.3706 H   0  0  0  0  0  0  0  0  0  0  0  0
  142.8680   75.6890  219.6690 C   0  0  0  0  0  0  0  0  0  0  0  0
  142.5910   77.0480  219.4470 C   0  0  0  0  0  0  0  0  0  0  0  0
  143.3170   77.6960  218.6410 O   0  0  0  0  0  0  0  0  0  0  0  0
  141.5460   77.6680  220.0990 N   0  0  0  0  0  0  0  0  0  0  0  0
  141.3330   79.1240  219.8940 C   0  0  0  0  0  0  0  0  0  0  0  0
  140.6310   79.4763  220.6642 H   0  0  0  0  0  0  0  0  0  0  0  0
  142.3281   79.5884  219.9581 H   0  0  0  0  0  0  0  0  0  0  0  0
  140.7600   79.5250  218.5010 C   0  0  2  0  0  0  0  0  0  0  0  0
  139.9631   80.2257  218.7908 H   0  0  0  0  0  0  0  0  0  0  0  0
  140.0550   78.3890  217.7270 C   0  0  0  0  0  0  0  0  0  0  0  0
  139.6335   77.6802  218.4550 H   0  0  0  0  0  0  0  0  0  0  0  0
  139.2780   78.8544  217.1028 H   0  0  0  0  0  0  0  0  0  0  0  0
  140.9910   77.6220  216.7880 C   0  0  0  0  0  0  0  0  0  0  0  0
  141.6942   77.0242  217.3864 H   0  0  0  0  0  0  0  0  0  0  0  0
  140.3888   76.9650  216.1433 H   0  0  0  0  0  0  0  0  0  0  0  0
  141.7780   78.5930  215.9080 C   0  0  0  0  0  0  0  0  0  0  0  0
  142.4530   78.0224  215.2532 H   0  0  0  0  0  0  0  0  0  0  0  0
  141.0700   79.1796  215.3041 H   0  0  0  0  0  0  0  0  0  0  0  0
  142.5700   79.5110  216.7360 N   0  0  0  0  0  0  0  0  0  0  0  0
  143.2520   78.9660  217.3040 H   0  0  0  0  0  0  0  0  0  0  0  0
  143.1160   80.1400  216.1020 H   0  0  0  0  0  0  0  0  0  0  0  0
  141.7140   80.3470  217.5950 C   0  0  0  0  0  0  0  0  0  0  0  0
  142.3604   80.9630  218.2375 H   0  0  0  0  0  0  0  0  0  0  0  0
  141.0849   80.9575  216.9306 H   0  0  0  0  0  0  0  0  0  0  0  0
  140.6130   79.0920  223.0620 C   0  0  0  0  0  0  0  0  0  0  0  0
  141.9110   78.7170  222.8930 N   0  0  0  0  0  0  0  0  0  0  0  0
  142.9500   79.5500  223.1700 C   0  0  0  0  0  0  0  0  0  0  0  0
  143.9846   79.2045  223.0280 H   0  0  0  0  0  0  0  0  0  0  0  0
  142.7040   80.8420  223.6340 C   0  0  0  0  0  0  0  0  0  0  0  0
  143.5398   81.5194  223.8632 H   0  0  0  0  0  0  0  0  0  0  0  0
  141.3870   81.2650  223.8040 C   0  0  0  0  0  0  0  0  0  0  0  0
  141.1786   82.2827  224.1658 H   0  0  0  0  0  0  0  0  0  0  0  0
  140.3320   80.3970  223.5150 C   0  0  0  0  0  0  0  0  0  0  0  0
  139.2907   80.7287  223.6398 H   0  0  0  0  0  0  0  0  0  0  0  0
  1  2  1  0
  2  3  2  0
  3  4  1  0
  3  5  1  0
  5  6  2  0
  6  7  1  0
  7  8  2  0
  8  9  1  0
  8 10  1  0
 10 11  1  0
 10 12  2  0
 12 13  1  0
 12 14  1  0
 14 15  1  0
 14 16  2  0
 16 17  1  0
 17 18  2  0
 17 19  1  0
 19 20  1  0
 20 21  1  0
 20 22  1  0
 20 23  1  0
 23 24  1  1
 23 25  1  0
 25 26  1  0
 25 27  1  0
 25 28  1  0
 28 29  1  0
 28 30  1  0
 28 31  1  0
 31 32  1  0
 31 33  1  0
 31 34  1  0
 34 35  1  0
 34 36  1  0
 34 37  1  0
 37 38  1  0
 37 39  1  0
  2 40  1  0
 40 41  2  0
 41 42  1  0
 42 43  1  0
 42 44  2  0
 44 45  1  0
 44 46  1  0
 46 47  1  0
 46 48  2  0
 48 49  1  0
 19  5  1  0
 37 23  1  0
 48 40  1  0
 16  7  1  0
M  CHG  1  34   1
M  END
>  <UniqueID>  (66) 
435

>  <SMILES>  (66) 
O=c1c2ccc(Cl)cc2nc(/C=C/c2ccccn2)n1C[C@@H]1CCC[NH2+]C1

>  <Energy>  (66) 
68.65703999713388

>  <Genealogy>  (66) 
O=c1c2ccc(Cl)cc2nc(/C=C/c2ccccn2)n1CC1CCC[NH2+]C1 (protonated)
O=c1c2ccc(Cl)cc2nc(/C=C/c2ccccn2)n1C[C@@H]1CCC[NH2+]C1 (chirality)
O=c1c2ccc(Cl)cc2nc(/C=C/c2ccccn2)n1C[C@@H]1CCC[NH2+]C1 (cis-trans isomerization)
O=c1c2ccc(Cl)cc2nc(/C=C/c2ccccn2)n1C[C@@H]1CCC[NH2+]C1 (3D coordinates assigned)
O=c1c2ccc(Cl)cc2nc(/C=C/c2ccccn2)n1C[C@@H]1CCC[NH2+]C1 (nonaromatic ring conformer: 68.65703999713388 kcal/mol)

>  <smiles>  (66) 
O=c1c2ccc(Cl)cc2nc(/C=C/c2ccccn2)n1CC1CCCNC1

>  <score_type>  (66) 
oracle

>  <origin>  (66) 
autodockgpu

>  <m_score__min__energy>  (66) 
-7.6699999999999999

>  <m_primary>  (66) 
energy

>  <meeko>  (66) 
{"free_energy": -7.27, "intermolecular_energy": -8.77, "internal_energy": -2.26, "cluster_size": 16, "cluster_id": 2, "rank_in_cluster": 13}

>  <energy>  (66) 
-7.32

>  <cluster_rmsd>  (66) 
0.04

>  <rmsd>  (66) 
271.22

>  <cluster>  (66) 
2

$$$$
MESWETRYUNDHFU-QZJYLSAJNA-O
     RDKit          3D

 49 52  0  0  0  0  0  0  0  0999 V2000
  138.9472   77.8152  223.5555 H   0  0  0  0  0  0  0  0  0  0  0  0
  139.6260   78.1080  222.7410 C   0  0  0  0  0  0  0  0  0  0  0  0
  139.5410   77.4410  221.5810 C   0  0  0  0  0  0  0  0  0  0  0  0
  138.5560   77.3012  221.1118 H   0  0  0  0  0  0  0  0  0  0  0  0
  140.7470   76.8870  220.9160 C   0  0  0  0  0  0  0  0  0  0  0  0
  141.0180   75.5690  221.1160 N   0  0  0  0  0  0  0  0  0  0  0  0
  142.0620   74.9490  220.5250 C   0  0  0  0  0  0  0  0  0  0  0  0
  142.3010   73.5920  220.7700 C   0  0  0  0  0  0  0  0  0  0  0  0
  141.6470   73.0338  221.4561 H   0  0  0  0  0  0  0  0  0  0  0  0
  143.3710   72.9450  220.1430 C   0  0  0  0  0  0  0  0  0  0  0  0
  143.6710   71.2440  220.4520 Cl  0  0  0  0  0  0  0  0  0  0  0  0
  144.2010   73.6540  219.2690 C   0  0  0  0  0  0  0  0  0  0  0  0
  145.0421   73.1443  218.7762 H   0  0  0  0  0  0  0  0  0  0  0  0
  143.9640   75.0100  219.0200 C   0  0  0  0  0  0  0  0  0  0  0  0
  144.6177   75.5637  218.3300 H   0  0  0  0  0  0  0  0  0  0  0  0
  142.8900   75.6680  219.6510 C   0  0  0  0  0  0  0  0  0  0  0  0
  142.6150   77.0300  219.4430 C   0  0  0  0  0  0  0  0  0  0  0  0
  143.3340   77.6820  218.6350 O   0  0  0  0  0  0  0  0  0  0  0  0
  141.5800   77.6480  220.1130 N   0  0  0  0  0  0  0  0  0  0  0  0
  141.3700   79.1070  219.9220 C   0  0  0  0  0  0  0  0  0  0  0  0
  140.6801   79.4560  220.7044 H   0  0  0  0  0  0  0  0  0  0  0  0
  142.3678   79.5669  219.9759 H   0  0  0  0  0  0  0  0  0  0  0  0
  140.7800   79.5210  218.5410 C   0  0  2  0  0  0  0  0  0  0  0  0
  139.9781   80.2081  218.8491 H   0  0  0  0  0  0  0  0  0  0  0  0
  140.0810   78.3880  217.7560 C   0  0  0  0  0  0  0  0  0  0  0  0
  139.6741   77.6637  218.4770 H   0  0  0  0  0  0  0  0  0  0  0  0
  139.2933   78.8535  217.1454 H   0  0  0  0  0  0  0  0  0  0  0  0
  141.0170   77.6460  216.7980 C   0  0  0  0  0  0  0  0  0  0  0  0
  141.7324   77.0479  217.3815 H   0  0  0  0  0  0  0  0  0  0  0  0
  140.4163   76.9917  216.1491 H   0  0  0  0  0  0  0  0  0  0  0  0
  141.7850   78.6380  215.9250 C   0  0  0  0  0  0  0  0  0  0  0  0
  142.4609   78.0844  215.2566 H   0  0  0  0  0  0  0  0  0  0  0  0
  141.0653   79.2245  215.3351 H   0  0  0  0  0  0  0  0  0  0  0  0
  142.5730   79.5530  216.7590 N   0  0  0  0  0  0  0  0  0  0  0  0
  143.2670   79.0080  217.3130 H   0  0  0  0  0  0  0  0  0  0  0  0
  143.1070   80.1970  216.1290 H   0  0  0  0  0  0  0  0  0  0  0  0
  141.7160   80.3660  217.6380 C   0  0  0  0  0  0  0  0  0  0  0  0
  142.3616   80.9800  218.2832 H   0  0  0  0  0  0  0  0  0  0  0  0
  141.0735   80.9783  216.9882 H   0  0  0  0  0  0  0  0  0  0  0  0
  140.5760   79.2130  222.9930 C   0  0  0  0  0  0  0  0  0  0  0  0
  140.2020   80.4730  222.6370 N   0  0  0  0  0  0  0  0  0  0  0  0
  141.0010   81.5540  222.8430 C   0  0  0  0  0  0  0  0  0  0  0  0
  140.6637   82.5541  222.5332 H   0  0  0  0  0  0  0  0  0  0  0  0
  142.2480   81.3950  223.4470 C   0  0  0  0  0  0  0  0  0  0  0  0
  142.9011   82.2646  223.6120 H   0  0  0  0  0  0  0  0  0  0  0  0
  142.6570   80.1220  223.8390 C   0  0  0  0  0  0  0  0  0  0  0  0
  143.6360   79.9831  224.3210 H   0  0  0  0  0  0  0  0  0  0  0  0
  141.8240   79.0220  223.6200 C   0  0  0  0  0  0  0  0  0  0  0  0
  142.1392   78.0160  223.9340 H   0  0  0  0  0  0  0  0  0  0  0  0
  1  2  1  0
  2  3  2  0
  3  4  1  0
  3  5  1  0
  5  6  2  0
  6  7  1  0
  7  8  2  0
  8  9  1  0
  8 10  1  0
 10 11  1  0
 10 12  2  0
 12 13  1  0
 12 14  1  0
 14 15  1  0
 14 16  2  0
 16 17  1  0
 17 18  2  0
 17 19  1  0
 19 20  1  0
 20 21  1  0
 20 22  1  0
 20 23  1  0
 23 24  1  1
 23 25  1  0
 25 26  1  0
 25 27  1  0
 25 28  1  0
 28 29  1  0
 28 30  1  0
 28 31  1  0
 31 32  1  0
 31 33  1  0
 31 34  1  0
 34 35  1  0
 34 36  1  0
 34 37  1  0
 37 38  1  0
 37 39  1  0
  2 40  1  0
 40 41  2  0
 41 42  1  0
 42 43  1  0
 42 44  2  0
 44 45  1  0
 44 46  1  0
 46 47  1  0
 46 48  2  0
 48 49  1  0
 19  5  1  0
 37 23  1  0
 48 40  1  0
 16  7  1  0
M  CHG  1  34   1
M  END
>  <UniqueID>  (67) 
435

>  <SMILES>  (67) 
O=c1c2ccc(Cl)cc2nc(/C=C/c2ccccn2)n1C[C@@H]1CCC[NH2+]C1

>  <Energy>  (67) 
68.65703999713388

>  <Genealogy>  (67) 
O=c1c2ccc(Cl)cc2nc(/C=C/c2ccccn2)n1CC1CCC[NH2+]C1 (protonated)
O=c1c2ccc(Cl)cc2nc(/C=C/c2ccccn2)n1C[C@@H]1CCC[NH2+]C1 (chirality)
O=c1c2ccc(Cl)cc2nc(/C=C/c2ccccn2)n1C[C@@H]1CCC[NH2+]C1 (cis-trans isomerization)
O=c1c2ccc(Cl)cc2nc(/C=C/c2ccccn2)n1C[C@@H]1CCC[NH2+]C1 (3D coordinates assigned)
O=c1c2ccc(Cl)cc2nc(/C=C/c2ccccn2)n1C[C@@H]1CCC[NH2+]C1 (nonaromatic ring conformer: 68.65703999713388 kcal/mol)

>  <smiles>  (67) 
O=c1c2ccc(Cl)cc2nc(/C=C/c2ccccn2)n1CC1CCCNC1

>  <score_type>  (67) 
oracle

>  <origin>  (67) 
autodockgpu

>  <m_score__min__energy>  (67) 
-7.6699999999999999

>  <m_primary>  (67) 
energy

>  <meeko>  (67) 
{"free_energy": -7.3, "intermolecular_energy": -8.79, "internal_energy": -2.28, "cluster_size": 16, "cluster_id": 2, "rank_in_cluster": 8}

>  <energy>  (67) 
-7.31

>  <cluster_rmsd>  (67) 
0.08

>  <rmsd>  (67) 
271.24

>  <cluster>  (67) 
2

$$$$
MESWETRYUNDHFU-QZJYLSAJNA-O
     RDKit          3D

 49 52  0  0  0  0  0  0  0  0999 V2000
  139.0371   77.6850  223.5349 H   0  0  0  0  0  0  0  0  0  0  0  0
  139.6900   78.0140  222.7130 C   0  0  0  0  0  0  0  0  0  0  0  0
  139.6060   77.3630  221.5440 C   0  0  0  0  0  0  0  0  0  0  0  0
  138.6247   77.2510  221.0597 H   0  0  0  0  0  0  0  0  0  0  0  0
  140.8090   76.7900  220.8890 C   0  0  0  0  0  0  0  0  0  0  0  0
  141.0580   75.4690  221.0920 N   0  0  0  0  0  0  0  0  0  0  0  0
  142.0980   74.8330  220.5100 C   0  0  0  0  0  0  0  0  0  0  0  0
  142.3150   73.4720  220.7580 C   0  0  0  0  0  0  0  0  0  0  0  0
  141.6474   72.9241  221.4393 H   0  0  0  0  0  0  0  0  0  0  0  0
  143.3800   72.8090  220.1400 C   0  0  0  0  0  0  0  0  0  0  0  0
  143.6530   71.1050  220.4530 Cl  0  0  0  0  0  0  0  0  0  0  0  0
  144.2270   73.5050  219.2710 C   0  0  0  0  0  0  0  0  0  0  0  0
  145.0643   72.9828  218.7850 H   0  0  0  0  0  0  0  0  0  0  0  0
  144.0110   74.8640  219.0190 C   0  0  0  0  0  0  0  0  0  0  0  0
  144.6777   75.4076  218.3334 H   0  0  0  0  0  0  0  0  0  0  0  0
  142.9420   75.5380  219.6410 C   0  0  0  0  0  0  0  0  0  0  0  0
  142.6890   76.9040  219.4300 C   0  0  0  0  0  0  0  0  0  0  0  0
  143.4230   77.5440  218.6260 O   0  0  0  0  0  0  0  0  0  0  0  0
  141.6580   77.5380  220.0910 N   0  0  0  0  0  0  0  0  0  0  0  0
  141.4720   78.9990  219.8970 C   0  0  0  0  0  0  0  0  0  0  0  0
  140.8262   79.3695  220.7067 H   0  0  0  0  0  0  0  0  0  0  0  0
  142.4812   79.4365  219.9016 H   0  0  0  0  0  0  0  0  0  0  0  0
  140.8290   79.4160  218.5400 C   0  0  2  0  0  0  0  0  0  0  0  0
  140.0158   80.0735  218.8812 H   0  0  0  0  0  0  0  0  0  0  0  0
  140.1430   78.2730  217.7580 C   0  0  0  0  0  0  0  0  0  0  0  0
  139.7807   77.5255  218.4791 H   0  0  0  0  0  0  0  0  0  0  0  0
  139.3234   78.7224  217.1780 H   0  0  0  0  0  0  0  0  0  0  0  0
  141.0730   77.5750  216.7610 C   0  0  0  0  0  0  0  0  0  0  0  0
  141.8226   76.9896  217.3137 H   0  0  0  0  0  0  0  0  0  0  0  0
  140.4739   76.9130  216.1185 H   0  0  0  0  0  0  0  0  0  0  0  0
  141.7850   78.6040  215.8840 C   0  0  0  0  0  0  0  0  0  0  0  0
  142.4583   78.0821  215.1881 H   0  0  0  0  0  0  0  0  0  0  0  0
  141.0304   79.1769  215.3250 H   0  0  0  0  0  0  0  0  0  0  0  0
  142.5680   79.5310  216.7090 N   0  0  0  0  0  0  0  0  0  0  0  0
  143.2940   78.9990  217.2350 H   0  0  0  0  0  0  0  0  0  0  0  0
  143.0630   80.2010  216.0750 H   0  0  0  0  0  0  0  0  0  0  0  0
  141.7120   80.3040  217.6240 C   0  0  0  0  0  0  0  0  0  0  0  0
  142.3564   80.9286  218.2601 H   0  0  0  0  0  0  0  0  0  0  0  0
  141.0325   80.9056  217.0024 H   0  0  0  0  0  0  0  0  0  0  0  0
  140.6060   79.1470  222.9660 C   0  0  0  0  0  0  0  0  0  0  0  0
  140.2110   80.3910  222.5750 N   0  0  0  0  0  0  0  0  0  0  0  0
  140.9780   81.4950  222.7780 C   0  0  0  0  0  0  0  0  0  0  0  0
  140.6246   82.4800  222.4390 H   0  0  0  0  0  0  0  0  0  0  0  0
  142.2130   81.3790  223.4160 C   0  0  0  0  0  0  0  0  0  0  0  0
  142.8404   82.2676  223.5797 H   0  0  0  0  0  0  0  0  0  0  0  0
  142.6430   80.1230  223.8440 C   0  0  0  0  0  0  0  0  0  0  0  0
  143.6128   80.0172  224.3523 H   0  0  0  0  0  0  0  0  0  0  0  0
  141.8420   79.0000  223.6270 C   0  0  0  0  0  0  0  0  0  0  0  0
  142.1731   78.0084  223.9693 H   0  0  0  0  0  0  0  0  0  0  0  0
  1  2  1  0
  2  3  2  0
  3  4  1  0
  3  5  1  0
  5  6  2  0
  6  7  1  0
  7  8  2  0
  8  9  1  0
  8 10  1  0
 10 11  1  0
 10 12  2  0
 12 13  1  0
 12 14  1  0
 14 15  1  0
 14 16  2  0
 16 17  1  0
 17 18  2  0
 17 19  1  0
 19 20  1  0
 20 21  1  0
 20 22  1  0
 20 23  1  0
 23 24  1  1
 23 25  1  0
 25 26  1  0
 25 27  1  0
 25 28  1  0
 28 29  1  0
 28 30  1  0
 28 31  1  0
 31 32  1  0
 31 33  1  0
 31 34  1  0
 34 35  1  0
 34 36  1  0
 34 37  1  0
 37 38  1  0
 37 39  1  0
  2 40  1  0
 40 41  2  0
 41 42  1  0
 42 43  1  0
 42 44  2  0
 44 45  1  0
 44 46  1  0
 46 47  1  0
 46 48  2  0
 48 49  1  0
 19  5  1  0
 37 23  1  0
 48 40  1  0
 16  7  1  0
M  CHG  1  34   1
M  END
>  <UniqueID>  (68) 
435

>  <SMILES>  (68) 
O=c1c2ccc(Cl)cc2nc(/C=C/c2ccccn2)n1C[C@@H]1CCC[NH2+]C1

>  <Energy>  (68) 
68.65703999713388

>  <Genealogy>  (68) 
O=c1c2ccc(Cl)cc2nc(/C=C/c2ccccn2)n1CC1CCC[NH2+]C1 (protonated)
O=c1c2ccc(Cl)cc2nc(/C=C/c2ccccn2)n1C[C@@H]1CCC[NH2+]C1 (chirality)
O=c1c2ccc(Cl)cc2nc(/C=C/c2ccccn2)n1C[C@@H]1CCC[NH2+]C1 (cis-trans isomerization)
O=c1c2ccc(Cl)cc2nc(/C=C/c2ccccn2)n1C[C@@H]1CCC[NH2+]C1 (3D coordinates assigned)
O=c1c2ccc(Cl)cc2nc(/C=C/c2ccccn2)n1C[C@@H]1CCC[NH2+]C1 (nonaromatic ring conformer: 68.65703999713388 kcal/mol)

>  <smiles>  (68) 
O=c1c2ccc(Cl)cc2nc(/C=C/c2ccccn2)n1CC1CCCNC1

>  <score_type>  (68) 
oracle

>  <origin>  (68) 
autodockgpu

>  <m_score__min__energy>  (68) 
-7.6699999999999999

>  <m_primary>  (68) 
energy

>  <meeko>  (68) 
{"free_energy": -7.31, "intermolecular_energy": -8.8, "internal_energy": -2.28, "cluster_size": 16, "cluster_id": 2, "rank_in_cluster": 4}

>  <energy>  (68) 
-7.31

>  <cluster_rmsd>  (68) 
0.05

>  <rmsd>  (68) 
271.22

>  <cluster>  (68) 
2

$$$$
MESWETRYUNDHFU-QZJYLSAJNA-O
     RDKit          3D

 49 52  0  0  0  0  0  0  0  0999 V2000
  141.0950   83.4778  222.0354 H   0  0  0  0  0  0  0  0  0  0  0  0
  140.9800   82.4840  221.5780 C   0  0  0  0  0  0  0  0  0  0  0  0
  140.6200   82.4230  220.2880 C   0  0  0  0  0  0  0  0  0  0  0  0
  139.8845   83.1432  219.9003 H   0  0  0  0  0  0  0  0  0  0  0  0
  141.1920   81.4050  219.3710 C   0  0  0  0  0  0  0  0  0  0  0  0
  141.4640   80.1800  219.8940 N   0  0  0  0  0  0  0  0  0  0  0  0
  141.9440   79.1650  219.1430 C   0  0  0  0  0  0  0  0  0  0  0  0
  142.2150   77.9240  219.7330 C   0  0  0  0  0  0  0  0  0  0  0  0
  142.0509   77.7802  220.8111 H   0  0  0  0  0  0  0  0  0  0  0  0
  142.6940   76.8680  218.9520 C   0  0  0  0  0  0  0  0  0  0  0  0
  143.0340   75.3140  219.6910 Cl  0  0  0  0  0  0  0  0  0  0  0  0
  142.9000   77.0500  217.5810 C   0  0  0  0  0  0  0  0  0  0  0  0
  143.2759   76.2181  216.9673 H   0  0  0  0  0  0  0  0  0  0  0  0
  142.6290   78.2880  216.9880 C   0  0  0  0  0  0  0  0  0  0  0  0
  142.7904   78.4267  215.9088 H   0  0  0  0  0  0  0  0  0  0  0  0
  142.1500   79.3570  217.7700 C   0  0  0  0  0  0  0  0  0  0  0  0
  141.8720   80.6220  217.2260 C   0  0  0  0  0  0  0  0  0  0  0  0
  142.0230   80.8000  215.9850 O   0  0  0  0  0  0  0  0  0  0  0  0
  141.4440   81.6560  218.0330 N   0  0  0  0  0  0  0  0  0  0  0  0
  141.2340   82.9980  217.4300 C   0  0  0  0  0  0  0  0  0  0  0  0
  140.7190   82.8612  216.4677 H   0  0  0  0  0  0  0  0  0  0  0  0
  140.6511   83.5733  218.1643 H   0  0  0  0  0  0  0  0  0  0  0  0
  142.5310   83.8220  217.1690 C   0  0  2  0  0  0  0  0  0  0  0  0
  142.4950   84.5458  217.9965 H   0  0  0  0  0  0  0  0  0  0  0  0
  142.5250   84.6660  215.8740 C   0  0  0  0  0  0  0  0  0  0  0  0
  141.4861   84.9448  215.6438 H   0  0  0  0  0  0  0  0  0  0  0  0
  143.1599   85.5457  216.0557 H   0  0  0  0  0  0  0  0  0  0  0  0
  143.1090   83.9270  214.6660 C   0  0  0  0  0  0  0  0  0  0  0  0
  142.4189   83.1257  214.3634 H   0  0  0  0  0  0  0  0  0  0  0  0
  143.2433   84.6428  213.8416 H   0  0  0  0  0  0  0  0  0  0  0  0
  144.4650   83.3170  215.0170 C   0  0  0  0  0  0  0  0  0  0  0  0
  144.8579   82.7801  214.1410 H   0  0  0  0  0  0  0  0  0  0  0  0
  145.1534   84.1243  215.3077 H   0  0  0  0  0  0  0  0  0  0  0  0
  144.3330   82.3800  216.1380 N   0  0  0  0  0  0  0  0  0  0  0  0
  143.6910   81.6040  215.8690 H   0  0  0  0  0  0  0  0  0  0  0  0
  145.2720   81.9600  216.3320 H   0  0  0  0  0  0  0  0  0  0  0  0
  143.8640   83.0540  217.3610 C   0  0  0  0  0  0  0  0  0  0  0  0
  143.7192   82.2948  218.1437 H   0  0  0  0  0  0  0  0  0  0  0  0
  144.6287   83.7952  217.6365 H   0  0  0  0  0  0  0  0  0  0  0  0
  141.2320   81.2970  222.4240 C   0  0  0  0  0  0  0  0  0  0  0  0
  142.5260   80.9430  222.6620 N   0  0  0  0  0  0  0  0  0  0  0  0
  142.8560   79.8780  223.4400 C   0  0  0  0  0  0  0  0  0  0  0  0
  143.9134   79.6212  223.6010 H   0  0  0  0  0  0  0  0  0  0  0  0
  141.8540   79.1110  224.0340 C   0  0  0  0  0  0  0  0  0  0  0  0
  142.1142   78.2450  224.6604 H   0  0  0  0  0  0  0  0  0  0  0  0
  140.5190   79.4540  223.8250 C   0  0  0  0  0  0  0  0  0  0  0  0
  139.7189   78.8600  224.2908 H   0  0  0  0  0  0  0  0  0  0  0  0
  140.1980   80.5520  223.0240 C   0  0  0  0  0  0  0  0  0  0  0  0
  139.1467   80.8327  222.8630 H   0  0  0  0  0  0  0  0  0  0  0  0
  1  2  1  0
  2  3  2  0
  3  4  1  0
  3  5  1  0
  5  6  2  0
  6  7  1  0
  7  8  2  0
  8  9  1  0
  8 10  1  0
 10 11  1  0
 10 12  2  0
 12 13  1  0
 12 14  1  0
 14 15  1  0
 14 16  2  0
 16 17  1  0
 17 18  2  0
 17 19  1  0
 19 20  1  0
 20 21  1  0
 20 22  1  0
 20 23  1  0
 23 24  1  1
 23 25  1  0
 25 26  1  0
 25 27  1  0
 25 28  1  0
 28 29  1  0
 28 30  1  0
 28 31  1  0
 31 32  1  0
 31 33  1  0
 31 34  1  0
 34 35  1  0
 34 36  1  0
 34 37  1  0
 37 38  1  0
 37 39  1  0
  2 40  1  0
 40 41  2  0
 41 42  1  0
 42 43  1  0
 42 44  2  0
 44 45  1  0
 44 46  1  0
 46 47  1  0
 46 48  2  0
 48 49  1  0
 19  5  1  0
 37 23  1  0
 48 40  1  0
 16  7  1  0
M  CHG  1  34   1
M  END
>  <UniqueID>  (69) 
435

>  <SMILES>  (69) 
O=c1c2ccc(Cl)cc2nc(/C=C/c2ccccn2)n1C[C@@H]1CCC[NH2+]C1

>  <Energy>  (69) 
68.65703999713388

>  <Genealogy>  (69) 
O=c1c2ccc(Cl)cc2nc(/C=C/c2ccccn2)n1CC1CCC[NH2+]C1 (protonated)
O=c1c2ccc(Cl)cc2nc(/C=C/c2ccccn2)n1C[C@@H]1CCC[NH2+]C1 (chirality)
O=c1c2ccc(Cl)cc2nc(/C=C/c2ccccn2)n1C[C@@H]1CCC[NH2+]C1 (cis-trans isomerization)
O=c1c2ccc(Cl)cc2nc(/C=C/c2ccccn2)n1C[C@@H]1CCC[NH2+]C1 (3D coordinates assigned)
O=c1c2ccc(Cl)cc2nc(/C=C/c2ccccn2)n1C[C@@H]1CCC[NH2+]C1 (nonaromatic ring conformer: 68.65703999713388 kcal/mol)

>  <smiles>  (69) 
O=c1c2ccc(Cl)cc2nc(/C=C/c2ccccn2)n1CC1CCCNC1

>  <score_type>  (69) 
oracle

>  <origin>  (69) 
autodockgpu

>  <m_score__min__energy>  (69) 
-7.6699999999999999

>  <m_primary>  (69) 
energy

>  <meeko>  (69) 
{"free_energy": -7.66, "intermolecular_energy": -9.15, "internal_energy": -2.01, "cluster_size": 4, "cluster_id": 1, "rank_in_cluster": 2}

>  <energy>  (69) 
-7.31

>  <cluster_rmsd>  (69) 
0.59

>  <rmsd>  (69) 
271.22

>  <cluster>  (69) 
2

$$$$
MESWETRYUNDHFU-QZJYLSAJNA-O
     RDKit          3D

 49 52  0  0  0  0  0  0  0  0999 V2000
  138.8032   77.8857  223.4950 H   0  0  0  0  0  0  0  0  0  0  0  0
  139.5680   78.1000  222.7340 C   0  0  0  0  0  0  0  0  0  0  0  0
  139.4940   77.4460  221.5660 C   0  0  0  0  0  0  0  0  0  0  0  0
  138.5154   77.3254  221.0784 H   0  0  0  0  0  0  0  0  0  0  0  0
  140.7030   76.8810  220.9160 C   0  0  0  0  0  0  0  0  0  0  0  0
  140.9550   75.5590  221.1130 N   0  0  0  0  0  0  0  0  0  0  0  0
  142.0010   74.9290  220.5350 C   0  0  0  0  0  0  0  0  0  0  0  0
  142.2200   73.5680  220.7760 C   0  0  0  0  0  0  0  0  0  0  0  0
  141.5488   73.0138  221.4486 H   0  0  0  0  0  0  0  0  0  0  0  0
  143.2920   72.9120  220.1620 C   0  0  0  0  0  0  0  0  0  0  0  0
  143.5660   71.2060  220.4660 Cl  0  0  0  0  0  0  0  0  0  0  0  0
  144.1430   73.6160  219.3050 C   0  0  0  0  0  0  0  0  0  0  0  0
  144.9854   73.0992  218.8221 H   0  0  0  0  0  0  0  0  0  0  0  0
  143.9260   74.9760  219.0600 C   0  0  0  0  0  0  0  0  0  0  0  0
  144.5969   75.5257  218.3834 H   0  0  0  0  0  0  0  0  0  0  0  0
  142.8500   75.6430  219.6780 C   0  0  0  0  0  0  0  0  0  0  0  0
  142.5950   77.0090  219.4740 C   0  0  0  0  0  0  0  0  0  0  0  0
  143.3340   77.6570  218.6800 O   0  0  0  0  0  0  0  0  0  0  0  0
  141.5570   77.6360  220.1310 N   0  0  0  0  0  0  0  0  0  0  0  0
  141.3690   79.0990  219.9450 C   0  0  0  0  0  0  0  0  0  0  0  0
  140.6939   79.4579  220.7358 H   0  0  0  0  0  0  0  0  0  0  0  0
  142.3747   79.5425  219.9885 H   0  0  0  0  0  0  0  0  0  0  0  0
  140.7700   79.5250  218.5710 C   0  0  2  0  0  0  0  0  0  0  0  0
  139.9721   80.2120  218.8895 H   0  0  0  0  0  0  0  0  0  0  0  0
  140.0620   78.3990  217.7830 C   0  0  0  0  0  0  0  0  0  0  0  0
  139.6590   77.6702  218.5017 H   0  0  0  0  0  0  0  0  0  0  0  0
  139.2703   78.8704  217.1822 H   0  0  0  0  0  0  0  0  0  0  0  0
  140.9900   77.6620  216.8120 C   0  0  0  0  0  0  0  0  0  0  0  0
  141.7081   77.0575  217.3856 H   0  0  0  0  0  0  0  0  0  0  0  0
  140.3836   77.0140  216.1621 H   0  0  0  0  0  0  0  0  0  0  0  0
  141.7540   78.6600  215.9420 C   0  0  0  0  0  0  0  0  0  0  0  0
  142.4236   78.1106  215.2639 H   0  0  0  0  0  0  0  0  0  0  0  0
  141.0310   79.2532  215.3629 H   0  0  0  0  0  0  0  0  0  0  0  0
  142.5500   79.5660  216.7770 N   0  0  0  0  0  0  0  0  0  0  0  0
  143.2470   79.0150  217.3230 H   0  0  0  0  0  0  0  0  0  0  0  0
  143.0810   80.2140  216.1490 H   0  0  0  0  0  0  0  0  0  0  0  0
  141.7010   80.3750  217.6680 C   0  0  0  0  0  0  0  0  0  0  0  0
  142.3524   80.9829  218.3131 H   0  0  0  0  0  0  0  0  0  0  0  0
  141.0554   80.9939  217.0275 H   0  0  0  0  0  0  0  0  0  0  0  0
  140.6150   79.0920  223.0620 C   0  0  0  0  0  0  0  0  0  0  0  0
  141.9170   78.7300  222.8960 N   0  0  0  0  0  0  0  0  0  0  0  0
  142.9470   79.5790  223.1560 C   0  0  0  0  0  0  0  0  0  0  0  0
  143.9852   79.2434  223.0161 H   0  0  0  0  0  0  0  0  0  0  0  0
  142.6870   80.8750  223.6000 C   0  0  0  0  0  0  0  0  0  0  0  0
  143.5155   81.5653  223.8169 H   0  0  0  0  0  0  0  0  0  0  0  0
  141.3650   81.2860  223.7660 C   0  0  0  0  0  0  0  0  0  0  0  0
  141.1456   82.3074  224.1104 H   0  0  0  0  0  0  0  0  0  0  0  0
  140.3200   80.4010  223.4950 C   0  0  0  0  0  0  0  0  0  0  0  0
  139.2752   80.7222  223.6182 H   0  0  0  0  0  0  0  0  0  0  0  0
  1  2  1  0
  2  3  2  0
  3  4  1  0
  3  5  1  0
  5  6  2  0
  6  7  1  0
  7  8  2  0
  8  9  1  0
  8 10  1  0
 10 11  1  0
 10 12  2  0
 12 13  1  0
 12 14  1  0
 14 15  1  0
 14 16  2  0
 16 17  1  0
 17 18  2  0
 17 19  1  0
 19 20  1  0
 20 21  1  0
 20 22  1  0
 20 23  1  0
 23 24  1  1
 23 25  1  0
 25 26  1  0
 25 27  1  0
 25 28  1  0
 28 29  1  0
 28 30  1  0
 28 31  1  0
 31 32  1  0
 31 33  1  0
 31 34  1  0
 34 35  1  0
 34 36  1  0
 34 37  1  0
 37 38  1  0
 37 39  1  0
  2 40  1  0
 40 41  2  0
 41 42  1  0
 42 43  1  0
 42 44  2  0
 44 45  1  0
 44 46  1  0
 46 47  1  0
 46 48  2  0
 48 49  1  0
 19  5  1  0
 37 23  1  0
 48 40  1  0
 16  7  1  0
M  CHG  1  34   1
M  END
>  <UniqueID>  (70) 
435

>  <SMILES>  (70) 
O=c1c2ccc(Cl)cc2nc(/C=C/c2ccccn2)n1C[C@@H]1CCC[NH2+]C1

>  <Energy>  (70) 
68.65703999713388

>  <Genealogy>  (70) 
O=c1c2ccc(Cl)cc2nc(/C=C/c2ccccn2)n1CC1CCC[NH2+]C1 (protonated)
O=c1c2ccc(Cl)cc2nc(/C=C/c2ccccn2)n1C[C@@H]1CCC[NH2+]C1 (chirality)
O=c1c2ccc(Cl)cc2nc(/C=C/c2ccccn2)n1C[C@@H]1CCC[NH2+]C1 (cis-trans isomerization)
O=c1c2ccc(Cl)cc2nc(/C=C/c2ccccn2)n1C[C@@H]1CCC[NH2+]C1 (3D coordinates assigned)
O=c1c2ccc(Cl)cc2nc(/C=C/c2ccccn2)n1C[C@@H]1CCC[NH2+]C1 (nonaromatic ring conformer: 68.65703999713388 kcal/mol)

>  <smiles>  (70) 
O=c1c2ccc(Cl)cc2nc(/C=C/c2ccccn2)n1CC1CCCNC1

>  <score_type>  (70) 
oracle

>  <origin>  (70) 
autodockgpu

>  <m_score__min__energy>  (70) 
-7.6699999999999999

>  <m_primary>  (70) 
energy

>  <meeko>  (70) 
{"free_energy": -7.27, "intermolecular_energy": -8.76, "internal_energy": -2.25, "cluster_size": 16, "cluster_id": 2, "rank_in_cluster": 14}

>  <energy>  (70) 
-7.31

>  <cluster_rmsd>  (70) 
0.6

>  <rmsd>  (70) 
271.24

>  <cluster>  (70) 
2

$$$$
MESWETRYUNDHFU-QZJYLSAJNA-O
     RDKit          3D

 49 52  0  0  0  0  0  0  0  0999 V2000
  138.9731   77.7691  223.5422 H   0  0  0  0  0  0  0  0  0  0  0  0
  139.6490   78.0640  222.7260 C   0  0  0  0  0  0  0  0  0  0  0  0
  139.5680   77.3920  221.5680 C   0  0  0  0  0  0  0  0  0  0  0  0
  138.5849   77.2513  221.0950 H   0  0  0  0  0  0  0  0  0  0  0  0
  140.7770   76.8340  220.9110 C   0  0  0  0  0  0  0  0  0  0  0  0
  141.0430   75.5160  221.1150 N   0  0  0  0  0  0  0  0  0  0  0  0
  142.0890   74.8920  220.5320 C   0  0  0  0  0  0  0  0  0  0  0  0
  142.3240   73.5350  220.7810 C   0  0  0  0  0  0  0  0  0  0  0  0
  141.6652   72.9797  221.4649 H   0  0  0  0  0  0  0  0  0  0  0  0
  143.3960   72.8840  220.1610 C   0  0  0  0  0  0  0  0  0  0  0  0
  143.6890   71.1830  220.4750 Cl  0  0  0  0  0  0  0  0  0  0  0  0
  144.2320   73.5900  219.2910 C   0  0  0  0  0  0  0  0  0  0  0  0
  145.0745   73.0777  218.8034 H   0  0  0  0  0  0  0  0  0  0  0  0
  144.0000   74.9460  219.0390 C   0  0  0  0  0  0  0  0  0  0  0  0
  144.6596   75.4970  218.3525 H   0  0  0  0  0  0  0  0  0  0  0  0
  142.9240   75.6080  219.6620 C   0  0  0  0  0  0  0  0  0  0  0  0
  142.6540   76.9700  219.4500 C   0  0  0  0  0  0  0  0  0  0  0  0
  143.3800   77.6190  218.6450 O   0  0  0  0  0  0  0  0  0  0  0  0
  141.6170   77.5920  220.1120 N   0  0  0  0  0  0  0  0  0  0  0  0
  141.4120   79.0510  219.9180 C   0  0  0  0  0  0  0  0  0  0  0  0
  140.7365   79.4073  220.7097 H   0  0  0  0  0  0  0  0  0  0  0  0
  142.4129   79.5058  219.9542 H   0  0  0  0  0  0  0  0  0  0  0  0
  140.8020   79.4620  218.5440 C   0  0  2  0  0  0  0  0  0  0  0  0
  139.9882   80.1305  218.8615 H   0  0  0  0  0  0  0  0  0  0  0  0
  140.1200   78.3190  217.7580 C   0  0  0  0  0  0  0  0  0  0  0  0
  139.7355   77.5815  218.4778 H   0  0  0  0  0  0  0  0  0  0  0  0
  139.3165   78.7710  217.1579 H   0  0  0  0  0  0  0  0  0  0  0  0
  141.0630   77.6040  216.7870 C   0  0  0  0  0  0  0  0  0  0  0  0
  141.7955   77.0167  217.3602 H   0  0  0  0  0  0  0  0  0  0  0  0
  140.4706   76.9421  216.1382 H   0  0  0  0  0  0  0  0  0  0  0  0
  141.8030   78.6180  215.9150 C   0  0  0  0  0  0  0  0  0  0  0  0
  142.4846   78.0831  215.2372 H   0  0  0  0  0  0  0  0  0  0  0  0
  141.0659   79.1935  215.3358 H   0  0  0  0  0  0  0  0  0  0  0  0
  142.5790   79.5440  216.7480 N   0  0  0  0  0  0  0  0  0  0  0  0
  143.2890   79.0090  217.2930 H   0  0  0  0  0  0  0  0  0  0  0  0
  143.0940   80.2030  216.1190 H   0  0  0  0  0  0  0  0  0  0  0  0
  141.7130   80.3330  217.6400 C   0  0  0  0  0  0  0  0  0  0  0  0
  142.3512   80.9552  218.2846 H   0  0  0  0  0  0  0  0  0  0  0  0
  141.0529   80.9372  217.0003 H   0  0  0  0  0  0  0  0  0  0  0  0
  140.5910   79.1770  222.9730 C   0  0  0  0  0  0  0  0  0  0  0  0
  140.2280   80.4260  222.5700 N   0  0  0  0  0  0  0  0  0  0  0  0
  141.0210   81.5130  222.7680 C   0  0  0  0  0  0  0  0  0  0  0  0
  140.6935   82.5035  222.4192 H   0  0  0  0  0  0  0  0  0  0  0  0
  142.2490   81.3720  223.4130 C   0  0  0  0  0  0  0  0  0  0  0  0
  142.8973   82.2463  223.5720 H   0  0  0  0  0  0  0  0  0  0  0  0
  142.6460   80.1110  223.8540 C   0  0  0  0  0  0  0  0  0  0  0  0
  143.6101   79.9865  224.3688 H   0  0  0  0  0  0  0  0  0  0  0  0
  141.8190   79.0050  223.6420 C   0  0  0  0  0  0  0  0  0  0  0  0
  142.1240   78.0086  223.9943 H   0  0  0  0  0  0  0  0  0  0  0  0
  1  2  1  0
  2  3  2  0
  3  4  1  0
  3  5  1  0
  5  6  2  0
  6  7  1  0
  7  8  2  0
  8  9  1  0
  8 10  1  0
 10 11  1  0
 10 12  2  0
 12 13  1  0
 12 14  1  0
 14 15  1  0
 14 16  2  0
 16 17  1  0
 17 18  2  0
 17 19  1  0
 19 20  1  0
 20 21  1  0
 20 22  1  0
 20 23  1  0
 23 24  1  1
 23 25  1  0
 25 26  1  0
 25 27  1  0
 25 28  1  0
 28 29  1  0
 28 30  1  0
 28 31  1  0
 31 32  1  0
 31 33  1  0
 31 34  1  0
 34 35  1  0
 34 36  1  0
 34 37  1  0
 37 38  1  0
 37 39  1  0
  2 40  1  0
 40 41  2  0
 41 42  1  0
 42 43  1  0
 42 44  2  0
 44 45  1  0
 44 46  1  0
 46 47  1  0
 46 48  2  0
 48 49  1  0
 19  5  1  0
 37 23  1  0
 48 40  1  0
 16  7  1  0
M  CHG  1  34   1
M  END
>  <UniqueID>  (71) 
435

>  <SMILES>  (71) 
O=c1c2ccc(Cl)cc2nc(/C=C/c2ccccn2)n1C[C@@H]1CCC[NH2+]C1

>  <Energy>  (71) 
68.65703999713388

>  <Genealogy>  (71) 
O=c1c2ccc(Cl)cc2nc(/C=C/c2ccccn2)n1CC1CCC[NH2+]C1 (protonated)
O=c1c2ccc(Cl)cc2nc(/C=C/c2ccccn2)n1C[C@@H]1CCC[NH2+]C1 (chirality)
O=c1c2ccc(Cl)cc2nc(/C=C/c2ccccn2)n1C[C@@H]1CCC[NH2+]C1 (cis-trans isomerization)
O=c1c2ccc(Cl)cc2nc(/C=C/c2ccccn2)n1C[C@@H]1CCC[NH2+]C1 (3D coordinates assigned)
O=c1c2ccc(Cl)cc2nc(/C=C/c2ccccn2)n1C[C@@H]1CCC[NH2+]C1 (nonaromatic ring conformer: 68.65703999713388 kcal/mol)

>  <smiles>  (71) 
O=c1c2ccc(Cl)cc2nc(/C=C/c2ccccn2)n1CC1CCCNC1

>  <score_type>  (71) 
oracle

>  <origin>  (71) 
autodockgpu

>  <m_score__min__energy>  (71) 
-7.6699999999999999

>  <m_primary>  (71) 
energy

>  <meeko>  (71) 
{"free_energy": -7.3, "intermolecular_energy": -8.79, "internal_energy": -2.28, "cluster_size": 16, "cluster_id": 2, "rank_in_cluster": 7}

>  <energy>  (71) 
-7.3

>  <cluster_rmsd>  (71) 
0.04

>  <rmsd>  (71) 
271.24

>  <cluster>  (71) 
2

$$$$
MESWETRYUNDHFU-QZJYLSAJNA-O
     RDKit          3D

 49 52  0  0  0  0  0  0  0  0999 V2000
  139.0534   77.7234  223.5404 H   0  0  0  0  0  0  0  0  0  0  0  0
  139.6990   78.0580  222.7150 C   0  0  0  0  0  0  0  0  0  0  0  0
  139.6120   77.4090  221.5460 C   0  0  0  0  0  0  0  0  0  0  0  0
  138.6297   77.3011  221.0628 H   0  0  0  0  0  0  0  0  0  0  0  0
  140.8120   76.8320  220.8880 C   0  0  0  0  0  0  0  0  0  0  0  0
  141.0580   75.5110  221.0940 N   0  0  0  0  0  0  0  0  0  0  0  0
  142.0950   74.8710  220.5110 C   0  0  0  0  0  0  0  0  0  0  0  0
  142.3090   73.5100  220.7610 C   0  0  0  0  0  0  0  0  0  0  0  0
  141.6414   72.9651  221.4447 H   0  0  0  0  0  0  0  0  0  0  0  0
  143.3710   72.8430  220.1420 C   0  0  0  0  0  0  0  0  0  0  0  0
  143.6410   71.1380  220.4580 Cl  0  0  0  0  0  0  0  0  0  0  0  0
  144.2180   73.5350  219.2700 C   0  0  0  0  0  0  0  0  0  0  0  0
  145.0529   73.0097  218.7832 H   0  0  0  0  0  0  0  0  0  0  0  0
  144.0050   74.8940  219.0160 C   0  0  0  0  0  0  0  0  0  0  0  0
  144.6717   75.4346  218.3280 H   0  0  0  0  0  0  0  0  0  0  0  0
  142.9390   75.5720  219.6390 C   0  0  0  0  0  0  0  0  0  0  0  0
  142.6890   76.9380  219.4260 C   0  0  0  0  0  0  0  0  0  0  0  0
  143.4230   77.5750  218.6190 O   0  0  0  0  0  0  0  0  0  0  0  0
  141.6610   77.5760  220.0880 N   0  0  0  0  0  0  0  0  0  0  0  0
  141.4780   79.0380  219.8910 C   0  0  0  0  0  0  0  0  0  0  0  0
  140.8331   79.4116  220.7001 H   0  0  0  0  0  0  0  0  0  0  0  0
  142.4881   79.4736  219.8947 H   0  0  0  0  0  0  0  0  0  0  0  0
  140.8360   79.4530  218.5340 C   0  0  2  0  0  0  0  0  0  0  0  0
  140.0236   80.1115  218.8751 H   0  0  0  0  0  0  0  0  0  0  0  0
  140.1470   78.3100  217.7530 C   0  0  0  0  0  0  0  0  0  0  0  0
  139.7828   77.5640  218.4747 H   0  0  0  0  0  0  0  0  0  0  0  0
  139.3278   78.7595  217.1726 H   0  0  0  0  0  0  0  0  0  0  0  0
  141.0770   77.6100  216.7580 C   0  0  0  0  0  0  0  0  0  0  0  0
  141.8263   77.0258  217.3122 H   0  0  0  0  0  0  0  0  0  0  0  0
  140.4777   76.9469  216.1168 H   0  0  0  0  0  0  0  0  0  0  0  0
  141.7900   78.6370  215.8780 C   0  0  0  0  0  0  0  0  0  0  0  0
  142.4625   78.1132  215.1828 H   0  0  0  0  0  0  0  0  0  0  0  0
  141.0363   79.2096  215.3176 H   0  0  0  0  0  0  0  0  0  0  0  0
  142.5740   79.5640  216.7020 N   0  0  0  0  0  0  0  0  0  0  0  0
  143.3000   79.0320  217.2280 H   0  0  0  0  0  0  0  0  0  0  0  0
  143.0700   80.2320  216.0670 H   0  0  0  0  0  0  0  0  0  0  0  0
  141.7190   80.3390  217.6170 C   0  0  0  0  0  0  0  0  0  0  0  0
  142.3643   80.9636  218.2522 H   0  0  0  0  0  0  0  0  0  0  0  0
  141.0398   80.9407  216.9952 H   0  0  0  0  0  0  0  0  0  0  0  0
  140.6100   79.1970  222.9640 C   0  0  0  0  0  0  0  0  0  0  0  0
  140.2050   80.4380  222.5770 N   0  0  0  0  0  0  0  0  0  0  0  0
  140.9670   81.5470  222.7770 C   0  0  0  0  0  0  0  0  0  0  0  0
  140.6061   82.5303  222.4411 H   0  0  0  0  0  0  0  0  0  0  0  0
  142.2060   81.4370  223.4080 C   0  0  0  0  0  0  0  0  0  0  0  0
  142.8291   82.3290  223.5695 H   0  0  0  0  0  0  0  0  0  0  0  0
  142.6460   80.1830  223.8320 C   0  0  0  0  0  0  0  0  0  0  0  0
  143.6192   80.0824  224.3348 H   0  0  0  0  0  0  0  0  0  0  0  0
  141.8510   79.0560  223.6180 C   0  0  0  0  0  0  0  0  0  0  0  0
  142.1899   78.0659  223.9568 H   0  0  0  0  0  0  0  0  0  0  0  0
  1  2  1  0
  2  3  2  0
  3  4  1  0
  3  5  1  0
  5  6  2  0
  6  7  1  0
  7  8  2  0
  8  9  1  0
  8 10  1  0
 10 11  1  0
 10 12  2  0
 12 13  1  0
 12 14  1  0
 14 15  1  0
 14 16  2  0
 16 17  1  0
 17 18  2  0
 17 19  1  0
 19 20  1  0
 20 21  1  0
 20 22  1  0
 20 23  1  0
 23 24  1  1
 23 25  1  0
 25 26  1  0
 25 27  1  0
 25 28  1  0
 28 29  1  0
 28 30  1  0
 28 31  1  0
 31 32  1  0
 31 33  1  0
 31 34  1  0
 34 35  1  0
 34 36  1  0
 34 37  1  0
 37 38  1  0
 37 39  1  0
  2 40  1  0
 40 41  2  0
 41 42  1  0
 42 43  1  0
 42 44  2  0
 44 45  1  0
 44 46  1  0
 46 47  1  0
 46 48  2  0
 48 49  1  0
 19  5  1  0
 37 23  1  0
 48 40  1  0
 16  7  1  0
M  CHG  1  34   1
M  END
>  <UniqueID>  (72) 
435

>  <SMILES>  (72) 
O=c1c2ccc(Cl)cc2nc(/C=C/c2ccccn2)n1C[C@@H]1CCC[NH2+]C1

>  <Energy>  (72) 
68.65703999713388

>  <Genealogy>  (72) 
O=c1c2ccc(Cl)cc2nc(/C=C/c2ccccn2)n1CC1CCC[NH2+]C1 (protonated)
O=c1c2ccc(Cl)cc2nc(/C=C/c2ccccn2)n1C[C@@H]1CCC[NH2+]C1 (chirality)
O=c1c2ccc(Cl)cc2nc(/C=C/c2ccccn2)n1C[C@@H]1CCC[NH2+]C1 (cis-trans isomerization)
O=c1c2ccc(Cl)cc2nc(/C=C/c2ccccn2)n1C[C@@H]1CCC[NH2+]C1 (3D coordinates assigned)
O=c1c2ccc(Cl)cc2nc(/C=C/c2ccccn2)n1C[C@@H]1CCC[NH2+]C1 (nonaromatic ring conformer: 68.65703999713388 kcal/mol)

>  <smiles>  (72) 
O=c1c2ccc(Cl)cc2nc(/C=C/c2ccccn2)n1CC1CCCNC1

>  <score_type>  (72) 
oracle

>  <origin>  (72) 
autodockgpu

>  <m_score__min__energy>  (72) 
-7.6699999999999999

>  <m_primary>  (72) 
energy

>  <meeko>  (72) 
{"free_energy": -7.32, "intermolecular_energy": -8.81, "internal_energy": -2.28, "cluster_size": 16, "cluster_id": 2, "rank_in_cluster": 2}

>  <energy>  (72) 
-7.3

>  <cluster_rmsd>  (72) 
0.09

>  <rmsd>  (72) 
271.24

>  <cluster>  (72) 
2

$$$$
MESWETRYUNDHFU-QZJYLSAJNA-O
     RDKit          3D

 49 52  0  0  0  0  0  0  0  0999 V2000
  138.9361   77.6907  223.4989 H   0  0  0  0  0  0  0  0  0  0  0  0
  139.6600   77.9750  222.7210 C   0  0  0  0  0  0  0  0  0  0  0  0
  139.5820   77.3570  221.5330 C   0  0  0  0  0  0  0  0  0  0  0  0
  138.6038   77.2625  221.0388 H   0  0  0  0  0  0  0  0  0  0  0  0
  140.7870   76.7980  220.8710 C   0  0  0  0  0  0  0  0  0  0  0  0
  141.0560   75.4810  221.0800 N   0  0  0  0  0  0  0  0  0  0  0  0
  142.0990   74.8560  220.4920 C   0  0  0  0  0  0  0  0  0  0  0  0
  142.3370   73.4990  220.7460 C   0  0  0  0  0  0  0  0  0  0  0  0
  141.6827   72.9459  221.4359 H   0  0  0  0  0  0  0  0  0  0  0  0
  143.4060   72.8470  220.1230 C   0  0  0  0  0  0  0  0  0  0  0  0
  143.7040   71.1480  220.4430 Cl  0  0  0  0  0  0  0  0  0  0  0  0
  144.2360   73.5500  219.2450 C   0  0  0  0  0  0  0  0  0  0  0  0
  145.0765   73.0364  218.7554 H   0  0  0  0  0  0  0  0  0  0  0  0
  144.0010   74.9050  218.9870 C   0  0  0  0  0  0  0  0  0  0  0  0
  144.6553   75.4534  218.2934 H   0  0  0  0  0  0  0  0  0  0  0  0
  142.9280   75.5680  219.6140 C   0  0  0  0  0  0  0  0  0  0  0  0
  142.6550   76.9290  219.3980 C   0  0  0  0  0  0  0  0  0  0  0  0
  143.3740   77.5750  218.5850 O   0  0  0  0  0  0  0  0  0  0  0  0
  141.6210   77.5520  220.0640 N   0  0  0  0  0  0  0  0  0  0  0  0
  141.4130   79.0100  219.8640 C   0  0  0  0  0  0  0  0  0  0  0  0
  140.7384   79.3683  220.6555 H   0  0  0  0  0  0  0  0  0  0  0  0
  142.4134   79.4662  219.8960 H   0  0  0  0  0  0  0  0  0  0  0  0
  140.8000   79.4150  218.4900 C   0  0  2  0  0  0  0  0  0  0  0  0
  139.9819   80.0779  218.8082 H   0  0  0  0  0  0  0  0  0  0  0  0
  140.1270   78.2660  217.7050 C   0  0  0  0  0  0  0  0  0  0  0  0
  139.7478   77.5263  218.4255 H   0  0  0  0  0  0  0  0  0  0  0  0
  139.3204   78.7112  217.1041 H   0  0  0  0  0  0  0  0  0  0  0  0
  141.0760   77.5570  216.7350 C   0  0  0  0  0  0  0  0  0  0  0  0
  141.8137   76.9771  217.3091 H   0  0  0  0  0  0  0  0  0  0  0  0
  140.4893   76.8887  216.0876 H   0  0  0  0  0  0  0  0  0  0  0  0
  141.8070   78.5760  215.8610 C   0  0  0  0  0  0  0  0  0  0  0  0
  142.4924   78.0460  215.1832 H   0  0  0  0  0  0  0  0  0  0  0  0
  141.0650   79.1448  215.2813 H   0  0  0  0  0  0  0  0  0  0  0  0
  142.5760   79.5090  216.6930 N   0  0  0  0  0  0  0  0  0  0  0  0
  143.2900   78.9810  217.2390 H   0  0  0  0  0  0  0  0  0  0  0  0
  143.0850   80.1720  216.0630 H   0  0  0  0  0  0  0  0  0  0  0  0
  141.7030   80.2920  217.5840 C   0  0  0  0  0  0  0  0  0  0  0  0
  142.3359   80.9211  218.2272 H   0  0  0  0  0  0  0  0  0  0  0  0
  141.0373   80.8888  216.9432 H   0  0  0  0  0  0  0  0  0  0  0  0
  140.6590   79.0150  223.0500 C   0  0  0  0  0  0  0  0  0  0  0  0
  141.9760   78.7180  222.8690 N   0  0  0  0  0  0  0  0  0  0  0  0
  142.9650   79.6140  223.1290 C   0  0  0  0  0  0  0  0  0  0  0  0
  144.0171   79.3308  222.9780 H   0  0  0  0  0  0  0  0  0  0  0  0
  142.6460   80.8920  223.5870 C   0  0  0  0  0  0  0  0  0  0  0  0
  143.4416   81.6203  223.8030 H   0  0  0  0  0  0  0  0  0  0  0  0
  141.3070   81.2360  223.7680 C   0  0  0  0  0  0  0  0  0  0  0  0
  141.0408   82.2421  224.1242 H   0  0  0  0  0  0  0  0  0  0  0  0
  140.3040   80.3030  223.4970 C   0  0  0  0  0  0  0  0  0  0  0  0
  139.2458   80.5714  223.6314 H   0  0  0  0  0  0  0  0  0  0  0  0
  1  2  1  0
  2  3  2  0
  3  4  1  0
  3  5  1  0
  5  6  2  0
  6  7  1  0
  7  8  2  0
  8  9  1  0
  8 10  1  0
 10 11  1  0
 10 12  2  0
 12 13  1  0
 12 14  1  0
 14 15  1  0
 14 16  2  0
 16 17  1  0
 17 18  2  0
 17 19  1  0
 19 20  1  0
 20 21  1  0
 20 22  1  0
 20 23  1  0
 23 24  1  1
 23 25  1  0
 25 26  1  0
 25 27  1  0
 25 28  1  0
 28 29  1  0
 28 30  1  0
 28 31  1  0
 31 32  1  0
 31 33  1  0
 31 34  1  0
 34 35  1  0
 34 36  1  0
 34 37  1  0
 37 38  1  0
 37 39  1  0
  2 40  1  0
 40 41  2  0
 41 42  1  0
 42 43  1  0
 42 44  2  0
 44 45  1  0
 44 46  1  0
 46 47  1  0
 46 48  2  0
 48 49  1  0
 19  5  1  0
 37 23  1  0
 48 40  1  0
 16  7  1  0
M  CHG  1  34   1
M  END
>  <UniqueID>  (73) 
435

>  <SMILES>  (73) 
O=c1c2ccc(Cl)cc2nc(/C=C/c2ccccn2)n1C[C@@H]1CCC[NH2+]C1

>  <Energy>  (73) 
68.65703999713388

>  <Genealogy>  (73) 
O=c1c2ccc(Cl)cc2nc(/C=C/c2ccccn2)n1CC1CCC[NH2+]C1 (protonated)
O=c1c2ccc(Cl)cc2nc(/C=C/c2ccccn2)n1C[C@@H]1CCC[NH2+]C1 (chirality)
O=c1c2ccc(Cl)cc2nc(/C=C/c2ccccn2)n1C[C@@H]1CCC[NH2+]C1 (cis-trans isomerization)
O=c1c2ccc(Cl)cc2nc(/C=C/c2ccccn2)n1C[C@@H]1CCC[NH2+]C1 (3D coordinates assigned)
O=c1c2ccc(Cl)cc2nc(/C=C/c2ccccn2)n1C[C@@H]1CCC[NH2+]C1 (nonaromatic ring conformer: 68.65703999713388 kcal/mol)

>  <smiles>  (73) 
O=c1c2ccc(Cl)cc2nc(/C=C/c2ccccn2)n1CC1CCCNC1

>  <score_type>  (73) 
oracle

>  <origin>  (73) 
autodockgpu

>  <m_score__min__energy>  (73) 
-7.6699999999999999

>  <m_primary>  (73) 
energy

>  <meeko>  (73) 
{"free_energy": -7.31, "intermolecular_energy": -8.8, "internal_energy": -2.25, "cluster_size": 16, "cluster_id": 2, "rank_in_cluster": 5}

>  <energy>  (73) 
-7.29

>  <cluster_rmsd>  (73) 
0.1

>  <rmsd>  (73) 
271.22

>  <cluster>  (73) 
2

$$$$
MESWETRYUNDHFU-QZJYLSAJNA-O
     RDKit          3D

 49 52  0  0  0  0  0  0  0  0999 V2000
  138.7952   77.8416  223.4932 H   0  0  0  0  0  0  0  0  0  0  0  0
  139.5290   78.0890  222.7120 C   0  0  0  0  0  0  0  0  0  0  0  0
  139.4690   77.4130  221.5560 C   0  0  0  0  0  0  0  0  0  0  0  0
  138.4928   77.2585  221.0731 H   0  0  0  0  0  0  0  0  0  0  0  0
  140.6920   76.8680  220.9130 C   0  0  0  0  0  0  0  0  0  0  0  0
  140.9620   75.5490  221.1060 N   0  0  0  0  0  0  0  0  0  0  0  0
  142.0210   74.9380  220.5330 C   0  0  0  0  0  0  0  0  0  0  0  0
  142.2580   73.5780  220.7700 C   0  0  0  0  0  0  0  0  0  0  0  0
  141.5896   73.0110  221.4346 H   0  0  0  0  0  0  0  0  0  0  0  0
  143.3440   72.9410  220.1620 C   0  0  0  0  0  0  0  0  0  0  0  0
  143.6410   71.2380  220.4590 Cl  0  0  0  0  0  0  0  0  0  0  0  0
  144.1920   73.6610  219.3150 C   0  0  0  0  0  0  0  0  0  0  0  0
  145.0458   73.1585  218.8369 H   0  0  0  0  0  0  0  0  0  0  0  0
  143.9570   75.0200  219.0740 C   0  0  0  0  0  0  0  0  0  0  0  0
  144.6247   75.5825  218.4049 H   0  0  0  0  0  0  0  0  0  0  0  0
  142.8670   75.6680  219.6870 C   0  0  0  0  0  0  0  0  0  0  0  0
  142.5940   77.0310  219.4870 C   0  0  0  0  0  0  0  0  0  0  0  0
  143.3290   77.6930  218.7020 O   0  0  0  0  0  0  0  0  0  0  0  0
  141.5410   77.6400  220.1380 N   0  0  0  0  0  0  0  0  0  0  0  0
  141.3330   79.1000  219.9580 C   0  0  0  0  0  0  0  0  0  0  0  0
  140.6344   79.4420  220.7358 H   0  0  0  0  0  0  0  0  0  0  0  0
  142.3300   79.5596  220.0272 H   0  0  0  0  0  0  0  0  0  0  0  0
  140.7580   79.5260  218.5740 C   0  0  2  0  0  0  0  0  0  0  0  0
  139.9533   80.2111  218.8789 H   0  0  0  0  0  0  0  0  0  0  0  0
  140.0660   78.4000  217.7720 C   0  0  0  0  0  0  0  0  0  0  0  0
  139.6506   77.6702  218.4825 H   0  0  0  0  0  0  0  0  0  0  0  0
  139.2852   78.8713  217.1569 H   0  0  0  0  0  0  0  0  0  0  0  0
  141.0120   77.6650  216.8180 C   0  0  0  0  0  0  0  0  0  0  0  0
  141.7198   77.0606  217.4043 H   0  0  0  0  0  0  0  0  0  0  0  0
  140.4178   77.0174  216.1565 H   0  0  0  0  0  0  0  0  0  0  0  0
  141.7910   78.6630  215.9630 C   0  0  0  0  0  0  0  0  0  0  0  0
  142.4737   78.1139  215.2979 H   0  0  0  0  0  0  0  0  0  0  0  0
  141.0781   79.2555  215.3708 H   0  0  0  0  0  0  0  0  0  0  0  0
  142.5710   79.5710  216.8120 N   0  0  0  0  0  0  0  0  0  0  0  0
  143.2580   79.0200  217.3700 H   0  0  0  0  0  0  0  0  0  0  0  0
  143.1120   80.2200  216.1940 H   0  0  0  0  0  0  0  0  0  0  0  0
  141.7050   80.3780  217.6880 C   0  0  0  0  0  0  0  0  0  0  0  0
  142.3439   80.9861  218.3453 H   0  0  0  0  0  0  0  0  0  0  0  0
  141.0704   80.9964  217.0362 H   0  0  0  0  0  0  0  0  0  0  0  0
  140.5210   79.1470  223.0020 C   0  0  0  0  0  0  0  0  0  0  0  0
  140.1750   80.4380  222.7420 N   0  0  0  0  0  0  0  0  0  0  0  0
  141.0140   81.4800  222.9910 C   0  0  0  0  0  0  0  0  0  0  0  0
  140.6982   82.5081  222.7600 H   0  0  0  0  0  0  0  0  0  0  0  0
  142.2740   81.2440  223.5390 C   0  0  0  0  0  0  0  0  0  0  0  0
  142.9595   82.0811  223.7373 H   0  0  0  0  0  0  0  0  0  0  0  0
  142.6560   79.9360  223.8330 C   0  0  0  0  0  0  0  0  0  0  0  0
  143.6452   79.7367  224.2710 H   0  0  0  0  0  0  0  0  0  0  0  0
  141.7820   78.8790  223.5710 C   0  0  0  0  0  0  0  0  0  0  0  0
  142.0755   77.8454  223.8069 H   0  0  0  0  0  0  0  0  0  0  0  0
  1  2  1  0
  2  3  2  0
  3  4  1  0
  3  5  1  0
  5  6  2  0
  6  7  1  0
  7  8  2  0
  8  9  1  0
  8 10  1  0
 10 11  1  0
 10 12  2  0
 12 13  1  0
 12 14  1  0
 14 15  1  0
 14 16  2  0
 16 17  1  0
 17 18  2  0
 17 19  1  0
 19 20  1  0
 20 21  1  0
 20 22  1  0
 20 23  1  0
 23 24  1  1
 23 25  1  0
 25 26  1  0
 25 27  1  0
 25 28  1  0
 28 29  1  0
 28 30  1  0
 28 31  1  0
 31 32  1  0
 31 33  1  0
 31 34  1  0
 34 35  1  0
 34 36  1  0
 34 37  1  0
 37 38  1  0
 37 39  1  0
  2 40  1  0
 40 41  2  0
 41 42  1  0
 42 43  1  0
 42 44  2  0
 44 45  1  0
 44 46  1  0
 46 47  1  0
 46 48  2  0
 48 49  1  0
 19  5  1  0
 37 23  1  0
 48 40  1  0
 16  7  1  0
M  CHG  1  34   1
M  END
>  <UniqueID>  (74) 
435

>  <SMILES>  (74) 
O=c1c2ccc(Cl)cc2nc(/C=C/c2ccccn2)n1C[C@@H]1CCC[NH2+]C1

>  <Energy>  (74) 
68.65703999713388

>  <Genealogy>  (74) 
O=c1c2ccc(Cl)cc2nc(/C=C/c2ccccn2)n1CC1CCC[NH2+]C1 (protonated)
O=c1c2ccc(Cl)cc2nc(/C=C/c2ccccn2)n1C[C@@H]1CCC[NH2+]C1 (chirality)
O=c1c2ccc(Cl)cc2nc(/C=C/c2ccccn2)n1C[C@@H]1CCC[NH2+]C1 (cis-trans isomerization)
O=c1c2ccc(Cl)cc2nc(/C=C/c2ccccn2)n1C[C@@H]1CCC[NH2+]C1 (3D coordinates assigned)
O=c1c2ccc(Cl)cc2nc(/C=C/c2ccccn2)n1C[C@@H]1CCC[NH2+]C1 (nonaromatic ring conformer: 68.65703999713388 kcal/mol)

>  <smiles>  (74) 
O=c1c2ccc(Cl)cc2nc(/C=C/c2ccccn2)n1CC1CCCNC1

>  <score_type>  (74) 
oracle

>  <origin>  (74) 
autodockgpu

>  <m_score__min__energy>  (74) 
-7.6699999999999999

>  <m_primary>  (74) 
energy

>  <meeko>  (74) 
{"free_energy": -7.26, "intermolecular_energy": -8.75, "internal_energy": -2.31, "cluster_size": 16, "cluster_id": 2, "rank_in_cluster": 15}

>  <energy>  (74) 
-7.29

>  <cluster_rmsd>  (74) 
0.11

>  <rmsd>  (74) 
271.24

>  <cluster>  (74) 
2

$$$$
MESWETRYUNDHFU-QZJYLSAJNA-O
     RDKit          3D

 49 52  0  0  0  0  0  0  0  0999 V2000
  139.0348   77.7100  223.5713 H   0  0  0  0  0  0  0  0  0  0  0  0
  139.6860   78.0390  222.7480 C   0  0  0  0  0  0  0  0  0  0  0  0
  139.6030   77.3850  221.5800 C   0  0  0  0  0  0  0  0  0  0  0  0
  138.6214   77.2669  221.0978 H   0  0  0  0  0  0  0  0  0  0  0  0
  140.8080   76.8170  220.9240 C   0  0  0  0  0  0  0  0  0  0  0  0
  141.0630   75.4960  221.1270 N   0  0  0  0  0  0  0  0  0  0  0  0
  142.1040   74.8640  220.5440 C   0  0  0  0  0  0  0  0  0  0  0  0
  142.3270   73.5040  220.7930 C   0  0  0  0  0  0  0  0  0  0  0  0
  141.6627   72.9536  221.4755 H   0  0  0  0  0  0  0  0  0  0  0  0
  143.3940   72.8460  220.1740 C   0  0  0  0  0  0  0  0  0  0  0  0
  143.6730   71.1420  220.4870 Cl  0  0  0  0  0  0  0  0  0  0  0  0
  144.2370   73.5440  219.3050 C   0  0  0  0  0  0  0  0  0  0  0  0
  145.0752   73.0242  218.8180 H   0  0  0  0  0  0  0  0  0  0  0  0
  144.0170   74.9030  219.0530 C   0  0  0  0  0  0  0  0  0  0  0  0
  144.6816   75.4489  218.3672 H   0  0  0  0  0  0  0  0  0  0  0  0
  142.9460   75.5730  219.6760 C   0  0  0  0  0  0  0  0  0  0  0  0
  142.6880   76.9380  219.4650 C   0  0  0  0  0  0  0  0  0  0  0  0
  143.4190   77.5810  218.6610 O   0  0  0  0  0  0  0  0  0  0  0  0
  141.6540   77.5680  220.1260 N   0  0  0  0  0  0  0  0  0  0  0  0
  141.4630   79.0290  219.9330 C   0  0  0  0  0  0  0  0  0  0  0  0
  140.8102   79.3957  220.7389 H   0  0  0  0  0  0  0  0  0  0  0  0
  142.4700   79.4714  219.9454 H   0  0  0  0  0  0  0  0  0  0  0  0
  140.8270   79.4440  218.5720 C   0  0  2  0  0  0  0  0  0  0  0  0
  140.0112   80.1009  218.9082 H   0  0  0  0  0  0  0  0  0  0  0  0
  140.1450   78.3000  217.7870 C   0  0  0  0  0  0  0  0  0  0  0  0
  139.7788   77.5529  218.5066 H   0  0  0  0  0  0  0  0  0  0  0  0
  139.3282   78.7484  217.2024 H   0  0  0  0  0  0  0  0  0  0  0  0
  141.0810   77.6020  216.7960 C   0  0  0  0  0  0  0  0  0  0  0  0
  141.8282   77.0181  217.3534 H   0  0  0  0  0  0  0  0  0  0  0  0
  140.4860   76.9387  216.1511 H   0  0  0  0  0  0  0  0  0  0  0  0
  141.7970   78.6310  215.9210 C   0  0  0  0  0  0  0  0  0  0  0  0
  142.4743   78.1090  215.2291 H   0  0  0  0  0  0  0  0  0  0  0  0
  141.0453   79.2028  215.3571 H   0  0  0  0  0  0  0  0  0  0  0  0
  142.5750   79.5590  216.7500 N   0  0  0  0  0  0  0  0  0  0  0  0
  143.2990   79.0280  217.2800 H   0  0  0  0  0  0  0  0  0  0  0  0
  143.0730   80.2280  216.1180 H   0  0  0  0  0  0  0  0  0  0  0  0
  141.7140   80.3310  217.6610 C   0  0  0  0  0  0  0  0  0  0  0  0
  142.3550   80.9556  218.3005 H   0  0  0  0  0  0  0  0  0  0  0  0
  141.0372   80.9319  217.0357 H   0  0  0  0  0  0  0  0  0  0  0  0
  140.5990   79.1750  222.9970 C   0  0  0  0  0  0  0  0  0  0  0  0
  140.1920   80.4190  222.6200 N   0  0  0  0  0  0  0  0  0  0  0  0
  140.9560   81.5260  222.8230 C   0  0  0  0  0  0  0  0  0  0  0  0
  140.5932   82.5117  222.4963 H   0  0  0  0  0  0  0  0  0  0  0  0
  142.1990   81.4120  223.4450 C   0  0  0  0  0  0  0  0  0  0  0  0
  142.8238   82.3026  223.6077 H   0  0  0  0  0  0  0  0  0  0  0  0
  142.6400   80.1560  223.8580 C   0  0  0  0  0  0  0  0  0  0  0  0
  143.6165   80.0518  224.3536 H   0  0  0  0  0  0  0  0  0  0  0  0
  141.8430   79.0300  223.6430 C   0  0  0  0  0  0  0  0  0  0  0  0
  142.1832   78.0380  223.9751 H   0  0  0  0  0  0  0  0  0  0  0  0
  1  2  1  0
  2  3  2  0
  3  4  1  0
  3  5  1  0
  5  6  2  0
  6  7  1  0
  7  8  2  0
  8  9  1  0
  8 10  1  0
 10 11  1  0
 10 12  2  0
 12 13  1  0
 12 14  1  0
 14 15  1  0
 14 16  2  0
 16 17  1  0
 17 18  2  0
 17 19  1  0
 19 20  1  0
 20 21  1  0
 20 22  1  0
 20 23  1  0
 23 24  1  1
 23 25  1  0
 25 26  1  0
 25 27  1  0
 25 28  1  0
 28 29  1  0
 28 30  1  0
 28 31  1  0
 31 32  1  0
 31 33  1  0
 31 34  1  0
 34 35  1  0
 34 36  1  0
 34 37  1  0
 37 38  1  0
 37 39  1  0
  2 40  1  0
 40 41  2  0
 41 42  1  0
 42 43  1  0
 42 44  2  0
 44 45  1  0
 44 46  1  0
 46 47  1  0
 46 48  2  0
 48 49  1  0
 19  5  1  0
 37 23  1  0
 48 40  1  0
 16  7  1  0
M  CHG  1  34   1
M  END
>  <UniqueID>  (75) 
435

>  <SMILES>  (75) 
O=c1c2ccc(Cl)cc2nc(/C=C/c2ccccn2)n1C[C@@H]1CCC[NH2+]C1

>  <Energy>  (75) 
68.65703999713388

>  <Genealogy>  (75) 
O=c1c2ccc(Cl)cc2nc(/C=C/c2ccccn2)n1CC1CCC[NH2+]C1 (protonated)
O=c1c2ccc(Cl)cc2nc(/C=C/c2ccccn2)n1C[C@@H]1CCC[NH2+]C1 (chirality)
O=c1c2ccc(Cl)cc2nc(/C=C/c2ccccn2)n1C[C@@H]1CCC[NH2+]C1 (cis-trans isomerization)
O=c1c2ccc(Cl)cc2nc(/C=C/c2ccccn2)n1C[C@@H]1CCC[NH2+]C1 (3D coordinates assigned)
O=c1c2ccc(Cl)cc2nc(/C=C/c2ccccn2)n1C[C@@H]1CCC[NH2+]C1 (nonaromatic ring conformer: 68.65703999713388 kcal/mol)

>  <smiles>  (75) 
O=c1c2ccc(Cl)cc2nc(/C=C/c2ccccn2)n1CC1CCCNC1

>  <score_type>  (75) 
oracle

>  <origin>  (75) 
autodockgpu

>  <m_score__min__energy>  (75) 
-7.6699999999999999

>  <m_primary>  (75) 
energy

>  <meeko>  (75) 
{"free_energy": -7.32, "intermolecular_energy": -8.81, "internal_energy": -2.28, "cluster_size": 16, "cluster_id": 2, "rank_in_cluster": 1}

>  <energy>  (75) 
-7.29

>  <cluster_rmsd>  (75) 
0.09

>  <rmsd>  (75) 
271.23

>  <cluster>  (75) 
2

$$$$
MESWETRYUNDHFU-QZJYLSAJNA-O
     RDKit          3D

 49 52  0  0  0  0  0  0  0  0999 V2000
  138.9548   77.8392  223.5305 H   0  0  0  0  0  0  0  0  0  0  0  0
  139.6390   78.1250  222.7180 C   0  0  0  0  0  0  0  0  0  0  0  0
  139.5520   77.4580  221.5580 C   0  0  0  0  0  0  0  0  0  0  0  0
  138.5671   77.3244  221.0867 H   0  0  0  0  0  0  0  0  0  0  0  0
  140.7560   76.8960  220.8960 C   0  0  0  0  0  0  0  0  0  0  0  0
  141.0230   75.5790  221.1050 N   0  0  0  0  0  0  0  0  0  0  0  0
  142.0640   74.9520  220.5170 C   0  0  0  0  0  0  0  0  0  0  0  0
  142.3000   73.5950  220.7720 C   0  0  0  0  0  0  0  0  0  0  0  0
  141.6453   73.0436  221.4629 H   0  0  0  0  0  0  0  0  0  0  0  0
  143.3670   72.9410  220.1490 C   0  0  0  0  0  0  0  0  0  0  0  0
  143.6630   71.2420  220.4700 Cl  0  0  0  0  0  0  0  0  0  0  0  0
  144.1980   73.6410  219.2680 C   0  0  0  0  0  0  0  0  0  0  0  0
  145.0367   73.1253  218.7774 H   0  0  0  0  0  0  0  0  0  0  0  0
  143.9640   74.9960  219.0100 C   0  0  0  0  0  0  0  0  0  0  0  0
  144.6185   75.5429  218.3153 H   0  0  0  0  0  0  0  0  0  0  0  0
  142.8930   75.6620  219.6370 C   0  0  0  0  0  0  0  0  0  0  0  0
  142.6220   77.0230  219.4200 C   0  0  0  0  0  0  0  0  0  0  0  0
  143.3410   77.6670  218.6060 O   0  0  0  0  0  0  0  0  0  0  0  0
  141.5890   77.6490  220.0860 N   0  0  0  0  0  0  0  0  0  0  0  0
  141.3840   79.1070  219.8850 C   0  0  0  0  0  0  0  0  0  0  0  0
  140.7030   79.4657  220.6708 H   0  0  0  0  0  0  0  0  0  0  0  0
  142.3843   79.5628  219.9260 H   0  0  0  0  0  0  0  0  0  0  0  0
  140.7830   79.5120  218.5060 C   0  0  2  0  0  0  0  0  0  0  0  0
  139.9801   80.1972  218.8156 H   0  0  0  0  0  0  0  0  0  0  0  0
  140.0840   78.3710  217.7310 C   0  0  0  0  0  0  0  0  0  0  0  0
  139.6858   77.6482  218.4583 H   0  0  0  0  0  0  0  0  0  0  0  0
  139.2897   78.8296  217.1237 H   0  0  0  0  0  0  0  0  0  0  0  0
  141.0170   77.6290  216.7700 C   0  0  0  0  0  0  0  0  0  0  0  0
  141.7387   77.0364  217.3513 H   0  0  0  0  0  0  0  0  0  0  0  0
  140.4151   76.9693  216.1278 H   0  0  0  0  0  0  0  0  0  0  0  0
  141.7750   78.6210  215.8880 C   0  0  0  0  0  0  0  0  0  0  0  0
  142.4485   78.0675  215.2172 H   0  0  0  0  0  0  0  0  0  0  0  0
  141.0484   79.2022  215.3013 H   0  0  0  0  0  0  0  0  0  0  0  0
  142.5650   79.5430  216.7120 N   0  0  0  0  0  0  0  0  0  0  0  0
  143.2640   79.0040  217.2650 H   0  0  0  0  0  0  0  0  0  0  0  0
  143.0920   80.1870  216.0770 H   0  0  0  0  0  0  0  0  0  0  0  0
  141.7090   80.3570  217.5930 C   0  0  0  0  0  0  0  0  0  0  0  0
  142.3556   80.9773  218.2310 H   0  0  0  0  0  0  0  0  0  0  0  0
  141.0594   80.9630  216.9443 H   0  0  0  0  0  0  0  0  0  0  0  0
  140.5990   79.2220  222.9720 C   0  0  0  0  0  0  0  0  0  0  0  0
  140.2470   80.4820  222.5940 N   0  0  0  0  0  0  0  0  0  0  0  0
  141.0570   81.5550  222.8000 C   0  0  0  0  0  0  0  0  0  0  0  0
  140.7386   82.5552  222.4711 H   0  0  0  0  0  0  0  0  0  0  0  0
  142.2910   81.3880  223.4280 C   0  0  0  0  0  0  0  0  0  0  0  0
  142.9521   82.2513  223.5940 H   0  0  0  0  0  0  0  0  0  0  0  0
  142.6770   80.1140  223.8430 C   0  0  0  0  0  0  0  0  0  0  0  0
  143.6457   79.9682  224.3434 H   0  0  0  0  0  0  0  0  0  0  0  0
  141.8330   79.0230  223.6230 C   0  0  0  0  0  0  0  0  0  0  0  0
  142.1290   78.0170  223.9551 H   0  0  0  0  0  0  0  0  0  0  0  0
  1  2  1  0
  2  3  2  0
  3  4  1  0
  3  5  1  0
  5  6  2  0
  6  7  1  0
  7  8  2  0
  8  9  1  0
  8 10  1  0
 10 11  1  0
 10 12  2  0
 12 13  1  0
 12 14  1  0
 14 15  1  0
 14 16  2  0
 16 17  1  0
 17 18  2  0
 17 19  1  0
 19 20  1  0
 20 21  1  0
 20 22  1  0
 20 23  1  0
 23 24  1  1
 23 25  1  0
 25 26  1  0
 25 27  1  0
 25 28  1  0
 28 29  1  0
 28 30  1  0
 28 31  1  0
 31 32  1  0
 31 33  1  0
 31 34  1  0
 34 35  1  0
 34 36  1  0
 34 37  1  0
 37 38  1  0
 37 39  1  0
  2 40  1  0
 40 41  2  0
 41 42  1  0
 42 43  1  0
 42 44  2  0
 44 45  1  0
 44 46  1  0
 46 47  1  0
 46 48  2  0
 48 49  1  0
 19  5  1  0
 37 23  1  0
 48 40  1  0
 16  7  1  0
M  CHG  1  34   1
M  END
>  <UniqueID>  (76) 
435

>  <SMILES>  (76) 
O=c1c2ccc(Cl)cc2nc(/C=C/c2ccccn2)n1C[C@@H]1CCC[NH2+]C1

>  <Energy>  (76) 
68.65703999713388

>  <Genealogy>  (76) 
O=c1c2ccc(Cl)cc2nc(/C=C/c2ccccn2)n1CC1CCC[NH2+]C1 (protonated)
O=c1c2ccc(Cl)cc2nc(/C=C/c2ccccn2)n1C[C@@H]1CCC[NH2+]C1 (chirality)
O=c1c2ccc(Cl)cc2nc(/C=C/c2ccccn2)n1C[C@@H]1CCC[NH2+]C1 (cis-trans isomerization)
O=c1c2ccc(Cl)cc2nc(/C=C/c2ccccn2)n1C[C@@H]1CCC[NH2+]C1 (3D coordinates assigned)
O=c1c2ccc(Cl)cc2nc(/C=C/c2ccccn2)n1C[C@@H]1CCC[NH2+]C1 (nonaromatic ring conformer: 68.65703999713388 kcal/mol)

>  <smiles>  (76) 
O=c1c2ccc(Cl)cc2nc(/C=C/c2ccccn2)n1CC1CCCNC1

>  <score_type>  (76) 
oracle

>  <origin>  (76) 
autodockgpu

>  <m_score__min__energy>  (76) 
-7.6699999999999999

>  <m_primary>  (76) 
energy

>  <meeko>  (76) 
{"free_energy": -7.29, "intermolecular_energy": -8.78, "internal_energy": -2.29, "cluster_size": 16, "cluster_id": 2, "rank_in_cluster": 11}

>  <energy>  (76) 
-7.28

>  <cluster_rmsd>  (76) 
0.12

>  <rmsd>  (76) 
271.25

>  <cluster>  (76) 
2

$$$$
MESWETRYUNDHFU-QZJYLSAJNA-O
     RDKit          3D

 49 52  0  0  0  0  0  0  0  0999 V2000
  140.8554   83.4501  222.0736 H   0  0  0  0  0  0  0  0  0  0  0  0
  140.8620   82.4540  221.6070 C   0  0  0  0  0  0  0  0  0  0  0  0
  140.5450   82.3660  220.3070 C   0  0  0  0  0  0  0  0  0  0  0  0
  139.8166   83.0721  219.8818 H   0  0  0  0  0  0  0  0  0  0  0  0
  141.1560   81.3360  219.4290 C   0  0  0  0  0  0  0  0  0  0  0  0
  141.4240   80.1240  219.9860 N   0  0  0  0  0  0  0  0  0  0  0  0
  141.9370   79.0990  219.2710 C   0  0  0  0  0  0  0  0  0  0  0  0
  142.2010   77.8730  219.8940 C   0  0  0  0  0  0  0  0  0  0  0  0
  142.0039   77.7488  220.9690 H   0  0  0  0  0  0  0  0  0  0  0  0
  142.7150   76.8070  219.1500 C   0  0  0  0  0  0  0  0  0  0  0  0
  143.0470   75.2710  219.9310 Cl  0  0  0  0  0  0  0  0  0  0  0  0
  142.9630   76.9640  217.7830 C   0  0  0  0  0  0  0  0  0  0  0  0
  143.3672   76.1244  217.1985 H   0  0  0  0  0  0  0  0  0  0  0  0
  142.6980   78.1870  217.1570 C   0  0  0  0  0  0  0  0  0  0  0  0
  142.8918   78.3057  216.0807 H   0  0  0  0  0  0  0  0  0  0  0  0
  142.1840   79.2660  217.9010 C   0  0  0  0  0  0  0  0  0  0  0  0
  141.9110   80.5170  217.3230 C   0  0  0  0  0  0  0  0  0  0  0  0
  142.0990   80.6710  216.0840 O   0  0  0  0  0  0  0  0  0  0  0  0
  141.4480   81.5620  218.0950 N   0  0  0  0  0  0  0  0  0  0  0  0
  141.2440   82.8890  217.4590 C   0  0  0  0  0  0  0  0  0  0  0  0
  140.7907   82.7256  216.4701 H   0  0  0  0  0  0  0  0  0  0  0  0
  140.6054   83.4611  218.1481 H   0  0  0  0  0  0  0  0  0  0  0  0
  142.5350   83.7400  217.2620 C   0  0  2  0  0  0  0  0  0  0  0  0
  142.4787   84.4186  218.1259 H   0  0  0  0  0  0  0  0  0  0  0  0
  142.5380   84.6510  216.0130 C   0  0  0  0  0  0  0  0  0  0  0  0
  141.4993   84.9295  215.7817 H   0  0  0  0  0  0  0  0  0  0  0  0
  143.1594   85.5270  216.2507 H   0  0  0  0  0  0  0  0  0  0  0  0
  143.1490   83.9840  214.7770 C   0  0  0  0  0  0  0  0  0  0  0  0
  142.4726   83.1930  214.4209 H   0  0  0  0  0  0  0  0  0  0  0  0
  143.2882   84.7446  213.9946 H   0  0  0  0  0  0  0  0  0  0  0  0
  144.5060   83.3700  215.1160 C   0  0  0  0  0  0  0  0  0  0  0  0
  144.9177   82.8845  214.2189 H   0  0  0  0  0  0  0  0  0  0  0  0
  145.1809   84.1677  215.4598 H   0  0  0  0  0  0  0  0  0  0  0  0
  144.3680   82.3730  216.1840 N   0  0  0  0  0  0  0  0  0  0  0  0
  143.7390   81.6070  215.8640 H   0  0  0  0  0  0  0  0  0  0  0  0
  145.3090   81.9540  216.3690 H   0  0  0  0  0  0  0  0  0  0  0  0
  143.8740   82.9770  217.4330 C   0  0  0  0  0  0  0  0  0  0  0  0
  143.7268   82.1764  218.1728 H   0  0  0  0  0  0  0  0  0  0  0  0
  144.6262   83.7110  217.7578 H   0  0  0  0  0  0  0  0  0  0  0  0
  141.2200   81.2940  222.4520 C   0  0  0  0  0  0  0  0  0  0  0  0
  140.2090   80.5470  222.9770 N   0  0  0  0  0  0  0  0  0  0  0  0
  140.4400   79.4540  223.7520 C   0  0  0  0  0  0  0  0  0  0  0  0
  139.5945   78.8824  224.1624 H   0  0  0  0  0  0  0  0  0  0  0  0
  141.7490   79.0570  224.0270 C   0  0  0  0  0  0  0  0  0  0  0  0
  141.9431   78.1766  224.6573 H   0  0  0  0  0  0  0  0  0  0  0  0
  142.8080   79.7900  223.4930 C   0  0  0  0  0  0  0  0  0  0  0  0
  143.8452   79.4861  223.6977 H   0  0  0  0  0  0  0  0  0  0  0  0
  142.5530   80.9090  222.6990 C   0  0  0  0  0  0  0  0  0  0  0  0
  143.3855   81.4857  222.2696 H   0  0  0  0  0  0  0  0  0  0  0  0
  1  2  1  0
  2  3  2  0
  3  4  1  0
  3  5  1  0
  5  6  2  0
  6  7  1  0
  7  8  2  0
  8  9  1  0
  8 10  1  0
 10 11  1  0
 10 12  2  0
 12 13  1  0
 12 14  1  0
 14 15  1  0
 14 16  2  0
 16 17  1  0
 17 18  2  0
 17 19  1  0
 19 20  1  0
 20 21  1  0
 20 22  1  0
 20 23  1  0
 23 24  1  1
 23 25  1  0
 25 26  1  0
 25 27  1  0
 25 28  1  0
 28 29  1  0
 28 30  1  0
 28 31  1  0
 31 32  1  0
 31 33  1  0
 31 34  1  0
 34 35  1  0
 34 36  1  0
 34 37  1  0
 37 38  1  0
 37 39  1  0
  2 40  1  0
 40 41  2  0
 41 42  1  0
 42 43  1  0
 42 44  2  0
 44 45  1  0
 44 46  1  0
 46 47  1  0
 46 48  2  0
 48 49  1  0
 19  5  1  0
 37 23  1  0
 48 40  1  0
 16  7  1  0
M  CHG  1  34   1
M  END
>  <UniqueID>  (77) 
435

>  <SMILES>  (77) 
O=c1c2ccc(Cl)cc2nc(/C=C/c2ccccn2)n1C[C@@H]1CCC[NH2+]C1

>  <Energy>  (77) 
68.65703999713388

>  <Genealogy>  (77) 
O=c1c2ccc(Cl)cc2nc(/C=C/c2ccccn2)n1CC1CCC[NH2+]C1 (protonated)
O=c1c2ccc(Cl)cc2nc(/C=C/c2ccccn2)n1C[C@@H]1CCC[NH2+]C1 (chirality)
O=c1c2ccc(Cl)cc2nc(/C=C/c2ccccn2)n1C[C@@H]1CCC[NH2+]C1 (cis-trans isomerization)
O=c1c2ccc(Cl)cc2nc(/C=C/c2ccccn2)n1C[C@@H]1CCC[NH2+]C1 (3D coordinates assigned)
O=c1c2ccc(Cl)cc2nc(/C=C/c2ccccn2)n1C[C@@H]1CCC[NH2+]C1 (nonaromatic ring conformer: 68.65703999713388 kcal/mol)

>  <smiles>  (77) 
O=c1c2ccc(Cl)cc2nc(/C=C/c2ccccn2)n1CC1CCCNC1

>  <score_type>  (77) 
oracle

>  <origin>  (77) 
autodockgpu

>  <m_score__min__energy>  (77) 
-7.6699999999999999

>  <m_primary>  (77) 
energy

>  <meeko>  (77) 
{"free_energy": -7.67, "intermolecular_energy": -9.16, "internal_energy": -1.98, "cluster_size": 4, "cluster_id": 1, "rank_in_cluster": 1}

>  <energy>  (77) 
-7.27

>  <cluster_rmsd>  (77) 
0.6

>  <rmsd>  (77) 
271.26

>  <cluster>  (77) 
2

$$$$
MESWETRYUNDHFU-QZJYLSAJNA-O
     RDKit          3D

 49 52  0  0  0  0  0  0  0  0999 V2000
  138.8195   77.8607  223.5144 H   0  0  0  0  0  0  0  0  0  0  0  0
  139.5430   78.1060  222.7230 C   0  0  0  0  0  0  0  0  0  0  0  0
  139.4800   77.4140  221.5760 C   0  0  0  0  0  0  0  0  0  0  0  0
  138.5013   77.2442  221.1034 H   0  0  0  0  0  0  0  0  0  0  0  0
  140.7020   76.8720  220.9300 C   0  0  0  0  0  0  0  0  0  0  0  0
  140.9800   75.5560  221.1290 N   0  0  0  0  0  0  0  0  0  0  0  0
  142.0400   74.9470  220.5540 C   0  0  0  0  0  0  0  0  0  0  0  0
  142.2860   73.5910  220.7980 C   0  0  0  0  0  0  0  0  0  0  0  0
  141.6250   73.0246  221.4705 H   0  0  0  0  0  0  0  0  0  0  0  0
  143.3720   72.9560  220.1870 C   0  0  0  0  0  0  0  0  0  0  0  0
  143.6800   71.2560  220.4930 Cl  0  0  0  0  0  0  0  0  0  0  0  0
  144.2110   73.6760  219.3310 C   0  0  0  0  0  0  0  0  0  0  0  0
  145.0649   73.1757  218.8507 H   0  0  0  0  0  0  0  0  0  0  0  0
  143.9670   75.0310  219.0840 C   0  0  0  0  0  0  0  0  0  0  0  0
  144.6283   75.5933  218.4084 H   0  0  0  0  0  0  0  0  0  0  0  0
  142.8770   75.6770  219.6980 C   0  0  0  0  0  0  0  0  0  0  0  0
  142.5940   77.0380  219.4920 C   0  0  0  0  0  0  0  0  0  0  0  0
  143.3220   77.6990  218.6990 O   0  0  0  0  0  0  0  0  0  0  0  0
  141.5420   77.6440  220.1460 N   0  0  0  0  0  0  0  0  0  0  0  0
  141.3250   79.1020  219.9580 C   0  0  0  0  0  0  0  0  0  0  0  0
  140.6195   79.4427  220.7301 H   0  0  0  0  0  0  0  0  0  0  0  0
  142.3184   79.5688  220.0309 H   0  0  0  0  0  0  0  0  0  0  0  0
  140.7550   79.5180  218.5680 C   0  0  2  0  0  0  0  0  0  0  0  0
  139.9469   80.2031  218.8639 H   0  0  0  0  0  0  0  0  0  0  0  0
  140.0700   78.3850  217.7710 C   0  0  0  0  0  0  0  0  0  0  0  0
  139.6539   77.6585  218.4845 H   0  0  0  0  0  0  0  0  0  0  0  0
  139.2900   78.8494  217.1497 H   0  0  0  0  0  0  0  0  0  0  0  0
  141.0230   77.6470  216.8260 C   0  0  0  0  0  0  0  0  0  0  0  0
  141.7303   77.0491  217.4195 H   0  0  0  0  0  0  0  0  0  0  0  0
  140.4341   76.9929  216.1662 H   0  0  0  0  0  0  0  0  0  0  0  0
  141.8030   78.6430  215.9670 C   0  0  0  0  0  0  0  0  0  0  0  0
  142.4904   78.0922  215.3081 H   0  0  0  0  0  0  0  0  0  0  0  0
  141.0913   79.2294  215.3673 H   0  0  0  0  0  0  0  0  0  0  0  0
  142.5760   79.5580  216.8150 N   0  0  0  0  0  0  0  0  0  0  0  0
  143.2620   79.0120  217.3790 H   0  0  0  0  0  0  0  0  0  0  0  0
  143.1180   80.2040  216.1950 H   0  0  0  0  0  0  0  0  0  0  0  0
  141.7030   80.3670  217.6820 C   0  0  0  0  0  0  0  0  0  0  0  0
  142.3367   80.9811  218.3387 H   0  0  0  0  0  0  0  0  0  0  0  0
  141.0694   80.9791  217.0233 H   0  0  0  0  0  0  0  0  0  0  0  0
  140.5260   79.1790  222.9890 C   0  0  0  0  0  0  0  0  0  0  0  0
  140.1720   80.4600  222.6930 N   0  0  0  0  0  0  0  0  0  0  0  0
  141.0020   81.5130  222.9170 C   0  0  0  0  0  0  0  0  0  0  0  0
  140.6806   82.5318  222.6550 H   0  0  0  0  0  0  0  0  0  0  0  0
  142.2610   81.3020  223.4790 C   0  0  0  0  0  0  0  0  0  0  0  0
  142.9391   82.1493  223.6589 H   0  0  0  0  0  0  0  0  0  0  0  0
  142.6500   80.0050  223.8100 C   0  0  0  0  0  0  0  0  0  0  0  0
  143.6383   79.8245  224.2579 H   0  0  0  0  0  0  0  0  0  0  0  0
  141.7850   78.9350  223.5730 C   0  0  0  0  0  0  0  0  0  0  0  0
  142.0837   77.9105  223.8398 H   0  0  0  0  0  0  0  0  0  0  0  0
  1  2  1  0
  2  3  2  0
  3  4  1  0
  3  5  1  0
  5  6  2  0
  6  7  1  0
  7  8  2  0
  8  9  1  0
  8 10  1  0
 10 11  1  0
 10 12  2  0
 12 13  1  0
 12 14  1  0
 14 15  1  0
 14 16  2  0
 16 17  1  0
 17 18  2  0
 17 19  1  0
 19 20  1  0
 20 21  1  0
 20 22  1  0
 20 23  1  0
 23 24  1  1
 23 25  1  0
 25 26  1  0
 25 27  1  0
 25 28  1  0
 28 29  1  0
 28 30  1  0
 28 31  1  0
 31 32  1  0
 31 33  1  0
 31 34  1  0
 34 35  1  0
 34 36  1  0
 34 37  1  0
 37 38  1  0
 37 39  1  0
  2 40  1  0
 40 41  2  0
 41 42  1  0
 42 43  1  0
 42 44  2  0
 44 45  1  0
 44 46  1  0
 46 47  1  0
 46 48  2  0
 48 49  1  0
 19  5  1  0
 37 23  1  0
 48 40  1  0
 16  7  1  0
M  CHG  1  34   1
M  END
>  <UniqueID>  (78) 
435

>  <SMILES>  (78) 
O=c1c2ccc(Cl)cc2nc(/C=C/c2ccccn2)n1C[C@@H]1CCC[NH2+]C1

>  <Energy>  (78) 
68.65703999713388

>  <Genealogy>  (78) 
O=c1c2ccc(Cl)cc2nc(/C=C/c2ccccn2)n1CC1CCC[NH2+]C1 (protonated)
O=c1c2ccc(Cl)cc2nc(/C=C/c2ccccn2)n1C[C@@H]1CCC[NH2+]C1 (chirality)
O=c1c2ccc(Cl)cc2nc(/C=C/c2ccccn2)n1C[C@@H]1CCC[NH2+]C1 (cis-trans isomerization)
O=c1c2ccc(Cl)cc2nc(/C=C/c2ccccn2)n1C[C@@H]1CCC[NH2+]C1 (3D coordinates assigned)
O=c1c2ccc(Cl)cc2nc(/C=C/c2ccccn2)n1C[C@@H]1CCC[NH2+]C1 (nonaromatic ring conformer: 68.65703999713388 kcal/mol)

>  <smiles>  (78) 
O=c1c2ccc(Cl)cc2nc(/C=C/c2ccccn2)n1CC1CCCNC1

>  <score_type>  (78) 
oracle

>  <origin>  (78) 
autodockgpu

>  <m_score__min__energy>  (78) 
-7.6699999999999999

>  <m_primary>  (78) 
energy

>  <meeko>  (78) 
{"free_energy": -7.28, "intermolecular_energy": -8.77, "internal_energy": -2.3, "cluster_size": 16, "cluster_id": 2, "rank_in_cluster": 12}

>  <energy>  (78) 
-7.27

>  <cluster_rmsd>  (78) 
0.6

>  <rmsd>  (78) 
271.26

>  <cluster>  (78) 
2

$$$$
MESWETRYUNDHFU-QZJYLSAJNA-O
     RDKit          3D

 49 52  0  0  0  0  0  0  0  0999 V2000
  140.7719   83.2780  221.8080 H   0  0  0  0  0  0  0  0  0  0  0  0
  140.7590   82.2400  221.4440 C   0  0  0  0  0  0  0  0  0  0  0  0
  140.3690   82.0210  220.1800 C   0  0  0  0  0  0  0  0  0  0  0  0
  139.5029   82.5696  219.7813 H   0  0  0  0  0  0  0  0  0  0  0  0
  141.0810   81.0540  219.3070 C   0  0  0  0  0  0  0  0  0  0  0  0
  141.4030   79.8490  219.8470 N   0  0  0  0  0  0  0  0  0  0  0  0
  142.0100   78.8760  219.1330 C   0  0  0  0  0  0  0  0  0  0  0  0
  142.3280   77.6550  219.7390 C   0  0  0  0  0  0  0  0  0  0  0  0
  142.0970   77.4924  220.8021 H   0  0  0  0  0  0  0  0  0  0  0  0
  142.9390   76.6420  218.9940 C   0  0  0  0  0  0  0  0  0  0  0  0
  143.3390   75.1120  219.7550 Cl  0  0  0  0  0  0  0  0  0  0  0  0
  143.2310   76.8480  217.6420 C   0  0  0  0  0  0  0  0  0  0  0  0
  143.7119   76.0503  217.0568 H   0  0  0  0  0  0  0  0  0  0  0  0
  142.9130   78.0660  217.0320 C   0  0  0  0  0  0  0  0  0  0  0  0
  143.1414   78.2228  215.9675 H   0  0  0  0  0  0  0  0  0  0  0  0
  142.3010   79.0920  217.7780 C   0  0  0  0  0  0  0  0  0  0  0  0
  141.9710   80.3370  217.2160 C   0  0  0  0  0  0  0  0  0  0  0  0
  142.1980   80.5330  215.9900 O   0  0  0  0  0  0  0  0  0  0  0  0
  141.4110   81.3310  217.9910 N   0  0  0  0  0  0  0  0  0  0  0  0
  141.1470   82.6580  217.3760 C   0  0  0  0  0  0  0  0  0  0  0  0
  140.7479   82.4903  216.3648 H   0  0  0  0  0  0  0  0  0  0  0  0
  140.4434   83.1699  218.0490 H   0  0  0  0  0  0  0  0  0  0  0  0
  142.3850   83.5950  217.2550 C   0  0  2  0  0  0  0  0  0  0  0  0
  142.2583   84.2322  218.1427 H   0  0  0  0  0  0  0  0  0  0  0  0
  142.3680   84.5570  216.0440 C   0  0  0  0  0  0  0  0  0  0  0  0
  141.3212   84.7803  215.7902 H   0  0  0  0  0  0  0  0  0  0  0  0
  142.9250   85.4592  216.3367 H   0  0  0  0  0  0  0  0  0  0  0  0
  143.0570   83.9810  214.8030 C   0  0  0  0  0  0  0  0  0  0  0  0
  142.4436   83.1644  214.3945 H   0  0  0  0  0  0  0  0  0  0  0  0
  143.1704   84.7801  214.0557 H   0  0  0  0  0  0  0  0  0  0  0  0
  144.4400   83.4400  215.1620 C   0  0  0  0  0  0  0  0  0  0  0  0
  144.9091   83.0193  214.2604 H   0  0  0  0  0  0  0  0  0  0  0  0
  145.0515   84.2636  215.5593 H   0  0  0  0  0  0  0  0  0  0  0  0
  144.3340   82.3930  216.1840 N   0  0  0  0  0  0  0  0  0  0  0  0
  143.7650   81.6020  215.8140 H   0  0  0  0  0  0  0  0  0  0  0  0
  145.2940   82.0260  216.3830 H   0  0  0  0  0  0  0  0  0  0  0  0
  143.7650   82.9110  217.4400 C   0  0  0  0  0  0  0  0  0  0  0  0
  143.6471   82.0720  218.1416 H   0  0  0  0  0  0  0  0  0  0  0  0
  144.4584   83.6760  217.8196 H   0  0  0  0  0  0  0  0  0  0  0  0
  141.1730   81.1710  222.3790 C   0  0  0  0  0  0  0  0  0  0  0  0
  140.1990   80.4370  222.9870 N   0  0  0  0  0  0  0  0  0  0  0  0
  140.4830   79.4250  223.8490 C   0  0  0  0  0  0  0  0  0  0  0  0
  139.6661   78.8629  224.3252 H   0  0  0  0  0  0  0  0  0  0  0  0
  141.8100   79.0990  224.1300 C   0  0  0  0  0  0  0  0  0  0  0  0
  142.0466   78.2835  224.8293 H   0  0  0  0  0  0  0  0  0  0  0  0
  142.8330   79.8190  223.5140 C   0  0  0  0  0  0  0  0  0  0  0  0
  143.8839   79.5708  223.7237 H   0  0  0  0  0  0  0  0  0  0  0  0
  142.5230   80.8550  222.6310 C   0  0  0  0  0  0  0  0  0  0  0  0
  143.3263   81.4202  222.1358 H   0  0  0  0  0  0  0  0  0  0  0  0
  1  2  1  0
  2  3  2  0
  3  4  1  0
  3  5  1  0
  5  6  2  0
  6  7  1  0
  7  8  2  0
  8  9  1  0
  8 10  1  0
 10 11  1  0
 10 12  2  0
 12 13  1  0
 12 14  1  0
 14 15  1  0
 14 16  2  0
 16 17  1  0
 17 18  2  0
 17 19  1  0
 19 20  1  0
 20 21  1  0
 20 22  1  0
 20 23  1  0
 23 24  1  1
 23 25  1  0
 25 26  1  0
 25 27  1  0
 25 28  1  0
 28 29  1  0
 28 30  1  0
 28 31  1  0
 31 32  1  0
 31 33  1  0
 31 34  1  0
 34 35  1  0
 34 36  1  0
 34 37  1  0
 37 38  1  0
 37 39  1  0
  2 40  1  0
 40 41  2  0
 41 42  1  0
 42 43  1  0
 42 44  2  0
 44 45  1  0
 44 46  1  0
 46 47  1  0
 46 48  2  0
 48 49  1  0
 19  5  1  0
 37 23  1  0
 48 40  1  0
 16  7  1  0
M  CHG  1  34   1
M  END
>  <UniqueID>  (79) 
435

>  <SMILES>  (79) 
O=c1c2ccc(Cl)cc2nc(/C=C/c2ccccn2)n1C[C@@H]1CCC[NH2+]C1

>  <Energy>  (79) 
68.65703999713388

>  <Genealogy>  (79) 
O=c1c2ccc(Cl)cc2nc(/C=C/c2ccccn2)n1CC1CCC[NH2+]C1 (protonated)
O=c1c2ccc(Cl)cc2nc(/C=C/c2ccccn2)n1C[C@@H]1CCC[NH2+]C1 (chirality)
O=c1c2ccc(Cl)cc2nc(/C=C/c2ccccn2)n1C[C@@H]1CCC[NH2+]C1 (cis-trans isomerization)
O=c1c2ccc(Cl)cc2nc(/C=C/c2ccccn2)n1C[C@@H]1CCC[NH2+]C1 (3D coordinates assigned)
O=c1c2ccc(Cl)cc2nc(/C=C/c2ccccn2)n1C[C@@H]1CCC[NH2+]C1 (nonaromatic ring conformer: 68.65703999713388 kcal/mol)

>  <smiles>  (79) 
O=c1c2ccc(Cl)cc2nc(/C=C/c2ccccn2)n1CC1CCCNC1

>  <score_type>  (79) 
oracle

>  <origin>  (79) 
autodockgpu

>  <m_score__min__energy>  (79) 
-7.6699999999999999

>  <m_primary>  (79) 
energy

>  <meeko>  (79) 
{"free_energy": -7.59, "intermolecular_energy": -9.08, "internal_energy": -2.04, "cluster_size": 4, "cluster_id": 1, "rank_in_cluster": 4}

>  <energy>  (79) 
-7.26

>  <cluster_rmsd>  (79) 
0.13

>  <rmsd>  (79) 
271.25

>  <cluster>  (79) 
2

$$$$
MESWETRYUNDHFU-QZJYLSAJNA-O
     RDKit          3D

 49 52  0  0  0  0  0  0  0  0999 V2000
  138.9528   77.8026  223.5543 H   0  0  0  0  0  0  0  0  0  0  0  0
  139.6300   78.0970  222.7390 C   0  0  0  0  0  0  0  0  0  0  0  0
  139.5450   77.4310  221.5790 C   0  0  0  0  0  0  0  0  0  0  0  0
  138.5601   77.2917  221.1093 H   0  0  0  0  0  0  0  0  0  0  0  0
  140.7520   76.8770  220.9140 C   0  0  0  0  0  0  0  0  0  0  0  0
  141.0240   75.5600  221.1160 N   0  0  0  0  0  0  0  0  0  0  0  0
  142.0690   74.9400  220.5260 C   0  0  0  0  0  0  0  0  0  0  0  0
  142.3100   73.5830  220.7740 C   0  0  0  0  0  0  0  0  0  0  0  0
  141.6572   73.0253  221.4616 H   0  0  0  0  0  0  0  0  0  0  0  0
  143.3800   72.9370  220.1480 C   0  0  0  0  0  0  0  0  0  0  0  0
  143.6830   71.2370  220.4600 Cl  0  0  0  0  0  0  0  0  0  0  0  0
  144.2080   73.6450  219.2710 C   0  0  0  0  0  0  0  0  0  0  0  0
  145.0487   73.1352  218.7777 H   0  0  0  0  0  0  0  0  0  0  0  0
  143.9690   75.0000  219.0200 C   0  0  0  0  0  0  0  0  0  0  0  0
  144.6217   75.5532  218.3287 H   0  0  0  0  0  0  0  0  0  0  0  0
  142.8950   75.6580  219.6500 C   0  0  0  0  0  0  0  0  0  0  0  0
  142.6180   77.0190  219.4390 C   0  0  0  0  0  0  0  0  0  0  0  0
  143.3350   77.6700  218.6290 O   0  0  0  0  0  0  0  0  0  0  0  0
  141.5820   77.6370  220.1090 N   0  0  0  0  0  0  0  0  0  0  0  0
  141.3710   79.0950  219.9150 C   0  0  0  0  0  0  0  0  0  0  0  0
  140.6817   79.4454  220.6974 H   0  0  0  0  0  0  0  0  0  0  0  0
  142.3686   79.5555  219.9668 H   0  0  0  0  0  0  0  0  0  0  0  0
  140.7790   79.5060  218.5330 C   0  0  2  0  0  0  0  0  0  0  0  0
  139.9723   80.1882  218.8393 H   0  0  0  0  0  0  0  0  0  0  0  0
  140.0880   78.3680  217.7480 C   0  0  0  0  0  0  0  0  0  0  0  0
  139.6863   77.6407  218.4689 H   0  0  0  0  0  0  0  0  0  0  0  0
  139.2967   78.8276  217.1376 H   0  0  0  0  0  0  0  0  0  0  0  0
  141.0300   77.6330  216.7900 C   0  0  0  0  0  0  0  0  0  0  0  0
  141.7483   77.0386  217.3738 H   0  0  0  0  0  0  0  0  0  0  0  0
  140.4339   76.9761  216.1395 H   0  0  0  0  0  0  0  0  0  0  0  0
  141.7930   78.6300  215.9190 C   0  0  0  0  0  0  0  0  0  0  0  0
  142.4733   78.0807  215.2515 H   0  0  0  0  0  0  0  0  0  0  0  0
  141.0700   79.2123  215.3289 H   0  0  0  0  0  0  0  0  0  0  0  0
  142.5740   79.5500  216.7530 N   0  0  0  0  0  0  0  0  0  0  0  0
  143.2710   79.0090  217.3080 H   0  0  0  0  0  0  0  0  0  0  0  0
  143.1040   80.1980  216.1240 H   0  0  0  0  0  0  0  0  0  0  0  0
  141.7110   80.3580  217.6310 C   0  0  0  0  0  0  0  0  0  0  0  0
  142.3519   80.9759  218.2771 H   0  0  0  0  0  0  0  0  0  0  0  0
  141.0656   80.9669  216.9808 H   0  0  0  0  0  0  0  0  0  0  0  0
  140.5790   79.2040  222.9900 C   0  0  0  0  0  0  0  0  0  0  0  0
  140.2070   80.4620  222.6240 N   0  0  0  0  0  0  0  0  0  0  0  0
  141.0050   81.5450  222.8290 C   0  0  0  0  0  0  0  0  0  0  0  0
  140.6698   82.5433  222.5113 H   0  0  0  0  0  0  0  0  0  0  0  0
  142.2480   81.3890  223.4420 C   0  0  0  0  0  0  0  0  0  0  0  0
  142.9001   82.2595  223.6066 H   0  0  0  0  0  0  0  0  0  0  0  0
  142.6550   80.1170  223.8440 C   0  0  0  0  0  0  0  0  0  0  0  0
  143.6310   79.9804  224.3326 H   0  0  0  0  0  0  0  0  0  0  0  0
  141.8230   79.0170  223.6260 C   0  0  0  0  0  0  0  0  0  0  0  0
  142.1358   78.0127  223.9480 H   0  0  0  0  0  0  0  0  0  0  0  0
  1  2  1  0
  2  3  2  0
  3  4  1  0
  3  5  1  0
  5  6  2  0
  6  7  1  0
  7  8  2  0
  8  9  1  0
  8 10  1  0
 10 11  1  0
 10 12  2  0
 12 13  1  0
 12 14  1  0
 14 15  1  0
 14 16  2  0
 16 17  1  0
 17 18  2  0
 17 19  1  0
 19 20  1  0
 20 21  1  0
 20 22  1  0
 20 23  1  0
 23 24  1  1
 23 25  1  0
 25 26  1  0
 25 27  1  0
 25 28  1  0
 28 29  1  0
 28 30  1  0
 28 31  1  0
 31 32  1  0
 31 33  1  0
 31 34  1  0
 34 35  1  0
 34 36  1  0
 34 37  1  0
 37 38  1  0
 37 39  1  0
  2 40  1  0
 40 41  2  0
 41 42  1  0
 42 43  1  0
 42 44  2  0
 44 45  1  0
 44 46  1  0
 46 47  1  0
 46 48  2  0
 48 49  1  0
 19  5  1  0
 37 23  1  0
 48 40  1  0
 16  7  1  0
M  CHG  1  34   1
M  END
>  <UniqueID>  (80) 
435

>  <SMILES>  (80) 
O=c1c2ccc(Cl)cc2nc(/C=C/c2ccccn2)n1C[C@@H]1CCC[NH2+]C1

>  <Energy>  (80) 
68.65703999713388

>  <Genealogy>  (80) 
O=c1c2ccc(Cl)cc2nc(/C=C/c2ccccn2)n1CC1CCC[NH2+]C1 (protonated)
O=c1c2ccc(Cl)cc2nc(/C=C/c2ccccn2)n1C[C@@H]1CCC[NH2+]C1 (chirality)
O=c1c2ccc(Cl)cc2nc(/C=C/c2ccccn2)n1C[C@@H]1CCC[NH2+]C1 (cis-trans isomerization)
O=c1c2ccc(Cl)cc2nc(/C=C/c2ccccn2)n1C[C@@H]1CCC[NH2+]C1 (3D coordinates assigned)
O=c1c2ccc(Cl)cc2nc(/C=C/c2ccccn2)n1C[C@@H]1CCC[NH2+]C1 (nonaromatic ring conformer: 68.65703999713388 kcal/mol)

>  <smiles>  (80) 
O=c1c2ccc(Cl)cc2nc(/C=C/c2ccccn2)n1CC1CCCNC1

>  <score_type>  (80) 
oracle

>  <origin>  (80) 
autodockgpu

>  <m_score__min__energy>  (80) 
-7.6699999999999999

>  <m_primary>  (80) 
energy

>  <meeko>  (80) 
{"free_energy": -7.31, "intermolecular_energy": -8.8, "internal_energy": -2.28, "cluster_size": 16, "cluster_id": 2, "rank_in_cluster": 3}

>  <energy>  (80) 
-7.24

>  <cluster_rmsd>  (80) 
0.19

>  <rmsd>  (80) 
271.23

>  <cluster>  (80) 
2

$$$$
