JGFXCGHACWUNAV-OYOSFLFPNA-N
     RDKit          3D

 55 59  0  0  0  0  0  0  0  0999 V2000
  140.3138   70.5889  229.3971 H   0  0  0  0  0  0  0  0  0  0  0  0
  140.1460   70.2930  228.3510 C   0  0  0  0  0  0  0  0  0  0  0  0
  139.3990   69.1500  228.0620 C   0  0  0  0  0  0  0  0  0  0  0  0
  138.9771   68.5474  228.8799 H   0  0  0  0  0  0  0  0  0  0  0  0
  139.1870   68.7710  226.7340 C   0  0  0  0  0  0  0  0  0  0  0  0
  138.6084   67.8633  226.5073 H   0  0  0  0  0  0  0  0  0  0  0  0
  139.7120   69.5480  225.6880 C   0  0  0  0  0  0  0  0  0  0  0  0
  140.4600   70.7000  225.9770 C   0  0  0  0  0  0  0  0  0  0  0  0
  140.6810   71.0620  227.3150 C   0  0  0  0  0  0  0  0  0  0  0  0
  141.2784   71.9556  227.5488 H   0  0  0  0  0  0  0  0  0  0  0  0
  141.0790   71.5070  224.8630 C   0  0  0  0  0  0  0  0  0  0  0  0
  142.1101   71.1567  224.7074 H   0  0  0  0  0  0  0  0  0  0  0  0
  141.0460   72.5643  225.1647 H   0  0  0  0  0  0  0  0  0  0  0  0
  140.3440   71.3880  223.5880 N   0  0  0  0  0  0  0  0  0  0  0  0
  140.6250   72.3370  222.5380 C   0  0  0  0  0  0  0  0  0  0  0  0
  140.0280   73.5560  222.5360 N   0  0  0  0  0  0  0  0  0  0  0  0
  140.2770   74.4550  221.5480 C   0  0  0  0  0  0  0  0  0  0  0  0
  139.6470   75.7480  221.5900 N   0  0  0  0  0  0  0  0  0  0  0  0
  140.2570   76.9190  220.9450 C   0  0  0  0  0  0  0  0  0  0  0  0
  141.2750   76.6627  220.6165 H   0  0  0  0  0  0  0  0  0  0  0  0
  139.6431   77.2104  220.0800 H   0  0  0  0  0  0  0  0  0  0  0  0
  140.3240   78.0980  221.9290 C   0  0  0  0  0  0  0  0  0  0  0  0
  141.2231   77.9821  222.5520 H   0  0  0  0  0  0  0  0  0  0  0  0
  140.3504   79.0206  221.3306 H   0  0  0  0  0  0  0  0  0  0  0  0
  139.0920   78.1900  222.8580 C   0  0  0  0  0  0  0  0  0  0  0  0
  139.3795   77.8361  223.8590 H   0  0  0  0  0  0  0  0  0  0  0  0
  138.7674   79.2409  222.8742 H   0  0  0  0  0  0  0  0  0  0  0  0
  137.9090   77.3490  222.3620 C   0  0  0  0  0  0  0  0  0  0  0  0
  137.0831   77.4235  223.0847 H   0  0  0  0  0  0  0  0  0  0  0  0
  137.5881   77.7285  221.3807 H   0  0  0  0  0  0  0  0  0  0  0  0
  138.3220   75.8780  222.2160 C   0  0  0  0  0  0  0  0  0  0  0  0
  138.3511   75.4146  223.2132 H   0  0  0  0  0  0  0  0  0  0  0  0
  137.5857   75.3758  221.5713 H   0  0  0  0  0  0  0  0  0  0  0  0
  141.1600   74.1370  220.5590 N   0  0  0  0  0  0  0  0  0  0  0  0
  141.3930   74.8520  219.8380 H   0  0  0  0  0  0  0  0  0  0  0  0
  141.7680   72.9130  220.5520 C   0  0  0  0  0  0  0  0  0  0  0  0
  142.6180   72.5720  219.6260 N   0  0  0  0  0  0  0  0  0  0  0  0
  143.9310   73.1790  219.3950 C   0  0  0  0  0  0  0  0  0  0  0  0
  143.8835   73.4130  218.3212 H   0  0  0  0  0  0  0  0  0  0  0  0
  144.2570   74.2740  220.4050 C   0  0  0  0  0  0  0  0  0  0  0  0
  144.5977   75.2166  219.9516 H   0  0  0  0  0  0  0  0  0  0  0  0
  143.4738   74.6741  221.0657 H   0  0  0  0  0  0  0  0  0  0  0  0
  145.3790   73.4150  220.9710 C   0  0  0  0  0  0  0  0  0  0  0  0
  146.3819   73.8501  220.8492 H   0  0  0  0  0  0  0  0  0  0  0  0
  145.4168   73.1893  222.0469 H   0  0  0  0  0  0  0  0  0  0  0  0
  145.0520   72.3190  219.9670 C   0  0  0  0  0  0  0  0  0  0  0  0
  145.8627   72.1058  219.2547 H   0  0  0  0  0  0  0  0  0  0  0  0
  144.8484   71.2933  220.3085 H   0  0  0  0  0  0  0  0  0  0  0  0
  141.4920   72.0250  221.5390 N   0  0  0  0  0  0  0  0  0  0  0  0
  139.3060   70.3630  223.3750 C   0  0  0  0  0  0  0  0  0  0  0  0
  139.3271   70.0496  222.3208 H   0  0  0  0  0  0  0  0  0  0  0  0
  138.3333   70.8037  223.6391 H   0  0  0  0  0  0  0  0  0  0  0  0
  139.5250   69.1350  224.2600 C   0  0  0  0  0  0  0  0  0  0  0  0
  140.4212   68.5967  223.9179 H   0  0  0  0  0  0  0  0  0  0  0  0
  138.6425   68.4821  224.1897 H   0  0  0  0  0  0  0  0  0  0  0  0
  1  2  1  0
  2  3  2  0
  3  4  1  0
  3  5  1  0
  5  6  1  0
  5  7  2  0
  7  8  1  0
  8  9  2  0
  9 10  1  0
  8 11  1  0
 11 12  1  0
 11 13  1  0
 11 14  1  0
 14 15  1  0
 15 16  1  0
 16 17  2  0
 17 18  1  0
 18 19  1  0
 19 20  1  0
 19 21  1  0
 19 22  1  0
 22 23  1  0
 22 24  1  0
 22 25  1  0
 25 26  1  0
 25 27  1  0
 25 28  1  0
 28 29  1  0
 28 30  1  0
 28 31  1  0
 31 32  1  0
 31 33  1  0
 17 34  1  0
 34 35  1  0
 34 36  1  0
 36 37  2  0
 37 38  1  0
 38 39  1  0
 38 40  1  0
 40 41  1  0
 40 42  1  0
 40 43  1  0
 43 44  1  0
 43 45  1  0
 43 46  1  0
 46 47  1  0
 46 48  1  0
 36 49  1  0
 14 50  1  0
 50 51  1  0
 50 52  1  0
 50 53  1  0
 53 54  1  0
 53 55  1  0
  9  2  1  0
 49 15  2  0
 53  7  1  0
 31 18  1  0
 46 38  1  0
M  END
>  <UniqueID>  (1) 
483

>  <SMILES>  (1) 
c1ccc2c(c1)CCN(c1nc(N3CCCCC3)[nH]/c(=N\C3CCC3)n1)C2

>  <Energy>  (1) 
122.77454658265788

>  <Genealogy>  (1) 
c1ccc2c(c1)CCN(c1nc(N3CCCCC3)[nH]c(=NC3CCC3)n1)C2 (tautomer)
c1ccc2c(c1)CCN(c1nc(N3CCCCC3)[nH]/c(=N\C3CCC3)n1)C2 (cis-trans isomerization)
c1ccc2c(c1)CCN(c1nc(N3CCCCC3)[nH]/c(=N\C3CCC3)n1)C2 (3D coordinates assigned)
c1ccc2c(c1)CCN(c1nc(N3CCCCC3)[nH]/c(=N\C3CCC3)n1)C2 (nonaromatic ring conformer: 122.77454658265788 kcal/mol)

>  <smiles>  (1) 
c1ccc2c(c1)CCN(c1nc(NC3CCC3)nc(N3CCCCC3)n1)C2

>  <score_type>  (1) 
oracle

>  <origin>  (1) 
autodockgpu

>  <m_score__min__energy>  (1) 
-7.6799999999999997

>  <m_primary>  (1) 
energy

>  <meeko>  (1) 
{"free_energy": -7.67, "intermolecular_energy": -8.86, "internal_energy": -0.91, "cluster_size": 17, "cluster_id": 1, "rank_in_cluster": 5}

>  <energy>  (1) 
-7.68

>  <cluster_rmsd>  (1) 
0.0

>  <rmsd>  (1) 
269.81

>  <cluster>  (1) 
1

$$$$
JGFXCGHACWUNAV-OYOSFLFPNA-N
     RDKit          3D

 55 59  0  0  0  0  0  0  0  0999 V2000
  140.4211   70.5109  229.3701 H   0  0  0  0  0  0  0  0  0  0  0  0
  140.1970   70.2550  228.3240 C   0  0  0  0  0  0  0  0  0  0  0  0
  139.3710   69.1680  228.0350 C   0  0  0  0  0  0  0  0  0  0  0  0
  138.9432   68.5698  228.8531 H   0  0  0  0  0  0  0  0  0  0  0  0
  139.0870   68.8390  226.7070 C   0  0  0  0  0  0  0  0  0  0  0  0
  138.4459   67.9745  226.4797 H   0  0  0  0  0  0  0  0  0  0  0  0
  139.6200   69.6120  225.6620 C   0  0  0  0  0  0  0  0  0  0  0  0
  140.4480   70.7080  225.9510 C   0  0  0  0  0  0  0  0  0  0  0  0
  140.7400   71.0190  227.2880 C   0  0  0  0  0  0  0  0  0  0  0  0
  141.3993   71.8680  227.5213 H   0  0  0  0  0  0  0  0  0  0  0  0
  141.0740   71.5070  224.8350 C   0  0  0  0  0  0  0  0  0  0  0  0
  142.0752   71.0996  224.6309 H   0  0  0  0  0  0  0  0  0  0  0  0
  141.1172   72.5556  225.1647 H   0  0  0  0  0  0  0  0  0  0  0  0
  140.2860   71.4680  223.5860 N   0  0  0  0  0  0  0  0  0  0  0  0
  140.5860   72.4280  222.5510 C   0  0  0  0  0  0  0  0  0  0  0  0
  140.0110   73.6570  222.5660 N   0  0  0  0  0  0  0  0  0  0  0  0
  140.2780   74.5650  221.5930 C   0  0  0  0  0  0  0  0  0  0  0  0
  139.6720   75.8700  221.6530 N   0  0  0  0  0  0  0  0  0  0  0  0
  140.3380   77.0510  221.0890 C   0  0  0  0  0  0  0  0  0  0  0  0
  141.3670   76.7858  220.8045 H   0  0  0  0  0  0  0  0  0  0  0  0
  139.7774   77.3894  220.2051 H   0  0  0  0  0  0  0  0  0  0  0  0
  140.3750   78.1890  222.1230 C   0  0  0  0  0  0  0  0  0  0  0  0
  141.2364   78.0287  222.7880 H   0  0  0  0  0  0  0  0  0  0  0  0
  140.4524   79.1339  221.5651 H   0  0  0  0  0  0  0  0  0  0  0  0
  139.0970   78.2710  222.9870 C   0  0  0  0  0  0  0  0  0  0  0  0
  139.3227   77.8719  223.9869 H   0  0  0  0  0  0  0  0  0  0  0  0
  138.7926   79.3273  223.0279 H   0  0  0  0  0  0  0  0  0  0  0  0
  137.9260   77.4760  222.3950 C   0  0  0  0  0  0  0  0  0  0  0  0
  137.0636   77.5404  223.0748 H   0  0  0  0  0  0  0  0  0  0  0  0
  137.6660   77.9002  221.4140 H   0  0  0  0  0  0  0  0  0  0  0  0
  138.3180   76.0030  222.2130 C   0  0  0  0  0  0  0  0  0  0  0  0
  138.2850   75.5010  223.1912 H   0  0  0  0  0  0  0  0  0  0  0  0
  137.6077   75.5413  221.5114 H   0  0  0  0  0  0  0  0  0  0  0  0
  141.1560   74.2470  220.6000 N   0  0  0  0  0  0  0  0  0  0  0  0
  141.4030   74.9680  219.8890 H   0  0  0  0  0  0  0  0  0  0  0  0
  141.7410   73.0110  220.5750 C   0  0  0  0  0  0  0  0  0  0  0  0
  142.5860   72.6680  219.6450 N   0  0  0  0  0  0  0  0  0  0  0  0
  143.9170   73.2440  219.4340 C   0  0  0  0  0  0  0  0  0  0  0  0
  143.8878   73.4890  218.3620 H   0  0  0  0  0  0  0  0  0  0  0  0
  144.2590   74.3220  220.4570 C   0  0  0  0  0  0  0  0  0  0  0  0
  144.6283   75.2595  220.0158 H   0  0  0  0  0  0  0  0  0  0  0  0
  143.4791   74.7365  221.1127 H   0  0  0  0  0  0  0  0  0  0  0  0
  145.3530   73.4290  221.0270 C   0  0  0  0  0  0  0  0  0  0  0  0
  146.3680   73.8392  220.9195 H   0  0  0  0  0  0  0  0  0  0  0  0
  145.3734   73.1931  222.1012 H   0  0  0  0  0  0  0  0  0  0  0  0
  145.0090   72.3500  220.0100 C   0  0  0  0  0  0  0  0  0  0  0  0
  145.8216   72.1219  219.3046 H   0  0  0  0  0  0  0  0  0  0  0  0
  144.7755   71.3270  220.3400 H   0  0  0  0  0  0  0  0  0  0  0  0
  141.4480   72.1140  221.5490 N   0  0  0  0  0  0  0  0  0  0  0  0
  139.1790   70.5140  223.3880 C   0  0  0  0  0  0  0  0  0  0  0  0
  139.1405   70.2295  222.3261 H   0  0  0  0  0  0  0  0  0  0  0  0
  138.2459   71.0051  223.7013 H   0  0  0  0  0  0  0  0  0  0  0  0
  139.3560   69.2510  224.2320 C   0  0  0  0  0  0  0  0  0  0  0  0
  140.2049   68.6703  223.8420 H   0  0  0  0  0  0  0  0  0  0  0  0
  138.4338   68.6538  224.1788 H   0  0  0  0  0  0  0  0  0  0  0  0
  1  2  1  0
  2  3  2  0
  3  4  1  0
  3  5  1  0
  5  6  1  0
  5  7  2  0
  7  8  1  0
  8  9  2  0
  9 10  1  0
  8 11  1  0
 11 12  1  0
 11 13  1  0
 11 14  1  0
 14 15  1  0
 15 16  1  0
 16 17  2  0
 17 18  1  0
 18 19  1  0
 19 20  1  0
 19 21  1  0
 19 22  1  0
 22 23  1  0
 22 24  1  0
 22 25  1  0
 25 26  1  0
 25 27  1  0
 25 28  1  0
 28 29  1  0
 28 30  1  0
 28 31  1  0
 31 32  1  0
 31 33  1  0
 17 34  1  0
 34 35  1  0
 34 36  1  0
 36 37  2  0
 37 38  1  0
 38 39  1  0
 38 40  1  0
 40 41  1  0
 40 42  1  0
 40 43  1  0
 43 44  1  0
 43 45  1  0
 43 46  1  0
 46 47  1  0
 46 48  1  0
 36 49  1  0
 14 50  1  0
 50 51  1  0
 50 52  1  0
 50 53  1  0
 53 54  1  0
 53 55  1  0
  9  2  1  0
 49 15  2  0
 53  7  1  0
 31 18  1  0
 46 38  1  0
M  END
>  <UniqueID>  (2) 
483

>  <SMILES>  (2) 
c1ccc2c(c1)CCN(c1nc(N3CCCCC3)[nH]/c(=N\C3CCC3)n1)C2

>  <Energy>  (2) 
122.77454658265788

>  <Genealogy>  (2) 
c1ccc2c(c1)CCN(c1nc(N3CCCCC3)[nH]c(=NC3CCC3)n1)C2 (tautomer)
c1ccc2c(c1)CCN(c1nc(N3CCCCC3)[nH]/c(=N\C3CCC3)n1)C2 (cis-trans isomerization)
c1ccc2c(c1)CCN(c1nc(N3CCCCC3)[nH]/c(=N\C3CCC3)n1)C2 (3D coordinates assigned)
c1ccc2c(c1)CCN(c1nc(N3CCCCC3)[nH]/c(=N\C3CCC3)n1)C2 (nonaromatic ring conformer: 122.77454658265788 kcal/mol)

>  <smiles>  (2) 
c1ccc2c(c1)CCN(c1nc(NC3CCC3)nc(N3CCCCC3)n1)C2

>  <score_type>  (2) 
oracle

>  <origin>  (2) 
autodockgpu

>  <m_score__min__energy>  (2) 
-7.6799999999999997

>  <m_primary>  (2) 
energy

>  <meeko>  (2) 
{"free_energy": -7.67, "intermolecular_energy": -8.86, "internal_energy": -0.92, "cluster_size": 17, "cluster_id": 1, "rank_in_cluster": 3}

>  <energy>  (2) 
-7.67

>  <cluster_rmsd>  (2) 
0.36

>  <rmsd>  (2) 
269.79

>  <cluster>  (2) 
1

$$$$
JGFXCGHACWUNAV-OYOSFLFPNA-N
     RDKit          3D

 55 59  0  0  0  0  0  0  0  0999 V2000
  140.4359   70.6433  229.3857 H   0  0  0  0  0  0  0  0  0  0  0  0
  140.2240   70.3570  228.3450 C   0  0  0  0  0  0  0  0  0  0  0  0
  139.4330   69.2380  228.0780 C   0  0  0  0  0  0  0  0  0  0  0  0
  139.0210   68.6448  228.9077 H   0  0  0  0  0  0  0  0  0  0  0  0
  139.1650   68.8720  226.7570 C   0  0  0  0  0  0  0  0  0  0  0  0
  138.5514   67.9835  226.5470 H   0  0  0  0  0  0  0  0  0  0  0  0
  139.6780   69.6370  225.6960 C   0  0  0  0  0  0  0  0  0  0  0  0
  140.4700   70.7640  225.9630 C   0  0  0  0  0  0  0  0  0  0  0  0
  140.7470   71.1140  227.2940 C   0  0  0  0  0  0  0  0  0  0  0  0
  141.3787   71.9882  227.5102 H   0  0  0  0  0  0  0  0  0  0  0  0
  141.0760   71.5570  224.8310 C   0  0  0  0  0  0  0  0  0  0  0  0
  142.0900   71.1761  224.6395 H   0  0  0  0  0  0  0  0  0  0  0  0
  141.0857   72.6135  225.1372 H   0  0  0  0  0  0  0  0  0  0  0  0
  140.2950   71.4660  223.5810 N   0  0  0  0  0  0  0  0  0  0  0  0
  140.5690   72.4110  222.5250 C   0  0  0  0  0  0  0  0  0  0  0  0
  140.0240   73.6530  222.5570 N   0  0  0  0  0  0  0  0  0  0  0  0
  140.2670   74.5480  221.5650 C   0  0  0  0  0  0  0  0  0  0  0  0
  139.6940   75.8670  221.6420 N   0  0  0  0  0  0  0  0  0  0  0  0
  140.4570   77.0580  221.2460 C   0  0  0  0  0  0  0  0  0  0  0  0
  141.5054   76.7752  221.0703 H   0  0  0  0  0  0  0  0  0  0  0  0
  140.0191   77.4736  220.3265 H   0  0  0  0  0  0  0  0  0  0  0  0
  140.3980   78.1230  222.3530 C   0  0  0  0  0  0  0  0  0  0  0  0
  141.1663   77.8882  223.1044 H   0  0  0  0  0  0  0  0  0  0  0  0
  140.5694   79.0989  221.8752 H   0  0  0  0  0  0  0  0  0  0  0  0
  139.0270   78.1950  223.0600 C   0  0  0  0  0  0  0  0  0  0  0  0
  139.1172   77.7239  224.0499 H   0  0  0  0  0  0  0  0  0  0  0  0
  138.7497   79.2567  223.1363 H   0  0  0  0  0  0  0  0  0  0  0  0
  137.9150   77.4830  222.2780 C   0  0  0  0  0  0  0  0  0  0  0  0
  136.9783   77.5333  222.8525 H   0  0  0  0  0  0  0  0  0  0  0  0
  137.7881   77.9799  221.3049 H   0  0  0  0  0  0  0  0  0  0  0  0
  138.2860   76.0110  222.0420 C   0  0  0  0  0  0  0  0  0  0  0  0
  138.1191   75.4470  222.9715 H   0  0  0  0  0  0  0  0  0  0  0  0
  137.6550   75.6223  221.2291 H   0  0  0  0  0  0  0  0  0  0  0  0
  141.0910   74.2020  220.5360 N   0  0  0  0  0  0  0  0  0  0  0  0
  141.3220   74.9120  219.8090 H   0  0  0  0  0  0  0  0  0  0  0  0
  141.6470   72.9530  220.4950 C   0  0  0  0  0  0  0  0  0  0  0  0
  142.4400   72.5840  219.5300 N   0  0  0  0  0  0  0  0  0  0  0  0
  143.7940   73.0880  219.2870 C   0  0  0  0  0  0  0  0  0  0  0  0
  143.8322   73.1049  218.1878 H   0  0  0  0  0  0  0  0  0  0  0  0
  144.1030   74.3510  220.0850 C   0  0  0  0  0  0  0  0  0  0  0  0
  144.5198   75.1720  219.4832 H   0  0  0  0  0  0  0  0  0  0  0  0
  143.2965   74.9013  220.5918 H   0  0  0  0  0  0  0  0  0  0  0  0
  145.1390   73.5850  220.8930 C   0  0  0  0  0  0  0  0  0  0  0  0
  146.1680   73.9524  220.7659 H   0  0  0  0  0  0  0  0  0  0  0  0
  145.0914   73.5775  221.9919 H   0  0  0  0  0  0  0  0  0  0  0  0
  144.8290   72.3220  220.1020 C   0  0  0  0  0  0  0  0  0  0  0  0
  145.6756   71.9431  219.5107 H   0  0  0  0  0  0  0  0  0  0  0  0
  144.5524   71.3929  220.6218 H   0  0  0  0  0  0  0  0  0  0  0  0
  141.3770   72.0700  221.4880 N   0  0  0  0  0  0  0  0  0  0  0  0
  139.2190   70.4740  223.4010 C   0  0  0  0  0  0  0  0  0  0  0  0
  139.1937   70.1646  222.3457 H   0  0  0  0  0  0  0  0  0  0  0  0
  138.2701   70.9430  223.7002 H   0  0  0  0  0  0  0  0  0  0  0  0
  139.4310   69.2360  224.2740 C   0  0  0  0  0  0  0  0  0  0  0  0
  140.2988   68.6729  223.9001 H   0  0  0  0  0  0  0  0  0  0  0  0
  138.5277   68.6098  224.2312 H   0  0  0  0  0  0  0  0  0  0  0  0
  1  2  1  0
  2  3  2  0
  3  4  1  0
  3  5  1  0
  5  6  1  0
  5  7  2  0
  7  8  1  0
  8  9  2  0
  9 10  1  0
  8 11  1  0
 11 12  1  0
 11 13  1  0
 11 14  1  0
 14 15  1  0
 15 16  1  0
 16 17  2  0
 17 18  1  0
 18 19  1  0
 19 20  1  0
 19 21  1  0
 19 22  1  0
 22 23  1  0
 22 24  1  0
 22 25  1  0
 25 26  1  0
 25 27  1  0
 25 28  1  0
 28 29  1  0
 28 30  1  0
 28 31  1  0
 31 32  1  0
 31 33  1  0
 17 34  1  0
 34 35  1  0
 34 36  1  0
 36 37  2  0
 37 38  1  0
 38 39  1  0
 38 40  1  0
 40 41  1  0
 40 42  1  0
 40 43  1  0
 43 44  1  0
 43 45  1  0
 43 46  1  0
 46 47  1  0
 46 48  1  0
 36 49  1  0
 14 50  1  0
 50 51  1  0
 50 52  1  0
 50 53  1  0
 53 54  1  0
 53 55  1  0
  9  2  1  0
 49 15  2  0
 53  7  1  0
 31 18  1  0
 46 38  1  0
M  END
>  <UniqueID>  (3) 
483

>  <SMILES>  (3) 
c1ccc2c(c1)CCN(c1nc(N3CCCCC3)[nH]/c(=N\C3CCC3)n1)C2

>  <Energy>  (3) 
122.77454658265788

>  <Genealogy>  (3) 
c1ccc2c(c1)CCN(c1nc(N3CCCCC3)[nH]c(=NC3CCC3)n1)C2 (tautomer)
c1ccc2c(c1)CCN(c1nc(N3CCCCC3)[nH]/c(=N\C3CCC3)n1)C2 (cis-trans isomerization)
c1ccc2c(c1)CCN(c1nc(N3CCCCC3)[nH]/c(=N\C3CCC3)n1)C2 (3D coordinates assigned)
c1ccc2c(c1)CCN(c1nc(N3CCCCC3)[nH]/c(=N\C3CCC3)n1)C2 (nonaromatic ring conformer: 122.77454658265788 kcal/mol)

>  <smiles>  (3) 
c1ccc2c(c1)CCN(c1nc(NC3CCC3)nc(N3CCCCC3)n1)C2

>  <score_type>  (3) 
oracle

>  <origin>  (3) 
autodockgpu

>  <m_score__min__energy>  (3) 
-7.6799999999999997

>  <m_primary>  (3) 
energy

>  <meeko>  (3) 
{"free_energy": -7.61, "intermolecular_energy": -8.8, "internal_energy": -0.93, "cluster_size": 17, "cluster_id": 1, "rank_in_cluster": 13}

>  <energy>  (3) 
-7.67

>  <cluster_rmsd>  (3) 
0.39

>  <rmsd>  (3) 
269.78

>  <cluster>  (3) 
1

$$$$
JGFXCGHACWUNAV-OYOSFLFPNA-N
     RDKit          3D

 55 59  0  0  0  0  0  0  0  0999 V2000
  140.5887   70.5950  229.3644 H   0  0  0  0  0  0  0  0  0  0  0  0
  140.3320   70.3190  228.3310 C   0  0  0  0  0  0  0  0  0  0  0  0
  139.5100   69.2180  228.0890 C   0  0  0  0  0  0  0  0  0  0  0  0
  139.1186   68.6280  228.9309 H   0  0  0  0  0  0  0  0  0  0  0  0
  139.1840   68.8650  226.7770 C   0  0  0  0  0  0  0  0  0  0  0  0
  138.5452   67.9901  226.5860 H   0  0  0  0  0  0  0  0  0  0  0  0
  139.6710   69.6260  225.7020 C   0  0  0  0  0  0  0  0  0  0  0  0
  140.4960   70.7360  225.9440 C   0  0  0  0  0  0  0  0  0  0  0  0
  140.8300   71.0720  227.2650 C   0  0  0  0  0  0  0  0  0  0  0  0
  141.4869   71.9321  227.4619 H   0  0  0  0  0  0  0  0  0  0  0  0
  141.0740   71.5230  224.7940 C   0  0  0  0  0  0  0  0  0  0  0  0
  142.0721   71.1231  224.5620 H   0  0  0  0  0  0  0  0  0  0  0  0
  141.1165   72.5773  225.1049 H   0  0  0  0  0  0  0  0  0  0  0  0
  140.2450   71.4550  223.5750 N   0  0  0  0  0  0  0  0  0  0  0  0
  140.4980   72.4010  222.5140 C   0  0  0  0  0  0  0  0  0  0  0  0
  139.9870   73.6570  222.5780 N   0  0  0  0  0  0  0  0  0  0  0  0
  140.2100   74.5530  221.5820 C   0  0  0  0  0  0  0  0  0  0  0  0
  139.6760   75.8850  221.6930 N   0  0  0  0  0  0  0  0  0  0  0  0
  140.3740   77.0410  221.1130 C   0  0  0  0  0  0  0  0  0  0  0  0
  141.3727   76.7289  220.7737 H   0  0  0  0  0  0  0  0  0  0  0  0
  139.7891   77.4224  220.2630 H   0  0  0  0  0  0  0  0  0  0  0  0
  140.5200   78.1570  222.1600 C   0  0  0  0  0  0  0  0  0  0  0  0
  141.4047   77.9424  222.7775 H   0  0  0  0  0  0  0  0  0  0  0  0
  140.6160   79.1060  221.6122 H   0  0  0  0  0  0  0  0  0  0  0  0
  139.2940   78.2890  223.0900 C   0  0  0  0  0  0  0  0  0  0  0  0
  139.5492   77.8614  224.0708 H   0  0  0  0  0  0  0  0  0  0  0  0
  139.0472   79.3585  223.1628 H   0  0  0  0  0  0  0  0  0  0  0  0
  138.0550   77.5650  222.5470 C   0  0  0  0  0  0  0  0  0  0  0  0
  137.2327   77.6609  223.2713 H   0  0  0  0  0  0  0  0  0  0  0  0
  137.7683   78.0195  221.5872 H   0  0  0  0  0  0  0  0  0  0  0  0
  138.3600   76.0770  222.3220 C   0  0  0  0  0  0  0  0  0  0  0  0
  138.3488   75.5592  223.2925 H   0  0  0  0  0  0  0  0  0  0  0  0
  137.5929   75.6655  221.6495 H   0  0  0  0  0  0  0  0  0  0  0  0
  140.9800   74.1940  220.5160 N   0  0  0  0  0  0  0  0  0  0  0  0
  141.1980   74.9030  219.7840 H   0  0  0  0  0  0  0  0  0  0  0  0
  141.5000   72.9310  220.4420 C   0  0  0  0  0  0  0  0  0  0  0  0
  142.2410   72.5490  219.4420 N   0  0  0  0  0  0  0  0  0  0  0  0
  143.6800   72.7830  219.2960 C   0  0  0  0  0  0  0  0  0  0  0  0
  143.8806   72.3343  218.3119 H   0  0  0  0  0  0  0  0  0  0  0  0
  144.0710   74.2310  219.5720 C   0  0  0  0  0  0  0  0  0  0  0  0
  144.6998   74.6834  218.7910 H   0  0  0  0  0  0  0  0  0  0  0  0
  143.3000   75.0121  219.6461 H   0  0  0  0  0  0  0  0  0  0  0  0
  144.8390   73.7860  220.8080 C   0  0  0  0  0  0  0  0  0  0  0  0
  145.9215   73.9739  220.7551 H   0  0  0  0  0  0  0  0  0  0  0  0
  144.6305   74.2441  221.7861 H   0  0  0  0  0  0  0  0  0  0  0  0
  144.4460   72.3400  220.5370 C   0  0  0  0  0  0  0  0  0  0  0  0
  145.2966   71.6750  220.3265 H   0  0  0  0  0  0  0  0  0  0  0  0
  143.9488   71.7423  221.3152 H   0  0  0  0  0  0  0  0  0  0  0  0
  141.2510   72.0470  221.4410 N   0  0  0  0  0  0  0  0  0  0  0  0
  139.1430   70.4860  223.4300 C   0  0  0  0  0  0  0  0  0  0  0  0
  139.0723   70.1835  222.3748 H   0  0  0  0  0  0  0  0  0  0  0  0
  138.2156   70.9723  223.7667 H   0  0  0  0  0  0  0  0  0  0  0  0
  139.3620   69.2390  224.2880 C   0  0  0  0  0  0  0  0  0  0  0  0
  140.2031   68.6603  223.8785 H   0  0  0  0  0  0  0  0  0  0  0  0
  138.4446   68.6321  224.2764 H   0  0  0  0  0  0  0  0  0  0  0  0
  1  2  1  0
  2  3  2  0
  3  4  1  0
  3  5  1  0
  5  6  1  0
  5  7  2  0
  7  8  1  0
  8  9  2  0
  9 10  1  0
  8 11  1  0
 11 12  1  0
 11 13  1  0
 11 14  1  0
 14 15  1  0
 15 16  1  0
 16 17  2  0
 17 18  1  0
 18 19  1  0
 19 20  1  0
 19 21  1  0
 19 22  1  0
 22 23  1  0
 22 24  1  0
 22 25  1  0
 25 26  1  0
 25 27  1  0
 25 28  1  0
 28 29  1  0
 28 30  1  0
 28 31  1  0
 31 32  1  0
 31 33  1  0
 17 34  1  0
 34 35  1  0
 34 36  1  0
 36 37  2  0
 37 38  1  0
 38 39  1  0
 38 40  1  0
 40 41  1  0
 40 42  1  0
 40 43  1  0
 43 44  1  0
 43 45  1  0
 43 46  1  0
 46 47  1  0
 46 48  1  0
 36 49  1  0
 14 50  1  0
 50 51  1  0
 50 52  1  0
 50 53  1  0
 53 54  1  0
 53 55  1  0
  9  2  1  0
 49 15  2  0
 53  7  1  0
 31 18  1  0
 46 38  1  0
M  END
>  <UniqueID>  (4) 
483

>  <SMILES>  (4) 
c1ccc2c(c1)CCN(c1nc(N3CCCCC3)[nH]/c(=N\C3CCC3)n1)C2

>  <Energy>  (4) 
122.77454658265788

>  <Genealogy>  (4) 
c1ccc2c(c1)CCN(c1nc(N3CCCCC3)[nH]c(=NC3CCC3)n1)C2 (tautomer)
c1ccc2c(c1)CCN(c1nc(N3CCCCC3)[nH]/c(=N\C3CCC3)n1)C2 (cis-trans isomerization)
c1ccc2c(c1)CCN(c1nc(N3CCCCC3)[nH]/c(=N\C3CCC3)n1)C2 (3D coordinates assigned)
c1ccc2c(c1)CCN(c1nc(N3CCCCC3)[nH]/c(=N\C3CCC3)n1)C2 (nonaromatic ring conformer: 122.77454658265788 kcal/mol)

>  <smiles>  (4) 
c1ccc2c(c1)CCN(c1nc(NC3CCC3)nc(N3CCCCC3)n1)C2

>  <score_type>  (4) 
oracle

>  <origin>  (4) 
autodockgpu

>  <m_score__min__energy>  (4) 
-7.6799999999999997

>  <m_primary>  (4) 
energy

>  <meeko>  (4) 
{"free_energy": -7.53, "intermolecular_energy": -8.73, "internal_energy": -0.99, "cluster_size": 17, "cluster_id": 1, "rank_in_cluster": 17}

>  <energy>  (4) 
-7.67

>  <cluster_rmsd>  (4) 
0.39

>  <rmsd>  (4) 
269.78

>  <cluster>  (4) 
1

$$$$
JGFXCGHACWUNAV-OYOSFLFPNA-N
     RDKit          3D

 55 59  0  0  0  0  0  0  0  0999 V2000
  140.4405   70.5164  229.3622 H   0  0  0  0  0  0  0  0  0  0  0  0
  140.2150   70.2620  228.3160 C   0  0  0  0  0  0  0  0  0  0  0  0
  139.3970   69.1700  228.0270 C   0  0  0  0  0  0  0  0  0  0  0  0
  138.9769   68.5660  228.8447 H   0  0  0  0  0  0  0  0  0  0  0  0
  139.1110   68.8430  226.6990 C   0  0  0  0  0  0  0  0  0  0  0  0
  138.4764   67.9738  226.4714 H   0  0  0  0  0  0  0  0  0  0  0  0
  139.6330   69.6230  225.6550 C   0  0  0  0  0  0  0  0  0  0  0  0
  140.4540   70.7250  225.9440 C   0  0  0  0  0  0  0  0  0  0  0  0
  140.7490   71.0340  227.2810 C   0  0  0  0  0  0  0  0  0  0  0  0
  141.4030   71.8870  227.5149 H   0  0  0  0  0  0  0  0  0  0  0  0
  141.0700   71.5320  224.8280 C   0  0  0  0  0  0  0  0  0  0  0  0
  142.0732   71.1322  224.6187 H   0  0  0  0  0  0  0  0  0  0  0  0
  141.1069   72.5797  225.1611 H   0  0  0  0  0  0  0  0  0  0  0  0
  140.2780   71.4920  223.5820 N   0  0  0  0  0  0  0  0  0  0  0  0
  140.5660   72.4570  222.5490 C   0  0  0  0  0  0  0  0  0  0  0  0
  139.9970   73.6890  222.5810 N   0  0  0  0  0  0  0  0  0  0  0  0
  140.2540   74.6020  221.6100 C   0  0  0  0  0  0  0  0  0  0  0  0
  139.6540   75.9090  221.6880 N   0  0  0  0  0  0  0  0  0  0  0  0
  140.3430   77.1000  221.1720 C   0  0  0  0  0  0  0  0  0  0  0  0
  141.3774   76.8348  220.9080 H   0  0  0  0  0  0  0  0  0  0  0  0
  139.8084   77.4650  220.2826 H   0  0  0  0  0  0  0  0  0  0  0  0
  140.3600   78.2100  222.2350 C   0  0  0  0  0  0  0  0  0  0  0  0
  141.2030   78.0268  222.9175 H   0  0  0  0  0  0  0  0  0  0  0  0
  140.4572   79.1682  221.7036 H   0  0  0  0  0  0  0  0  0  0  0  0
  139.0610   78.2790  223.0680 C   0  0  0  0  0  0  0  0  0  0  0  0
  139.2587   77.8529  224.0627 H   0  0  0  0  0  0  0  0  0  0  0  0
  138.7626   79.3361  223.1278 H   0  0  0  0  0  0  0  0  0  0  0  0
  137.9000   77.5080  222.4270 C   0  0  0  0  0  0  0  0  0  0  0  0
  137.0215   77.5607  223.0870 H   0  0  0  0  0  0  0  0  0  0  0  0
  137.6670   77.9595  221.4514 H   0  0  0  0  0  0  0  0  0  0  0  0
  138.2870   76.0370  222.2160 C   0  0  0  0  0  0  0  0  0  0  0  0
  138.2252   75.5095  223.1793 H   0  0  0  0  0  0  0  0  0  0  0  0
  137.5922   75.5992  221.4842 H   0  0  0  0  0  0  0  0  0  0  0  0
  141.1150   74.2860  220.6020 N   0  0  0  0  0  0  0  0  0  0  0  0
  141.3540   75.0110  219.8920 H   0  0  0  0  0  0  0  0  0  0  0  0
  141.6940   73.0480  220.5600 C   0  0  0  0  0  0  0  0  0  0  0  0
  142.5230   72.7080  219.6140 N   0  0  0  0  0  0  0  0  0  0  0  0
  143.8920   73.2030  219.4490 C   0  0  0  0  0  0  0  0  0  0  0  0
  143.9260   73.4103  218.3693 H   0  0  0  0  0  0  0  0  0  0  0  0
  144.2460   74.2970  220.4510 C   0  0  0  0  0  0  0  0  0  0  0  0
  144.6869   75.1967  219.9970 H   0  0  0  0  0  0  0  0  0  0  0  0
  143.4606   74.7760  221.0541 H   0  0  0  0  0  0  0  0  0  0  0  0
  145.2610   73.3680  221.1030 C   0  0  0  0  0  0  0  0  0  0  0  0
  146.3011   73.7188  221.0310 H   0  0  0  0  0  0  0  0  0  0  0  0
  145.2186   73.1703  222.1843 H   0  0  0  0  0  0  0  0  0  0  0  0
  144.9050   72.2730  220.1070 C   0  0  0  0  0  0  0  0  0  0  0  0
  145.7356   71.9762  219.4497 H   0  0  0  0  0  0  0  0  0  0  0  0
  144.5999   71.2767  220.4596 H   0  0  0  0  0  0  0  0  0  0  0  0
  141.4110   72.1460  221.5320 N   0  0  0  0  0  0  0  0  0  0  0  0
  139.1780   70.5300  223.3850 C   0  0  0  0  0  0  0  0  0  0  0  0
  139.1383   70.2483  222.3224 H   0  0  0  0  0  0  0  0  0  0  0  0
  138.2424   71.0131  223.7032 H   0  0  0  0  0  0  0  0  0  0  0  0
  139.3670   69.2650  224.2250 C   0  0  0  0  0  0  0  0  0  0  0  0
  140.2188   68.6917  223.8304 H   0  0  0  0  0  0  0  0  0  0  0  0
  138.4488   68.6615  224.1730 H   0  0  0  0  0  0  0  0  0  0  0  0
  1  2  1  0
  2  3  2  0
  3  4  1  0
  3  5  1  0
  5  6  1  0
  5  7  2  0
  7  8  1  0
  8  9  2  0
  9 10  1  0
  8 11  1  0
 11 12  1  0
 11 13  1  0
 11 14  1  0
 14 15  1  0
 15 16  1  0
 16 17  2  0
 17 18  1  0
 18 19  1  0
 19 20  1  0
 19 21  1  0
 19 22  1  0
 22 23  1  0
 22 24  1  0
 22 25  1  0
 25 26  1  0
 25 27  1  0
 25 28  1  0
 28 29  1  0
 28 30  1  0
 28 31  1  0
 31 32  1  0
 31 33  1  0
 17 34  1  0
 34 35  1  0
 34 36  1  0
 36 37  2  0
 37 38  1  0
 38 39  1  0
 38 40  1  0
 40 41  1  0
 40 42  1  0
 40 43  1  0
 43 44  1  0
 43 45  1  0
 43 46  1  0
 46 47  1  0
 46 48  1  0
 36 49  1  0
 14 50  1  0
 50 51  1  0
 50 52  1  0
 50 53  1  0
 53 54  1  0
 53 55  1  0
  9  2  1  0
 49 15  2  0
 53  7  1  0
 31 18  1  0
 46 38  1  0
M  END
>  <UniqueID>  (5) 
483

>  <SMILES>  (5) 
c1ccc2c(c1)CCN(c1nc(N3CCCCC3)[nH]/c(=N\C3CCC3)n1)C2

>  <Energy>  (5) 
122.77454658265788

>  <Genealogy>  (5) 
c1ccc2c(c1)CCN(c1nc(N3CCCCC3)[nH]c(=NC3CCC3)n1)C2 (tautomer)
c1ccc2c(c1)CCN(c1nc(N3CCCCC3)[nH]/c(=N\C3CCC3)n1)C2 (cis-trans isomerization)
c1ccc2c(c1)CCN(c1nc(N3CCCCC3)[nH]/c(=N\C3CCC3)n1)C2 (3D coordinates assigned)
c1ccc2c(c1)CCN(c1nc(N3CCCCC3)[nH]/c(=N\C3CCC3)n1)C2 (nonaromatic ring conformer: 122.77454658265788 kcal/mol)

>  <smiles>  (5) 
c1ccc2c(c1)CCN(c1nc(NC3CCC3)nc(N3CCCCC3)n1)C2

>  <score_type>  (5) 
oracle

>  <origin>  (5) 
autodockgpu

>  <m_score__min__energy>  (5) 
-7.6799999999999997

>  <m_primary>  (5) 
energy

>  <meeko>  (5) 
{"free_energy": -7.65, "intermolecular_energy": -8.84, "internal_energy": -0.93, "cluster_size": 17, "cluster_id": 1, "rank_in_cluster": 9}

>  <energy>  (5) 
-7.67

>  <cluster_rmsd>  (5) 
0.33

>  <rmsd>  (5) 
269.74

>  <cluster>  (5) 
1

$$$$
JGFXCGHACWUNAV-OYOSFLFPNA-N
     RDKit          3D

 55 59  0  0  0  0  0  0  0  0999 V2000
  140.2674   70.6509  229.3847 H   0  0  0  0  0  0  0  0  0  0  0  0
  140.0860   70.3690  228.3370 C   0  0  0  0  0  0  0  0  0  0  0  0
  139.2860   69.2640  228.0420 C   0  0  0  0  0  0  0  0  0  0  0  0
  138.8371   68.6770  228.8569 H   0  0  0  0  0  0  0  0  0  0  0  0
  139.0550   68.9030  226.7120 C   0  0  0  0  0  0  0  0  0  0  0  0
  138.4339   68.0250  226.4809 H   0  0  0  0  0  0  0  0  0  0  0  0
  139.6150   69.6600  225.6700 C   0  0  0  0  0  0  0  0  0  0  0  0
  140.4180   70.7740  225.9650 C   0  0  0  0  0  0  0  0  0  0  0  0
  140.6570   71.1180  227.3050 C   0  0  0  0  0  0  0  0  0  0  0  0
  141.2964   71.9807  227.5434 H   0  0  0  0  0  0  0  0  0  0  0  0
  141.0740   71.5570  224.8550 C   0  0  0  0  0  0  0  0  0  0  0  0
  142.0869   71.1586  224.6961 H   0  0  0  0  0  0  0  0  0  0  0  0
  141.0919   72.6129  225.1630 H   0  0  0  0  0  0  0  0  0  0  0  0
  140.3330   71.4810  223.5800 N   0  0  0  0  0  0  0  0  0  0  0  0
  140.6580   72.4220  222.5350 C   0  0  0  0  0  0  0  0  0  0  0  0
  140.0800   73.6500  222.5120 N   0  0  0  0  0  0  0  0  0  0  0  0
  140.3710   74.5400  221.5290 C   0  0  0  0  0  0  0  0  0  0  0  0
  139.7600   75.8440  221.5500 N   0  0  0  0  0  0  0  0  0  0  0  0
  140.3620   76.9830  220.8440 C   0  0  0  0  0  0  0  0  0  0  0  0
  141.3640   76.7009  220.4885 H   0  0  0  0  0  0  0  0  0  0  0  0
  139.7218   77.2541  219.9916 H   0  0  0  0  0  0  0  0  0  0  0  0
  140.4800   78.1930  221.7850 C   0  0  0  0  0  0  0  0  0  0  0  0
  141.3989   78.0844  222.3798 H   0  0  0  0  0  0  0  0  0  0  0  0
  140.4979   79.0948  221.1554 H   0  0  0  0  0  0  0  0  0  0  0  0
  139.2840   78.3340  222.7520 C   0  0  0  0  0  0  0  0  0  0  0  0
  139.6021   78.0093  223.7537 H   0  0  0  0  0  0  0  0  0  0  0  0
  138.9747   79.3896  222.7435 H   0  0  0  0  0  0  0  0  0  0  0  0
  138.0720   77.4950  222.3270 C   0  0  0  0  0  0  0  0  0  0  0  0
  137.2736   77.6062  223.0754 H   0  0  0  0  0  0  0  0  0  0  0  0
  137.7210   77.8462  221.3454 H   0  0  0  0  0  0  0  0  0  0  0  0
  138.4600   76.0130  222.2170 C   0  0  0  0  0  0  0  0  0  0  0  0
  138.5183   75.5828  223.2277 H   0  0  0  0  0  0  0  0  0  0  0  0
  137.6947   75.4996  221.6164 H   0  0  0  0  0  0  0  0  0  0  0  0
  141.2760   74.2060  220.5660 N   0  0  0  0  0  0  0  0  0  0  0  0
  141.5400   74.9150  219.8500 H   0  0  0  0  0  0  0  0  0  0  0  0
  141.8650   72.9720  220.5800 C   0  0  0  0  0  0  0  0  0  0  0  0
  142.7350   72.6140  219.6800 N   0  0  0  0  0  0  0  0  0  0  0  0
  144.0530   73.2170  219.4670 C   0  0  0  0  0  0  0  0  0  0  0  0
  144.0237   73.4450  218.3913 H   0  0  0  0  0  0  0  0  0  0  0  0
  144.3650   74.3180  220.4760 C   0  0  0  0  0  0  0  0  0  0  0  0
  144.7152   75.2571  220.0227 H   0  0  0  0  0  0  0  0  0  0  0  0
  143.5722   74.7241  221.1214 H   0  0  0  0  0  0  0  0  0  0  0  0
  145.4760   73.4590  221.0650 C   0  0  0  0  0  0  0  0  0  0  0  0
  146.4819   73.8907  220.9568 H   0  0  0  0  0  0  0  0  0  0  0  0
  145.4961   73.2393  222.1427 H   0  0  0  0  0  0  0  0  0  0  0  0
  145.1620   72.3580  220.0620 C   0  0  0  0  0  0  0  0  0  0  0  0
  145.9835   72.1385  219.3642 H   0  0  0  0  0  0  0  0  0  0  0  0
  144.9501   71.3350  220.4062 H   0  0  0  0  0  0  0  0  0  0  0  0
  141.5470   72.0920  221.5620 N   0  0  0  0  0  0  0  0  0  0  0  0
  139.2470   70.5080  223.3620 C   0  0  0  0  0  0  0  0  0  0  0  0
  139.2524   70.1999  222.3060 H   0  0  0  0  0  0  0  0  0  0  0  0
  138.2965   70.9930  223.6292 H   0  0  0  0  0  0  0  0  0  0  0  0
  139.4080   69.2660  224.2400 C   0  0  0  0  0  0  0  0  0  0  0  0
  140.2775   68.6879  223.8940 H   0  0  0  0  0  0  0  0  0  0  0  0
  138.4951   68.6567  224.1666 H   0  0  0  0  0  0  0  0  0  0  0  0
  1  2  1  0
  2  3  2  0
  3  4  1  0
  3  5  1  0
  5  6  1  0
  5  7  2  0
  7  8  1  0
  8  9  2  0
  9 10  1  0
  8 11  1  0
 11 12  1  0
 11 13  1  0
 11 14  1  0
 14 15  1  0
 15 16  1  0
 16 17  2  0
 17 18  1  0
 18 19  1  0
 19 20  1  0
 19 21  1  0
 19 22  1  0
 22 23  1  0
 22 24  1  0
 22 25  1  0
 25 26  1  0
 25 27  1  0
 25 28  1  0
 28 29  1  0
 28 30  1  0
 28 31  1  0
 31 32  1  0
 31 33  1  0
 17 34  1  0
 34 35  1  0
 34 36  1  0
 36 37  2  0
 37 38  1  0
 38 39  1  0
 38 40  1  0
 40 41  1  0
 40 42  1  0
 40 43  1  0
 43 44  1  0
 43 45  1  0
 43 46  1  0
 46 47  1  0
 46 48  1  0
 36 49  1  0
 14 50  1  0
 50 51  1  0
 50 52  1  0
 50 53  1  0
 53 54  1  0
 53 55  1  0
  9  2  1  0
 49 15  2  0
 53  7  1  0
 31 18  1  0
 46 38  1  0
M  END
>  <UniqueID>  (6) 
483

>  <SMILES>  (6) 
c1ccc2c(c1)CCN(c1nc(N3CCCCC3)[nH]/c(=N\C3CCC3)n1)C2

>  <Energy>  (6) 
122.77454658265788

>  <Genealogy>  (6) 
c1ccc2c(c1)CCN(c1nc(N3CCCCC3)[nH]c(=NC3CCC3)n1)C2 (tautomer)
c1ccc2c(c1)CCN(c1nc(N3CCCCC3)[nH]/c(=N\C3CCC3)n1)C2 (cis-trans isomerization)
c1ccc2c(c1)CCN(c1nc(N3CCCCC3)[nH]/c(=N\C3CCC3)n1)C2 (3D coordinates assigned)
c1ccc2c(c1)CCN(c1nc(N3CCCCC3)[nH]/c(=N\C3CCC3)n1)C2 (nonaromatic ring conformer: 122.77454658265788 kcal/mol)

>  <smiles>  (6) 
c1ccc2c(c1)CCN(c1nc(NC3CCC3)nc(N3CCCCC3)n1)C2

>  <score_type>  (6) 
oracle

>  <origin>  (6) 
autodockgpu

>  <m_score__min__energy>  (6) 
-7.6799999999999997

>  <m_primary>  (6) 
energy

>  <meeko>  (6) 
{"free_energy": -7.67, "intermolecular_energy": -8.87, "internal_energy": -0.91, "cluster_size": 17, "cluster_id": 1, "rank_in_cluster": 2}

>  <energy>  (6) 
-7.67

>  <cluster_rmsd>  (6) 
0.38

>  <rmsd>  (6) 
269.78

>  <cluster>  (6) 
1

$$$$
JGFXCGHACWUNAV-OYOSFLFPNA-N
     RDKit          3D

 55 59  0  0  0  0  0  0  0  0999 V2000
  140.3175   70.5587  229.3778 H   0  0  0  0  0  0  0  0  0  0  0  0
  140.1240   70.2930  228.3280 C   0  0  0  0  0  0  0  0  0  0  0  0
  139.3150   69.1970  228.0260 C   0  0  0  0  0  0  0  0  0  0  0  0
  138.8719   68.6002  228.8369 H   0  0  0  0  0  0  0  0  0  0  0  0
  139.0680   68.8580  226.6940 C   0  0  0  0  0  0  0  0  0  0  0  0
  138.4387   67.9876  226.4564 H   0  0  0  0  0  0  0  0  0  0  0  0
  139.6220   69.6270  225.6570 C   0  0  0  0  0  0  0  0  0  0  0  0
  140.4340   70.7310  225.9590 C   0  0  0  0  0  0  0  0  0  0  0  0
  140.6890   71.0540  227.3020 C   0  0  0  0  0  0  0  0  0  0  0  0
  141.3360   71.9093  227.5466 H   0  0  0  0  0  0  0  0  0  0  0  0
  141.0840   71.5260  224.8550 C   0  0  0  0  0  0  0  0  0  0  0  0
  142.0929   71.1240  224.6805 H   0  0  0  0  0  0  0  0  0  0  0  0
  141.1116   72.5771  225.1782 H   0  0  0  0  0  0  0  0  0  0  0  0
  140.3300   71.4730  223.5860 N   0  0  0  0  0  0  0  0  0  0  0  0
  140.6500   72.4270  222.5520 C   0  0  0  0  0  0  0  0  0  0  0  0
  140.0500   73.6450  222.5310 N   0  0  0  0  0  0  0  0  0  0  0  0
  140.3360   74.5480  221.5580 C   0  0  0  0  0  0  0  0  0  0  0  0
  139.7010   75.8400  221.5800 N   0  0  0  0  0  0  0  0  0  0  0  0
  140.3000   76.9990  220.9050 C   0  0  0  0  0  0  0  0  0  0  0  0
  141.3157   76.7397  220.5716 H   0  0  0  0  0  0  0  0  0  0  0  0
  139.6770   77.2704  220.0400 H   0  0  0  0  0  0  0  0  0  0  0  0
  140.3720   78.1980  221.8650 C   0  0  0  0  0  0  0  0  0  0  0  0
  141.2774   78.0975  222.4816 H   0  0  0  0  0  0  0  0  0  0  0  0
  140.3891   79.1084  221.2478 H   0  0  0  0  0  0  0  0  0  0  0  0
  139.1500   78.3050  222.8030 C   0  0  0  0  0  0  0  0  0  0  0  0
  139.4485   77.9725  223.8082 H   0  0  0  0  0  0  0  0  0  0  0  0
  138.8221   79.3550  222.8006 H   0  0  0  0  0  0  0  0  0  0  0  0
  137.9640   77.4500  222.3360 C   0  0  0  0  0  0  0  0  0  0  0  0
  137.1452   77.5364  223.0654 H   0  0  0  0  0  0  0  0  0  0  0  0
  137.6311   77.8084  221.3508 H   0  0  0  0  0  0  0  0  0  0  0  0
  138.3820   75.9770  222.2160 C   0  0  0  0  0  0  0  0  0  0  0  0
  138.4228   75.5341  223.2221 H   0  0  0  0  0  0  0  0  0  0  0  0
  137.6416   75.4586  221.5891 H   0  0  0  0  0  0  0  0  0  0  0  0
  141.2580   74.2370  220.6030 N   0  0  0  0  0  0  0  0  0  0  0  0
  141.5170   74.9550  219.8950 H   0  0  0  0  0  0  0  0  0  0  0  0
  141.8690   73.0140  220.6150 C   0  0  0  0  0  0  0  0  0  0  0  0
  142.7560   72.6780  219.7220 N   0  0  0  0  0  0  0  0  0  0  0  0
  143.9840   73.4120  219.4100 C   0  0  0  0  0  0  0  0  0  0  0  0
  143.7953   73.7313  218.3744 H   0  0  0  0  0  0  0  0  0  0  0  0
  144.3410   74.4420  220.4770 C   0  0  0  0  0  0  0  0  0  0  0  0
  144.5551   75.4451  220.0796 H   0  0  0  0  0  0  0  0  0  0  0  0
  143.6115   74.7167  221.2531 H   0  0  0  0  0  0  0  0  0  0  0  0
  145.5820   73.6370  220.8350 C   0  0  0  0  0  0  0  0  0  0  0  0
  146.5286   74.1648  220.6468 H   0  0  0  0  0  0  0  0  0  0  0  0
  145.7605   73.3249  221.8746 H   0  0  0  0  0  0  0  0  0  0  0  0
  145.2250   72.6060  219.7740 C   0  0  0  0  0  0  0  0  0  0  0  0
  145.9618   72.5241  218.9613 H   0  0  0  0  0  0  0  0  0  0  0  0
  145.1404   71.5415  220.0378 H   0  0  0  0  0  0  0  0  0  0  0  0
  141.5560   72.1210  221.5870 N   0  0  0  0  0  0  0  0  0  0  0  0
  139.2360   70.5100  223.3650 C   0  0  0  0  0  0  0  0  0  0  0  0
  139.2287   70.2172  222.3047 H   0  0  0  0  0  0  0  0  0  0  0  0
  138.2911   70.9966  223.6485 H   0  0  0  0  0  0  0  0  0  0  0  0
  139.3990   69.2540  224.2240 C   0  0  0  0  0  0  0  0  0  0  0  0
  140.2620   68.6763  223.8613 H   0  0  0  0  0  0  0  0  0  0  0  0
  138.4824   68.6503  224.1509 H   0  0  0  0  0  0  0  0  0  0  0  0
  1  2  1  0
  2  3  2  0
  3  4  1  0
  3  5  1  0
  5  6  1  0
  5  7  2  0
  7  8  1  0
  8  9  2  0
  9 10  1  0
  8 11  1  0
 11 12  1  0
 11 13  1  0
 11 14  1  0
 14 15  1  0
 15 16  1  0
 16 17  2  0
 17 18  1  0
 18 19  1  0
 19 20  1  0
 19 21  1  0
 19 22  1  0
 22 23  1  0
 22 24  1  0
 22 25  1  0
 25 26  1  0
 25 27  1  0
 25 28  1  0
 28 29  1  0
 28 30  1  0
 28 31  1  0
 31 32  1  0
 31 33  1  0
 17 34  1  0
 34 35  1  0
 34 36  1  0
 36 37  2  0
 37 38  1  0
 38 39  1  0
 38 40  1  0
 40 41  1  0
 40 42  1  0
 40 43  1  0
 43 44  1  0
 43 45  1  0
 43 46  1  0
 46 47  1  0
 46 48  1  0
 36 49  1  0
 14 50  1  0
 50 51  1  0
 50 52  1  0
 50 53  1  0
 53 54  1  0
 53 55  1  0
  9  2  1  0
 49 15  2  0
 53  7  1  0
 31 18  1  0
 46 38  1  0
M  END
>  <UniqueID>  (7) 
483

>  <SMILES>  (7) 
c1ccc2c(c1)CCN(c1nc(N3CCCCC3)[nH]/c(=N\C3CCC3)n1)C2

>  <Energy>  (7) 
122.77454658265788

>  <Genealogy>  (7) 
c1ccc2c(c1)CCN(c1nc(N3CCCCC3)[nH]c(=NC3CCC3)n1)C2 (tautomer)
c1ccc2c(c1)CCN(c1nc(N3CCCCC3)[nH]/c(=N\C3CCC3)n1)C2 (cis-trans isomerization)
c1ccc2c(c1)CCN(c1nc(N3CCCCC3)[nH]/c(=N\C3CCC3)n1)C2 (3D coordinates assigned)
c1ccc2c(c1)CCN(c1nc(N3CCCCC3)[nH]/c(=N\C3CCC3)n1)C2 (nonaromatic ring conformer: 122.77454658265788 kcal/mol)

>  <smiles>  (7) 
c1ccc2c(c1)CCN(c1nc(NC3CCC3)nc(N3CCCCC3)n1)C2

>  <score_type>  (7) 
oracle

>  <origin>  (7) 
autodockgpu

>  <m_score__min__energy>  (7) 
-7.6799999999999997

>  <m_primary>  (7) 
energy

>  <meeko>  (7) 
{"free_energy": -7.67, "intermolecular_energy": -8.86, "internal_energy": -0.88, "cluster_size": 17, "cluster_id": 1, "rank_in_cluster": 6}

>  <energy>  (7) 
-7.66

>  <cluster_rmsd>  (7) 
0.41

>  <rmsd>  (7) 
269.76

>  <cluster>  (7) 
1

$$$$
JGFXCGHACWUNAV-OYOSFLFPNA-N
     RDKit          3D

 55 59  0  0  0  0  0  0  0  0999 V2000
  140.3430   70.5833  229.3722 H   0  0  0  0  0  0  0  0  0  0  0  0
  140.1590   70.3050  228.3240 C   0  0  0  0  0  0  0  0  0  0  0  0
  139.3900   69.1790  228.0280 C   0  0  0  0  0  0  0  0  0  0  0  0
  138.9680   68.5717  228.8423 H   0  0  0  0  0  0  0  0  0  0  0  0
  139.1560   68.8230  226.6980 C   0  0  0  0  0  0  0  0  0  0  0  0
  138.5589   67.9289  226.4656 H   0  0  0  0  0  0  0  0  0  0  0  0
  139.6820   69.6050  225.6570 C   0  0  0  0  0  0  0  0  0  0  0  0
  140.4530   70.7400  225.9520 C   0  0  0  0  0  0  0  0  0  0  0  0
  140.6960   71.0800  227.2930 C   0  0  0  0  0  0  0  0  0  0  0  0
  141.3114   71.9598  227.5323 H   0  0  0  0  0  0  0  0  0  0  0  0
  141.0740   71.5520  224.8430 C   0  0  0  0  0  0  0  0  0  0  0  0
  142.0968   71.1859  224.6705 H   0  0  0  0  0  0  0  0  0  0  0  0
  141.0639   72.6053  225.1600 H   0  0  0  0  0  0  0  0  0  0  0  0
  140.3220   71.4640  223.5750 N   0  0  0  0  0  0  0  0  0  0  0  0
  140.6080   72.4230  222.5350 C   0  0  0  0  0  0  0  0  0  0  0  0
  140.0240   73.6490  222.5520 N   0  0  0  0  0  0  0  0  0  0  0  0
  140.2780   74.5570  221.5740 C   0  0  0  0  0  0  0  0  0  0  0  0
  139.6630   75.8570  221.6370 N   0  0  0  0  0  0  0  0  0  0  0  0
  140.3140   77.0410  221.0600 C   0  0  0  0  0  0  0  0  0  0  0  0
  141.3412   76.7818  220.7639 H   0  0  0  0  0  0  0  0  0  0  0  0
  139.7399   77.3719  220.1820 H   0  0  0  0  0  0  0  0  0  0  0  0
  140.3560   78.1830  222.0880 C   0  0  0  0  0  0  0  0  0  0  0  0
  141.2265   78.0313  222.7432 H   0  0  0  0  0  0  0  0  0  0  0  0
  140.4205   79.1260  221.5253 H   0  0  0  0  0  0  0  0  0  0  0  0
  139.0880   78.2600  222.9670 C   0  0  0  0  0  0  0  0  0  0  0  0
  139.3288   77.8669  223.9657 H   0  0  0  0  0  0  0  0  0  0  0  0
  138.7770   79.3144  223.0062 H   0  0  0  0  0  0  0  0  0  0  0  0
  137.9150   77.4550  222.3940 C   0  0  0  0  0  0  0  0  0  0  0  0
  137.0612   77.5165  223.0848 H   0  0  0  0  0  0  0  0  0  0  0  0
  137.6391   77.8733  221.4148 H   0  0  0  0  0  0  0  0  0  0  0  0
  138.3150   75.9830  222.2130 C   0  0  0  0  0  0  0  0  0  0  0  0
  138.2974   75.4847  223.1935 H   0  0  0  0  0  0  0  0  0  0  0  0
  137.5994   75.5135  221.5220 H   0  0  0  0  0  0  0  0  0  0  0  0
  141.1500   74.2420  220.5760 N   0  0  0  0  0  0  0  0  0  0  0  0
  141.3870   74.9630  219.8620 H   0  0  0  0  0  0  0  0  0  0  0  0
  141.7440   73.0100  220.5490 C   0  0  0  0  0  0  0  0  0  0  0  0
  142.5840   72.6710  219.6130 N   0  0  0  0  0  0  0  0  0  0  0  0
  143.9260   73.2250  219.4170 C   0  0  0  0  0  0  0  0  0  0  0  0
  143.9174   73.4576  218.3419 H   0  0  0  0  0  0  0  0  0  0  0  0
  144.2680   74.3100  220.4340 C   0  0  0  0  0  0  0  0  0  0  0  0
  144.6588   75.2367  219.9884 H   0  0  0  0  0  0  0  0  0  0  0  0
  143.4838   74.7436  221.0719 H   0  0  0  0  0  0  0  0  0  0  0  0
  145.3380   73.4080  221.0320 C   0  0  0  0  0  0  0  0  0  0  0  0
  146.3607   73.8018  220.9370 H   0  0  0  0  0  0  0  0  0  0  0  0
  145.3369   73.1842  222.1090 H   0  0  0  0  0  0  0  0  0  0  0  0
  144.9950   72.3230  220.0220 C   0  0  0  0  0  0  0  0  0  0  0  0
  145.8159   72.0749  219.3331 H   0  0  0  0  0  0  0  0  0  0  0  0
  144.7408   71.3076  220.3601 H   0  0  0  0  0  0  0  0  0  0  0  0
  141.4640   72.1130  221.5270 N   0  0  0  0  0  0  0  0  0  0  0  0
  139.2640   70.4600  223.3600 C   0  0  0  0  0  0  0  0  0  0  0  0
  139.2671   70.1614  222.3013 H   0  0  0  0  0  0  0  0  0  0  0  0
  138.3021   70.9131  223.6418 H   0  0  0  0  0  0  0  0  0  0  0  0
  139.4730   69.2160  224.2250 C   0  0  0  0  0  0  0  0  0  0  0  0
  140.3568   68.6687  223.8653 H   0  0  0  0  0  0  0  0  0  0  0  0
  138.5794   68.5783  224.1551 H   0  0  0  0  0  0  0  0  0  0  0  0
  1  2  1  0
  2  3  2  0
  3  4  1  0
  3  5  1  0
  5  6  1  0
  5  7  2  0
  7  8  1  0
  8  9  2  0
  9 10  1  0
  8 11  1  0
 11 12  1  0
 11 13  1  0
 11 14  1  0
 14 15  1  0
 15 16  1  0
 16 17  2  0
 17 18  1  0
 18 19  1  0
 19 20  1  0
 19 21  1  0
 19 22  1  0
 22 23  1  0
 22 24  1  0
 22 25  1  0
 25 26  1  0
 25 27  1  0
 25 28  1  0
 28 29  1  0
 28 30  1  0
 28 31  1  0
 31 32  1  0
 31 33  1  0
 17 34  1  0
 34 35  1  0
 34 36  1  0
 36 37  2  0
 37 38  1  0
 38 39  1  0
 38 40  1  0
 40 41  1  0
 40 42  1  0
 40 43  1  0
 43 44  1  0
 43 45  1  0
 43 46  1  0
 46 47  1  0
 46 48  1  0
 36 49  1  0
 14 50  1  0
 50 51  1  0
 50 52  1  0
 50 53  1  0
 53 54  1  0
 53 55  1  0
  9  2  1  0
 49 15  2  0
 53  7  1  0
 31 18  1  0
 46 38  1  0
M  END
>  <UniqueID>  (8) 
483

>  <SMILES>  (8) 
c1ccc2c(c1)CCN(c1nc(N3CCCCC3)[nH]/c(=N\C3CCC3)n1)C2

>  <Energy>  (8) 
122.77454658265788

>  <Genealogy>  (8) 
c1ccc2c(c1)CCN(c1nc(N3CCCCC3)[nH]c(=NC3CCC3)n1)C2 (tautomer)
c1ccc2c(c1)CCN(c1nc(N3CCCCC3)[nH]/c(=N\C3CCC3)n1)C2 (cis-trans isomerization)
c1ccc2c(c1)CCN(c1nc(N3CCCCC3)[nH]/c(=N\C3CCC3)n1)C2 (3D coordinates assigned)
c1ccc2c(c1)CCN(c1nc(N3CCCCC3)[nH]/c(=N\C3CCC3)n1)C2 (nonaromatic ring conformer: 122.77454658265788 kcal/mol)

>  <smiles>  (8) 
c1ccc2c(c1)CCN(c1nc(NC3CCC3)nc(N3CCCCC3)n1)C2

>  <score_type>  (8) 
oracle

>  <origin>  (8) 
autodockgpu

>  <m_score__min__energy>  (8) 
-7.6799999999999997

>  <m_primary>  (8) 
energy

>  <meeko>  (8) 
{"free_energy": -7.66, "intermolecular_energy": -8.85, "internal_energy": -0.92, "cluster_size": 17, "cluster_id": 1, "rank_in_cluster": 8}

>  <energy>  (8) 
-7.66

>  <cluster_rmsd>  (8) 
0.39

>  <rmsd>  (8) 
269.77

>  <cluster>  (8) 
1

$$$$
JGFXCGHACWUNAV-OYOSFLFPNA-N
     RDKit          3D

 55 59  0  0  0  0  0  0  0  0999 V2000
  140.5368   70.6369  229.3665 H   0  0  0  0  0  0  0  0  0  0  0  0
  140.2980   70.3530  228.3310 C   0  0  0  0  0  0  0  0  0  0  0  0
  139.4930   69.2400  228.0820 C   0  0  0  0  0  0  0  0  0  0  0  0
  139.0972   68.6487  228.9209 H   0  0  0  0  0  0  0  0  0  0  0  0
  139.1900   68.8770  226.7670 C   0  0  0  0  0  0  0  0  0  0  0  0
  138.5647   67.9935  226.5712 H   0  0  0  0  0  0  0  0  0  0  0  0
  139.6830   69.6390  225.6950 C   0  0  0  0  0  0  0  0  0  0  0  0
  140.4890   70.7610  225.9440 C   0  0  0  0  0  0  0  0  0  0  0  0
  140.8010   71.1070  227.2680 C   0  0  0  0  0  0  0  0  0  0  0  0
  141.4446   71.9760  227.4696 H   0  0  0  0  0  0  0  0  0  0  0  0
  141.0730   71.5500  224.7990 C   0  0  0  0  0  0  0  0  0  0  0  0
  142.0793   71.1619  224.5830 H   0  0  0  0  0  0  0  0  0  0  0  0
  141.0975   72.6061  225.1056 H   0  0  0  0  0  0  0  0  0  0  0  0
  140.2620   71.4660  223.5680 N   0  0  0  0  0  0  0  0  0  0  0  0
  140.5170   72.4100  222.5070 C   0  0  0  0  0  0  0  0  0  0  0  0
  140.0030   73.6650  222.5650 N   0  0  0  0  0  0  0  0  0  0  0  0
  140.2280   74.5590  221.5680 C   0  0  0  0  0  0  0  0  0  0  0  0
  139.6900   75.8900  221.6740 N   0  0  0  0  0  0  0  0  0  0  0  0
  140.3740   77.0430  221.0730 C   0  0  0  0  0  0  0  0  0  0  0  0
  141.3686   76.7316  220.7212 H   0  0  0  0  0  0  0  0  0  0  0  0
  139.7741   77.4141  220.2290 H   0  0  0  0  0  0  0  0  0  0  0  0
  140.5320   78.1700  222.1070 C   0  0  0  0  0  0  0  0  0  0  0  0
  141.4258   77.9641  222.7142 H   0  0  0  0  0  0  0  0  0  0  0  0
  140.6185   79.1142  221.5494 H   0  0  0  0  0  0  0  0  0  0  0  0
  139.3180   78.3060  223.0520 C   0  0  0  0  0  0  0  0  0  0  0  0
  139.5887   77.8895  224.0334 H   0  0  0  0  0  0  0  0  0  0  0  0
  139.0676   79.3752  223.1161 H   0  0  0  0  0  0  0  0  0  0  0  0
  138.0740   77.5720  222.5350 C   0  0  0  0  0  0  0  0  0  0  0  0
  137.2621   77.6719  223.2704 H   0  0  0  0  0  0  0  0  0  0  0  0
  137.7704   78.0155  221.5753 H   0  0  0  0  0  0  0  0  0  0  0  0
  138.3830   76.0830  222.3210 C   0  0  0  0  0  0  0  0  0  0  0  0
  138.3891   75.5756  223.2970 H   0  0  0  0  0  0  0  0  0  0  0  0
  137.6078   75.6611  221.6645 H   0  0  0  0  0  0  0  0  0  0  0  0
  141.0040   74.2000  220.5070 N   0  0  0  0  0  0  0  0  0  0  0  0
  141.2230   74.9080  219.7750 H   0  0  0  0  0  0  0  0  0  0  0  0
  141.5280   72.9380  220.4380 C   0  0  0  0  0  0  0  0  0  0  0  0
  142.2740   72.5560  219.4420 N   0  0  0  0  0  0  0  0  0  0  0  0
  143.7060   72.8220  219.2860 C   0  0  0  0  0  0  0  0  0  0  0  0
  143.8941   72.4432  218.2706 H   0  0  0  0  0  0  0  0  0  0  0  0
  144.0810   74.2550  219.6520 C   0  0  0  0  0  0  0  0  0  0  0  0
  144.6879   74.7687  218.8919 H   0  0  0  0  0  0  0  0  0  0  0  0
  143.3000   75.0168  219.7925 H   0  0  0  0  0  0  0  0  0  0  0  0
  144.8790   73.7410  220.8410 C   0  0  0  0  0  0  0  0  0  0  0  0
  145.9574   73.9494  220.7813 H   0  0  0  0  0  0  0  0  0  0  0  0
  144.6828   74.1292  221.8514 H   0  0  0  0  0  0  0  0  0  0  0  0
  144.5020   72.3100  220.4800 C   0  0  0  0  0  0  0  0  0  0  0  0
  145.3582   71.6744  220.2099 H   0  0  0  0  0  0  0  0  0  0  0  0
  144.0285   71.6538  221.2251 H   0  0  0  0  0  0  0  0  0  0  0  0
  141.2760   72.0560  221.4370 N   0  0  0  0  0  0  0  0  0  0  0  0
  139.1750   70.4820  223.4120 C   0  0  0  0  0  0  0  0  0  0  0  0
  139.1230   70.1738  222.3573 H   0  0  0  0  0  0  0  0  0  0  0  0
  138.2364   70.9573  223.7331 H   0  0  0  0  0  0  0  0  0  0  0  0
  139.3990   69.2420  224.2790 C   0  0  0  0  0  0  0  0  0  0  0  0
  140.2535   68.6730  223.8838 H   0  0  0  0  0  0  0  0  0  0  0  0
  138.4901   68.6228  224.2576 H   0  0  0  0  0  0  0  0  0  0  0  0
  1  2  1  0
  2  3  2  0
  3  4  1  0
  3  5  1  0
  5  6  1  0
  5  7  2  0
  7  8  1  0
  8  9  2  0
  9 10  1  0
  8 11  1  0
 11 12  1  0
 11 13  1  0
 11 14  1  0
 14 15  1  0
 15 16  1  0
 16 17  2  0
 17 18  1  0
 18 19  1  0
 19 20  1  0
 19 21  1  0
 19 22  1  0
 22 23  1  0
 22 24  1  0
 22 25  1  0
 25 26  1  0
 25 27  1  0
 25 28  1  0
 28 29  1  0
 28 30  1  0
 28 31  1  0
 31 32  1  0
 31 33  1  0
 17 34  1  0
 34 35  1  0
 34 36  1  0
 36 37  2  0
 37 38  1  0
 38 39  1  0
 38 40  1  0
 40 41  1  0
 40 42  1  0
 40 43  1  0
 43 44  1  0
 43 45  1  0
 43 46  1  0
 46 47  1  0
 46 48  1  0
 36 49  1  0
 14 50  1  0
 50 51  1  0
 50 52  1  0
 50 53  1  0
 53 54  1  0
 53 55  1  0
  9  2  1  0
 49 15  2  0
 53  7  1  0
 31 18  1  0
 46 38  1  0
M  END
>  <UniqueID>  (9) 
483

>  <SMILES>  (9) 
c1ccc2c(c1)CCN(c1nc(N3CCCCC3)[nH]/c(=N\C3CCC3)n1)C2

>  <Energy>  (9) 
122.77454658265788

>  <Genealogy>  (9) 
c1ccc2c(c1)CCN(c1nc(N3CCCCC3)[nH]c(=NC3CCC3)n1)C2 (tautomer)
c1ccc2c(c1)CCN(c1nc(N3CCCCC3)[nH]/c(=N\C3CCC3)n1)C2 (cis-trans isomerization)
c1ccc2c(c1)CCN(c1nc(N3CCCCC3)[nH]/c(=N\C3CCC3)n1)C2 (3D coordinates assigned)
c1ccc2c(c1)CCN(c1nc(N3CCCCC3)[nH]/c(=N\C3CCC3)n1)C2 (nonaromatic ring conformer: 122.77454658265788 kcal/mol)

>  <smiles>  (9) 
c1ccc2c(c1)CCN(c1nc(NC3CCC3)nc(N3CCCCC3)n1)C2

>  <score_type>  (9) 
oracle

>  <origin>  (9) 
autodockgpu

>  <m_score__min__energy>  (9) 
-7.6799999999999997

>  <m_primary>  (9) 
energy

>  <meeko>  (9) 
{"free_energy": -7.53, "intermolecular_energy": -8.73, "internal_energy": -0.98, "cluster_size": 17, "cluster_id": 1, "rank_in_cluster": 16}

>  <energy>  (9) 
-7.65

>  <cluster_rmsd>  (9) 
0.43

>  <rmsd>  (9) 
269.78

>  <cluster>  (9) 
1

$$$$
JGFXCGHACWUNAV-OYOSFLFPNA-N
     RDKit          3D

 55 59  0  0  0  0  0  0  0  0999 V2000
  141.9460   80.9318  224.7848 H   0  0  0  0  0  0  0  0  0  0  0  0
  141.8000   80.3860  223.8410 C   0  0  0  0  0  0  0  0  0  0  0  0
  141.8840   81.0650  222.6250 C   0  0  0  0  0  0  0  0  0  0  0  0
  142.0972   82.1440  222.6107 H   0  0  0  0  0  0  0  0  0  0  0  0
  141.6970   80.3730  221.4250 C   0  0  0  0  0  0  0  0  0  0  0  0
  141.7513   80.9105  220.4668 H   0  0  0  0  0  0  0  0  0  0  0  0
  141.4400   78.9930  221.4410 C   0  0  0  0  0  0  0  0  0  0  0  0
  141.3580   78.3080  222.6640 C   0  0  0  0  0  0  0  0  0  0  0  0
  141.5310   79.0150  223.8640 C   0  0  0  0  0  0  0  0  0  0  0  0
  141.4545   78.4878  224.8264 H   0  0  0  0  0  0  0  0  0  0  0  0
  141.0220   76.8380  222.6950 C   0  0  0  0  0  0  0  0  0  0  0  0
  139.9353   76.7295  222.8265 H   0  0  0  0  0  0  0  0  0  0  0  0
  141.5832   76.3897  223.5281 H   0  0  0  0  0  0  0  0  0  0  0  0
  141.4200   76.1290  221.4620 N   0  0  0  0  0  0  0  0  0  0  0  0
  141.4550   74.6870  221.4750 C   0  0  0  0  0  0  0  0  0  0  0  0
  140.6370   73.9880  222.3030 N   0  0  0  0  0  0  0  0  0  0  0  0
  140.6670   72.6300  222.3300 C   0  0  0  0  0  0  0  0  0  0  0  0
  139.7680   71.9190  223.2010 N   0  0  0  0  0  0  0  0  0  0  0  0
  140.1710   71.5190  224.5570 C   0  0  0  0  0  0  0  0  0  0  0  0
  141.2490   71.6982  224.6828 H   0  0  0  0  0  0  0  0  0  0  0  0
  139.6023   72.1118  225.2886 H   0  0  0  0  0  0  0  0  0  0  0  0
  139.8750   70.0270  224.7840 C   0  0  0  0  0  0  0  0  0  0  0  0
  140.7078   69.4392  224.3705 H   0  0  0  0  0  0  0  0  0  0  0  0
  139.7608   69.8792  225.8680 H   0  0  0  0  0  0  0  0  0  0  0  0
  138.5640   69.5550  224.1180 C   0  0  0  0  0  0  0  0  0  0  0  0
  138.8162   68.9737  223.2188 H   0  0  0  0  0  0  0  0  0  0  0  0
  138.0175   68.9494  224.8559 H   0  0  0  0  0  0  0  0  0  0  0  0
  137.6510   70.7190  223.7090 C   0  0  0  0  0  0  0  0  0  0  0  0
  136.7584   70.3198  223.2052 H   0  0  0  0  0  0  0  0  0  0  0  0
  137.3583   71.2768  224.6108 H   0  0  0  0  0  0  0  0  0  0  0  0
  138.3890   71.6680  222.7540 C   0  0  0  0  0  0  0  0  0  0  0  0
  138.4150   71.2166  221.7512 H   0  0  0  0  0  0  0  0  0  0  0  0
  137.8517   72.6277  222.7381 H   0  0  0  0  0  0  0  0  0  0  0  0
  141.5110   71.9600  221.4970 N   0  0  0  0  0  0  0  0  0  0  0  0
  141.4870   70.9180  221.4790 H   0  0  0  0  0  0  0  0  0  0  0  0
  142.3390   72.6540  220.6580 C   0  0  0  0  0  0  0  0  0  0  0  0
  143.1590   72.0510  219.8460 N   0  0  0  0  0  0  0  0  0  0  0  0
  144.6210   72.1390  219.8740 C   0  0  0  0  0  0  0  0  0  0  0  0
  144.9119   71.1367  219.5264 H   0  0  0  0  0  0  0  0  0  0  0  0
  145.1490   73.3800  219.1620 C   0  0  0  0  0  0  0  0  0  0  0  0
  145.9444   73.1743  218.4306 H   0  0  0  0  0  0  0  0  0  0  0  0
  144.4840   73.9841  218.5273 H   0  0  0  0  0  0  0  0  0  0  0  0
  145.6520   73.9250  220.4910 C   0  0  0  0  0  0  0  0  0  0  0  0
  146.7448   74.0384  220.5443 H   0  0  0  0  0  0  0  0  0  0  0  0
  145.3561   74.9299  220.8266 H   0  0  0  0  0  0  0  0  0  0  0  0
  145.1210   72.6900  221.2040 C   0  0  0  0  0  0  0  0  0  0  0  0
  145.8999   72.0764  221.6802 H   0  0  0  0  0  0  0  0  0  0  0  0
  144.4354   72.7913  222.0582 H   0  0  0  0  0  0  0  0  0  0  0  0
  142.3040   74.0100  220.6580 N   0  0  0  0  0  0  0  0  0  0  0  0
  141.8260   76.8500  220.2410 C   0  0  0  0  0  0  0  0  0  0  0  0
  141.5072   76.2694  219.3627 H   0  0  0  0  0  0  0  0  0  0  0  0
  142.9194   76.9684  220.2630 H   0  0  0  0  0  0  0  0  0  0  0  0
  141.2000   78.2440  220.1660 C   0  0  0  0  0  0  0  0  0  0  0  0
  140.1168   78.1466  220.0012 H   0  0  0  0  0  0  0  0  0  0  0  0
  141.6603   78.7978  219.3345 H   0  0  0  0  0  0  0  0  0  0  0  0
  1  2  1  0
  2  3  2  0
  3  4  1  0
  3  5  1  0
  5  6  1  0
  5  7  2  0
  7  8  1  0
  8  9  2  0
  9 10  1  0
  8 11  1  0
 11 12  1  0
 11 13  1  0
 11 14  1  0
 14 15  1  0
 15 16  1  0
 16 17  2  0
 17 18  1  0
 18 19  1  0
 19 20  1  0
 19 21  1  0
 19 22  1  0
 22 23  1  0
 22 24  1  0
 22 25  1  0
 25 26  1  0
 25 27  1  0
 25 28  1  0
 28 29  1  0
 28 30  1  0
 28 31  1  0
 31 32  1  0
 31 33  1  0
 17 34  1  0
 34 35  1  0
 34 36  1  0
 36 37  2  0
 37 38  1  0
 38 39  1  0
 38 40  1  0
 40 41  1  0
 40 42  1  0
 40 43  1  0
 43 44  1  0
 43 45  1  0
 43 46  1  0
 46 47  1  0
 46 48  1  0
 36 49  1  0
 14 50  1  0
 50 51  1  0
 50 52  1  0
 50 53  1  0
 53 54  1  0
 53 55  1  0
  9  2  1  0
 49 15  2  0
 53  7  1  0
 31 18  1  0
 46 38  1  0
M  END
>  <UniqueID>  (10) 
483

>  <SMILES>  (10) 
c1ccc2c(c1)CCN(c1nc(N3CCCCC3)[nH]/c(=N\C3CCC3)n1)C2

>  <Energy>  (10) 
122.77454658265788

>  <Genealogy>  (10) 
c1ccc2c(c1)CCN(c1nc(N3CCCCC3)[nH]c(=NC3CCC3)n1)C2 (tautomer)
c1ccc2c(c1)CCN(c1nc(N3CCCCC3)[nH]/c(=N\C3CCC3)n1)C2 (cis-trans isomerization)
c1ccc2c(c1)CCN(c1nc(N3CCCCC3)[nH]/c(=N\C3CCC3)n1)C2 (3D coordinates assigned)
c1ccc2c(c1)CCN(c1nc(N3CCCCC3)[nH]/c(=N\C3CCC3)n1)C2 (nonaromatic ring conformer: 122.77454658265788 kcal/mol)

>  <smiles>  (10) 
c1ccc2c(c1)CCN(c1nc(NC3CCC3)nc(N3CCCCC3)n1)C2

>  <score_type>  (10) 
oracle

>  <origin>  (10) 
autodockgpu

>  <m_score__min__energy>  (10) 
-7.6799999999999997

>  <m_primary>  (10) 
energy

>  <meeko>  (10) 
{"free_energy": -7.41, "intermolecular_energy": -8.6, "internal_energy": -0.98, "cluster_size": 3, "cluster_id": 2, "rank_in_cluster": 2}

>  <energy>  (10) 
-7.65

>  <cluster_rmsd>  (10) 
0.41

>  <rmsd>  (10) 
269.79

>  <cluster>  (10) 
1

$$$$
JGFXCGHACWUNAV-OYOSFLFPNA-N
     RDKit          3D

 55 59  0  0  0  0  0  0  0  0999 V2000
  140.3910   70.5479  229.3695 H   0  0  0  0  0  0  0  0  0  0  0  0
  140.1820   70.2850  228.3220 C   0  0  0  0  0  0  0  0  0  0  0  0
  139.3770   69.1830  228.0280 C   0  0  0  0  0  0  0  0  0  0  0  0
  138.9515   68.5794  228.8432 H   0  0  0  0  0  0  0  0  0  0  0  0
  139.1120   68.8470  226.6980 C   0  0  0  0  0  0  0  0  0  0  0  0
  138.4872   67.9717  226.4667 H   0  0  0  0  0  0  0  0  0  0  0  0
  139.6420   69.6250  225.6560 C   0  0  0  0  0  0  0  0  0  0  0  0
  140.4500   70.7350  225.9500 C   0  0  0  0  0  0  0  0  0  0  0  0
  140.7230   71.0550  227.2890 C   0  0  0  0  0  0  0  0  0  0  0  0
  141.3656   71.9157  227.5263 H   0  0  0  0  0  0  0  0  0  0  0  0
  141.0740   71.5400  224.8380 C   0  0  0  0  0  0  0  0  0  0  0  0
  142.0834   71.1476  224.6451 H   0  0  0  0  0  0  0  0  0  0  0  0
  141.0969   72.5900  225.1651 H   0  0  0  0  0  0  0  0  0  0  0  0
  140.3000   71.4860  223.5810 N   0  0  0  0  0  0  0  0  0  0  0  0
  140.5940   72.4470  222.5460 C   0  0  0  0  0  0  0  0  0  0  0  0
  140.0250   73.6790  222.5710 N   0  0  0  0  0  0  0  0  0  0  0  0
  140.2880   74.5890  221.5970 C   0  0  0  0  0  0  0  0  0  0  0  0
  139.6880   75.8960  221.6680 N   0  0  0  0  0  0  0  0  0  0  0  0
  140.3610   77.0780  221.1130 C   0  0  0  0  0  0  0  0  0  0  0  0
  141.3888   76.8096  220.8274 H   0  0  0  0  0  0  0  0  0  0  0  0
  139.8031   77.4259  220.2311 H   0  0  0  0  0  0  0  0  0  0  0  0
  140.4030   78.2070  222.1550 C   0  0  0  0  0  0  0  0  0  0  0  0
  141.2632   78.0370  222.8192 H   0  0  0  0  0  0  0  0  0  0  0  0
  140.4851   79.1554  221.6039 H   0  0  0  0  0  0  0  0  0  0  0  0
  139.1260   78.2900  223.0190 C   0  0  0  0  0  0  0  0  0  0  0  0
  139.3493   77.8822  224.0159 H   0  0  0  0  0  0  0  0  0  0  0  0
  138.8278   79.3477  223.0675 H   0  0  0  0  0  0  0  0  0  0  0  0
  137.9500   77.5060  222.4210 C   0  0  0  0  0  0  0  0  0  0  0  0
  137.0882   77.5697  223.1017 H   0  0  0  0  0  0  0  0  0  0  0  0
  137.6919   77.9395  221.4435 H   0  0  0  0  0  0  0  0  0  0  0  0
  138.3340   76.0320  222.2270 C   0  0  0  0  0  0  0  0  0  0  0  0
  138.2966   75.5219  223.2008 H   0  0  0  0  0  0  0  0  0  0  0  0
  137.6222   75.5803  221.5204 H   0  0  0  0  0  0  0  0  0  0  0  0
  141.1550   74.2690  220.5950 N   0  0  0  0  0  0  0  0  0  0  0  0
  141.3980   74.9910  219.8850 H   0  0  0  0  0  0  0  0  0  0  0  0
  141.7340   73.0310  220.5610 C   0  0  0  0  0  0  0  0  0  0  0  0
  142.5680   72.6870  219.6220 N   0  0  0  0  0  0  0  0  0  0  0  0
  143.9170   73.2240  219.4280 C   0  0  0  0  0  0  0  0  0  0  0  0
  143.9259   73.4191  218.3455 H   0  0  0  0  0  0  0  0  0  0  0  0
  144.2520   74.3410  220.4120 C   0  0  0  0  0  0  0  0  0  0  0  0
  144.6557   75.2492  219.9407 H   0  0  0  0  0  0  0  0  0  0  0  0
  143.4618   74.8015  221.0232 H   0  0  0  0  0  0  0  0  0  0  0  0
  145.3070   73.4530  221.0560 C   0  0  0  0  0  0  0  0  0  0  0  0
  146.3337   73.8366  220.9624 H   0  0  0  0  0  0  0  0  0  0  0  0
  145.2888   73.2663  222.1399 H   0  0  0  0  0  0  0  0  0  0  0  0
  144.9710   72.3360  220.0790 C   0  0  0  0  0  0  0  0  0  0  0  0
  145.7999   72.0590  219.4110 H   0  0  0  0  0  0  0  0  0  0  0  0
  144.7050   71.3344  220.4479 H   0  0  0  0  0  0  0  0  0  0  0  0
  141.4450   72.1320  221.5350 N   0  0  0  0  0  0  0  0  0  0  0  0
  139.2110   70.5130  223.3750 C   0  0  0  0  0  0  0  0  0  0  0  0
  139.1885   70.2243  222.3138 H   0  0  0  0  0  0  0  0  0  0  0  0
  138.2670   70.9900  223.6771 H   0  0  0  0  0  0  0  0  0  0  0  0
  139.3990   69.2560  224.2250 C   0  0  0  0  0  0  0  0  0  0  0  0
  140.2611   68.6876  223.8458 H   0  0  0  0  0  0  0  0  0  0  0  0
  138.4867   68.6444  224.1642 H   0  0  0  0  0  0  0  0  0  0  0  0
  1  2  1  0
  2  3  2  0
  3  4  1  0
  3  5  1  0
  5  6  1  0
  5  7  2  0
  7  8  1  0
  8  9  2  0
  9 10  1  0
  8 11  1  0
 11 12  1  0
 11 13  1  0
 11 14  1  0
 14 15  1  0
 15 16  1  0
 16 17  2  0
 17 18  1  0
 18 19  1  0
 19 20  1  0
 19 21  1  0
 19 22  1  0
 22 23  1  0
 22 24  1  0
 22 25  1  0
 25 26  1  0
 25 27  1  0
 25 28  1  0
 28 29  1  0
 28 30  1  0
 28 31  1  0
 31 32  1  0
 31 33  1  0
 17 34  1  0
 34 35  1  0
 34 36  1  0
 36 37  2  0
 37 38  1  0
 38 39  1  0
 38 40  1  0
 40 41  1  0
 40 42  1  0
 40 43  1  0
 43 44  1  0
 43 45  1  0
 43 46  1  0
 46 47  1  0
 46 48  1  0
 36 49  1  0
 14 50  1  0
 50 51  1  0
 50 52  1  0
 50 53  1  0
 53 54  1  0
 53 55  1  0
  9  2  1  0
 49 15  2  0
 53  7  1  0
 31 18  1  0
 46 38  1  0
M  END
>  <UniqueID>  (11) 
483

>  <SMILES>  (11) 
c1ccc2c(c1)CCN(c1nc(N3CCCCC3)[nH]/c(=N\C3CCC3)n1)C2

>  <Energy>  (11) 
122.77454658265788

>  <Genealogy>  (11) 
c1ccc2c(c1)CCN(c1nc(N3CCCCC3)[nH]c(=NC3CCC3)n1)C2 (tautomer)
c1ccc2c(c1)CCN(c1nc(N3CCCCC3)[nH]/c(=N\C3CCC3)n1)C2 (cis-trans isomerization)
c1ccc2c(c1)CCN(c1nc(N3CCCCC3)[nH]/c(=N\C3CCC3)n1)C2 (3D coordinates assigned)
c1ccc2c(c1)CCN(c1nc(N3CCCCC3)[nH]/c(=N\C3CCC3)n1)C2 (nonaromatic ring conformer: 122.77454658265788 kcal/mol)

>  <smiles>  (11) 
c1ccc2c(c1)CCN(c1nc(NC3CCC3)nc(N3CCCCC3)n1)C2

>  <score_type>  (11) 
oracle

>  <origin>  (11) 
autodockgpu

>  <m_score__min__energy>  (11) 
-7.6799999999999997

>  <m_primary>  (11) 
energy

>  <meeko>  (11) 
{"free_energy": -7.65, "intermolecular_energy": -8.84, "internal_energy": -0.92, "cluster_size": 17, "cluster_id": 1, "rank_in_cluster": 10}

>  <energy>  (11) 
-7.64

>  <cluster_rmsd>  (11) 
0.39

>  <rmsd>  (11) 
269.75

>  <cluster>  (11) 
1

$$$$
JGFXCGHACWUNAV-OYOSFLFPNA-N
     RDKit          3D

 55 59  0  0  0  0  0  0  0  0999 V2000
  140.5045   70.6044  229.3628 H   0  0  0  0  0  0  0  0  0  0  0  0
  140.2670   70.3240  228.3260 C   0  0  0  0  0  0  0  0  0  0  0  0
  139.4520   69.2200  228.0730 C   0  0  0  0  0  0  0  0  0  0  0  0
  139.0478   68.6320  228.9102 H   0  0  0  0  0  0  0  0  0  0  0  0
  139.1490   68.8610  226.7580 C   0  0  0  0  0  0  0  0  0  0  0  0
  138.5152   67.9840  226.5598 H   0  0  0  0  0  0  0  0  0  0  0  0
  139.6530   69.6190  225.6880 C   0  0  0  0  0  0  0  0  0  0  0  0
  140.4710   70.7320  225.9400 C   0  0  0  0  0  0  0  0  0  0  0  0
  140.7820   71.0740  227.2660 C   0  0  0  0  0  0  0  0  0  0  0  0
  141.4339   71.9360  227.4708 H   0  0  0  0  0  0  0  0  0  0  0  0
  141.0660   71.5170  224.7980 C   0  0  0  0  0  0  0  0  0  0  0  0
  142.0692   71.1194  224.5845 H   0  0  0  0  0  0  0  0  0  0  0  0
  141.0996   72.5723  225.1065 H   0  0  0  0  0  0  0  0  0  0  0  0
  140.2580   71.4430  223.5640 N   0  0  0  0  0  0  0  0  0  0  0  0
  140.5260   72.3850  222.5050 C   0  0  0  0  0  0  0  0  0  0  0  0
  140.0140   73.6410  222.5570 N   0  0  0  0  0  0  0  0  0  0  0  0
  140.2530   74.5340  221.5610 C   0  0  0  0  0  0  0  0  0  0  0  0
  139.7170   75.8660  221.6610 N   0  0  0  0  0  0  0  0  0  0  0  0
  140.4270   77.0220  221.0950 C   0  0  0  0  0  0  0  0  0  0  0  0
  141.4321   76.7094  220.7755 H   0  0  0  0  0  0  0  0  0  0  0  0
  139.8589   77.4036  220.2338 H   0  0  0  0  0  0  0  0  0  0  0  0
  140.5530   78.1380  222.1440 C   0  0  0  0  0  0  0  0  0  0  0  0
  141.4243   77.9226  222.7799 H   0  0  0  0  0  0  0  0  0  0  0  0
  140.6623   79.0869  221.5984 H   0  0  0  0  0  0  0  0  0  0  0  0
  139.3070   78.2710  223.0480 C   0  0  0  0  0  0  0  0  0  0  0  0
  139.5413   77.8437  224.0342 H   0  0  0  0  0  0  0  0  0  0  0  0
  139.0593   79.3407  223.1147 H   0  0  0  0  0  0  0  0  0  0  0  0
  138.0800   77.5480  222.4800 C   0  0  0  0  0  0  0  0  0  0  0  0
  137.2427   77.6451  223.1867 H   0  0  0  0  0  0  0  0  0  0  0  0
  137.8137   78.0018  221.5140 H   0  0  0  0  0  0  0  0  0  0  0  0
  138.3890   76.0600  222.2630 C   0  0  0  0  0  0  0  0  0  0  0  0
  138.3580   75.5435  223.2337 H   0  0  0  0  0  0  0  0  0  0  0  0
  137.6356   75.6484  221.5753 H   0  0  0  0  0  0  0  0  0  0  0  0
  141.0380   74.1710  220.5080 N   0  0  0  0  0  0  0  0  0  0  0  0
  141.2660   74.8790  219.7780 H   0  0  0  0  0  0  0  0  0  0  0  0
  141.5590   72.9090  220.4460 C   0  0  0  0  0  0  0  0  0  0  0  0
  142.3140   72.5240  219.4570 N   0  0  0  0  0  0  0  0  0  0  0  0
  143.7340   72.8390  219.2840 C   0  0  0  0  0  0  0  0  0  0  0  0
  143.9144   72.4978  218.2539 H   0  0  0  0  0  0  0  0  0  0  0  0
  144.0720   74.2710  219.6880 C   0  0  0  0  0  0  0  0  0  0  0  0
  144.6481   74.8267  218.9335 H   0  0  0  0  0  0  0  0  0  0  0  0
  143.2711   75.0036  219.8668 H   0  0  0  0  0  0  0  0  0  0  0  0
  144.9080   73.7450  220.8450 C   0  0  0  0  0  0  0  0  0  0  0  0
  145.9783   73.9883  220.7718 H   0  0  0  0  0  0  0  0  0  0  0  0
  144.7195   74.0955  221.8705 H   0  0  0  0  0  0  0  0  0  0  0  0
  144.5680   72.3150  220.4470 C   0  0  0  0  0  0  0  0  0  0  0  0
  145.4377   71.7147  220.1417 H   0  0  0  0  0  0  0  0  0  0  0  0
  144.1291   71.6219  221.1798 H   0  0  0  0  0  0  0  0  0  0  0  0
  141.2950   72.0280  221.4430 N   0  0  0  0  0  0  0  0  0  0  0  0
  139.1610   70.4700  223.4040 C   0  0  0  0  0  0  0  0  0  0  0  0
  139.1089   70.1634  222.3489 H   0  0  0  0  0  0  0  0  0  0  0  0
  138.2267   70.9549  223.7233 H   0  0  0  0  0  0  0  0  0  0  0  0
  139.3690   69.2270  224.2700 C   0  0  0  0  0  0  0  0  0  0  0  0
  140.2185   68.6494  223.8767 H   0  0  0  0  0  0  0  0  0  0  0  0
  138.4534   68.6178  224.2451 H   0  0  0  0  0  0  0  0  0  0  0  0
  1  2  1  0
  2  3  2  0
  3  4  1  0
  3  5  1  0
  5  6  1  0
  5  7  2  0
  7  8  1  0
  8  9  2  0
  9 10  1  0
  8 11  1  0
 11 12  1  0
 11 13  1  0
 11 14  1  0
 14 15  1  0
 15 16  1  0
 16 17  2  0
 17 18  1  0
 18 19  1  0
 19 20  1  0
 19 21  1  0
 19 22  1  0
 22 23  1  0
 22 24  1  0
 22 25  1  0
 25 26  1  0
 25 27  1  0
 25 28  1  0
 28 29  1  0
 28 30  1  0
 28 31  1  0
 31 32  1  0
 31 33  1  0
 17 34  1  0
 34 35  1  0
 34 36  1  0
 36 37  2  0
 37 38  1  0
 38 39  1  0
 38 40  1  0
 40 41  1  0
 40 42  1  0
 40 43  1  0
 43 44  1  0
 43 45  1  0
 43 46  1  0
 46 47  1  0
 46 48  1  0
 36 49  1  0
 14 50  1  0
 50 51  1  0
 50 52  1  0
 50 53  1  0
 53 54  1  0
 53 55  1  0
  9  2  1  0
 49 15  2  0
 53  7  1  0
 31 18  1  0
 46 38  1  0
M  END
>  <UniqueID>  (12) 
483

>  <SMILES>  (12) 
c1ccc2c(c1)CCN(c1nc(N3CCCCC3)[nH]/c(=N\C3CCC3)n1)C2

>  <Energy>  (12) 
122.77454658265788

>  <Genealogy>  (12) 
c1ccc2c(c1)CCN(c1nc(N3CCCCC3)[nH]c(=NC3CCC3)n1)C2 (tautomer)
c1ccc2c(c1)CCN(c1nc(N3CCCCC3)[nH]/c(=N\C3CCC3)n1)C2 (cis-trans isomerization)
c1ccc2c(c1)CCN(c1nc(N3CCCCC3)[nH]/c(=N\C3CCC3)n1)C2 (3D coordinates assigned)
c1ccc2c(c1)CCN(c1nc(N3CCCCC3)[nH]/c(=N\C3CCC3)n1)C2 (nonaromatic ring conformer: 122.77454658265788 kcal/mol)

>  <smiles>  (12) 
c1ccc2c(c1)CCN(c1nc(NC3CCC3)nc(N3CCCCC3)n1)C2

>  <score_type>  (12) 
oracle

>  <origin>  (12) 
autodockgpu

>  <m_score__min__energy>  (12) 
-7.6799999999999997

>  <m_primary>  (12) 
energy

>  <meeko>  (12) 
{"free_energy": -7.54, "intermolecular_energy": -8.73, "internal_energy": -0.97, "cluster_size": 17, "cluster_id": 1, "rank_in_cluster": 14}

>  <energy>  (12) 
-7.64

>  <cluster_rmsd>  (12) 
0.4

>  <rmsd>  (12) 
269.8

>  <cluster>  (12) 
1

$$$$
JGFXCGHACWUNAV-OYOSFLFPNA-N
     RDKit          3D

 55 59  0  0  0  0  0  0  0  0999 V2000
  141.9916   80.9378  224.7477 H   0  0  0  0  0  0  0  0  0  0  0  0
  141.8440   80.3870  223.8070 C   0  0  0  0  0  0  0  0  0  0  0  0
  141.9380   81.0570  222.5870 C   0  0  0  0  0  0  0  0  0  0  0  0
  142.1609   82.1340  222.5667 H   0  0  0  0  0  0  0  0  0  0  0  0
  141.7490   80.3600  221.3910 C   0  0  0  0  0  0  0  0  0  0  0  0
  141.8117   80.8910  220.4297 H   0  0  0  0  0  0  0  0  0  0  0  0
  141.4790   78.9820  221.4150 C   0  0  0  0  0  0  0  0  0  0  0  0
  141.3870   78.3060  222.6410 C   0  0  0  0  0  0  0  0  0  0  0  0
  141.5630   79.0190  223.8380 C   0  0  0  0  0  0  0  0  0  0  0  0
  141.4793   78.4984  224.8034 H   0  0  0  0  0  0  0  0  0  0  0  0
  141.0370   76.8390  222.6810 C   0  0  0  0  0  0  0  0  0  0  0  0
  139.9489   76.7413  222.8093 H   0  0  0  0  0  0  0  0  0  0  0  0
  141.5905   76.3908  223.5193 H   0  0  0  0  0  0  0  0  0  0  0  0
  141.4330   76.1190  221.4540 N   0  0  0  0  0  0  0  0  0  0  0  0
  141.4540   74.6760  221.4760 C   0  0  0  0  0  0  0  0  0  0  0  0
  140.6170   73.9900  222.2940 N   0  0  0  0  0  0  0  0  0  0  0  0
  140.6340   72.6320  222.3310 C   0  0  0  0  0  0  0  0  0  0  0  0
  139.7140   71.9340  223.1910 N   0  0  0  0  0  0  0  0  0  0  0  0
  140.1010   71.5130  224.5450 C   0  0  0  0  0  0  0  0  0  0  0  0
  141.1822   71.6664  224.6775 H   0  0  0  0  0  0  0  0  0  0  0  0
  139.5424   72.1121  225.2792 H   0  0  0  0  0  0  0  0  0  0  0  0
  139.7700   70.0270  224.7570 C   0  0  0  0  0  0  0  0  0  0  0  0
  140.5911   69.4240  224.3420 H   0  0  0  0  0  0  0  0  0  0  0  0
  139.6472   69.8723  225.8391 H   0  0  0  0  0  0  0  0  0  0  0  0
  138.4520   69.5910  224.0810 C   0  0  0  0  0  0  0  0  0  0  0  0
  138.6951   69.0124  223.1776 H   0  0  0  0  0  0  0  0  0  0  0  0
  137.8884   68.9911  224.8107 H   0  0  0  0  0  0  0  0  0  0  0  0
  137.5680   70.7790  223.6790 C   0  0  0  0  0  0  0  0  0  0  0  0
  136.6687   70.4050  223.1678 H   0  0  0  0  0  0  0  0  0  0  0  0
  137.2840   71.3352  224.5845 H   0  0  0  0  0  0  0  0  0  0  0  0
  138.3320   71.7190  222.7360 C   0  0  0  0  0  0  0  0  0  0  0  0
  138.3521   71.2761  221.7293 H   0  0  0  0  0  0  0  0  0  0  0  0
  137.8171   72.6910  222.7265 H   0  0  0  0  0  0  0  0  0  0  0  0
  141.4860   71.9490  221.5150 N   0  0  0  0  0  0  0  0  0  0  0  0
  141.4520   70.9080  221.5040 H   0  0  0  0  0  0  0  0  0  0  0  0
  142.3330   72.6310  220.6860 C   0  0  0  0  0  0  0  0  0  0  0  0
  143.1610   72.0160  219.8910 N   0  0  0  0  0  0  0  0  0  0  0  0
  144.6200   72.1420  219.9010 C   0  0  0  0  0  0  0  0  0  0  0  0
  144.9330   71.1437  219.5611 H   0  0  0  0  0  0  0  0  0  0  0  0
  145.1070   73.3880  219.1690 C   0  0  0  0  0  0  0  0  0  0  0  0
  145.8990   73.1947  218.4305 H   0  0  0  0  0  0  0  0  0  0  0  0
  144.4191   73.9673  218.5356 H   0  0  0  0  0  0  0  0  0  0  0  0
  145.6110   73.9610  220.4860 C   0  0  0  0  0  0  0  0  0  0  0  0
  146.7010   74.1037  220.5250 H   0  0  0  0  0  0  0  0  0  0  0  0
  145.2926   74.9615  220.8141 H   0  0  0  0  0  0  0  0  0  0  0  0
  145.1210   72.7200  221.2190 C   0  0  0  0  0  0  0  0  0  0  0  0
  145.9214   72.1322  221.6921 H   0  0  0  0  0  0  0  0  0  0  0  0
  144.4434   72.8126  222.0805 H   0  0  0  0  0  0  0  0  0  0  0  0
  142.3100   73.9870  220.6780 N   0  0  0  0  0  0  0  0  0  0  0  0
  141.8480   76.8280  220.2290 C   0  0  0  0  0  0  0  0  0  0  0  0
  141.5250   76.2449  219.3540 H   0  0  0  0  0  0  0  0  0  0  0  0
  142.9425   76.9358  220.2520 H   0  0  0  0  0  0  0  0  0  0  0  0
  141.2360   78.2270  220.1440 C   0  0  0  0  0  0  0  0  0  0  0  0
  140.1524   78.1389  219.9764 H   0  0  0  0  0  0  0  0  0  0  0  0
  141.7046   78.7712  219.3108 H   0  0  0  0  0  0  0  0  0  0  0  0
  1  2  1  0
  2  3  2  0
  3  4  1  0
  3  5  1  0
  5  6  1  0
  5  7  2  0
  7  8  1  0
  8  9  2  0
  9 10  1  0
  8 11  1  0
 11 12  1  0
 11 13  1  0
 11 14  1  0
 14 15  1  0
 15 16  1  0
 16 17  2  0
 17 18  1  0
 18 19  1  0
 19 20  1  0
 19 21  1  0
 19 22  1  0
 22 23  1  0
 22 24  1  0
 22 25  1  0
 25 26  1  0
 25 27  1  0
 25 28  1  0
 28 29  1  0
 28 30  1  0
 28 31  1  0
 31 32  1  0
 31 33  1  0
 17 34  1  0
 34 35  1  0
 34 36  1  0
 36 37  2  0
 37 38  1  0
 38 39  1  0
 38 40  1  0
 40 41  1  0
 40 42  1  0
 40 43  1  0
 43 44  1  0
 43 45  1  0
 43 46  1  0
 46 47  1  0
 46 48  1  0
 36 49  1  0
 14 50  1  0
 50 51  1  0
 50 52  1  0
 50 53  1  0
 53 54  1  0
 53 55  1  0
  9  2  1  0
 49 15  2  0
 53  7  1  0
 31 18  1  0
 46 38  1  0
M  END
>  <UniqueID>  (13) 
483

>  <SMILES>  (13) 
c1ccc2c(c1)CCN(c1nc(N3CCCCC3)[nH]/c(=N\C3CCC3)n1)C2

>  <Energy>  (13) 
122.77454658265788

>  <Genealogy>  (13) 
c1ccc2c(c1)CCN(c1nc(N3CCCCC3)[nH]c(=NC3CCC3)n1)C2 (tautomer)
c1ccc2c(c1)CCN(c1nc(N3CCCCC3)[nH]/c(=N\C3CCC3)n1)C2 (cis-trans isomerization)
c1ccc2c(c1)CCN(c1nc(N3CCCCC3)[nH]/c(=N\C3CCC3)n1)C2 (3D coordinates assigned)
c1ccc2c(c1)CCN(c1nc(N3CCCCC3)[nH]/c(=N\C3CCC3)n1)C2 (nonaromatic ring conformer: 122.77454658265788 kcal/mol)

>  <smiles>  (13) 
c1ccc2c(c1)CCN(c1nc(NC3CCC3)nc(N3CCCCC3)n1)C2

>  <score_type>  (13) 
oracle

>  <origin>  (13) 
autodockgpu

>  <m_score__min__energy>  (13) 
-7.6799999999999997

>  <m_primary>  (13) 
energy

>  <meeko>  (13) 
{"free_energy": -7.4, "intermolecular_energy": -8.6, "internal_energy": -0.98, "cluster_size": 3, "cluster_id": 2, "rank_in_cluster": 3}

>  <energy>  (13) 
-7.61

>  <cluster_rmsd>  (13) 
0.45

>  <rmsd>  (13) 
269.74

>  <cluster>  (13) 
1

$$$$
JGFXCGHACWUNAV-OYOSFLFPNA-N
     RDKit          3D

 55 59  0  0  0  0  0  0  0  0999 V2000
  140.3800   70.5749  229.3517 H   0  0  0  0  0  0  0  0  0  0  0  0
  140.1510   70.3220  228.3060 C   0  0  0  0  0  0  0  0  0  0  0  0
  139.2940   69.2590  228.0190 C   0  0  0  0  0  0  0  0  0  0  0  0
  138.8467   68.6768  228.8381 H   0  0  0  0  0  0  0  0  0  0  0  0
  139.0040   68.9340  226.6920 C   0  0  0  0  0  0  0  0  0  0  0  0
  138.3387   68.0875  226.4665 H   0  0  0  0  0  0  0  0  0  0  0  0
  139.5610   69.6870  225.6450 C   0  0  0  0  0  0  0  0  0  0  0  0
  140.4210   70.7590  225.9320 C   0  0  0  0  0  0  0  0  0  0  0  0
  140.7190   71.0660  227.2690 C   0  0  0  0  0  0  0  0  0  0  0  0
  141.4026   71.8959  227.5011 H   0  0  0  0  0  0  0  0  0  0  0  0
  141.0730   71.5350  224.8150 C   0  0  0  0  0  0  0  0  0  0  0  0
  142.0623   71.0976  224.6151 H   0  0  0  0  0  0  0  0  0  0  0  0
  141.1459   72.5830  225.1411 H   0  0  0  0  0  0  0  0  0  0  0  0
  140.2880   71.5150  223.5640 N   0  0  0  0  0  0  0  0  0  0  0  0
  140.6180   72.4610  222.5260 C   0  0  0  0  0  0  0  0  0  0  0  0
  140.0330   73.6860  222.5010 N   0  0  0  0  0  0  0  0  0  0  0  0
  140.3290   74.5820  221.5250 C   0  0  0  0  0  0  0  0  0  0  0  0
  139.7110   75.8820  221.5430 N   0  0  0  0  0  0  0  0  0  0  0  0
  140.3580   77.0470  220.9240 C   0  0  0  0  0  0  0  0  0  0  0  0
  141.3856   76.7805  220.6358 H   0  0  0  0  0  0  0  0  0  0  0  0
  139.7819   77.3453  220.0357 H   0  0  0  0  0  0  0  0  0  0  0  0
  140.3980   78.2240  221.9110 C   0  0  0  0  0  0  0  0  0  0  0  0
  141.2703   78.0982  222.5693 H   0  0  0  0  0  0  0  0  0  0  0  0
  140.4580   79.1468  221.3153 H   0  0  0  0  0  0  0  0  0  0  0  0
  139.1310   78.3280  222.7900 C   0  0  0  0  0  0  0  0  0  0  0  0
  139.3746   77.9701  223.8012 H   0  0  0  0  0  0  0  0  0  0  0  0
  138.8170   79.3822  222.7946 H   0  0  0  0  0  0  0  0  0  0  0  0
  137.9600   77.5000  222.2460 C   0  0  0  0  0  0  0  0  0  0  0  0
  137.1064   77.5830  222.9348 H   0  0  0  0  0  0  0  0  0  0  0  0
  137.6825   77.8832  221.2529 H   0  0  0  0  0  0  0  0  0  0  0  0
  138.3640   76.0240  222.1160 C   0  0  0  0  0  0  0  0  0  0  0  0
  138.3492   75.5602  223.1134 H   0  0  0  0  0  0  0  0  0  0  0  0
  137.6488   75.5286  221.4429 H   0  0  0  0  0  0  0  0  0  0  0  0
  141.2460   74.2560  220.5700 N   0  0  0  0  0  0  0  0  0  0  0  0
  141.5140   74.9680  219.8580 H   0  0  0  0  0  0  0  0  0  0  0  0
  141.8420   73.0250  220.5860 C   0  0  0  0  0  0  0  0  0  0  0  0
  142.7230   72.6750  219.6930 N   0  0  0  0  0  0  0  0  0  0  0  0
  143.9790   73.3710  219.4030 C   0  0  0  0  0  0  0  0  0  0  0  0
  143.8523   73.6276  218.3409 H   0  0  0  0  0  0  0  0  0  0  0  0
  144.2960   74.4610  220.4220 C   0  0  0  0  0  0  0  0  0  0  0  0
  144.5493   75.4338  219.9754 H   0  0  0  0  0  0  0  0  0  0  0  0
  143.5304   74.7946  221.1379 H   0  0  0  0  0  0  0  0  0  0  0  0
  145.5020   73.6620  220.8980 C   0  0  0  0  0  0  0  0  0  0  0  0
  146.4667   74.1631  220.7300 H   0  0  0  0  0  0  0  0  0  0  0  0
  145.6185   73.4135  221.9632 H   0  0  0  0  0  0  0  0  0  0  0  0
  145.1840   72.5710  219.8840 C   0  0  0  0  0  0  0  0  0  0  0  0
  145.9620   72.4274  219.1198 H   0  0  0  0  0  0  0  0  0  0  0  0
  145.0659   71.5265  220.2081 H   0  0  0  0  0  0  0  0  0  0  0  0
  141.5190   72.1400  221.5620 N   0  0  0  0  0  0  0  0  0  0  0  0
  139.1530   70.5940  223.3660 C   0  0  0  0  0  0  0  0  0  0  0  0
  139.1091   70.3066  222.3051 H   0  0  0  0  0  0  0  0  0  0  0  0
  138.2340   71.1141  223.6742 H   0  0  0  0  0  0  0  0  0  0  0  0
  139.2900   69.3290  224.2160 C   0  0  0  0  0  0  0  0  0  0  0  0
  140.1221   68.7216  223.8304 H   0  0  0  0  0  0  0  0  0  0  0  0
  138.3502   68.7598  224.1628 H   0  0  0  0  0  0  0  0  0  0  0  0
  1  2  1  0
  2  3  2  0
  3  4  1  0
  3  5  1  0
  5  6  1  0
  5  7  2  0
  7  8  1  0
  8  9  2  0
  9 10  1  0
  8 11  1  0
 11 12  1  0
 11 13  1  0
 11 14  1  0
 14 15  1  0
 15 16  1  0
 16 17  2  0
 17 18  1  0
 18 19  1  0
 19 20  1  0
 19 21  1  0
 19 22  1  0
 22 23  1  0
 22 24  1  0
 22 25  1  0
 25 26  1  0
 25 27  1  0
 25 28  1  0
 28 29  1  0
 28 30  1  0
 28 31  1  0
 31 32  1  0
 31 33  1  0
 17 34  1  0
 34 35  1  0
 34 36  1  0
 36 37  2  0
 37 38  1  0
 38 39  1  0
 38 40  1  0
 40 41  1  0
 40 42  1  0
 40 43  1  0
 43 44  1  0
 43 45  1  0
 43 46  1  0
 46 47  1  0
 46 48  1  0
 36 49  1  0
 14 50  1  0
 50 51  1  0
 50 52  1  0
 50 53  1  0
 53 54  1  0
 53 55  1  0
  9  2  1  0
 49 15  2  0
 53  7  1  0
 31 18  1  0
 46 38  1  0
M  END
>  <UniqueID>  (14) 
483

>  <SMILES>  (14) 
c1ccc2c(c1)CCN(c1nc(N3CCCCC3)[nH]/c(=N\C3CCC3)n1)C2

>  <Energy>  (14) 
122.77454658265788

>  <Genealogy>  (14) 
c1ccc2c(c1)CCN(c1nc(N3CCCCC3)[nH]c(=NC3CCC3)n1)C2 (tautomer)
c1ccc2c(c1)CCN(c1nc(N3CCCCC3)[nH]/c(=N\C3CCC3)n1)C2 (cis-trans isomerization)
c1ccc2c(c1)CCN(c1nc(N3CCCCC3)[nH]/c(=N\C3CCC3)n1)C2 (3D coordinates assigned)
c1ccc2c(c1)CCN(c1nc(N3CCCCC3)[nH]/c(=N\C3CCC3)n1)C2 (nonaromatic ring conformer: 122.77454658265788 kcal/mol)

>  <smiles>  (14) 
c1ccc2c(c1)CCN(c1nc(NC3CCC3)nc(N3CCCCC3)n1)C2

>  <score_type>  (14) 
oracle

>  <origin>  (14) 
autodockgpu

>  <m_score__min__energy>  (14) 
-7.6799999999999997

>  <m_primary>  (14) 
energy

>  <meeko>  (14) 
{"free_energy": -7.66, "intermolecular_energy": -8.85, "internal_energy": -0.89, "cluster_size": 17, "cluster_id": 1, "rank_in_cluster": 7}

>  <energy>  (14) 
-7.54

>  <cluster_rmsd>  (14) 
0.49

>  <rmsd>  (14) 
269.72

>  <cluster>  (14) 
1

$$$$
JGFXCGHACWUNAV-OYOSFLFPNA-N
     RDKit          3D

 55 59  0  0  0  0  0  0  0  0999 V2000
  140.3657   70.5542  229.3674 H   0  0  0  0  0  0  0  0  0  0  0  0
  140.1620   70.2910  228.3190 C   0  0  0  0  0  0  0  0  0  0  0  0
  139.3550   69.1920  228.0220 C   0  0  0  0  0  0  0  0  0  0  0  0
  138.9234   68.5908  228.8358 H   0  0  0  0  0  0  0  0  0  0  0  0
  139.0950   68.8550  226.6910 C   0  0  0  0  0  0  0  0  0  0  0  0
  138.4677   67.9821  226.4576 H   0  0  0  0  0  0  0  0  0  0  0  0
  139.6340   69.6300  225.6510 C   0  0  0  0  0  0  0  0  0  0  0  0
  140.4440   70.7380  225.9480 C   0  0  0  0  0  0  0  0  0  0  0  0
  140.7120   71.0580  227.2890 C   0  0  0  0  0  0  0  0  0  0  0  0
  141.3574   71.9158  227.5292 H   0  0  0  0  0  0  0  0  0  0  0  0
  141.0780   71.5400  224.8390 C   0  0  0  0  0  0  0  0  0  0  0  0
  142.0869   71.1436  224.6521 H   0  0  0  0  0  0  0  0  0  0  0  0
  141.1040   72.5902  225.1651 H   0  0  0  0  0  0  0  0  0  0  0  0
  140.3100   71.4870  223.5780 N   0  0  0  0  0  0  0  0  0  0  0  0
  140.6140   72.4460  222.5440 C   0  0  0  0  0  0  0  0  0  0  0  0
  140.0520   73.6820  222.5660 N   0  0  0  0  0  0  0  0  0  0  0  0
  140.3230   74.5900  221.5930 C   0  0  0  0  0  0  0  0  0  0  0  0
  139.7320   75.9000  221.6620 N   0  0  0  0  0  0  0  0  0  0  0  0
  140.4410   77.0880  221.1660 C   0  0  0  0  0  0  0  0  0  0  0  0
  141.4794   76.8164  220.9254 H   0  0  0  0  0  0  0  0  0  0  0  0
  139.9294   77.4592  220.2657 H   0  0  0  0  0  0  0  0  0  0  0  0
  140.4410   78.1950  222.2320 C   0  0  0  0  0  0  0  0  0  0  0  0
  141.2662   78.0039  222.9338 H   0  0  0  0  0  0  0  0  0  0  0  0
  140.5580   79.1539  221.7059 H   0  0  0  0  0  0  0  0  0  0  0  0
  139.1230   78.2710  223.0340 C   0  0  0  0  0  0  0  0  0  0  0  0
  139.2935   77.8398  224.0315 H   0  0  0  0  0  0  0  0  0  0  0  0
  138.8312   79.3301  223.0909 H   0  0  0  0  0  0  0  0  0  0  0  0
  137.9720   77.5110  222.3620 C   0  0  0  0  0  0  0  0  0  0  0  0
  137.0779   77.5687  223.0002 H   0  0  0  0  0  0  0  0  0  0  0  0
  137.7666   77.9672  221.3823 H   0  0  0  0  0  0  0  0  0  0  0  0
  138.3530   76.0370  222.1560 C   0  0  0  0  0  0  0  0  0  0  0  0
  138.2629   75.5071  223.1158 H   0  0  0  0  0  0  0  0  0  0  0  0
  137.6735   75.6067  221.4056 H   0  0  0  0  0  0  0  0  0  0  0  0
  141.1920   74.2640  220.5940 N   0  0  0  0  0  0  0  0  0  0  0  0
  141.4420   74.9850  219.8850 H   0  0  0  0  0  0  0  0  0  0  0  0
  141.7640   73.0230  220.5620 C   0  0  0  0  0  0  0  0  0  0  0  0
  142.5990   72.6730  219.6260 N   0  0  0  0  0  0  0  0  0  0  0  0
  143.9640   73.1760  219.4580 C   0  0  0  0  0  0  0  0  0  0  0  0
  143.9987   73.3700  218.3758 H   0  0  0  0  0  0  0  0  0  0  0  0
  144.3080   74.2850  220.4460 C   0  0  0  0  0  0  0  0  0  0  0  0
  144.7442   75.1815  219.9812 H   0  0  0  0  0  0  0  0  0  0  0  0
  143.5178   74.7667  221.0406 H   0  0  0  0  0  0  0  0  0  0  0  0
  145.3270   73.3720  221.1130 C   0  0  0  0  0  0  0  0  0  0  0  0
  146.3648   73.7292  221.0399 H   0  0  0  0  0  0  0  0  0  0  0  0
  145.2824   73.1879  222.1966 H   0  0  0  0  0  0  0  0  0  0  0  0
  144.9820   72.2620  220.1300 C   0  0  0  0  0  0  0  0  0  0  0  0
  145.8165   71.9632  219.4786 H   0  0  0  0  0  0  0  0  0  0  0  0
  144.6835   71.2679  220.4942 H   0  0  0  0  0  0  0  0  0  0  0  0
  141.4660   72.1260  221.5350 N   0  0  0  0  0  0  0  0  0  0  0  0
  139.2180   70.5190  223.3660 C   0  0  0  0  0  0  0  0  0  0  0  0
  139.2003   70.2296  222.3049 H   0  0  0  0  0  0  0  0  0  0  0  0
  138.2739   70.9999  223.6617 H   0  0  0  0  0  0  0  0  0  0  0  0
  139.3970   69.2610  224.2190 C   0  0  0  0  0  0  0  0  0  0  0  0
  140.2589   68.6891  223.8448 H   0  0  0  0  0  0  0  0  0  0  0  0
  138.4826   68.6530  224.1540 H   0  0  0  0  0  0  0  0  0  0  0  0
  1  2  1  0
  2  3  2  0
  3  4  1  0
  3  5  1  0
  5  6  1  0
  5  7  2  0
  7  8  1  0
  8  9  2  0
  9 10  1  0
  8 11  1  0
 11 12  1  0
 11 13  1  0
 11 14  1  0
 14 15  1  0
 15 16  1  0
 16 17  2  0
 17 18  1  0
 18 19  1  0
 19 20  1  0
 19 21  1  0
 19 22  1  0
 22 23  1  0
 22 24  1  0
 22 25  1  0
 25 26  1  0
 25 27  1  0
 25 28  1  0
 28 29  1  0
 28 30  1  0
 28 31  1  0
 31 32  1  0
 31 33  1  0
 17 34  1  0
 34 35  1  0
 34 36  1  0
 36 37  2  0
 37 38  1  0
 38 39  1  0
 38 40  1  0
 40 41  1  0
 40 42  1  0
 40 43  1  0
 43 44  1  0
 43 45  1  0
 43 46  1  0
 46 47  1  0
 46 48  1  0
 36 49  1  0
 14 50  1  0
 50 51  1  0
 50 52  1  0
 50 53  1  0
 53 54  1  0
 53 55  1  0
  9  2  1  0
 49 15  2  0
 53  7  1  0
 31 18  1  0
 46 38  1  0
M  END
>  <UniqueID>  (15) 
483

>  <SMILES>  (15) 
c1ccc2c(c1)CCN(c1nc(N3CCCCC3)[nH]/c(=N\C3CCC3)n1)C2

>  <Energy>  (15) 
122.77454658265788

>  <Genealogy>  (15) 
c1ccc2c(c1)CCN(c1nc(N3CCCCC3)[nH]c(=NC3CCC3)n1)C2 (tautomer)
c1ccc2c(c1)CCN(c1nc(N3CCCCC3)[nH]/c(=N\C3CCC3)n1)C2 (cis-trans isomerization)
c1ccc2c(c1)CCN(c1nc(N3CCCCC3)[nH]/c(=N\C3CCC3)n1)C2 (3D coordinates assigned)
c1ccc2c(c1)CCN(c1nc(N3CCCCC3)[nH]/c(=N\C3CCC3)n1)C2 (nonaromatic ring conformer: 122.77454658265788 kcal/mol)

>  <smiles>  (15) 
c1ccc2c(c1)CCN(c1nc(NC3CCC3)nc(N3CCCCC3)n1)C2

>  <score_type>  (15) 
oracle

>  <origin>  (15) 
autodockgpu

>  <m_score__min__energy>  (15) 
-7.6799999999999997

>  <m_primary>  (15) 
energy

>  <meeko>  (15) 
{"free_energy": -7.64, "intermolecular_energy": -8.83, "internal_energy": -0.93, "cluster_size": 17, "cluster_id": 1, "rank_in_cluster": 12}

>  <energy>  (15) 
-7.54

>  <cluster_rmsd>  (15) 
0.49

>  <rmsd>  (15) 
269.72

>  <cluster>  (15) 
1

$$$$
JGFXCGHACWUNAV-OYOSFLFPNA-N
     RDKit          3D

 55 59  0  0  0  0  0  0  0  0999 V2000
  140.5306   70.6118  229.3728 H   0  0  0  0  0  0  0  0  0  0  0  0
  140.2950   70.3260  228.3370 C   0  0  0  0  0  0  0  0  0  0  0  0
  139.4920   69.2130  228.0880 C   0  0  0  0  0  0  0  0  0  0  0  0
  139.0949   68.6226  228.9269 H   0  0  0  0  0  0  0  0  0  0  0  0
  139.1920   68.8480  226.7730 C   0  0  0  0  0  0  0  0  0  0  0  0
  138.5681   67.9635  226.5772 H   0  0  0  0  0  0  0  0  0  0  0  0
  139.6860   69.6090  225.7010 C   0  0  0  0  0  0  0  0  0  0  0  0
  140.4920   70.7310  225.9500 C   0  0  0  0  0  0  0  0  0  0  0  0
  140.8010   71.0790  227.2740 C   0  0  0  0  0  0  0  0  0  0  0  0
  141.4442   71.9482  227.4759 H   0  0  0  0  0  0  0  0  0  0  0  0
  141.0780   71.5190  224.8050 C   0  0  0  0  0  0  0  0  0  0  0  0
  142.0849   71.1311  224.5914 H   0  0  0  0  0  0  0  0  0  0  0  0
  141.1015   72.5755  225.1104 H   0  0  0  0  0  0  0  0  0  0  0  0
  140.2690   71.4330  223.5720 N   0  0  0  0  0  0  0  0  0  0  0  0
  140.5270   72.3750  222.5100 C   0  0  0  0  0  0  0  0  0  0  0  0
  140.0110   73.6300  222.5660 N   0  0  0  0  0  0  0  0  0  0  0  0
  140.2390   74.5230  221.5680 C   0  0  0  0  0  0  0  0  0  0  0  0
  139.6990   75.8540  221.6700 N   0  0  0  0  0  0  0  0  0  0  0  0
  140.4040   77.0120  221.1030 C   0  0  0  0  0  0  0  0  0  0  0  0
  141.4090   76.7025  220.7802 H   0  0  0  0  0  0  0  0  0  0  0  0
  139.8325   77.3929  220.2437 H   0  0  0  0  0  0  0  0  0  0  0  0
  140.5300   78.1270  222.1530 C   0  0  0  0  0  0  0  0  0  0  0  0
  141.4038   77.9131  222.7860 H   0  0  0  0  0  0  0  0  0  0  0  0
  140.6348   79.0768  221.6080 H   0  0  0  0  0  0  0  0  0  0  0  0
  139.2870   78.2560  223.0610 C   0  0  0  0  0  0  0  0  0  0  0  0
  139.5260   77.8292  224.0463 H   0  0  0  0  0  0  0  0  0  0  0  0
  139.0363   79.3249  223.1285 H   0  0  0  0  0  0  0  0  0  0  0  0
  138.0590   77.5290  222.4970 C   0  0  0  0  0  0  0  0  0  0  0  0
  137.2244   77.6222  223.2074 H   0  0  0  0  0  0  0  0  0  0  0  0
  137.7865   77.9831  221.5329 H   0  0  0  0  0  0  0  0  0  0  0  0
  138.3730   76.0420  222.2770 C   0  0  0  0  0  0  0  0  0  0  0  0
  138.3476   75.5242  223.2472 H   0  0  0  0  0  0  0  0  0  0  0  0
  137.6186   75.6282  221.5917 H   0  0  0  0  0  0  0  0  0  0  0  0
  141.0170   74.1620  220.5090 N   0  0  0  0  0  0  0  0  0  0  0  0
  141.2380   74.8700  219.7770 H   0  0  0  0  0  0  0  0  0  0  0  0
  141.5420   72.9010  220.4440 C   0  0  0  0  0  0  0  0  0  0  0  0
  142.2920   72.5180  219.4500 N   0  0  0  0  0  0  0  0  0  0  0  0
  143.7240   72.7830  219.2990 C   0  0  0  0  0  0  0  0  0  0  0  0
  143.9192   72.3848  218.2924 H   0  0  0  0  0  0  0  0  0  0  0  0
  144.0950   74.2230  219.6390 C   0  0  0  0  0  0  0  0  0  0  0  0
  144.7062   74.7224  218.8728 H   0  0  0  0  0  0  0  0  0  0  0  0
  143.3124   74.9866  219.7595 H   0  0  0  0  0  0  0  0  0  0  0  0
  144.8860   73.7330  220.8430 C   0  0  0  0  0  0  0  0  0  0  0  0
  145.9646   73.9415  220.7860 H   0  0  0  0  0  0  0  0  0  0  0  0
  144.6828   74.1406  221.8443 H   0  0  0  0  0  0  0  0  0  0  0  0
  144.5130   72.2950  220.5080 C   0  0  0  0  0  0  0  0  0  0  0  0
  145.3715   71.6552  220.2558 H   0  0  0  0  0  0  0  0  0  0  0  0
  144.0356   71.6528  221.2628 H   0  0  0  0  0  0  0  0  0  0  0  0
  141.2890   72.0200  221.4430 N   0  0  0  0  0  0  0  0  0  0  0  0
  139.1830   70.4480  223.4160 C   0  0  0  0  0  0  0  0  0  0  0  0
  139.1328   70.1383  222.3617 H   0  0  0  0  0  0  0  0  0  0  0  0
  138.2438   70.9233  223.7354 H   0  0  0  0  0  0  0  0  0  0  0  0
  139.4060   69.2090  224.2850 C   0  0  0  0  0  0  0  0  0  0  0  0
  140.2620   68.6403  223.8928 H   0  0  0  0  0  0  0  0  0  0  0  0
  138.4981   68.5884  224.2620 H   0  0  0  0  0  0  0  0  0  0  0  0
  1  2  1  0
  2  3  2  0
  3  4  1  0
  3  5  1  0
  5  6  1  0
  5  7  2  0
  7  8  1  0
  8  9  2  0
  9 10  1  0
  8 11  1  0
 11 12  1  0
 11 13  1  0
 11 14  1  0
 14 15  1  0
 15 16  1  0
 16 17  2  0
 17 18  1  0
 18 19  1  0
 19 20  1  0
 19 21  1  0
 19 22  1  0
 22 23  1  0
 22 24  1  0
 22 25  1  0
 25 26  1  0
 25 27  1  0
 25 28  1  0
 28 29  1  0
 28 30  1  0
 28 31  1  0
 31 32  1  0
 31 33  1  0
 17 34  1  0
 34 35  1  0
 34 36  1  0
 36 37  2  0
 37 38  1  0
 38 39  1  0
 38 40  1  0
 40 41  1  0
 40 42  1  0
 40 43  1  0
 43 44  1  0
 43 45  1  0
 43 46  1  0
 46 47  1  0
 46 48  1  0
 36 49  1  0
 14 50  1  0
 50 51  1  0
 50 52  1  0
 50 53  1  0
 53 54  1  0
 53 55  1  0
  9  2  1  0
 49 15  2  0
 53  7  1  0
 31 18  1  0
 46 38  1  0
M  END
>  <UniqueID>  (16) 
483

>  <SMILES>  (16) 
c1ccc2c(c1)CCN(c1nc(N3CCCCC3)[nH]/c(=N\C3CCC3)n1)C2

>  <Energy>  (16) 
122.77454658265788

>  <Genealogy>  (16) 
c1ccc2c(c1)CCN(c1nc(N3CCCCC3)[nH]c(=NC3CCC3)n1)C2 (tautomer)
c1ccc2c(c1)CCN(c1nc(N3CCCCC3)[nH]/c(=N\C3CCC3)n1)C2 (cis-trans isomerization)
c1ccc2c(c1)CCN(c1nc(N3CCCCC3)[nH]/c(=N\C3CCC3)n1)C2 (3D coordinates assigned)
c1ccc2c(c1)CCN(c1nc(N3CCCCC3)[nH]/c(=N\C3CCC3)n1)C2 (nonaromatic ring conformer: 122.77454658265788 kcal/mol)

>  <smiles>  (16) 
c1ccc2c(c1)CCN(c1nc(NC3CCC3)nc(N3CCCCC3)n1)C2

>  <score_type>  (16) 
oracle

>  <origin>  (16) 
autodockgpu

>  <m_score__min__energy>  (16) 
-7.6799999999999997

>  <m_primary>  (16) 
energy

>  <meeko>  (16) 
{"free_energy": -7.54, "intermolecular_energy": -8.73, "internal_energy": -0.98, "cluster_size": 17, "cluster_id": 1, "rank_in_cluster": 15}

>  <energy>  (16) 
-7.53

>  <cluster_rmsd>  (16) 
0.51

>  <rmsd>  (16) 
269.72

>  <cluster>  (16) 
1

$$$$
JGFXCGHACWUNAV-OYOSFLFPNA-N
     RDKit          3D

 55 59  0  0  0  0  0  0  0  0999 V2000
  140.8348   70.0949  229.3752 H   0  0  0  0  0  0  0  0  0  0  0  0
  140.5270   69.8810  228.3410 C   0  0  0  0  0  0  0  0  0  0  0  0
  139.5880   68.8810  228.0880 C   0  0  0  0  0  0  0  0  0  0  0  0
  139.1548   68.3092  228.9219 H   0  0  0  0  0  0  0  0  0  0  0  0
  139.1980   68.6060  226.7750 C   0  0  0  0  0  0  0  0  0  0  0  0
  138.4661   67.8095  226.5749 H   0  0  0  0  0  0  0  0  0  0  0  0
  139.7390   69.3450  225.7100 C   0  0  0  0  0  0  0  0  0  0  0  0
  140.6810   70.3540  225.9630 C   0  0  0  0  0  0  0  0  0  0  0  0
  141.0780   70.6120  227.2850 C   0  0  0  0  0  0  0  0  0  0  0  0
  141.8255   71.3924  227.4902 H   0  0  0  0  0  0  0  0  0  0  0  0
  141.3130   71.1130  224.8230 C   0  0  0  0  0  0  0  0  0  0  0  0
  142.2583   70.6189  224.5541 H   0  0  0  0  0  0  0  0  0  0  0  0
  141.4729   72.1465  225.1639 H   0  0  0  0  0  0  0  0  0  0  0  0
  140.4540   71.1710  223.6230 N   0  0  0  0  0  0  0  0  0  0  0  0
  140.7820   72.1180  222.5850 C   0  0  0  0  0  0  0  0  0  0  0  0
  140.1890   73.3390  222.5570 N   0  0  0  0  0  0  0  0  0  0  0  0
  140.4820   74.2360  221.5800 C   0  0  0  0  0  0  0  0  0  0  0  0
  139.8550   75.5310  221.5950 N   0  0  0  0  0  0  0  0  0  0  0  0
  140.4190   76.6640  220.8460 C   0  0  0  0  0  0  0  0  0  0  0  0
  141.4124   76.3872  220.4631 H   0  0  0  0  0  0  0  0  0  0  0  0
  139.7476   76.9097  220.0100 H   0  0  0  0  0  0  0  0  0  0  0  0
  140.5520   77.8940  221.7580 C   0  0  0  0  0  0  0  0  0  0  0  0
  141.4916   77.8091  222.3236 H   0  0  0  0  0  0  0  0  0  0  0  0
  140.5366   78.7828  221.1101 H   0  0  0  0  0  0  0  0  0  0  0  0
  139.3870   78.0400  222.7620 C   0  0  0  0  0  0  0  0  0  0  0  0
  139.7427   77.7402  223.7588 H   0  0  0  0  0  0  0  0  0  0  0  0
  139.0635   79.0912  222.7427 H   0  0  0  0  0  0  0  0  0  0  0  0
  138.1730   77.1770  222.3950 C   0  0  0  0  0  0  0  0  0  0  0  0
  137.3985   77.2936  223.1674 H   0  0  0  0  0  0  0  0  0  0  0  0
  137.7852   77.5033  221.4187 H   0  0  0  0  0  0  0  0  0  0  0  0
  138.5760   75.6990  222.3020 C   0  0  0  0  0  0  0  0  0  0  0  0
  138.6736   75.2907  223.3188 H   0  0  0  0  0  0  0  0  0  0  0  0
  137.7976   75.1645  221.7377 H   0  0  0  0  0  0  0  0  0  0  0  0
  141.4040   73.9140  220.6280 N   0  0  0  0  0  0  0  0  0  0  0  0
  141.6690   74.6270  219.9170 H   0  0  0  0  0  0  0  0  0  0  0  0
  142.0070   72.6870  220.6480 C   0  0  0  0  0  0  0  0  0  0  0  0
  142.8940   72.3420  219.7580 N   0  0  0  0  0  0  0  0  0  0  0  0
  144.1560   73.0330  219.4860 C   0  0  0  0  0  0  0  0  0  0  0  0
  144.0674   73.2454  218.4103 H   0  0  0  0  0  0  0  0  0  0  0  0
  144.4300   74.1650  220.4710 C   0  0  0  0  0  0  0  0  0  0  0  0
  144.6942   75.1209  219.9951 H   0  0  0  0  0  0  0  0  0  0  0  0
  143.6373   74.5220  221.1449 H   0  0  0  0  0  0  0  0  0  0  0  0
  145.6210   73.3940  221.0210 C   0  0  0  0  0  0  0  0  0  0  0  0
  146.5886   73.8941  220.8671 H   0  0  0  0  0  0  0  0  0  0  0  0
  145.7000   73.1897  222.0990 H   0  0  0  0  0  0  0  0  0  0  0  0
  145.3460   72.2610  220.0430 C   0  0  0  0  0  0  0  0  0  0  0  0
  146.1522   72.0909  219.3142 H   0  0  0  0  0  0  0  0  0  0  0  0
  145.2212   71.2299  220.4054 H   0  0  0  0  0  0  0  0  0  0  0  0
  141.6880   71.8010  221.6240 N   0  0  0  0  0  0  0  0  0  0  0  0
  139.2530   70.3280  223.4780 C   0  0  0  0  0  0  0  0  0  0  0  0
  139.1269   70.0681  222.4166 H   0  0  0  0  0  0  0  0  0  0  0  0
  138.3894   70.8975  223.8519 H   0  0  0  0  0  0  0  0  0  0  0  0
  139.3600   69.0380  224.2940 C   0  0  0  0  0  0  0  0  0  0  0  0
  140.1268   68.3887  223.8464 H   0  0  0  0  0  0  0  0  0  0  0  0
  138.3841   68.5305  224.2882 H   0  0  0  0  0  0  0  0  0  0  0  0
  1  2  1  0
  2  3  2  0
  3  4  1  0
  3  5  1  0
  5  6  1  0
  5  7  2  0
  7  8  1  0
  8  9  2  0
  9 10  1  0
  8 11  1  0
 11 12  1  0
 11 13  1  0
 11 14  1  0
 14 15  1  0
 15 16  1  0
 16 17  2  0
 17 18  1  0
 18 19  1  0
 19 20  1  0
 19 21  1  0
 19 22  1  0
 22 23  1  0
 22 24  1  0
 22 25  1  0
 25 26  1  0
 25 27  1  0
 25 28  1  0
 28 29  1  0
 28 30  1  0
 28 31  1  0
 31 32  1  0
 31 33  1  0
 17 34  1  0
 34 35  1  0
 34 36  1  0
 36 37  2  0
 37 38  1  0
 38 39  1  0
 38 40  1  0
 40 41  1  0
 40 42  1  0
 40 43  1  0
 43 44  1  0
 43 45  1  0
 43 46  1  0
 46 47  1  0
 46 48  1  0
 36 49  1  0
 14 50  1  0
 50 51  1  0
 50 52  1  0
 50 53  1  0
 53 54  1  0
 53 55  1  0
  9  2  1  0
 49 15  2  0
 53  7  1  0
 31 18  1  0
 46 38  1  0
M  END
>  <UniqueID>  (17) 
483

>  <SMILES>  (17) 
c1ccc2c(c1)CCN(c1nc(N3CCCCC3)[nH]/c(=N\C3CCC3)n1)C2

>  <Energy>  (17) 
122.77454658265788

>  <Genealogy>  (17) 
c1ccc2c(c1)CCN(c1nc(N3CCCCC3)[nH]c(=NC3CCC3)n1)C2 (tautomer)
c1ccc2c(c1)CCN(c1nc(N3CCCCC3)[nH]/c(=N\C3CCC3)n1)C2 (cis-trans isomerization)
c1ccc2c(c1)CCN(c1nc(N3CCCCC3)[nH]/c(=N\C3CCC3)n1)C2 (3D coordinates assigned)
c1ccc2c(c1)CCN(c1nc(N3CCCCC3)[nH]/c(=N\C3CCC3)n1)C2 (nonaromatic ring conformer: 122.77454658265788 kcal/mol)

>  <smiles>  (17) 
c1ccc2c(c1)CCN(c1nc(NC3CCC3)nc(N3CCCCC3)n1)C2

>  <score_type>  (17) 
oracle

>  <origin>  (17) 
autodockgpu

>  <m_score__min__energy>  (17) 
-7.6799999999999997

>  <m_primary>  (17) 
energy

>  <meeko>  (17) 
{"free_energy": -7.68, "intermolecular_energy": -8.88, "internal_energy": -0.89, "cluster_size": 17, "cluster_id": 1, "rank_in_cluster": 1}

>  <energy>  (17) 
-7.53

>  <cluster_rmsd>  (17) 
0.52

>  <rmsd>  (17) 
269.72

>  <cluster>  (17) 
1

$$$$
JGFXCGHACWUNAV-OYOSFLFPNA-N
     RDKit          3D

 55 59  0  0  0  0  0  0  0  0999 V2000
  142.0563   81.3628  224.7794 H   0  0  0  0  0  0  0  0  0  0  0  0
  141.8240   80.8380  223.8410 C   0  0  0  0  0  0  0  0  0  0  0  0
  141.7330   81.5550  222.6470 C   0  0  0  0  0  0  0  0  0  0  0  0
  141.8950   82.6430  222.6446 H   0  0  0  0  0  0  0  0  0  0  0  0
  141.4360   80.8900  221.4550 C   0  0  0  0  0  0  0  0  0  0  0  0
  141.3532   81.4567  220.5158 H   0  0  0  0  0  0  0  0  0  0  0  0
  141.2430   79.4990  221.4540 C   0  0  0  0  0  0  0  0  0  0  0  0
  141.3380   78.7760  222.6530 C   0  0  0  0  0  0  0  0  0  0  0  0
  141.6210   79.4560  223.8480 C   0  0  0  0  0  0  0  0  0  0  0  0
  141.6832   78.8981  224.7940 H   0  0  0  0  0  0  0  0  0  0  0  0
  141.0730   77.2910  222.6730 C   0  0  0  0  0  0  0  0  0  0  0  0
  140.0154   77.1269  222.9271 H   0  0  0  0  0  0  0  0  0  0  0  0
  141.7479   76.8460  223.4190 H   0  0  0  0  0  0  0  0  0  0  0  0
  141.3530   76.6380  221.3780 N   0  0  0  0  0  0  0  0  0  0  0  0
  141.4530   75.1990  221.3370 C   0  0  0  0  0  0  0  0  0  0  0  0
  140.5680   74.4300  222.0210 N   0  0  0  0  0  0  0  0  0  0  0  0
  140.6560   73.0750  221.9980 C   0  0  0  0  0  0  0  0  0  0  0  0
  139.6850   72.2880  222.7130 N   0  0  0  0  0  0  0  0  0  0  0  0
  140.0430   71.5560  223.9360 C   0  0  0  0  0  0  0  0  0  0  0  0
  141.1342   71.5869  224.0710 H   0  0  0  0  0  0  0  0  0  0  0  0
  139.5433   72.0282  224.7947 H   0  0  0  0  0  0  0  0  0  0  0  0
  139.5860   70.0920  223.8350 C   0  0  0  0  0  0  0  0  0  0  0  0
  140.3487   69.5257  223.2803 H   0  0  0  0  0  0  0  0  0  0  0  0
  139.4580   69.7193  224.8620 H   0  0  0  0  0  0  0  0  0  0  0  0
  138.2300   69.9230  223.1150 C   0  0  0  0  0  0  0  0  0  0  0  0
  138.4158   69.5329  222.1034 H   0  0  0  0  0  0  0  0  0  0  0  0
  137.6213   69.2304  223.7149 H   0  0  0  0  0  0  0  0  0  0  0  0
  137.4500   71.2380  222.9970 C   0  0  0  0  0  0  0  0  0  0  0  0
  136.5183   71.0582  222.4405 H   0  0  0  0  0  0  0  0  0  0  0  0
  137.2212   71.6092  224.0069 H   0  0  0  0  0  0  0  0  0  0  0  0
  138.2870   72.2920  222.2560 C   0  0  0  0  0  0  0  0  0  0  0  0
  138.2626   72.0747  221.1780 H   0  0  0  0  0  0  0  0  0  0  0  0
  137.8581   73.2831  222.4651 H   0  0  0  0  0  0  0  0  0  0  0  0
  141.6330   72.4790  221.2570 N   0  0  0  0  0  0  0  0  0  0  0  0
  141.6590   71.4390  221.1950 H   0  0  0  0  0  0  0  0  0  0  0  0
  142.5290   73.2440  220.5640 C   0  0  0  0  0  0  0  0  0  0  0  0
  143.4760   72.7130  219.8440 N   0  0  0  0  0  0  0  0  0  0  0  0
  144.8310   73.2430  219.6750 C   0  0  0  0  0  0  0  0  0  0  0  0
  144.7884   73.6432  218.6513 H   0  0  0  0  0  0  0  0  0  0  0  0
  145.2590   74.1400  220.8320 C   0  0  0  0  0  0  0  0  0  0  0  0
  145.6696   75.1115  220.5195 H   0  0  0  0  0  0  0  0  0  0  0  0
  144.5203   74.4939  221.5662 H   0  0  0  0  0  0  0  0  0  0  0  0
  146.3140   73.1180  221.2300 C   0  0  0  0  0  0  0  0  0  0  0  0
  147.3475   73.4862  221.1503 H   0  0  0  0  0  0  0  0  0  0  0  0
  146.3476   72.7260  222.2572 H   0  0  0  0  0  0  0  0  0  0  0  0
  145.8850   72.2200  220.0790 C   0  0  0  0  0  0  0  0  0  0  0  0
  146.6658   72.0565  219.3217 H   0  0  0  0  0  0  0  0  0  0  0  0
  145.6029   71.1731  220.2645 H   0  0  0  0  0  0  0  0  0  0  0  0
  142.4320   74.5960  220.6140 N   0  0  0  0  0  0  0  0  0  0  0  0
  141.5780   77.4120  220.1430 C   0  0  0  0  0  0  0  0  0  0  0  0
  141.1820   76.8425  219.2893 H   0  0  0  0  0  0  0  0  0  0  0  0
  142.6599   77.5813  220.0390 H   0  0  0  0  0  0  0  0  0  0  0  0
  140.8870   78.7760  220.1910 C   0  0  0  0  0  0  0  0  0  0  0  0
  139.7972   78.6316  220.1511 H   0  0  0  0  0  0  0  0  0  0  0  0
  141.2212   79.3752  219.3312 H   0  0  0  0  0  0  0  0  0  0  0  0
  1  2  1  0
  2  3  2  0
  3  4  1  0
  3  5  1  0
  5  6  1  0
  5  7  2  0
  7  8  1  0
  8  9  2  0
  9 10  1  0
  8 11  1  0
 11 12  1  0
 11 13  1  0
 11 14  1  0
 14 15  1  0
 15 16  1  0
 16 17  2  0
 17 18  1  0
 18 19  1  0
 19 20  1  0
 19 21  1  0
 19 22  1  0
 22 23  1  0
 22 24  1  0
 22 25  1  0
 25 26  1  0
 25 27  1  0
 25 28  1  0
 28 29  1  0
 28 30  1  0
 28 31  1  0
 31 32  1  0
 31 33  1  0
 17 34  1  0
 34 35  1  0
 34 36  1  0
 36 37  2  0
 37 38  1  0
 38 39  1  0
 38 40  1  0
 40 41  1  0
 40 42  1  0
 40 43  1  0
 43 44  1  0
 43 45  1  0
 43 46  1  0
 46 47  1  0
 46 48  1  0
 36 49  1  0
 14 50  1  0
 50 51  1  0
 50 52  1  0
 50 53  1  0
 53 54  1  0
 53 55  1  0
  9  2  1  0
 49 15  2  0
 53  7  1  0
 31 18  1  0
 46 38  1  0
M  END
>  <UniqueID>  (18) 
483

>  <SMILES>  (18) 
c1ccc2c(c1)CCN(c1nc(N3CCCCC3)[nH]/c(=N\C3CCC3)n1)C2

>  <Energy>  (18) 
122.77454658265788

>  <Genealogy>  (18) 
c1ccc2c(c1)CCN(c1nc(N3CCCCC3)[nH]c(=NC3CCC3)n1)C2 (tautomer)
c1ccc2c(c1)CCN(c1nc(N3CCCCC3)[nH]/c(=N\C3CCC3)n1)C2 (cis-trans isomerization)
c1ccc2c(c1)CCN(c1nc(N3CCCCC3)[nH]/c(=N\C3CCC3)n1)C2 (3D coordinates assigned)
c1ccc2c(c1)CCN(c1nc(N3CCCCC3)[nH]/c(=N\C3CCC3)n1)C2 (nonaromatic ring conformer: 122.77454658265788 kcal/mol)

>  <smiles>  (18) 
c1ccc2c(c1)CCN(c1nc(NC3CCC3)nc(N3CCCCC3)n1)C2

>  <score_type>  (18) 
oracle

>  <origin>  (18) 
autodockgpu

>  <m_score__min__energy>  (18) 
-7.6799999999999997

>  <m_primary>  (18) 
energy

>  <meeko>  (18) 
{"free_energy": -7.58, "intermolecular_energy": -8.77, "internal_energy": -0.8, "cluster_size": 3, "cluster_id": 2, "rank_in_cluster": 1}

>  <energy>  (18) 
-7.58

>  <cluster_rmsd>  (18) 
0.0

>  <rmsd>  (18) 
269.79

>  <cluster>  (18) 
2

$$$$
JGFXCGHACWUNAV-OYOSFLFPNA-N
     RDKit          3D

 55 59  0  0  0  0  0  0  0  0999 V2000
  140.3613   70.5678  229.3899 H   0  0  0  0  0  0  0  0  0  0  0  0
  140.1570   70.2990  228.3430 C   0  0  0  0  0  0  0  0  0  0  0  0
  139.3520   69.1980  228.0530 C   0  0  0  0  0  0  0  0  0  0  0  0
  138.9224   68.6002  228.8704 H   0  0  0  0  0  0  0  0  0  0  0  0
  139.0910   68.8540  226.7240 C   0  0  0  0  0  0  0  0  0  0  0  0
  138.4644   67.9793  226.4956 H   0  0  0  0  0  0  0  0  0  0  0  0
  139.6280   69.6240  225.6800 C   0  0  0  0  0  0  0  0  0  0  0  0
  140.4360   70.7350  225.9700 C   0  0  0  0  0  0  0  0  0  0  0  0
  140.7050   71.0620  227.3090 C   0  0  0  0  0  0  0  0  0  0  0  0
  141.3494   71.9218  227.5444 H   0  0  0  0  0  0  0  0  0  0  0  0
  141.0670   71.5320  224.8560 C   0  0  0  0  0  0  0  0  0  0  0  0
  142.0765   71.1365  224.6702 H   0  0  0  0  0  0  0  0  0  0  0  0
  141.0910   72.5840  225.1765 H   0  0  0  0  0  0  0  0  0  0  0  0
  140.2980   71.4710  223.5960 N   0  0  0  0  0  0  0  0  0  0  0  0
  140.5990   72.4250  222.5570 C   0  0  0  0  0  0  0  0  0  0  0  0
  140.0230   73.6550  222.5650 N   0  0  0  0  0  0  0  0  0  0  0  0
  140.2920   74.5580  221.5870 C   0  0  0  0  0  0  0  0  0  0  0  0
  139.6840   75.8620  221.6400 N   0  0  0  0  0  0  0  0  0  0  0  0
  140.3430   77.0380  221.0540 C   0  0  0  0  0  0  0  0  0  0  0  0
  141.3690   76.7706  220.7611 H   0  0  0  0  0  0  0  0  0  0  0  0
  139.7726   77.3655  220.1723 H   0  0  0  0  0  0  0  0  0  0  0  0
  140.3900   78.1870  222.0740 C   0  0  0  0  0  0  0  0  0  0  0  0
  141.2594   78.0353  222.7306 H   0  0  0  0  0  0  0  0  0  0  0  0
  140.4589   79.1253  221.5041 H   0  0  0  0  0  0  0  0  0  0  0  0
  139.1230   78.2780  222.9520 C   0  0  0  0  0  0  0  0  0  0  0  0
  139.3613   77.8911  223.9537 H   0  0  0  0  0  0  0  0  0  0  0  0
  138.8179   79.3344  222.9839 H   0  0  0  0  0  0  0  0  0  0  0  0
  137.9460   77.4750  222.3840 C   0  0  0  0  0  0  0  0  0  0  0  0
  137.0921   77.5464  223.0737 H   0  0  0  0  0  0  0  0  0  0  0  0
  137.6737   77.8875  221.4013 H   0  0  0  0  0  0  0  0  0  0  0  0
  138.3370   76.0000  222.2140 C   0  0  0  0  0  0  0  0  0  0  0  0
  138.3158   75.5089  223.1981 H   0  0  0  0  0  0  0  0  0  0  0  0
  137.6189   75.5298  221.5261 H   0  0  0  0  0  0  0  0  0  0  0  0
  141.1720   74.2350  220.5970 N   0  0  0  0  0  0  0  0  0  0  0  0
  141.4190   74.9520  219.8840 H   0  0  0  0  0  0  0  0  0  0  0  0
  141.7580   72.9990  220.5800 C   0  0  0  0  0  0  0  0  0  0  0  0
  142.6040   72.6520  219.6530 N   0  0  0  0  0  0  0  0  0  0  0  0
  143.9320   73.2330  219.4370 C   0  0  0  0  0  0  0  0  0  0  0  0
  143.9008   73.4677  218.3628 H   0  0  0  0  0  0  0  0  0  0  0  0
  144.2690   74.3220  220.4500 C   0  0  0  0  0  0  0  0  0  0  0  0
  144.6334   75.2573  220.0000 H   0  0  0  0  0  0  0  0  0  0  0  0
  143.4870   74.7383  221.1020 H   0  0  0  0  0  0  0  0  0  0  0  0
  145.3670   73.4410  221.0280 C   0  0  0  0  0  0  0  0  0  0  0  0
  146.3797   73.8557  220.9168 H   0  0  0  0  0  0  0  0  0  0  0  0
  145.3886   73.2151  222.1043 H   0  0  0  0  0  0  0  0  0  0  0  0
  145.0290   72.3510  220.0210 C   0  0  0  0  0  0  0  0  0  0  0  0
  145.8428   72.1211  219.3176 H   0  0  0  0  0  0  0  0  0  0  0  0
  144.8013   71.3298  220.3605 H   0  0  0  0  0  0  0  0  0  0  0  0
  141.4630   72.1070  221.5580 N   0  0  0  0  0  0  0  0  0  0  0  0
  139.2080   70.5000  223.3910 C   0  0  0  0  0  0  0  0  0  0  0  0
  139.1890   70.2055  222.3313 H   0  0  0  0  0  0  0  0  0  0  0  0
  138.2638   70.9808  223.6866 H   0  0  0  0  0  0  0  0  0  0  0  0
  139.3900   69.2470  224.2490 C   0  0  0  0  0  0  0  0  0  0  0  0
  140.2525   68.6748  223.8766 H   0  0  0  0  0  0  0  0  0  0  0  0
  138.4768   68.6368  224.1878 H   0  0  0  0  0  0  0  0  0  0  0  0
  1  2  1  0
  2  3  2  0
  3  4  1  0
  3  5  1  0
  5  6  1  0
  5  7  2  0
  7  8  1  0
  8  9  2  0
  9 10  1  0
  8 11  1  0
 11 12  1  0
 11 13  1  0
 11 14  1  0
 14 15  1  0
 15 16  1  0
 16 17  2  0
 17 18  1  0
 18 19  1  0
 19 20  1  0
 19 21  1  0
 19 22  1  0
 22 23  1  0
 22 24  1  0
 22 25  1  0
 25 26  1  0
 25 27  1  0
 25 28  1  0
 28 29  1  0
 28 30  1  0
 28 31  1  0
 31 32  1  0
 31 33  1  0
 17 34  1  0
 34 35  1  0
 34 36  1  0
 36 37  2  0
 37 38  1  0
 38 39  1  0
 38 40  1  0
 40 41  1  0
 40 42  1  0
 40 43  1  0
 43 44  1  0
 43 45  1  0
 43 46  1  0
 46 47  1  0
 46 48  1  0
 36 49  1  0
 14 50  1  0
 50 51  1  0
 50 52  1  0
 50 53  1  0
 53 54  1  0
 53 55  1  0
  9  2  1  0
 49 15  2  0
 53  7  1  0
 31 18  1  0
 46 38  1  0
M  END
>  <UniqueID>  (19) 
483

>  <SMILES>  (19) 
c1ccc2c(c1)CCN(c1nc(N3CCCCC3)[nH]/c(=N\C3CCC3)n1)C2

>  <Energy>  (19) 
122.77454658265788

>  <Genealogy>  (19) 
c1ccc2c(c1)CCN(c1nc(N3CCCCC3)[nH]c(=NC3CCC3)n1)C2 (tautomer)
c1ccc2c(c1)CCN(c1nc(N3CCCCC3)[nH]/c(=N\C3CCC3)n1)C2 (cis-trans isomerization)
c1ccc2c(c1)CCN(c1nc(N3CCCCC3)[nH]/c(=N\C3CCC3)n1)C2 (3D coordinates assigned)
c1ccc2c(c1)CCN(c1nc(N3CCCCC3)[nH]/c(=N\C3CCC3)n1)C2 (nonaromatic ring conformer: 122.77454658265788 kcal/mol)

>  <smiles>  (19) 
c1ccc2c(c1)CCN(c1nc(NC3CCC3)nc(N3CCCCC3)n1)C2

>  <score_type>  (19) 
oracle

>  <origin>  (19) 
autodockgpu

>  <m_score__min__energy>  (19) 
-7.6799999999999997

>  <m_primary>  (19) 
energy

>  <meeko>  (19) 
{"free_energy": -7.67, "intermolecular_energy": -8.86, "internal_energy": -0.92, "cluster_size": 17, "cluster_id": 1, "rank_in_cluster": 4}

>  <energy>  (19) 
-7.41

>  <cluster_rmsd>  (19) 
0.7

>  <rmsd>  (19) 
269.8

>  <cluster>  (19) 
2

$$$$
JGFXCGHACWUNAV-OYOSFLFPNA-N
     RDKit          3D

 55 59  0  0  0  0  0  0  0  0999 V2000
  140.4073   70.5262  229.3255 H   0  0  0  0  0  0  0  0  0  0  0  0
  140.1820   70.2730  228.2790 C   0  0  0  0  0  0  0  0  0  0  0  0
  139.3460   69.1940  227.9890 C   0  0  0  0  0  0  0  0  0  0  0  0
  138.9112   68.5999  228.8064 H   0  0  0  0  0  0  0  0  0  0  0  0
  139.0610   68.8680  226.6600 C   0  0  0  0  0  0  0  0  0  0  0  0
  138.4121   68.0097  226.4315 H   0  0  0  0  0  0  0  0  0  0  0  0
  139.6030   69.6360  225.6160 C   0  0  0  0  0  0  0  0  0  0  0  0
  140.4410   70.7240  225.9060 C   0  0  0  0  0  0  0  0  0  0  0  0
  140.7340   71.0330  227.2440 C   0  0  0  0  0  0  0  0  0  0  0  0
  141.4003   71.8762  227.4785 H   0  0  0  0  0  0  0  0  0  0  0  0
  141.0760   71.5170  224.7910 C   0  0  0  0  0  0  0  0  0  0  0  0
  142.0737   71.1003  224.5887 H   0  0  0  0  0  0  0  0  0  0  0  0
  141.1277   72.5651  225.1210 H   0  0  0  0  0  0  0  0  0  0  0  0
  140.2910   71.4860  223.5410 N   0  0  0  0  0  0  0  0  0  0  0  0
  140.6010   72.4420  222.5060 C   0  0  0  0  0  0  0  0  0  0  0  0
  140.0350   73.6760  222.5190 N   0  0  0  0  0  0  0  0  0  0  0  0
  140.3120   74.5820  221.5460 C   0  0  0  0  0  0  0  0  0  0  0  0
  139.7150   75.8900  221.6030 N   0  0  0  0  0  0  0  0  0  0  0  0
  140.3820   77.0630  221.0210 C   0  0  0  0  0  0  0  0  0  0  0  0
  141.4057   76.7888  220.7263 H   0  0  0  0  0  0  0  0  0  0  0  0
  139.8125   77.3977  220.1414 H   0  0  0  0  0  0  0  0  0  0  0  0
  140.4390   78.2090  222.0440 C   0  0  0  0  0  0  0  0  0  0  0  0
  141.3080   78.0491  222.6992 H   0  0  0  0  0  0  0  0  0  0  0  0
  140.5146   79.1484  221.4766 H   0  0  0  0  0  0  0  0  0  0  0  0
  139.1730   78.3070  222.9240 C   0  0  0  0  0  0  0  0  0  0  0  0
  139.4093   77.9152  223.9243 H   0  0  0  0  0  0  0  0  0  0  0  0
  138.8759   79.3655  222.9597 H   0  0  0  0  0  0  0  0  0  0  0  0
  137.9890   77.5140  222.3540 C   0  0  0  0  0  0  0  0  0  0  0  0
  137.1361   77.5895  223.0446 H   0  0  0  0  0  0  0  0  0  0  0  0
  137.7189   77.9317  221.3729 H   0  0  0  0  0  0  0  0  0  0  0  0
  138.3690   76.0370  222.1790 C   0  0  0  0  0  0  0  0  0  0  0  0
  138.3450   75.5431  223.1616 H   0  0  0  0  0  0  0  0  0  0  0  0
  137.6469   75.5746  221.4900 H   0  0  0  0  0  0  0  0  0  0  0  0
  141.1920   74.2560  220.5570 N   0  0  0  0  0  0  0  0  0  0  0  0
  141.4460   74.9750  219.8470 H   0  0  0  0  0  0  0  0  0  0  0  0
  141.7690   73.0170  220.5350 C   0  0  0  0  0  0  0  0  0  0  0  0
  142.6140   72.6670  219.6080 N   0  0  0  0  0  0  0  0  0  0  0  0
  143.9460   73.2390  219.3970 C   0  0  0  0  0  0  0  0  0  0  0  0
  143.9251   73.4618  218.3200 H   0  0  0  0  0  0  0  0  0  0  0  0
  144.2800   74.3380  220.4010 C   0  0  0  0  0  0  0  0  0  0  0  0
  144.6532   75.2663  219.9438 H   0  0  0  0  0  0  0  0  0  0  0  0
  143.4946   74.7657  221.0415 H   0  0  0  0  0  0  0  0  0  0  0  0
  145.3680   73.4580  220.9980 C   0  0  0  0  0  0  0  0  0  0  0  0
  146.3837   73.8665  220.8911 H   0  0  0  0  0  0  0  0  0  0  0  0
  145.3786   73.2442  222.0770 H   0  0  0  0  0  0  0  0  0  0  0  0
  145.0340   72.3580  220.0010 C   0  0  0  0  0  0  0  0  0  0  0  0
  145.8529   72.1162  219.3076 H   0  0  0  0  0  0  0  0  0  0  0  0
  144.7986   71.3418  220.3502 H   0  0  0  0  0  0  0  0  0  0  0  0
  141.4650   72.1220  221.5080 N   0  0  0  0  0  0  0  0  0  0  0  0
  139.1750   70.5420  223.3410 C   0  0  0  0  0  0  0  0  0  0  0  0
  139.1362   70.2572  222.2792 H   0  0  0  0  0  0  0  0  0  0  0  0
  138.2460   71.0421  223.6520 H   0  0  0  0  0  0  0  0  0  0  0  0
  139.3380   69.2780  224.1860 C   0  0  0  0  0  0  0  0  0  0  0  0
  140.1818   68.6888  223.7976 H   0  0  0  0  0  0  0  0  0  0  0  0
  138.4096   68.6905  224.1316 H   0  0  0  0  0  0  0  0  0  0  0  0
  1  2  1  0
  2  3  2  0
  3  4  1  0
  3  5  1  0
  5  6  1  0
  5  7  2  0
  7  8  1  0
  8  9  2  0
  9 10  1  0
  8 11  1  0
 11 12  1  0
 11 13  1  0
 11 14  1  0
 14 15  1  0
 15 16  1  0
 16 17  2  0
 17 18  1  0
 18 19  1  0
 19 20  1  0
 19 21  1  0
 19 22  1  0
 22 23  1  0
 22 24  1  0
 22 25  1  0
 25 26  1  0
 25 27  1  0
 25 28  1  0
 28 29  1  0
 28 30  1  0
 28 31  1  0
 31 32  1  0
 31 33  1  0
 17 34  1  0
 34 35  1  0
 34 36  1  0
 36 37  2  0
 37 38  1  0
 38 39  1  0
 38 40  1  0
 40 41  1  0
 40 42  1  0
 40 43  1  0
 43 44  1  0
 43 45  1  0
 43 46  1  0
 46 47  1  0
 46 48  1  0
 36 49  1  0
 14 50  1  0
 50 51  1  0
 50 52  1  0
 50 53  1  0
 53 54  1  0
 53 55  1  0
  9  2  1  0
 49 15  2  0
 53  7  1  0
 31 18  1  0
 46 38  1  0
M  END
>  <UniqueID>  (20) 
483

>  <SMILES>  (20) 
c1ccc2c(c1)CCN(c1nc(N3CCCCC3)[nH]/c(=N\C3CCC3)n1)C2

>  <Energy>  (20) 
122.77454658265788

>  <Genealogy>  (20) 
c1ccc2c(c1)CCN(c1nc(N3CCCCC3)[nH]c(=NC3CCC3)n1)C2 (tautomer)
c1ccc2c(c1)CCN(c1nc(N3CCCCC3)[nH]/c(=N\C3CCC3)n1)C2 (cis-trans isomerization)
c1ccc2c(c1)CCN(c1nc(N3CCCCC3)[nH]/c(=N\C3CCC3)n1)C2 (3D coordinates assigned)
c1ccc2c(c1)CCN(c1nc(N3CCCCC3)[nH]/c(=N\C3CCC3)n1)C2 (nonaromatic ring conformer: 122.77454658265788 kcal/mol)

>  <smiles>  (20) 
c1ccc2c(c1)CCN(c1nc(NC3CCC3)nc(N3CCCCC3)n1)C2

>  <score_type>  (20) 
oracle

>  <origin>  (20) 
autodockgpu

>  <m_score__min__energy>  (20) 
-7.6799999999999997

>  <m_primary>  (20) 
energy

>  <meeko>  (20) 
{"free_energy": -7.64, "intermolecular_energy": -8.83, "internal_energy": -0.91, "cluster_size": 17, "cluster_id": 1, "rank_in_cluster": 11}

>  <energy>  (20) 
-7.4

>  <cluster_rmsd>  (20) 
0.69

>  <rmsd>  (20) 
269.79

>  <cluster>  (20) 
2

$$$$
JGFXCGHACWUNAV-OYOSFLFPNA-N
     RDKit          3D

 55 59  0  0  0  0  0  0  0  0999 V2000
  140.3138   70.5889  229.3971 H   0  0  0  0  0  0  0  0  0  0  0  0
  140.1460   70.2930  228.3510 C   0  0  0  0  0  0  0  0  0  0  0  0
  139.3990   69.1500  228.0620 C   0  0  0  0  0  0  0  0  0  0  0  0
  138.9771   68.5474  228.8799 H   0  0  0  0  0  0  0  0  0  0  0  0
  139.1870   68.7710  226.7340 C   0  0  0  0  0  0  0  0  0  0  0  0
  138.6084   67.8633  226.5073 H   0  0  0  0  0  0  0  0  0  0  0  0
  139.7120   69.5480  225.6880 C   0  0  0  0  0  0  0  0  0  0  0  0
  140.4600   70.7000  225.9770 C   0  0  0  0  0  0  0  0  0  0  0  0
  140.6810   71.0620  227.3150 C   0  0  0  0  0  0  0  0  0  0  0  0
  141.2784   71.9556  227.5488 H   0  0  0  0  0  0  0  0  0  0  0  0
  141.0790   71.5070  224.8630 C   0  0  0  0  0  0  0  0  0  0  0  0
  142.1101   71.1567  224.7074 H   0  0  0  0  0  0  0  0  0  0  0  0
  141.0460   72.5643  225.1647 H   0  0  0  0  0  0  0  0  0  0  0  0
  140.3440   71.3880  223.5880 N   0  0  0  0  0  0  0  0  0  0  0  0
  140.6250   72.3370  222.5380 C   0  0  0  0  0  0  0  0  0  0  0  0
  140.0280   73.5560  222.5360 N   0  0  0  0  0  0  0  0  0  0  0  0
  140.2770   74.4550  221.5480 C   0  0  0  0  0  0  0  0  0  0  0  0
  139.6470   75.7480  221.5900 N   0  0  0  0  0  0  0  0  0  0  0  0
  140.2570   76.9190  220.9450 C   0  0  0  0  0  0  0  0  0  0  0  0
  141.2750   76.6627  220.6165 H   0  0  0  0  0  0  0  0  0  0  0  0
  139.6431   77.2104  220.0800 H   0  0  0  0  0  0  0  0  0  0  0  0
  140.3240   78.0980  221.9290 C   0  0  0  0  0  0  0  0  0  0  0  0
  141.2231   77.9821  222.5520 H   0  0  0  0  0  0  0  0  0  0  0  0
  140.3504   79.0206  221.3306 H   0  0  0  0  0  0  0  0  0  0  0  0
  139.0920   78.1900  222.8580 C   0  0  0  0  0  0  0  0  0  0  0  0
  139.3795   77.8361  223.8590 H   0  0  0  0  0  0  0  0  0  0  0  0
  138.7674   79.2409  222.8742 H   0  0  0  0  0  0  0  0  0  0  0  0
  137.9090   77.3490  222.3620 C   0  0  0  0  0  0  0  0  0  0  0  0
  137.0831   77.4235  223.0847 H   0  0  0  0  0  0  0  0  0  0  0  0
  137.5881   77.7285  221.3807 H   0  0  0  0  0  0  0  0  0  0  0  0
  138.3220   75.8780  222.2160 C   0  0  0  0  0  0  0  0  0  0  0  0
  138.3511   75.4146  223.2132 H   0  0  0  0  0  0  0  0  0  0  0  0
  137.5857   75.3758  221.5713 H   0  0  0  0  0  0  0  0  0  0  0  0
  141.1600   74.1370  220.5590 N   0  0  0  0  0  0  0  0  0  0  0  0
  141.3930   74.8520  219.8380 H   0  0  0  0  0  0  0  0  0  0  0  0
  141.7680   72.9130  220.5520 C   0  0  0  0  0  0  0  0  0  0  0  0
  142.6180   72.5720  219.6260 N   0  0  0  0  0  0  0  0  0  0  0  0
  143.9310   73.1790  219.3950 C   0  0  0  0  0  0  0  0  0  0  0  0
  143.8835   73.4130  218.3212 H   0  0  0  0  0  0  0  0  0  0  0  0
  144.2570   74.2740  220.4050 C   0  0  0  0  0  0  0  0  0  0  0  0
  144.5977   75.2166  219.9516 H   0  0  0  0  0  0  0  0  0  0  0  0
  143.4738   74.6741  221.0657 H   0  0  0  0  0  0  0  0  0  0  0  0
  145.3790   73.4150  220.9710 C   0  0  0  0  0  0  0  0  0  0  0  0
  146.3819   73.8501  220.8492 H   0  0  0  0  0  0  0  0  0  0  0  0
  145.4168   73.1893  222.0469 H   0  0  0  0  0  0  0  0  0  0  0  0
  145.0520   72.3190  219.9670 C   0  0  0  0  0  0  0  0  0  0  0  0
  145.8627   72.1058  219.2547 H   0  0  0  0  0  0  0  0  0  0  0  0
  144.8484   71.2933  220.3085 H   0  0  0  0  0  0  0  0  0  0  0  0
  141.4920   72.0250  221.5390 N   0  0  0  0  0  0  0  0  0  0  0  0
  139.3060   70.3630  223.3750 C   0  0  0  0  0  0  0  0  0  0  0  0
  139.3271   70.0496  222.3208 H   0  0  0  0  0  0  0  0  0  0  0  0
  138.3333   70.8037  223.6391 H   0  0  0  0  0  0  0  0  0  0  0  0
  139.5250   69.1350  224.2600 C   0  0  0  0  0  0  0  0  0  0  0  0
  140.4212   68.5967  223.9179 H   0  0  0  0  0  0  0  0  0  0  0  0
  138.6425   68.4821  224.1897 H   0  0  0  0  0  0  0  0  0  0  0  0
  1  2  1  0
  2  3  2  0
  3  4  1  0
  3  5  1  0
  5  6  1  0
  5  7  2  0
  7  8  1  0
  8  9  2  0
  9 10  1  0
  8 11  1  0
 11 12  1  0
 11 13  1  0
 11 14  1  0
 14 15  1  0
 15 16  1  0
 16 17  2  0
 17 18  1  0
 18 19  1  0
 19 20  1  0
 19 21  1  0
 19 22  1  0
 22 23  1  0
 22 24  1  0
 22 25  1  0
 25 26  1  0
 25 27  1  0
 25 28  1  0
 28 29  1  0
 28 30  1  0
 28 31  1  0
 31 32  1  0
 31 33  1  0
 17 34  1  0
 34 35  1  0
 34 36  1  0
 36 37  2  0
 37 38  1  0
 38 39  1  0
 38 40  1  0
 40 41  1  0
 40 42  1  0
 40 43  1  0
 43 44  1  0
 43 45  1  0
 43 46  1  0
 46 47  1  0
 46 48  1  0
 36 49  1  0
 14 50  1  0
 50 51  1  0
 50 52  1  0
 50 53  1  0
 53 54  1  0
 53 55  1  0
  9  2  1  0
 49 15  2  0
 53  7  1  0
 31 18  1  0
 46 38  1  0
M  END
>  <UniqueID>  (21) 
484

>  <SMILES>  (21) 
c1ccc2c(c1)CCN(c1nc(N3CCCCC3)[nH]/c(=N\C3CCC3)n1)C2

>  <Energy>  (21) 
124.3069163040774

>  <Genealogy>  (21) 
c1ccc2c(c1)CCN(c1nc(N3CCCCC3)[nH]c(=NC3CCC3)n1)C2 (tautomer)
c1ccc2c(c1)CCN(c1nc(N3CCCCC3)[nH]/c(=N\C3CCC3)n1)C2 (cis-trans isomerization)
c1ccc2c(c1)CCN(c1nc(N3CCCCC3)[nH]/c(=N\C3CCC3)n1)C2 (3D coordinates assigned)
c1ccc2c(c1)CCN(c1nc(N3CCCCC3)[nH]/c(=N\C3CCC3)n1)C2 (nonaromatic ring conformer: 124.3069163040774 kcal/mol)

>  <smiles>  (21) 
c1ccc2c(c1)CCN(c1nc(NC3CCC3)nc(N3CCCCC3)n1)C2

>  <score_type>  (21) 
oracle

>  <origin>  (21) 
autodockgpu

>  <m_score__min__energy>  (21) 
-7.6799999999999997

>  <m_primary>  (21) 
energy

>  <meeko>  (21) 
{"free_energy": -7.67, "intermolecular_energy": -8.86, "internal_energy": -0.91, "cluster_size": 17, "cluster_id": 1, "rank_in_cluster": 5}

>  <energy>  (21) 
-7.68

>  <cluster_rmsd>  (21) 
0.0

>  <rmsd>  (21) 
269.81

>  <cluster>  (21) 
1

$$$$
JGFXCGHACWUNAV-OYOSFLFPNA-N
     RDKit          3D

 55 59  0  0  0  0  0  0  0  0999 V2000
  140.4211   70.5109  229.3701 H   0  0  0  0  0  0  0  0  0  0  0  0
  140.1970   70.2550  228.3240 C   0  0  0  0  0  0  0  0  0  0  0  0
  139.3710   69.1680  228.0350 C   0  0  0  0  0  0  0  0  0  0  0  0
  138.9432   68.5698  228.8531 H   0  0  0  0  0  0  0  0  0  0  0  0
  139.0870   68.8390  226.7070 C   0  0  0  0  0  0  0  0  0  0  0  0
  138.4459   67.9745  226.4797 H   0  0  0  0  0  0  0  0  0  0  0  0
  139.6200   69.6120  225.6620 C   0  0  0  0  0  0  0  0  0  0  0  0
  140.4480   70.7080  225.9510 C   0  0  0  0  0  0  0  0  0  0  0  0
  140.7400   71.0190  227.2880 C   0  0  0  0  0  0  0  0  0  0  0  0
  141.3993   71.8680  227.5213 H   0  0  0  0  0  0  0  0  0  0  0  0
  141.0740   71.5070  224.8350 C   0  0  0  0  0  0  0  0  0  0  0  0
  142.0752   71.0996  224.6309 H   0  0  0  0  0  0  0  0  0  0  0  0
  141.1172   72.5556  225.1647 H   0  0  0  0  0  0  0  0  0  0  0  0
  140.2860   71.4680  223.5860 N   0  0  0  0  0  0  0  0  0  0  0  0
  140.5860   72.4280  222.5510 C   0  0  0  0  0  0  0  0  0  0  0  0
  140.0110   73.6570  222.5660 N   0  0  0  0  0  0  0  0  0  0  0  0
  140.2780   74.5650  221.5930 C   0  0  0  0  0  0  0  0  0  0  0  0
  139.6720   75.8700  221.6530 N   0  0  0  0  0  0  0  0  0  0  0  0
  140.3380   77.0510  221.0890 C   0  0  0  0  0  0  0  0  0  0  0  0
  141.3670   76.7858  220.8045 H   0  0  0  0  0  0  0  0  0  0  0  0
  139.7774   77.3894  220.2051 H   0  0  0  0  0  0  0  0  0  0  0  0
  140.3750   78.1890  222.1230 C   0  0  0  0  0  0  0  0  0  0  0  0
  141.2364   78.0287  222.7880 H   0  0  0  0  0  0  0  0  0  0  0  0
  140.4524   79.1339  221.5651 H   0  0  0  0  0  0  0  0  0  0  0  0
  139.0970   78.2710  222.9870 C   0  0  0  0  0  0  0  0  0  0  0  0
  139.3227   77.8719  223.9869 H   0  0  0  0  0  0  0  0  0  0  0  0
  138.7926   79.3273  223.0279 H   0  0  0  0  0  0  0  0  0  0  0  0
  137.9260   77.4760  222.3950 C   0  0  0  0  0  0  0  0  0  0  0  0
  137.0636   77.5404  223.0748 H   0  0  0  0  0  0  0  0  0  0  0  0
  137.6660   77.9002  221.4140 H   0  0  0  0  0  0  0  0  0  0  0  0
  138.3180   76.0030  222.2130 C   0  0  0  0  0  0  0  0  0  0  0  0
  138.2850   75.5010  223.1912 H   0  0  0  0  0  0  0  0  0  0  0  0
  137.6077   75.5413  221.5114 H   0  0  0  0  0  0  0  0  0  0  0  0
  141.1560   74.2470  220.6000 N   0  0  0  0  0  0  0  0  0  0  0  0
  141.4030   74.9680  219.8890 H   0  0  0  0  0  0  0  0  0  0  0  0
  141.7410   73.0110  220.5750 C   0  0  0  0  0  0  0  0  0  0  0  0
  142.5860   72.6680  219.6450 N   0  0  0  0  0  0  0  0  0  0  0  0
  143.9170   73.2440  219.4340 C   0  0  0  0  0  0  0  0  0  0  0  0
  143.8878   73.4890  218.3620 H   0  0  0  0  0  0  0  0  0  0  0  0
  144.2590   74.3220  220.4570 C   0  0  0  0  0  0  0  0  0  0  0  0
  144.6283   75.2595  220.0158 H   0  0  0  0  0  0  0  0  0  0  0  0
  143.4791   74.7365  221.1127 H   0  0  0  0  0  0  0  0  0  0  0  0
  145.3530   73.4290  221.0270 C   0  0  0  0  0  0  0  0  0  0  0  0
  146.3680   73.8392  220.9195 H   0  0  0  0  0  0  0  0  0  0  0  0
  145.3734   73.1931  222.1012 H   0  0  0  0  0  0  0  0  0  0  0  0
  145.0090   72.3500  220.0100 C   0  0  0  0  0  0  0  0  0  0  0  0
  145.8216   72.1219  219.3046 H   0  0  0  0  0  0  0  0  0  0  0  0
  144.7755   71.3270  220.3400 H   0  0  0  0  0  0  0  0  0  0  0  0
  141.4480   72.1140  221.5490 N   0  0  0  0  0  0  0  0  0  0  0  0
  139.1790   70.5140  223.3880 C   0  0  0  0  0  0  0  0  0  0  0  0
  139.1405   70.2295  222.3261 H   0  0  0  0  0  0  0  0  0  0  0  0
  138.2459   71.0051  223.7013 H   0  0  0  0  0  0  0  0  0  0  0  0
  139.3560   69.2510  224.2320 C   0  0  0  0  0  0  0  0  0  0  0  0
  140.2049   68.6703  223.8420 H   0  0  0  0  0  0  0  0  0  0  0  0
  138.4338   68.6538  224.1788 H   0  0  0  0  0  0  0  0  0  0  0  0
  1  2  1  0
  2  3  2  0
  3  4  1  0
  3  5  1  0
  5  6  1  0
  5  7  2  0
  7  8  1  0
  8  9  2  0
  9 10  1  0
  8 11  1  0
 11 12  1  0
 11 13  1  0
 11 14  1  0
 14 15  1  0
 15 16  1  0
 16 17  2  0
 17 18  1  0
 18 19  1  0
 19 20  1  0
 19 21  1  0
 19 22  1  0
 22 23  1  0
 22 24  1  0
 22 25  1  0
 25 26  1  0
 25 27  1  0
 25 28  1  0
 28 29  1  0
 28 30  1  0
 28 31  1  0
 31 32  1  0
 31 33  1  0
 17 34  1  0
 34 35  1  0
 34 36  1  0
 36 37  2  0
 37 38  1  0
 38 39  1  0
 38 40  1  0
 40 41  1  0
 40 42  1  0
 40 43  1  0
 43 44  1  0
 43 45  1  0
 43 46  1  0
 46 47  1  0
 46 48  1  0
 36 49  1  0
 14 50  1  0
 50 51  1  0
 50 52  1  0
 50 53  1  0
 53 54  1  0
 53 55  1  0
  9  2  1  0
 49 15  2  0
 53  7  1  0
 31 18  1  0
 46 38  1  0
M  END
>  <UniqueID>  (22) 
484

>  <SMILES>  (22) 
c1ccc2c(c1)CCN(c1nc(N3CCCCC3)[nH]/c(=N\C3CCC3)n1)C2

>  <Energy>  (22) 
124.3069163040774

>  <Genealogy>  (22) 
c1ccc2c(c1)CCN(c1nc(N3CCCCC3)[nH]c(=NC3CCC3)n1)C2 (tautomer)
c1ccc2c(c1)CCN(c1nc(N3CCCCC3)[nH]/c(=N\C3CCC3)n1)C2 (cis-trans isomerization)
c1ccc2c(c1)CCN(c1nc(N3CCCCC3)[nH]/c(=N\C3CCC3)n1)C2 (3D coordinates assigned)
c1ccc2c(c1)CCN(c1nc(N3CCCCC3)[nH]/c(=N\C3CCC3)n1)C2 (nonaromatic ring conformer: 124.3069163040774 kcal/mol)

>  <smiles>  (22) 
c1ccc2c(c1)CCN(c1nc(NC3CCC3)nc(N3CCCCC3)n1)C2

>  <score_type>  (22) 
oracle

>  <origin>  (22) 
autodockgpu

>  <m_score__min__energy>  (22) 
-7.6799999999999997

>  <m_primary>  (22) 
energy

>  <meeko>  (22) 
{"free_energy": -7.67, "intermolecular_energy": -8.86, "internal_energy": -0.92, "cluster_size": 17, "cluster_id": 1, "rank_in_cluster": 3}

>  <energy>  (22) 
-7.67

>  <cluster_rmsd>  (22) 
0.36

>  <rmsd>  (22) 
269.79

>  <cluster>  (22) 
1

$$$$
JGFXCGHACWUNAV-OYOSFLFPNA-N
     RDKit          3D

 55 59  0  0  0  0  0  0  0  0999 V2000
  140.4359   70.6433  229.3857 H   0  0  0  0  0  0  0  0  0  0  0  0
  140.2240   70.3570  228.3450 C   0  0  0  0  0  0  0  0  0  0  0  0
  139.4330   69.2380  228.0780 C   0  0  0  0  0  0  0  0  0  0  0  0
  139.0210   68.6448  228.9077 H   0  0  0  0  0  0  0  0  0  0  0  0
  139.1650   68.8720  226.7570 C   0  0  0  0  0  0  0  0  0  0  0  0
  138.5514   67.9835  226.5470 H   0  0  0  0  0  0  0  0  0  0  0  0
  139.6780   69.6370  225.6960 C   0  0  0  0  0  0  0  0  0  0  0  0
  140.4700   70.7640  225.9630 C   0  0  0  0  0  0  0  0  0  0  0  0
  140.7470   71.1140  227.2940 C   0  0  0  0  0  0  0  0  0  0  0  0
  141.3787   71.9882  227.5102 H   0  0  0  0  0  0  0  0  0  0  0  0
  141.0760   71.5570  224.8310 C   0  0  0  0  0  0  0  0  0  0  0  0
  142.0900   71.1761  224.6395 H   0  0  0  0  0  0  0  0  0  0  0  0
  141.0857   72.6135  225.1372 H   0  0  0  0  0  0  0  0  0  0  0  0
  140.2950   71.4660  223.5810 N   0  0  0  0  0  0  0  0  0  0  0  0
  140.5690   72.4110  222.5250 C   0  0  0  0  0  0  0  0  0  0  0  0
  140.0240   73.6530  222.5570 N   0  0  0  0  0  0  0  0  0  0  0  0
  140.2670   74.5480  221.5650 C   0  0  0  0  0  0  0  0  0  0  0  0
  139.6940   75.8670  221.6420 N   0  0  0  0  0  0  0  0  0  0  0  0
  140.4570   77.0580  221.2460 C   0  0  0  0  0  0  0  0  0  0  0  0
  141.5054   76.7752  221.0703 H   0  0  0  0  0  0  0  0  0  0  0  0
  140.0191   77.4736  220.3265 H   0  0  0  0  0  0  0  0  0  0  0  0
  140.3980   78.1230  222.3530 C   0  0  0  0  0  0  0  0  0  0  0  0
  141.1663   77.8882  223.1044 H   0  0  0  0  0  0  0  0  0  0  0  0
  140.5694   79.0989  221.8752 H   0  0  0  0  0  0  0  0  0  0  0  0
  139.0270   78.1950  223.0600 C   0  0  0  0  0  0  0  0  0  0  0  0
  139.1172   77.7239  224.0499 H   0  0  0  0  0  0  0  0  0  0  0  0
  138.7497   79.2567  223.1363 H   0  0  0  0  0  0  0  0  0  0  0  0
  137.9150   77.4830  222.2780 C   0  0  0  0  0  0  0  0  0  0  0  0
  136.9783   77.5333  222.8525 H   0  0  0  0  0  0  0  0  0  0  0  0
  137.7881   77.9799  221.3049 H   0  0  0  0  0  0  0  0  0  0  0  0
  138.2860   76.0110  222.0420 C   0  0  0  0  0  0  0  0  0  0  0  0
  138.1191   75.4470  222.9715 H   0  0  0  0  0  0  0  0  0  0  0  0
  137.6550   75.6223  221.2291 H   0  0  0  0  0  0  0  0  0  0  0  0
  141.0910   74.2020  220.5360 N   0  0  0  0  0  0  0  0  0  0  0  0
  141.3220   74.9120  219.8090 H   0  0  0  0  0  0  0  0  0  0  0  0
  141.6470   72.9530  220.4950 C   0  0  0  0  0  0  0  0  0  0  0  0
  142.4400   72.5840  219.5300 N   0  0  0  0  0  0  0  0  0  0  0  0
  143.7940   73.0880  219.2870 C   0  0  0  0  0  0  0  0  0  0  0  0
  143.8322   73.1049  218.1878 H   0  0  0  0  0  0  0  0  0  0  0  0
  144.1030   74.3510  220.0850 C   0  0  0  0  0  0  0  0  0  0  0  0
  144.5198   75.1720  219.4832 H   0  0  0  0  0  0  0  0  0  0  0  0
  143.2965   74.9013  220.5918 H   0  0  0  0  0  0  0  0  0  0  0  0
  145.1390   73.5850  220.8930 C   0  0  0  0  0  0  0  0  0  0  0  0
  146.1680   73.9524  220.7659 H   0  0  0  0  0  0  0  0  0  0  0  0
  145.0914   73.5775  221.9919 H   0  0  0  0  0  0  0  0  0  0  0  0
  144.8290   72.3220  220.1020 C   0  0  0  0  0  0  0  0  0  0  0  0
  145.6756   71.9431  219.5107 H   0  0  0  0  0  0  0  0  0  0  0  0
  144.5524   71.3929  220.6218 H   0  0  0  0  0  0  0  0  0  0  0  0
  141.3770   72.0700  221.4880 N   0  0  0  0  0  0  0  0  0  0  0  0
  139.2190   70.4740  223.4010 C   0  0  0  0  0  0  0  0  0  0  0  0
  139.1937   70.1646  222.3457 H   0  0  0  0  0  0  0  0  0  0  0  0
  138.2701   70.9430  223.7002 H   0  0  0  0  0  0  0  0  0  0  0  0
  139.4310   69.2360  224.2740 C   0  0  0  0  0  0  0  0  0  0  0  0
  140.2988   68.6729  223.9001 H   0  0  0  0  0  0  0  0  0  0  0  0
  138.5277   68.6098  224.2312 H   0  0  0  0  0  0  0  0  0  0  0  0
  1  2  1  0
  2  3  2  0
  3  4  1  0
  3  5  1  0
  5  6  1  0
  5  7  2  0
  7  8  1  0
  8  9  2  0
  9 10  1  0
  8 11  1  0
 11 12  1  0
 11 13  1  0
 11 14  1  0
 14 15  1  0
 15 16  1  0
 16 17  2  0
 17 18  1  0
 18 19  1  0
 19 20  1  0
 19 21  1  0
 19 22  1  0
 22 23  1  0
 22 24  1  0
 22 25  1  0
 25 26  1  0
 25 27  1  0
 25 28  1  0
 28 29  1  0
 28 30  1  0
 28 31  1  0
 31 32  1  0
 31 33  1  0
 17 34  1  0
 34 35  1  0
 34 36  1  0
 36 37  2  0
 37 38  1  0
 38 39  1  0
 38 40  1  0
 40 41  1  0
 40 42  1  0
 40 43  1  0
 43 44  1  0
 43 45  1  0
 43 46  1  0
 46 47  1  0
 46 48  1  0
 36 49  1  0
 14 50  1  0
 50 51  1  0
 50 52  1  0
 50 53  1  0
 53 54  1  0
 53 55  1  0
  9  2  1  0
 49 15  2  0
 53  7  1  0
 31 18  1  0
 46 38  1  0
M  END
>  <UniqueID>  (23) 
484

>  <SMILES>  (23) 
c1ccc2c(c1)CCN(c1nc(N3CCCCC3)[nH]/c(=N\C3CCC3)n1)C2

>  <Energy>  (23) 
124.3069163040774

>  <Genealogy>  (23) 
c1ccc2c(c1)CCN(c1nc(N3CCCCC3)[nH]c(=NC3CCC3)n1)C2 (tautomer)
c1ccc2c(c1)CCN(c1nc(N3CCCCC3)[nH]/c(=N\C3CCC3)n1)C2 (cis-trans isomerization)
c1ccc2c(c1)CCN(c1nc(N3CCCCC3)[nH]/c(=N\C3CCC3)n1)C2 (3D coordinates assigned)
c1ccc2c(c1)CCN(c1nc(N3CCCCC3)[nH]/c(=N\C3CCC3)n1)C2 (nonaromatic ring conformer: 124.3069163040774 kcal/mol)

>  <smiles>  (23) 
c1ccc2c(c1)CCN(c1nc(NC3CCC3)nc(N3CCCCC3)n1)C2

>  <score_type>  (23) 
oracle

>  <origin>  (23) 
autodockgpu

>  <m_score__min__energy>  (23) 
-7.6799999999999997

>  <m_primary>  (23) 
energy

>  <meeko>  (23) 
{"free_energy": -7.61, "intermolecular_energy": -8.8, "internal_energy": -0.93, "cluster_size": 17, "cluster_id": 1, "rank_in_cluster": 13}

>  <energy>  (23) 
-7.67

>  <cluster_rmsd>  (23) 
0.39

>  <rmsd>  (23) 
269.78

>  <cluster>  (23) 
1

$$$$
JGFXCGHACWUNAV-OYOSFLFPNA-N
     RDKit          3D

 55 59  0  0  0  0  0  0  0  0999 V2000
  140.5887   70.5950  229.3644 H   0  0  0  0  0  0  0  0  0  0  0  0
  140.3320   70.3190  228.3310 C   0  0  0  0  0  0  0  0  0  0  0  0
  139.5100   69.2180  228.0890 C   0  0  0  0  0  0  0  0  0  0  0  0
  139.1186   68.6280  228.9309 H   0  0  0  0  0  0  0  0  0  0  0  0
  139.1840   68.8650  226.7770 C   0  0  0  0  0  0  0  0  0  0  0  0
  138.5452   67.9901  226.5860 H   0  0  0  0  0  0  0  0  0  0  0  0
  139.6710   69.6260  225.7020 C   0  0  0  0  0  0  0  0  0  0  0  0
  140.4960   70.7360  225.9440 C   0  0  0  0  0  0  0  0  0  0  0  0
  140.8300   71.0720  227.2650 C   0  0  0  0  0  0  0  0  0  0  0  0
  141.4869   71.9321  227.4619 H   0  0  0  0  0  0  0  0  0  0  0  0
  141.0740   71.5230  224.7940 C   0  0  0  0  0  0  0  0  0  0  0  0
  142.0721   71.1231  224.5620 H   0  0  0  0  0  0  0  0  0  0  0  0
  141.1165   72.5773  225.1049 H   0  0  0  0  0  0  0  0  0  0  0  0
  140.2450   71.4550  223.5750 N   0  0  0  0  0  0  0  0  0  0  0  0
  140.4980   72.4010  222.5140 C   0  0  0  0  0  0  0  0  0  0  0  0
  139.9870   73.6570  222.5780 N   0  0  0  0  0  0  0  0  0  0  0  0
  140.2100   74.5530  221.5820 C   0  0  0  0  0  0  0  0  0  0  0  0
  139.6760   75.8850  221.6930 N   0  0  0  0  0  0  0  0  0  0  0  0
  140.3740   77.0410  221.1130 C   0  0  0  0  0  0  0  0  0  0  0  0
  141.3727   76.7289  220.7737 H   0  0  0  0  0  0  0  0  0  0  0  0
  139.7891   77.4224  220.2630 H   0  0  0  0  0  0  0  0  0  0  0  0
  140.5200   78.1570  222.1600 C   0  0  0  0  0  0  0  0  0  0  0  0
  141.4047   77.9424  222.7775 H   0  0  0  0  0  0  0  0  0  0  0  0
  140.6160   79.1060  221.6122 H   0  0  0  0  0  0  0  0  0  0  0  0
  139.2940   78.2890  223.0900 C   0  0  0  0  0  0  0  0  0  0  0  0
  139.5492   77.8614  224.0708 H   0  0  0  0  0  0  0  0  0  0  0  0
  139.0472   79.3585  223.1628 H   0  0  0  0  0  0  0  0  0  0  0  0
  138.0550   77.5650  222.5470 C   0  0  0  0  0  0  0  0  0  0  0  0
  137.2327   77.6609  223.2713 H   0  0  0  0  0  0  0  0  0  0  0  0
  137.7683   78.0195  221.5872 H   0  0  0  0  0  0  0  0  0  0  0  0
  138.3600   76.0770  222.3220 C   0  0  0  0  0  0  0  0  0  0  0  0
  138.3488   75.5592  223.2925 H   0  0  0  0  0  0  0  0  0  0  0  0
  137.5929   75.6655  221.6495 H   0  0  0  0  0  0  0  0  0  0  0  0
  140.9800   74.1940  220.5160 N   0  0  0  0  0  0  0  0  0  0  0  0
  141.1980   74.9030  219.7840 H   0  0  0  0  0  0  0  0  0  0  0  0
  141.5000   72.9310  220.4420 C   0  0  0  0  0  0  0  0  0  0  0  0
  142.2410   72.5490  219.4420 N   0  0  0  0  0  0  0  0  0  0  0  0
  143.6800   72.7830  219.2960 C   0  0  0  0  0  0  0  0  0  0  0  0
  143.8806   72.3343  218.3119 H   0  0  0  0  0  0  0  0  0  0  0  0
  144.0710   74.2310  219.5720 C   0  0  0  0  0  0  0  0  0  0  0  0
  144.6998   74.6834  218.7910 H   0  0  0  0  0  0  0  0  0  0  0  0
  143.3000   75.0121  219.6461 H   0  0  0  0  0  0  0  0  0  0  0  0
  144.8390   73.7860  220.8080 C   0  0  0  0  0  0  0  0  0  0  0  0
  145.9215   73.9739  220.7551 H   0  0  0  0  0  0  0  0  0  0  0  0
  144.6305   74.2441  221.7861 H   0  0  0  0  0  0  0  0  0  0  0  0
  144.4460   72.3400  220.5370 C   0  0  0  0  0  0  0  0  0  0  0  0
  145.2966   71.6750  220.3265 H   0  0  0  0  0  0  0  0  0  0  0  0
  143.9488   71.7423  221.3152 H   0  0  0  0  0  0  0  0  0  0  0  0
  141.2510   72.0470  221.4410 N   0  0  0  0  0  0  0  0  0  0  0  0
  139.1430   70.4860  223.4300 C   0  0  0  0  0  0  0  0  0  0  0  0
  139.0723   70.1835  222.3748 H   0  0  0  0  0  0  0  0  0  0  0  0
  138.2156   70.9723  223.7667 H   0  0  0  0  0  0  0  0  0  0  0  0
  139.3620   69.2390  224.2880 C   0  0  0  0  0  0  0  0  0  0  0  0
  140.2031   68.6603  223.8785 H   0  0  0  0  0  0  0  0  0  0  0  0
  138.4446   68.6321  224.2764 H   0  0  0  0  0  0  0  0  0  0  0  0
  1  2  1  0
  2  3  2  0
  3  4  1  0
  3  5  1  0
  5  6  1  0
  5  7  2  0
  7  8  1  0
  8  9  2  0
  9 10  1  0
  8 11  1  0
 11 12  1  0
 11 13  1  0
 11 14  1  0
 14 15  1  0
 15 16  1  0
 16 17  2  0
 17 18  1  0
 18 19  1  0
 19 20  1  0
 19 21  1  0
 19 22  1  0
 22 23  1  0
 22 24  1  0
 22 25  1  0
 25 26  1  0
 25 27  1  0
 25 28  1  0
 28 29  1  0
 28 30  1  0
 28 31  1  0
 31 32  1  0
 31 33  1  0
 17 34  1  0
 34 35  1  0
 34 36  1  0
 36 37  2  0
 37 38  1  0
 38 39  1  0
 38 40  1  0
 40 41  1  0
 40 42  1  0
 40 43  1  0
 43 44  1  0
 43 45  1  0
 43 46  1  0
 46 47  1  0
 46 48  1  0
 36 49  1  0
 14 50  1  0
 50 51  1  0
 50 52  1  0
 50 53  1  0
 53 54  1  0
 53 55  1  0
  9  2  1  0
 49 15  2  0
 53  7  1  0
 31 18  1  0
 46 38  1  0
M  END
>  <UniqueID>  (24) 
484

>  <SMILES>  (24) 
c1ccc2c(c1)CCN(c1nc(N3CCCCC3)[nH]/c(=N\C3CCC3)n1)C2

>  <Energy>  (24) 
124.3069163040774

>  <Genealogy>  (24) 
c1ccc2c(c1)CCN(c1nc(N3CCCCC3)[nH]c(=NC3CCC3)n1)C2 (tautomer)
c1ccc2c(c1)CCN(c1nc(N3CCCCC3)[nH]/c(=N\C3CCC3)n1)C2 (cis-trans isomerization)
c1ccc2c(c1)CCN(c1nc(N3CCCCC3)[nH]/c(=N\C3CCC3)n1)C2 (3D coordinates assigned)
c1ccc2c(c1)CCN(c1nc(N3CCCCC3)[nH]/c(=N\C3CCC3)n1)C2 (nonaromatic ring conformer: 124.3069163040774 kcal/mol)

>  <smiles>  (24) 
c1ccc2c(c1)CCN(c1nc(NC3CCC3)nc(N3CCCCC3)n1)C2

>  <score_type>  (24) 
oracle

>  <origin>  (24) 
autodockgpu

>  <m_score__min__energy>  (24) 
-7.6799999999999997

>  <m_primary>  (24) 
energy

>  <meeko>  (24) 
{"free_energy": -7.53, "intermolecular_energy": -8.73, "internal_energy": -0.99, "cluster_size": 17, "cluster_id": 1, "rank_in_cluster": 17}

>  <energy>  (24) 
-7.67

>  <cluster_rmsd>  (24) 
0.39

>  <rmsd>  (24) 
269.78

>  <cluster>  (24) 
1

$$$$
JGFXCGHACWUNAV-OYOSFLFPNA-N
     RDKit          3D

 55 59  0  0  0  0  0  0  0  0999 V2000
  140.4405   70.5164  229.3622 H   0  0  0  0  0  0  0  0  0  0  0  0
  140.2150   70.2620  228.3160 C   0  0  0  0  0  0  0  0  0  0  0  0
  139.3970   69.1700  228.0270 C   0  0  0  0  0  0  0  0  0  0  0  0
  138.9769   68.5660  228.8447 H   0  0  0  0  0  0  0  0  0  0  0  0
  139.1110   68.8430  226.6990 C   0  0  0  0  0  0  0  0  0  0  0  0
  138.4764   67.9738  226.4714 H   0  0  0  0  0  0  0  0  0  0  0  0
  139.6330   69.6230  225.6550 C   0  0  0  0  0  0  0  0  0  0  0  0
  140.4540   70.7250  225.9440 C   0  0  0  0  0  0  0  0  0  0  0  0
  140.7490   71.0340  227.2810 C   0  0  0  0  0  0  0  0  0  0  0  0
  141.4030   71.8870  227.5149 H   0  0  0  0  0  0  0  0  0  0  0  0
  141.0700   71.5320  224.8280 C   0  0  0  0  0  0  0  0  0  0  0  0
  142.0732   71.1322  224.6187 H   0  0  0  0  0  0  0  0  0  0  0  0
  141.1069   72.5797  225.1611 H   0  0  0  0  0  0  0  0  0  0  0  0
  140.2780   71.4920  223.5820 N   0  0  0  0  0  0  0  0  0  0  0  0
  140.5660   72.4570  222.5490 C   0  0  0  0  0  0  0  0  0  0  0  0
  139.9970   73.6890  222.5810 N   0  0  0  0  0  0  0  0  0  0  0  0
  140.2540   74.6020  221.6100 C   0  0  0  0  0  0  0  0  0  0  0  0
  139.6540   75.9090  221.6880 N   0  0  0  0  0  0  0  0  0  0  0  0
  140.3430   77.1000  221.1720 C   0  0  0  0  0  0  0  0  0  0  0  0
  141.3774   76.8348  220.9080 H   0  0  0  0  0  0  0  0  0  0  0  0
  139.8084   77.4650  220.2826 H   0  0  0  0  0  0  0  0  0  0  0  0
  140.3600   78.2100  222.2350 C   0  0  0  0  0  0  0  0  0  0  0  0
  141.2030   78.0268  222.9175 H   0  0  0  0  0  0  0  0  0  0  0  0
  140.4572   79.1682  221.7036 H   0  0  0  0  0  0  0  0  0  0  0  0
  139.0610   78.2790  223.0680 C   0  0  0  0  0  0  0  0  0  0  0  0
  139.2587   77.8529  224.0627 H   0  0  0  0  0  0  0  0  0  0  0  0
  138.7626   79.3361  223.1278 H   0  0  0  0  0  0  0  0  0  0  0  0
  137.9000   77.5080  222.4270 C   0  0  0  0  0  0  0  0  0  0  0  0
  137.0215   77.5607  223.0870 H   0  0  0  0  0  0  0  0  0  0  0  0
  137.6670   77.9595  221.4514 H   0  0  0  0  0  0  0  0  0  0  0  0
  138.2870   76.0370  222.2160 C   0  0  0  0  0  0  0  0  0  0  0  0
  138.2252   75.5095  223.1793 H   0  0  0  0  0  0  0  0  0  0  0  0
  137.5922   75.5992  221.4842 H   0  0  0  0  0  0  0  0  0  0  0  0
  141.1150   74.2860  220.6020 N   0  0  0  0  0  0  0  0  0  0  0  0
  141.3540   75.0110  219.8920 H   0  0  0  0  0  0  0  0  0  0  0  0
  141.6940   73.0480  220.5600 C   0  0  0  0  0  0  0  0  0  0  0  0
  142.5230   72.7080  219.6140 N   0  0  0  0  0  0  0  0  0  0  0  0
  143.8920   73.2030  219.4490 C   0  0  0  0  0  0  0  0  0  0  0  0
  143.9260   73.4103  218.3693 H   0  0  0  0  0  0  0  0  0  0  0  0
  144.2460   74.2970  220.4510 C   0  0  0  0  0  0  0  0  0  0  0  0
  144.6869   75.1967  219.9970 H   0  0  0  0  0  0  0  0  0  0  0  0
  143.4606   74.7760  221.0541 H   0  0  0  0  0  0  0  0  0  0  0  0
  145.2610   73.3680  221.1030 C   0  0  0  0  0  0  0  0  0  0  0  0
  146.3011   73.7188  221.0310 H   0  0  0  0  0  0  0  0  0  0  0  0
  145.2186   73.1703  222.1843 H   0  0  0  0  0  0  0  0  0  0  0  0
  144.9050   72.2730  220.1070 C   0  0  0  0  0  0  0  0  0  0  0  0
  145.7356   71.9762  219.4497 H   0  0  0  0  0  0  0  0  0  0  0  0
  144.5999   71.2767  220.4596 H   0  0  0  0  0  0  0  0  0  0  0  0
  141.4110   72.1460  221.5320 N   0  0  0  0  0  0  0  0  0  0  0  0
  139.1780   70.5300  223.3850 C   0  0  0  0  0  0  0  0  0  0  0  0
  139.1383   70.2483  222.3224 H   0  0  0  0  0  0  0  0  0  0  0  0
  138.2424   71.0131  223.7032 H   0  0  0  0  0  0  0  0  0  0  0  0
  139.3670   69.2650  224.2250 C   0  0  0  0  0  0  0  0  0  0  0  0
  140.2188   68.6917  223.8304 H   0  0  0  0  0  0  0  0  0  0  0  0
  138.4488   68.6615  224.1730 H   0  0  0  0  0  0  0  0  0  0  0  0
  1  2  1  0
  2  3  2  0
  3  4  1  0
  3  5  1  0
  5  6  1  0
  5  7  2  0
  7  8  1  0
  8  9  2  0
  9 10  1  0
  8 11  1  0
 11 12  1  0
 11 13  1  0
 11 14  1  0
 14 15  1  0
 15 16  1  0
 16 17  2  0
 17 18  1  0
 18 19  1  0
 19 20  1  0
 19 21  1  0
 19 22  1  0
 22 23  1  0
 22 24  1  0
 22 25  1  0
 25 26  1  0
 25 27  1  0
 25 28  1  0
 28 29  1  0
 28 30  1  0
 28 31  1  0
 31 32  1  0
 31 33  1  0
 17 34  1  0
 34 35  1  0
 34 36  1  0
 36 37  2  0
 37 38  1  0
 38 39  1  0
 38 40  1  0
 40 41  1  0
 40 42  1  0
 40 43  1  0
 43 44  1  0
 43 45  1  0
 43 46  1  0
 46 47  1  0
 46 48  1  0
 36 49  1  0
 14 50  1  0
 50 51  1  0
 50 52  1  0
 50 53  1  0
 53 54  1  0
 53 55  1  0
  9  2  1  0
 49 15  2  0
 53  7  1  0
 31 18  1  0
 46 38  1  0
M  END
>  <UniqueID>  (25) 
484

>  <SMILES>  (25) 
c1ccc2c(c1)CCN(c1nc(N3CCCCC3)[nH]/c(=N\C3CCC3)n1)C2

>  <Energy>  (25) 
124.3069163040774

>  <Genealogy>  (25) 
c1ccc2c(c1)CCN(c1nc(N3CCCCC3)[nH]c(=NC3CCC3)n1)C2 (tautomer)
c1ccc2c(c1)CCN(c1nc(N3CCCCC3)[nH]/c(=N\C3CCC3)n1)C2 (cis-trans isomerization)
c1ccc2c(c1)CCN(c1nc(N3CCCCC3)[nH]/c(=N\C3CCC3)n1)C2 (3D coordinates assigned)
c1ccc2c(c1)CCN(c1nc(N3CCCCC3)[nH]/c(=N\C3CCC3)n1)C2 (nonaromatic ring conformer: 124.3069163040774 kcal/mol)

>  <smiles>  (25) 
c1ccc2c(c1)CCN(c1nc(NC3CCC3)nc(N3CCCCC3)n1)C2

>  <score_type>  (25) 
oracle

>  <origin>  (25) 
autodockgpu

>  <m_score__min__energy>  (25) 
-7.6799999999999997

>  <m_primary>  (25) 
energy

>  <meeko>  (25) 
{"free_energy": -7.65, "intermolecular_energy": -8.84, "internal_energy": -0.93, "cluster_size": 17, "cluster_id": 1, "rank_in_cluster": 9}

>  <energy>  (25) 
-7.67

>  <cluster_rmsd>  (25) 
0.33

>  <rmsd>  (25) 
269.74

>  <cluster>  (25) 
1

$$$$
JGFXCGHACWUNAV-OYOSFLFPNA-N
     RDKit          3D

 55 59  0  0  0  0  0  0  0  0999 V2000
  140.2674   70.6509  229.3847 H   0  0  0  0  0  0  0  0  0  0  0  0
  140.0860   70.3690  228.3370 C   0  0  0  0  0  0  0  0  0  0  0  0
  139.2860   69.2640  228.0420 C   0  0  0  0  0  0  0  0  0  0  0  0
  138.8371   68.6770  228.8569 H   0  0  0  0  0  0  0  0  0  0  0  0
  139.0550   68.9030  226.7120 C   0  0  0  0  0  0  0  0  0  0  0  0
  138.4339   68.0250  226.4809 H   0  0  0  0  0  0  0  0  0  0  0  0
  139.6150   69.6600  225.6700 C   0  0  0  0  0  0  0  0  0  0  0  0
  140.4180   70.7740  225.9650 C   0  0  0  0  0  0  0  0  0  0  0  0
  140.6570   71.1180  227.3050 C   0  0  0  0  0  0  0  0  0  0  0  0
  141.2964   71.9807  227.5434 H   0  0  0  0  0  0  0  0  0  0  0  0
  141.0740   71.5570  224.8550 C   0  0  0  0  0  0  0  0  0  0  0  0
  142.0869   71.1586  224.6961 H   0  0  0  0  0  0  0  0  0  0  0  0
  141.0919   72.6129  225.1630 H   0  0  0  0  0  0  0  0  0  0  0  0
  140.3330   71.4810  223.5800 N   0  0  0  0  0  0  0  0  0  0  0  0
  140.6580   72.4220  222.5350 C   0  0  0  0  0  0  0  0  0  0  0  0
  140.0800   73.6500  222.5120 N   0  0  0  0  0  0  0  0  0  0  0  0
  140.3710   74.5400  221.5290 C   0  0  0  0  0  0  0  0  0  0  0  0
  139.7600   75.8440  221.5500 N   0  0  0  0  0  0  0  0  0  0  0  0
  140.3620   76.9830  220.8440 C   0  0  0  0  0  0  0  0  0  0  0  0
  141.3640   76.7009  220.4885 H   0  0  0  0  0  0  0  0  0  0  0  0
  139.7218   77.2541  219.9916 H   0  0  0  0  0  0  0  0  0  0  0  0
  140.4800   78.1930  221.7850 C   0  0  0  0  0  0  0  0  0  0  0  0
  141.3989   78.0844  222.3798 H   0  0  0  0  0  0  0  0  0  0  0  0
  140.4979   79.0948  221.1554 H   0  0  0  0  0  0  0  0  0  0  0  0
  139.2840   78.3340  222.7520 C   0  0  0  0  0  0  0  0  0  0  0  0
  139.6021   78.0093  223.7537 H   0  0  0  0  0  0  0  0  0  0  0  0
  138.9747   79.3896  222.7435 H   0  0  0  0  0  0  0  0  0  0  0  0
  138.0720   77.4950  222.3270 C   0  0  0  0  0  0  0  0  0  0  0  0
  137.2736   77.6062  223.0754 H   0  0  0  0  0  0  0  0  0  0  0  0
  137.7210   77.8462  221.3454 H   0  0  0  0  0  0  0  0  0  0  0  0
  138.4600   76.0130  222.2170 C   0  0  0  0  0  0  0  0  0  0  0  0
  138.5183   75.5828  223.2277 H   0  0  0  0  0  0  0  0  0  0  0  0
  137.6947   75.4996  221.6164 H   0  0  0  0  0  0  0  0  0  0  0  0
  141.2760   74.2060  220.5660 N   0  0  0  0  0  0  0  0  0  0  0  0
  141.5400   74.9150  219.8500 H   0  0  0  0  0  0  0  0  0  0  0  0
  141.8650   72.9720  220.5800 C   0  0  0  0  0  0  0  0  0  0  0  0
  142.7350   72.6140  219.6800 N   0  0  0  0  0  0  0  0  0  0  0  0
  144.0530   73.2170  219.4670 C   0  0  0  0  0  0  0  0  0  0  0  0
  144.0237   73.4450  218.3913 H   0  0  0  0  0  0  0  0  0  0  0  0
  144.3650   74.3180  220.4760 C   0  0  0  0  0  0  0  0  0  0  0  0
  144.7152   75.2571  220.0227 H   0  0  0  0  0  0  0  0  0  0  0  0
  143.5722   74.7241  221.1214 H   0  0  0  0  0  0  0  0  0  0  0  0
  145.4760   73.4590  221.0650 C   0  0  0  0  0  0  0  0  0  0  0  0
  146.4819   73.8907  220.9568 H   0  0  0  0  0  0  0  0  0  0  0  0
  145.4961   73.2393  222.1427 H   0  0  0  0  0  0  0  0  0  0  0  0
  145.1620   72.3580  220.0620 C   0  0  0  0  0  0  0  0  0  0  0  0
  145.9835   72.1385  219.3642 H   0  0  0  0  0  0  0  0  0  0  0  0
  144.9501   71.3350  220.4062 H   0  0  0  0  0  0  0  0  0  0  0  0
  141.5470   72.0920  221.5620 N   0  0  0  0  0  0  0  0  0  0  0  0
  139.2470   70.5080  223.3620 C   0  0  0  0  0  0  0  0  0  0  0  0
  139.2524   70.1999  222.3060 H   0  0  0  0  0  0  0  0  0  0  0  0
  138.2965   70.9930  223.6292 H   0  0  0  0  0  0  0  0  0  0  0  0
  139.4080   69.2660  224.2400 C   0  0  0  0  0  0  0  0  0  0  0  0
  140.2775   68.6879  223.8940 H   0  0  0  0  0  0  0  0  0  0  0  0
  138.4951   68.6567  224.1666 H   0  0  0  0  0  0  0  0  0  0  0  0
  1  2  1  0
  2  3  2  0
  3  4  1  0
  3  5  1  0
  5  6  1  0
  5  7  2  0
  7  8  1  0
  8  9  2  0
  9 10  1  0
  8 11  1  0
 11 12  1  0
 11 13  1  0
 11 14  1  0
 14 15  1  0
 15 16  1  0
 16 17  2  0
 17 18  1  0
 18 19  1  0
 19 20  1  0
 19 21  1  0
 19 22  1  0
 22 23  1  0
 22 24  1  0
 22 25  1  0
 25 26  1  0
 25 27  1  0
 25 28  1  0
 28 29  1  0
 28 30  1  0
 28 31  1  0
 31 32  1  0
 31 33  1  0
 17 34  1  0
 34 35  1  0
 34 36  1  0
 36 37  2  0
 37 38  1  0
 38 39  1  0
 38 40  1  0
 40 41  1  0
 40 42  1  0
 40 43  1  0
 43 44  1  0
 43 45  1  0
 43 46  1  0
 46 47  1  0
 46 48  1  0
 36 49  1  0
 14 50  1  0
 50 51  1  0
 50 52  1  0
 50 53  1  0
 53 54  1  0
 53 55  1  0
  9  2  1  0
 49 15  2  0
 53  7  1  0
 31 18  1  0
 46 38  1  0
M  END
>  <UniqueID>  (26) 
484

>  <SMILES>  (26) 
c1ccc2c(c1)CCN(c1nc(N3CCCCC3)[nH]/c(=N\C3CCC3)n1)C2

>  <Energy>  (26) 
124.3069163040774

>  <Genealogy>  (26) 
c1ccc2c(c1)CCN(c1nc(N3CCCCC3)[nH]c(=NC3CCC3)n1)C2 (tautomer)
c1ccc2c(c1)CCN(c1nc(N3CCCCC3)[nH]/c(=N\C3CCC3)n1)C2 (cis-trans isomerization)
c1ccc2c(c1)CCN(c1nc(N3CCCCC3)[nH]/c(=N\C3CCC3)n1)C2 (3D coordinates assigned)
c1ccc2c(c1)CCN(c1nc(N3CCCCC3)[nH]/c(=N\C3CCC3)n1)C2 (nonaromatic ring conformer: 124.3069163040774 kcal/mol)

>  <smiles>  (26) 
c1ccc2c(c1)CCN(c1nc(NC3CCC3)nc(N3CCCCC3)n1)C2

>  <score_type>  (26) 
oracle

>  <origin>  (26) 
autodockgpu

>  <m_score__min__energy>  (26) 
-7.6799999999999997

>  <m_primary>  (26) 
energy

>  <meeko>  (26) 
{"free_energy": -7.67, "intermolecular_energy": -8.87, "internal_energy": -0.91, "cluster_size": 17, "cluster_id": 1, "rank_in_cluster": 2}

>  <energy>  (26) 
-7.67

>  <cluster_rmsd>  (26) 
0.38

>  <rmsd>  (26) 
269.78

>  <cluster>  (26) 
1

$$$$
JGFXCGHACWUNAV-OYOSFLFPNA-N
     RDKit          3D

 55 59  0  0  0  0  0  0  0  0999 V2000
  140.3175   70.5587  229.3778 H   0  0  0  0  0  0  0  0  0  0  0  0
  140.1240   70.2930  228.3280 C   0  0  0  0  0  0  0  0  0  0  0  0
  139.3150   69.1970  228.0260 C   0  0  0  0  0  0  0  0  0  0  0  0
  138.8719   68.6002  228.8369 H   0  0  0  0  0  0  0  0  0  0  0  0
  139.0680   68.8580  226.6940 C   0  0  0  0  0  0  0  0  0  0  0  0
  138.4387   67.9876  226.4564 H   0  0  0  0  0  0  0  0  0  0  0  0
  139.6220   69.6270  225.6570 C   0  0  0  0  0  0  0  0  0  0  0  0
  140.4340   70.7310  225.9590 C   0  0  0  0  0  0  0  0  0  0  0  0
  140.6890   71.0540  227.3020 C   0  0  0  0  0  0  0  0  0  0  0  0
  141.3360   71.9093  227.5466 H   0  0  0  0  0  0  0  0  0  0  0  0
  141.0840   71.5260  224.8550 C   0  0  0  0  0  0  0  0  0  0  0  0
  142.0929   71.1240  224.6805 H   0  0  0  0  0  0  0  0  0  0  0  0
  141.1116   72.5771  225.1782 H   0  0  0  0  0  0  0  0  0  0  0  0
  140.3300   71.4730  223.5860 N   0  0  0  0  0  0  0  0  0  0  0  0
  140.6500   72.4270  222.5520 C   0  0  0  0  0  0  0  0  0  0  0  0
  140.0500   73.6450  222.5310 N   0  0  0  0  0  0  0  0  0  0  0  0
  140.3360   74.5480  221.5580 C   0  0  0  0  0  0  0  0  0  0  0  0
  139.7010   75.8400  221.5800 N   0  0  0  0  0  0  0  0  0  0  0  0
  140.3000   76.9990  220.9050 C   0  0  0  0  0  0  0  0  0  0  0  0
  141.3157   76.7397  220.5716 H   0  0  0  0  0  0  0  0  0  0  0  0
  139.6770   77.2704  220.0400 H   0  0  0  0  0  0  0  0  0  0  0  0
  140.3720   78.1980  221.8650 C   0  0  0  0  0  0  0  0  0  0  0  0
  141.2774   78.0975  222.4816 H   0  0  0  0  0  0  0  0  0  0  0  0
  140.3891   79.1084  221.2478 H   0  0  0  0  0  0  0  0  0  0  0  0
  139.1500   78.3050  222.8030 C   0  0  0  0  0  0  0  0  0  0  0  0
  139.4485   77.9725  223.8082 H   0  0  0  0  0  0  0  0  0  0  0  0
  138.8221   79.3550  222.8006 H   0  0  0  0  0  0  0  0  0  0  0  0
  137.9640   77.4500  222.3360 C   0  0  0  0  0  0  0  0  0  0  0  0
  137.1452   77.5364  223.0654 H   0  0  0  0  0  0  0  0  0  0  0  0
  137.6311   77.8084  221.3508 H   0  0  0  0  0  0  0  0  0  0  0  0
  138.3820   75.9770  222.2160 C   0  0  0  0  0  0  0  0  0  0  0  0
  138.4228   75.5341  223.2221 H   0  0  0  0  0  0  0  0  0  0  0  0
  137.6416   75.4586  221.5891 H   0  0  0  0  0  0  0  0  0  0  0  0
  141.2580   74.2370  220.6030 N   0  0  0  0  0  0  0  0  0  0  0  0
  141.5170   74.9550  219.8950 H   0  0  0  0  0  0  0  0  0  0  0  0
  141.8690   73.0140  220.6150 C   0  0  0  0  0  0  0  0  0  0  0  0
  142.7560   72.6780  219.7220 N   0  0  0  0  0  0  0  0  0  0  0  0
  143.9840   73.4120  219.4100 C   0  0  0  0  0  0  0  0  0  0  0  0
  143.7953   73.7313  218.3744 H   0  0  0  0  0  0  0  0  0  0  0  0
  144.3410   74.4420  220.4770 C   0  0  0  0  0  0  0  0  0  0  0  0
  144.5551   75.4451  220.0796 H   0  0  0  0  0  0  0  0  0  0  0  0
  143.6115   74.7167  221.2531 H   0  0  0  0  0  0  0  0  0  0  0  0
  145.5820   73.6370  220.8350 C   0  0  0  0  0  0  0  0  0  0  0  0
  146.5286   74.1648  220.6468 H   0  0  0  0  0  0  0  0  0  0  0  0
  145.7605   73.3249  221.8746 H   0  0  0  0  0  0  0  0  0  0  0  0
  145.2250   72.6060  219.7740 C   0  0  0  0  0  0  0  0  0  0  0  0
  145.9618   72.5241  218.9613 H   0  0  0  0  0  0  0  0  0  0  0  0
  145.1404   71.5415  220.0378 H   0  0  0  0  0  0  0  0  0  0  0  0
  141.5560   72.1210  221.5870 N   0  0  0  0  0  0  0  0  0  0  0  0
  139.2360   70.5100  223.3650 C   0  0  0  0  0  0  0  0  0  0  0  0
  139.2287   70.2172  222.3047 H   0  0  0  0  0  0  0  0  0  0  0  0
  138.2911   70.9966  223.6485 H   0  0  0  0  0  0  0  0  0  0  0  0
  139.3990   69.2540  224.2240 C   0  0  0  0  0  0  0  0  0  0  0  0
  140.2620   68.6763  223.8613 H   0  0  0  0  0  0  0  0  0  0  0  0
  138.4824   68.6503  224.1509 H   0  0  0  0  0  0  0  0  0  0  0  0
  1  2  1  0
  2  3  2  0
  3  4  1  0
  3  5  1  0
  5  6  1  0
  5  7  2  0
  7  8  1  0
  8  9  2  0
  9 10  1  0
  8 11  1  0
 11 12  1  0
 11 13  1  0
 11 14  1  0
 14 15  1  0
 15 16  1  0
 16 17  2  0
 17 18  1  0
 18 19  1  0
 19 20  1  0
 19 21  1  0
 19 22  1  0
 22 23  1  0
 22 24  1  0
 22 25  1  0
 25 26  1  0
 25 27  1  0
 25 28  1  0
 28 29  1  0
 28 30  1  0
 28 31  1  0
 31 32  1  0
 31 33  1  0
 17 34  1  0
 34 35  1  0
 34 36  1  0
 36 37  2  0
 37 38  1  0
 38 39  1  0
 38 40  1  0
 40 41  1  0
 40 42  1  0
 40 43  1  0
 43 44  1  0
 43 45  1  0
 43 46  1  0
 46 47  1  0
 46 48  1  0
 36 49  1  0
 14 50  1  0
 50 51  1  0
 50 52  1  0
 50 53  1  0
 53 54  1  0
 53 55  1  0
  9  2  1  0
 49 15  2  0
 53  7  1  0
 31 18  1  0
 46 38  1  0
M  END
>  <UniqueID>  (27) 
484

>  <SMILES>  (27) 
c1ccc2c(c1)CCN(c1nc(N3CCCCC3)[nH]/c(=N\C3CCC3)n1)C2

>  <Energy>  (27) 
124.3069163040774

>  <Genealogy>  (27) 
c1ccc2c(c1)CCN(c1nc(N3CCCCC3)[nH]c(=NC3CCC3)n1)C2 (tautomer)
c1ccc2c(c1)CCN(c1nc(N3CCCCC3)[nH]/c(=N\C3CCC3)n1)C2 (cis-trans isomerization)
c1ccc2c(c1)CCN(c1nc(N3CCCCC3)[nH]/c(=N\C3CCC3)n1)C2 (3D coordinates assigned)
c1ccc2c(c1)CCN(c1nc(N3CCCCC3)[nH]/c(=N\C3CCC3)n1)C2 (nonaromatic ring conformer: 124.3069163040774 kcal/mol)

>  <smiles>  (27) 
c1ccc2c(c1)CCN(c1nc(NC3CCC3)nc(N3CCCCC3)n1)C2

>  <score_type>  (27) 
oracle

>  <origin>  (27) 
autodockgpu

>  <m_score__min__energy>  (27) 
-7.6799999999999997

>  <m_primary>  (27) 
energy

>  <meeko>  (27) 
{"free_energy": -7.67, "intermolecular_energy": -8.86, "internal_energy": -0.88, "cluster_size": 17, "cluster_id": 1, "rank_in_cluster": 6}

>  <energy>  (27) 
-7.66

>  <cluster_rmsd>  (27) 
0.41

>  <rmsd>  (27) 
269.76

>  <cluster>  (27) 
1

$$$$
JGFXCGHACWUNAV-OYOSFLFPNA-N
     RDKit          3D

 55 59  0  0  0  0  0  0  0  0999 V2000
  140.3430   70.5833  229.3722 H   0  0  0  0  0  0  0  0  0  0  0  0
  140.1590   70.3050  228.3240 C   0  0  0  0  0  0  0  0  0  0  0  0
  139.3900   69.1790  228.0280 C   0  0  0  0  0  0  0  0  0  0  0  0
  138.9680   68.5717  228.8423 H   0  0  0  0  0  0  0  0  0  0  0  0
  139.1560   68.8230  226.6980 C   0  0  0  0  0  0  0  0  0  0  0  0
  138.5589   67.9289  226.4656 H   0  0  0  0  0  0  0  0  0  0  0  0
  139.6820   69.6050  225.6570 C   0  0  0  0  0  0  0  0  0  0  0  0
  140.4530   70.7400  225.9520 C   0  0  0  0  0  0  0  0  0  0  0  0
  140.6960   71.0800  227.2930 C   0  0  0  0  0  0  0  0  0  0  0  0
  141.3114   71.9598  227.5323 H   0  0  0  0  0  0  0  0  0  0  0  0
  141.0740   71.5520  224.8430 C   0  0  0  0  0  0  0  0  0  0  0  0
  142.0968   71.1859  224.6705 H   0  0  0  0  0  0  0  0  0  0  0  0
  141.0639   72.6053  225.1600 H   0  0  0  0  0  0  0  0  0  0  0  0
  140.3220   71.4640  223.5750 N   0  0  0  0  0  0  0  0  0  0  0  0
  140.6080   72.4230  222.5350 C   0  0  0  0  0  0  0  0  0  0  0  0
  140.0240   73.6490  222.5520 N   0  0  0  0  0  0  0  0  0  0  0  0
  140.2780   74.5570  221.5740 C   0  0  0  0  0  0  0  0  0  0  0  0
  139.6630   75.8570  221.6370 N   0  0  0  0  0  0  0  0  0  0  0  0
  140.3140   77.0410  221.0600 C   0  0  0  0  0  0  0  0  0  0  0  0
  141.3412   76.7818  220.7639 H   0  0  0  0  0  0  0  0  0  0  0  0
  139.7399   77.3719  220.1820 H   0  0  0  0  0  0  0  0  0  0  0  0
  140.3560   78.1830  222.0880 C   0  0  0  0  0  0  0  0  0  0  0  0
  141.2265   78.0313  222.7432 H   0  0  0  0  0  0  0  0  0  0  0  0
  140.4205   79.1260  221.5253 H   0  0  0  0  0  0  0  0  0  0  0  0
  139.0880   78.2600  222.9670 C   0  0  0  0  0  0  0  0  0  0  0  0
  139.3288   77.8669  223.9657 H   0  0  0  0  0  0  0  0  0  0  0  0
  138.7770   79.3144  223.0062 H   0  0  0  0  0  0  0  0  0  0  0  0
  137.9150   77.4550  222.3940 C   0  0  0  0  0  0  0  0  0  0  0  0
  137.0612   77.5165  223.0848 H   0  0  0  0  0  0  0  0  0  0  0  0
  137.6391   77.8733  221.4148 H   0  0  0  0  0  0  0  0  0  0  0  0
  138.3150   75.9830  222.2130 C   0  0  0  0  0  0  0  0  0  0  0  0
  138.2974   75.4847  223.1935 H   0  0  0  0  0  0  0  0  0  0  0  0
  137.5994   75.5135  221.5220 H   0  0  0  0  0  0  0  0  0  0  0  0
  141.1500   74.2420  220.5760 N   0  0  0  0  0  0  0  0  0  0  0  0
  141.3870   74.9630  219.8620 H   0  0  0  0  0  0  0  0  0  0  0  0
  141.7440   73.0100  220.5490 C   0  0  0  0  0  0  0  0  0  0  0  0
  142.5840   72.6710  219.6130 N   0  0  0  0  0  0  0  0  0  0  0  0
  143.9260   73.2250  219.4170 C   0  0  0  0  0  0  0  0  0  0  0  0
  143.9174   73.4576  218.3419 H   0  0  0  0  0  0  0  0  0  0  0  0
  144.2680   74.3100  220.4340 C   0  0  0  0  0  0  0  0  0  0  0  0
  144.6588   75.2367  219.9884 H   0  0  0  0  0  0  0  0  0  0  0  0
  143.4838   74.7436  221.0719 H   0  0  0  0  0  0  0  0  0  0  0  0
  145.3380   73.4080  221.0320 C   0  0  0  0  0  0  0  0  0  0  0  0
  146.3607   73.8018  220.9370 H   0  0  0  0  0  0  0  0  0  0  0  0
  145.3369   73.1842  222.1090 H   0  0  0  0  0  0  0  0  0  0  0  0
  144.9950   72.3230  220.0220 C   0  0  0  0  0  0  0  0  0  0  0  0
  145.8159   72.0749  219.3331 H   0  0  0  0  0  0  0  0  0  0  0  0
  144.7408   71.3076  220.3601 H   0  0  0  0  0  0  0  0  0  0  0  0
  141.4640   72.1130  221.5270 N   0  0  0  0  0  0  0  0  0  0  0  0
  139.2640   70.4600  223.3600 C   0  0  0  0  0  0  0  0  0  0  0  0
  139.2671   70.1614  222.3013 H   0  0  0  0  0  0  0  0  0  0  0  0
  138.3021   70.9131  223.6418 H   0  0  0  0  0  0  0  0  0  0  0  0
  139.4730   69.2160  224.2250 C   0  0  0  0  0  0  0  0  0  0  0  0
  140.3568   68.6687  223.8653 H   0  0  0  0  0  0  0  0  0  0  0  0
  138.5794   68.5783  224.1551 H   0  0  0  0  0  0  0  0  0  0  0  0
  1  2  1  0
  2  3  2  0
  3  4  1  0
  3  5  1  0
  5  6  1  0
  5  7  2  0
  7  8  1  0
  8  9  2  0
  9 10  1  0
  8 11  1  0
 11 12  1  0
 11 13  1  0
 11 14  1  0
 14 15  1  0
 15 16  1  0
 16 17  2  0
 17 18  1  0
 18 19  1  0
 19 20  1  0
 19 21  1  0
 19 22  1  0
 22 23  1  0
 22 24  1  0
 22 25  1  0
 25 26  1  0
 25 27  1  0
 25 28  1  0
 28 29  1  0
 28 30  1  0
 28 31  1  0
 31 32  1  0
 31 33  1  0
 17 34  1  0
 34 35  1  0
 34 36  1  0
 36 37  2  0
 37 38  1  0
 38 39  1  0
 38 40  1  0
 40 41  1  0
 40 42  1  0
 40 43  1  0
 43 44  1  0
 43 45  1  0
 43 46  1  0
 46 47  1  0
 46 48  1  0
 36 49  1  0
 14 50  1  0
 50 51  1  0
 50 52  1  0
 50 53  1  0
 53 54  1  0
 53 55  1  0
  9  2  1  0
 49 15  2  0
 53  7  1  0
 31 18  1  0
 46 38  1  0
M  END
>  <UniqueID>  (28) 
484

>  <SMILES>  (28) 
c1ccc2c(c1)CCN(c1nc(N3CCCCC3)[nH]/c(=N\C3CCC3)n1)C2

>  <Energy>  (28) 
124.3069163040774

>  <Genealogy>  (28) 
c1ccc2c(c1)CCN(c1nc(N3CCCCC3)[nH]c(=NC3CCC3)n1)C2 (tautomer)
c1ccc2c(c1)CCN(c1nc(N3CCCCC3)[nH]/c(=N\C3CCC3)n1)C2 (cis-trans isomerization)
c1ccc2c(c1)CCN(c1nc(N3CCCCC3)[nH]/c(=N\C3CCC3)n1)C2 (3D coordinates assigned)
c1ccc2c(c1)CCN(c1nc(N3CCCCC3)[nH]/c(=N\C3CCC3)n1)C2 (nonaromatic ring conformer: 124.3069163040774 kcal/mol)

>  <smiles>  (28) 
c1ccc2c(c1)CCN(c1nc(NC3CCC3)nc(N3CCCCC3)n1)C2

>  <score_type>  (28) 
oracle

>  <origin>  (28) 
autodockgpu

>  <m_score__min__energy>  (28) 
-7.6799999999999997

>  <m_primary>  (28) 
energy

>  <meeko>  (28) 
{"free_energy": -7.66, "intermolecular_energy": -8.85, "internal_energy": -0.92, "cluster_size": 17, "cluster_id": 1, "rank_in_cluster": 8}

>  <energy>  (28) 
-7.66

>  <cluster_rmsd>  (28) 
0.39

>  <rmsd>  (28) 
269.77

>  <cluster>  (28) 
1

$$$$
JGFXCGHACWUNAV-OYOSFLFPNA-N
     RDKit          3D

 55 59  0  0  0  0  0  0  0  0999 V2000
  140.5368   70.6369  229.3665 H   0  0  0  0  0  0  0  0  0  0  0  0
  140.2980   70.3530  228.3310 C   0  0  0  0  0  0  0  0  0  0  0  0
  139.4930   69.2400  228.0820 C   0  0  0  0  0  0  0  0  0  0  0  0
  139.0972   68.6487  228.9209 H   0  0  0  0  0  0  0  0  0  0  0  0
  139.1900   68.8770  226.7670 C   0  0  0  0  0  0  0  0  0  0  0  0
  138.5647   67.9935  226.5712 H   0  0  0  0  0  0  0  0  0  0  0  0
  139.6830   69.6390  225.6950 C   0  0  0  0  0  0  0  0  0  0  0  0
  140.4890   70.7610  225.9440 C   0  0  0  0  0  0  0  0  0  0  0  0
  140.8010   71.1070  227.2680 C   0  0  0  0  0  0  0  0  0  0  0  0
  141.4446   71.9760  227.4696 H   0  0  0  0  0  0  0  0  0  0  0  0
  141.0730   71.5500  224.7990 C   0  0  0  0  0  0  0  0  0  0  0  0
  142.0793   71.1619  224.5830 H   0  0  0  0  0  0  0  0  0  0  0  0
  141.0975   72.6061  225.1056 H   0  0  0  0  0  0  0  0  0  0  0  0
  140.2620   71.4660  223.5680 N   0  0  0  0  0  0  0  0  0  0  0  0
  140.5170   72.4100  222.5070 C   0  0  0  0  0  0  0  0  0  0  0  0
  140.0030   73.6650  222.5650 N   0  0  0  0  0  0  0  0  0  0  0  0
  140.2280   74.5590  221.5680 C   0  0  0  0  0  0  0  0  0  0  0  0
  139.6900   75.8900  221.6740 N   0  0  0  0  0  0  0  0  0  0  0  0
  140.3740   77.0430  221.0730 C   0  0  0  0  0  0  0  0  0  0  0  0
  141.3686   76.7316  220.7212 H   0  0  0  0  0  0  0  0  0  0  0  0
  139.7741   77.4141  220.2290 H   0  0  0  0  0  0  0  0  0  0  0  0
  140.5320   78.1700  222.1070 C   0  0  0  0  0  0  0  0  0  0  0  0
  141.4258   77.9641  222.7142 H   0  0  0  0  0  0  0  0  0  0  0  0
  140.6185   79.1142  221.5494 H   0  0  0  0  0  0  0  0  0  0  0  0
  139.3180   78.3060  223.0520 C   0  0  0  0  0  0  0  0  0  0  0  0
  139.5887   77.8895  224.0334 H   0  0  0  0  0  0  0  0  0  0  0  0
  139.0676   79.3752  223.1161 H   0  0  0  0  0  0  0  0  0  0  0  0
  138.0740   77.5720  222.5350 C   0  0  0  0  0  0  0  0  0  0  0  0
  137.2621   77.6719  223.2704 H   0  0  0  0  0  0  0  0  0  0  0  0
  137.7704   78.0155  221.5753 H   0  0  0  0  0  0  0  0  0  0  0  0
  138.3830   76.0830  222.3210 C   0  0  0  0  0  0  0  0  0  0  0  0
  138.3891   75.5756  223.2970 H   0  0  0  0  0  0  0  0  0  0  0  0
  137.6078   75.6611  221.6645 H   0  0  0  0  0  0  0  0  0  0  0  0
  141.0040   74.2000  220.5070 N   0  0  0  0  0  0  0  0  0  0  0  0
  141.2230   74.9080  219.7750 H   0  0  0  0  0  0  0  0  0  0  0  0
  141.5280   72.9380  220.4380 C   0  0  0  0  0  0  0  0  0  0  0  0
  142.2740   72.5560  219.4420 N   0  0  0  0  0  0  0  0  0  0  0  0
  143.7060   72.8220  219.2860 C   0  0  0  0  0  0  0  0  0  0  0  0
  143.8941   72.4432  218.2706 H   0  0  0  0  0  0  0  0  0  0  0  0
  144.0810   74.2550  219.6520 C   0  0  0  0  0  0  0  0  0  0  0  0
  144.6879   74.7687  218.8919 H   0  0  0  0  0  0  0  0  0  0  0  0
  143.3000   75.0168  219.7925 H   0  0  0  0  0  0  0  0  0  0  0  0
  144.8790   73.7410  220.8410 C   0  0  0  0  0  0  0  0  0  0  0  0
  145.9574   73.9494  220.7813 H   0  0  0  0  0  0  0  0  0  0  0  0
  144.6828   74.1292  221.8514 H   0  0  0  0  0  0  0  0  0  0  0  0
  144.5020   72.3100  220.4800 C   0  0  0  0  0  0  0  0  0  0  0  0
  145.3582   71.6744  220.2099 H   0  0  0  0  0  0  0  0  0  0  0  0
  144.0285   71.6538  221.2251 H   0  0  0  0  0  0  0  0  0  0  0  0
  141.2760   72.0560  221.4370 N   0  0  0  0  0  0  0  0  0  0  0  0
  139.1750   70.4820  223.4120 C   0  0  0  0  0  0  0  0  0  0  0  0
  139.1230   70.1738  222.3573 H   0  0  0  0  0  0  0  0  0  0  0  0
  138.2364   70.9573  223.7331 H   0  0  0  0  0  0  0  0  0  0  0  0
  139.3990   69.2420  224.2790 C   0  0  0  0  0  0  0  0  0  0  0  0
  140.2535   68.6730  223.8838 H   0  0  0  0  0  0  0  0  0  0  0  0
  138.4901   68.6228  224.2576 H   0  0  0  0  0  0  0  0  0  0  0  0
  1  2  1  0
  2  3  2  0
  3  4  1  0
  3  5  1  0
  5  6  1  0
  5  7  2  0
  7  8  1  0
  8  9  2  0
  9 10  1  0
  8 11  1  0
 11 12  1  0
 11 13  1  0
 11 14  1  0
 14 15  1  0
 15 16  1  0
 16 17  2  0
 17 18  1  0
 18 19  1  0
 19 20  1  0
 19 21  1  0
 19 22  1  0
 22 23  1  0
 22 24  1  0
 22 25  1  0
 25 26  1  0
 25 27  1  0
 25 28  1  0
 28 29  1  0
 28 30  1  0
 28 31  1  0
 31 32  1  0
 31 33  1  0
 17 34  1  0
 34 35  1  0
 34 36  1  0
 36 37  2  0
 37 38  1  0
 38 39  1  0
 38 40  1  0
 40 41  1  0
 40 42  1  0
 40 43  1  0
 43 44  1  0
 43 45  1  0
 43 46  1  0
 46 47  1  0
 46 48  1  0
 36 49  1  0
 14 50  1  0
 50 51  1  0
 50 52  1  0
 50 53  1  0
 53 54  1  0
 53 55  1  0
  9  2  1  0
 49 15  2  0
 53  7  1  0
 31 18  1  0
 46 38  1  0
M  END
>  <UniqueID>  (29) 
484

>  <SMILES>  (29) 
c1ccc2c(c1)CCN(c1nc(N3CCCCC3)[nH]/c(=N\C3CCC3)n1)C2

>  <Energy>  (29) 
124.3069163040774

>  <Genealogy>  (29) 
c1ccc2c(c1)CCN(c1nc(N3CCCCC3)[nH]c(=NC3CCC3)n1)C2 (tautomer)
c1ccc2c(c1)CCN(c1nc(N3CCCCC3)[nH]/c(=N\C3CCC3)n1)C2 (cis-trans isomerization)
c1ccc2c(c1)CCN(c1nc(N3CCCCC3)[nH]/c(=N\C3CCC3)n1)C2 (3D coordinates assigned)
c1ccc2c(c1)CCN(c1nc(N3CCCCC3)[nH]/c(=N\C3CCC3)n1)C2 (nonaromatic ring conformer: 124.3069163040774 kcal/mol)

>  <smiles>  (29) 
c1ccc2c(c1)CCN(c1nc(NC3CCC3)nc(N3CCCCC3)n1)C2

>  <score_type>  (29) 
oracle

>  <origin>  (29) 
autodockgpu

>  <m_score__min__energy>  (29) 
-7.6799999999999997

>  <m_primary>  (29) 
energy

>  <meeko>  (29) 
{"free_energy": -7.53, "intermolecular_energy": -8.73, "internal_energy": -0.98, "cluster_size": 17, "cluster_id": 1, "rank_in_cluster": 16}

>  <energy>  (29) 
-7.65

>  <cluster_rmsd>  (29) 
0.43

>  <rmsd>  (29) 
269.78

>  <cluster>  (29) 
1

$$$$
JGFXCGHACWUNAV-OYOSFLFPNA-N
     RDKit          3D

 55 59  0  0  0  0  0  0  0  0999 V2000
  141.9460   80.9318  224.7848 H   0  0  0  0  0  0  0  0  0  0  0  0
  141.8000   80.3860  223.8410 C   0  0  0  0  0  0  0  0  0  0  0  0
  141.8840   81.0650  222.6250 C   0  0  0  0  0  0  0  0  0  0  0  0
  142.0972   82.1440  222.6107 H   0  0  0  0  0  0  0  0  0  0  0  0
  141.6970   80.3730  221.4250 C   0  0  0  0  0  0  0  0  0  0  0  0
  141.7513   80.9105  220.4668 H   0  0  0  0  0  0  0  0  0  0  0  0
  141.4400   78.9930  221.4410 C   0  0  0  0  0  0  0  0  0  0  0  0
  141.3580   78.3080  222.6640 C   0  0  0  0  0  0  0  0  0  0  0  0
  141.5310   79.0150  223.8640 C   0  0  0  0  0  0  0  0  0  0  0  0
  141.4545   78.4878  224.8264 H   0  0  0  0  0  0  0  0  0  0  0  0
  141.0220   76.8380  222.6950 C   0  0  0  0  0  0  0  0  0  0  0  0
  139.9353   76.7295  222.8265 H   0  0  0  0  0  0  0  0  0  0  0  0
  141.5832   76.3897  223.5281 H   0  0  0  0  0  0  0  0  0  0  0  0
  141.4200   76.1290  221.4620 N   0  0  0  0  0  0  0  0  0  0  0  0
  141.4550   74.6870  221.4750 C   0  0  0  0  0  0  0  0  0  0  0  0
  140.6370   73.9880  222.3030 N   0  0  0  0  0  0  0  0  0  0  0  0
  140.6670   72.6300  222.3300 C   0  0  0  0  0  0  0  0  0  0  0  0
  139.7680   71.9190  223.2010 N   0  0  0  0  0  0  0  0  0  0  0  0
  140.1710   71.5190  224.5570 C   0  0  0  0  0  0  0  0  0  0  0  0
  141.2490   71.6982  224.6828 H   0  0  0  0  0  0  0  0  0  0  0  0
  139.6023   72.1118  225.2886 H   0  0  0  0  0  0  0  0  0  0  0  0
  139.8750   70.0270  224.7840 C   0  0  0  0  0  0  0  0  0  0  0  0
  140.7078   69.4392  224.3705 H   0  0  0  0  0  0  0  0  0  0  0  0
  139.7608   69.8792  225.8680 H   0  0  0  0  0  0  0  0  0  0  0  0
  138.5640   69.5550  224.1180 C   0  0  0  0  0  0  0  0  0  0  0  0
  138.8162   68.9737  223.2188 H   0  0  0  0  0  0  0  0  0  0  0  0
  138.0175   68.9494  224.8559 H   0  0  0  0  0  0  0  0  0  0  0  0
  137.6510   70.7190  223.7090 C   0  0  0  0  0  0  0  0  0  0  0  0
  136.7584   70.3198  223.2052 H   0  0  0  0  0  0  0  0  0  0  0  0
  137.3583   71.2768  224.6108 H   0  0  0  0  0  0  0  0  0  0  0  0
  138.3890   71.6680  222.7540 C   0  0  0  0  0  0  0  0  0  0  0  0
  138.4150   71.2166  221.7512 H   0  0  0  0  0  0  0  0  0  0  0  0
  137.8517   72.6277  222.7381 H   0  0  0  0  0  0  0  0  0  0  0  0
  141.5110   71.9600  221.4970 N   0  0  0  0  0  0  0  0  0  0  0  0
  141.4870   70.9180  221.4790 H   0  0  0  0  0  0  0  0  0  0  0  0
  142.3390   72.6540  220.6580 C   0  0  0  0  0  0  0  0  0  0  0  0
  143.1590   72.0510  219.8460 N   0  0  0  0  0  0  0  0  0  0  0  0
  144.6210   72.1390  219.8740 C   0  0  0  0  0  0  0  0  0  0  0  0
  144.9119   71.1367  219.5264 H   0  0  0  0  0  0  0  0  0  0  0  0
  145.1490   73.3800  219.1620 C   0  0  0  0  0  0  0  0  0  0  0  0
  145.9444   73.1743  218.4306 H   0  0  0  0  0  0  0  0  0  0  0  0
  144.4840   73.9841  218.5273 H   0  0  0  0  0  0  0  0  0  0  0  0
  145.6520   73.9250  220.4910 C   0  0  0  0  0  0  0  0  0  0  0  0
  146.7448   74.0384  220.5443 H   0  0  0  0  0  0  0  0  0  0  0  0
  145.3561   74.9299  220.8266 H   0  0  0  0  0  0  0  0  0  0  0  0
  145.1210   72.6900  221.2040 C   0  0  0  0  0  0  0  0  0  0  0  0
  145.8999   72.0764  221.6802 H   0  0  0  0  0  0  0  0  0  0  0  0
  144.4354   72.7913  222.0582 H   0  0  0  0  0  0  0  0  0  0  0  0
  142.3040   74.0100  220.6580 N   0  0  0  0  0  0  0  0  0  0  0  0
  141.8260   76.8500  220.2410 C   0  0  0  0  0  0  0  0  0  0  0  0
  141.5072   76.2694  219.3627 H   0  0  0  0  0  0  0  0  0  0  0  0
  142.9194   76.9684  220.2630 H   0  0  0  0  0  0  0  0  0  0  0  0
  141.2000   78.2440  220.1660 C   0  0  0  0  0  0  0  0  0  0  0  0
  140.1168   78.1466  220.0012 H   0  0  0  0  0  0  0  0  0  0  0  0
  141.6603   78.7978  219.3345 H   0  0  0  0  0  0  0  0  0  0  0  0
  1  2  1  0
  2  3  2  0
  3  4  1  0
  3  5  1  0
  5  6  1  0
  5  7  2  0
  7  8  1  0
  8  9  2  0
  9 10  1  0
  8 11  1  0
 11 12  1  0
 11 13  1  0
 11 14  1  0
 14 15  1  0
 15 16  1  0
 16 17  2  0
 17 18  1  0
 18 19  1  0
 19 20  1  0
 19 21  1  0
 19 22  1  0
 22 23  1  0
 22 24  1  0
 22 25  1  0
 25 26  1  0
 25 27  1  0
 25 28  1  0
 28 29  1  0
 28 30  1  0
 28 31  1  0
 31 32  1  0
 31 33  1  0
 17 34  1  0
 34 35  1  0
 34 36  1  0
 36 37  2  0
 37 38  1  0
 38 39  1  0
 38 40  1  0
 40 41  1  0
 40 42  1  0
 40 43  1  0
 43 44  1  0
 43 45  1  0
 43 46  1  0
 46 47  1  0
 46 48  1  0
 36 49  1  0
 14 50  1  0
 50 51  1  0
 50 52  1  0
 50 53  1  0
 53 54  1  0
 53 55  1  0
  9  2  1  0
 49 15  2  0
 53  7  1  0
 31 18  1  0
 46 38  1  0
M  END
>  <UniqueID>  (30) 
484

>  <SMILES>  (30) 
c1ccc2c(c1)CCN(c1nc(N3CCCCC3)[nH]/c(=N\C3CCC3)n1)C2

>  <Energy>  (30) 
124.3069163040774

>  <Genealogy>  (30) 
c1ccc2c(c1)CCN(c1nc(N3CCCCC3)[nH]c(=NC3CCC3)n1)C2 (tautomer)
c1ccc2c(c1)CCN(c1nc(N3CCCCC3)[nH]/c(=N\C3CCC3)n1)C2 (cis-trans isomerization)
c1ccc2c(c1)CCN(c1nc(N3CCCCC3)[nH]/c(=N\C3CCC3)n1)C2 (3D coordinates assigned)
c1ccc2c(c1)CCN(c1nc(N3CCCCC3)[nH]/c(=N\C3CCC3)n1)C2 (nonaromatic ring conformer: 124.3069163040774 kcal/mol)

>  <smiles>  (30) 
c1ccc2c(c1)CCN(c1nc(NC3CCC3)nc(N3CCCCC3)n1)C2

>  <score_type>  (30) 
oracle

>  <origin>  (30) 
autodockgpu

>  <m_score__min__energy>  (30) 
-7.6799999999999997

>  <m_primary>  (30) 
energy

>  <meeko>  (30) 
{"free_energy": -7.41, "intermolecular_energy": -8.6, "internal_energy": -0.98, "cluster_size": 3, "cluster_id": 2, "rank_in_cluster": 2}

>  <energy>  (30) 
-7.65

>  <cluster_rmsd>  (30) 
0.41

>  <rmsd>  (30) 
269.79

>  <cluster>  (30) 
1

$$$$
JGFXCGHACWUNAV-OYOSFLFPNA-N
     RDKit          3D

 55 59  0  0  0  0  0  0  0  0999 V2000
  140.3910   70.5479  229.3695 H   0  0  0  0  0  0  0  0  0  0  0  0
  140.1820   70.2850  228.3220 C   0  0  0  0  0  0  0  0  0  0  0  0
  139.3770   69.1830  228.0280 C   0  0  0  0  0  0  0  0  0  0  0  0
  138.9515   68.5794  228.8432 H   0  0  0  0  0  0  0  0  0  0  0  0
  139.1120   68.8470  226.6980 C   0  0  0  0  0  0  0  0  0  0  0  0
  138.4872   67.9717  226.4667 H   0  0  0  0  0  0  0  0  0  0  0  0
  139.6420   69.6250  225.6560 C   0  0  0  0  0  0  0  0  0  0  0  0
  140.4500   70.7350  225.9500 C   0  0  0  0  0  0  0  0  0  0  0  0
  140.7230   71.0550  227.2890 C   0  0  0  0  0  0  0  0  0  0  0  0
  141.3656   71.9157  227.5263 H   0  0  0  0  0  0  0  0  0  0  0  0
  141.0740   71.5400  224.8380 C   0  0  0  0  0  0  0  0  0  0  0  0
  142.0834   71.1476  224.6451 H   0  0  0  0  0  0  0  0  0  0  0  0
  141.0969   72.5900  225.1651 H   0  0  0  0  0  0  0  0  0  0  0  0
  140.3000   71.4860  223.5810 N   0  0  0  0  0  0  0  0  0  0  0  0
  140.5940   72.4470  222.5460 C   0  0  0  0  0  0  0  0  0  0  0  0
  140.0250   73.6790  222.5710 N   0  0  0  0  0  0  0  0  0  0  0  0
  140.2880   74.5890  221.5970 C   0  0  0  0  0  0  0  0  0  0  0  0
  139.6880   75.8960  221.6680 N   0  0  0  0  0  0  0  0  0  0  0  0
  140.3610   77.0780  221.1130 C   0  0  0  0  0  0  0  0  0  0  0  0
  141.3888   76.8096  220.8274 H   0  0  0  0  0  0  0  0  0  0  0  0
  139.8031   77.4259  220.2311 H   0  0  0  0  0  0  0  0  0  0  0  0
  140.4030   78.2070  222.1550 C   0  0  0  0  0  0  0  0  0  0  0  0
  141.2632   78.0370  222.8192 H   0  0  0  0  0  0  0  0  0  0  0  0
  140.4851   79.1554  221.6039 H   0  0  0  0  0  0  0  0  0  0  0  0
  139.1260   78.2900  223.0190 C   0  0  0  0  0  0  0  0  0  0  0  0
  139.3493   77.8822  224.0159 H   0  0  0  0  0  0  0  0  0  0  0  0
  138.8278   79.3477  223.0675 H   0  0  0  0  0  0  0  0  0  0  0  0
  137.9500   77.5060  222.4210 C   0  0  0  0  0  0  0  0  0  0  0  0
  137.0882   77.5697  223.1017 H   0  0  0  0  0  0  0  0  0  0  0  0
  137.6919   77.9395  221.4435 H   0  0  0  0  0  0  0  0  0  0  0  0
  138.3340   76.0320  222.2270 C   0  0  0  0  0  0  0  0  0  0  0  0
  138.2966   75.5219  223.2008 H   0  0  0  0  0  0  0  0  0  0  0  0
  137.6222   75.5803  221.5204 H   0  0  0  0  0  0  0  0  0  0  0  0
  141.1550   74.2690  220.5950 N   0  0  0  0  0  0  0  0  0  0  0  0
  141.3980   74.9910  219.8850 H   0  0  0  0  0  0  0  0  0  0  0  0
  141.7340   73.0310  220.5610 C   0  0  0  0  0  0  0  0  0  0  0  0
  142.5680   72.6870  219.6220 N   0  0  0  0  0  0  0  0  0  0  0  0
  143.9170   73.2240  219.4280 C   0  0  0  0  0  0  0  0  0  0  0  0
  143.9259   73.4191  218.3455 H   0  0  0  0  0  0  0  0  0  0  0  0
  144.2520   74.3410  220.4120 C   0  0  0  0  0  0  0  0  0  0  0  0
  144.6557   75.2492  219.9407 H   0  0  0  0  0  0  0  0  0  0  0  0
  143.4618   74.8015  221.0232 H   0  0  0  0  0  0  0  0  0  0  0  0
  145.3070   73.4530  221.0560 C   0  0  0  0  0  0  0  0  0  0  0  0
  146.3337   73.8366  220.9624 H   0  0  0  0  0  0  0  0  0  0  0  0
  145.2888   73.2663  222.1399 H   0  0  0  0  0  0  0  0  0  0  0  0
  144.9710   72.3360  220.0790 C   0  0  0  0  0  0  0  0  0  0  0  0
  145.7999   72.0590  219.4110 H   0  0  0  0  0  0  0  0  0  0  0  0
  144.7050   71.3344  220.4479 H   0  0  0  0  0  0  0  0  0  0  0  0
  141.4450   72.1320  221.5350 N   0  0  0  0  0  0  0  0  0  0  0  0
  139.2110   70.5130  223.3750 C   0  0  0  0  0  0  0  0  0  0  0  0
  139.1885   70.2243  222.3138 H   0  0  0  0  0  0  0  0  0  0  0  0
  138.2670   70.9900  223.6771 H   0  0  0  0  0  0  0  0  0  0  0  0
  139.3990   69.2560  224.2250 C   0  0  0  0  0  0  0  0  0  0  0  0
  140.2611   68.6876  223.8458 H   0  0  0  0  0  0  0  0  0  0  0  0
  138.4867   68.6444  224.1642 H   0  0  0  0  0  0  0  0  0  0  0  0
  1  2  1  0
  2  3  2  0
  3  4  1  0
  3  5  1  0
  5  6  1  0
  5  7  2  0
  7  8  1  0
  8  9  2  0
  9 10  1  0
  8 11  1  0
 11 12  1  0
 11 13  1  0
 11 14  1  0
 14 15  1  0
 15 16  1  0
 16 17  2  0
 17 18  1  0
 18 19  1  0
 19 20  1  0
 19 21  1  0
 19 22  1  0
 22 23  1  0
 22 24  1  0
 22 25  1  0
 25 26  1  0
 25 27  1  0
 25 28  1  0
 28 29  1  0
 28 30  1  0
 28 31  1  0
 31 32  1  0
 31 33  1  0
 17 34  1  0
 34 35  1  0
 34 36  1  0
 36 37  2  0
 37 38  1  0
 38 39  1  0
 38 40  1  0
 40 41  1  0
 40 42  1  0
 40 43  1  0
 43 44  1  0
 43 45  1  0
 43 46  1  0
 46 47  1  0
 46 48  1  0
 36 49  1  0
 14 50  1  0
 50 51  1  0
 50 52  1  0
 50 53  1  0
 53 54  1  0
 53 55  1  0
  9  2  1  0
 49 15  2  0
 53  7  1  0
 31 18  1  0
 46 38  1  0
M  END
>  <UniqueID>  (31) 
484

>  <SMILES>  (31) 
c1ccc2c(c1)CCN(c1nc(N3CCCCC3)[nH]/c(=N\C3CCC3)n1)C2

>  <Energy>  (31) 
124.3069163040774

>  <Genealogy>  (31) 
c1ccc2c(c1)CCN(c1nc(N3CCCCC3)[nH]c(=NC3CCC3)n1)C2 (tautomer)
c1ccc2c(c1)CCN(c1nc(N3CCCCC3)[nH]/c(=N\C3CCC3)n1)C2 (cis-trans isomerization)
c1ccc2c(c1)CCN(c1nc(N3CCCCC3)[nH]/c(=N\C3CCC3)n1)C2 (3D coordinates assigned)
c1ccc2c(c1)CCN(c1nc(N3CCCCC3)[nH]/c(=N\C3CCC3)n1)C2 (nonaromatic ring conformer: 124.3069163040774 kcal/mol)

>  <smiles>  (31) 
c1ccc2c(c1)CCN(c1nc(NC3CCC3)nc(N3CCCCC3)n1)C2

>  <score_type>  (31) 
oracle

>  <origin>  (31) 
autodockgpu

>  <m_score__min__energy>  (31) 
-7.6799999999999997

>  <m_primary>  (31) 
energy

>  <meeko>  (31) 
{"free_energy": -7.65, "intermolecular_energy": -8.84, "internal_energy": -0.92, "cluster_size": 17, "cluster_id": 1, "rank_in_cluster": 10}

>  <energy>  (31) 
-7.64

>  <cluster_rmsd>  (31) 
0.39

>  <rmsd>  (31) 
269.75

>  <cluster>  (31) 
1

$$$$
JGFXCGHACWUNAV-OYOSFLFPNA-N
     RDKit          3D

 55 59  0  0  0  0  0  0  0  0999 V2000
  140.5045   70.6044  229.3628 H   0  0  0  0  0  0  0  0  0  0  0  0
  140.2670   70.3240  228.3260 C   0  0  0  0  0  0  0  0  0  0  0  0
  139.4520   69.2200  228.0730 C   0  0  0  0  0  0  0  0  0  0  0  0
  139.0478   68.6320  228.9102 H   0  0  0  0  0  0  0  0  0  0  0  0
  139.1490   68.8610  226.7580 C   0  0  0  0  0  0  0  0  0  0  0  0
  138.5152   67.9840  226.5598 H   0  0  0  0  0  0  0  0  0  0  0  0
  139.6530   69.6190  225.6880 C   0  0  0  0  0  0  0  0  0  0  0  0
  140.4710   70.7320  225.9400 C   0  0  0  0  0  0  0  0  0  0  0  0
  140.7820   71.0740  227.2660 C   0  0  0  0  0  0  0  0  0  0  0  0
  141.4339   71.9360  227.4708 H   0  0  0  0  0  0  0  0  0  0  0  0
  141.0660   71.5170  224.7980 C   0  0  0  0  0  0  0  0  0  0  0  0
  142.0692   71.1194  224.5845 H   0  0  0  0  0  0  0  0  0  0  0  0
  141.0996   72.5723  225.1065 H   0  0  0  0  0  0  0  0  0  0  0  0
  140.2580   71.4430  223.5640 N   0  0  0  0  0  0  0  0  0  0  0  0
  140.5260   72.3850  222.5050 C   0  0  0  0  0  0  0  0  0  0  0  0
  140.0140   73.6410  222.5570 N   0  0  0  0  0  0  0  0  0  0  0  0
  140.2530   74.5340  221.5610 C   0  0  0  0  0  0  0  0  0  0  0  0
  139.7170   75.8660  221.6610 N   0  0  0  0  0  0  0  0  0  0  0  0
  140.4270   77.0220  221.0950 C   0  0  0  0  0  0  0  0  0  0  0  0
  141.4321   76.7094  220.7755 H   0  0  0  0  0  0  0  0  0  0  0  0
  139.8589   77.4036  220.2338 H   0  0  0  0  0  0  0  0  0  0  0  0
  140.5530   78.1380  222.1440 C   0  0  0  0  0  0  0  0  0  0  0  0
  141.4243   77.9226  222.7799 H   0  0  0  0  0  0  0  0  0  0  0  0
  140.6623   79.0869  221.5984 H   0  0  0  0  0  0  0  0  0  0  0  0
  139.3070   78.2710  223.0480 C   0  0  0  0  0  0  0  0  0  0  0  0
  139.5413   77.8437  224.0342 H   0  0  0  0  0  0  0  0  0  0  0  0
  139.0593   79.3407  223.1147 H   0  0  0  0  0  0  0  0  0  0  0  0
  138.0800   77.5480  222.4800 C   0  0  0  0  0  0  0  0  0  0  0  0
  137.2427   77.6451  223.1867 H   0  0  0  0  0  0  0  0  0  0  0  0
  137.8137   78.0018  221.5140 H   0  0  0  0  0  0  0  0  0  0  0  0
  138.3890   76.0600  222.2630 C   0  0  0  0  0  0  0  0  0  0  0  0
  138.3580   75.5435  223.2337 H   0  0  0  0  0  0  0  0  0  0  0  0
  137.6356   75.6484  221.5753 H   0  0  0  0  0  0  0  0  0  0  0  0
  141.0380   74.1710  220.5080 N   0  0  0  0  0  0  0  0  0  0  0  0
  141.2660   74.8790  219.7780 H   0  0  0  0  0  0  0  0  0  0  0  0
  141.5590   72.9090  220.4460 C   0  0  0  0  0  0  0  0  0  0  0  0
  142.3140   72.5240  219.4570 N   0  0  0  0  0  0  0  0  0  0  0  0
  143.7340   72.8390  219.2840 C   0  0  0  0  0  0  0  0  0  0  0  0
  143.9144   72.4978  218.2539 H   0  0  0  0  0  0  0  0  0  0  0  0
  144.0720   74.2710  219.6880 C   0  0  0  0  0  0  0  0  0  0  0  0
  144.6481   74.8267  218.9335 H   0  0  0  0  0  0  0  0  0  0  0  0
  143.2711   75.0036  219.8668 H   0  0  0  0  0  0  0  0  0  0  0  0
  144.9080   73.7450  220.8450 C   0  0  0  0  0  0  0  0  0  0  0  0
  145.9783   73.9883  220.7718 H   0  0  0  0  0  0  0  0  0  0  0  0
  144.7195   74.0955  221.8705 H   0  0  0  0  0  0  0  0  0  0  0  0
  144.5680   72.3150  220.4470 C   0  0  0  0  0  0  0  0  0  0  0  0
  145.4377   71.7147  220.1417 H   0  0  0  0  0  0  0  0  0  0  0  0
  144.1291   71.6219  221.1798 H   0  0  0  0  0  0  0  0  0  0  0  0
  141.2950   72.0280  221.4430 N   0  0  0  0  0  0  0  0  0  0  0  0
  139.1610   70.4700  223.4040 C   0  0  0  0  0  0  0  0  0  0  0  0
  139.1089   70.1634  222.3489 H   0  0  0  0  0  0  0  0  0  0  0  0
  138.2267   70.9549  223.7233 H   0  0  0  0  0  0  0  0  0  0  0  0
  139.3690   69.2270  224.2700 C   0  0  0  0  0  0  0  0  0  0  0  0
  140.2185   68.6494  223.8767 H   0  0  0  0  0  0  0  0  0  0  0  0
  138.4534   68.6178  224.2451 H   0  0  0  0  0  0  0  0  0  0  0  0
  1  2  1  0
  2  3  2  0
  3  4  1  0
  3  5  1  0
  5  6  1  0
  5  7  2  0
  7  8  1  0
  8  9  2  0
  9 10  1  0
  8 11  1  0
 11 12  1  0
 11 13  1  0
 11 14  1  0
 14 15  1  0
 15 16  1  0
 16 17  2  0
 17 18  1  0
 18 19  1  0
 19 20  1  0
 19 21  1  0
 19 22  1  0
 22 23  1  0
 22 24  1  0
 22 25  1  0
 25 26  1  0
 25 27  1  0
 25 28  1  0
 28 29  1  0
 28 30  1  0
 28 31  1  0
 31 32  1  0
 31 33  1  0
 17 34  1  0
 34 35  1  0
 34 36  1  0
 36 37  2  0
 37 38  1  0
 38 39  1  0
 38 40  1  0
 40 41  1  0
 40 42  1  0
 40 43  1  0
 43 44  1  0
 43 45  1  0
 43 46  1  0
 46 47  1  0
 46 48  1  0
 36 49  1  0
 14 50  1  0
 50 51  1  0
 50 52  1  0
 50 53  1  0
 53 54  1  0
 53 55  1  0
  9  2  1  0
 49 15  2  0
 53  7  1  0
 31 18  1  0
 46 38  1  0
M  END
>  <UniqueID>  (32) 
484

>  <SMILES>  (32) 
c1ccc2c(c1)CCN(c1nc(N3CCCCC3)[nH]/c(=N\C3CCC3)n1)C2

>  <Energy>  (32) 
124.3069163040774

>  <Genealogy>  (32) 
c1ccc2c(c1)CCN(c1nc(N3CCCCC3)[nH]c(=NC3CCC3)n1)C2 (tautomer)
c1ccc2c(c1)CCN(c1nc(N3CCCCC3)[nH]/c(=N\C3CCC3)n1)C2 (cis-trans isomerization)
c1ccc2c(c1)CCN(c1nc(N3CCCCC3)[nH]/c(=N\C3CCC3)n1)C2 (3D coordinates assigned)
c1ccc2c(c1)CCN(c1nc(N3CCCCC3)[nH]/c(=N\C3CCC3)n1)C2 (nonaromatic ring conformer: 124.3069163040774 kcal/mol)

>  <smiles>  (32) 
c1ccc2c(c1)CCN(c1nc(NC3CCC3)nc(N3CCCCC3)n1)C2

>  <score_type>  (32) 
oracle

>  <origin>  (32) 
autodockgpu

>  <m_score__min__energy>  (32) 
-7.6799999999999997

>  <m_primary>  (32) 
energy

>  <meeko>  (32) 
{"free_energy": -7.54, "intermolecular_energy": -8.73, "internal_energy": -0.97, "cluster_size": 17, "cluster_id": 1, "rank_in_cluster": 14}

>  <energy>  (32) 
-7.64

>  <cluster_rmsd>  (32) 
0.4

>  <rmsd>  (32) 
269.8

>  <cluster>  (32) 
1

$$$$
JGFXCGHACWUNAV-OYOSFLFPNA-N
     RDKit          3D

 55 59  0  0  0  0  0  0  0  0999 V2000
  141.9916   80.9378  224.7477 H   0  0  0  0  0  0  0  0  0  0  0  0
  141.8440   80.3870  223.8070 C   0  0  0  0  0  0  0  0  0  0  0  0
  141.9380   81.0570  222.5870 C   0  0  0  0  0  0  0  0  0  0  0  0
  142.1609   82.1340  222.5667 H   0  0  0  0  0  0  0  0  0  0  0  0
  141.7490   80.3600  221.3910 C   0  0  0  0  0  0  0  0  0  0  0  0
  141.8117   80.8910  220.4297 H   0  0  0  0  0  0  0  0  0  0  0  0
  141.4790   78.9820  221.4150 C   0  0  0  0  0  0  0  0  0  0  0  0
  141.3870   78.3060  222.6410 C   0  0  0  0  0  0  0  0  0  0  0  0
  141.5630   79.0190  223.8380 C   0  0  0  0  0  0  0  0  0  0  0  0
  141.4793   78.4984  224.8034 H   0  0  0  0  0  0  0  0  0  0  0  0
  141.0370   76.8390  222.6810 C   0  0  0  0  0  0  0  0  0  0  0  0
  139.9489   76.7413  222.8093 H   0  0  0  0  0  0  0  0  0  0  0  0
  141.5905   76.3908  223.5193 H   0  0  0  0  0  0  0  0  0  0  0  0
  141.4330   76.1190  221.4540 N   0  0  0  0  0  0  0  0  0  0  0  0
  141.4540   74.6760  221.4760 C   0  0  0  0  0  0  0  0  0  0  0  0
  140.6170   73.9900  222.2940 N   0  0  0  0  0  0  0  0  0  0  0  0
  140.6340   72.6320  222.3310 C   0  0  0  0  0  0  0  0  0  0  0  0
  139.7140   71.9340  223.1910 N   0  0  0  0  0  0  0  0  0  0  0  0
  140.1010   71.5130  224.5450 C   0  0  0  0  0  0  0  0  0  0  0  0
  141.1822   71.6664  224.6775 H   0  0  0  0  0  0  0  0  0  0  0  0
  139.5424   72.1121  225.2792 H   0  0  0  0  0  0  0  0  0  0  0  0
  139.7700   70.0270  224.7570 C   0  0  0  0  0  0  0  0  0  0  0  0
  140.5911   69.4240  224.3420 H   0  0  0  0  0  0  0  0  0  0  0  0
  139.6472   69.8723  225.8391 H   0  0  0  0  0  0  0  0  0  0  0  0
  138.4520   69.5910  224.0810 C   0  0  0  0  0  0  0  0  0  0  0  0
  138.6951   69.0124  223.1776 H   0  0  0  0  0  0  0  0  0  0  0  0
  137.8884   68.9911  224.8107 H   0  0  0  0  0  0  0  0  0  0  0  0
  137.5680   70.7790  223.6790 C   0  0  0  0  0  0  0  0  0  0  0  0
  136.6687   70.4050  223.1678 H   0  0  0  0  0  0  0  0  0  0  0  0
  137.2840   71.3352  224.5845 H   0  0  0  0  0  0  0  0  0  0  0  0
  138.3320   71.7190  222.7360 C   0  0  0  0  0  0  0  0  0  0  0  0
  138.3521   71.2761  221.7293 H   0  0  0  0  0  0  0  0  0  0  0  0
  137.8171   72.6910  222.7265 H   0  0  0  0  0  0  0  0  0  0  0  0
  141.4860   71.9490  221.5150 N   0  0  0  0  0  0  0  0  0  0  0  0
  141.4520   70.9080  221.5040 H   0  0  0  0  0  0  0  0  0  0  0  0
  142.3330   72.6310  220.6860 C   0  0  0  0  0  0  0  0  0  0  0  0
  143.1610   72.0160  219.8910 N   0  0  0  0  0  0  0  0  0  0  0  0
  144.6200   72.1420  219.9010 C   0  0  0  0  0  0  0  0  0  0  0  0
  144.9330   71.1437  219.5611 H   0  0  0  0  0  0  0  0  0  0  0  0
  145.1070   73.3880  219.1690 C   0  0  0  0  0  0  0  0  0  0  0  0
  145.8990   73.1947  218.4305 H   0  0  0  0  0  0  0  0  0  0  0  0
  144.4191   73.9673  218.5356 H   0  0  0  0  0  0  0  0  0  0  0  0
  145.6110   73.9610  220.4860 C   0  0  0  0  0  0  0  0  0  0  0  0
  146.7010   74.1037  220.5250 H   0  0  0  0  0  0  0  0  0  0  0  0
  145.2926   74.9615  220.8141 H   0  0  0  0  0  0  0  0  0  0  0  0
  145.1210   72.7200  221.2190 C   0  0  0  0  0  0  0  0  0  0  0  0
  145.9214   72.1322  221.6921 H   0  0  0  0  0  0  0  0  0  0  0  0
  144.4434   72.8126  222.0805 H   0  0  0  0  0  0  0  0  0  0  0  0
  142.3100   73.9870  220.6780 N   0  0  0  0  0  0  0  0  0  0  0  0
  141.8480   76.8280  220.2290 C   0  0  0  0  0  0  0  0  0  0  0  0
  141.5250   76.2449  219.3540 H   0  0  0  0  0  0  0  0  0  0  0  0
  142.9425   76.9358  220.2520 H   0  0  0  0  0  0  0  0  0  0  0  0
  141.2360   78.2270  220.1440 C   0  0  0  0  0  0  0  0  0  0  0  0
  140.1524   78.1389  219.9764 H   0  0  0  0  0  0  0  0  0  0  0  0
  141.7046   78.7712  219.3108 H   0  0  0  0  0  0  0  0  0  0  0  0
  1  2  1  0
  2  3  2  0
  3  4  1  0
  3  5  1  0
  5  6  1  0
  5  7  2  0
  7  8  1  0
  8  9  2  0
  9 10  1  0
  8 11  1  0
 11 12  1  0
 11 13  1  0
 11 14  1  0
 14 15  1  0
 15 16  1  0
 16 17  2  0
 17 18  1  0
 18 19  1  0
 19 20  1  0
 19 21  1  0
 19 22  1  0
 22 23  1  0
 22 24  1  0
 22 25  1  0
 25 26  1  0
 25 27  1  0
 25 28  1  0
 28 29  1  0
 28 30  1  0
 28 31  1  0
 31 32  1  0
 31 33  1  0
 17 34  1  0
 34 35  1  0
 34 36  1  0
 36 37  2  0
 37 38  1  0
 38 39  1  0
 38 40  1  0
 40 41  1  0
 40 42  1  0
 40 43  1  0
 43 44  1  0
 43 45  1  0
 43 46  1  0
 46 47  1  0
 46 48  1  0
 36 49  1  0
 14 50  1  0
 50 51  1  0
 50 52  1  0
 50 53  1  0
 53 54  1  0
 53 55  1  0
  9  2  1  0
 49 15  2  0
 53  7  1  0
 31 18  1  0
 46 38  1  0
M  END
>  <UniqueID>  (33) 
484

>  <SMILES>  (33) 
c1ccc2c(c1)CCN(c1nc(N3CCCCC3)[nH]/c(=N\C3CCC3)n1)C2

>  <Energy>  (33) 
124.3069163040774

>  <Genealogy>  (33) 
c1ccc2c(c1)CCN(c1nc(N3CCCCC3)[nH]c(=NC3CCC3)n1)C2 (tautomer)
c1ccc2c(c1)CCN(c1nc(N3CCCCC3)[nH]/c(=N\C3CCC3)n1)C2 (cis-trans isomerization)
c1ccc2c(c1)CCN(c1nc(N3CCCCC3)[nH]/c(=N\C3CCC3)n1)C2 (3D coordinates assigned)
c1ccc2c(c1)CCN(c1nc(N3CCCCC3)[nH]/c(=N\C3CCC3)n1)C2 (nonaromatic ring conformer: 124.3069163040774 kcal/mol)

>  <smiles>  (33) 
c1ccc2c(c1)CCN(c1nc(NC3CCC3)nc(N3CCCCC3)n1)C2

>  <score_type>  (33) 
oracle

>  <origin>  (33) 
autodockgpu

>  <m_score__min__energy>  (33) 
-7.6799999999999997

>  <m_primary>  (33) 
energy

>  <meeko>  (33) 
{"free_energy": -7.4, "intermolecular_energy": -8.6, "internal_energy": -0.98, "cluster_size": 3, "cluster_id": 2, "rank_in_cluster": 3}

>  <energy>  (33) 
-7.61

>  <cluster_rmsd>  (33) 
0.45

>  <rmsd>  (33) 
269.74

>  <cluster>  (33) 
1

$$$$
JGFXCGHACWUNAV-OYOSFLFPNA-N
     RDKit          3D

 55 59  0  0  0  0  0  0  0  0999 V2000
  140.3800   70.5749  229.3517 H   0  0  0  0  0  0  0  0  0  0  0  0
  140.1510   70.3220  228.3060 C   0  0  0  0  0  0  0  0  0  0  0  0
  139.2940   69.2590  228.0190 C   0  0  0  0  0  0  0  0  0  0  0  0
  138.8467   68.6768  228.8381 H   0  0  0  0  0  0  0  0  0  0  0  0
  139.0040   68.9340  226.6920 C   0  0  0  0  0  0  0  0  0  0  0  0
  138.3387   68.0875  226.4665 H   0  0  0  0  0  0  0  0  0  0  0  0
  139.5610   69.6870  225.6450 C   0  0  0  0  0  0  0  0  0  0  0  0
  140.4210   70.7590  225.9320 C   0  0  0  0  0  0  0  0  0  0  0  0
  140.7190   71.0660  227.2690 C   0  0  0  0  0  0  0  0  0  0  0  0
  141.4026   71.8959  227.5011 H   0  0  0  0  0  0  0  0  0  0  0  0
  141.0730   71.5350  224.8150 C   0  0  0  0  0  0  0  0  0  0  0  0
  142.0623   71.0976  224.6151 H   0  0  0  0  0  0  0  0  0  0  0  0
  141.1459   72.5830  225.1411 H   0  0  0  0  0  0  0  0  0  0  0  0
  140.2880   71.5150  223.5640 N   0  0  0  0  0  0  0  0  0  0  0  0
  140.6180   72.4610  222.5260 C   0  0  0  0  0  0  0  0  0  0  0  0
  140.0330   73.6860  222.5010 N   0  0  0  0  0  0  0  0  0  0  0  0
  140.3290   74.5820  221.5250 C   0  0  0  0  0  0  0  0  0  0  0  0
  139.7110   75.8820  221.5430 N   0  0  0  0  0  0  0  0  0  0  0  0
  140.3580   77.0470  220.9240 C   0  0  0  0  0  0  0  0  0  0  0  0
  141.3856   76.7805  220.6358 H   0  0  0  0  0  0  0  0  0  0  0  0
  139.7819   77.3453  220.0357 H   0  0  0  0  0  0  0  0  0  0  0  0
  140.3980   78.2240  221.9110 C   0  0  0  0  0  0  0  0  0  0  0  0
  141.2703   78.0982  222.5693 H   0  0  0  0  0  0  0  0  0  0  0  0
  140.4580   79.1468  221.3153 H   0  0  0  0  0  0  0  0  0  0  0  0
  139.1310   78.3280  222.7900 C   0  0  0  0  0  0  0  0  0  0  0  0
  139.3746   77.9701  223.8012 H   0  0  0  0  0  0  0  0  0  0  0  0
  138.8170   79.3822  222.7946 H   0  0  0  0  0  0  0  0  0  0  0  0
  137.9600   77.5000  222.2460 C   0  0  0  0  0  0  0  0  0  0  0  0
  137.1064   77.5830  222.9348 H   0  0  0  0  0  0  0  0  0  0  0  0
  137.6825   77.8832  221.2529 H   0  0  0  0  0  0  0  0  0  0  0  0
  138.3640   76.0240  222.1160 C   0  0  0  0  0  0  0  0  0  0  0  0
  138.3492   75.5602  223.1134 H   0  0  0  0  0  0  0  0  0  0  0  0
  137.6488   75.5286  221.4429 H   0  0  0  0  0  0  0  0  0  0  0  0
  141.2460   74.2560  220.5700 N   0  0  0  0  0  0  0  0  0  0  0  0
  141.5140   74.9680  219.8580 H   0  0  0  0  0  0  0  0  0  0  0  0
  141.8420   73.0250  220.5860 C   0  0  0  0  0  0  0  0  0  0  0  0
  142.7230   72.6750  219.6930 N   0  0  0  0  0  0  0  0  0  0  0  0
  143.9790   73.3710  219.4030 C   0  0  0  0  0  0  0  0  0  0  0  0
  143.8523   73.6276  218.3409 H   0  0  0  0  0  0  0  0  0  0  0  0
  144.2960   74.4610  220.4220 C   0  0  0  0  0  0  0  0  0  0  0  0
  144.5493   75.4338  219.9754 H   0  0  0  0  0  0  0  0  0  0  0  0
  143.5304   74.7946  221.1379 H   0  0  0  0  0  0  0  0  0  0  0  0
  145.5020   73.6620  220.8980 C   0  0  0  0  0  0  0  0  0  0  0  0
  146.4667   74.1631  220.7300 H   0  0  0  0  0  0  0  0  0  0  0  0
  145.6185   73.4135  221.9632 H   0  0  0  0  0  0  0  0  0  0  0  0
  145.1840   72.5710  219.8840 C   0  0  0  0  0  0  0  0  0  0  0  0
  145.9620   72.4274  219.1198 H   0  0  0  0  0  0  0  0  0  0  0  0
  145.0659   71.5265  220.2081 H   0  0  0  0  0  0  0  0  0  0  0  0
  141.5190   72.1400  221.5620 N   0  0  0  0  0  0  0  0  0  0  0  0
  139.1530   70.5940  223.3660 C   0  0  0  0  0  0  0  0  0  0  0  0
  139.1091   70.3066  222.3051 H   0  0  0  0  0  0  0  0  0  0  0  0
  138.2340   71.1141  223.6742 H   0  0  0  0  0  0  0  0  0  0  0  0
  139.2900   69.3290  224.2160 C   0  0  0  0  0  0  0  0  0  0  0  0
  140.1221   68.7216  223.8304 H   0  0  0  0  0  0  0  0  0  0  0  0
  138.3502   68.7598  224.1628 H   0  0  0  0  0  0  0  0  0  0  0  0
  1  2  1  0
  2  3  2  0
  3  4  1  0
  3  5  1  0
  5  6  1  0
  5  7  2  0
  7  8  1  0
  8  9  2  0
  9 10  1  0
  8 11  1  0
 11 12  1  0
 11 13  1  0
 11 14  1  0
 14 15  1  0
 15 16  1  0
 16 17  2  0
 17 18  1  0
 18 19  1  0
 19 20  1  0
 19 21  1  0
 19 22  1  0
 22 23  1  0
 22 24  1  0
 22 25  1  0
 25 26  1  0
 25 27  1  0
 25 28  1  0
 28 29  1  0
 28 30  1  0
 28 31  1  0
 31 32  1  0
 31 33  1  0
 17 34  1  0
 34 35  1  0
 34 36  1  0
 36 37  2  0
 37 38  1  0
 38 39  1  0
 38 40  1  0
 40 41  1  0
 40 42  1  0
 40 43  1  0
 43 44  1  0
 43 45  1  0
 43 46  1  0
 46 47  1  0
 46 48  1  0
 36 49  1  0
 14 50  1  0
 50 51  1  0
 50 52  1  0
 50 53  1  0
 53 54  1  0
 53 55  1  0
  9  2  1  0
 49 15  2  0
 53  7  1  0
 31 18  1  0
 46 38  1  0
M  END
>  <UniqueID>  (34) 
484

>  <SMILES>  (34) 
c1ccc2c(c1)CCN(c1nc(N3CCCCC3)[nH]/c(=N\C3CCC3)n1)C2

>  <Energy>  (34) 
124.3069163040774

>  <Genealogy>  (34) 
c1ccc2c(c1)CCN(c1nc(N3CCCCC3)[nH]c(=NC3CCC3)n1)C2 (tautomer)
c1ccc2c(c1)CCN(c1nc(N3CCCCC3)[nH]/c(=N\C3CCC3)n1)C2 (cis-trans isomerization)
c1ccc2c(c1)CCN(c1nc(N3CCCCC3)[nH]/c(=N\C3CCC3)n1)C2 (3D coordinates assigned)
c1ccc2c(c1)CCN(c1nc(N3CCCCC3)[nH]/c(=N\C3CCC3)n1)C2 (nonaromatic ring conformer: 124.3069163040774 kcal/mol)

>  <smiles>  (34) 
c1ccc2c(c1)CCN(c1nc(NC3CCC3)nc(N3CCCCC3)n1)C2

>  <score_type>  (34) 
oracle

>  <origin>  (34) 
autodockgpu

>  <m_score__min__energy>  (34) 
-7.6799999999999997

>  <m_primary>  (34) 
energy

>  <meeko>  (34) 
{"free_energy": -7.66, "intermolecular_energy": -8.85, "internal_energy": -0.89, "cluster_size": 17, "cluster_id": 1, "rank_in_cluster": 7}

>  <energy>  (34) 
-7.54

>  <cluster_rmsd>  (34) 
0.49

>  <rmsd>  (34) 
269.72

>  <cluster>  (34) 
1

$$$$
JGFXCGHACWUNAV-OYOSFLFPNA-N
     RDKit          3D

 55 59  0  0  0  0  0  0  0  0999 V2000
  140.3657   70.5542  229.3674 H   0  0  0  0  0  0  0  0  0  0  0  0
  140.1620   70.2910  228.3190 C   0  0  0  0  0  0  0  0  0  0  0  0
  139.3550   69.1920  228.0220 C   0  0  0  0  0  0  0  0  0  0  0  0
  138.9234   68.5908  228.8358 H   0  0  0  0  0  0  0  0  0  0  0  0
  139.0950   68.8550  226.6910 C   0  0  0  0  0  0  0  0  0  0  0  0
  138.4677   67.9821  226.4576 H   0  0  0  0  0  0  0  0  0  0  0  0
  139.6340   69.6300  225.6510 C   0  0  0  0  0  0  0  0  0  0  0  0
  140.4440   70.7380  225.9480 C   0  0  0  0  0  0  0  0  0  0  0  0
  140.7120   71.0580  227.2890 C   0  0  0  0  0  0  0  0  0  0  0  0
  141.3574   71.9158  227.5292 H   0  0  0  0  0  0  0  0  0  0  0  0
  141.0780   71.5400  224.8390 C   0  0  0  0  0  0  0  0  0  0  0  0
  142.0869   71.1436  224.6521 H   0  0  0  0  0  0  0  0  0  0  0  0
  141.1040   72.5902  225.1651 H   0  0  0  0  0  0  0  0  0  0  0  0
  140.3100   71.4870  223.5780 N   0  0  0  0  0  0  0  0  0  0  0  0
  140.6140   72.4460  222.5440 C   0  0  0  0  0  0  0  0  0  0  0  0
  140.0520   73.6820  222.5660 N   0  0  0  0  0  0  0  0  0  0  0  0
  140.3230   74.5900  221.5930 C   0  0  0  0  0  0  0  0  0  0  0  0
  139.7320   75.9000  221.6620 N   0  0  0  0  0  0  0  0  0  0  0  0
  140.4410   77.0880  221.1660 C   0  0  0  0  0  0  0  0  0  0  0  0
  141.4794   76.8164  220.9254 H   0  0  0  0  0  0  0  0  0  0  0  0
  139.9294   77.4592  220.2657 H   0  0  0  0  0  0  0  0  0  0  0  0
  140.4410   78.1950  222.2320 C   0  0  0  0  0  0  0  0  0  0  0  0
  141.2662   78.0039  222.9338 H   0  0  0  0  0  0  0  0  0  0  0  0
  140.5580   79.1539  221.7059 H   0  0  0  0  0  0  0  0  0  0  0  0
  139.1230   78.2710  223.0340 C   0  0  0  0  0  0  0  0  0  0  0  0
  139.2935   77.8398  224.0315 H   0  0  0  0  0  0  0  0  0  0  0  0
  138.8312   79.3301  223.0909 H   0  0  0  0  0  0  0  0  0  0  0  0
  137.9720   77.5110  222.3620 C   0  0  0  0  0  0  0  0  0  0  0  0
  137.0779   77.5687  223.0002 H   0  0  0  0  0  0  0  0  0  0  0  0
  137.7666   77.9672  221.3823 H   0  0  0  0  0  0  0  0  0  0  0  0
  138.3530   76.0370  222.1560 C   0  0  0  0  0  0  0  0  0  0  0  0
  138.2629   75.5071  223.1158 H   0  0  0  0  0  0  0  0  0  0  0  0
  137.6735   75.6067  221.4056 H   0  0  0  0  0  0  0  0  0  0  0  0
  141.1920   74.2640  220.5940 N   0  0  0  0  0  0  0  0  0  0  0  0
  141.4420   74.9850  219.8850 H   0  0  0  0  0  0  0  0  0  0  0  0
  141.7640   73.0230  220.5620 C   0  0  0  0  0  0  0  0  0  0  0  0
  142.5990   72.6730  219.6260 N   0  0  0  0  0  0  0  0  0  0  0  0
  143.9640   73.1760  219.4580 C   0  0  0  0  0  0  0  0  0  0  0  0
  143.9987   73.3700  218.3758 H   0  0  0  0  0  0  0  0  0  0  0  0
  144.3080   74.2850  220.4460 C   0  0  0  0  0  0  0  0  0  0  0  0
  144.7442   75.1815  219.9812 H   0  0  0  0  0  0  0  0  0  0  0  0
  143.5178   74.7667  221.0406 H   0  0  0  0  0  0  0  0  0  0  0  0
  145.3270   73.3720  221.1130 C   0  0  0  0  0  0  0  0  0  0  0  0
  146.3648   73.7292  221.0399 H   0  0  0  0  0  0  0  0  0  0  0  0
  145.2824   73.1879  222.1966 H   0  0  0  0  0  0  0  0  0  0  0  0
  144.9820   72.2620  220.1300 C   0  0  0  0  0  0  0  0  0  0  0  0
  145.8165   71.9632  219.4786 H   0  0  0  0  0  0  0  0  0  0  0  0
  144.6835   71.2679  220.4942 H   0  0  0  0  0  0  0  0  0  0  0  0
  141.4660   72.1260  221.5350 N   0  0  0  0  0  0  0  0  0  0  0  0
  139.2180   70.5190  223.3660 C   0  0  0  0  0  0  0  0  0  0  0  0
  139.2003   70.2296  222.3049 H   0  0  0  0  0  0  0  0  0  0  0  0
  138.2739   70.9999  223.6617 H   0  0  0  0  0  0  0  0  0  0  0  0
  139.3970   69.2610  224.2190 C   0  0  0  0  0  0  0  0  0  0  0  0
  140.2589   68.6891  223.8448 H   0  0  0  0  0  0  0  0  0  0  0  0
  138.4826   68.6530  224.1540 H   0  0  0  0  0  0  0  0  0  0  0  0
  1  2  1  0
  2  3  2  0
  3  4  1  0
  3  5  1  0
  5  6  1  0
  5  7  2  0
  7  8  1  0
  8  9  2  0
  9 10  1  0
  8 11  1  0
 11 12  1  0
 11 13  1  0
 11 14  1  0
 14 15  1  0
 15 16  1  0
 16 17  2  0
 17 18  1  0
 18 19  1  0
 19 20  1  0
 19 21  1  0
 19 22  1  0
 22 23  1  0
 22 24  1  0
 22 25  1  0
 25 26  1  0
 25 27  1  0
 25 28  1  0
 28 29  1  0
 28 30  1  0
 28 31  1  0
 31 32  1  0
 31 33  1  0
 17 34  1  0
 34 35  1  0
 34 36  1  0
 36 37  2  0
 37 38  1  0
 38 39  1  0
 38 40  1  0
 40 41  1  0
 40 42  1  0
 40 43  1  0
 43 44  1  0
 43 45  1  0
 43 46  1  0
 46 47  1  0
 46 48  1  0
 36 49  1  0
 14 50  1  0
 50 51  1  0
 50 52  1  0
 50 53  1  0
 53 54  1  0
 53 55  1  0
  9  2  1  0
 49 15  2  0
 53  7  1  0
 31 18  1  0
 46 38  1  0
M  END
>  <UniqueID>  (35) 
484

>  <SMILES>  (35) 
c1ccc2c(c1)CCN(c1nc(N3CCCCC3)[nH]/c(=N\C3CCC3)n1)C2

>  <Energy>  (35) 
124.3069163040774

>  <Genealogy>  (35) 
c1ccc2c(c1)CCN(c1nc(N3CCCCC3)[nH]c(=NC3CCC3)n1)C2 (tautomer)
c1ccc2c(c1)CCN(c1nc(N3CCCCC3)[nH]/c(=N\C3CCC3)n1)C2 (cis-trans isomerization)
c1ccc2c(c1)CCN(c1nc(N3CCCCC3)[nH]/c(=N\C3CCC3)n1)C2 (3D coordinates assigned)
c1ccc2c(c1)CCN(c1nc(N3CCCCC3)[nH]/c(=N\C3CCC3)n1)C2 (nonaromatic ring conformer: 124.3069163040774 kcal/mol)

>  <smiles>  (35) 
c1ccc2c(c1)CCN(c1nc(NC3CCC3)nc(N3CCCCC3)n1)C2

>  <score_type>  (35) 
oracle

>  <origin>  (35) 
autodockgpu

>  <m_score__min__energy>  (35) 
-7.6799999999999997

>  <m_primary>  (35) 
energy

>  <meeko>  (35) 
{"free_energy": -7.64, "intermolecular_energy": -8.83, "internal_energy": -0.93, "cluster_size": 17, "cluster_id": 1, "rank_in_cluster": 12}

>  <energy>  (35) 
-7.54

>  <cluster_rmsd>  (35) 
0.49

>  <rmsd>  (35) 
269.72

>  <cluster>  (35) 
1

$$$$
JGFXCGHACWUNAV-OYOSFLFPNA-N
     RDKit          3D

 55 59  0  0  0  0  0  0  0  0999 V2000
  140.5306   70.6118  229.3728 H   0  0  0  0  0  0  0  0  0  0  0  0
  140.2950   70.3260  228.3370 C   0  0  0  0  0  0  0  0  0  0  0  0
  139.4920   69.2130  228.0880 C   0  0  0  0  0  0  0  0  0  0  0  0
  139.0949   68.6226  228.9269 H   0  0  0  0  0  0  0  0  0  0  0  0
  139.1920   68.8480  226.7730 C   0  0  0  0  0  0  0  0  0  0  0  0
  138.5681   67.9635  226.5772 H   0  0  0  0  0  0  0  0  0  0  0  0
  139.6860   69.6090  225.7010 C   0  0  0  0  0  0  0  0  0  0  0  0
  140.4920   70.7310  225.9500 C   0  0  0  0  0  0  0  0  0  0  0  0
  140.8010   71.0790  227.2740 C   0  0  0  0  0  0  0  0  0  0  0  0
  141.4442   71.9482  227.4759 H   0  0  0  0  0  0  0  0  0  0  0  0
  141.0780   71.5190  224.8050 C   0  0  0  0  0  0  0  0  0  0  0  0
  142.0849   71.1311  224.5914 H   0  0  0  0  0  0  0  0  0  0  0  0
  141.1015   72.5755  225.1104 H   0  0  0  0  0  0  0  0  0  0  0  0
  140.2690   71.4330  223.5720 N   0  0  0  0  0  0  0  0  0  0  0  0
  140.5270   72.3750  222.5100 C   0  0  0  0  0  0  0  0  0  0  0  0
  140.0110   73.6300  222.5660 N   0  0  0  0  0  0  0  0  0  0  0  0
  140.2390   74.5230  221.5680 C   0  0  0  0  0  0  0  0  0  0  0  0
  139.6990   75.8540  221.6700 N   0  0  0  0  0  0  0  0  0  0  0  0
  140.4040   77.0120  221.1030 C   0  0  0  0  0  0  0  0  0  0  0  0
  141.4090   76.7025  220.7802 H   0  0  0  0  0  0  0  0  0  0  0  0
  139.8325   77.3929  220.2437 H   0  0  0  0  0  0  0  0  0  0  0  0
  140.5300   78.1270  222.1530 C   0  0  0  0  0  0  0  0  0  0  0  0
  141.4038   77.9131  222.7860 H   0  0  0  0  0  0  0  0  0  0  0  0
  140.6348   79.0768  221.6080 H   0  0  0  0  0  0  0  0  0  0  0  0
  139.2870   78.2560  223.0610 C   0  0  0  0  0  0  0  0  0  0  0  0
  139.5260   77.8292  224.0463 H   0  0  0  0  0  0  0  0  0  0  0  0
  139.0363   79.3249  223.1285 H   0  0  0  0  0  0  0  0  0  0  0  0
  138.0590   77.5290  222.4970 C   0  0  0  0  0  0  0  0  0  0  0  0
  137.2244   77.6222  223.2074 H   0  0  0  0  0  0  0  0  0  0  0  0
  137.7865   77.9831  221.5329 H   0  0  0  0  0  0  0  0  0  0  0  0
  138.3730   76.0420  222.2770 C   0  0  0  0  0  0  0  0  0  0  0  0
  138.3476   75.5242  223.2472 H   0  0  0  0  0  0  0  0  0  0  0  0
  137.6186   75.6282  221.5917 H   0  0  0  0  0  0  0  0  0  0  0  0
  141.0170   74.1620  220.5090 N   0  0  0  0  0  0  0  0  0  0  0  0
  141.2380   74.8700  219.7770 H   0  0  0  0  0  0  0  0  0  0  0  0
  141.5420   72.9010  220.4440 C   0  0  0  0  0  0  0  0  0  0  0  0
  142.2920   72.5180  219.4500 N   0  0  0  0  0  0  0  0  0  0  0  0
  143.7240   72.7830  219.2990 C   0  0  0  0  0  0  0  0  0  0  0  0
  143.9192   72.3848  218.2924 H   0  0  0  0  0  0  0  0  0  0  0  0
  144.0950   74.2230  219.6390 C   0  0  0  0  0  0  0  0  0  0  0  0
  144.7062   74.7224  218.8728 H   0  0  0  0  0  0  0  0  0  0  0  0
  143.3124   74.9866  219.7595 H   0  0  0  0  0  0  0  0  0  0  0  0
  144.8860   73.7330  220.8430 C   0  0  0  0  0  0  0  0  0  0  0  0
  145.9646   73.9415  220.7860 H   0  0  0  0  0  0  0  0  0  0  0  0
  144.6828   74.1406  221.8443 H   0  0  0  0  0  0  0  0  0  0  0  0
  144.5130   72.2950  220.5080 C   0  0  0  0  0  0  0  0  0  0  0  0
  145.3715   71.6552  220.2558 H   0  0  0  0  0  0  0  0  0  0  0  0
  144.0356   71.6528  221.2628 H   0  0  0  0  0  0  0  0  0  0  0  0
  141.2890   72.0200  221.4430 N   0  0  0  0  0  0  0  0  0  0  0  0
  139.1830   70.4480  223.4160 C   0  0  0  0  0  0  0  0  0  0  0  0
  139.1328   70.1383  222.3617 H   0  0  0  0  0  0  0  0  0  0  0  0
  138.2438   70.9233  223.7354 H   0  0  0  0  0  0  0  0  0  0  0  0
  139.4060   69.2090  224.2850 C   0  0  0  0  0  0  0  0  0  0  0  0
  140.2620   68.6403  223.8928 H   0  0  0  0  0  0  0  0  0  0  0  0
  138.4981   68.5884  224.2620 H   0  0  0  0  0  0  0  0  0  0  0  0
  1  2  1  0
  2  3  2  0
  3  4  1  0
  3  5  1  0
  5  6  1  0
  5  7  2  0
  7  8  1  0
  8  9  2  0
  9 10  1  0
  8 11  1  0
 11 12  1  0
 11 13  1  0
 11 14  1  0
 14 15  1  0
 15 16  1  0
 16 17  2  0
 17 18  1  0
 18 19  1  0
 19 20  1  0
 19 21  1  0
 19 22  1  0
 22 23  1  0
 22 24  1  0
 22 25  1  0
 25 26  1  0
 25 27  1  0
 25 28  1  0
 28 29  1  0
 28 30  1  0
 28 31  1  0
 31 32  1  0
 31 33  1  0
 17 34  1  0
 34 35  1  0
 34 36  1  0
 36 37  2  0
 37 38  1  0
 38 39  1  0
 38 40  1  0
 40 41  1  0
 40 42  1  0
 40 43  1  0
 43 44  1  0
 43 45  1  0
 43 46  1  0
 46 47  1  0
 46 48  1  0
 36 49  1  0
 14 50  1  0
 50 51  1  0
 50 52  1  0
 50 53  1  0
 53 54  1  0
 53 55  1  0
  9  2  1  0
 49 15  2  0
 53  7  1  0
 31 18  1  0
 46 38  1  0
M  END
>  <UniqueID>  (36) 
484

>  <SMILES>  (36) 
c1ccc2c(c1)CCN(c1nc(N3CCCCC3)[nH]/c(=N\C3CCC3)n1)C2

>  <Energy>  (36) 
124.3069163040774

>  <Genealogy>  (36) 
c1ccc2c(c1)CCN(c1nc(N3CCCCC3)[nH]c(=NC3CCC3)n1)C2 (tautomer)
c1ccc2c(c1)CCN(c1nc(N3CCCCC3)[nH]/c(=N\C3CCC3)n1)C2 (cis-trans isomerization)
c1ccc2c(c1)CCN(c1nc(N3CCCCC3)[nH]/c(=N\C3CCC3)n1)C2 (3D coordinates assigned)
c1ccc2c(c1)CCN(c1nc(N3CCCCC3)[nH]/c(=N\C3CCC3)n1)C2 (nonaromatic ring conformer: 124.3069163040774 kcal/mol)

>  <smiles>  (36) 
c1ccc2c(c1)CCN(c1nc(NC3CCC3)nc(N3CCCCC3)n1)C2

>  <score_type>  (36) 
oracle

>  <origin>  (36) 
autodockgpu

>  <m_score__min__energy>  (36) 
-7.6799999999999997

>  <m_primary>  (36) 
energy

>  <meeko>  (36) 
{"free_energy": -7.54, "intermolecular_energy": -8.73, "internal_energy": -0.98, "cluster_size": 17, "cluster_id": 1, "rank_in_cluster": 15}

>  <energy>  (36) 
-7.53

>  <cluster_rmsd>  (36) 
0.51

>  <rmsd>  (36) 
269.72

>  <cluster>  (36) 
1

$$$$
JGFXCGHACWUNAV-OYOSFLFPNA-N
     RDKit          3D

 55 59  0  0  0  0  0  0  0  0999 V2000
  140.8348   70.0949  229.3752 H   0  0  0  0  0  0  0  0  0  0  0  0
  140.5270   69.8810  228.3410 C   0  0  0  0  0  0  0  0  0  0  0  0
  139.5880   68.8810  228.0880 C   0  0  0  0  0  0  0  0  0  0  0  0
  139.1548   68.3092  228.9219 H   0  0  0  0  0  0  0  0  0  0  0  0
  139.1980   68.6060  226.7750 C   0  0  0  0  0  0  0  0  0  0  0  0
  138.4661   67.8095  226.5749 H   0  0  0  0  0  0  0  0  0  0  0  0
  139.7390   69.3450  225.7100 C   0  0  0  0  0  0  0  0  0  0  0  0
  140.6810   70.3540  225.9630 C   0  0  0  0  0  0  0  0  0  0  0  0
  141.0780   70.6120  227.2850 C   0  0  0  0  0  0  0  0  0  0  0  0
  141.8255   71.3924  227.4902 H   0  0  0  0  0  0  0  0  0  0  0  0
  141.3130   71.1130  224.8230 C   0  0  0  0  0  0  0  0  0  0  0  0
  142.2583   70.6189  224.5541 H   0  0  0  0  0  0  0  0  0  0  0  0
  141.4729   72.1465  225.1639 H   0  0  0  0  0  0  0  0  0  0  0  0
  140.4540   71.1710  223.6230 N   0  0  0  0  0  0  0  0  0  0  0  0
  140.7820   72.1180  222.5850 C   0  0  0  0  0  0  0  0  0  0  0  0
  140.1890   73.3390  222.5570 N   0  0  0  0  0  0  0  0  0  0  0  0
  140.4820   74.2360  221.5800 C   0  0  0  0  0  0  0  0  0  0  0  0
  139.8550   75.5310  221.5950 N   0  0  0  0  0  0  0  0  0  0  0  0
  140.4190   76.6640  220.8460 C   0  0  0  0  0  0  0  0  0  0  0  0
  141.4124   76.3872  220.4631 H   0  0  0  0  0  0  0  0  0  0  0  0
  139.7476   76.9097  220.0100 H   0  0  0  0  0  0  0  0  0  0  0  0
  140.5520   77.8940  221.7580 C   0  0  0  0  0  0  0  0  0  0  0  0
  141.4916   77.8091  222.3236 H   0  0  0  0  0  0  0  0  0  0  0  0
  140.5366   78.7828  221.1101 H   0  0  0  0  0  0  0  0  0  0  0  0
  139.3870   78.0400  222.7620 C   0  0  0  0  0  0  0  0  0  0  0  0
  139.7427   77.7402  223.7588 H   0  0  0  0  0  0  0  0  0  0  0  0
  139.0635   79.0912  222.7427 H   0  0  0  0  0  0  0  0  0  0  0  0
  138.1730   77.1770  222.3950 C   0  0  0  0  0  0  0  0  0  0  0  0
  137.3985   77.2936  223.1674 H   0  0  0  0  0  0  0  0  0  0  0  0
  137.7852   77.5033  221.4187 H   0  0  0  0  0  0  0  0  0  0  0  0
  138.5760   75.6990  222.3020 C   0  0  0  0  0  0  0  0  0  0  0  0
  138.6736   75.2907  223.3188 H   0  0  0  0  0  0  0  0  0  0  0  0
  137.7976   75.1645  221.7377 H   0  0  0  0  0  0  0  0  0  0  0  0
  141.4040   73.9140  220.6280 N   0  0  0  0  0  0  0  0  0  0  0  0
  141.6690   74.6270  219.9170 H   0  0  0  0  0  0  0  0  0  0  0  0
  142.0070   72.6870  220.6480 C   0  0  0  0  0  0  0  0  0  0  0  0
  142.8940   72.3420  219.7580 N   0  0  0  0  0  0  0  0  0  0  0  0
  144.1560   73.0330  219.4860 C   0  0  0  0  0  0  0  0  0  0  0  0
  144.0674   73.2454  218.4103 H   0  0  0  0  0  0  0  0  0  0  0  0
  144.4300   74.1650  220.4710 C   0  0  0  0  0  0  0  0  0  0  0  0
  144.6942   75.1209  219.9951 H   0  0  0  0  0  0  0  0  0  0  0  0
  143.6373   74.5220  221.1449 H   0  0  0  0  0  0  0  0  0  0  0  0
  145.6210   73.3940  221.0210 C   0  0  0  0  0  0  0  0  0  0  0  0
  146.5886   73.8941  220.8671 H   0  0  0  0  0  0  0  0  0  0  0  0
  145.7000   73.1897  222.0990 H   0  0  0  0  0  0  0  0  0  0  0  0
  145.3460   72.2610  220.0430 C   0  0  0  0  0  0  0  0  0  0  0  0
  146.1522   72.0909  219.3142 H   0  0  0  0  0  0  0  0  0  0  0  0
  145.2212   71.2299  220.4054 H   0  0  0  0  0  0  0  0  0  0  0  0
  141.6880   71.8010  221.6240 N   0  0  0  0  0  0  0  0  0  0  0  0
  139.2530   70.3280  223.4780 C   0  0  0  0  0  0  0  0  0  0  0  0
  139.1269   70.0681  222.4166 H   0  0  0  0  0  0  0  0  0  0  0  0
  138.3894   70.8975  223.8519 H   0  0  0  0  0  0  0  0  0  0  0  0
  139.3600   69.0380  224.2940 C   0  0  0  0  0  0  0  0  0  0  0  0
  140.1268   68.3887  223.8464 H   0  0  0  0  0  0  0  0  0  0  0  0
  138.3841   68.5305  224.2882 H   0  0  0  0  0  0  0  0  0  0  0  0
  1  2  1  0
  2  3  2  0
  3  4  1  0
  3  5  1  0
  5  6  1  0
  5  7  2  0
  7  8  1  0
  8  9  2  0
  9 10  1  0
  8 11  1  0
 11 12  1  0
 11 13  1  0
 11 14  1  0
 14 15  1  0
 15 16  1  0
 16 17  2  0
 17 18  1  0
 18 19  1  0
 19 20  1  0
 19 21  1  0
 19 22  1  0
 22 23  1  0
 22 24  1  0
 22 25  1  0
 25 26  1  0
 25 27  1  0
 25 28  1  0
 28 29  1  0
 28 30  1  0
 28 31  1  0
 31 32  1  0
 31 33  1  0
 17 34  1  0
 34 35  1  0
 34 36  1  0
 36 37  2  0
 37 38  1  0
 38 39  1  0
 38 40  1  0
 40 41  1  0
 40 42  1  0
 40 43  1  0
 43 44  1  0
 43 45  1  0
 43 46  1  0
 46 47  1  0
 46 48  1  0
 36 49  1  0
 14 50  1  0
 50 51  1  0
 50 52  1  0
 50 53  1  0
 53 54  1  0
 53 55  1  0
  9  2  1  0
 49 15  2  0
 53  7  1  0
 31 18  1  0
 46 38  1  0
M  END
>  <UniqueID>  (37) 
484

>  <SMILES>  (37) 
c1ccc2c(c1)CCN(c1nc(N3CCCCC3)[nH]/c(=N\C3CCC3)n1)C2

>  <Energy>  (37) 
124.3069163040774

>  <Genealogy>  (37) 
c1ccc2c(c1)CCN(c1nc(N3CCCCC3)[nH]c(=NC3CCC3)n1)C2 (tautomer)
c1ccc2c(c1)CCN(c1nc(N3CCCCC3)[nH]/c(=N\C3CCC3)n1)C2 (cis-trans isomerization)
c1ccc2c(c1)CCN(c1nc(N3CCCCC3)[nH]/c(=N\C3CCC3)n1)C2 (3D coordinates assigned)
c1ccc2c(c1)CCN(c1nc(N3CCCCC3)[nH]/c(=N\C3CCC3)n1)C2 (nonaromatic ring conformer: 124.3069163040774 kcal/mol)

>  <smiles>  (37) 
c1ccc2c(c1)CCN(c1nc(NC3CCC3)nc(N3CCCCC3)n1)C2

>  <score_type>  (37) 
oracle

>  <origin>  (37) 
autodockgpu

>  <m_score__min__energy>  (37) 
-7.6799999999999997

>  <m_primary>  (37) 
energy

>  <meeko>  (37) 
{"free_energy": -7.68, "intermolecular_energy": -8.88, "internal_energy": -0.89, "cluster_size": 17, "cluster_id": 1, "rank_in_cluster": 1}

>  <energy>  (37) 
-7.53

>  <cluster_rmsd>  (37) 
0.52

>  <rmsd>  (37) 
269.72

>  <cluster>  (37) 
1

$$$$
JGFXCGHACWUNAV-OYOSFLFPNA-N
     RDKit          3D

 55 59  0  0  0  0  0  0  0  0999 V2000
  142.0563   81.3628  224.7794 H   0  0  0  0  0  0  0  0  0  0  0  0
  141.8240   80.8380  223.8410 C   0  0  0  0  0  0  0  0  0  0  0  0
  141.7330   81.5550  222.6470 C   0  0  0  0  0  0  0  0  0  0  0  0
  141.8950   82.6430  222.6446 H   0  0  0  0  0  0  0  0  0  0  0  0
  141.4360   80.8900  221.4550 C   0  0  0  0  0  0  0  0  0  0  0  0
  141.3532   81.4567  220.5158 H   0  0  0  0  0  0  0  0  0  0  0  0
  141.2430   79.4990  221.4540 C   0  0  0  0  0  0  0  0  0  0  0  0
  141.3380   78.7760  222.6530 C   0  0  0  0  0  0  0  0  0  0  0  0
  141.6210   79.4560  223.8480 C   0  0  0  0  0  0  0  0  0  0  0  0
  141.6832   78.8981  224.7940 H   0  0  0  0  0  0  0  0  0  0  0  0
  141.0730   77.2910  222.6730 C   0  0  0  0  0  0  0  0  0  0  0  0
  140.0154   77.1269  222.9271 H   0  0  0  0  0  0  0  0  0  0  0  0
  141.7479   76.8460  223.4190 H   0  0  0  0  0  0  0  0  0  0  0  0
  141.3530   76.6380  221.3780 N   0  0  0  0  0  0  0  0  0  0  0  0
  141.4530   75.1990  221.3370 C   0  0  0  0  0  0  0  0  0  0  0  0
  140.5680   74.4300  222.0210 N   0  0  0  0  0  0  0  0  0  0  0  0
  140.6560   73.0750  221.9980 C   0  0  0  0  0  0  0  0  0  0  0  0
  139.6850   72.2880  222.7130 N   0  0  0  0  0  0  0  0  0  0  0  0
  140.0430   71.5560  223.9360 C   0  0  0  0  0  0  0  0  0  0  0  0
  141.1342   71.5869  224.0710 H   0  0  0  0  0  0  0  0  0  0  0  0
  139.5433   72.0282  224.7947 H   0  0  0  0  0  0  0  0  0  0  0  0
  139.5860   70.0920  223.8350 C   0  0  0  0  0  0  0  0  0  0  0  0
  140.3487   69.5257  223.2803 H   0  0  0  0  0  0  0  0  0  0  0  0
  139.4580   69.7193  224.8620 H   0  0  0  0  0  0  0  0  0  0  0  0
  138.2300   69.9230  223.1150 C   0  0  0  0  0  0  0  0  0  0  0  0
  138.4158   69.5329  222.1034 H   0  0  0  0  0  0  0  0  0  0  0  0
  137.6213   69.2304  223.7149 H   0  0  0  0  0  0  0  0  0  0  0  0
  137.4500   71.2380  222.9970 C   0  0  0  0  0  0  0  0  0  0  0  0
  136.5183   71.0582  222.4405 H   0  0  0  0  0  0  0  0  0  0  0  0
  137.2212   71.6092  224.0069 H   0  0  0  0  0  0  0  0  0  0  0  0
  138.2870   72.2920  222.2560 C   0  0  0  0  0  0  0  0  0  0  0  0
  138.2626   72.0747  221.1780 H   0  0  0  0  0  0  0  0  0  0  0  0
  137.8581   73.2831  222.4651 H   0  0  0  0  0  0  0  0  0  0  0  0
  141.6330   72.4790  221.2570 N   0  0  0  0  0  0  0  0  0  0  0  0
  141.6590   71.4390  221.1950 H   0  0  0  0  0  0  0  0  0  0  0  0
  142.5290   73.2440  220.5640 C   0  0  0  0  0  0  0  0  0  0  0  0
  143.4760   72.7130  219.8440 N   0  0  0  0  0  0  0  0  0  0  0  0
  144.8310   73.2430  219.6750 C   0  0  0  0  0  0  0  0  0  0  0  0
  144.7884   73.6432  218.6513 H   0  0  0  0  0  0  0  0  0  0  0  0
  145.2590   74.1400  220.8320 C   0  0  0  0  0  0  0  0  0  0  0  0
  145.6696   75.1115  220.5195 H   0  0  0  0  0  0  0  0  0  0  0  0
  144.5203   74.4939  221.5662 H   0  0  0  0  0  0  0  0  0  0  0  0
  146.3140   73.1180  221.2300 C   0  0  0  0  0  0  0  0  0  0  0  0
  147.3475   73.4862  221.1503 H   0  0  0  0  0  0  0  0  0  0  0  0
  146.3476   72.7260  222.2572 H   0  0  0  0  0  0  0  0  0  0  0  0
  145.8850   72.2200  220.0790 C   0  0  0  0  0  0  0  0  0  0  0  0
  146.6658   72.0565  219.3217 H   0  0  0  0  0  0  0  0  0  0  0  0
  145.6029   71.1731  220.2645 H   0  0  0  0  0  0  0  0  0  0  0  0
  142.4320   74.5960  220.6140 N   0  0  0  0  0  0  0  0  0  0  0  0
  141.5780   77.4120  220.1430 C   0  0  0  0  0  0  0  0  0  0  0  0
  141.1820   76.8425  219.2893 H   0  0  0  0  0  0  0  0  0  0  0  0
  142.6599   77.5813  220.0390 H   0  0  0  0  0  0  0  0  0  0  0  0
  140.8870   78.7760  220.1910 C   0  0  0  0  0  0  0  0  0  0  0  0
  139.7972   78.6316  220.1511 H   0  0  0  0  0  0  0  0  0  0  0  0
  141.2212   79.3752  219.3312 H   0  0  0  0  0  0  0  0  0  0  0  0
  1  2  1  0
  2  3  2  0
  3  4  1  0
  3  5  1  0
  5  6  1  0
  5  7  2  0
  7  8  1  0
  8  9  2  0
  9 10  1  0
  8 11  1  0
 11 12  1  0
 11 13  1  0
 11 14  1  0
 14 15  1  0
 15 16  1  0
 16 17  2  0
 17 18  1  0
 18 19  1  0
 19 20  1  0
 19 21  1  0
 19 22  1  0
 22 23  1  0
 22 24  1  0
 22 25  1  0
 25 26  1  0
 25 27  1  0
 25 28  1  0
 28 29  1  0
 28 30  1  0
 28 31  1  0
 31 32  1  0
 31 33  1  0
 17 34  1  0
 34 35  1  0
 34 36  1  0
 36 37  2  0
 37 38  1  0
 38 39  1  0
 38 40  1  0
 40 41  1  0
 40 42  1  0
 40 43  1  0
 43 44  1  0
 43 45  1  0
 43 46  1  0
 46 47  1  0
 46 48  1  0
 36 49  1  0
 14 50  1  0
 50 51  1  0
 50 52  1  0
 50 53  1  0
 53 54  1  0
 53 55  1  0
  9  2  1  0
 49 15  2  0
 53  7  1  0
 31 18  1  0
 46 38  1  0
M  END
>  <UniqueID>  (38) 
484

>  <SMILES>  (38) 
c1ccc2c(c1)CCN(c1nc(N3CCCCC3)[nH]/c(=N\C3CCC3)n1)C2

>  <Energy>  (38) 
124.3069163040774

>  <Genealogy>  (38) 
c1ccc2c(c1)CCN(c1nc(N3CCCCC3)[nH]c(=NC3CCC3)n1)C2 (tautomer)
c1ccc2c(c1)CCN(c1nc(N3CCCCC3)[nH]/c(=N\C3CCC3)n1)C2 (cis-trans isomerization)
c1ccc2c(c1)CCN(c1nc(N3CCCCC3)[nH]/c(=N\C3CCC3)n1)C2 (3D coordinates assigned)
c1ccc2c(c1)CCN(c1nc(N3CCCCC3)[nH]/c(=N\C3CCC3)n1)C2 (nonaromatic ring conformer: 124.3069163040774 kcal/mol)

>  <smiles>  (38) 
c1ccc2c(c1)CCN(c1nc(NC3CCC3)nc(N3CCCCC3)n1)C2

>  <score_type>  (38) 
oracle

>  <origin>  (38) 
autodockgpu

>  <m_score__min__energy>  (38) 
-7.6799999999999997

>  <m_primary>  (38) 
energy

>  <meeko>  (38) 
{"free_energy": -7.58, "intermolecular_energy": -8.77, "internal_energy": -0.8, "cluster_size": 3, "cluster_id": 2, "rank_in_cluster": 1}

>  <energy>  (38) 
-7.58

>  <cluster_rmsd>  (38) 
0.0

>  <rmsd>  (38) 
269.79

>  <cluster>  (38) 
2

$$$$
JGFXCGHACWUNAV-OYOSFLFPNA-N
     RDKit          3D

 55 59  0  0  0  0  0  0  0  0999 V2000
  140.3613   70.5678  229.3899 H   0  0  0  0  0  0  0  0  0  0  0  0
  140.1570   70.2990  228.3430 C   0  0  0  0  0  0  0  0  0  0  0  0
  139.3520   69.1980  228.0530 C   0  0  0  0  0  0  0  0  0  0  0  0
  138.9224   68.6002  228.8704 H   0  0  0  0  0  0  0  0  0  0  0  0
  139.0910   68.8540  226.7240 C   0  0  0  0  0  0  0  0  0  0  0  0
  138.4644   67.9793  226.4956 H   0  0  0  0  0  0  0  0  0  0  0  0
  139.6280   69.6240  225.6800 C   0  0  0  0  0  0  0  0  0  0  0  0
  140.4360   70.7350  225.9700 C   0  0  0  0  0  0  0  0  0  0  0  0
  140.7050   71.0620  227.3090 C   0  0  0  0  0  0  0  0  0  0  0  0
  141.3494   71.9218  227.5444 H   0  0  0  0  0  0  0  0  0  0  0  0
  141.0670   71.5320  224.8560 C   0  0  0  0  0  0  0  0  0  0  0  0
  142.0765   71.1365  224.6702 H   0  0  0  0  0  0  0  0  0  0  0  0
  141.0910   72.5840  225.1765 H   0  0  0  0  0  0  0  0  0  0  0  0
  140.2980   71.4710  223.5960 N   0  0  0  0  0  0  0  0  0  0  0  0
  140.5990   72.4250  222.5570 C   0  0  0  0  0  0  0  0  0  0  0  0
  140.0230   73.6550  222.5650 N   0  0  0  0  0  0  0  0  0  0  0  0
  140.2920   74.5580  221.5870 C   0  0  0  0  0  0  0  0  0  0  0  0
  139.6840   75.8620  221.6400 N   0  0  0  0  0  0  0  0  0  0  0  0
  140.3430   77.0380  221.0540 C   0  0  0  0  0  0  0  0  0  0  0  0
  141.3690   76.7706  220.7611 H   0  0  0  0  0  0  0  0  0  0  0  0
  139.7726   77.3655  220.1723 H   0  0  0  0  0  0  0  0  0  0  0  0
  140.3900   78.1870  222.0740 C   0  0  0  0  0  0  0  0  0  0  0  0
  141.2594   78.0353  222.7306 H   0  0  0  0  0  0  0  0  0  0  0  0
  140.4589   79.1253  221.5041 H   0  0  0  0  0  0  0  0  0  0  0  0
  139.1230   78.2780  222.9520 C   0  0  0  0  0  0  0  0  0  0  0  0
  139.3613   77.8911  223.9537 H   0  0  0  0  0  0  0  0  0  0  0  0
  138.8179   79.3344  222.9839 H   0  0  0  0  0  0  0  0  0  0  0  0
  137.9460   77.4750  222.3840 C   0  0  0  0  0  0  0  0  0  0  0  0
  137.0921   77.5464  223.0737 H   0  0  0  0  0  0  0  0  0  0  0  0
  137.6737   77.8875  221.4013 H   0  0  0  0  0  0  0  0  0  0  0  0
  138.3370   76.0000  222.2140 C   0  0  0  0  0  0  0  0  0  0  0  0
  138.3158   75.5089  223.1981 H   0  0  0  0  0  0  0  0  0  0  0  0
  137.6189   75.5298  221.5261 H   0  0  0  0  0  0  0  0  0  0  0  0
  141.1720   74.2350  220.5970 N   0  0  0  0  0  0  0  0  0  0  0  0
  141.4190   74.9520  219.8840 H   0  0  0  0  0  0  0  0  0  0  0  0
  141.7580   72.9990  220.5800 C   0  0  0  0  0  0  0  0  0  0  0  0
  142.6040   72.6520  219.6530 N   0  0  0  0  0  0  0  0  0  0  0  0
  143.9320   73.2330  219.4370 C   0  0  0  0  0  0  0  0  0  0  0  0
  143.9008   73.4677  218.3628 H   0  0  0  0  0  0  0  0  0  0  0  0
  144.2690   74.3220  220.4500 C   0  0  0  0  0  0  0  0  0  0  0  0
  144.6334   75.2573  220.0000 H   0  0  0  0  0  0  0  0  0  0  0  0
  143.4870   74.7383  221.1020 H   0  0  0  0  0  0  0  0  0  0  0  0
  145.3670   73.4410  221.0280 C   0  0  0  0  0  0  0  0  0  0  0  0
  146.3797   73.8557  220.9168 H   0  0  0  0  0  0  0  0  0  0  0  0
  145.3886   73.2151  222.1043 H   0  0  0  0  0  0  0  0  0  0  0  0
  145.0290   72.3510  220.0210 C   0  0  0  0  0  0  0  0  0  0  0  0
  145.8428   72.1211  219.3176 H   0  0  0  0  0  0  0  0  0  0  0  0
  144.8013   71.3298  220.3605 H   0  0  0  0  0  0  0  0  0  0  0  0
  141.4630   72.1070  221.5580 N   0  0  0  0  0  0  0  0  0  0  0  0
  139.2080   70.5000  223.3910 C   0  0  0  0  0  0  0  0  0  0  0  0
  139.1890   70.2055  222.3313 H   0  0  0  0  0  0  0  0  0  0  0  0
  138.2638   70.9808  223.6866 H   0  0  0  0  0  0  0  0  0  0  0  0
  139.3900   69.2470  224.2490 C   0  0  0  0  0  0  0  0  0  0  0  0
  140.2525   68.6748  223.8766 H   0  0  0  0  0  0  0  0  0  0  0  0
  138.4768   68.6368  224.1878 H   0  0  0  0  0  0  0  0  0  0  0  0
  1  2  1  0
  2  3  2  0
  3  4  1  0
  3  5  1  0
  5  6  1  0
  5  7  2  0
  7  8  1  0
  8  9  2  0
  9 10  1  0
  8 11  1  0
 11 12  1  0
 11 13  1  0
 11 14  1  0
 14 15  1  0
 15 16  1  0
 16 17  2  0
 17 18  1  0
 18 19  1  0
 19 20  1  0
 19 21  1  0
 19 22  1  0
 22 23  1  0
 22 24  1  0
 22 25  1  0
 25 26  1  0
 25 27  1  0
 25 28  1  0
 28 29  1  0
 28 30  1  0
 28 31  1  0
 31 32  1  0
 31 33  1  0
 17 34  1  0
 34 35  1  0
 34 36  1  0
 36 37  2  0
 37 38  1  0
 38 39  1  0
 38 40  1  0
 40 41  1  0
 40 42  1  0
 40 43  1  0
 43 44  1  0
 43 45  1  0
 43 46  1  0
 46 47  1  0
 46 48  1  0
 36 49  1  0
 14 50  1  0
 50 51  1  0
 50 52  1  0
 50 53  1  0
 53 54  1  0
 53 55  1  0
  9  2  1  0
 49 15  2  0
 53  7  1  0
 31 18  1  0
 46 38  1  0
M  END
>  <UniqueID>  (39) 
484

>  <SMILES>  (39) 
c1ccc2c(c1)CCN(c1nc(N3CCCCC3)[nH]/c(=N\C3CCC3)n1)C2

>  <Energy>  (39) 
124.3069163040774

>  <Genealogy>  (39) 
c1ccc2c(c1)CCN(c1nc(N3CCCCC3)[nH]c(=NC3CCC3)n1)C2 (tautomer)
c1ccc2c(c1)CCN(c1nc(N3CCCCC3)[nH]/c(=N\C3CCC3)n1)C2 (cis-trans isomerization)
c1ccc2c(c1)CCN(c1nc(N3CCCCC3)[nH]/c(=N\C3CCC3)n1)C2 (3D coordinates assigned)
c1ccc2c(c1)CCN(c1nc(N3CCCCC3)[nH]/c(=N\C3CCC3)n1)C2 (nonaromatic ring conformer: 124.3069163040774 kcal/mol)

>  <smiles>  (39) 
c1ccc2c(c1)CCN(c1nc(NC3CCC3)nc(N3CCCCC3)n1)C2

>  <score_type>  (39) 
oracle

>  <origin>  (39) 
autodockgpu

>  <m_score__min__energy>  (39) 
-7.6799999999999997

>  <m_primary>  (39) 
energy

>  <meeko>  (39) 
{"free_energy": -7.67, "intermolecular_energy": -8.86, "internal_energy": -0.92, "cluster_size": 17, "cluster_id": 1, "rank_in_cluster": 4}

>  <energy>  (39) 
-7.41

>  <cluster_rmsd>  (39) 
0.7

>  <rmsd>  (39) 
269.8

>  <cluster>  (39) 
2

$$$$
JGFXCGHACWUNAV-OYOSFLFPNA-N
     RDKit          3D

 55 59  0  0  0  0  0  0  0  0999 V2000
  140.4073   70.5262  229.3255 H   0  0  0  0  0  0  0  0  0  0  0  0
  140.1820   70.2730  228.2790 C   0  0  0  0  0  0  0  0  0  0  0  0
  139.3460   69.1940  227.9890 C   0  0  0  0  0  0  0  0  0  0  0  0
  138.9112   68.5999  228.8064 H   0  0  0  0  0  0  0  0  0  0  0  0
  139.0610   68.8680  226.6600 C   0  0  0  0  0  0  0  0  0  0  0  0
  138.4121   68.0097  226.4315 H   0  0  0  0  0  0  0  0  0  0  0  0
  139.6030   69.6360  225.6160 C   0  0  0  0  0  0  0  0  0  0  0  0
  140.4410   70.7240  225.9060 C   0  0  0  0  0  0  0  0  0  0  0  0
  140.7340   71.0330  227.2440 C   0  0  0  0  0  0  0  0  0  0  0  0
  141.4003   71.8762  227.4785 H   0  0  0  0  0  0  0  0  0  0  0  0
  141.0760   71.5170  224.7910 C   0  0  0  0  0  0  0  0  0  0  0  0
  142.0737   71.1003  224.5887 H   0  0  0  0  0  0  0  0  0  0  0  0
  141.1277   72.5651  225.1210 H   0  0  0  0  0  0  0  0  0  0  0  0
  140.2910   71.4860  223.5410 N   0  0  0  0  0  0  0  0  0  0  0  0
  140.6010   72.4420  222.5060 C   0  0  0  0  0  0  0  0  0  0  0  0
  140.0350   73.6760  222.5190 N   0  0  0  0  0  0  0  0  0  0  0  0
  140.3120   74.5820  221.5460 C   0  0  0  0  0  0  0  0  0  0  0  0
  139.7150   75.8900  221.6030 N   0  0  0  0  0  0  0  0  0  0  0  0
  140.3820   77.0630  221.0210 C   0  0  0  0  0  0  0  0  0  0  0  0
  141.4057   76.7888  220.7263 H   0  0  0  0  0  0  0  0  0  0  0  0
  139.8125   77.3977  220.1414 H   0  0  0  0  0  0  0  0  0  0  0  0
  140.4390   78.2090  222.0440 C   0  0  0  0  0  0  0  0  0  0  0  0
  141.3080   78.0491  222.6992 H   0  0  0  0  0  0  0  0  0  0  0  0
  140.5146   79.1484  221.4766 H   0  0  0  0  0  0  0  0  0  0  0  0
  139.1730   78.3070  222.9240 C   0  0  0  0  0  0  0  0  0  0  0  0
  139.4093   77.9152  223.9243 H   0  0  0  0  0  0  0  0  0  0  0  0
  138.8759   79.3655  222.9597 H   0  0  0  0  0  0  0  0  0  0  0  0
  137.9890   77.5140  222.3540 C   0  0  0  0  0  0  0  0  0  0  0  0
  137.1361   77.5895  223.0446 H   0  0  0  0  0  0  0  0  0  0  0  0
  137.7189   77.9317  221.3729 H   0  0  0  0  0  0  0  0  0  0  0  0
  138.3690   76.0370  222.1790 C   0  0  0  0  0  0  0  0  0  0  0  0
  138.3450   75.5431  223.1616 H   0  0  0  0  0  0  0  0  0  0  0  0
  137.6469   75.5746  221.4900 H   0  0  0  0  0  0  0  0  0  0  0  0
  141.1920   74.2560  220.5570 N   0  0  0  0  0  0  0  0  0  0  0  0
  141.4460   74.9750  219.8470 H   0  0  0  0  0  0  0  0  0  0  0  0
  141.7690   73.0170  220.5350 C   0  0  0  0  0  0  0  0  0  0  0  0
  142.6140   72.6670  219.6080 N   0  0  0  0  0  0  0  0  0  0  0  0
  143.9460   73.2390  219.3970 C   0  0  0  0  0  0  0  0  0  0  0  0
  143.9251   73.4618  218.3200 H   0  0  0  0  0  0  0  0  0  0  0  0
  144.2800   74.3380  220.4010 C   0  0  0  0  0  0  0  0  0  0  0  0
  144.6532   75.2663  219.9438 H   0  0  0  0  0  0  0  0  0  0  0  0
  143.4946   74.7657  221.0415 H   0  0  0  0  0  0  0  0  0  0  0  0
  145.3680   73.4580  220.9980 C   0  0  0  0  0  0  0  0  0  0  0  0
  146.3837   73.8665  220.8911 H   0  0  0  0  0  0  0  0  0  0  0  0
  145.3786   73.2442  222.0770 H   0  0  0  0  0  0  0  0  0  0  0  0
  145.0340   72.3580  220.0010 C   0  0  0  0  0  0  0  0  0  0  0  0
  145.8529   72.1162  219.3076 H   0  0  0  0  0  0  0  0  0  0  0  0
  144.7986   71.3418  220.3502 H   0  0  0  0  0  0  0  0  0  0  0  0
  141.4650   72.1220  221.5080 N   0  0  0  0  0  0  0  0  0  0  0  0
  139.1750   70.5420  223.3410 C   0  0  0  0  0  0  0  0  0  0  0  0
  139.1362   70.2572  222.2792 H   0  0  0  0  0  0  0  0  0  0  0  0
  138.2460   71.0421  223.6520 H   0  0  0  0  0  0  0  0  0  0  0  0
  139.3380   69.2780  224.1860 C   0  0  0  0  0  0  0  0  0  0  0  0
  140.1818   68.6888  223.7976 H   0  0  0  0  0  0  0  0  0  0  0  0
  138.4096   68.6905  224.1316 H   0  0  0  0  0  0  0  0  0  0  0  0
  1  2  1  0
  2  3  2  0
  3  4  1  0
  3  5  1  0
  5  6  1  0
  5  7  2  0
  7  8  1  0
  8  9  2  0
  9 10  1  0
  8 11  1  0
 11 12  1  0
 11 13  1  0
 11 14  1  0
 14 15  1  0
 15 16  1  0
 16 17  2  0
 17 18  1  0
 18 19  1  0
 19 20  1  0
 19 21  1  0
 19 22  1  0
 22 23  1  0
 22 24  1  0
 22 25  1  0
 25 26  1  0
 25 27  1  0
 25 28  1  0
 28 29  1  0
 28 30  1  0
 28 31  1  0
 31 32  1  0
 31 33  1  0
 17 34  1  0
 34 35  1  0
 34 36  1  0
 36 37  2  0
 37 38  1  0
 38 39  1  0
 38 40  1  0
 40 41  1  0
 40 42  1  0
 40 43  1  0
 43 44  1  0
 43 45  1  0
 43 46  1  0
 46 47  1  0
 46 48  1  0
 36 49  1  0
 14 50  1  0
 50 51  1  0
 50 52  1  0
 50 53  1  0
 53 54  1  0
 53 55  1  0
  9  2  1  0
 49 15  2  0
 53  7  1  0
 31 18  1  0
 46 38  1  0
M  END
>  <UniqueID>  (40) 
484

>  <SMILES>  (40) 
c1ccc2c(c1)CCN(c1nc(N3CCCCC3)[nH]/c(=N\C3CCC3)n1)C2

>  <Energy>  (40) 
124.3069163040774

>  <Genealogy>  (40) 
c1ccc2c(c1)CCN(c1nc(N3CCCCC3)[nH]c(=NC3CCC3)n1)C2 (tautomer)
c1ccc2c(c1)CCN(c1nc(N3CCCCC3)[nH]/c(=N\C3CCC3)n1)C2 (cis-trans isomerization)
c1ccc2c(c1)CCN(c1nc(N3CCCCC3)[nH]/c(=N\C3CCC3)n1)C2 (3D coordinates assigned)
c1ccc2c(c1)CCN(c1nc(N3CCCCC3)[nH]/c(=N\C3CCC3)n1)C2 (nonaromatic ring conformer: 124.3069163040774 kcal/mol)

>  <smiles>  (40) 
c1ccc2c(c1)CCN(c1nc(NC3CCC3)nc(N3CCCCC3)n1)C2

>  <score_type>  (40) 
oracle

>  <origin>  (40) 
autodockgpu

>  <m_score__min__energy>  (40) 
-7.6799999999999997

>  <m_primary>  (40) 
energy

>  <meeko>  (40) 
{"free_energy": -7.64, "intermolecular_energy": -8.83, "internal_energy": -0.91, "cluster_size": 17, "cluster_id": 1, "rank_in_cluster": 11}

>  <energy>  (40) 
-7.4

>  <cluster_rmsd>  (40) 
0.69

>  <rmsd>  (40) 
269.79

>  <cluster>  (40) 
2

$$$$
JGFXCGHACWUNAV-PBFIRHMANA-O
     RDKit          3D

 56 60  0  0  0  0  0  0  0  0999 V2000
  140.9550   68.7259  228.3497 H   0  0  0  0  0  0  0  0  0  0  0  0
  140.5850   68.8640  227.3230 C   0  0  0  0  0  0  0  0  0  0  0  0
  139.9800   67.8020  226.6520 C   0  0  0  0  0  0  0  0  0  0  0  0
  139.8789   66.8254  227.1480 H   0  0  0  0  0  0  0  0  0  0  0  0
  139.5020   67.9760  225.3510 C   0  0  0  0  0  0  0  0  0  0  0  0
  139.0322   67.1322  224.8244 H   0  0  0  0  0  0  0  0  0  0  0  0
  139.6170   69.2200  224.7110 C   0  0  0  0  0  0  0  0  0  0  0  0
  140.2550   70.2920  225.3810 C   0  0  0  0  0  0  0  0  0  0  0  0
  140.7220   70.1050  226.6920 C   0  0  0  0  0  0  0  0  0  0  0  0
  141.1987   70.9399  227.2264 H   0  0  0  0  0  0  0  0  0  0  0  0
  140.4160   71.6500  224.7360 C   0  0  0  0  0  0  0  0  0  0  0  0
  141.4680   71.9605  224.8191 H   0  0  0  0  0  0  0  0  0  0  0  0
  139.7514   72.3551  225.2567 H   0  0  0  0  0  0  0  0  0  0  0  0
  140.0370   71.6320  223.3160 N   0  0  0  0  0  0  0  0  0  0  0  0
  140.6730   72.5240  222.3790 C   0  0  0  0  0  0  0  0  0  0  0  0
  140.3390   73.8390  222.3450 N   0  0  0  0  0  0  0  0  0  0  0  0
  140.9440   74.6900  221.4770 C   0  0  0  0  0  0  0  0  0  0  0  0
  140.5780   76.0830  221.4760 N   0  0  0  0  0  0  0  0  0  0  0  0
  141.2140   77.0420  220.5610 C   0  0  0  0  0  0  0  0  0  0  0  0
  142.0761   76.5614  220.0754 H   0  0  0  0  0  0  0  0  0  0  0  0
  140.4777   77.3541  219.8057 H   0  0  0  0  0  0  0  0  0  0  0  0
  141.6940   78.2840  221.3290 C   0  0  0  0  0  0  0  0  0  0  0  0
  142.7000   78.0817  221.7254 H   0  0  0  0  0  0  0  0  0  0  0  0
  141.6877   79.1261  220.6213 H   0  0  0  0  0  0  0  0  0  0  0  0
  140.7720   78.6710  222.5070 C   0  0  0  0  0  0  0  0  0  0  0  0
  141.2268   78.3153  223.4433 H   0  0  0  0  0  0  0  0  0  0  0  0
  140.6632   79.7656  222.5025 H   0  0  0  0  0  0  0  0  0  0  0  0
  139.3710   78.0610  222.3770 C   0  0  0  0  0  0  0  0  0  0  0  0
  138.7627   78.3602  223.2433 H   0  0  0  0  0  0  0  0  0  0  0  0
  138.9064   78.4239  221.4483 H   0  0  0  0  0  0  0  0  0  0  0  0
  139.4620   76.5290  222.3260 C   0  0  0  0  0  0  0  0  0  0  0  0
  139.6141   76.1458  223.3458 H   0  0  0  0  0  0  0  0  0  0  0  0
  138.5257   76.1416  221.8978 H   0  0  0  0  0  0  0  0  0  0  0  0
  141.9240   74.2220  220.6520 N   0  0  0  0  0  0  0  0  0  0  0  0
  142.4400   74.8800  220.0260 H   0  0  0  0  0  0  0  0  0  0  0  0
  142.2690   72.9020  220.6750 C   0  0  0  0  0  0  0  0  0  0  0  0
  143.2090   72.4520  219.8880 N   0  0  0  0  0  0  0  0  0  0  0  0
  143.0600   71.5410  219.3950 H   0  0  0  0  0  0  0  0  0  0  0  0
  144.4820   73.1610  219.6940 C   0  0  0  0  0  0  0  0  0  0  0  0
  144.3568   73.5251  218.6636 H   0  0  0  0  0  0  0  0  0  0  0  0
  144.8080   74.1400  220.8230 C   0  0  0  0  0  0  0  0  0  0  0  0
  145.0629   75.1535  220.4797 H   0  0  0  0  0  0  0  0  0  0  0  0
  144.0470   74.3995  221.5737 H   0  0  0  0  0  0  0  0  0  0  0  0
  146.0130   73.2910  221.2060 C   0  0  0  0  0  0  0  0  0  0  0  0
  146.9786   73.8040  221.0859 H   0  0  0  0  0  0  0  0  0  0  0  0
  146.1322   72.9328  222.2392 H   0  0  0  0  0  0  0  0  0  0  0  0
  145.6890   72.3110  220.0880 C   0  0  0  0  0  0  0  0  0  0  0  0
  146.4643   72.2441  219.3106 H   0  0  0  0  0  0  0  0  0  0  0  0
  145.5688   71.2392  220.3042 H   0  0  0  0  0  0  0  0  0  0  0  0
  141.6360   72.0640  221.5390 N   0  0  0  0  0  0  0  0  0  0  0  0
  138.8830   70.8160  222.9240 C   0  0  0  0  0  0  0  0  0  0  0  0
  138.7243   70.9017  221.8389 H   0  0  0  0  0  0  0  0  0  0  0  0
  137.9858   71.1693  223.4534 H   0  0  0  0  0  0  0  0  0  0  0  0
  139.1480   69.3590  223.2860 C   0  0  0  0  0  0  0  0  0  0  0  0
  139.9220   68.9590  222.6144 H   0  0  0  0  0  0  0  0  0  0  0  0
  138.2071   68.7998  223.1765 H   0  0  0  0  0  0  0  0  0  0  0  0
  1  2  1  0
  2  3  2  0
  3  4  1  0
  3  5  1  0
  5  6  1  0
  5  7  2  0
  7  8  1  0
  8  9  2  0
  9 10  1  0
  8 11  1  0
 11 12  1  0
 11 13  1  0
 11 14  1  0
 14 15  1  0
 15 16  1  0
 16 17  2  0
 17 18  1  0
 18 19  1  0
 19 20  1  0
 19 21  1  0
 19 22  1  0
 22 23  1  0
 22 24  1  0
 22 25  1  0
 25 26  1  0
 25 27  1  0
 25 28  1  0
 28 29  1  0
 28 30  1  0
 28 31  1  0
 31 32  1  0
 31 33  1  0
 17 34  1  0
 34 35  1  0
 34 36  1  0
 36 37  2  0
 37 38  1  0
 37 39  1  0
 39 40  1  0
 39 41  1  0
 41 42  1  0
 41 43  1  0
 41 44  1  0
 44 45  1  0
 44 46  1  0
 44 47  1  0
 47 48  1  0
 47 49  1  0
 36 50  1  0
 14 51  1  0
 51 52  1  0
 51 53  1  0
 51 54  1  0
 54 55  1  0
 54 56  1  0
  9  2  1  0
 50 15  2  0
 54  7  1  0
 31 18  1  0
 47 39  1  0
M  CHG  1  37   1
M  END
>  <UniqueID>  (41) 
485

>  <SMILES>  (41) 
c1ccc2c(c1)CCN(c1nc(N3CCCCC3)[nH]/c(=[NH+]/C3CCC3)n1)C2

>  <Energy>  (41) 
125.37893925514972

>  <Genealogy>  (41) 
c1ccc2c(c1)CCN(c1nc([NH2+]C3CCC3)nc(N3CCCCC3)n1)C2 (protonated)
c1ccc2c(c1)CCN(c1nc(N3CCCCC3)[nH]c(=[NH+]C3CCC3)n1)C2 (tautomer)
c1ccc2c(c1)CCN(c1nc(N3CCCCC3)[nH]/c(=[NH+]/C3CCC3)n1)C2 (cis-trans isomerization)
c1ccc2c(c1)CCN(c1nc(N3CCCCC3)[nH]/c(=[NH+]/C3CCC3)n1)C2 (3D coordinates assigned)
c1ccc2c(c1)CCN(c1nc(N3CCCCC3)[nH]/c(=[NH+]/C3CCC3)n1)C2 (nonaromatic ring conformer: 125.37893925514972 kcal/mol)

>  <smiles>  (41) 
c1ccc2c(c1)CCN(c1nc(NC3CCC3)nc(N3CCCCC3)n1)C2

>  <score_type>  (41) 
oracle

>  <origin>  (41) 
autodockgpu

>  <m_score__min__energy>  (41) 
-8.3200000000000003

>  <m_primary>  (41) 
energy

>  <meeko>  (41) 
{"free_energy": -8.31, "intermolecular_energy": -9.5, "internal_energy": -0.45, "cluster_size": 20, "cluster_id": 1, "rank_in_cluster": 4}

>  <energy>  (41) 
-8.32

>  <cluster_rmsd>  (41) 
0.0

>  <rmsd>  (41) 
271.0

>  <cluster>  (41) 
1

$$$$
JGFXCGHACWUNAV-PBFIRHMANA-O
     RDKit          3D

 56 60  0  0  0  0  0  0  0  0999 V2000
  140.8683   68.7469  228.4418 H   0  0  0  0  0  0  0  0  0  0  0  0
  140.5200   68.8640  227.4050 C   0  0  0  0  0  0  0  0  0  0  0  0
  139.9440   67.7840  226.7370 C   0  0  0  0  0  0  0  0  0  0  0  0
  139.8429   66.8143  227.2463 H   0  0  0  0  0  0  0  0  0  0  0  0
  139.4950   67.9310  225.4220 C   0  0  0  0  0  0  0  0  0  0  0  0
  139.0499   67.0726  224.8976 H   0  0  0  0  0  0  0  0  0  0  0  0
  139.6080   69.1660  224.7660 C   0  0  0  0  0  0  0  0  0  0  0  0
  140.2170   70.2570  225.4330 C   0  0  0  0  0  0  0  0  0  0  0  0
  140.6550   70.0960  226.7570 C   0  0  0  0  0  0  0  0  0  0  0  0
  141.1080   70.9456  227.2890 H   0  0  0  0  0  0  0  0  0  0  0  0
  140.3760   71.6070  224.7710 C   0  0  0  0  0  0  0  0  0  0  0  0
  141.4219   71.9322  224.8733 H   0  0  0  0  0  0  0  0  0  0  0  0
  139.6912   72.3117  225.2654 H   0  0  0  0  0  0  0  0  0  0  0  0
  140.0300   71.5620  223.3430 N   0  0  0  0  0  0  0  0  0  0  0  0
  140.6770   72.4470  222.4070 C   0  0  0  0  0  0  0  0  0  0  0  0
  140.3310   73.7590  222.3490 N   0  0  0  0  0  0  0  0  0  0  0  0
  140.9450   74.6040  221.4820 C   0  0  0  0  0  0  0  0  0  0  0  0
  140.5670   75.9940  221.4550 N   0  0  0  0  0  0  0  0  0  0  0  0
  141.1820   76.9380  220.5120 C   0  0  0  0  0  0  0  0  0  0  0  0
  142.0424   76.4548  220.0260 H   0  0  0  0  0  0  0  0  0  0  0  0
  140.4331   77.2267  219.7598 H   0  0  0  0  0  0  0  0  0  0  0  0
  141.6600   78.2010  221.2460 C   0  0  0  0  0  0  0  0  0  0  0  0
  142.6728   78.0169  221.6338 H   0  0  0  0  0  0  0  0  0  0  0  0
  141.6371   79.0272  220.5202 H   0  0  0  0  0  0  0  0  0  0  0  0
  140.7490   78.6050  222.4270 C   0  0  0  0  0  0  0  0  0  0  0  0
  141.2182   78.2731  223.3649 H   0  0  0  0  0  0  0  0  0  0  0  0
  140.6306   79.6983  222.4009 H   0  0  0  0  0  0  0  0  0  0  0  0
  139.3510   77.9800  222.3270 C   0  0  0  0  0  0  0  0  0  0  0  0
  138.7502   78.2922  223.1939 H   0  0  0  0  0  0  0  0  0  0  0  0
  138.8712   78.3189  221.3970 H   0  0  0  0  0  0  0  0  0  0  0  0
  139.4570   76.4480  222.3080 C   0  0  0  0  0  0  0  0  0  0  0  0
  139.6248   76.0887  223.3340 H   0  0  0  0  0  0  0  0  0  0  0  0
  138.5198   76.0426  221.8991 H   0  0  0  0  0  0  0  0  0  0  0  0
  141.9460   74.1340  220.6830 N   0  0  0  0  0  0  0  0  0  0  0  0
  142.4690   74.7900  220.0580 H   0  0  0  0  0  0  0  0  0  0  0  0
  142.3030   72.8190  220.7310 C   0  0  0  0  0  0  0  0  0  0  0  0
  143.2620   72.3670  219.9680 N   0  0  0  0  0  0  0  0  0  0  0  0
  143.1670   71.4130  219.5500 H   0  0  0  0  0  0  0  0  0  0  0  0
  144.4870   73.1370  219.7030 C   0  0  0  0  0  0  0  0  0  0  0  0
  144.2743   73.5152  218.6922 H   0  0  0  0  0  0  0  0  0  0  0  0
  144.8480   74.1070  220.8280 C   0  0  0  0  0  0  0  0  0  0  0  0
  145.0336   75.1374  220.4906 H   0  0  0  0  0  0  0  0  0  0  0  0
  144.1304   74.3168  221.6349 H   0  0  0  0  0  0  0  0  0  0  0  0
  146.1130   73.3070  221.1090 C   0  0  0  0  0  0  0  0  0  0  0  0
  147.0444   73.8654  220.9340 H   0  0  0  0  0  0  0  0  0  0  0  0
  146.3201   72.9353  222.1233 H   0  0  0  0  0  0  0  0  0  0  0  0
  145.7540   72.3350  219.9940 C   0  0  0  0  0  0  0  0  0  0  0  0
  146.4753   72.3178  219.1637 H   0  0  0  0  0  0  0  0  0  0  0  0
  145.6956   71.2550  220.1943 H   0  0  0  0  0  0  0  0  0  0  0  0
  141.6600   71.9860  221.5930 N   0  0  0  0  0  0  0  0  0  0  0  0
  138.8960   70.7260  222.9370 C   0  0  0  0  0  0  0  0  0  0  0  0
  138.7618   70.7931  221.8473 H   0  0  0  0  0  0  0  0  0  0  0  0
  137.9821   71.0759  223.4394 H   0  0  0  0  0  0  0  0  0  0  0  0
  139.1710   69.2780  223.3280 C   0  0  0  0  0  0  0  0  0  0  0  0
  139.9657   68.8781  222.6811 H   0  0  0  0  0  0  0  0  0  0  0  0
  138.2399   68.7053  223.2054 H   0  0  0  0  0  0  0  0  0  0  0  0
  1  2  1  0
  2  3  2  0
  3  4  1  0
  3  5  1  0
  5  6  1  0
  5  7  2  0
  7  8  1  0
  8  9  2  0
  9 10  1  0
  8 11  1  0
 11 12  1  0
 11 13  1  0
 11 14  1  0
 14 15  1  0
 15 16  1  0
 16 17  2  0
 17 18  1  0
 18 19  1  0
 19 20  1  0
 19 21  1  0
 19 22  1  0
 22 23  1  0
 22 24  1  0
 22 25  1  0
 25 26  1  0
 25 27  1  0
 25 28  1  0
 28 29  1  0
 28 30  1  0
 28 31  1  0
 31 32  1  0
 31 33  1  0
 17 34  1  0
 34 35  1  0
 34 36  1  0
 36 37  2  0
 37 38  1  0
 37 39  1  0
 39 40  1  0
 39 41  1  0
 41 42  1  0
 41 43  1  0
 41 44  1  0
 44 45  1  0
 44 46  1  0
 44 47  1  0
 47 48  1  0
 47 49  1  0
 36 50  1  0
 14 51  1  0
 51 52  1  0
 51 53  1  0
 51 54  1  0
 54 55  1  0
 54 56  1  0
  9  2  1  0
 50 15  2  0
 54  7  1  0
 31 18  1  0
 47 39  1  0
M  CHG  1  37   1
M  END
>  <UniqueID>  (42) 
485

>  <SMILES>  (42) 
c1ccc2c(c1)CCN(c1nc(N3CCCCC3)[nH]/c(=[NH+]/C3CCC3)n1)C2

>  <Energy>  (42) 
125.37893925514972

>  <Genealogy>  (42) 
c1ccc2c(c1)CCN(c1nc([NH2+]C3CCC3)nc(N3CCCCC3)n1)C2 (protonated)
c1ccc2c(c1)CCN(c1nc(N3CCCCC3)[nH]c(=[NH+]C3CCC3)n1)C2 (tautomer)
c1ccc2c(c1)CCN(c1nc(N3CCCCC3)[nH]/c(=[NH+]/C3CCC3)n1)C2 (cis-trans isomerization)
c1ccc2c(c1)CCN(c1nc(N3CCCCC3)[nH]/c(=[NH+]/C3CCC3)n1)C2 (3D coordinates assigned)
c1ccc2c(c1)CCN(c1nc(N3CCCCC3)[nH]/c(=[NH+]/C3CCC3)n1)C2 (nonaromatic ring conformer: 125.37893925514972 kcal/mol)

>  <smiles>  (42) 
c1ccc2c(c1)CCN(c1nc(NC3CCC3)nc(N3CCCCC3)n1)C2

>  <score_type>  (42) 
oracle

>  <origin>  (42) 
autodockgpu

>  <m_score__min__energy>  (42) 
-8.3200000000000003

>  <m_primary>  (42) 
energy

>  <meeko>  (42) 
{"free_energy": -8.31, "intermolecular_energy": -9.51, "internal_energy": -0.44, "cluster_size": 20, "cluster_id": 1, "rank_in_cluster": 3}

>  <energy>  (42) 
-8.31

>  <cluster_rmsd>  (42) 
0.05

>  <rmsd>  (42) 
271.0

>  <cluster>  (42) 
1

$$$$
JGFXCGHACWUNAV-PBFIRHMANA-O
     RDKit          3D

 56 60  0  0  0  0  0  0  0  0999 V2000
  140.9616   68.7587  228.4203 H   0  0  0  0  0  0  0  0  0  0  0  0
  140.5980   68.8780  227.3890 C   0  0  0  0  0  0  0  0  0  0  0  0
  140.0120   67.7990  226.7280 C   0  0  0  0  0  0  0  0  0  0  0  0
  139.9180   66.8284  227.2370 H   0  0  0  0  0  0  0  0  0  0  0  0
  139.5440   67.9490  225.4200 C   0  0  0  0  0  0  0  0  0  0  0  0
  139.0907   67.0918  224.9007 H   0  0  0  0  0  0  0  0  0  0  0  0
  139.6480   69.1850  224.7640 C   0  0  0  0  0  0  0  0  0  0  0  0
  140.2670   70.2750  225.4250 C   0  0  0  0  0  0  0  0  0  0  0  0
  140.7240   70.1120  226.7420 C   0  0  0  0  0  0  0  0  0  0  0  0
  141.1845   70.9605  227.2692 H   0  0  0  0  0  0  0  0  0  0  0  0
  140.4160   71.6260  224.7630 C   0  0  0  0  0  0  0  0  0  0  0  0
  141.4631   71.9514  224.8512 H   0  0  0  0  0  0  0  0  0  0  0  0
  139.7376   72.3292  225.2682 H   0  0  0  0  0  0  0  0  0  0  0  0
  140.0500   71.5840  223.3400 N   0  0  0  0  0  0  0  0  0  0  0  0
  140.6830   72.4710  222.3960 C   0  0  0  0  0  0  0  0  0  0  0  0
  140.3310   73.7810  222.3410 N   0  0  0  0  0  0  0  0  0  0  0  0
  140.9330   74.6270  221.4660 C   0  0  0  0  0  0  0  0  0  0  0  0
  140.5480   76.0150  221.4420 N   0  0  0  0  0  0  0  0  0  0  0  0
  141.1400   76.9580  220.4820 C   0  0  0  0  0  0  0  0  0  0  0  0
  141.9921   76.4761  219.9803 H   0  0  0  0  0  0  0  0  0  0  0  0
  140.3747   77.2407  219.7442 H   0  0  0  0  0  0  0  0  0  0  0  0
  141.6280   78.2260  221.2010 C   0  0  0  0  0  0  0  0  0  0  0  0
  142.6495   78.0476  221.5679 H   0  0  0  0  0  0  0  0  0  0  0  0
  141.5860   79.0492  220.4726 H   0  0  0  0  0  0  0  0  0  0  0  0
  140.7410   78.6310  222.3990 C   0  0  0  0  0  0  0  0  0  0  0  0
  141.2317   78.3053  223.3280 H   0  0  0  0  0  0  0  0  0  0  0  0
  140.6171   79.7236  222.3705 H   0  0  0  0  0  0  0  0  0  0  0  0
  139.3450   78.0000  222.3320 C   0  0  0  0  0  0  0  0  0  0  0  0
  138.7619   78.3135  223.2105 H   0  0  0  0  0  0  0  0  0  0  0  0
  138.8443   78.3328  221.4109 H   0  0  0  0  0  0  0  0  0  0  0  0
  139.4560   76.4690  222.3170 C   0  0  0  0  0  0  0  0  0  0  0  0
  139.6476   76.1147  223.3406 H   0  0  0  0  0  0  0  0  0  0  0  0
  138.5114   76.0588  221.9304 H   0  0  0  0  0  0  0  0  0  0  0  0
  141.9270   74.1610  220.6560 N   0  0  0  0  0  0  0  0  0  0  0  0
  142.4400   74.8180  220.0260 H   0  0  0  0  0  0  0  0  0  0  0  0
  142.2900   72.8470  220.7020 C   0  0  0  0  0  0  0  0  0  0  0  0
  143.2420   72.3980  219.9300 N   0  0  0  0  0  0  0  0  0  0  0  0
  143.1260   71.4620  219.4780 H   0  0  0  0  0  0  0  0  0  0  0  0
  144.4880   73.1460  219.6990 C   0  0  0  0  0  0  0  0  0  0  0  0
  144.3264   73.4973  218.6692 H   0  0  0  0  0  0  0  0  0  0  0  0
  144.8100   74.1440  220.8120 C   0  0  0  0  0  0  0  0  0  0  0  0
  145.0235   75.1623  220.4550 H   0  0  0  0  0  0  0  0  0  0  0  0
  144.0598   74.3852  221.5795 H   0  0  0  0  0  0  0  0  0  0  0  0
  146.0510   73.3370  221.1710 C   0  0  0  0  0  0  0  0  0  0  0  0
  146.9964   73.8792  221.0220 H   0  0  0  0  0  0  0  0  0  0  0  0
  146.2078   72.9919  222.2036 H   0  0  0  0  0  0  0  0  0  0  0  0
  145.7300   72.3380  220.0700 C   0  0  0  0  0  0  0  0  0  0  0  0
  146.4876   72.2881  219.2740 H   0  0  0  0  0  0  0  0  0  0  0  0
  145.6485   71.2650  220.2983 H   0  0  0  0  0  0  0  0  0  0  0  0
  141.6590   72.0120  221.5720 N   0  0  0  0  0  0  0  0  0  0  0  0
  138.9100   70.7480  222.9490 C   0  0  0  0  0  0  0  0  0  0  0  0
  138.7597   70.8172  221.8615 H   0  0  0  0  0  0  0  0  0  0  0  0
  138.0036   71.0965  223.4658 H   0  0  0  0  0  0  0  0  0  0  0  0
  139.1910   69.2990  223.3330 C   0  0  0  0  0  0  0  0  0  0  0  0
  139.9767   68.9007  222.6742 H   0  0  0  0  0  0  0  0  0  0  0  0
  138.2587   68.7259  223.2220 H   0  0  0  0  0  0  0  0  0  0  0  0
  1  2  1  0
  2  3  2  0
  3  4  1  0
  3  5  1  0
  5  6  1  0
  5  7  2  0
  7  8  1  0
  8  9  2  0
  9 10  1  0
  8 11  1  0
 11 12  1  0
 11 13  1  0
 11 14  1  0
 14 15  1  0
 15 16  1  0
 16 17  2  0
 17 18  1  0
 18 19  1  0
 19 20  1  0
 19 21  1  0
 19 22  1  0
 22 23  1  0
 22 24  1  0
 22 25  1  0
 25 26  1  0
 25 27  1  0
 25 28  1  0
 28 29  1  0
 28 30  1  0
 28 31  1  0
 31 32  1  0
 31 33  1  0
 17 34  1  0
 34 35  1  0
 34 36  1  0
 36 37  2  0
 37 38  1  0
 37 39  1  0
 39 40  1  0
 39 41  1  0
 41 42  1  0
 41 43  1  0
 41 44  1  0
 44 45  1  0
 44 46  1  0
 44 47  1  0
 47 48  1  0
 47 49  1  0
 36 50  1  0
 14 51  1  0
 51 52  1  0
 51 53  1  0
 51 54  1  0
 54 55  1  0
 54 56  1  0
  9  2  1  0
 50 15  2  0
 54  7  1  0
 31 18  1  0
 47 39  1  0
M  CHG  1  37   1
M  END
>  <UniqueID>  (43) 
485

>  <SMILES>  (43) 
c1ccc2c(c1)CCN(c1nc(N3CCCCC3)[nH]/c(=[NH+]/C3CCC3)n1)C2

>  <Energy>  (43) 
125.37893925514972

>  <Genealogy>  (43) 
c1ccc2c(c1)CCN(c1nc([NH2+]C3CCC3)nc(N3CCCCC3)n1)C2 (protonated)
c1ccc2c(c1)CCN(c1nc(N3CCCCC3)[nH]c(=[NH+]C3CCC3)n1)C2 (tautomer)
c1ccc2c(c1)CCN(c1nc(N3CCCCC3)[nH]/c(=[NH+]/C3CCC3)n1)C2 (cis-trans isomerization)
c1ccc2c(c1)CCN(c1nc(N3CCCCC3)[nH]/c(=[NH+]/C3CCC3)n1)C2 (3D coordinates assigned)
c1ccc2c(c1)CCN(c1nc(N3CCCCC3)[nH]/c(=[NH+]/C3CCC3)n1)C2 (nonaromatic ring conformer: 125.37893925514972 kcal/mol)

>  <smiles>  (43) 
c1ccc2c(c1)CCN(c1nc(NC3CCC3)nc(N3CCCCC3)n1)C2

>  <score_type>  (43) 
oracle

>  <origin>  (43) 
autodockgpu

>  <m_score__min__energy>  (43) 
-8.3200000000000003

>  <m_primary>  (43) 
energy

>  <meeko>  (43) 
{"free_energy": -8.32, "intermolecular_energy": -9.51, "internal_energy": -0.44, "cluster_size": 20, "cluster_id": 1, "rank_in_cluster": 1}

>  <energy>  (43) 
-8.31

>  <cluster_rmsd>  (43) 
0.05

>  <rmsd>  (43) 
271.0

>  <cluster>  (43) 
1

$$$$
JGFXCGHACWUNAV-PBFIRHMANA-O
     RDKit          3D

 56 60  0  0  0  0  0  0  0  0999 V2000
  141.1295   68.6849  228.4100 H   0  0  0  0  0  0  0  0  0  0  0  0
  140.7250   68.8120  227.3950 C   0  0  0  0  0  0  0  0  0  0  0  0
  140.1000   67.7420  226.7550 C   0  0  0  0  0  0  0  0  0  0  0  0
  140.0156   66.7707  227.2644 H   0  0  0  0  0  0  0  0  0  0  0  0
  139.5810   67.9020  225.4680 C   0  0  0  0  0  0  0  0  0  0  0  0
  139.0979   67.0514  224.9649 H   0  0  0  0  0  0  0  0  0  0  0  0
  139.6710   69.1390  224.8120 C   0  0  0  0  0  0  0  0  0  0  0  0
  140.3280   70.2190  225.4500 C   0  0  0  0  0  0  0  0  0  0  0  0
  140.8380   70.0470  226.7470 C   0  0  0  0  0  0  0  0  0  0  0  0
  141.3295   70.8886  227.2569 H   0  0  0  0  0  0  0  0  0  0  0  0
  140.4650   71.5710  224.7860 C   0  0  0  0  0  0  0  0  0  0  0  0
  141.5185   71.8842  224.8317 H   0  0  0  0  0  0  0  0  0  0  0  0
  139.8161   72.2801  225.3209 H   0  0  0  0  0  0  0  0  0  0  0  0
  140.0400   71.5380  223.3790 N   0  0  0  0  0  0  0  0  0  0  0  0
  140.6430   72.4210  222.4130 C   0  0  0  0  0  0  0  0  0  0  0  0
  140.2720   73.7250  222.3470 N   0  0  0  0  0  0  0  0  0  0  0  0
  140.8450   74.5680  221.4510 C   0  0  0  0  0  0  0  0  0  0  0  0
  140.4400   75.9500  221.4160 N   0  0  0  0  0  0  0  0  0  0  0  0
  141.2060   76.9550  220.6630 C   0  0  0  0  0  0  0  0  0  0  0  0
  142.1600   76.5140  220.3384 H   0  0  0  0  0  0  0  0  0  0  0  0
  140.6161   77.2698  219.7895 H   0  0  0  0  0  0  0  0  0  0  0  0
  141.4900   78.1850  221.5390 C   0  0  0  0  0  0  0  0  0  0  0  0
  142.4090   77.9988  222.1142 H   0  0  0  0  0  0  0  0  0  0  0  0
  141.5896   79.0482  220.8645 H   0  0  0  0  0  0  0  0  0  0  0  0
  140.3500   78.5090  222.5290 C   0  0  0  0  0  0  0  0  0  0  0  0
  140.6310   78.1369  223.5253 H   0  0  0  0  0  0  0  0  0  0  0  0
  140.2079   79.5998  222.5313 H   0  0  0  0  0  0  0  0  0  0  0  0
  139.0190   77.8650  222.1200 C   0  0  0  0  0  0  0  0  0  0  0  0
  138.2485   78.1196  222.8627 H   0  0  0  0  0  0  0  0  0  0  0  0
  138.7254   78.2443  221.1301 H   0  0  0  0  0  0  0  0  0  0  0  0
  139.1700   76.3380  222.0480 C   0  0  0  0  0  0  0  0  0  0  0  0
  139.1385   75.9274  223.0680 H   0  0  0  0  0  0  0  0  0  0  0  0
  138.3458   75.9385  221.4388 H   0  0  0  0  0  0  0  0  0  0  0  0
  141.8310   74.1050  220.6300 N   0  0  0  0  0  0  0  0  0  0  0  0
  142.3240   74.7610  219.9820 H   0  0  0  0  0  0  0  0  0  0  0  0
  142.2140   72.7970  220.6860 C   0  0  0  0  0  0  0  0  0  0  0  0
  143.1590   72.3520  219.9030 N   0  0  0  0  0  0  0  0  0  0  0  0
  143.0350   71.4210  219.4410 H   0  0  0  0  0  0  0  0  0  0  0  0
  144.4070   73.0960  219.6710 C   0  0  0  0  0  0  0  0  0  0  0  0
  144.2544   73.4319  218.6347 H   0  0  0  0  0  0  0  0  0  0  0  0
  144.7200   74.1100  220.7710 C   0  0  0  0  0  0  0  0  0  0  0  0
  144.9373   75.1226  220.4002 H   0  0  0  0  0  0  0  0  0  0  0  0
  143.9630   74.3629  221.5280 H   0  0  0  0  0  0  0  0  0  0  0  0
  145.9570   73.3090  221.1540 C   0  0  0  0  0  0  0  0  0  0  0  0
  146.9039   73.8486  221.0053 H   0  0  0  0  0  0  0  0  0  0  0  0
  146.1046   72.9801  222.1932 H   0  0  0  0  0  0  0  0  0  0  0  0
  145.6450   72.2930  220.0650 C   0  0  0  0  0  0  0  0  0  0  0  0
  146.4095   72.2306  219.2766 H   0  0  0  0  0  0  0  0  0  0  0  0
  145.5608   71.2236  220.3087 H   0  0  0  0  0  0  0  0  0  0  0  0
  141.6110   71.9650  221.5780 N   0  0  0  0  0  0  0  0  0  0  0  0
  138.8760   70.7160  223.0330 C   0  0  0  0  0  0  0  0  0  0  0  0
  138.6824   70.7898  221.9527 H   0  0  0  0  0  0  0  0  0  0  0  0
  137.9954   71.0733  223.5870 H   0  0  0  0  0  0  0  0  0  0  0  0
  139.1560   69.2630  223.4020 C   0  0  0  0  0  0  0  0  0  0  0  0
  139.9088   68.8575  222.7099 H   0  0  0  0  0  0  0  0  0  0  0  0
  138.2130   68.7014  223.3292 H   0  0  0  0  0  0  0  0  0  0  0  0
  1  2  1  0
  2  3  2  0
  3  4  1  0
  3  5  1  0
  5  6  1  0
  5  7  2  0
  7  8  1  0
  8  9  2  0
  9 10  1  0
  8 11  1  0
 11 12  1  0
 11 13  1  0
 11 14  1  0
 14 15  1  0
 15 16  1  0
 16 17  2  0
 17 18  1  0
 18 19  1  0
 19 20  1  0
 19 21  1  0
 19 22  1  0
 22 23  1  0
 22 24  1  0
 22 25  1  0
 25 26  1  0
 25 27  1  0
 25 28  1  0
 28 29  1  0
 28 30  1  0
 28 31  1  0
 31 32  1  0
 31 33  1  0
 17 34  1  0
 34 35  1  0
 34 36  1  0
 36 37  2  0
 37 38  1  0
 37 39  1  0
 39 40  1  0
 39 41  1  0
 41 42  1  0
 41 43  1  0
 41 44  1  0
 44 45  1  0
 44 46  1  0
 44 47  1  0
 47 48  1  0
 47 49  1  0
 36 50  1  0
 14 51  1  0
 51 52  1  0
 51 53  1  0
 51 54  1  0
 54 55  1  0
 54 56  1  0
  9  2  1  0
 50 15  2  0
 54  7  1  0
 31 18  1  0
 47 39  1  0
M  CHG  1  37   1
M  END
>  <UniqueID>  (44) 
485

>  <SMILES>  (44) 
c1ccc2c(c1)CCN(c1nc(N3CCCCC3)[nH]/c(=[NH+]/C3CCC3)n1)C2

>  <Energy>  (44) 
125.37893925514972

>  <Genealogy>  (44) 
c1ccc2c(c1)CCN(c1nc([NH2+]C3CCC3)nc(N3CCCCC3)n1)C2 (protonated)
c1ccc2c(c1)CCN(c1nc(N3CCCCC3)[nH]c(=[NH+]C3CCC3)n1)C2 (tautomer)
c1ccc2c(c1)CCN(c1nc(N3CCCCC3)[nH]/c(=[NH+]/C3CCC3)n1)C2 (cis-trans isomerization)
c1ccc2c(c1)CCN(c1nc(N3CCCCC3)[nH]/c(=[NH+]/C3CCC3)n1)C2 (3D coordinates assigned)
c1ccc2c(c1)CCN(c1nc(N3CCCCC3)[nH]/c(=[NH+]/C3CCC3)n1)C2 (nonaromatic ring conformer: 125.37893925514972 kcal/mol)

>  <smiles>  (44) 
c1ccc2c(c1)CCN(c1nc(NC3CCC3)nc(N3CCCCC3)n1)C2

>  <score_type>  (44) 
oracle

>  <origin>  (44) 
autodockgpu

>  <m_score__min__energy>  (44) 
-8.3200000000000003

>  <m_primary>  (44) 
energy

>  <meeko>  (44) 
{"free_energy": -8.29, "intermolecular_energy": -9.48, "internal_energy": -0.45, "cluster_size": 20, "cluster_id": 1, "rank_in_cluster": 16}

>  <energy>  (44) 
-8.31

>  <cluster_rmsd>  (44) 
0.08

>  <rmsd>  (44) 
271.0

>  <cluster>  (44) 
1

$$$$
JGFXCGHACWUNAV-PBFIRHMANA-O
     RDKit          3D

 56 60  0  0  0  0  0  0  0  0999 V2000
  141.0710   68.6642  228.3461 H   0  0  0  0  0  0  0  0  0  0  0  0
  140.6790   68.8050  227.3280 C   0  0  0  0  0  0  0  0  0  0  0  0
  140.0560   67.7460  226.6690 C   0  0  0  0  0  0  0  0  0  0  0  0
  139.9621   66.7692  227.1661 H   0  0  0  0  0  0  0  0  0  0  0  0
  139.5510   67.9230  225.3790 C   0  0  0  0  0  0  0  0  0  0  0  0
  139.0683   67.0811  224.8612 H   0  0  0  0  0  0  0  0  0  0  0  0
  139.6550   69.1670  224.7390 C   0  0  0  0  0  0  0  0  0  0  0  0
  140.3110   70.2360  225.3960 C   0  0  0  0  0  0  0  0  0  0  0  0
  140.8060   70.0460  226.6960 C   0  0  0  0  0  0  0  0  0  0  0  0
  141.2969   70.8788  227.2209 H   0  0  0  0  0  0  0  0  0  0  0  0
  140.4620   71.5950  224.7500 C   0  0  0  0  0  0  0  0  0  0  0  0
  141.5164   71.9024  224.8108 H   0  0  0  0  0  0  0  0  0  0  0  0
  139.8112   72.3013  225.2863 H   0  0  0  0  0  0  0  0  0  0  0  0
  140.0520   71.5800  223.3380 N   0  0  0  0  0  0  0  0  0  0  0  0
  140.6700   72.4720  222.3880 C   0  0  0  0  0  0  0  0  0  0  0  0
  140.3170   73.7820  222.3440 N   0  0  0  0  0  0  0  0  0  0  0  0
  140.9050   74.6320  221.4640 C   0  0  0  0  0  0  0  0  0  0  0  0
  140.5200   76.0200  221.4520 N   0  0  0  0  0  0  0  0  0  0  0  0
  141.1550   76.9850  220.5420 C   0  0  0  0  0  0  0  0  0  0  0  0
  142.0302   76.5148  220.0700 H   0  0  0  0  0  0  0  0  0  0  0  0
  140.4242   77.2839  219.7762 H   0  0  0  0  0  0  0  0  0  0  0  0
  141.6070   78.2360  221.3100 C   0  0  0  0  0  0  0  0  0  0  0  0
  142.6104   78.0497  221.7205 H   0  0  0  0  0  0  0  0  0  0  0  0
  141.5983   79.0749  220.5985 H   0  0  0  0  0  0  0  0  0  0  0  0
  140.6640   78.6150  222.4740 C   0  0  0  0  0  0  0  0  0  0  0  0
  141.1111   78.2694  223.4178 H   0  0  0  0  0  0  0  0  0  0  0  0
  140.5402   79.7080  222.4633 H   0  0  0  0  0  0  0  0  0  0  0  0
  139.2730   77.9850  222.3280 C   0  0  0  0  0  0  0  0  0  0  0  0
  138.6492   78.2786  223.1852 H   0  0  0  0  0  0  0  0  0  0  0  0
  138.8150   78.3382  221.3923 H   0  0  0  0  0  0  0  0  0  0  0  0
  139.3870   76.4540  222.2840 C   0  0  0  0  0  0  0  0  0  0  0  0
  139.5303   76.0770  223.3074 H   0  0  0  0  0  0  0  0  0  0  0  0
  138.4625   76.0522  221.8437 H   0  0  0  0  0  0  0  0  0  0  0  0
  141.8860   74.1700  220.6370 N   0  0  0  0  0  0  0  0  0  0  0  0
  142.3900   74.8290  220.0020 H   0  0  0  0  0  0  0  0  0  0  0  0
  142.2500   72.8550  220.6720 C   0  0  0  0  0  0  0  0  0  0  0  0
  143.1910   72.4100  219.8830 N   0  0  0  0  0  0  0  0  0  0  0  0
  143.0470   71.4980  219.3910 H   0  0  0  0  0  0  0  0  0  0  0  0
  144.4590   73.1280  219.6860 C   0  0  0  0  0  0  0  0  0  0  0  0
  144.3411   73.4664  218.6460 H   0  0  0  0  0  0  0  0  0  0  0  0
  144.7630   74.1370  220.7940 C   0  0  0  0  0  0  0  0  0  0  0  0
  145.0114   75.1445  220.4289 H   0  0  0  0  0  0  0  0  0  0  0  0
  143.9914   74.4068  221.5301 H   0  0  0  0  0  0  0  0  0  0  0  0
  145.9720   73.3100  221.2100 C   0  0  0  0  0  0  0  0  0  0  0  0
  146.9336   73.8299  221.0876 H   0  0  0  0  0  0  0  0  0  0  0  0
  146.0835   72.9781  222.2528 H   0  0  0  0  0  0  0  0  0  0  0  0
  145.6700   72.3000  220.1130 C   0  0  0  0  0  0  0  0  0  0  0  0
  146.4543   72.2222  219.3456 H   0  0  0  0  0  0  0  0  0  0  0  0
  145.5582   71.2325  220.3538 H   0  0  0  0  0  0  0  0  0  0  0  0
  141.6330   72.0170  221.5480 N   0  0  0  0  0  0  0  0  0  0  0  0
  138.8870   70.7690  222.9700 C   0  0  0  0  0  0  0  0  0  0  0  0
  138.7047   70.8571  221.8888 H   0  0  0  0  0  0  0  0  0  0  0  0
  138.0025   71.1243  223.5191 H   0  0  0  0  0  0  0  0  0  0  0  0
  139.1560   69.3100  223.3240 C   0  0  0  0  0  0  0  0  0  0  0  0
  139.9145   68.9093  222.6355 H   0  0  0  0  0  0  0  0  0  0  0  0
  138.2115   68.7535  223.2336 H   0  0  0  0  0  0  0  0  0  0  0  0
  1  2  1  0
  2  3  2  0
  3  4  1  0
  3  5  1  0
  5  6  1  0
  5  7  2  0
  7  8  1  0
  8  9  2  0
  9 10  1  0
  8 11  1  0
 11 12  1  0
 11 13  1  0
 11 14  1  0
 14 15  1  0
 15 16  1  0
 16 17  2  0
 17 18  1  0
 18 19  1  0
 19 20  1  0
 19 21  1  0
 19 22  1  0
 22 23  1  0
 22 24  1  0
 22 25  1  0
 25 26  1  0
 25 27  1  0
 25 28  1  0
 28 29  1  0
 28 30  1  0
 28 31  1  0
 31 32  1  0
 31 33  1  0
 17 34  1  0
 34 35  1  0
 34 36  1  0
 36 37  2  0
 37 38  1  0
 37 39  1  0
 39 40  1  0
 39 41  1  0
 41 42  1  0
 41 43  1  0
 41 44  1  0
 44 45  1  0
 44 46  1  0
 44 47  1  0
 47 48  1  0
 47 49  1  0
 36 50  1  0
 14 51  1  0
 51 52  1  0
 51 53  1  0
 51 54  1  0
 54 55  1  0
 54 56  1  0
  9  2  1  0
 50 15  2  0
 54  7  1  0
 31 18  1  0
 47 39  1  0
M  CHG  1  37   1
M  END
>  <UniqueID>  (45) 
485

>  <SMILES>  (45) 
c1ccc2c(c1)CCN(c1nc(N3CCCCC3)[nH]/c(=[NH+]/C3CCC3)n1)C2

>  <Energy>  (45) 
125.37893925514972

>  <Genealogy>  (45) 
c1ccc2c(c1)CCN(c1nc([NH2+]C3CCC3)nc(N3CCCCC3)n1)C2 (protonated)
c1ccc2c(c1)CCN(c1nc(N3CCCCC3)[nH]c(=[NH+]C3CCC3)n1)C2 (tautomer)
c1ccc2c(c1)CCN(c1nc(N3CCCCC3)[nH]/c(=[NH+]/C3CCC3)n1)C2 (cis-trans isomerization)
c1ccc2c(c1)CCN(c1nc(N3CCCCC3)[nH]/c(=[NH+]/C3CCC3)n1)C2 (3D coordinates assigned)
c1ccc2c(c1)CCN(c1nc(N3CCCCC3)[nH]/c(=[NH+]/C3CCC3)n1)C2 (nonaromatic ring conformer: 125.37893925514972 kcal/mol)

>  <smiles>  (45) 
c1ccc2c(c1)CCN(c1nc(NC3CCC3)nc(N3CCCCC3)n1)C2

>  <score_type>  (45) 
oracle

>  <origin>  (45) 
autodockgpu

>  <m_score__min__energy>  (45) 
-8.3200000000000003

>  <m_primary>  (45) 
energy

>  <meeko>  (45) 
{"free_energy": -8.31, "intermolecular_energy": -9.5, "internal_energy": -0.45, "cluster_size": 20, "cluster_id": 1, "rank_in_cluster": 8}

>  <energy>  (45) 
-8.31

>  <cluster_rmsd>  (45) 
0.06

>  <rmsd>  (45) 
270.99

>  <cluster>  (45) 
1

$$$$
JGFXCGHACWUNAV-PBFIRHMANA-O
     RDKit          3D

 56 60  0  0  0  0  0  0  0  0999 V2000
  140.9769   68.7410  228.3597 H   0  0  0  0  0  0  0  0  0  0  0  0
  140.6080   68.8660  227.3310 C   0  0  0  0  0  0  0  0  0  0  0  0
  140.0280   67.7880  226.6630 C   0  0  0  0  0  0  0  0  0  0  0  0
  139.9445   66.8123  227.1640 H   0  0  0  0  0  0  0  0  0  0  0  0
  139.5530   67.9450  225.3590 C   0  0  0  0  0  0  0  0  0  0  0  0
  139.1044   67.0885  224.8344 H   0  0  0  0  0  0  0  0  0  0  0  0
  139.6440   69.1880  224.7130 C   0  0  0  0  0  0  0  0  0  0  0  0
  140.2560   70.2760  225.3800 C   0  0  0  0  0  0  0  0  0  0  0  0
  140.7210   70.1060  226.6940 C   0  0  0  0  0  0  0  0  0  0  0  0
  141.1772   70.9538  227.2260 H   0  0  0  0  0  0  0  0  0  0  0  0
  140.3920   71.6340  224.7290 C   0  0  0  0  0  0  0  0  0  0  0  0
  141.4370   71.9666  224.8154 H   0  0  0  0  0  0  0  0  0  0  0  0
  139.7107   72.3279  225.2432 H   0  0  0  0  0  0  0  0  0  0  0  0
  140.0200   71.6010  223.3070 N   0  0  0  0  0  0  0  0  0  0  0  0
  140.6420   72.5010  222.3680 C   0  0  0  0  0  0  0  0  0  0  0  0
  140.2990   73.8140  222.3440 N   0  0  0  0  0  0  0  0  0  0  0  0
  140.8900   74.6730  221.4740 C   0  0  0  0  0  0  0  0  0  0  0  0
  140.5150   76.0640  221.4830 N   0  0  0  0  0  0  0  0  0  0  0  0
  141.1890   77.0460  220.6210 C   0  0  0  0  0  0  0  0  0  0  0  0
  142.0773   76.5807  220.1689 H   0  0  0  0  0  0  0  0  0  0  0  0
  140.4883   77.3697  219.8372 H   0  0  0  0  0  0  0  0  0  0  0  0
  141.6220   78.2740  221.4360 C   0  0  0  0  0  0  0  0  0  0  0  0
  142.6088   78.0697  221.8769 H   0  0  0  0  0  0  0  0  0  0  0  0
  141.6443   79.1305  220.7461 H   0  0  0  0  0  0  0  0  0  0  0  0
  140.6410   78.6310  222.5750 C   0  0  0  0  0  0  0  0  0  0  0  0
  141.0515   78.2578  223.5249 H   0  0  0  0  0  0  0  0  0  0  0  0
  140.5257   79.7249  222.5883 H   0  0  0  0  0  0  0  0  0  0  0  0
  139.2510   78.0160  222.3630 C   0  0  0  0  0  0  0  0  0  0  0  0
  138.5986   78.2933  223.2041 H   0  0  0  0  0  0  0  0  0  0  0  0
  138.8296   78.3960  221.4207 H   0  0  0  0  0  0  0  0  0  0  0  0
  139.3560   76.4860  222.2850 C   0  0  0  0  0  0  0  0  0  0  0  0
  139.4603   76.0828  223.3031 H   0  0  0  0  0  0  0  0  0  0  0  0
  138.4450   76.1023  221.8025 H   0  0  0  0  0  0  0  0  0  0  0  0
  141.8650   74.2150  220.6370 N   0  0  0  0  0  0  0  0  0  0  0  0
  142.3710   74.8800  220.0100 H   0  0  0  0  0  0  0  0  0  0  0  0
  142.2190   72.8980  220.6510 C   0  0  0  0  0  0  0  0  0  0  0  0
  143.1530   72.4570  219.8530 N   0  0  0  0  0  0  0  0  0  0  0  0
  142.9990   71.5550  219.3460 H   0  0  0  0  0  0  0  0  0  0  0  0
  144.4290   73.1650  219.6660 C   0  0  0  0  0  0  0  0  0  0  0  0
  144.3021   73.5442  218.6412 H   0  0  0  0  0  0  0  0  0  0  0  0
  144.7610   74.1260  220.8070 C   0  0  0  0  0  0  0  0  0  0  0  0
  145.0176   75.1436  220.4773 H   0  0  0  0  0  0  0  0  0  0  0  0
  144.0027   74.3765  221.5635 H   0  0  0  0  0  0  0  0  0  0  0  0
  145.9650   73.2690  221.1750 C   0  0  0  0  0  0  0  0  0  0  0  0
  146.9316   73.7810  221.0590 H   0  0  0  0  0  0  0  0  0  0  0  0
  146.0869   72.8963  222.2027 H   0  0  0  0  0  0  0  0  0  0  0  0
  145.6340   72.3060  220.0440 C   0  0  0  0  0  0  0  0  0  0  0  0
  146.4066   72.2476  219.2632 H   0  0  0  0  0  0  0  0  0  0  0  0
  145.5108   71.2316  220.2454 H   0  0  0  0  0  0  0  0  0  0  0  0
  141.5990   72.0520  221.5170 N   0  0  0  0  0  0  0  0  0  0  0  0
  138.8850   70.7590  222.9140 C   0  0  0  0  0  0  0  0  0  0  0  0
  138.7290   70.8363  221.8279 H   0  0  0  0  0  0  0  0  0  0  0  0
  137.9781   71.0955  223.4378 H   0  0  0  0  0  0  0  0  0  0  0  0
  139.1800   69.3100  223.2840 C   0  0  0  0  0  0  0  0  0  0  0  0
  139.9665   68.9243  222.6187 H   0  0  0  0  0  0  0  0  0  0  0  0
  138.2524   68.7295  223.1717 H   0  0  0  0  0  0  0  0  0  0  0  0
  1  2  1  0
  2  3  2  0
  3  4  1  0
  3  5  1  0
  5  6  1  0
  5  7  2  0
  7  8  1  0
  8  9  2  0
  9 10  1  0
  8 11  1  0
 11 12  1  0
 11 13  1  0
 11 14  1  0
 14 15  1  0
 15 16  1  0
 16 17  2  0
 17 18  1  0
 18 19  1  0
 19 20  1  0
 19 21  1  0
 19 22  1  0
 22 23  1  0
 22 24  1  0
 22 25  1  0
 25 26  1  0
 25 27  1  0
 25 28  1  0
 28 29  1  0
 28 30  1  0
 28 31  1  0
 31 32  1  0
 31 33  1  0
 17 34  1  0
 34 35  1  0
 34 36  1  0
 36 37  2  0
 37 38  1  0
 37 39  1  0
 39 40  1  0
 39 41  1  0
 41 42  1  0
 41 43  1  0
 41 44  1  0
 44 45  1  0
 44 46  1  0
 44 47  1  0
 47 48  1  0
 47 49  1  0
 36 50  1  0
 14 51  1  0
 51 52  1  0
 51 53  1  0
 51 54  1  0
 54 55  1  0
 54 56  1  0
  9  2  1  0
 50 15  2  0
 54  7  1  0
 31 18  1  0
 47 39  1  0
M  CHG  1  37   1
M  END
>  <UniqueID>  (46) 
485

>  <SMILES>  (46) 
c1ccc2c(c1)CCN(c1nc(N3CCCCC3)[nH]/c(=[NH+]/C3CCC3)n1)C2

>  <Energy>  (46) 
125.37893925514972

>  <Genealogy>  (46) 
c1ccc2c(c1)CCN(c1nc([NH2+]C3CCC3)nc(N3CCCCC3)n1)C2 (protonated)
c1ccc2c(c1)CCN(c1nc(N3CCCCC3)[nH]c(=[NH+]C3CCC3)n1)C2 (tautomer)
c1ccc2c(c1)CCN(c1nc(N3CCCCC3)[nH]/c(=[NH+]/C3CCC3)n1)C2 (cis-trans isomerization)
c1ccc2c(c1)CCN(c1nc(N3CCCCC3)[nH]/c(=[NH+]/C3CCC3)n1)C2 (3D coordinates assigned)
c1ccc2c(c1)CCN(c1nc(N3CCCCC3)[nH]/c(=[NH+]/C3CCC3)n1)C2 (nonaromatic ring conformer: 125.37893925514972 kcal/mol)

>  <smiles>  (46) 
c1ccc2c(c1)CCN(c1nc(NC3CCC3)nc(N3CCCCC3)n1)C2

>  <score_type>  (46) 
oracle

>  <origin>  (46) 
autodockgpu

>  <m_score__min__energy>  (46) 
-8.3200000000000003

>  <m_primary>  (46) 
energy

>  <meeko>  (46) 
{"free_energy": -8.29, "intermolecular_energy": -9.48, "internal_energy": -0.45, "cluster_size": 20, "cluster_id": 1, "rank_in_cluster": 15}

>  <energy>  (46) 
-8.31

>  <cluster_rmsd>  (46) 
0.05

>  <rmsd>  (46) 
271.0

>  <cluster>  (46) 
1

$$$$
JGFXCGHACWUNAV-PBFIRHMANA-O
     RDKit          3D

 56 60  0  0  0  0  0  0  0  0999 V2000
  141.1101   68.6856  228.4129 H   0  0  0  0  0  0  0  0  0  0  0  0
  140.7110   68.8140  227.3960 C   0  0  0  0  0  0  0  0  0  0  0  0
  140.0890   67.7460  226.7520 C   0  0  0  0  0  0  0  0  0  0  0  0
  140.0029   66.7740  227.2597 H   0  0  0  0  0  0  0  0  0  0  0  0
  139.5750   67.9070  225.4640 C   0  0  0  0  0  0  0  0  0  0  0  0
  139.0929   67.0574  224.9583 H   0  0  0  0  0  0  0  0  0  0  0  0
  139.6690   69.1450  224.8100 C   0  0  0  0  0  0  0  0  0  0  0  0
  140.3240   70.2240  225.4510 C   0  0  0  0  0  0  0  0  0  0  0  0
  140.8280   70.0490  226.7500 C   0  0  0  0  0  0  0  0  0  0  0  0
  141.3184   70.8893  227.2632 H   0  0  0  0  0  0  0  0  0  0  0  0
  140.4640   71.5760  224.7900 C   0  0  0  0  0  0  0  0  0  0  0  0
  141.5173   71.8890  224.8407 H   0  0  0  0  0  0  0  0  0  0  0  0
  139.8129   72.2845  225.3231 H   0  0  0  0  0  0  0  0  0  0  0  0
  140.0450   71.5450  223.3810 N   0  0  0  0  0  0  0  0  0  0  0  0
  140.6530   72.4290  222.4180 C   0  0  0  0  0  0  0  0  0  0  0  0
  140.2780   73.7320  222.3480 N   0  0  0  0  0  0  0  0  0  0  0  0
  140.8560   74.5760  221.4550 C   0  0  0  0  0  0  0  0  0  0  0  0
  140.4470   75.9570  221.4150 N   0  0  0  0  0  0  0  0  0  0  0  0
  141.2400   76.9710  220.7050 C   0  0  0  0  0  0  0  0  0  0  0  0
  142.2092   76.5369  220.4182 H   0  0  0  0  0  0  0  0  0  0  0  0
  140.6876   77.2912  219.8093 H   0  0  0  0  0  0  0  0  0  0  0  0
  141.4800   78.1940  221.6040 C   0  0  0  0  0  0  0  0  0  0  0  0
  142.3738   78.0060  222.2170 H   0  0  0  0  0  0  0  0  0  0  0  0
  141.6048   79.0637  220.9422 H   0  0  0  0  0  0  0  0  0  0  0  0
  140.2960   78.5050  222.5470 C   0  0  0  0  0  0  0  0  0  0  0  0
  140.5348   78.1252  223.5513 H   0  0  0  0  0  0  0  0  0  0  0  0
  140.1491   79.5951  222.5534 H   0  0  0  0  0  0  0  0  0  0  0  0
  138.9880   77.8590  222.0740 C   0  0  0  0  0  0  0  0  0  0  0  0
  138.1844   78.1037  222.7841 H   0  0  0  0  0  0  0  0  0  0  0  0
  138.7373   78.2458  221.0752 H   0  0  0  0  0  0  0  0  0  0  0  0
  139.1480   76.3340  221.9950 C   0  0  0  0  0  0  0  0  0  0  0  0
  139.0739   75.9139  223.0089 H   0  0  0  0  0  0  0  0  0  0  0  0
  138.3526   75.9368  221.3472 H   0  0  0  0  0  0  0  0  0  0  0  0
  141.8500   74.1150  220.6420 N   0  0  0  0  0  0  0  0  0  0  0  0
  142.3450   74.7720  219.9970 H   0  0  0  0  0  0  0  0  0  0  0  0
  142.2360   72.8080  220.7030 C   0  0  0  0  0  0  0  0  0  0  0  0
  143.1890   72.3650  219.9280 N   0  0  0  0  0  0  0  0  0  0  0  0
  143.0720   71.4330  219.4680 H   0  0  0  0  0  0  0  0  0  0  0  0
  144.4350   73.1140  219.7040 C   0  0  0  0  0  0  0  0  0  0  0  0
  144.2787   73.4649  218.6733 H   0  0  0  0  0  0  0  0  0  0  0  0
  144.7500   74.1130  220.8170 C   0  0  0  0  0  0  0  0  0  0  0  0
  144.9655   75.1308  220.4598 H   0  0  0  0  0  0  0  0  0  0  0  0
  143.9951   74.3550  221.5796 H   0  0  0  0  0  0  0  0  0  0  0  0
  145.9890   73.3070  221.1850 C   0  0  0  0  0  0  0  0  0  0  0  0
  146.9352   73.8495  221.0419 H   0  0  0  0  0  0  0  0  0  0  0  0
  146.1395   72.9628  222.2189 H   0  0  0  0  0  0  0  0  0  0  0  0
  145.6750   72.3070  220.0820 C   0  0  0  0  0  0  0  0  0  0  0  0
  146.4372   72.2574  219.2904 H   0  0  0  0  0  0  0  0  0  0  0  0
  145.5930   71.2340  220.3099 H   0  0  0  0  0  0  0  0  0  0  0  0
  141.6290   71.9760  221.5910 N   0  0  0  0  0  0  0  0  0  0  0  0
  138.8820   70.7240  223.0290 C   0  0  0  0  0  0  0  0  0  0  0  0
  138.6931   70.7993  221.9480 H   0  0  0  0  0  0  0  0  0  0  0  0
  137.9994   71.0811  223.5800 H   0  0  0  0  0  0  0  0  0  0  0  0
  139.1590   69.2710  223.3970 C   0  0  0  0  0  0  0  0  0  0  0  0
  139.9139   68.8656  222.7073 H   0  0  0  0  0  0  0  0  0  0  0  0
  138.2158   68.7103  223.3199 H   0  0  0  0  0  0  0  0  0  0  0  0
  1  2  1  0
  2  3  2  0
  3  4  1  0
  3  5  1  0
  5  6  1  0
  5  7  2  0
  7  8  1  0
  8  9  2  0
  9 10  1  0
  8 11  1  0
 11 12  1  0
 11 13  1  0
 11 14  1  0
 14 15  1  0
 15 16  1  0
 16 17  2  0
 17 18  1  0
 18 19  1  0
 19 20  1  0
 19 21  1  0
 19 22  1  0
 22 23  1  0
 22 24  1  0
 22 25  1  0
 25 26  1  0
 25 27  1  0
 25 28  1  0
 28 29  1  0
 28 30  1  0
 28 31  1  0
 31 32  1  0
 31 33  1  0
 17 34  1  0
 34 35  1  0
 34 36  1  0
 36 37  2  0
 37 38  1  0
 37 39  1  0
 39 40  1  0
 39 41  1  0
 41 42  1  0
 41 43  1  0
 41 44  1  0
 44 45  1  0
 44 46  1  0
 44 47  1  0
 47 48  1  0
 47 49  1  0
 36 50  1  0
 14 51  1  0
 51 52  1  0
 51 53  1  0
 51 54  1  0
 54 55  1  0
 54 56  1  0
  9  2  1  0
 50 15  2  0
 54  7  1  0
 31 18  1  0
 47 39  1  0
M  CHG  1  37   1
M  END
>  <UniqueID>  (47) 
485

>  <SMILES>  (47) 
c1ccc2c(c1)CCN(c1nc(N3CCCCC3)[nH]/c(=[NH+]/C3CCC3)n1)C2

>  <Energy>  (47) 
125.37893925514972

>  <Genealogy>  (47) 
c1ccc2c(c1)CCN(c1nc([NH2+]C3CCC3)nc(N3CCCCC3)n1)C2 (protonated)
c1ccc2c(c1)CCN(c1nc(N3CCCCC3)[nH]c(=[NH+]C3CCC3)n1)C2 (tautomer)
c1ccc2c(c1)CCN(c1nc(N3CCCCC3)[nH]/c(=[NH+]/C3CCC3)n1)C2 (cis-trans isomerization)
c1ccc2c(c1)CCN(c1nc(N3CCCCC3)[nH]/c(=[NH+]/C3CCC3)n1)C2 (3D coordinates assigned)
c1ccc2c(c1)CCN(c1nc(N3CCCCC3)[nH]/c(=[NH+]/C3CCC3)n1)C2 (nonaromatic ring conformer: 125.37893925514972 kcal/mol)

>  <smiles>  (47) 
c1ccc2c(c1)CCN(c1nc(NC3CCC3)nc(N3CCCCC3)n1)C2

>  <score_type>  (47) 
oracle

>  <origin>  (47) 
autodockgpu

>  <m_score__min__energy>  (47) 
-8.3200000000000003

>  <m_primary>  (47) 
energy

>  <meeko>  (47) 
{"free_energy": -8.3, "intermolecular_energy": -9.49, "internal_energy": -0.45, "cluster_size": 20, "cluster_id": 1, "rank_in_cluster": 14}

>  <energy>  (47) 
-8.31

>  <cluster_rmsd>  (47) 
0.09

>  <rmsd>  (47) 
270.98

>  <cluster>  (47) 
1

$$$$
JGFXCGHACWUNAV-PBFIRHMANA-O
     RDKit          3D

 56 60  0  0  0  0  0  0  0  0999 V2000
  141.2248   68.7759  228.5996 H   0  0  0  0  0  0  0  0  0  0  0  0
  140.7860   68.8770  227.5960 C   0  0  0  0  0  0  0  0  0  0  0  0
  140.0810   67.8140  227.0340 C   0  0  0  0  0  0  0  0  0  0  0  0
  139.9694   66.8728  227.5923 H   0  0  0  0  0  0  0  0  0  0  0  0
  139.5160   67.9420  225.7630 C   0  0  0  0  0  0  0  0  0  0  0  0
  138.9675   67.0968  225.3217 H   0  0  0  0  0  0  0  0  0  0  0  0
  139.6430   69.1410  225.0450 C   0  0  0  0  0  0  0  0  0  0  0  0
  140.3810   70.2120  225.6030 C   0  0  0  0  0  0  0  0  0  0  0  0
  140.9360   70.0720  226.8850 C   0  0  0  0  0  0  0  0  0  0  0  0
  141.4927   70.9081  227.3334 H   0  0  0  0  0  0  0  0  0  0  0  0
  140.5600   71.5230  224.8700 C   0  0  0  0  0  0  0  0  0  0  0  0
  141.6293   71.7809  224.8589 H   0  0  0  0  0  0  0  0  0  0  0  0
  139.9720   72.2899  225.3954 H   0  0  0  0  0  0  0  0  0  0  0  0
  140.0750   71.4480  223.4840 N   0  0  0  0  0  0  0  0  0  0  0  0
  140.6820   72.2510  222.4530 C   0  0  0  0  0  0  0  0  0  0  0  0
  140.4020   73.5770  222.3600 N   0  0  0  0  0  0  0  0  0  0  0  0
  140.9810   74.3450  221.4020 C   0  0  0  0  0  0  0  0  0  0  0  0
  140.6760   75.7520  221.3400 N   0  0  0  0  0  0  0  0  0  0  0  0
  141.1550   76.5920  220.2320 C   0  0  0  0  0  0  0  0  0  0  0  0
  141.8852   76.0240  219.6369 H   0  0  0  0  0  0  0  0  0  0  0  0
  140.2965   76.8789  219.6069 H   0  0  0  0  0  0  0  0  0  0  0  0
  141.8240   77.8660  220.7710 C   0  0  0  0  0  0  0  0  0  0  0  0
  142.8799   77.6424  220.9831 H   0  0  0  0  0  0  0  0  0  0  0  0
  141.7103   78.6433  220.0010 H   0  0  0  0  0  0  0  0  0  0  0  0
  141.1680   78.4040  222.0630 C   0  0  0  0  0  0  0  0  0  0  0  0
  141.7846   78.1050  222.9235 H   0  0  0  0  0  0  0  0  0  0  0  0
  141.1025   79.4986  221.9759 H   0  0  0  0  0  0  0  0  0  0  0  0
  139.7460   77.8640  222.2640 C   0  0  0  0  0  0  0  0  0  0  0  0
  139.3321   78.2697  223.1989 H   0  0  0  0  0  0  0  0  0  0  0  0
  139.1216   78.1715  221.4122 H   0  0  0  0  0  0  0  0  0  0  0  0
  139.7670   76.3310  222.3420 C   0  0  0  0  0  0  0  0  0  0  0  0
  140.1019   76.0288  223.3452 H   0  0  0  0  0  0  0  0  0  0  0  0
  138.7508   75.9614  222.1403 H   0  0  0  0  0  0  0  0  0  0  0  0
  141.8800   73.7840  220.5440 N   0  0  0  0  0  0  0  0  0  0  0  0
  142.3790   74.3800  219.8450 H   0  0  0  0  0  0  0  0  0  0  0  0
  142.1700   72.4540  220.6260 C   0  0  0  0  0  0  0  0  0  0  0  0
  143.0320   71.9140  219.8080 N   0  0  0  0  0  0  0  0  0  0  0  0
  142.7040   71.1740  219.1450 H   0  0  0  0  0  0  0  0  0  0  0  0
  144.4560   72.2840  219.8060 C   0  0  0  0  0  0  0  0  0  0  0  0
  144.8951   71.4014  219.3178 H   0  0  0  0  0  0  0  0  0  0  0  0
  144.7170   73.6830  219.2470 C   0  0  0  0  0  0  0  0  0  0  0  0
  145.4871   73.7171  218.4622 H   0  0  0  0  0  0  0  0  0  0  0  0
  143.9188   74.2343  218.7283 H   0  0  0  0  0  0  0  0  0  0  0  0
  145.2040   74.1360  220.6170 C   0  0  0  0  0  0  0  0  0  0  0  0
  146.2626   74.4341  220.6401 H   0  0  0  0  0  0  0  0  0  0  0  0
  144.7623   75.0216  221.0972 H   0  0  0  0  0  0  0  0  0  0  0  0
  144.9390   72.7470  221.1790 C   0  0  0  0  0  0  0  0  0  0  0  0
  145.8404   72.2277  221.5366 H   0  0  0  0  0  0  0  0  0  0  0  0
  144.3018   72.6175  222.0663 H   0  0  0  0  0  0  0  0  0  0  0  0
  141.5630   71.6980  221.5810 N   0  0  0  0  0  0  0  0  0  0  0  0
  138.8560   70.6740  223.2250 C   0  0  0  0  0  0  0  0  0  0  0  0
  138.6202   70.7088  222.1511 H   0  0  0  0  0  0  0  0  0  0  0  0
  138.0197   71.1026  223.7968 H   0  0  0  0  0  0  0  0  0  0  0  0
  139.0760   69.2270  223.6510 C   0  0  0  0  0  0  0  0  0  0  0  0
  139.7773   68.7508  222.9500 H   0  0  0  0  0  0  0  0  0  0  0  0
  138.1034   68.7132  223.6420 H   0  0  0  0  0  0  0  0  0  0  0  0
  1  2  1  0
  2  3  2  0
  3  4  1  0
  3  5  1  0
  5  6  1  0
  5  7  2  0
  7  8  1  0
  8  9  2  0
  9 10  1  0
  8 11  1  0
 11 12  1  0
 11 13  1  0
 11 14  1  0
 14 15  1  0
 15 16  1  0
 16 17  2  0
 17 18  1  0
 18 19  1  0
 19 20  1  0
 19 21  1  0
 19 22  1  0
 22 23  1  0
 22 24  1  0
 22 25  1  0
 25 26  1  0
 25 27  1  0
 25 28  1  0
 28 29  1  0
 28 30  1  0
 28 31  1  0
 31 32  1  0
 31 33  1  0
 17 34  1  0
 34 35  1  0
 34 36  1  0
 36 37  2  0
 37 38  1  0
 37 39  1  0
 39 40  1  0
 39 41  1  0
 41 42  1  0
 41 43  1  0
 41 44  1  0
 44 45  1  0
 44 46  1  0
 44 47  1  0
 47 48  1  0
 47 49  1  0
 36 50  1  0
 14 51  1  0
 51 52  1  0
 51 53  1  0
 51 54  1  0
 54 55  1  0
 54 56  1  0
  9  2  1  0
 50 15  2  0
 54  7  1  0
 31 18  1  0
 47 39  1  0
M  CHG  1  37   1
M  END
>  <UniqueID>  (48) 
485

>  <SMILES>  (48) 
c1ccc2c(c1)CCN(c1nc(N3CCCCC3)[nH]/c(=[NH+]/C3CCC3)n1)C2

>  <Energy>  (48) 
125.37893925514972

>  <Genealogy>  (48) 
c1ccc2c(c1)CCN(c1nc([NH2+]C3CCC3)nc(N3CCCCC3)n1)C2 (protonated)
c1ccc2c(c1)CCN(c1nc(N3CCCCC3)[nH]c(=[NH+]C3CCC3)n1)C2 (tautomer)
c1ccc2c(c1)CCN(c1nc(N3CCCCC3)[nH]/c(=[NH+]/C3CCC3)n1)C2 (cis-trans isomerization)
c1ccc2c(c1)CCN(c1nc(N3CCCCC3)[nH]/c(=[NH+]/C3CCC3)n1)C2 (3D coordinates assigned)
c1ccc2c(c1)CCN(c1nc(N3CCCCC3)[nH]/c(=[NH+]/C3CCC3)n1)C2 (nonaromatic ring conformer: 125.37893925514972 kcal/mol)

>  <smiles>  (48) 
c1ccc2c(c1)CCN(c1nc(NC3CCC3)nc(N3CCCCC3)n1)C2

>  <score_type>  (48) 
oracle

>  <origin>  (48) 
autodockgpu

>  <m_score__min__energy>  (48) 
-8.3200000000000003

>  <m_primary>  (48) 
energy

>  <meeko>  (48) 
{"free_energy": -8.01, "intermolecular_energy": -9.2, "internal_energy": -0.63, "cluster_size": 20, "cluster_id": 1, "rank_in_cluster": 18}

>  <energy>  (48) 
-8.31

>  <cluster_rmsd>  (48) 
0.07

>  <rmsd>  (48) 
270.98

>  <cluster>  (48) 
1

$$$$
JGFXCGHACWUNAV-PBFIRHMANA-O
     RDKit          3D

 56 60  0  0  0  0  0  0  0  0999 V2000
  141.0852   68.6521  228.3710 H   0  0  0  0  0  0  0  0  0  0  0  0
  140.6890   68.7960  227.3550 C   0  0  0  0  0  0  0  0  0  0  0  0
  140.0510   67.7430  226.7010 C   0  0  0  0  0  0  0  0  0  0  0  0
  139.9497   66.7676  227.1994 H   0  0  0  0  0  0  0  0  0  0  0  0
  139.5400   67.9250  225.4130 C   0  0  0  0  0  0  0  0  0  0  0  0
  139.0449   67.0881  224.8987 H   0  0  0  0  0  0  0  0  0  0  0  0
  139.6540   69.1680  224.7710 C   0  0  0  0  0  0  0  0  0  0  0  0
  140.3260   70.2300  225.4240 C   0  0  0  0  0  0  0  0  0  0  0  0
  140.8260   70.0350  226.7210 C   0  0  0  0  0  0  0  0  0  0  0  0
  141.3292   70.8626  227.2424 H   0  0  0  0  0  0  0  0  0  0  0  0
  140.4880   71.5860  224.7760 C   0  0  0  0  0  0  0  0  0  0  0  0
  141.5461   71.8818  224.8305 H   0  0  0  0  0  0  0  0  0  0  0  0
  139.8478   72.2996  225.3153 H   0  0  0  0  0  0  0  0  0  0  0  0
  140.0700   71.5750  223.3670 N   0  0  0  0  0  0  0  0  0  0  0  0
  140.6930   72.4590  222.4130 C   0  0  0  0  0  0  0  0  0  0  0  0
  140.3330   73.7660  222.3500 N   0  0  0  0  0  0  0  0  0  0  0  0
  140.9250   74.6100  221.4660 C   0  0  0  0  0  0  0  0  0  0  0  0
  140.5320   75.9960  221.4340 N   0  0  0  0  0  0  0  0  0  0  0  0
  141.0900   76.9280  220.4430 C   0  0  0  0  0  0  0  0  0  0  0  0
  141.9290   76.4430  219.9225 H   0  0  0  0  0  0  0  0  0  0  0  0
  140.3014   77.1965  219.7247 H   0  0  0  0  0  0  0  0  0  0  0  0
  141.5930   78.2080  221.1290 C   0  0  0  0  0  0  0  0  0  0  0  0
  142.6260   78.0395  221.4674 H   0  0  0  0  0  0  0  0  0  0  0  0
  141.5250   79.0206  220.3907 H   0  0  0  0  0  0  0  0  0  0  0  0
  140.7400   78.6260  222.3480 C   0  0  0  0  0  0  0  0  0  0  0  0
  141.2602   78.3159  223.2663 H   0  0  0  0  0  0  0  0  0  0  0  0
  140.6096   79.7175  222.3079 H   0  0  0  0  0  0  0  0  0  0  0  0
  139.3450   77.9870  222.3320 C   0  0  0  0  0  0  0  0  0  0  0  0
  138.7869   78.3100  223.2232 H   0  0  0  0  0  0  0  0  0  0  0  0
  138.8148   78.3044  221.4220 H   0  0  0  0  0  0  0  0  0  0  0  0
  139.4640   76.4560  222.3350 C   0  0  0  0  0  0  0  0  0  0  0  0
  139.6881   76.1170  223.3572 H   0  0  0  0  0  0  0  0  0  0  0  0
  138.5106   76.0353  221.9828 H   0  0  0  0  0  0  0  0  0  0  0  0
  141.9170   74.1430  220.6540 N   0  0  0  0  0  0  0  0  0  0  0  0
  142.4230   74.7990  220.0160 H   0  0  0  0  0  0  0  0  0  0  0  0
  142.2870   72.8320  220.7070 C   0  0  0  0  0  0  0  0  0  0  0  0
  143.2380   72.3830  219.9330 N   0  0  0  0  0  0  0  0  0  0  0  0
  143.1200   71.4480  219.4790 H   0  0  0  0  0  0  0  0  0  0  0  0
  144.4850   73.1290  219.7020 C   0  0  0  0  0  0  0  0  0  0  0  0
  144.3307   73.4666  218.6665 H   0  0  0  0  0  0  0  0  0  0  0  0
  144.7980   74.1420  220.8040 C   0  0  0  0  0  0  0  0  0  0  0  0
  145.0141   75.1555  220.4349 H   0  0  0  0  0  0  0  0  0  0  0  0
  144.0416   74.3931  221.5622 H   0  0  0  0  0  0  0  0  0  0  0  0
  146.0360   73.3410  221.1840 C   0  0  0  0  0  0  0  0  0  0  0  0
  146.9823   73.8820  221.0361 H   0  0  0  0  0  0  0  0  0  0  0  0
  146.1842   73.0096  222.2224 H   0  0  0  0  0  0  0  0  0  0  0  0
  145.7250   72.3270  220.0930 C   0  0  0  0  0  0  0  0  0  0  0  0
  146.4890   72.2678  219.3038 H   0  0  0  0  0  0  0  0  0  0  0  0
  145.6430   71.2569  220.3342 H   0  0  0  0  0  0  0  0  0  0  0  0
  141.6670   72.0000  221.5870 N   0  0  0  0  0  0  0  0  0  0  0  0
  138.8940   70.7760  223.0060 C   0  0  0  0  0  0  0  0  0  0  0  0
  138.7069   70.8650  221.9257 H   0  0  0  0  0  0  0  0  0  0  0  0
  138.0164   71.1414  223.5595 H   0  0  0  0  0  0  0  0  0  0  0  0
  139.1490   69.3150  223.3600 C   0  0  0  0  0  0  0  0  0  0  0  0
  139.8992   68.9053  222.6676 H   0  0  0  0  0  0  0  0  0  0  0  0
  138.1979   68.7688  223.2757 H   0  0  0  0  0  0  0  0  0  0  0  0
  1  2  1  0
  2  3  2  0
  3  4  1  0
  3  5  1  0
  5  6  1  0
  5  7  2  0
  7  8  1  0
  8  9  2  0
  9 10  1  0
  8 11  1  0
 11 12  1  0
 11 13  1  0
 11 14  1  0
 14 15  1  0
 15 16  1  0
 16 17  2  0
 17 18  1  0
 18 19  1  0
 19 20  1  0
 19 21  1  0
 19 22  1  0
 22 23  1  0
 22 24  1  0
 22 25  1  0
 25 26  1  0
 25 27  1  0
 25 28  1  0
 28 29  1  0
 28 30  1  0
 28 31  1  0
 31 32  1  0
 31 33  1  0
 17 34  1  0
 34 35  1  0
 34 36  1  0
 36 37  2  0
 37 38  1  0
 37 39  1  0
 39 40  1  0
 39 41  1  0
 41 42  1  0
 41 43  1  0
 41 44  1  0
 44 45  1  0
 44 46  1  0
 44 47  1  0
 47 48  1  0
 47 49  1  0
 36 50  1  0
 14 51  1  0
 51 52  1  0
 51 53  1  0
 51 54  1  0
 54 55  1  0
 54 56  1  0
  9  2  1  0
 50 15  2  0
 54  7  1  0
 31 18  1  0
 47 39  1  0
M  CHG  1  37   1
M  END
>  <UniqueID>  (49) 
485

>  <SMILES>  (49) 
c1ccc2c(c1)CCN(c1nc(N3CCCCC3)[nH]/c(=[NH+]/C3CCC3)n1)C2

>  <Energy>  (49) 
125.37893925514972

>  <Genealogy>  (49) 
c1ccc2c(c1)CCN(c1nc([NH2+]C3CCC3)nc(N3CCCCC3)n1)C2 (protonated)
c1ccc2c(c1)CCN(c1nc(N3CCCCC3)[nH]c(=[NH+]C3CCC3)n1)C2 (tautomer)
c1ccc2c(c1)CCN(c1nc(N3CCCCC3)[nH]/c(=[NH+]/C3CCC3)n1)C2 (cis-trans isomerization)
c1ccc2c(c1)CCN(c1nc(N3CCCCC3)[nH]/c(=[NH+]/C3CCC3)n1)C2 (3D coordinates assigned)
c1ccc2c(c1)CCN(c1nc(N3CCCCC3)[nH]/c(=[NH+]/C3CCC3)n1)C2 (nonaromatic ring conformer: 125.37893925514972 kcal/mol)

>  <smiles>  (49) 
c1ccc2c(c1)CCN(c1nc(NC3CCC3)nc(N3CCCCC3)n1)C2

>  <score_type>  (49) 
oracle

>  <origin>  (49) 
autodockgpu

>  <m_score__min__energy>  (49) 
-8.3200000000000003

>  <m_primary>  (49) 
energy

>  <meeko>  (49) 
{"free_energy": -8.31, "intermolecular_energy": -9.51, "internal_energy": -0.44, "cluster_size": 20, "cluster_id": 1, "rank_in_cluster": 2}

>  <energy>  (49) 
-8.3

>  <cluster_rmsd>  (49) 
0.08

>  <rmsd>  (49) 
270.99

>  <cluster>  (49) 
1

$$$$
JGFXCGHACWUNAV-PBFIRHMANA-O
     RDKit          3D

 56 60  0  0  0  0  0  0  0  0999 V2000
  141.0353   68.6958  228.3574 H   0  0  0  0  0  0  0  0  0  0  0  0
  140.6530   68.8320  227.3350 C   0  0  0  0  0  0  0  0  0  0  0  0
  140.0420   67.7680  226.6720 C   0  0  0  0  0  0  0  0  0  0  0  0
  139.9467   66.7923  227.1709 H   0  0  0  0  0  0  0  0  0  0  0  0
  139.5510   67.9390  225.3760 C   0  0  0  0  0  0  0  0  0  0  0  0
  139.0784   67.0932  224.8552 H   0  0  0  0  0  0  0  0  0  0  0  0
  139.6560   69.1820  224.7330 C   0  0  0  0  0  0  0  0  0  0  0  0
  140.2980   70.2570  225.3950 C   0  0  0  0  0  0  0  0  0  0  0  0
  140.7800   70.0720  226.7010 C   0  0  0  0  0  0  0  0  0  0  0  0
  141.2609   70.9085  227.2291 H   0  0  0  0  0  0  0  0  0  0  0  0
  140.4500   71.6140  224.7470 C   0  0  0  0  0  0  0  0  0  0  0  0
  141.5025   71.9259  224.8180 H   0  0  0  0  0  0  0  0  0  0  0  0
  139.7904   72.3188  225.2744 H   0  0  0  0  0  0  0  0  0  0  0  0
  140.0550   71.5940  223.3310 N   0  0  0  0  0  0  0  0  0  0  0  0
  140.6800   72.4860  222.3860 C   0  0  0  0  0  0  0  0  0  0  0  0
  140.3330   73.7980  222.3460 N   0  0  0  0  0  0  0  0  0  0  0  0
  140.9270   74.6490  221.4700 C   0  0  0  0  0  0  0  0  0  0  0  0
  140.5480   76.0390  221.4630 N   0  0  0  0  0  0  0  0  0  0  0  0
  141.1860   77.0030  220.5540 C   0  0  0  0  0  0  0  0  0  0  0  0
  142.0583   76.5300  220.0793 H   0  0  0  0  0  0  0  0  0  0  0  0
  140.4560   77.3072  219.7895 H   0  0  0  0  0  0  0  0  0  0  0  0
  141.6450   78.2500  221.3260 C   0  0  0  0  0  0  0  0  0  0  0  0
  142.6478   78.0574  221.7350 H   0  0  0  0  0  0  0  0  0  0  0  0
  141.6398   79.0911  220.6171 H   0  0  0  0  0  0  0  0  0  0  0  0
  140.7050   78.6300  222.4920 C   0  0  0  0  0  0  0  0  0  0  0  0
  141.1512   78.2794  223.4343 H   0  0  0  0  0  0  0  0  0  0  0  0
  140.5865   79.7236  222.4850 H   0  0  0  0  0  0  0  0  0  0  0  0
  139.3110   78.0070  222.3450 C   0  0  0  0  0  0  0  0  0  0  0  0
  138.6890   78.3015  223.2032 H   0  0  0  0  0  0  0  0  0  0  0  0
  138.8547   78.3647  221.4102 H   0  0  0  0  0  0  0  0  0  0  0  0
  139.4170   76.4750  222.2970 C   0  0  0  0  0  0  0  0  0  0  0  0
  139.5589   76.0942  223.3192 H   0  0  0  0  0  0  0  0  0  0  0  0
  138.4903   76.0784  221.8567 H   0  0  0  0  0  0  0  0  0  0  0  0
  141.9080   74.1850  220.6440 N   0  0  0  0  0  0  0  0  0  0  0  0
  142.4150   74.8450  220.0120 H   0  0  0  0  0  0  0  0  0  0  0  0
  142.2650   72.8690  220.6740 C   0  0  0  0  0  0  0  0  0  0  0  0
  143.2050   72.4220  219.8850 N   0  0  0  0  0  0  0  0  0  0  0  0
  143.0590   71.5120  219.3910 H   0  0  0  0  0  0  0  0  0  0  0  0
  144.4770   73.1360  219.6920 C   0  0  0  0  0  0  0  0  0  0  0  0
  144.3572   73.4875  218.6566 H   0  0  0  0  0  0  0  0  0  0  0  0
  144.7900   74.1300  220.8110 C   0  0  0  0  0  0  0  0  0  0  0  0
  145.0417   75.1407  220.4573 H   0  0  0  0  0  0  0  0  0  0  0  0
  144.0226   74.3944  221.5534 H   0  0  0  0  0  0  0  0  0  0  0  0
  145.9970   73.2920  221.2120 C   0  0  0  0  0  0  0  0  0  0  0  0
  146.9607   73.8085  221.0917 H   0  0  0  0  0  0  0  0  0  0  0  0
  146.1115   72.9470  222.2502 H   0  0  0  0  0  0  0  0  0  0  0  0
  145.6850   72.2970  220.1040 C   0  0  0  0  0  0  0  0  0  0  0  0
  146.4657   72.2244  219.3325 H   0  0  0  0  0  0  0  0  0  0  0  0
  145.5685   71.2273  220.3325 H   0  0  0  0  0  0  0  0  0  0  0  0
  141.6430   72.0300  221.5450 N   0  0  0  0  0  0  0  0  0  0  0  0
  138.8990   70.7750  222.9520 C   0  0  0  0  0  0  0  0  0  0  0  0
  138.7287   70.8591  221.8685 H   0  0  0  0  0  0  0  0  0  0  0  0
  138.0064   71.1266  223.4901 H   0  0  0  0  0  0  0  0  0  0  0  0
  139.1720   69.3190  223.3130 C   0  0  0  0  0  0  0  0  0  0  0  0
  139.9402   68.9206  222.6339 H   0  0  0  0  0  0  0  0  0  0  0  0
  138.2313   68.7574  223.2140 H   0  0  0  0  0  0  0  0  0  0  0  0
  1  2  1  0
  2  3  2  0
  3  4  1  0
  3  5  1  0
  5  6  1  0
  5  7  2  0
  7  8  1  0
  8  9  2  0
  9 10  1  0
  8 11  1  0
 11 12  1  0
 11 13  1  0
 11 14  1  0
 14 15  1  0
 15 16  1  0
 16 17  2  0
 17 18  1  0
 18 19  1  0
 19 20  1  0
 19 21  1  0
 19 22  1  0
 22 23  1  0
 22 24  1  0
 22 25  1  0
 25 26  1  0
 25 27  1  0
 25 28  1  0
 28 29  1  0
 28 30  1  0
 28 31  1  0
 31 32  1  0
 31 33  1  0
 17 34  1  0
 34 35  1  0
 34 36  1  0
 36 37  2  0
 37 38  1  0
 37 39  1  0
 39 40  1  0
 39 41  1  0
 41 42  1  0
 41 43  1  0
 41 44  1  0
 44 45  1  0
 44 46  1  0
 44 47  1  0
 47 48  1  0
 47 49  1  0
 36 50  1  0
 14 51  1  0
 51 52  1  0
 51 53  1  0
 51 54  1  0
 54 55  1  0
 54 56  1  0
  9  2  1  0
 50 15  2  0
 54  7  1  0
 31 18  1  0
 47 39  1  0
M  CHG  1  37   1
M  END
>  <UniqueID>  (50) 
485

>  <SMILES>  (50) 
c1ccc2c(c1)CCN(c1nc(N3CCCCC3)[nH]/c(=[NH+]/C3CCC3)n1)C2

>  <Energy>  (50) 
125.37893925514972

>  <Genealogy>  (50) 
c1ccc2c(c1)CCN(c1nc([NH2+]C3CCC3)nc(N3CCCCC3)n1)C2 (protonated)
c1ccc2c(c1)CCN(c1nc(N3CCCCC3)[nH]c(=[NH+]C3CCC3)n1)C2 (tautomer)
c1ccc2c(c1)CCN(c1nc(N3CCCCC3)[nH]/c(=[NH+]/C3CCC3)n1)C2 (cis-trans isomerization)
c1ccc2c(c1)CCN(c1nc(N3CCCCC3)[nH]/c(=[NH+]/C3CCC3)n1)C2 (3D coordinates assigned)
c1ccc2c(c1)CCN(c1nc(N3CCCCC3)[nH]/c(=[NH+]/C3CCC3)n1)C2 (nonaromatic ring conformer: 125.37893925514972 kcal/mol)

>  <smiles>  (50) 
c1ccc2c(c1)CCN(c1nc(NC3CCC3)nc(N3CCCCC3)n1)C2

>  <score_type>  (50) 
oracle

>  <origin>  (50) 
autodockgpu

>  <m_score__min__energy>  (50) 
-8.3200000000000003

>  <m_primary>  (50) 
energy

>  <meeko>  (50) 
{"free_energy": -8.31, "intermolecular_energy": -9.5, "internal_energy": -0.45, "cluster_size": 20, "cluster_id": 1, "rank_in_cluster": 5}

>  <energy>  (50) 
-8.3

>  <cluster_rmsd>  (50) 
0.09

>  <rmsd>  (50) 
270.99

>  <cluster>  (50) 
1

$$$$
JGFXCGHACWUNAV-PBFIRHMANA-O
     RDKit          3D

 56 60  0  0  0  0  0  0  0  0999 V2000
  141.0645   68.7068  228.4019 H   0  0  0  0  0  0  0  0  0  0  0  0
  140.6730   68.8430  227.3830 C   0  0  0  0  0  0  0  0  0  0  0  0
  140.0430   67.7840  226.7320 C   0  0  0  0  0  0  0  0  0  0  0  0
  139.9423   66.8116  227.2362 H   0  0  0  0  0  0  0  0  0  0  0  0
  139.5390   67.9550  225.4400 C   0  0  0  0  0  0  0  0  0  0  0  0
  139.0504   67.1127  224.9283 H   0  0  0  0  0  0  0  0  0  0  0  0
  139.6520   69.1940  224.7910 C   0  0  0  0  0  0  0  0  0  0  0  0
  140.3150   70.2630  225.4400 C   0  0  0  0  0  0  0  0  0  0  0  0
  140.8080   70.0790  226.7420 C   0  0  0  0  0  0  0  0  0  0  0  0
  141.3037   70.9124  227.2613 H   0  0  0  0  0  0  0  0  0  0  0  0
  140.4760   71.6160  224.7840 C   0  0  0  0  0  0  0  0  0  0  0  0
  141.5327   71.9159  224.8425 H   0  0  0  0  0  0  0  0  0  0  0  0
  139.8304   72.3310  225.3151 H   0  0  0  0  0  0  0  0  0  0  0  0
  140.0660   71.5940  223.3730 N   0  0  0  0  0  0  0  0  0  0  0  0
  140.6910   72.4740  222.4170 C   0  0  0  0  0  0  0  0  0  0  0  0
  140.3270   73.7790  222.3430 N   0  0  0  0  0  0  0  0  0  0  0  0
  140.9200   74.6190  221.4570 C   0  0  0  0  0  0  0  0  0  0  0  0
  140.5220   76.0030  221.4140 N   0  0  0  0  0  0  0  0  0  0  0  0
  141.0670   76.9270  220.4080 C   0  0  0  0  0  0  0  0  0  0  0  0
  141.9031   76.4400  219.8848 H   0  0  0  0  0  0  0  0  0  0  0  0
  140.2707   77.1848  219.6943 H   0  0  0  0  0  0  0  0  0  0  0  0
  141.5710   78.2160  221.0760 C   0  0  0  0  0  0  0  0  0  0  0  0
  142.6074   78.0548  221.4076 H   0  0  0  0  0  0  0  0  0  0  0  0
  141.4940   79.0204  220.3296 H   0  0  0  0  0  0  0  0  0  0  0  0
  140.7270   78.6440  222.2970 C   0  0  0  0  0  0  0  0  0  0  0  0
  141.2561   78.3460  223.2142 H   0  0  0  0  0  0  0  0  0  0  0  0
  140.5920   79.7345  222.2459 H   0  0  0  0  0  0  0  0  0  0  0  0
  139.3350   78.0000  222.3000 C   0  0  0  0  0  0  0  0  0  0  0  0
  138.7833   78.3308  223.1923 H   0  0  0  0  0  0  0  0  0  0  0  0
  138.7958   78.3053  221.3911 H   0  0  0  0  0  0  0  0  0  0  0  0
  139.4600   76.4690  222.3190 C   0  0  0  0  0  0  0  0  0  0  0  0
  139.6942   76.1423  223.3429 H   0  0  0  0  0  0  0  0  0  0  0  0
  138.5053   76.0408  221.9798 H   0  0  0  0  0  0  0  0  0  0  0  0
  141.9190   74.1520  220.6550 N   0  0  0  0  0  0  0  0  0  0  0  0
  142.4260   74.8050  220.0150 H   0  0  0  0  0  0  0  0  0  0  0  0
  142.2950   72.8420  220.7190 C   0  0  0  0  0  0  0  0  0  0  0  0
  143.2520   72.3920  219.9530 N   0  0  0  0  0  0  0  0  0  0  0  0
  143.1430   71.4510  219.5080 H   0  0  0  0  0  0  0  0  0  0  0  0
  144.4940   73.1440  219.7200 C   0  0  0  0  0  0  0  0  0  0  0  0
  144.3326   73.4865  218.6872 H   0  0  0  0  0  0  0  0  0  0  0  0
  144.8090   74.1530  220.8260 C   0  0  0  0  0  0  0  0  0  0  0  0
  145.0190   75.1692  220.4610 H   0  0  0  0  0  0  0  0  0  0  0  0
  144.0557   74.3972  221.5895 H   0  0  0  0  0  0  0  0  0  0  0  0
  146.0520   73.3550  221.1950 C   0  0  0  0  0  0  0  0  0  0  0  0
  146.9952   73.9008  221.0451 H   0  0  0  0  0  0  0  0  0  0  0  0
  146.2066   73.0185  222.2308 H   0  0  0  0  0  0  0  0  0  0  0  0
  145.7400   72.3450  220.1000 C   0  0  0  0  0  0  0  0  0  0  0  0
  146.5000   72.2935  219.3065 H   0  0  0  0  0  0  0  0  0  0  0  0
  145.6642   71.2732  220.3357 H   0  0  0  0  0  0  0  0  0  0  0  0
  141.6720   72.0130  221.6000 N   0  0  0  0  0  0  0  0  0  0  0  0
  138.8960   70.7880  223.0100 C   0  0  0  0  0  0  0  0  0  0  0  0
  138.7155   70.8693  221.9280 H   0  0  0  0  0  0  0  0  0  0  0  0
  138.0137   71.1534  223.5559 H   0  0  0  0  0  0  0  0  0  0  0  0
  139.1540   69.3300  223.3750 C   0  0  0  0  0  0  0  0  0  0  0  0
  139.9094   68.9184  222.6895 H   0  0  0  0  0  0  0  0  0  0  0  0
  138.2053   68.7800  223.2889 H   0  0  0  0  0  0  0  0  0  0  0  0
  1  2  1  0
  2  3  2  0
  3  4  1  0
  3  5  1  0
  5  6  1  0
  5  7  2  0
  7  8  1  0
  8  9  2  0
  9 10  1  0
  8 11  1  0
 11 12  1  0
 11 13  1  0
 11 14  1  0
 14 15  1  0
 15 16  1  0
 16 17  2  0
 17 18  1  0
 18 19  1  0
 19 20  1  0
 19 21  1  0
 19 22  1  0
 22 23  1  0
 22 24  1  0
 22 25  1  0
 25 26  1  0
 25 27  1  0
 25 28  1  0
 28 29  1  0
 28 30  1  0
 28 31  1  0
 31 32  1  0
 31 33  1  0
 17 34  1  0
 34 35  1  0
 34 36  1  0
 36 37  2  0
 37 38  1  0
 37 39  1  0
 39 40  1  0
 39 41  1  0
 41 42  1  0
 41 43  1  0
 41 44  1  0
 44 45  1  0
 44 46  1  0
 44 47  1  0
 47 48  1  0
 47 49  1  0
 36 50  1  0
 14 51  1  0
 51 52  1  0
 51 53  1  0
 51 54  1  0
 54 55  1  0
 54 56  1  0
  9  2  1  0
 50 15  2  0
 54  7  1  0
 31 18  1  0
 47 39  1  0
M  CHG  1  37   1
M  END
>  <UniqueID>  (51) 
485

>  <SMILES>  (51) 
c1ccc2c(c1)CCN(c1nc(N3CCCCC3)[nH]/c(=[NH+]/C3CCC3)n1)C2

>  <Energy>  (51) 
125.37893925514972

>  <Genealogy>  (51) 
c1ccc2c(c1)CCN(c1nc([NH2+]C3CCC3)nc(N3CCCCC3)n1)C2 (protonated)
c1ccc2c(c1)CCN(c1nc(N3CCCCC3)[nH]c(=[NH+]C3CCC3)n1)C2 (tautomer)
c1ccc2c(c1)CCN(c1nc(N3CCCCC3)[nH]/c(=[NH+]/C3CCC3)n1)C2 (cis-trans isomerization)
c1ccc2c(c1)CCN(c1nc(N3CCCCC3)[nH]/c(=[NH+]/C3CCC3)n1)C2 (3D coordinates assigned)
c1ccc2c(c1)CCN(c1nc(N3CCCCC3)[nH]/c(=[NH+]/C3CCC3)n1)C2 (nonaromatic ring conformer: 125.37893925514972 kcal/mol)

>  <smiles>  (51) 
c1ccc2c(c1)CCN(c1nc(NC3CCC3)nc(N3CCCCC3)n1)C2

>  <score_type>  (51) 
oracle

>  <origin>  (51) 
autodockgpu

>  <m_score__min__energy>  (51) 
-8.3200000000000003

>  <m_primary>  (51) 
energy

>  <meeko>  (51) 
{"free_energy": -8.31, "intermolecular_energy": -9.5, "internal_energy": -0.44, "cluster_size": 20, "cluster_id": 1, "rank_in_cluster": 6}

>  <energy>  (51) 
-8.3

>  <cluster_rmsd>  (51) 
0.17

>  <rmsd>  (51) 
270.97

>  <cluster>  (51) 
1

$$$$
JGFXCGHACWUNAV-PBFIRHMANA-O
     RDKit          3D

 56 60  0  0  0  0  0  0  0  0999 V2000
  141.0739   68.6700  228.3361 H   0  0  0  0  0  0  0  0  0  0  0  0
  140.6820   68.8110  227.3180 C   0  0  0  0  0  0  0  0  0  0  0  0
  140.0600   67.7520  226.6580 C   0  0  0  0  0  0  0  0  0  0  0  0
  139.9659   66.7749  227.1544 H   0  0  0  0  0  0  0  0  0  0  0  0
  139.5560   67.9300  225.3670 C   0  0  0  0  0  0  0  0  0  0  0  0
  139.0739   67.0881  224.8485 H   0  0  0  0  0  0  0  0  0  0  0  0
  139.6600   69.1740  224.7270 C   0  0  0  0  0  0  0  0  0  0  0  0
  140.3150   70.2440  225.3860 C   0  0  0  0  0  0  0  0  0  0  0  0
  140.8080   70.0530  226.6860 C   0  0  0  0  0  0  0  0  0  0  0  0
  141.2972   70.8860  227.2121 H   0  0  0  0  0  0  0  0  0  0  0  0
  140.4660   71.6020  224.7400 C   0  0  0  0  0  0  0  0  0  0  0  0
  141.5204   71.9094  224.8014 H   0  0  0  0  0  0  0  0  0  0  0  0
  139.8143   72.3078  225.2758 H   0  0  0  0  0  0  0  0  0  0  0  0
  140.0570   71.5880  223.3280 N   0  0  0  0  0  0  0  0  0  0  0  0
  140.6760   72.4800  222.3790 C   0  0  0  0  0  0  0  0  0  0  0  0
  140.3290   73.7920  222.3420 N   0  0  0  0  0  0  0  0  0  0  0  0
  140.9180   74.6430  221.4630 C   0  0  0  0  0  0  0  0  0  0  0  0
  140.5390   76.0330  221.4580 N   0  0  0  0  0  0  0  0  0  0  0  0
  141.1740   76.9980  220.5470 C   0  0  0  0  0  0  0  0  0  0  0  0
  142.0445   76.5252  220.0689 H   0  0  0  0  0  0  0  0  0  0  0  0
  140.4411   77.3027  219.7854 H   0  0  0  0  0  0  0  0  0  0  0  0
  141.6360   78.2450  221.3180 C   0  0  0  0  0  0  0  0  0  0  0  0
  142.6406   78.0525  221.7227 H   0  0  0  0  0  0  0  0  0  0  0  0
  141.6275   79.0865  220.6097 H   0  0  0  0  0  0  0  0  0  0  0  0
  140.7010   78.6240  222.4880 C   0  0  0  0  0  0  0  0  0  0  0  0
  141.1514   78.2729  223.4282 H   0  0  0  0  0  0  0  0  0  0  0  0
  140.5822   79.7176  222.4819 H   0  0  0  0  0  0  0  0  0  0  0  0
  139.3060   78.0010  222.3470 C   0  0  0  0  0  0  0  0  0  0  0  0
  138.6881   78.2946  223.2084 H   0  0  0  0  0  0  0  0  0  0  0  0
  138.8451   78.3597  221.4148 H   0  0  0  0  0  0  0  0  0  0  0  0
  139.4120   76.4700  222.2970 C   0  0  0  0  0  0  0  0  0  0  0  0
  139.5582   76.0886  223.3183 H   0  0  0  0  0  0  0  0  0  0  0  0
  138.4834   76.0746  221.8596 H   0  0  0  0  0  0  0  0  0  0  0  0
  141.8940   74.1790  220.6300 N   0  0  0  0  0  0  0  0  0  0  0  0
  142.3970   74.8390  219.9960 H   0  0  0  0  0  0  0  0  0  0  0  0
  142.2510   72.8630  220.6580 C   0  0  0  0  0  0  0  0  0  0  0  0
  143.1860   72.4170  219.8640 N   0  0  0  0  0  0  0  0  0  0  0  0
  143.0310   71.5130  219.3600 H   0  0  0  0  0  0  0  0  0  0  0  0
  144.4640   73.1210  219.6770 C   0  0  0  0  0  0  0  0  0  0  0  0
  144.3498   73.4787  218.6431 H   0  0  0  0  0  0  0  0  0  0  0  0
  144.7830   74.1060  220.8020 C   0  0  0  0  0  0  0  0  0  0  0  0
  145.0449   75.1161  220.4541 H   0  0  0  0  0  0  0  0  0  0  0  0
  144.0156   74.3732  221.5435 H   0  0  0  0  0  0  0  0  0  0  0  0
  145.9810   73.2560  221.2030 C   0  0  0  0  0  0  0  0  0  0  0  0
  146.9495   73.7647  221.0884 H   0  0  0  0  0  0  0  0  0  0  0  0
  146.0891   72.9051  222.2399 H   0  0  0  0  0  0  0  0  0  0  0  0
  145.6640   72.2690  220.0890 C   0  0  0  0  0  0  0  0  0  0  0  0
  146.4466   72.1934  219.3197 H   0  0  0  0  0  0  0  0  0  0  0  0
  145.5375   71.1993  220.3118 H   0  0  0  0  0  0  0  0  0  0  0  0
  141.6340   72.0240  221.5330 N   0  0  0  0  0  0  0  0  0  0  0  0
  138.8930   70.7760  222.9590 C   0  0  0  0  0  0  0  0  0  0  0  0
  138.7114   70.8646  221.8777 H   0  0  0  0  0  0  0  0  0  0  0  0
  138.0082   71.1303  223.5082 H   0  0  0  0  0  0  0  0  0  0  0  0
  139.1620   69.3180  223.3120 C   0  0  0  0  0  0  0  0  0  0  0  0
  139.9211   68.9180  222.6237 H   0  0  0  0  0  0  0  0  0  0  0  0
  138.2176   68.7614  223.2207 H   0  0  0  0  0  0  0  0  0  0  0  0
  1  2  1  0
  2  3  2  0
  3  4  1  0
  3  5  1  0
  5  6  1  0
  5  7  2  0
  7  8  1  0
  8  9  2  0
  9 10  1  0
  8 11  1  0
 11 12  1  0
 11 13  1  0
 11 14  1  0
 14 15  1  0
 15 16  1  0
 16 17  2  0
 17 18  1  0
 18 19  1  0
 19 20  1  0
 19 21  1  0
 19 22  1  0
 22 23  1  0
 22 24  1  0
 22 25  1  0
 25 26  1  0
 25 27  1  0
 25 28  1  0
 28 29  1  0
 28 30  1  0
 28 31  1  0
 31 32  1  0
 31 33  1  0
 17 34  1  0
 34 35  1  0
 34 36  1  0
 36 37  2  0
 37 38  1  0
 37 39  1  0
 39 40  1  0
 39 41  1  0
 41 42  1  0
 41 43  1  0
 41 44  1  0
 44 45  1  0
 44 46  1  0
 44 47  1  0
 47 48  1  0
 47 49  1  0
 36 50  1  0
 14 51  1  0
 51 52  1  0
 51 53  1  0
 51 54  1  0
 54 55  1  0
 54 56  1  0
  9  2  1  0
 50 15  2  0
 54  7  1  0
 31 18  1  0
 47 39  1  0
M  CHG  1  37   1
M  END
>  <UniqueID>  (52) 
485

>  <SMILES>  (52) 
c1ccc2c(c1)CCN(c1nc(N3CCCCC3)[nH]/c(=[NH+]/C3CCC3)n1)C2

>  <Energy>  (52) 
125.37893925514972

>  <Genealogy>  (52) 
c1ccc2c(c1)CCN(c1nc([NH2+]C3CCC3)nc(N3CCCCC3)n1)C2 (protonated)
c1ccc2c(c1)CCN(c1nc(N3CCCCC3)[nH]c(=[NH+]C3CCC3)n1)C2 (tautomer)
c1ccc2c(c1)CCN(c1nc(N3CCCCC3)[nH]/c(=[NH+]/C3CCC3)n1)C2 (cis-trans isomerization)
c1ccc2c(c1)CCN(c1nc(N3CCCCC3)[nH]/c(=[NH+]/C3CCC3)n1)C2 (3D coordinates assigned)
c1ccc2c(c1)CCN(c1nc(N3CCCCC3)[nH]/c(=[NH+]/C3CCC3)n1)C2 (nonaromatic ring conformer: 125.37893925514972 kcal/mol)

>  <smiles>  (52) 
c1ccc2c(c1)CCN(c1nc(NC3CCC3)nc(N3CCCCC3)n1)C2

>  <score_type>  (52) 
oracle

>  <origin>  (52) 
autodockgpu

>  <m_score__min__energy>  (52) 
-8.3200000000000003

>  <m_primary>  (52) 
energy

>  <meeko>  (52) 
{"free_energy": -8.3, "intermolecular_energy": -9.49, "internal_energy": -0.46, "cluster_size": 20, "cluster_id": 1, "rank_in_cluster": 13}

>  <energy>  (52) 
-8.3

>  <cluster_rmsd>  (52) 
0.07

>  <rmsd>  (52) 
270.98

>  <cluster>  (52) 
1

$$$$
JGFXCGHACWUNAV-PBFIRHMANA-O
     RDKit          3D

 56 60  0  0  0  0  0  0  0  0999 V2000
  141.6251   68.2782  228.0191 H   0  0  0  0  0  0  0  0  0  0  0  0
  141.0620   68.5250  227.1070 C   0  0  0  0  0  0  0  0  0  0  0  0
  140.2920   67.5480  226.4780 C   0  0  0  0  0  0  0  0  0  0  0  0
  140.2522   66.5298  226.8923 H   0  0  0  0  0  0  0  0  0  0  0  0
  139.5710   67.8590  225.3230 C   0  0  0  0  0  0  0  0  0  0  0  0
  138.9729   67.0807  224.8265 H   0  0  0  0  0  0  0  0  0  0  0  0
  139.6040   69.1580  224.7910 C   0  0  0  0  0  0  0  0  0  0  0  0
  140.4060   70.1450  225.4140 C   0  0  0  0  0  0  0  0  0  0  0  0
  141.1190   69.8190  226.5790 C   0  0  0  0  0  0  0  0  0  0  0  0
  141.7268   70.5868  227.0800 H   0  0  0  0  0  0  0  0  0  0  0  0
  140.4890   71.5560  224.8790 C   0  0  0  0  0  0  0  0  0  0  0  0
  141.5480   71.8348  224.7746 H   0  0  0  0  0  0  0  0  0  0  0  0
  139.9715   72.2196  225.5874 H   0  0  0  0  0  0  0  0  0  0  0  0
  139.8320   71.6870  223.5700 N   0  0  0  0  0  0  0  0  0  0  0  0
  140.3030   72.6540  222.6090 C   0  0  0  0  0  0  0  0  0  0  0  0
  141.4570   72.4390  221.9270 N   0  0  0  0  0  0  0  0  0  0  0  0
  141.9010   73.3360  221.0100 C   0  0  0  0  0  0  0  0  0  0  0  0
  143.1210   73.0730  220.2910 N   0  0  0  0  0  0  0  0  0  0  0  0
  143.2080   71.9930  219.2960 C   0  0  0  0  0  0  0  0  0  0  0  0
  142.3044   71.3689  219.3596 H   0  0  0  0  0  0  0  0  0  0  0  0
  143.2918   72.4391  218.2940 H   0  0  0  0  0  0  0  0  0  0  0  0
  144.4450   71.1190  219.5550 C   0  0  0  0  0  0  0  0  0  0  0  0
  144.1773   70.3446  220.2889 H   0  0  0  0  0  0  0  0  0  0  0  0
  144.7470   70.6894  218.5884 H   0  0  0  0  0  0  0  0  0  0  0  0
  145.6540   71.9120  220.0990 C   0  0  0  0  0  0  0  0  0  0  0  0
  145.7179   71.7574  221.1862 H   0  0  0  0  0  0  0  0  0  0  0  0
  146.5552   71.5441  219.5866 H   0  0  0  0  0  0  0  0  0  0  0  0
  145.5380   73.4160  219.8210 C   0  0  0  0  0  0  0  0  0  0  0  0
  146.4167   73.9311  220.2363 H   0  0  0  0  0  0  0  0  0  0  0  0
  145.4870   73.5771  218.7341 H   0  0  0  0  0  0  0  0  0  0  0  0
  144.2660   73.9790  220.4710 C   0  0  0  0  0  0  0  0  0  0  0  0
  144.4461   74.1176  221.5473 H   0  0  0  0  0  0  0  0  0  0  0  0
  144.0267   74.9373  219.9868 H   0  0  0  0  0  0  0  0  0  0  0  0
  141.1590   74.4500  220.7470 N   0  0  0  0  0  0  0  0  0  0  0  0
  141.4580   75.1140  219.9970 H   0  0  0  0  0  0  0  0  0  0  0  0
  139.9970   74.6770  221.4250 C   0  0  0  0  0  0  0  0  0  0  0  0
  139.2840   75.7420  221.1740 N   0  0  0  0  0  0  0  0  0  0  0  0
  138.5070   75.6750  220.4770 H   0  0  0  0  0  0  0  0  0  0  0  0
  139.5540   77.0400  221.8110 C   0  0  0  0  0  0  0  0  0  0  0  0
  138.5842   77.2357  222.2919 H   0  0  0  0  0  0  0  0  0  0  0  0
  140.8390   77.0540  222.6380 C   0  0  0  0  0  0  0  0  0  0  0  0
  140.7103   77.4341  223.6622 H   0  0  0  0  0  0  0  0  0  0  0  0
  141.3646   76.1154  222.8679 H   0  0  0  0  0  0  0  0  0  0  0  0
  141.4460   78.0620  221.6720 C   0  0  0  0  0  0  0  0  0  0  0  0
  141.6729   79.0376  222.1268 H   0  0  0  0  0  0  0  0  0  0  0  0
  142.4178   77.8593  221.1982 H   0  0  0  0  0  0  0  0  0  0  0  0
  140.1710   78.0470  220.8420 C   0  0  0  0  0  0  0  0  0  0  0  0
  139.6476   79.0138  220.8050 H   0  0  0  0  0  0  0  0  0  0  0  0
  140.2102   77.8311  219.7641 H   0  0  0  0  0  0  0  0  0  0  0  0
  139.5830   73.7750  222.3550 N   0  0  0  0  0  0  0  0  0  0  0  0
  138.5910   70.9380  223.3470 C   0  0  0  0  0  0  0  0  0  0  0  0
  138.2216   71.1338  222.3296 H   0  0  0  0  0  0  0  0  0  0  0  0
  137.8329   71.2556  224.0780 H   0  0  0  0  0  0  0  0  0  0  0  0
  138.8650   69.4470  223.5110 C   0  0  0  0  0  0  0  0  0  0  0  0
  139.4720   69.0998  222.6619 H   0  0  0  0  0  0  0  0  0  0  0  0
  137.8996   68.9208  223.5441 H   0  0  0  0  0  0  0  0  0  0  0  0
  1  2  1  0
  2  3  2  0
  3  4  1  0
  3  5  1  0
  5  6  1  0
  5  7  2  0
  7  8  1  0
  8  9  2  0
  9 10  1  0
  8 11  1  0
 11 12  1  0
 11 13  1  0
 11 14  1  0
 14 15  1  0
 15 16  1  0
 16 17  2  0
 17 18  1  0
 18 19  1  0
 19 20  1  0
 19 21  1  0
 19 22  1  0
 22 23  1  0
 22 24  1  0
 22 25  1  0
 25 26  1  0
 25 27  1  0
 25 28  1  0
 28 29  1  0
 28 30  1  0
 28 31  1  0
 31 32  1  0
 31 33  1  0
 17 34  1  0
 34 35  1  0
 34 36  1  0
 36 37  2  0
 37 38  1  0
 37 39  1  0
 39 40  1  0
 39 41  1  0
 41 42  1  0
 41 43  1  0
 41 44  1  0
 44 45  1  0
 44 46  1  0
 44 47  1  0
 47 48  1  0
 47 49  1  0
 36 50  1  0
 14 51  1  0
 51 52  1  0
 51 53  1  0
 51 54  1  0
 54 55  1  0
 54 56  1  0
  9  2  1  0
 50 15  2  0
 54  7  1  0
 31 18  1  0
 47 39  1  0
M  CHG  1  37   1
M  END
>  <UniqueID>  (53) 
485

>  <SMILES>  (53) 
c1ccc2c(c1)CCN(c1nc(N3CCCCC3)[nH]/c(=[NH+]/C3CCC3)n1)C2

>  <Energy>  (53) 
125.37893925514972

>  <Genealogy>  (53) 
c1ccc2c(c1)CCN(c1nc([NH2+]C3CCC3)nc(N3CCCCC3)n1)C2 (protonated)
c1ccc2c(c1)CCN(c1nc(N3CCCCC3)[nH]c(=[NH+]C3CCC3)n1)C2 (tautomer)
c1ccc2c(c1)CCN(c1nc(N3CCCCC3)[nH]/c(=[NH+]/C3CCC3)n1)C2 (cis-trans isomerization)
c1ccc2c(c1)CCN(c1nc(N3CCCCC3)[nH]/c(=[NH+]/C3CCC3)n1)C2 (3D coordinates assigned)
c1ccc2c(c1)CCN(c1nc(N3CCCCC3)[nH]/c(=[NH+]/C3CCC3)n1)C2 (nonaromatic ring conformer: 125.37893925514972 kcal/mol)

>  <smiles>  (53) 
c1ccc2c(c1)CCN(c1nc(NC3CCC3)nc(N3CCCCC3)n1)C2

>  <score_type>  (53) 
oracle

>  <origin>  (53) 
autodockgpu

>  <m_score__min__energy>  (53) 
-8.3200000000000003

>  <m_primary>  (53) 
energy

>  <meeko>  (53) 
{"free_energy": -7.52, "intermolecular_energy": -8.71, "internal_energy": -0.58, "cluster_size": 20, "cluster_id": 1, "rank_in_cluster": 20}

>  <energy>  (53) 
-8.3

>  <cluster_rmsd>  (53) 
0.07

>  <rmsd>  (53) 
270.98

>  <cluster>  (53) 
1

$$$$
JGFXCGHACWUNAV-PBFIRHMANA-O
     RDKit          3D

 56 60  0  0  0  0  0  0  0  0999 V2000
  141.1237   68.6263  228.3465 H   0  0  0  0  0  0  0  0  0  0  0  0
  140.7220   68.7730  227.3330 C   0  0  0  0  0  0  0  0  0  0  0  0
  140.0860   67.7200  226.6770 C   0  0  0  0  0  0  0  0  0  0  0  0
  139.9920   66.7417  227.1710 H   0  0  0  0  0  0  0  0  0  0  0  0
  139.5680   67.9060  225.3930 C   0  0  0  0  0  0  0  0  0  0  0  0
  139.0734   67.0696  224.8774 H   0  0  0  0  0  0  0  0  0  0  0  0
  139.6740   69.1520  224.7560 C   0  0  0  0  0  0  0  0  0  0  0  0
  140.3430   70.2140  225.4100 C   0  0  0  0  0  0  0  0  0  0  0  0
  140.8500   70.0160  226.7040 C   0  0  0  0  0  0  0  0  0  0  0  0
  141.3513   70.8438  227.2269 H   0  0  0  0  0  0  0  0  0  0  0  0
  140.4960   71.5740  224.7680 C   0  0  0  0  0  0  0  0  0  0  0  0
  141.5529   71.8744  224.8196 H   0  0  0  0  0  0  0  0  0  0  0  0
  139.8547   72.2819  225.3135 H   0  0  0  0  0  0  0  0  0  0  0  0
  140.0720   71.5680  223.3600 N   0  0  0  0  0  0  0  0  0  0  0  0
  140.6860   72.4590  222.4080 C   0  0  0  0  0  0  0  0  0  0  0  0
  140.3170   73.7640  222.3490 N   0  0  0  0  0  0  0  0  0  0  0  0
  140.9010   74.6140  221.4660 C   0  0  0  0  0  0  0  0  0  0  0  0
  140.4980   75.9970  221.4390 N   0  0  0  0  0  0  0  0  0  0  0  0
  141.1340   76.9630  220.5310 C   0  0  0  0  0  0  0  0  0  0  0  0
  142.0224   76.5009  220.0757 H   0  0  0  0  0  0  0  0  0  0  0  0
  140.4117   77.2465  219.7513 H   0  0  0  0  0  0  0  0  0  0  0  0
  141.5580   78.2260  221.2980 C   0  0  0  0  0  0  0  0  0  0  0  0
  142.5575   78.0558  221.7247 H   0  0  0  0  0  0  0  0  0  0  0  0
  141.5487   79.0600  220.5808 H   0  0  0  0  0  0  0  0  0  0  0  0
  140.5930   78.6000  222.4450 C   0  0  0  0  0  0  0  0  0  0  0  0
  141.0301   78.2661  223.3976 H   0  0  0  0  0  0  0  0  0  0  0  0
  140.4554   79.6912  222.4255 H   0  0  0  0  0  0  0  0  0  0  0  0
  139.2120   77.9510  222.2820 C   0  0  0  0  0  0  0  0  0  0  0  0
  138.5712   78.2425  223.1272 H   0  0  0  0  0  0  0  0  0  0  0  0
  138.7638   78.2917  221.3370 H   0  0  0  0  0  0  0  0  0  0  0  0
  139.3470   76.4210  222.2510 C   0  0  0  0  0  0  0  0  0  0  0  0
  139.4801   76.0532  223.2791 H   0  0  0  0  0  0  0  0  0  0  0  0
  138.4346   76.0034  221.8004 H   0  0  0  0  0  0  0  0  0  0  0  0
  141.8950   74.1570  220.6510 N   0  0  0  0  0  0  0  0  0  0  0  0
  142.3940   74.8180  220.0140 H   0  0  0  0  0  0  0  0  0  0  0  0
  142.2750   72.8480  220.7000 C   0  0  0  0  0  0  0  0  0  0  0  0
  143.2270   72.4080  219.9230 N   0  0  0  0  0  0  0  0  0  0  0  0
  143.1100   71.4790  219.4570 H   0  0  0  0  0  0  0  0  0  0  0  0
  144.4750   73.1570  219.7030 C   0  0  0  0  0  0  0  0  0  0  0  0
  144.3251   73.5049  218.6703 H   0  0  0  0  0  0  0  0  0  0  0  0
  144.7830   74.1590  220.8160 C   0  0  0  0  0  0  0  0  0  0  0  0
  144.9999   75.1762  220.4578 H   0  0  0  0  0  0  0  0  0  0  0  0
  144.0235   74.4021  221.5736 H   0  0  0  0  0  0  0  0  0  0  0  0
  146.0200   73.3550  221.1930 C   0  0  0  0  0  0  0  0  0  0  0  0
  146.9666   73.8977  221.0535 H   0  0  0  0  0  0  0  0  0  0  0  0
  146.1648   73.0139  222.2287 H   0  0  0  0  0  0  0  0  0  0  0  0
  145.7130   72.3510  220.0910 C   0  0  0  0  0  0  0  0  0  0  0  0
  146.4800   72.2990  219.3042 H   0  0  0  0  0  0  0  0  0  0  0  0
  145.6298   71.2787  220.3217 H   0  0  0  0  0  0  0  0  0  0  0  0
  141.6620   72.0090  221.5790 N   0  0  0  0  0  0  0  0  0  0  0  0
  138.8980   70.7650  223.0010 C   0  0  0  0  0  0  0  0  0  0  0  0
  138.7054   70.8580  221.9220 H   0  0  0  0  0  0  0  0  0  0  0  0
  138.0215   71.1238  223.5605 H   0  0  0  0  0  0  0  0  0  0  0  0
  139.1610   69.3040  223.3470 C   0  0  0  0  0  0  0  0  0  0  0  0
  139.9095   68.9009  222.6490 H   0  0  0  0  0  0  0  0  0  0  0  0
  138.2117   68.7544  223.2649 H   0  0  0  0  0  0  0  0  0  0  0  0
  1  2  1  0
  2  3  2  0
  3  4  1  0
  3  5  1  0
  5  6  1  0
  5  7  2  0
  7  8  1  0
  8  9  2  0
  9 10  1  0
  8 11  1  0
 11 12  1  0
 11 13  1  0
 11 14  1  0
 14 15  1  0
 15 16  1  0
 16 17  2  0
 17 18  1  0
 18 19  1  0
 19 20  1  0
 19 21  1  0
 19 22  1  0
 22 23  1  0
 22 24  1  0
 22 25  1  0
 25 26  1  0
 25 27  1  0
 25 28  1  0
 28 29  1  0
 28 30  1  0
 28 31  1  0
 31 32  1  0
 31 33  1  0
 17 34  1  0
 34 35  1  0
 34 36  1  0
 36 37  2  0
 37 38  1  0
 37 39  1  0
 39 40  1  0
 39 41  1  0
 41 42  1  0
 41 43  1  0
 41 44  1  0
 44 45  1  0
 44 46  1  0
 44 47  1  0
 47 48  1  0
 47 49  1  0
 36 50  1  0
 14 51  1  0
 51 52  1  0
 51 53  1  0
 51 54  1  0
 54 55  1  0
 54 56  1  0
  9  2  1  0
 50 15  2  0
 54  7  1  0
 31 18  1  0
 47 39  1  0
M  CHG  1  37   1
M  END
>  <UniqueID>  (54) 
485

>  <SMILES>  (54) 
c1ccc2c(c1)CCN(c1nc(N3CCCCC3)[nH]/c(=[NH+]/C3CCC3)n1)C2

>  <Energy>  (54) 
125.37893925514972

>  <Genealogy>  (54) 
c1ccc2c(c1)CCN(c1nc([NH2+]C3CCC3)nc(N3CCCCC3)n1)C2 (protonated)
c1ccc2c(c1)CCN(c1nc(N3CCCCC3)[nH]c(=[NH+]C3CCC3)n1)C2 (tautomer)
c1ccc2c(c1)CCN(c1nc(N3CCCCC3)[nH]/c(=[NH+]/C3CCC3)n1)C2 (cis-trans isomerization)
c1ccc2c(c1)CCN(c1nc(N3CCCCC3)[nH]/c(=[NH+]/C3CCC3)n1)C2 (3D coordinates assigned)
c1ccc2c(c1)CCN(c1nc(N3CCCCC3)[nH]/c(=[NH+]/C3CCC3)n1)C2 (nonaromatic ring conformer: 125.37893925514972 kcal/mol)

>  <smiles>  (54) 
c1ccc2c(c1)CCN(c1nc(NC3CCC3)nc(N3CCCCC3)n1)C2

>  <score_type>  (54) 
oracle

>  <origin>  (54) 
autodockgpu

>  <m_score__min__energy>  (54) 
-8.3200000000000003

>  <m_primary>  (54) 
energy

>  <meeko>  (54) 
{"free_energy": -8.3, "intermolecular_energy": -9.5, "internal_energy": -0.44, "cluster_size": 20, "cluster_id": 1, "rank_in_cluster": 9}

>  <energy>  (54) 
-8.3

>  <cluster_rmsd>  (54) 
0.19

>  <rmsd>  (54) 
270.97

>  <cluster>  (54) 
1

$$$$
JGFXCGHACWUNAV-PBFIRHMANA-O
     RDKit          3D

 56 60  0  0  0  0  0  0  0  0999 V2000
  141.0605   68.6823  228.3653 H   0  0  0  0  0  0  0  0  0  0  0  0
  140.6740   68.8150  227.3440 C   0  0  0  0  0  0  0  0  0  0  0  0
  140.0670   67.7470  226.6850 C   0  0  0  0  0  0  0  0  0  0  0  0
  139.9792   66.7711  227.1850 H   0  0  0  0  0  0  0  0  0  0  0  0
  139.5700   67.9150  225.3900 C   0  0  0  0  0  0  0  0  0  0  0  0
  139.1006   67.0661  224.8713 H   0  0  0  0  0  0  0  0  0  0  0  0
  139.6650   69.1580  224.7460 C   0  0  0  0  0  0  0  0  0  0  0  0
  140.3050   70.2360  225.4040 C   0  0  0  0  0  0  0  0  0  0  0  0
  140.7920   70.0550  226.7080 C   0  0  0  0  0  0  0  0  0  0  0  0
  141.2701   70.8948  227.2336 H   0  0  0  0  0  0  0  0  0  0  0  0
  140.4470   71.5940  224.7540 C   0  0  0  0  0  0  0  0  0  0  0  0
  141.4979   71.9120  224.8210 H   0  0  0  0  0  0  0  0  0  0  0  0
  139.7854   72.2957  225.2831 H   0  0  0  0  0  0  0  0  0  0  0  0
  140.0470   71.5700  223.3390 N   0  0  0  0  0  0  0  0  0  0  0  0
  140.6630   72.4640  222.3910 C   0  0  0  0  0  0  0  0  0  0  0  0
  140.3080   73.7740  222.3500 N   0  0  0  0  0  0  0  0  0  0  0  0
  140.8940   74.6270  221.4710 C   0  0  0  0  0  0  0  0  0  0  0  0
  140.5060   76.0150  221.4630 N   0  0  0  0  0  0  0  0  0  0  0  0
  141.1450   76.9830  220.5600 C   0  0  0  0  0  0  0  0  0  0  0  0
  142.0241   76.5156  220.0923 H   0  0  0  0  0  0  0  0  0  0  0  0
  140.4192   77.2829  219.7898 H   0  0  0  0  0  0  0  0  0  0  0  0
  141.5900   78.2330  221.3360 C   0  0  0  0  0  0  0  0  0  0  0  0
  142.5914   78.0474  221.7517 H   0  0  0  0  0  0  0  0  0  0  0  0
  141.5838   79.0747  220.6278 H   0  0  0  0  0  0  0  0  0  0  0  0
  140.6390   78.6050  222.4960 C   0  0  0  0  0  0  0  0  0  0  0  0
  141.0808   78.2560  223.4410 H   0  0  0  0  0  0  0  0  0  0  0  0
  140.5132   79.6978  222.4899 H   0  0  0  0  0  0  0  0  0  0  0  0
  139.2510   77.9730  222.3380 C   0  0  0  0  0  0  0  0  0  0  0  0
  138.6205   78.2629  223.1915 H   0  0  0  0  0  0  0  0  0  0  0  0
  138.7998   78.3282  221.3998 H   0  0  0  0  0  0  0  0  0  0  0  0
  139.3670   76.4430  222.2900 C   0  0  0  0  0  0  0  0  0  0  0  0
  139.5049   76.0626  223.3129 H   0  0  0  0  0  0  0  0  0  0  0  0
  138.4456   76.0406  221.8438 H   0  0  0  0  0  0  0  0  0  0  0  0
  141.8750   74.1680  220.6430 N   0  0  0  0  0  0  0  0  0  0  0  0
  142.3770   74.8300  220.0080 H   0  0  0  0  0  0  0  0  0  0  0  0
  142.2410   72.8540  220.6740 C   0  0  0  0  0  0  0  0  0  0  0  0
  143.1820   72.4120  219.8830 N   0  0  0  0  0  0  0  0  0  0  0  0
  143.0400   71.5000  219.3910 H   0  0  0  0  0  0  0  0  0  0  0  0
  144.4480   73.1340  219.6850 C   0  0  0  0  0  0  0  0  0  0  0  0
  144.3188   73.4907  218.6525 H   0  0  0  0  0  0  0  0  0  0  0  0
  144.7640   74.1230  220.8080 C   0  0  0  0  0  0  0  0  0  0  0  0
  145.0082   75.1370  220.4586 H   0  0  0  0  0  0  0  0  0  0  0  0
  144.0004   74.3790  221.5573 H   0  0  0  0  0  0  0  0  0  0  0  0
  145.9780   73.2890  221.1960 C   0  0  0  0  0  0  0  0  0  0  0  0
  146.9382   73.8113  221.0722 H   0  0  0  0  0  0  0  0  0  0  0  0
  146.1012   72.9387  222.2314 H   0  0  0  0  0  0  0  0  0  0  0  0
  145.6640   72.2990  220.0850 C   0  0  0  0  0  0  0  0  0  0  0  0
  146.4400   72.2349  219.3080 H   0  0  0  0  0  0  0  0  0  0  0  0
  145.5546   71.2275  220.3085 H   0  0  0  0  0  0  0  0  0  0  0  0
  141.6270   72.0130  221.5490 N   0  0  0  0  0  0  0  0  0  0  0  0
  138.8940   70.7450  222.9660 C   0  0  0  0  0  0  0  0  0  0  0  0
  138.7186   70.8273  221.8832 H   0  0  0  0  0  0  0  0  0  0  0  0
  138.0023   71.0927  223.5081 H   0  0  0  0  0  0  0  0  0  0  0  0
  139.1750   69.2900  223.3270 C   0  0  0  0  0  0  0  0  0  0  0  0
  139.9425   68.8944  222.6455 H   0  0  0  0  0  0  0  0  0  0  0  0
  138.2371   68.7233  223.2315 H   0  0  0  0  0  0  0  0  0  0  0  0
  1  2  1  0
  2  3  2  0
  3  4  1  0
  3  5  1  0
  5  6  1  0
  5  7  2  0
  7  8  1  0
  8  9  2  0
  9 10  1  0
  8 11  1  0
 11 12  1  0
 11 13  1  0
 11 14  1  0
 14 15  1  0
 15 16  1  0
 16 17  2  0
 17 18  1  0
 18 19  1  0
 19 20  1  0
 19 21  1  0
 19 22  1  0
 22 23  1  0
 22 24  1  0
 22 25  1  0
 25 26  1  0
 25 27  1  0
 25 28  1  0
 28 29  1  0
 28 30  1  0
 28 31  1  0
 31 32  1  0
 31 33  1  0
 17 34  1  0
 34 35  1  0
 34 36  1  0
 36 37  2  0
 37 38  1  0
 37 39  1  0
 39 40  1  0
 39 41  1  0
 41 42  1  0
 41 43  1  0
 41 44  1  0
 44 45  1  0
 44 46  1  0
 44 47  1  0
 47 48  1  0
 47 49  1  0
 36 50  1  0
 14 51  1  0
 51 52  1  0
 51 53  1  0
 51 54  1  0
 54 55  1  0
 54 56  1  0
  9  2  1  0
 50 15  2  0
 54  7  1  0
 31 18  1  0
 47 39  1  0
M  CHG  1  37   1
M  END
>  <UniqueID>  (55) 
485

>  <SMILES>  (55) 
c1ccc2c(c1)CCN(c1nc(N3CCCCC3)[nH]/c(=[NH+]/C3CCC3)n1)C2

>  <Energy>  (55) 
125.37893925514972

>  <Genealogy>  (55) 
c1ccc2c(c1)CCN(c1nc([NH2+]C3CCC3)nc(N3CCCCC3)n1)C2 (protonated)
c1ccc2c(c1)CCN(c1nc(N3CCCCC3)[nH]c(=[NH+]C3CCC3)n1)C2 (tautomer)
c1ccc2c(c1)CCN(c1nc(N3CCCCC3)[nH]/c(=[NH+]/C3CCC3)n1)C2 (cis-trans isomerization)
c1ccc2c(c1)CCN(c1nc(N3CCCCC3)[nH]/c(=[NH+]/C3CCC3)n1)C2 (3D coordinates assigned)
c1ccc2c(c1)CCN(c1nc(N3CCCCC3)[nH]/c(=[NH+]/C3CCC3)n1)C2 (nonaromatic ring conformer: 125.37893925514972 kcal/mol)

>  <smiles>  (55) 
c1ccc2c(c1)CCN(c1nc(NC3CCC3)nc(N3CCCCC3)n1)C2

>  <score_type>  (55) 
oracle

>  <origin>  (55) 
autodockgpu

>  <m_score__min__energy>  (55) 
-8.3200000000000003

>  <m_primary>  (55) 
energy

>  <meeko>  (55) 
{"free_energy": -8.3, "intermolecular_energy": -9.49, "internal_energy": -0.45, "cluster_size": 20, "cluster_id": 1, "rank_in_cluster": 12}

>  <energy>  (55) 
-8.29

>  <cluster_rmsd>  (55) 
0.1

>  <rmsd>  (55) 
270.97

>  <cluster>  (55) 
1

$$$$
JGFXCGHACWUNAV-PBFIRHMANA-O
     RDKit          3D

 56 60  0  0  0  0  0  0  0  0999 V2000
  141.5465   68.2401  228.0457 H   0  0  0  0  0  0  0  0  0  0  0  0
  141.0030   68.4840  227.1210 C   0  0  0  0  0  0  0  0  0  0  0  0
  140.2630   67.5000  226.4680 C   0  0  0  0  0  0  0  0  0  0  0  0
  140.2282   66.4787  226.8751 H   0  0  0  0  0  0  0  0  0  0  0  0
  139.5650   67.8080  225.2970 C   0  0  0  0  0  0  0  0  0  0  0  0
  138.9892   67.0249  224.7820 H   0  0  0  0  0  0  0  0  0  0  0  0
  139.5940   69.1100  224.7740 C   0  0  0  0  0  0  0  0  0  0  0  0
  140.3670   70.1040  225.4210 C   0  0  0  0  0  0  0  0  0  0  0  0
  141.0550   69.7820  226.6010 C   0  0  0  0  0  0  0  0  0  0  0  0
  141.6393   70.5555  227.1208 H   0  0  0  0  0  0  0  0  0  0  0  0
  140.4440   71.5200  224.8950 C   0  0  0  0  0  0  0  0  0  0  0  0
  141.5013   71.8135  224.8180 H   0  0  0  0  0  0  0  0  0  0  0  0
  139.9005   72.1728  225.5939 H   0  0  0  0  0  0  0  0  0  0  0  0
  139.8180   71.6490  223.5720 N   0  0  0  0  0  0  0  0  0  0  0  0
  140.2980   72.6280  222.6280 C   0  0  0  0  0  0  0  0  0  0  0  0
  141.4430   72.4070  221.9330 N   0  0  0  0  0  0  0  0  0  0  0  0
  141.8960   73.3160  221.0310 C   0  0  0  0  0  0  0  0  0  0  0  0
  143.1060   73.0460  220.2970 N   0  0  0  0  0  0  0  0  0  0  0  0
  143.1880   71.9390  219.3330 C   0  0  0  0  0  0  0  0  0  0  0  0
  142.2936   71.3063  219.4321 H   0  0  0  0  0  0  0  0  0  0  0  0
  143.2477   72.3569  218.3172 H   0  0  0  0  0  0  0  0  0  0  0  0
  144.4410   71.0870  219.5930 C   0  0  0  0  0  0  0  0  0  0  0  0
  144.1971   70.3308  220.3537 H   0  0  0  0  0  0  0  0  0  0  0  0
  144.7303   70.6327  218.6339 H   0  0  0  0  0  0  0  0  0  0  0  0
  145.6490   71.9110  220.0910 C   0  0  0  0  0  0  0  0  0  0  0  0
  145.7345   71.7891  221.1809 H   0  0  0  0  0  0  0  0  0  0  0  0
  146.5449   71.5395  219.5721 H   0  0  0  0  0  0  0  0  0  0  0  0
  145.5100   73.4050  219.7720 C   0  0  0  0  0  0  0  0  0  0  0  0
  146.3897   73.9421  220.1563 H   0  0  0  0  0  0  0  0  0  0  0  0
  145.4380   73.5344  218.6820 H   0  0  0  0  0  0  0  0  0  0  0  0
  144.2430   73.9710  220.4290 C   0  0  0  0  0  0  0  0  0  0  0  0
  144.4411   74.1433  221.4972 H   0  0  0  0  0  0  0  0  0  0  0  0
  143.9826   74.9116  219.9215 H   0  0  0  0  0  0  0  0  0  0  0  0
  141.1720   74.4480  220.7970 N   0  0  0  0  0  0  0  0  0  0  0  0
  141.4780   75.1220  220.0590 H   0  0  0  0  0  0  0  0  0  0  0  0
  140.0200   74.6810  221.4900 C   0  0  0  0  0  0  0  0  0  0  0  0
  139.3240   75.7630  221.2670 N   0  0  0  0  0  0  0  0  0  0  0  0
  138.5720   75.7380  220.5400 H   0  0  0  0  0  0  0  0  0  0  0  0
  139.5800   77.0260  221.9770 C   0  0  0  0  0  0  0  0  0  0  0  0
  138.6456   77.1319  222.5477 H   0  0  0  0  0  0  0  0  0  0  0  0
  140.9280   77.0530  222.6960 C   0  0  0  0  0  0  0  0  0  0  0  0
  140.8676   77.3498  223.7535 H   0  0  0  0  0  0  0  0  0  0  0  0
  141.5181   76.1317  222.8098 H   0  0  0  0  0  0  0  0  0  0  0  0
  141.3990   78.1620  221.7640 C   0  0  0  0  0  0  0  0  0  0  0  0
  141.6129   79.1137  222.2724 H   0  0  0  0  0  0  0  0  0  0  0  0
  142.3365   78.0507  221.1995 H   0  0  0  0  0  0  0  0  0  0  0  0
  140.0610   78.1330  221.0410 C   0  0  0  0  0  0  0  0  0  0  0  0
  139.4876   79.0684  221.1196 H   0  0  0  0  0  0  0  0  0  0  0  0
  140.0202   77.9969  219.9502 H   0  0  0  0  0  0  0  0  0  0  0  0
  139.5960   73.7670  222.4030 N   0  0  0  0  0  0  0  0  0  0  0  0
  138.5930   70.8850  223.3140 C   0  0  0  0  0  0  0  0  0  0  0  0
  138.2465   71.0816  222.2887 H   0  0  0  0  0  0  0  0  0  0  0  0
  137.8125   71.1885  224.0273 H   0  0  0  0  0  0  0  0  0  0  0  0
  138.8830   69.3970  223.4770 C   0  0  0  0  0  0  0  0  0  0  0  0
  139.5156   69.0628  222.6414 H   0  0  0  0  0  0  0  0  0  0  0  0
  137.9241   68.8580  223.4834 H   0  0  0  0  0  0  0  0  0  0  0  0
  1  2  1  0
  2  3  2  0
  3  4  1  0
  3  5  1  0
  5  6  1  0
  5  7  2  0
  7  8  1  0
  8  9  2  0
  9 10  1  0
  8 11  1  0
 11 12  1  0
 11 13  1  0
 11 14  1  0
 14 15  1  0
 15 16  1  0
 16 17  2  0
 17 18  1  0
 18 19  1  0
 19 20  1  0
 19 21  1  0
 19 22  1  0
 22 23  1  0
 22 24  1  0
 22 25  1  0
 25 26  1  0
 25 27  1  0
 25 28  1  0
 28 29  1  0
 28 30  1  0
 28 31  1  0
 31 32  1  0
 31 33  1  0
 17 34  1  0
 34 35  1  0
 34 36  1  0
 36 37  2  0
 37 38  1  0
 37 39  1  0
 39 40  1  0
 39 41  1  0
 41 42  1  0
 41 43  1  0
 41 44  1  0
 44 45  1  0
 44 46  1  0
 44 47  1  0
 47 48  1  0
 47 49  1  0
 36 50  1  0
 14 51  1  0
 51 52  1  0
 51 53  1  0
 51 54  1  0
 54 55  1  0
 54 56  1  0
  9  2  1  0
 50 15  2  0
 54  7  1  0
 31 18  1  0
 47 39  1  0
M  CHG  1  37   1
M  END
>  <UniqueID>  (56) 
485

>  <SMILES>  (56) 
c1ccc2c(c1)CCN(c1nc(N3CCCCC3)[nH]/c(=[NH+]/C3CCC3)n1)C2

>  <Energy>  (56) 
125.37893925514972

>  <Genealogy>  (56) 
c1ccc2c(c1)CCN(c1nc([NH2+]C3CCC3)nc(N3CCCCC3)n1)C2 (protonated)
c1ccc2c(c1)CCN(c1nc(N3CCCCC3)[nH]c(=[NH+]C3CCC3)n1)C2 (tautomer)
c1ccc2c(c1)CCN(c1nc(N3CCCCC3)[nH]/c(=[NH+]/C3CCC3)n1)C2 (cis-trans isomerization)
c1ccc2c(c1)CCN(c1nc(N3CCCCC3)[nH]/c(=[NH+]/C3CCC3)n1)C2 (3D coordinates assigned)
c1ccc2c(c1)CCN(c1nc(N3CCCCC3)[nH]/c(=[NH+]/C3CCC3)n1)C2 (nonaromatic ring conformer: 125.37893925514972 kcal/mol)

>  <smiles>  (56) 
c1ccc2c(c1)CCN(c1nc(NC3CCC3)nc(N3CCCCC3)n1)C2

>  <score_type>  (56) 
oracle

>  <origin>  (56) 
autodockgpu

>  <m_score__min__energy>  (56) 
-8.3200000000000003

>  <m_primary>  (56) 
energy

>  <meeko>  (56) 
{"free_energy": -7.56, "intermolecular_energy": -8.75, "internal_energy": -0.56, "cluster_size": 20, "cluster_id": 1, "rank_in_cluster": 19}

>  <energy>  (56) 
-8.29

>  <cluster_rmsd>  (56) 
0.18

>  <rmsd>  (56) 
270.96

>  <cluster>  (56) 
1

$$$$
JGFXCGHACWUNAV-PBFIRHMANA-O
     RDKit          3D

 56 60  0  0  0  0  0  0  0  0999 V2000
  140.9436   68.7853  228.3550 H   0  0  0  0  0  0  0  0  0  0  0  0
  140.5840   68.9100  227.3230 C   0  0  0  0  0  0  0  0  0  0  0  0
  140.0110   67.8320  226.6500 C   0  0  0  0  0  0  0  0  0  0  0  0
  139.9248   66.8559  227.1498 H   0  0  0  0  0  0  0  0  0  0  0  0
  139.5460   67.9890  225.3420 C   0  0  0  0  0  0  0  0  0  0  0  0
  139.1015   67.1325  224.8139 H   0  0  0  0  0  0  0  0  0  0  0  0
  139.6420   69.2320  224.6970 C   0  0  0  0  0  0  0  0  0  0  0  0
  140.2480   70.3210  225.3700 C   0  0  0  0  0  0  0  0  0  0  0  0
  140.7020   70.1500  226.6870 C   0  0  0  0  0  0  0  0  0  0  0  0
  141.1540   70.9976  227.2230 H   0  0  0  0  0  0  0  0  0  0  0  0
  140.3880   71.6790  224.7200 C   0  0  0  0  0  0  0  0  0  0  0  0
  141.4320   72.0123  224.8145 H   0  0  0  0  0  0  0  0  0  0  0  0
  139.7021   72.3722  225.2289 H   0  0  0  0  0  0  0  0  0  0  0  0
  140.0270   71.6460  223.2950 N   0  0  0  0  0  0  0  0  0  0  0  0
  140.6560   72.5470  222.3620 C   0  0  0  0  0  0  0  0  0  0  0  0
  140.3230   73.8630  222.3460 N   0  0  0  0  0  0  0  0  0  0  0  0
  140.9210   74.7220  221.4810 C   0  0  0  0  0  0  0  0  0  0  0  0
  140.5570   76.1160  221.4990 N   0  0  0  0  0  0  0  0  0  0  0  0
  141.2280   77.0950  220.6310 C   0  0  0  0  0  0  0  0  0  0  0  0
  142.1073   76.6241  220.1672 H   0  0  0  0  0  0  0  0  0  0  0  0
  140.5206   77.4258  219.8563 H   0  0  0  0  0  0  0  0  0  0  0  0
  141.6800   78.3180  221.4440 C   0  0  0  0  0  0  0  0  0  0  0  0
  142.6702   78.1052  221.8732 H   0  0  0  0  0  0  0  0  0  0  0  0
  141.7016   79.1761  220.7561 H   0  0  0  0  0  0  0  0  0  0  0  0
  140.7140   78.6790  222.5950 C   0  0  0  0  0  0  0  0  0  0  0  0
  141.1326   78.3006  223.5393 H   0  0  0  0  0  0  0  0  0  0  0  0
  140.6065   79.7736  222.6117 H   0  0  0  0  0  0  0  0  0  0  0  0
  139.3180   78.0750  222.3980 C   0  0  0  0  0  0  0  0  0  0  0  0
  138.6775   78.3549  223.2474 H   0  0  0  0  0  0  0  0  0  0  0  0
  138.8883   78.4604  221.4616 H   0  0  0  0  0  0  0  0  0  0  0  0
  139.4110   76.5440  222.3150 C   0  0  0  0  0  0  0  0  0  0  0  0
  139.5241   76.1374  223.3308 H   0  0  0  0  0  0  0  0  0  0  0  0
  138.4917   76.1680  221.8422 H   0  0  0  0  0  0  0  0  0  0  0  0
  141.8930   74.2620  220.6420 N   0  0  0  0  0  0  0  0  0  0  0  0
  142.4040   74.9270  220.0180 H   0  0  0  0  0  0  0  0  0  0  0  0
  142.2370   72.9420  220.6480 C   0  0  0  0  0  0  0  0  0  0  0  0
  143.1680   72.4990  219.8470 N   0  0  0  0  0  0  0  0  0  0  0  0
  142.9990   71.6130  219.3170 H   0  0  0  0  0  0  0  0  0  0  0  0
  144.4610   73.1820  219.6880 C   0  0  0  0  0  0  0  0  0  0  0  0
  144.3655   73.5600  218.6594 H   0  0  0  0  0  0  0  0  0  0  0  0
  144.7850   74.1410  220.8340 C   0  0  0  0  0  0  0  0  0  0  0  0
  145.0695   75.1521  220.5072 H   0  0  0  0  0  0  0  0  0  0  0  0
  144.0142   74.4094  221.5714 H   0  0  0  0  0  0  0  0  0  0  0  0
  145.9620   73.2620  221.2330 C   0  0  0  0  0  0  0  0  0  0  0  0
  146.9410   73.7545  221.1386 H   0  0  0  0  0  0  0  0  0  0  0  0
  146.0514   72.8907  222.2646 H   0  0  0  0  0  0  0  0  0  0  0  0
  145.6400   72.3010  220.0980 C   0  0  0  0  0  0  0  0  0  0  0  0
  146.4299   72.2246  219.3363 H   0  0  0  0  0  0  0  0  0  0  0  0
  145.4913   71.2300  220.3001 H   0  0  0  0  0  0  0  0  0  0  0  0
  141.6100   72.0950  221.5090 N   0  0  0  0  0  0  0  0  0  0  0  0
  138.8960   70.8040  222.8930 C   0  0  0  0  0  0  0  0  0  0  0  0
  138.7484   70.8817  221.8057 H   0  0  0  0  0  0  0  0  0  0  0  0
  137.9849   71.1399  223.4098 H   0  0  0  0  0  0  0  0  0  0  0  0
  139.1890   69.3540  223.2650 C   0  0  0  0  0  0  0  0  0  0  0  0
  139.9807   68.9688  222.6056 H   0  0  0  0  0  0  0  0  0  0  0  0
  138.2626   68.7730  223.1454 H   0  0  0  0  0  0  0  0  0  0  0  0
  1  2  1  0
  2  3  2  0
  3  4  1  0
  3  5  1  0
  5  6  1  0
  5  7  2  0
  7  8  1  0
  8  9  2  0
  9 10  1  0
  8 11  1  0
 11 12  1  0
 11 13  1  0
 11 14  1  0
 14 15  1  0
 15 16  1  0
 16 17  2  0
 17 18  1  0
 18 19  1  0
 19 20  1  0
 19 21  1  0
 19 22  1  0
 22 23  1  0
 22 24  1  0
 22 25  1  0
 25 26  1  0
 25 27  1  0
 25 28  1  0
 28 29  1  0
 28 30  1  0
 28 31  1  0
 31 32  1  0
 31 33  1  0
 17 34  1  0
 34 35  1  0
 34 36  1  0
 36 37  2  0
 37 38  1  0
 37 39  1  0
 39 40  1  0
 39 41  1  0
 41 42  1  0
 41 43  1  0
 41 44  1  0
 44 45  1  0
 44 46  1  0
 44 47  1  0
 47 48  1  0
 47 49  1  0
 36 50  1  0
 14 51  1  0
 51 52  1  0
 51 53  1  0
 51 54  1  0
 54 55  1  0
 54 56  1  0
  9  2  1  0
 50 15  2  0
 54  7  1  0
 31 18  1  0
 47 39  1  0
M  CHG  1  37   1
M  END
>  <UniqueID>  (57) 
485

>  <SMILES>  (57) 
c1ccc2c(c1)CCN(c1nc(N3CCCCC3)[nH]/c(=[NH+]/C3CCC3)n1)C2

>  <Energy>  (57) 
125.37893925514972

>  <Genealogy>  (57) 
c1ccc2c(c1)CCN(c1nc([NH2+]C3CCC3)nc(N3CCCCC3)n1)C2 (protonated)
c1ccc2c(c1)CCN(c1nc(N3CCCCC3)[nH]c(=[NH+]C3CCC3)n1)C2 (tautomer)
c1ccc2c(c1)CCN(c1nc(N3CCCCC3)[nH]/c(=[NH+]/C3CCC3)n1)C2 (cis-trans isomerization)
c1ccc2c(c1)CCN(c1nc(N3CCCCC3)[nH]/c(=[NH+]/C3CCC3)n1)C2 (3D coordinates assigned)
c1ccc2c(c1)CCN(c1nc(N3CCCCC3)[nH]/c(=[NH+]/C3CCC3)n1)C2 (nonaromatic ring conformer: 125.37893925514972 kcal/mol)

>  <smiles>  (57) 
c1ccc2c(c1)CCN(c1nc(NC3CCC3)nc(N3CCCCC3)n1)C2

>  <score_type>  (57) 
oracle

>  <origin>  (57) 
autodockgpu

>  <m_score__min__energy>  (57) 
-8.3200000000000003

>  <m_primary>  (57) 
energy

>  <meeko>  (57) 
{"free_energy": -8.29, "intermolecular_energy": -9.48, "internal_energy": -0.46, "cluster_size": 20, "cluster_id": 1, "rank_in_cluster": 17}

>  <energy>  (57) 
-8.29

>  <cluster_rmsd>  (57) 
0.12

>  <rmsd>  (57) 
271.0

>  <cluster>  (57) 
1

$$$$
JGFXCGHACWUNAV-PBFIRHMANA-O
     RDKit          3D

 56 60  0  0  0  0  0  0  0  0999 V2000
  141.1488   68.5425  228.2606 H   0  0  0  0  0  0  0  0  0  0  0  0
  140.7270   68.7180  227.2600 C   0  0  0  0  0  0  0  0  0  0  0  0
  140.0430   67.6950  226.6030 C   0  0  0  0  0  0  0  0  0  0  0  0
  139.9301   66.7124  227.0843 H   0  0  0  0  0  0  0  0  0  0  0  0
  139.5010   67.9170  225.3340 C   0  0  0  0  0  0  0  0  0  0  0  0
  138.9704   67.1040  224.8168 H   0  0  0  0  0  0  0  0  0  0  0  0
  139.6290   69.1700  224.7150 C   0  0  0  0  0  0  0  0  0  0  0  0
  140.3450   70.2010  225.3690 C   0  0  0  0  0  0  0  0  0  0  0  0
  140.8770   69.9660  226.6480 C   0  0  0  0  0  0  0  0  0  0  0  0
  141.4154   70.7697  227.1716 H   0  0  0  0  0  0  0  0  0  0  0  0
  140.5240   71.5660  224.7450 C   0  0  0  0  0  0  0  0  0  0  0  0
  141.5907   71.8332  224.7745 H   0  0  0  0  0  0  0  0  0  0  0  0
  139.9188   72.2842  225.3177 H   0  0  0  0  0  0  0  0  0  0  0  0
  140.0650   71.5960  223.3480 N   0  0  0  0  0  0  0  0  0  0  0  0
  140.6830   72.4840  222.3950 C   0  0  0  0  0  0  0  0  0  0  0  0
  140.3280   73.7930  222.3440 N   0  0  0  0  0  0  0  0  0  0  0  0
  140.9150   74.6400  221.4610 C   0  0  0  0  0  0  0  0  0  0  0  0
  140.5280   76.0270  221.4420 N   0  0  0  0  0  0  0  0  0  0  0  0
  141.1550   76.9860  220.5200 C   0  0  0  0  0  0  0  0  0  0  0  0
  142.0284   76.5142  220.0462 H   0  0  0  0  0  0  0  0  0  0  0  0
  140.4192   77.2770  219.7559 H   0  0  0  0  0  0  0  0  0  0  0  0
  141.6090   78.2450  221.2770 C   0  0  0  0  0  0  0  0  0  0  0  0
  142.6155   78.0642  221.6823 H   0  0  0  0  0  0  0  0  0  0  0  0
  141.5933   79.0787  220.5595 H   0  0  0  0  0  0  0  0  0  0  0  0
  140.6730   78.6300  222.4440 C   0  0  0  0  0  0  0  0  0  0  0  0
  141.1268   78.2918  223.3873 H   0  0  0  0  0  0  0  0  0  0  0  0
  140.5469   79.7226  222.4267 H   0  0  0  0  0  0  0  0  0  0  0  0
  139.2820   77.9960  222.3110 C   0  0  0  0  0  0  0  0  0  0  0  0
  138.6627   78.2948  223.1696 H   0  0  0  0  0  0  0  0  0  0  0  0
  138.8177   78.3412  221.3754 H   0  0  0  0  0  0  0  0  0  0  0  0
  139.3990   76.4650  222.2780 C   0  0  0  0  0  0  0  0  0  0  0  0
  139.5496   76.0961  223.3033 H   0  0  0  0  0  0  0  0  0  0  0  0
  138.4726   76.0579  221.8467 H   0  0  0  0  0  0  0  0  0  0  0  0
  141.8990   74.1760  220.6380 N   0  0  0  0  0  0  0  0  0  0  0  0
  142.4020   74.8330  220.0000 H   0  0  0  0  0  0  0  0  0  0  0  0
  142.2650   72.8620  220.6790 C   0  0  0  0  0  0  0  0  0  0  0  0
  143.2080   72.4150  219.8940 N   0  0  0  0  0  0  0  0  0  0  0  0
  143.0700   71.4970  219.4120 H   0  0  0  0  0  0  0  0  0  0  0  0
  144.4710   73.1400  219.6880 C   0  0  0  0  0  0  0  0  0  0  0  0
  144.3361   73.4920  218.6546 H   0  0  0  0  0  0  0  0  0  0  0  0
  144.7890   74.1350  220.8040 C   0  0  0  0  0  0  0  0  0  0  0  0
  145.0293   75.1477  220.4482 H   0  0  0  0  0  0  0  0  0  0  0  0
  144.0276   74.3928  221.5549 H   0  0  0  0  0  0  0  0  0  0  0  0
  146.0060   73.3070  221.1920 C   0  0  0  0  0  0  0  0  0  0  0  0
  146.9642   73.8315  221.0626 H   0  0  0  0  0  0  0  0  0  0  0  0
  146.1336   72.9621  222.2287 H   0  0  0  0  0  0  0  0  0  0  0  0
  145.6910   72.3100  220.0860 C   0  0  0  0  0  0  0  0  0  0  0  0
  146.4640   72.2449  219.3061 H   0  0  0  0  0  0  0  0  0  0  0  0
  145.5862   71.2390  220.3142 H   0  0  0  0  0  0  0  0  0  0  0  0
  141.6490   72.0270  221.5580 N   0  0  0  0  0  0  0  0  0  0  0  0
  138.8600   70.8340  223.0050 C   0  0  0  0  0  0  0  0  0  0  0  0
  138.6450   70.9501  221.9325 H   0  0  0  0  0  0  0  0  0  0  0  0
  138.0081   71.2094  223.5910 H   0  0  0  0  0  0  0  0  0  0  0  0
  139.0870   69.3600  223.3220 C   0  0  0  0  0  0  0  0  0  0  0  0
  139.8058   68.9460  222.5996 H   0  0  0  0  0  0  0  0  0  0  0  0
  138.1198   68.8404  223.2550 H   0  0  0  0  0  0  0  0  0  0  0  0
  1  2  1  0
  2  3  2  0
  3  4  1  0
  3  5  1  0
  5  6  1  0
  5  7  2  0
  7  8  1  0
  8  9  2  0
  9 10  1  0
  8 11  1  0
 11 12  1  0
 11 13  1  0
 11 14  1  0
 14 15  1  0
 15 16  1  0
 16 17  2  0
 17 18  1  0
 18 19  1  0
 19 20  1  0
 19 21  1  0
 19 22  1  0
 22 23  1  0
 22 24  1  0
 22 25  1  0
 25 26  1  0
 25 27  1  0
 25 28  1  0
 28 29  1  0
 28 30  1  0
 28 31  1  0
 31 32  1  0
 31 33  1  0
 17 34  1  0
 34 35  1  0
 34 36  1  0
 36 37  2  0
 37 38  1  0
 37 39  1  0
 39 40  1  0
 39 41  1  0
 41 42  1  0
 41 43  1  0
 41 44  1  0
 44 45  1  0
 44 46  1  0
 44 47  1  0
 47 48  1  0
 47 49  1  0
 36 50  1  0
 14 51  1  0
 51 52  1  0
 51 53  1  0
 51 54  1  0
 54 55  1  0
 54 56  1  0
  9  2  1  0
 50 15  2  0
 54  7  1  0
 31 18  1  0
 47 39  1  0
M  CHG  1  37   1
M  END
>  <UniqueID>  (58) 
485

>  <SMILES>  (58) 
c1ccc2c(c1)CCN(c1nc(N3CCCCC3)[nH]/c(=[NH+]/C3CCC3)n1)C2

>  <Energy>  (58) 
125.37893925514972

>  <Genealogy>  (58) 
c1ccc2c(c1)CCN(c1nc([NH2+]C3CCC3)nc(N3CCCCC3)n1)C2 (protonated)
c1ccc2c(c1)CCN(c1nc(N3CCCCC3)[nH]c(=[NH+]C3CCC3)n1)C2 (tautomer)
c1ccc2c(c1)CCN(c1nc(N3CCCCC3)[nH]/c(=[NH+]/C3CCC3)n1)C2 (cis-trans isomerization)
c1ccc2c(c1)CCN(c1nc(N3CCCCC3)[nH]/c(=[NH+]/C3CCC3)n1)C2 (3D coordinates assigned)
c1ccc2c(c1)CCN(c1nc(N3CCCCC3)[nH]/c(=[NH+]/C3CCC3)n1)C2 (nonaromatic ring conformer: 125.37893925514972 kcal/mol)

>  <smiles>  (58) 
c1ccc2c(c1)CCN(c1nc(NC3CCC3)nc(N3CCCCC3)n1)C2

>  <score_type>  (58) 
oracle

>  <origin>  (58) 
autodockgpu

>  <m_score__min__energy>  (58) 
-8.3200000000000003

>  <m_primary>  (58) 
energy

>  <meeko>  (58) 
{"free_energy": -8.31, "intermolecular_energy": -9.5, "internal_energy": -0.45, "cluster_size": 20, "cluster_id": 1, "rank_in_cluster": 7}

>  <energy>  (58) 
-8.01

>  <cluster_rmsd>  (58) 
0.48

>  <rmsd>  (58) 
270.93

>  <cluster>  (58) 
1

$$$$
JGFXCGHACWUNAV-PBFIRHMANA-O
     RDKit          3D

 56 60  0  0  0  0  0  0  0  0999 V2000
  141.0812   68.6915  228.3336 H   0  0  0  0  0  0  0  0  0  0  0  0
  140.6900   68.8310  227.3150 C   0  0  0  0  0  0  0  0  0  0  0  0
  140.0740   67.7690  226.6540 C   0  0  0  0  0  0  0  0  0  0  0  0
  139.9841   66.7913  227.1500 H   0  0  0  0  0  0  0  0  0  0  0  0
  139.5710   67.9450  225.3630 C   0  0  0  0  0  0  0  0  0  0  0  0
  139.0938   67.1012  224.8432 H   0  0  0  0  0  0  0  0  0  0  0  0
  139.6700   69.1910  224.7240 C   0  0  0  0  0  0  0  0  0  0  0  0
  140.3180   70.2630  225.3830 C   0  0  0  0  0  0  0  0  0  0  0  0
  140.8110   70.0740  226.6840 C   0  0  0  0  0  0  0  0  0  0  0  0
  141.2958   70.9090  227.2110 H   0  0  0  0  0  0  0  0  0  0  0  0
  140.4630   71.6230  224.7390 C   0  0  0  0  0  0  0  0  0  0  0  0
  141.5156   71.9360  224.8023 H   0  0  0  0  0  0  0  0  0  0  0  0
  139.8074   72.3254  225.2746 H   0  0  0  0  0  0  0  0  0  0  0  0
  140.0560   71.6070  223.3260 N   0  0  0  0  0  0  0  0  0  0  0  0
  140.6720   72.5030  222.3790 C   0  0  0  0  0  0  0  0  0  0  0  0
  140.3230   73.8140  222.3450 N   0  0  0  0  0  0  0  0  0  0  0  0
  140.9080   74.6690  221.4670 C   0  0  0  0  0  0  0  0  0  0  0  0
  140.5270   76.0580  221.4660 N   0  0  0  0  0  0  0  0  0  0  0  0
  141.1710   77.0290  220.5700 C   0  0  0  0  0  0  0  0  0  0  0  0
  142.0488   76.5611  220.1003 H   0  0  0  0  0  0  0  0  0  0  0  0
  140.4476   77.3368  219.8006 H   0  0  0  0  0  0  0  0  0  0  0  0
  141.6200   78.2720  221.3550 C   0  0  0  0  0  0  0  0  0  0  0  0
  142.6195   78.0789  221.7717 H   0  0  0  0  0  0  0  0  0  0  0  0
  141.6188   79.1179  220.6519 H   0  0  0  0  0  0  0  0  0  0  0  0
  140.6690   78.6420  222.5150 C   0  0  0  0  0  0  0  0  0  0  0  0
  141.1075   78.2859  223.4589 H   0  0  0  0  0  0  0  0  0  0  0  0
  140.5482   79.7353  222.5147 H   0  0  0  0  0  0  0  0  0  0  0  0
  139.2780   78.0170  222.3510 C   0  0  0  0  0  0  0  0  0  0  0  0
  138.6477   78.3039  223.2056 H   0  0  0  0  0  0  0  0  0  0  0  0
  138.8293   78.3804  221.4147 H   0  0  0  0  0  0  0  0  0  0  0  0
  139.3880   76.4860  222.2930 C   0  0  0  0  0  0  0  0  0  0  0  0
  139.5218   76.0984  223.3137 H   0  0  0  0  0  0  0  0  0  0  0  0
  138.4661   76.0907  221.8416 H   0  0  0  0  0  0  0  0  0  0  0  0
  141.8840   74.2090  220.6320 N   0  0  0  0  0  0  0  0  0  0  0  0
  142.3850   74.8710  219.9980 H   0  0  0  0  0  0  0  0  0  0  0  0
  142.2440   72.8930  220.6560 C   0  0  0  0  0  0  0  0  0  0  0  0
  143.1790   72.4510  219.8590 N   0  0  0  0  0  0  0  0  0  0  0  0
  143.0230   71.5500  219.3500 H   0  0  0  0  0  0  0  0  0  0  0  0
  144.4580   73.1550  219.6770 C   0  0  0  0  0  0  0  0  0  0  0  0
  144.3467   73.5141  218.6432 H   0  0  0  0  0  0  0  0  0  0  0  0
  144.7740   74.1380  220.8040 C   0  0  0  0  0  0  0  0  0  0  0  0
  145.0366   75.1487  220.4583 H   0  0  0  0  0  0  0  0  0  0  0  0
  144.0047   74.4037  221.5439 H   0  0  0  0  0  0  0  0  0  0  0  0
  145.9710   73.2880  221.2070 C   0  0  0  0  0  0  0  0  0  0  0  0
  146.9398   73.7968  221.0953 H   0  0  0  0  0  0  0  0  0  0  0  0
  146.0771   72.9359  222.2437 H   0  0  0  0  0  0  0  0  0  0  0  0
  145.6560   72.3030  220.0910 C   0  0  0  0  0  0  0  0  0  0  0  0
  146.4404   72.2281  219.3235 H   0  0  0  0  0  0  0  0  0  0  0  0
  145.5283   71.2331  220.3124 H   0  0  0  0  0  0  0  0  0  0  0  0
  141.6300   72.0510  221.5300 N   0  0  0  0  0  0  0  0  0  0  0  0
  138.8970   70.7900  222.9550 C   0  0  0  0  0  0  0  0  0  0  0  0
  138.7165   70.8782  221.8735 H   0  0  0  0  0  0  0  0  0  0  0  0
  138.0096   71.1397  223.5029 H   0  0  0  0  0  0  0  0  0  0  0  0
  139.1730   69.3320  223.3080 C   0  0  0  0  0  0  0  0  0  0  0  0
  139.9350   68.9359  222.6206 H   0  0  0  0  0  0  0  0  0  0  0  0
  138.2318   68.7703  223.2150 H   0  0  0  0  0  0  0  0  0  0  0  0
  1  2  1  0
  2  3  2  0
  3  4  1  0
  3  5  1  0
  5  6  1  0
  5  7  2  0
  7  8  1  0
  8  9  2  0
  9 10  1  0
  8 11  1  0
 11 12  1  0
 11 13  1  0
 11 14  1  0
 14 15  1  0
 15 16  1  0
 16 17  2  0
 17 18  1  0
 18 19  1  0
 19 20  1  0
 19 21  1  0
 19 22  1  0
 22 23  1  0
 22 24  1  0
 22 25  1  0
 25 26  1  0
 25 27  1  0
 25 28  1  0
 28 29  1  0
 28 30  1  0
 28 31  1  0
 31 32  1  0
 31 33  1  0
 17 34  1  0
 34 35  1  0
 34 36  1  0
 36 37  2  0
 37 38  1  0
 37 39  1  0
 39 40  1  0
 39 41  1  0
 41 42  1  0
 41 43  1  0
 41 44  1  0
 44 45  1  0
 44 46  1  0
 44 47  1  0
 47 48  1  0
 47 49  1  0
 36 50  1  0
 14 51  1  0
 51 52  1  0
 51 53  1  0
 51 54  1  0
 54 55  1  0
 54 56  1  0
  9  2  1  0
 50 15  2  0
 54  7  1  0
 31 18  1  0
 47 39  1  0
M  CHG  1  37   1
M  END
>  <UniqueID>  (59) 
485

>  <SMILES>  (59) 
c1ccc2c(c1)CCN(c1nc(N3CCCCC3)[nH]/c(=[NH+]/C3CCC3)n1)C2

>  <Energy>  (59) 
125.37893925514972

>  <Genealogy>  (59) 
c1ccc2c(c1)CCN(c1nc([NH2+]C3CCC3)nc(N3CCCCC3)n1)C2 (protonated)
c1ccc2c(c1)CCN(c1nc(N3CCCCC3)[nH]c(=[NH+]C3CCC3)n1)C2 (tautomer)
c1ccc2c(c1)CCN(c1nc(N3CCCCC3)[nH]/c(=[NH+]/C3CCC3)n1)C2 (cis-trans isomerization)
c1ccc2c(c1)CCN(c1nc(N3CCCCC3)[nH]/c(=[NH+]/C3CCC3)n1)C2 (3D coordinates assigned)
c1ccc2c(c1)CCN(c1nc(N3CCCCC3)[nH]/c(=[NH+]/C3CCC3)n1)C2 (nonaromatic ring conformer: 125.37893925514972 kcal/mol)

>  <smiles>  (59) 
c1ccc2c(c1)CCN(c1nc(NC3CCC3)nc(N3CCCCC3)n1)C2

>  <score_type>  (59) 
oracle

>  <origin>  (59) 
autodockgpu

>  <m_score__min__energy>  (59) 
-8.3200000000000003

>  <m_primary>  (59) 
energy

>  <meeko>  (59) 
{"free_energy": -8.3, "intermolecular_energy": -9.5, "internal_energy": -0.46, "cluster_size": 20, "cluster_id": 1, "rank_in_cluster": 10}

>  <energy>  (59) 
-7.56

>  <cluster_rmsd>  (59) 
1.14

>  <rmsd>  (59) 
270.78

>  <cluster>  (59) 
1

$$$$
JGFXCGHACWUNAV-PBFIRHMANA-O
     RDKit          3D

 56 60  0  0  0  0  0  0  0  0999 V2000
  140.9529   68.7335  228.4745 H   0  0  0  0  0  0  0  0  0  0  0  0
  140.5840   68.8430  227.4440 C   0  0  0  0  0  0  0  0  0  0  0  0
  140.0070   67.7550  226.7910 C   0  0  0  0  0  0  0  0  0  0  0  0
  139.9257   66.7862  227.3057 H   0  0  0  0  0  0  0  0  0  0  0  0
  139.5320   67.8920  225.4850 C   0  0  0  0  0  0  0  0  0  0  0  0
  139.0857   67.0269  224.9727 H   0  0  0  0  0  0  0  0  0  0  0  0
  139.6200   69.1260  224.8210 C   0  0  0  0  0  0  0  0  0  0  0  0
  140.2290   70.2250  225.4730 C   0  0  0  0  0  0  0  0  0  0  0  0
  140.6940   70.0740  226.7890 C   0  0  0  0  0  0  0  0  0  0  0  0
  141.1483   70.9303  227.3090 H   0  0  0  0  0  0  0  0  0  0  0  0
  140.3620   71.5740  224.8030 C   0  0  0  0  0  0  0  0  0  0  0  0
  141.4062   71.9101  224.8848 H   0  0  0  0  0  0  0  0  0  0  0  0
  139.6792   72.2736  225.3073 H   0  0  0  0  0  0  0  0  0  0  0  0
  139.9900   71.5200  223.3810 N   0  0  0  0  0  0  0  0  0  0  0  0
  140.6100   72.4080  222.4300 C   0  0  0  0  0  0  0  0  0  0  0  0
  140.2350   73.7110  222.3600 N   0  0  0  0  0  0  0  0  0  0  0  0
  140.8240   74.5590  221.4780 C   0  0  0  0  0  0  0  0  0  0  0  0
  140.4150   75.9400  221.4390 N   0  0  0  0  0  0  0  0  0  0  0  0
  141.1550   76.9370  220.6520 C   0  0  0  0  0  0  0  0  0  0  0  0
  142.0997   76.4941  220.3036 H   0  0  0  0  0  0  0  0  0  0  0  0
  140.5381   77.2406  219.7933 H   0  0  0  0  0  0  0  0  0  0  0  0
  141.4630   78.1780  221.5050 C   0  0  0  0  0  0  0  0  0  0  0  0
  142.3990   78.0000  222.0548 H   0  0  0  0  0  0  0  0  0  0  0  0
  141.5415   79.0337  220.8182 H   0  0  0  0  0  0  0  0  0  0  0  0
  140.3510   78.5110  222.5250 C   0  0  0  0  0  0  0  0  0  0  0  0
  140.6618   78.1505  223.5167 H   0  0  0  0  0  0  0  0  0  0  0  0
  140.2065   79.6015  222.5197 H   0  0  0  0  0  0  0  0  0  0  0  0
  139.0110   77.8600  222.1620 C   0  0  0  0  0  0  0  0  0  0  0  0
  138.2615   78.1221  222.9232 H   0  0  0  0  0  0  0  0  0  0  0  0
  138.6886   78.2268  221.1763 H   0  0  0  0  0  0  0  0  0  0  0  0
  139.1630   76.3330  222.1040 C   0  0  0  0  0  0  0  0  0  0  0  0
  139.1628   75.9347  223.1294 H   0  0  0  0  0  0  0  0  0  0  0  0
  138.3219   75.9245  221.5247 H   0  0  0  0  0  0  0  0  0  0  0  0
  141.8280   74.1020  220.6760 N   0  0  0  0  0  0  0  0  0  0  0  0
  142.3310   74.7610  220.0400 H   0  0  0  0  0  0  0  0  0  0  0  0
  142.2140   72.7950  220.7360 C   0  0  0  0  0  0  0  0  0  0  0  0
  143.1770   72.3550  219.9710 N   0  0  0  0  0  0  0  0  0  0  0  0
  143.0820   71.4090  219.5350 H   0  0  0  0  0  0  0  0  0  0  0  0
  144.4040   73.1280  219.7270 C   0  0  0  0  0  0  0  0  0  0  0  0
  144.2211   73.4795  218.7008 H   0  0  0  0  0  0  0  0  0  0  0  0
  144.7220   74.1290  220.8380 C   0  0  0  0  0  0  0  0  0  0  0  0
  144.9119   75.1519  220.4807 H   0  0  0  0  0  0  0  0  0  0  0  0
  143.9775   74.3543  221.6158 H   0  0  0  0  0  0  0  0  0  0  0  0
  145.9820   73.3450  221.1790 C   0  0  0  0  0  0  0  0  0  0  0  0
  146.9149   73.9057  221.0202 H   0  0  0  0  0  0  0  0  0  0  0  0
  146.1579   73.0000  222.2086 H   0  0  0  0  0  0  0  0  0  0  0  0
  145.6670   72.3430  220.0790 C   0  0  0  0  0  0  0  0  0  0  0  0
  146.4150   72.3107  219.2731 H   0  0  0  0  0  0  0  0  0  0  0  0
  145.6100   71.2679  220.3044 H   0  0  0  0  0  0  0  0  0  0  0  0
  141.5960   71.9590  221.6130 N   0  0  0  0  0  0  0  0  0  0  0  0
  138.8580   70.6700  223.0000 C   0  0  0  0  0  0  0  0  0  0  0  0
  138.7026   70.7313  221.9128 H   0  0  0  0  0  0  0  0  0  0  0  0
  137.9505   71.0121  223.5190 H   0  0  0  0  0  0  0  0  0  0  0  0
  139.1550   69.2260  223.3910 C   0  0  0  0  0  0  0  0  0  0  0  0
  139.9415   68.8314  222.7309 H   0  0  0  0  0  0  0  0  0  0  0  0
  138.2282   68.6426  223.2877 H   0  0  0  0  0  0  0  0  0  0  0  0
  1  2  1  0
  2  3  2  0
  3  4  1  0
  3  5  1  0
  5  6  1  0
  5  7  2  0
  7  8  1  0
  8  9  2  0
  9 10  1  0
  8 11  1  0
 11 12  1  0
 11 13  1  0
 11 14  1  0
 14 15  1  0
 15 16  1  0
 16 17  2  0
 17 18  1  0
 18 19  1  0
 19 20  1  0
 19 21  1  0
 19 22  1  0
 22 23  1  0
 22 24  1  0
 22 25  1  0
 25 26  1  0
 25 27  1  0
 25 28  1  0
 28 29  1  0
 28 30  1  0
 28 31  1  0
 31 32  1  0
 31 33  1  0
 17 34  1  0
 34 35  1  0
 34 36  1  0
 36 37  2  0
 37 38  1  0
 37 39  1  0
 39 40  1  0
 39 41  1  0
 41 42  1  0
 41 43  1  0
 41 44  1  0
 44 45  1  0
 44 46  1  0
 44 47  1  0
 47 48  1  0
 47 49  1  0
 36 50  1  0
 14 51  1  0
 51 52  1  0
 51 53  1  0
 51 54  1  0
 54 55  1  0
 54 56  1  0
  9  2  1  0
 50 15  2  0
 54  7  1  0
 31 18  1  0
 47 39  1  0
M  CHG  1  37   1
M  END
>  <UniqueID>  (60) 
485

>  <SMILES>  (60) 
c1ccc2c(c1)CCN(c1nc(N3CCCCC3)[nH]/c(=[NH+]/C3CCC3)n1)C2

>  <Energy>  (60) 
125.37893925514972

>  <Genealogy>  (60) 
c1ccc2c(c1)CCN(c1nc([NH2+]C3CCC3)nc(N3CCCCC3)n1)C2 (protonated)
c1ccc2c(c1)CCN(c1nc(N3CCCCC3)[nH]c(=[NH+]C3CCC3)n1)C2 (tautomer)
c1ccc2c(c1)CCN(c1nc(N3CCCCC3)[nH]/c(=[NH+]/C3CCC3)n1)C2 (cis-trans isomerization)
c1ccc2c(c1)CCN(c1nc(N3CCCCC3)[nH]/c(=[NH+]/C3CCC3)n1)C2 (3D coordinates assigned)
c1ccc2c(c1)CCN(c1nc(N3CCCCC3)[nH]/c(=[NH+]/C3CCC3)n1)C2 (nonaromatic ring conformer: 125.37893925514972 kcal/mol)

>  <smiles>  (60) 
c1ccc2c(c1)CCN(c1nc(NC3CCC3)nc(N3CCCCC3)n1)C2

>  <score_type>  (60) 
oracle

>  <origin>  (60) 
autodockgpu

>  <m_score__min__energy>  (60) 
-8.3200000000000003

>  <m_primary>  (60) 
energy

>  <meeko>  (60) 
{"free_energy": -8.3, "intermolecular_energy": -9.5, "internal_energy": -0.44, "cluster_size": 20, "cluster_id": 1, "rank_in_cluster": 11}

>  <energy>  (60) 
-7.52

>  <cluster_rmsd>  (60) 
1.15

>  <rmsd>  (60) 
270.76

>  <cluster>  (60) 
1

$$$$
JGFXCGHACWUNAV-YFNBPOHCNA-O
     RDKit          3D

 56 60  0  0  0  0  0  0  0  0999 V2000
  143.0700   81.9188  224.3301 H   0  0  0  0  0  0  0  0  0  0  0  0
  142.3780   81.3300  223.7100 C   0  0  0  0  0  0  0  0  0  0  0  0
  141.5360   81.9740  222.8030 C   0  0  0  0  0  0  0  0  0  0  0  0
  141.5673   83.0694  222.7072 H   0  0  0  0  0  0  0  0  0  0  0  0
  140.6530   81.2300  222.0160 C   0  0  0  0  0  0  0  0  0  0  0  0
  139.9987   81.7421  221.2951 H   0  0  0  0  0  0  0  0  0  0  0  0
  140.5960   79.8330  222.1400 C   0  0  0  0  0  0  0  0  0  0  0  0
  141.4660   79.1770  223.0440 C   0  0  0  0  0  0  0  0  0  0  0  0
  142.3440   79.9400  223.8320 C   0  0  0  0  0  0  0  0  0  0  0  0
  143.0093   79.4384  224.5502 H   0  0  0  0  0  0  0  0  0  0  0  0
  141.4430   77.6770  223.2230 C   0  0  0  0  0  0  0  0  0  0  0  0
  141.0653   77.4450  224.2298 H   0  0  0  0  0  0  0  0  0  0  0  0
  142.4683   77.3024  223.0872 H   0  0  0  0  0  0  0  0  0  0  0  0
  140.5840   77.0190  222.2310 N   0  0  0  0  0  0  0  0  0  0  0  0
  140.8170   75.6400  221.8920 C   0  0  0  0  0  0  0  0  0  0  0  0
  139.9640   74.6840  222.3440 N   0  0  0  0  0  0  0  0  0  0  0  0
  140.1660   73.3760  222.0460 C   0  0  0  0  0  0  0  0  0  0  0  0
  139.2550   72.3660  222.5230 N   0  0  0  0  0  0  0  0  0  0  0  0
  137.9200   72.2090  221.9220 C   0  0  0  0  0  0  0  0  0  0  0  0
  137.6463   73.1355  221.3959 H   0  0  0  0  0  0  0  0  0  0  0  0
  137.9404   71.3687  221.2124 H   0  0  0  0  0  0  0  0  0  0  0  0
  136.8830   71.9200  223.0140 C   0  0  0  0  0  0  0  0  0  0  0  0
  136.7600   72.8251  223.6269 H   0  0  0  0  0  0  0  0  0  0  0  0
  135.9497   71.6314  222.5085 H   0  0  0  0  0  0  0  0  0  0  0  0
  137.2810   70.7510  223.9410 C   0  0  0  0  0  0  0  0  0  0  0  0
  137.1722   71.0828  224.9841 H   0  0  0  0  0  0  0  0  0  0  0  0
  136.6182   69.9078  223.6967 H   0  0  0  0  0  0  0  0  0  0  0  0
  138.7220   70.2620  223.7360 C   0  0  0  0  0  0  0  0  0  0  0  0
  139.0239   69.6643  224.6087 H   0  0  0  0  0  0  0  0  0  0  0  0
  138.7534   69.6582  222.8170 H   0  0  0  0  0  0  0  0  0  0  0  0
  139.6970   71.4340  223.5740 C   0  0  0  0  0  0  0  0  0  0  0  0
  139.7635   71.9775  224.5281 H   0  0  0  0  0  0  0  0  0  0  0  0
  140.6773   71.0282  223.2837 H   0  0  0  0  0  0  0  0  0  0  0  0
  141.2350   73.0270  221.2840 N   0  0  0  0  0  0  0  0  0  0  0  0
  142.1080   73.9650  220.8290 C   0  0  0  0  0  0  0  0  0  0  0  0
  143.1250   73.5820  220.1020 N   0  0  0  0  0  0  0  0  0  0  0  0
  143.1050   73.8110  219.0810 H   0  0  0  0  0  0  0  0  0  0  0  0
  144.2810   72.8330  220.6210 C   0  0  0  0  0  0  0  0  0  0  0  0
  143.7719   72.0730  221.2319 H   0  0  0  0  0  0  0  0  0  0  0  0
  145.2690   72.4140  219.5310 C   0  0  0  0  0  0  0  0  0  0  0  0
  145.5307   71.3457  219.5483 H   0  0  0  0  0  0  0  0  0  0  0  0
  144.9997   72.5081  218.4686 H   0  0  0  0  0  0  0  0  0  0  0  0
  146.3260   73.3230  220.1420 C   0  0  0  0  0  0  0  0  0  0  0  0
  147.2105   72.7900  220.5209 H   0  0  0  0  0  0  0  0  0  0  0  0
  146.8299   74.0807  219.5240 H   0  0  0  0  0  0  0  0  0  0  0  0
  145.3460   73.7460  221.2260 C   0  0  0  0  0  0  0  0  0  0  0  0
  145.6533   73.4641  222.2439 H   0  0  0  0  0  0  0  0  0  0  0  0
  145.1329   74.8113  221.3984 H   0  0  0  0  0  0  0  0  0  0  0  0
  141.8990   75.2800  221.1470 N   0  0  0  0  0  0  0  0  0  0  0  0
  142.5710   76.0200  220.8560 H   0  0  0  0  0  0  0  0  0  0  0  0
  139.3400   77.6880  221.8400 C   0  0  0  0  0  0  0  0  0  0  0  0
  138.6994   77.8197  222.7245 H   0  0  0  0  0  0  0  0  0  0  0  0
  138.8099   77.0763  221.0951 H   0  0  0  0  0  0  0  0  0  0  0  0
  139.6700   79.0510  221.2420 C   0  0  0  0  0  0  0  0  0  0  0  0
  138.7374   79.6186  221.1072 H   0  0  0  0  0  0  0  0  0  0  0  0
  140.1728   78.8943  220.2763 H   0  0  0  0  0  0  0  0  0  0  0  0
  1  2  1  0
  2  3  2  0
  3  4  1  0
  3  5  1  0
  5  6  1  0
  5  7  2  0
  7  8  1  0
  8  9  2  0
  9 10  1  0
  8 11  1  0
 11 12  1  0
 11 13  1  0
 11 14  1  0
 14 15  1  0
 15 16  2  0
 16 17  1  0
 17 18  1  0
 18 19  1  0
 19 20  1  0
 19 21  1  0
 19 22  1  0
 22 23  1  0
 22 24  1  0
 22 25  1  0
 25 26  1  0
 25 27  1  0
 25 28  1  0
 28 29  1  0
 28 30  1  0
 28 31  1  0
 31 32  1  0
 31 33  1  0
 17 34  2  0
 34 35  1  0
 35 36  2  0
 36 37  1  0
 36 38  1  0
 38 39  1  0
 38 40  1  0
 40 41  1  0
 40 42  1  0
 40 43  1  0
 43 44  1  0
 43 45  1  0
 43 46  1  0
 46 47  1  0
 46 48  1  0
 35 49  1  0
 49 50  1  0
 14 51  1  0
 51 52  1  0
 51 53  1  0
 51 54  1  0
 54 55  1  0
 54 56  1  0
  9  2  1  0
 49 15  1  0
 54  7  1  0
 31 18  1  0
 46 38  1  0
M  CHG  1  36   1
M  END
>  <UniqueID>  (61) 
486

>  <SMILES>  (61) 
c1ccc2c(c1)CCN(c1nc(N3CCCCC3)n/c(=[NH+]/C3CCC3)[nH]1)C2

>  <Energy>  (61) 
125.77127150498245

>  <Genealogy>  (61) 
c1ccc2c(c1)CCN(c1nc([NH2+]C3CCC3)nc(N3CCCCC3)n1)C2 (protonated)
c1ccc2c(c1)CCN(c1nc(N3CCCCC3)nc(=[NH+]C3CCC3)[nH]1)C2 (tautomer)
c1ccc2c(c1)CCN(c1nc(N3CCCCC3)n/c(=[NH+]/C3CCC3)[nH]1)C2 (cis-trans isomerization)
c1ccc2c(c1)CCN(c1nc(N3CCCCC3)n/c(=[NH+]/C3CCC3)[nH]1)C2 (3D coordinates assigned)
c1ccc2c(c1)CCN(c1nc(N3CCCCC3)n/c(=[NH+]/C3CCC3)[nH]1)C2 (nonaromatic ring conformer: 125.77127150498245 kcal/mol)

>  <smiles>  (61) 
c1ccc2c(c1)CCN(c1nc(NC3CCC3)nc(N3CCCCC3)n1)C2

>  <score_type>  (61) 
oracle

>  <origin>  (61) 
autodockgpu

>  <m_score__min__energy>  (61) 
-7.7999999999999998

>  <m_primary>  (61) 
energy

>  <meeko>  (61) 
{"free_energy": -7.61, "intermolecular_energy": -8.8, "internal_energy": -0.36, "cluster_size": 19, "cluster_id": 1, "rank_in_cluster": 14}

>  <energy>  (61) 
-7.8

>  <cluster_rmsd>  (61) 
0.0

>  <rmsd>  (61) 
270.53

>  <cluster>  (61) 
1

$$$$
JGFXCGHACWUNAV-YFNBPOHCNA-O
     RDKit          3D

 56 60  0  0  0  0  0  0  0  0999 V2000
  141.9853   81.3572  224.7274 H   0  0  0  0  0  0  0  0  0  0  0  0
  141.7840   80.8110  223.7940 C   0  0  0  0  0  0  0  0  0  0  0  0
  141.7430   81.4980  222.5800 C   0  0  0  0  0  0  0  0  0  0  0  0
  141.9132   82.5845  222.5575 H   0  0  0  0  0  0  0  0  0  0  0  0
  141.4860   80.8070  221.3930 C   0  0  0  0  0  0  0  0  0  0  0  0
  141.4669   81.3512  220.4372 H   0  0  0  0  0  0  0  0  0  0  0  0
  141.2520   79.4230  221.4120 C   0  0  0  0  0  0  0  0  0  0  0  0
  141.3160   78.7230  222.6410 C   0  0  0  0  0  0  0  0  0  0  0  0
  141.5700   79.4320  223.8260 C   0  0  0  0  0  0  0  0  0  0  0  0
  141.6006   78.8969  224.7866 H   0  0  0  0  0  0  0  0  0  0  0  0
  141.0670   77.2340  222.7200 C   0  0  0  0  0  0  0  0  0  0  0  0
  140.1283   77.0594  223.2662 H   0  0  0  0  0  0  0  0  0  0  0  0
  141.9207   76.7738  223.2389 H   0  0  0  0  0  0  0  0  0  0  0  0
  140.9620   76.6230  221.3900 N   0  0  0  0  0  0  0  0  0  0  0  0
  141.2440   75.2210  221.2280 C   0  0  0  0  0  0  0  0  0  0  0  0
  140.5690   74.3100  221.9750 N   0  0  0  0  0  0  0  0  0  0  0  0
  140.8210   72.9830  221.8470 C   0  0  0  0  0  0  0  0  0  0  0  0
  140.0980   72.0190  222.6380 N   0  0  0  0  0  0  0  0  0  0  0  0
  138.8950   71.3580  222.1070 C   0  0  0  0  0  0  0  0  0  0  0  0
  138.4887   71.9542  221.2766 H   0  0  0  0  0  0  0  0  0  0  0  0
  139.1642   70.3532  221.7493 H   0  0  0  0  0  0  0  0  0  0  0  0
  137.8350   71.2320  223.2070 C   0  0  0  0  0  0  0  0  0  0  0  0
  137.4619   72.2381  223.4489 H   0  0  0  0  0  0  0  0  0  0  0  0
  137.0408   70.5767  222.8199 H   0  0  0  0  0  0  0  0  0  0  0  0
  138.3710   70.5840  224.5020 C   0  0  0  0  0  0  0  0  0  0  0  0
  138.0879   71.2219  225.3522 H   0  0  0  0  0  0  0  0  0  0  0  0
  137.9284   69.5789  224.5650 H   0  0  0  0  0  0  0  0  0  0  0  0
  139.8960   70.4040  224.5180 C   0  0  0  0  0  0  0  0  0  0  0  0
  140.2246   70.2347  225.5540 H   0  0  0  0  0  0  0  0  0  0  0  0
  140.1476   69.5436  223.8805 H   0  0  0  0  0  0  0  0  0  0  0  0
  140.6160   71.6390  223.9630 C   0  0  0  0  0  0  0  0  0  0  0  0
  140.4702   72.4794  224.6577 H   0  0  0  0  0  0  0  0  0  0  0  0
  141.6838   71.3964  223.8582 H   0  0  0  0  0  0  0  0  0  0  0  0
  141.7610   72.5700  220.9580 N   0  0  0  0  0  0  0  0  0  0  0  0
  142.4580   73.4650  220.2070 C   0  0  0  0  0  0  0  0  0  0  0  0
  143.3560   73.0210  219.3660 N   0  0  0  0  0  0  0  0  0  0  0  0
  143.0350   72.3690  218.6130 H   0  0  0  0  0  0  0  0  0  0  0  0
  144.7860   73.3600  219.4250 C   0  0  0  0  0  0  0  0  0  0  0  0
  144.9710   73.6358  218.3763 H   0  0  0  0  0  0  0  0  0  0  0  0
  145.1310   74.3330  220.5530 C   0  0  0  0  0  0  0  0  0  0  0  0
  145.7130   75.2083  220.2288 H   0  0  0  0  0  0  0  0  0  0  0  0
  144.3331   74.8513  221.1050 H   0  0  0  0  0  0  0  0  0  0  0  0
  145.9600   73.2520  221.2310 C   0  0  0  0  0  0  0  0  0  0  0  0
  147.0315   73.4895  221.3054 H   0  0  0  0  0  0  0  0  0  0  0  0
  145.7679   72.9818  222.2799 H   0  0  0  0  0  0  0  0  0  0  0  0
  145.6170   72.2790  220.1130 C   0  0  0  0  0  0  0  0  0  0  0  0
  146.4861   71.9415  219.5293 H   0  0  0  0  0  0  0  0  0  0  0  0
  145.1732   71.2995  220.3448 H   0  0  0  0  0  0  0  0  0  0  0  0
  142.2000   74.8010  220.3540 N   0  0  0  0  0  0  0  0  0  0  0  0
  142.7460   75.5170  219.8300 H   0  0  0  0  0  0  0  0  0  0  0  0
  140.2890   77.3800  220.3320 C   0  0  0  0  0  0  0  0  0  0  0  0
  139.2507   77.5863  220.6308 H   0  0  0  0  0  0  0  0  0  0  0  0
  140.2896   76.7943  219.4009 H   0  0  0  0  0  0  0  0  0  0  0  0
  141.0270   78.6960  220.1100 C   0  0  0  0  0  0  0  0  0  0  0  0
  140.4297   79.3338  219.4418 H   0  0  0  0  0  0  0  0  0  0  0  0
  142.0067   78.4740  219.6619 H   0  0  0  0  0  0  0  0  0  0  0  0
  1  2  1  0
  2  3  2  0
  3  4  1  0
  3  5  1  0
  5  6  1  0
  5  7  2  0
  7  8  1  0
  8  9  2  0
  9 10  1  0
  8 11  1  0
 11 12  1  0
 11 13  1  0
 11 14  1  0
 14 15  1  0
 15 16  2  0
 16 17  1  0
 17 18  1  0
 18 19  1  0
 19 20  1  0
 19 21  1  0
 19 22  1  0
 22 23  1  0
 22 24  1  0
 22 25  1  0
 25 26  1  0
 25 27  1  0
 25 28  1  0
 28 29  1  0
 28 30  1  0
 28 31  1  0
 31 32  1  0
 31 33  1  0
 17 34  2  0
 34 35  1  0
 35 36  2  0
 36 37  1  0
 36 38  1  0
 38 39  1  0
 38 40  1  0
 40 41  1  0
 40 42  1  0
 40 43  1  0
 43 44  1  0
 43 45  1  0
 43 46  1  0
 46 47  1  0
 46 48  1  0
 35 49  1  0
 49 50  1  0
 14 51  1  0
 51 52  1  0
 51 53  1  0
 51 54  1  0
 54 55  1  0
 54 56  1  0
  9  2  1  0
 49 15  1  0
 54  7  1  0
 31 18  1  0
 46 38  1  0
M  CHG  1  36   1
M  END
>  <UniqueID>  (62) 
486

>  <SMILES>  (62) 
c1ccc2c(c1)CCN(c1nc(N3CCCCC3)n/c(=[NH+]/C3CCC3)[nH]1)C2

>  <Energy>  (62) 
125.77127150498245

>  <Genealogy>  (62) 
c1ccc2c(c1)CCN(c1nc([NH2+]C3CCC3)nc(N3CCCCC3)n1)C2 (protonated)
c1ccc2c(c1)CCN(c1nc(N3CCCCC3)nc(=[NH+]C3CCC3)[nH]1)C2 (tautomer)
c1ccc2c(c1)CCN(c1nc(N3CCCCC3)n/c(=[NH+]/C3CCC3)[nH]1)C2 (cis-trans isomerization)
c1ccc2c(c1)CCN(c1nc(N3CCCCC3)n/c(=[NH+]/C3CCC3)[nH]1)C2 (3D coordinates assigned)
c1ccc2c(c1)CCN(c1nc(N3CCCCC3)n/c(=[NH+]/C3CCC3)[nH]1)C2 (nonaromatic ring conformer: 125.77127150498245 kcal/mol)

>  <smiles>  (62) 
c1ccc2c(c1)CCN(c1nc(NC3CCC3)nc(N3CCCCC3)n1)C2

>  <score_type>  (62) 
oracle

>  <origin>  (62) 
autodockgpu

>  <m_score__min__energy>  (62) 
-7.7999999999999998

>  <m_primary>  (62) 
energy

>  <meeko>  (62) 
{"free_energy": -7.6, "intermolecular_energy": -8.8, "internal_energy": -0.47, "cluster_size": 19, "cluster_id": 1, "rank_in_cluster": 15}

>  <energy>  (62) 
-7.8

>  <cluster_rmsd>  (62) 
0.06

>  <rmsd>  (62) 
270.51

>  <cluster>  (62) 
1

$$$$
JGFXCGHACWUNAV-YFNBPOHCNA-O
     RDKit          3D

 56 60  0  0  0  0  0  0  0  0999 V2000
  141.7725   81.3566  224.7924 H   0  0  0  0  0  0  0  0  0  0  0  0
  141.6990   80.7990  223.8470 C   0  0  0  0  0  0  0  0  0  0  0  0
  141.8710   81.4630  222.6310 C   0  0  0  0  0  0  0  0  0  0  0  0
  142.0808   82.5427  222.6198 H   0  0  0  0  0  0  0  0  0  0  0  0
  141.7770   80.7580  221.4280 C   0  0  0  0  0  0  0  0  0  0  0  0
  141.9248   81.2834  220.4730 H   0  0  0  0  0  0  0  0  0  0  0  0
  141.4950   79.3830  221.4320 C   0  0  0  0  0  0  0  0  0  0  0  0
  141.3420   78.7050  222.6650 C   0  0  0  0  0  0  0  0  0  0  0  0
  141.4340   79.4290  223.8650 C   0  0  0  0  0  0  0  0  0  0  0  0
  141.2961   78.9123  224.8262 H   0  0  0  0  0  0  0  0  0  0  0  0
  141.0310   77.2270  222.7270 C   0  0  0  0  0  0  0  0  0  0  0  0
  140.0134   77.0941  223.1230 H   0  0  0  0  0  0  0  0  0  0  0  0
  141.7764   76.7492  223.3797 H   0  0  0  0  0  0  0  0  0  0  0  0
  141.1120   76.5940  221.4050 N   0  0  0  0  0  0  0  0  0  0  0  0
  141.3670   75.1810  221.3090 C   0  0  0  0  0  0  0  0  0  0  0  0
  140.6270   74.3140  222.0490 N   0  0  0  0  0  0  0  0  0  0  0  0
  140.8520   72.9780  221.9820 C   0  0  0  0  0  0  0  0  0  0  0  0
  140.0600   72.0610  222.7650 N   0  0  0  0  0  0  0  0  0  0  0  0
  140.3280   71.8680  224.1990 C   0  0  0  0  0  0  0  0  0  0  0  0
  141.3513   72.2015  224.4260 H   0  0  0  0  0  0  0  0  0  0  0  0
  139.6046   72.4560  224.7829 H   0  0  0  0  0  0  0  0  0  0  0  0
  140.1840   70.3860  224.5670 C   0  0  0  0  0  0  0  0  0  0  0  0
  141.0084   69.8283  224.0986 H   0  0  0  0  0  0  0  0  0  0  0  0
  140.2092   70.3191  225.6647 H   0  0  0  0  0  0  0  0  0  0  0  0
  138.8480   69.7680  224.1020 C   0  0  0  0  0  0  0  0  0  0  0  0
  139.0665   68.8333  223.5647 H   0  0  0  0  0  0  0  0  0  0  0  0
  138.2402   69.6027  225.0038 H   0  0  0  0  0  0  0  0  0  0  0  0
  138.0330   70.6810  223.1740 C   0  0  0  0  0  0  0  0  0  0  0  0
  137.2766   70.0762  222.6524 H   0  0  0  0  0  0  0  0  0  0  0  0
  137.5578   71.4600  223.7883 H   0  0  0  0  0  0  0  0  0  0  0  0
  138.9240   71.3680  222.1340 C   0  0  0  0  0  0  0  0  0  0  0  0
  139.3110   70.6088  221.4384 H   0  0  0  0  0  0  0  0  0  0  0  0
  138.3175   72.1160  221.6023 H   0  0  0  0  0  0  0  0  0  0  0  0
  141.8290   72.5100  221.1640 N   0  0  0  0  0  0  0  0  0  0  0  0
  142.5900   73.3590  220.4220 C   0  0  0  0  0  0  0  0  0  0  0  0
  143.5220   72.8630  219.6510 N   0  0  0  0  0  0  0  0  0  0  0  0
  143.2610   72.0650  219.0270 H   0  0  0  0  0  0  0  0  0  0  0  0
  144.9140   73.3380  219.6210 C   0  0  0  0  0  0  0  0  0  0  0  0
  144.9701   73.7347  218.5966 H   0  0  0  0  0  0  0  0  0  0  0  0
  145.2760   74.2230  220.8140 C   0  0  0  0  0  0  0  0  0  0  0  0
  145.7410   75.1809  220.5379 H   0  0  0  0  0  0  0  0  0  0  0  0
  144.4911   74.5997  221.4863 H   0  0  0  0  0  0  0  0  0  0  0  0
  146.2630   73.1690  221.2960 C   0  0  0  0  0  0  0  0  0  0  0  0
  147.3103   73.5054  221.3028 H   0  0  0  0  0  0  0  0  0  0  0  0
  146.1991   72.7770  222.3218 H   0  0  0  0  0  0  0  0  0  0  0  0
  145.9040   72.2830  220.1120 C   0  0  0  0  0  0  0  0  0  0  0  0
  146.7397   72.0959  219.4217 H   0  0  0  0  0  0  0  0  0  0  0  0
  145.5768   71.2452  220.2728 H   0  0  0  0  0  0  0  0  0  0  0  0
  142.3590   74.7050  220.5070 N   0  0  0  0  0  0  0  0  0  0  0  0
  142.9520   75.3890  219.9900 H   0  0  0  0  0  0  0  0  0  0  0  0
  140.6400   77.3520  220.2440 C   0  0  0  0  0  0  0  0  0  0  0  0
  139.5757   77.5981  220.3735 H   0  0  0  0  0  0  0  0  0  0  0  0
  140.7657   76.7483  219.3331 H   0  0  0  0  0  0  0  0  0  0  0  0
  141.4490   78.6380  220.1210 C   0  0  0  0  0  0  0  0  0  0  0  0
  140.9854   79.2817  219.3589 H   0  0  0  0  0  0  0  0  0  0  0  0
  142.4779   78.3753  219.8342 H   0  0  0  0  0  0  0  0  0  0  0  0
  1  2  1  0
  2  3  2  0
  3  4  1  0
  3  5  1  0
  5  6  1  0
  5  7  2  0
  7  8  1  0
  8  9  2  0
  9 10  1  0
  8 11  1  0
 11 12  1  0
 11 13  1  0
 11 14  1  0
 14 15  1  0
 15 16  2  0
 16 17  1  0
 17 18  1  0
 18 19  1  0
 19 20  1  0
 19 21  1  0
 19 22  1  0
 22 23  1  0
 22 24  1  0
 22 25  1  0
 25 26  1  0
 25 27  1  0
 25 28  1  0
 28 29  1  0
 28 30  1  0
 28 31  1  0
 31 32  1  0
 31 33  1  0
 17 34  2  0
 34 35  1  0
 35 36  2  0
 36 37  1  0
 36 38  1  0
 38 39  1  0
 38 40  1  0
 40 41  1  0
 40 42  1  0
 40 43  1  0
 43 44  1  0
 43 45  1  0
 43 46  1  0
 46 47  1  0
 46 48  1  0
 35 49  1  0
 49 50  1  0
 14 51  1  0
 51 52  1  0
 51 53  1  0
 51 54  1  0
 54 55  1  0
 54 56  1  0
  9  2  1  0
 49 15  1  0
 54  7  1  0
 31 18  1  0
 46 38  1  0
M  CHG  1  36   1
M  END
>  <UniqueID>  (63) 
486

>  <SMILES>  (63) 
c1ccc2c(c1)CCN(c1nc(N3CCCCC3)n/c(=[NH+]/C3CCC3)[nH]1)C2

>  <Energy>  (63) 
125.77127150498245

>  <Genealogy>  (63) 
c1ccc2c(c1)CCN(c1nc([NH2+]C3CCC3)nc(N3CCCCC3)n1)C2 (protonated)
c1ccc2c(c1)CCN(c1nc(N3CCCCC3)nc(=[NH+]C3CCC3)[nH]1)C2 (tautomer)
c1ccc2c(c1)CCN(c1nc(N3CCCCC3)n/c(=[NH+]/C3CCC3)[nH]1)C2 (cis-trans isomerization)
c1ccc2c(c1)CCN(c1nc(N3CCCCC3)n/c(=[NH+]/C3CCC3)[nH]1)C2 (3D coordinates assigned)
c1ccc2c(c1)CCN(c1nc(N3CCCCC3)n/c(=[NH+]/C3CCC3)[nH]1)C2 (nonaromatic ring conformer: 125.77127150498245 kcal/mol)

>  <smiles>  (63) 
c1ccc2c(c1)CCN(c1nc(NC3CCC3)nc(N3CCCCC3)n1)C2

>  <score_type>  (63) 
oracle

>  <origin>  (63) 
autodockgpu

>  <m_score__min__energy>  (63) 
-7.7999999999999998

>  <m_primary>  (63) 
energy

>  <meeko>  (63) 
{"free_energy": -7.79, "intermolecular_energy": -8.99, "internal_energy": -0.44, "cluster_size": 19, "cluster_id": 1, "rank_in_cluster": 7}

>  <energy>  (63) 
-7.8

>  <cluster_rmsd>  (63) 
0.06

>  <rmsd>  (63) 
270.53

>  <cluster>  (63) 
1

$$$$
JGFXCGHACWUNAV-YFNBPOHCNA-O
     RDKit          3D

 56 60  0  0  0  0  0  0  0  0999 V2000
  141.3676   69.8116  229.3006 H   0  0  0  0  0  0  0  0  0  0  0  0
  140.8750   69.6720  228.3270 C   0  0  0  0  0  0  0  0  0  0  0  0
  140.0570   68.5610  228.1130 C   0  0  0  0  0  0  0  0  0  0  0  0
  139.9030   67.8285  228.9190 H   0  0  0  0  0  0  0  0  0  0  0  0
  139.4340   68.3790  226.8760 C   0  0  0  0  0  0  0  0  0  0  0  0
  138.7825   67.5074  226.7153 H   0  0  0  0  0  0  0  0  0  0  0  0
  139.6340   69.3010  225.8370 C   0  0  0  0  0  0  0  0  0  0  0  0
  140.4450   70.4390  226.0610 C   0  0  0  0  0  0  0  0  0  0  0  0
  141.0690   70.6060  227.3080 C   0  0  0  0  0  0  0  0  0  0  0  0
  141.7151   71.4789  227.4829 H   0  0  0  0  0  0  0  0  0  0  0  0
  140.7000   71.4600  224.9760 C   0  0  0  0  0  0  0  0  0  0  0  0
  141.7585   71.4086  224.6813 H   0  0  0  0  0  0  0  0  0  0  0  0
  140.4470   72.4528  225.3766 H   0  0  0  0  0  0  0  0  0  0  0  0
  139.8660   71.2220  223.7920 N   0  0  0  0  0  0  0  0  0  0  0  0
  139.5680   72.3130  222.9020 C   0  0  0  0  0  0  0  0  0  0  0  0
  140.5830   73.0330  222.3590 N   0  0  0  0  0  0  0  0  0  0  0  0
  140.3300   74.0710  221.5230 C   0  0  0  0  0  0  0  0  0  0  0  0
  141.4110   74.8290  220.9450 N   0  0  0  0  0  0  0  0  0  0  0  0
  141.4160   76.3000  221.0010 C   0  0  0  0  0  0  0  0  0  0  0  0
  140.3926   76.6609  221.1811 H   0  0  0  0  0  0  0  0  0  0  0  0
  142.0769   76.6274  221.8171 H   0  0  0  0  0  0  0  0  0  0  0  0
  141.9310   76.8750  219.6760 C   0  0  0  0  0  0  0  0  0  0  0  0
  141.1840   76.6731  218.8942 H   0  0  0  0  0  0  0  0  0  0  0  0
  142.0906   77.9525  219.8291 H   0  0  0  0  0  0  0  0  0  0  0  0
  143.2810   76.2720  219.2310 C   0  0  0  0  0  0  0  0  0  0  0  0
  143.1886   75.9495  218.1834 H   0  0  0  0  0  0  0  0  0  0  0  0
  144.0419   77.0552  219.3640 H   0  0  0  0  0  0  0  0  0  0  0  0
  143.7270   75.0660  220.0720 C   0  0  0  0  0  0  0  0  0  0  0  0
  144.5071   74.5174  219.5239 H   0  0  0  0  0  0  0  0  0  0  0  0
  144.1111   75.4394  221.0328 H   0  0  0  0  0  0  0  0  0  0  0  0
  142.5590   74.1160  220.3590 C   0  0  0  0  0  0  0  0  0  0  0  0
  142.2430   73.6441  219.4169 H   0  0  0  0  0  0  0  0  0  0  0  0
  142.9000   73.3604  221.0820 H   0  0  0  0  0  0  0  0  0  0  0  0
  139.0420   74.3870  221.2310 N   0  0  0  0  0  0  0  0  0  0  0  0
  138.0080   73.6880  221.7710 C   0  0  0  0  0  0  0  0  0  0  0  0
  136.7830   74.0300  221.4630 N   0  0  0  0  0  0  0  0  0  0  0  0
  136.2710   73.4310  220.7750 H   0  0  0  0  0  0  0  0  0  0  0  0
  136.0920   75.2110  222.0030 C   0  0  0  0  0  0  0  0  0  0  0  0
  135.8052   75.7202  221.0711 H   0  0  0  0  0  0  0  0  0  0  0  0
  135.0350   74.8660  223.0530 C   0  0  0  0  0  0  0  0  0  0  0  0
  134.0496   75.3166  222.8632 H   0  0  0  0  0  0  0  0  0  0  0  0
  134.7213   73.8228  223.2054 H   0  0  0  0  0  0  0  0  0  0  0  0
  135.8540   75.5870  224.1140 C   0  0  0  0  0  0  0  0  0  0  0  0
  135.3518   76.4637  224.5489 H   0  0  0  0  0  0  0  0  0  0  0  0
  136.1372   75.0699  225.0426 H   0  0  0  0  0  0  0  0  0  0  0  0
  136.9100   75.9300  223.0740 C   0  0  0  0  0  0  0  0  0  0  0  0
  137.0316   77.0088  222.8969 H   0  0  0  0  0  0  0  0  0  0  0  0
  137.9636   75.6621  223.2421 H   0  0  0  0  0  0  0  0  0  0  0  0
  138.2780   72.6500  222.6210 N   0  0  0  0  0  0  0  0  0  0  0  0
  137.5120   72.1210  223.0900 H   0  0  0  0  0  0  0  0  0  0  0  0
  139.6120   69.8360  223.3910 C   0  0  0  0  0  0  0  0  0  0  0  0
  140.5665   69.3366  223.1683 H   0  0  0  0  0  0  0  0  0  0  0  0
  138.9763   69.8215  222.4934 H   0  0  0  0  0  0  0  0  0  0  0  0
  138.9080   69.1060  224.5290 C   0  0  0  0  0  0  0  0  0  0  0  0
  138.8706   68.0315  224.2966 H   0  0  0  0  0  0  0  0  0  0  0  0
  137.8930   69.5177  224.6304 H   0  0  0  0  0  0  0  0  0  0  0  0
  1  2  1  0
  2  3  2  0
  3  4  1  0
  3  5  1  0
  5  6  1  0
  5  7  2  0
  7  8  1  0
  8  9  2  0
  9 10  1  0
  8 11  1  0
 11 12  1  0
 11 13  1  0
 11 14  1  0
 14 15  1  0
 15 16  2  0
 16 17  1  0
 17 18  1  0
 18 19  1  0
 19 20  1  0
 19 21  1  0
 19 22  1  0
 22 23  1  0
 22 24  1  0
 22 25  1  0
 25 26  1  0
 25 27  1  0
 25 28  1  0
 28 29  1  0
 28 30  1  0
 28 31  1  0
 31 32  1  0
 31 33  1  0
 17 34  2  0
 34 35  1  0
 35 36  2  0
 36 37  1  0
 36 38  1  0
 38 39  1  0
 38 40  1  0
 40 41  1  0
 40 42  1  0
 40 43  1  0
 43 44  1  0
 43 45  1  0
 43 46  1  0
 46 47  1  0
 46 48  1  0
 35 49  1  0
 49 50  1  0
 14 51  1  0
 51 52  1  0
 51 53  1  0
 51 54  1  0
 54 55  1  0
 54 56  1  0
  9  2  1  0
 49 15  1  0
 54  7  1  0
 31 18  1  0
 46 38  1  0
M  CHG  1  36   1
M  END
>  <UniqueID>  (64) 
486

>  <SMILES>  (64) 
c1ccc2c(c1)CCN(c1nc(N3CCCCC3)n/c(=[NH+]/C3CCC3)[nH]1)C2

>  <Energy>  (64) 
125.77127150498245

>  <Genealogy>  (64) 
c1ccc2c(c1)CCN(c1nc([NH2+]C3CCC3)nc(N3CCCCC3)n1)C2 (protonated)
c1ccc2c(c1)CCN(c1nc(N3CCCCC3)nc(=[NH+]C3CCC3)[nH]1)C2 (tautomer)
c1ccc2c(c1)CCN(c1nc(N3CCCCC3)n/c(=[NH+]/C3CCC3)[nH]1)C2 (cis-trans isomerization)
c1ccc2c(c1)CCN(c1nc(N3CCCCC3)n/c(=[NH+]/C3CCC3)[nH]1)C2 (3D coordinates assigned)
c1ccc2c(c1)CCN(c1nc(N3CCCCC3)n/c(=[NH+]/C3CCC3)[nH]1)C2 (nonaromatic ring conformer: 125.77127150498245 kcal/mol)

>  <smiles>  (64) 
c1ccc2c(c1)CCN(c1nc(NC3CCC3)nc(N3CCCCC3)n1)C2

>  <score_type>  (64) 
oracle

>  <origin>  (64) 
autodockgpu

>  <m_score__min__energy>  (64) 
-7.7999999999999998

>  <m_primary>  (64) 
energy

>  <meeko>  (64) 
{"free_energy": -7.37, "intermolecular_energy": -8.57, "internal_energy": -0.51, "cluster_size": 1, "cluster_id": 2, "rank_in_cluster": 1}

>  <energy>  (64) 
-7.8

>  <cluster_rmsd>  (64) 
0.2

>  <rmsd>  (64) 
270.5

>  <cluster>  (64) 
1

$$$$
JGFXCGHACWUNAV-YFNBPOHCNA-O
     RDKit          3D

 56 60  0  0  0  0  0  0  0  0999 V2000
  141.7524   81.3558  224.7653 H   0  0  0  0  0  0  0  0  0  0  0  0
  141.6790   80.7930  223.8230 C   0  0  0  0  0  0  0  0  0  0  0  0
  141.8480   81.4510  222.6040 C   0  0  0  0  0  0  0  0  0  0  0  0
  142.0562   82.5310  222.5868 H   0  0  0  0  0  0  0  0  0  0  0  0
  141.7530   80.7390  221.4050 C   0  0  0  0  0  0  0  0  0  0  0  0
  141.8986   81.2596  220.4470 H   0  0  0  0  0  0  0  0  0  0  0  0
  141.4730   79.3640  221.4160 C   0  0  0  0  0  0  0  0  0  0  0  0
  141.3240   78.6920  222.6530 C   0  0  0  0  0  0  0  0  0  0  0  0
  141.4170   79.4220  223.8490 C   0  0  0  0  0  0  0  0  0  0  0  0
  141.2825   78.9099  224.8132 H   0  0  0  0  0  0  0  0  0  0  0  0
  141.0160   77.2140  222.7230 C   0  0  0  0  0  0  0  0  0  0  0  0
  139.9993   77.0814  223.1213 H   0  0  0  0  0  0  0  0  0  0  0  0
  141.7637   76.7412  223.3768 H   0  0  0  0  0  0  0  0  0  0  0  0
  141.0960   76.5740  221.4050 N   0  0  0  0  0  0  0  0  0  0  0  0
  141.3520   75.1610  221.3160 C   0  0  0  0  0  0  0  0  0  0  0  0
  140.6150   74.2960  222.0610 N   0  0  0  0  0  0  0  0  0  0  0  0
  140.8420   72.9600  222.0020 C   0  0  0  0  0  0  0  0  0  0  0  0
  140.0530   72.0460  222.7900 N   0  0  0  0  0  0  0  0  0  0  0  0
  140.3260   71.8580  224.2240 C   0  0  0  0  0  0  0  0  0  0  0  0
  141.3499   72.1928  224.4465 H   0  0  0  0  0  0  0  0  0  0  0  0
  139.6045   72.4476  224.8086 H   0  0  0  0  0  0  0  0  0  0  0  0
  140.1840   70.3770  224.5970 C   0  0  0  0  0  0  0  0  0  0  0  0
  141.0066   69.8180  224.1271 H   0  0  0  0  0  0  0  0  0  0  0  0
  140.2139   70.3127  225.6947 H   0  0  0  0  0  0  0  0  0  0  0  0
  138.8450   69.7580  224.1380 C   0  0  0  0  0  0  0  0  0  0  0  0
  139.0613   68.8218  223.6024 H   0  0  0  0  0  0  0  0  0  0  0  0
  138.2404   69.5957  225.0425 H   0  0  0  0  0  0  0  0  0  0  0  0
  138.0270   70.6680  223.2110 C   0  0  0  0  0  0  0  0  0  0  0  0
  137.2685   70.0619  222.6940 H   0  0  0  0  0  0  0  0  0  0  0  0
  137.5541   71.4488  223.8247 H   0  0  0  0  0  0  0  0  0  0  0  0
  138.9150   71.3520  222.1650 C   0  0  0  0  0  0  0  0  0  0  0  0
  139.2992   70.5907  221.4702 H   0  0  0  0  0  0  0  0  0  0  0  0
  138.3070   72.0986  221.6330 H   0  0  0  0  0  0  0  0  0  0  0  0
  141.8190   72.4900  221.1840 N   0  0  0  0  0  0  0  0  0  0  0  0
  142.5770   73.3360  220.4370 C   0  0  0  0  0  0  0  0  0  0  0  0
  143.5100   72.8380  219.6670 N   0  0  0  0  0  0  0  0  0  0  0  0
  143.2530   72.0250  219.0600 H   0  0  0  0  0  0  0  0  0  0  0  0
  144.8950   73.3310  219.6160 C   0  0  0  0  0  0  0  0  0  0  0  0
  144.9292   73.7323  218.5924 H   0  0  0  0  0  0  0  0  0  0  0  0
  145.2660   74.2170  220.8060 C   0  0  0  0  0  0  0  0  0  0  0  0
  145.7147   75.1813  220.5254 H   0  0  0  0  0  0  0  0  0  0  0  0
  144.4880   74.5821  221.4925 H   0  0  0  0  0  0  0  0  0  0  0  0
  146.2740   73.1730  221.2680 C   0  0  0  0  0  0  0  0  0  0  0  0
  147.3171   73.5221  221.2584 H   0  0  0  0  0  0  0  0  0  0  0  0
  146.2319   72.7770  222.2934 H   0  0  0  0  0  0  0  0  0  0  0  0
  145.9060   72.2860  220.0870 C   0  0  0  0  0  0  0  0  0  0  0  0
  146.7323   72.1111  219.3822 H   0  0  0  0  0  0  0  0  0  0  0  0
  145.5941   71.2438  220.2498 H   0  0  0  0  0  0  0  0  0  0  0  0
  142.3450   74.6820  220.5150 N   0  0  0  0  0  0  0  0  0  0  0  0
  142.9350   75.3650  219.9940 H   0  0  0  0  0  0  0  0  0  0  0  0
  140.6200   77.3250  220.2410 C   0  0  0  0  0  0  0  0  0  0  0  0
  139.5554   77.5694  220.3713 H   0  0  0  0  0  0  0  0  0  0  0  0
  140.7452   76.7169  219.3329 H   0  0  0  0  0  0  0  0  0  0  0  0
  141.4260   78.6120  220.1100 C   0  0  0  0  0  0  0  0  0  0  0  0
  140.9597   79.2506  219.3453 H   0  0  0  0  0  0  0  0  0  0  0  0
  142.4550   78.3497  219.8231 H   0  0  0  0  0  0  0  0  0  0  0  0
  1  2  1  0
  2  3  2  0
  3  4  1  0
  3  5  1  0
  5  6  1  0
  5  7  2  0
  7  8  1  0
  8  9  2  0
  9 10  1  0
  8 11  1  0
 11 12  1  0
 11 13  1  0
 11 14  1  0
 14 15  1  0
 15 16  2  0
 16 17  1  0
 17 18  1  0
 18 19  1  0
 19 20  1  0
 19 21  1  0
 19 22  1  0
 22 23  1  0
 22 24  1  0
 22 25  1  0
 25 26  1  0
 25 27  1  0
 25 28  1  0
 28 29  1  0
 28 30  1  0
 28 31  1  0
 31 32  1  0
 31 33  1  0
 17 34  2  0
 34 35  1  0
 35 36  2  0
 36 37  1  0
 36 38  1  0
 38 39  1  0
 38 40  1  0
 40 41  1  0
 40 42  1  0
 40 43  1  0
 43 44  1  0
 43 45  1  0
 43 46  1  0
 46 47  1  0
 46 48  1  0
 35 49  1  0
 49 50  1  0
 14 51  1  0
 51 52  1  0
 51 53  1  0
 51 54  1  0
 54 55  1  0
 54 56  1  0
  9  2  1  0
 49 15  1  0
 54  7  1  0
 31 18  1  0
 46 38  1  0
M  CHG  1  36   1
M  END
>  <UniqueID>  (65) 
486

>  <SMILES>  (65) 
c1ccc2c(c1)CCN(c1nc(N3CCCCC3)n/c(=[NH+]/C3CCC3)[nH]1)C2

>  <Energy>  (65) 
125.77127150498245

>  <Genealogy>  (65) 
c1ccc2c(c1)CCN(c1nc([NH2+]C3CCC3)nc(N3CCCCC3)n1)C2 (protonated)
c1ccc2c(c1)CCN(c1nc(N3CCCCC3)nc(=[NH+]C3CCC3)[nH]1)C2 (tautomer)
c1ccc2c(c1)CCN(c1nc(N3CCCCC3)n/c(=[NH+]/C3CCC3)[nH]1)C2 (cis-trans isomerization)
c1ccc2c(c1)CCN(c1nc(N3CCCCC3)n/c(=[NH+]/C3CCC3)[nH]1)C2 (3D coordinates assigned)
c1ccc2c(c1)CCN(c1nc(N3CCCCC3)n/c(=[NH+]/C3CCC3)[nH]1)C2 (nonaromatic ring conformer: 125.77127150498245 kcal/mol)

>  <smiles>  (65) 
c1ccc2c(c1)CCN(c1nc(NC3CCC3)nc(N3CCCCC3)n1)C2

>  <score_type>  (65) 
oracle

>  <origin>  (65) 
autodockgpu

>  <m_score__min__energy>  (65) 
-7.7999999999999998

>  <m_primary>  (65) 
energy

>  <meeko>  (65) 
{"free_energy": -7.8, "intermolecular_energy": -8.99, "internal_energy": -0.44, "cluster_size": 19, "cluster_id": 1, "rank_in_cluster": 2}

>  <energy>  (65) 
-7.8

>  <cluster_rmsd>  (65) 
0.04

>  <rmsd>  (65) 
270.52

>  <cluster>  (65) 
1

$$$$
JGFXCGHACWUNAV-YFNBPOHCNA-O
     RDKit          3D

 56 60  0  0  0  0  0  0  0  0999 V2000
  141.7653   81.3052  224.8018 H   0  0  0  0  0  0  0  0  0  0  0  0
  141.6920   80.7570  223.8510 C   0  0  0  0  0  0  0  0  0  0  0  0
  141.8450   81.4360  222.6420 C   0  0  0  0  0  0  0  0  0  0  0  0
  142.0415   82.5183  222.6410 H   0  0  0  0  0  0  0  0  0  0  0  0
  141.7490   80.7430  221.4320 C   0  0  0  0  0  0  0  0  0  0  0  0
  141.8812   81.2812  220.4818 H   0  0  0  0  0  0  0  0  0  0  0  0
  141.4850   79.3650  221.4220 C   0  0  0  0  0  0  0  0  0  0  0  0
  141.3520   78.6710  222.6490 C   0  0  0  0  0  0  0  0  0  0  0  0
  141.4460   79.3830  223.8560 C   0  0  0  0  0  0  0  0  0  0  0  0
  141.3248   78.8538  224.8127 H   0  0  0  0  0  0  0  0  0  0  0  0
  141.0610   77.1890  222.6970 C   0  0  0  0  0  0  0  0  0  0  0  0
  140.0486   77.0386  223.1000 H   0  0  0  0  0  0  0  0  0  0  0  0
  141.8184   76.7142  223.3380 H   0  0  0  0  0  0  0  0  0  0  0  0
  141.1390   76.5710  221.3680 N   0  0  0  0  0  0  0  0  0  0  0  0
  141.4110   75.1630  221.2540 C   0  0  0  0  0  0  0  0  0  0  0  0
  140.6810   74.2770  221.9810 N   0  0  0  0  0  0  0  0  0  0  0  0
  140.9220   72.9450  221.8970 C   0  0  0  0  0  0  0  0  0  0  0  0
  140.1410   72.0080  222.6660 N   0  0  0  0  0  0  0  0  0  0  0  0
  138.9000   71.4340  222.1210 C   0  0  0  0  0  0  0  0  0  0  0  0
  138.5310   72.0731  221.3053 H   0  0  0  0  0  0  0  0  0  0  0  0
  139.1076   70.4234  221.7396 H   0  0  0  0  0  0  0  0  0  0  0  0
  137.8340   71.3470  223.2190 C   0  0  0  0  0  0  0  0  0  0  0  0
  137.5225   72.3680  223.4844 H   0  0  0  0  0  0  0  0  0  0  0  0
  137.0018   70.7500  222.8177 H   0  0  0  0  0  0  0  0  0  0  0  0
  138.3290   70.6380  224.4980 C   0  0  0  0  0  0  0  0  0  0  0  0
  138.0850   71.2722  225.3630 H   0  0  0  0  0  0  0  0  0  0  0  0
  137.8259   69.6606  224.5385 H   0  0  0  0  0  0  0  0  0  0  0  0
  139.8410   70.3650  224.5080 C   0  0  0  0  0  0  0  0  0  0  0  0
  140.1585   70.1513  225.5393 H   0  0  0  0  0  0  0  0  0  0  0  0
  140.0403   69.5062  223.8501 H   0  0  0  0  0  0  0  0  0  0  0  0
  140.6340   71.5670  223.9820 C   0  0  0  0  0  0  0  0  0  0  0  0
  140.5379   72.3982  224.6961 H   0  0  0  0  0  0  0  0  0  0  0  0
  141.6856   71.2636  223.8714 H   0  0  0  0  0  0  0  0  0  0  0  0
  141.9060   72.5000  221.0740 N   0  0  0  0  0  0  0  0  0  0  0  0
  142.6570   73.3680  220.3450 C   0  0  0  0  0  0  0  0  0  0  0  0
  143.5970   72.8940  219.5680 N   0  0  0  0  0  0  0  0  0  0  0  0
  143.3310   72.1430  218.8890 H   0  0  0  0  0  0  0  0  0  0  0  0
  145.0010   73.3300  219.6030 C   0  0  0  0  0  0  0  0  0  0  0  0
  145.1050   73.7590  218.5955 H   0  0  0  0  0  0  0  0  0  0  0  0
  145.3440   74.1640  220.8380 C   0  0  0  0  0  0  0  0  0  0  0  0
  145.8446   75.1169  220.6115 H   0  0  0  0  0  0  0  0  0  0  0  0
  144.5459   74.5401  221.4950 H   0  0  0  0  0  0  0  0  0  0  0  0
  146.2840   73.0670  221.3180 C   0  0  0  0  0  0  0  0  0  0  0  0
  147.3392   73.3729  221.3723 H   0  0  0  0  0  0  0  0  0  0  0  0
  146.1731   72.6435  222.3271 H   0  0  0  0  0  0  0  0  0  0  0  0
  145.9430   72.2310  220.0930 C   0  0  0  0  0  0  0  0  0  0  0  0
  146.7974   72.0421  219.4265 H   0  0  0  0  0  0  0  0  0  0  0  0
  145.5811   71.1986  220.2075 H   0  0  0  0  0  0  0  0  0  0  0  0
  142.4100   74.7100  220.4460 N   0  0  0  0  0  0  0  0  0  0  0  0
  142.9950   75.4070  219.9390 H   0  0  0  0  0  0  0  0  0  0  0  0
  140.6460   77.3350  220.2190 C   0  0  0  0  0  0  0  0  0  0  0  0
  139.5797   77.5652  220.3603 H   0  0  0  0  0  0  0  0  0  0  0  0
  140.7711   76.7431  219.3003 H   0  0  0  0  0  0  0  0  0  0  0  0
  141.4370   78.6330  220.1040 C   0  0  0  0  0  0  0  0  0  0  0  0
  140.9585   79.2787  219.3529 H   0  0  0  0  0  0  0  0  0  0  0  0
  142.4669   78.3864  219.8065 H   0  0  0  0  0  0  0  0  0  0  0  0
  1  2  1  0
  2  3  2  0
  3  4  1  0
  3  5  1  0
  5  6  1  0
  5  7  2  0
  7  8  1  0
  8  9  2  0
  9 10  1  0
  8 11  1  0
 11 12  1  0
 11 13  1  0
 11 14  1  0
 14 15  1  0
 15 16  2  0
 16 17  1  0
 17 18  1  0
 18 19  1  0
 19 20  1  0
 19 21  1  0
 19 22  1  0
 22 23  1  0
 22 24  1  0
 22 25  1  0
 25 26  1  0
 25 27  1  0
 25 28  1  0
 28 29  1  0
 28 30  1  0
 28 31  1  0
 31 32  1  0
 31 33  1  0
 17 34  2  0
 34 35  1  0
 35 36  2  0
 36 37  1  0
 36 38  1  0
 38 39  1  0
 38 40  1  0
 40 41  1  0
 40 42  1  0
 40 43  1  0
 43 44  1  0
 43 45  1  0
 43 46  1  0
 46 47  1  0
 46 48  1  0
 35 49  1  0
 49 50  1  0
 14 51  1  0
 51 52  1  0
 51 53  1  0
 51 54  1  0
 54 55  1  0
 54 56  1  0
  9  2  1  0
 49 15  1  0
 54  7  1  0
 31 18  1  0
 46 38  1  0
M  CHG  1  36   1
M  END
>  <UniqueID>  (66) 
486

>  <SMILES>  (66) 
c1ccc2c(c1)CCN(c1nc(N3CCCCC3)n/c(=[NH+]/C3CCC3)[nH]1)C2

>  <Energy>  (66) 
125.77127150498245

>  <Genealogy>  (66) 
c1ccc2c(c1)CCN(c1nc([NH2+]C3CCC3)nc(N3CCCCC3)n1)C2 (protonated)
c1ccc2c(c1)CCN(c1nc(N3CCCCC3)nc(=[NH+]C3CCC3)[nH]1)C2 (tautomer)
c1ccc2c(c1)CCN(c1nc(N3CCCCC3)n/c(=[NH+]/C3CCC3)[nH]1)C2 (cis-trans isomerization)
c1ccc2c(c1)CCN(c1nc(N3CCCCC3)n/c(=[NH+]/C3CCC3)[nH]1)C2 (3D coordinates assigned)
c1ccc2c(c1)CCN(c1nc(N3CCCCC3)n/c(=[NH+]/C3CCC3)[nH]1)C2 (nonaromatic ring conformer: 125.77127150498245 kcal/mol)

>  <smiles>  (66) 
c1ccc2c(c1)CCN(c1nc(NC3CCC3)nc(N3CCCCC3)n1)C2

>  <score_type>  (66) 
oracle

>  <origin>  (66) 
autodockgpu

>  <m_score__min__energy>  (66) 
-7.7999999999999998

>  <m_primary>  (66) 
energy

>  <meeko>  (66) 
{"free_energy": -7.73, "intermolecular_energy": -8.93, "internal_energy": -0.46, "cluster_size": 19, "cluster_id": 1, "rank_in_cluster": 9}

>  <energy>  (66) 
-7.79

>  <cluster_rmsd>  (66) 
0.08

>  <rmsd>  (66) 
270.53

>  <cluster>  (66) 
1

$$$$
JGFXCGHACWUNAV-YFNBPOHCNA-O
     RDKit          3D

 56 60  0  0  0  0  0  0  0  0999 V2000
  141.6879   80.9457  224.7375 H   0  0  0  0  0  0  0  0  0  0  0  0
  141.7070   80.3530  223.8110 C   0  0  0  0  0  0  0  0  0  0  0  0
  142.1220   80.9420  222.6160 C   0  0  0  0  0  0  0  0  0  0  0  0
  142.4314   81.9975  222.6022 H   0  0  0  0  0  0  0  0  0  0  0  0
  142.1450   80.1920  221.4360 C   0  0  0  0  0  0  0  0  0  0  0  0
  142.4833   80.6576  220.4986 H   0  0  0  0  0  0  0  0  0  0  0  0
  141.7390   78.8490  221.4410 C   0  0  0  0  0  0  0  0  0  0  0  0
  141.3390   78.2450  222.6570 C   0  0  0  0  0  0  0  0  0  0  0  0
  141.3160   79.0130  223.8330 C   0  0  0  0  0  0  0  0  0  0  0  0
  140.9876   78.5553  224.7778 H   0  0  0  0  0  0  0  0  0  0  0  0
  140.8860   76.8050  222.7190 C   0  0  0  0  0  0  0  0  0  0  0  0
  139.8124   76.7802  222.9572 H   0  0  0  0  0  0  0  0  0  0  0  0
  141.4769   76.2955  223.4944 H   0  0  0  0  0  0  0  0  0  0  0  0
  141.1060   76.1050  221.4470 N   0  0  0  0  0  0  0  0  0  0  0  0
  141.2400   74.6730  221.4380 C   0  0  0  0  0  0  0  0  0  0  0  0
  140.5110   73.9250  222.3070 N   0  0  0  0  0  0  0  0  0  0  0  0
  140.6240   72.5730  222.3240 C   0  0  0  0  0  0  0  0  0  0  0  0
  139.8440   71.7840  223.2450 N   0  0  0  0  0  0  0  0  0  0  0  0
  140.3280   71.5190  224.6090 C   0  0  0  0  0  0  0  0  0  0  0  0
  141.4164   71.6742  224.6454 H   0  0  0  0  0  0  0  0  0  0  0  0
  139.8285   72.2058  225.3081 H   0  0  0  0  0  0  0  0  0  0  0  0
  140.0080   70.0740  225.0100 C   0  0  0  0  0  0  0  0  0  0  0  0
  140.6306   69.3980  224.4056 H   0  0  0  0  0  0  0  0  0  0  0  0
  140.2180   69.9805  226.0857 H   0  0  0  0  0  0  0  0  0  0  0  0
  138.5260   69.6950  224.7990 C   0  0  0  0  0  0  0  0  0  0  0  0
  138.4860   68.7491  224.2389 H   0  0  0  0  0  0  0  0  0  0  0  0
  138.0707   69.6121  225.7969 H   0  0  0  0  0  0  0  0  0  0  0  0
  137.7220   70.7500  224.0260 C   0  0  0  0  0  0  0  0  0  0  0  0
  136.7938   70.2906  223.6554 H   0  0  0  0  0  0  0  0  0  0  0  0
  137.5021   71.5837  224.7091 H   0  0  0  0  0  0  0  0  0  0  0  0
  138.5140   71.3020  222.8350 C   0  0  0  0  0  0  0  0  0  0  0  0
  138.6381   70.5040  222.0881 H   0  0  0  0  0  0  0  0  0  0  0  0
  137.9552   72.1507  222.4139 H   0  0  0  0  0  0  0  0  0  0  0  0
  141.4760   71.9680  221.4580 N   0  0  0  0  0  0  0  0  0  0  0  0
  142.2240   72.6960  220.5860 C   0  0  0  0  0  0  0  0  0  0  0  0
  143.0350   72.0710  219.7730 N   0  0  0  0  0  0  0  0  0  0  0  0
  142.6140   71.3940  219.0950 H   0  0  0  0  0  0  0  0  0  0  0  0
  144.4970   72.2400  219.7660 C   0  0  0  0  0  0  0  0  0  0  0  0
  144.8070   71.3012  219.2839 H   0  0  0  0  0  0  0  0  0  0  0  0
  144.9470   73.5860  219.1970 C   0  0  0  0  0  0  0  0  0  0  0  0
  145.7121   73.5081  218.4105 H   0  0  0  0  0  0  0  0  0  0  0  0
  144.2305   74.2384  218.6763 H   0  0  0  0  0  0  0  0  0  0  0  0
  145.4960   73.9780  220.5620 C   0  0  0  0  0  0  0  0  0  0  0  0
  146.5854   74.1295  220.5804 H   0  0  0  0  0  0  0  0  0  0  0  0
  145.1812   74.9187  221.0375 H   0  0  0  0  0  0  0  0  0  0  0  0
  145.0460   72.6410  221.1330 C   0  0  0  0  0  0  0  0  0  0  0  0
  145.8697   72.0053  221.4899 H   0  0  0  0  0  0  0  0  0  0  0  0
  144.4013   72.6053  222.0235 H   0  0  0  0  0  0  0  0  0  0  0  0
  142.1090   74.0600  220.5870 N   0  0  0  0  0  0  0  0  0  0  0  0
  142.6990   74.6530  219.9660 H   0  0  0  0  0  0  0  0  0  0  0  0
  140.8870   76.8470  220.2030 C   0  0  0  0  0  0  0  0  0  0  0  0
  139.8431   77.1911  220.1591 H   0  0  0  0  0  0  0  0  0  0  0  0
  141.0912   76.1929  219.3425 H   0  0  0  0  0  0  0  0  0  0  0  0
  141.8220   78.0500  220.1640 C   0  0  0  0  0  0  0  0  0  0  0  0
  141.5411   78.6952  219.3185 H   0  0  0  0  0  0  0  0  0  0  0  0
  142.8533   77.6852  220.0486 H   0  0  0  0  0  0  0  0  0  0  0  0
  1  2  1  0
  2  3  2  0
  3  4  1  0
  3  5  1  0
  5  6  1  0
  5  7  2  0
  7  8  1  0
  8  9  2  0
  9 10  1  0
  8 11  1  0
 11 12  1  0
 11 13  1  0
 11 14  1  0
 14 15  1  0
 15 16  2  0
 16 17  1  0
 17 18  1  0
 18 19  1  0
 19 20  1  0
 19 21  1  0
 19 22  1  0
 22 23  1  0
 22 24  1  0
 22 25  1  0
 25 26  1  0
 25 27  1  0
 25 28  1  0
 28 29  1  0
 28 30  1  0
 28 31  1  0
 31 32  1  0
 31 33  1  0
 17 34  2  0
 34 35  1  0
 35 36  2  0
 36 37  1  0
 36 38  1  0
 38 39  1  0
 38 40  1  0
 40 41  1  0
 40 42  1  0
 40 43  1  0
 43 44  1  0
 43 45  1  0
 43 46  1  0
 46 47  1  0
 46 48  1  0
 35 49  1  0
 49 50  1  0
 14 51  1  0
 51 52  1  0
 51 53  1  0
 51 54  1  0
 54 55  1  0
 54 56  1  0
  9  2  1  0
 49 15  1  0
 54  7  1  0
 31 18  1  0
 46 38  1  0
M  CHG  1  36   1
M  END
>  <UniqueID>  (67) 
486

>  <SMILES>  (67) 
c1ccc2c(c1)CCN(c1nc(N3CCCCC3)n/c(=[NH+]/C3CCC3)[nH]1)C2

>  <Energy>  (67) 
125.77127150498245

>  <Genealogy>  (67) 
c1ccc2c(c1)CCN(c1nc([NH2+]C3CCC3)nc(N3CCCCC3)n1)C2 (protonated)
c1ccc2c(c1)CCN(c1nc(N3CCCCC3)nc(=[NH+]C3CCC3)[nH]1)C2 (tautomer)
c1ccc2c(c1)CCN(c1nc(N3CCCCC3)n/c(=[NH+]/C3CCC3)[nH]1)C2 (cis-trans isomerization)
c1ccc2c(c1)CCN(c1nc(N3CCCCC3)n/c(=[NH+]/C3CCC3)[nH]1)C2 (3D coordinates assigned)
c1ccc2c(c1)CCN(c1nc(N3CCCCC3)n/c(=[NH+]/C3CCC3)[nH]1)C2 (nonaromatic ring conformer: 125.77127150498245 kcal/mol)

>  <smiles>  (67) 
c1ccc2c(c1)CCN(c1nc(NC3CCC3)nc(N3CCCCC3)n1)C2

>  <score_type>  (67) 
oracle

>  <origin>  (67) 
autodockgpu

>  <m_score__min__energy>  (67) 
-7.7999999999999998

>  <m_primary>  (67) 
energy

>  <meeko>  (67) 
{"free_energy": -7.58, "intermolecular_energy": -8.77, "internal_energy": -0.57, "cluster_size": 19, "cluster_id": 1, "rank_in_cluster": 16}

>  <energy>  (67) 
-7.79

>  <cluster_rmsd>  (67) 
0.05

>  <rmsd>  (67) 
270.52

>  <cluster>  (67) 
1

$$$$
JGFXCGHACWUNAV-YFNBPOHCNA-O
     RDKit          3D

 56 60  0  0  0  0  0  0  0  0999 V2000
  141.8773   81.2589  224.8035 H   0  0  0  0  0  0  0  0  0  0  0  0
  141.7780   80.7090  223.8560 C   0  0  0  0  0  0  0  0  0  0  0  0
  141.9180   81.3820  222.6420 C   0  0  0  0  0  0  0  0  0  0  0  0
  142.1295   82.4615  222.6338 H   0  0  0  0  0  0  0  0  0  0  0  0
  141.7900   80.6870  221.4360 C   0  0  0  0  0  0  0  0  0  0  0  0
  141.9124   81.2202  220.4817 H   0  0  0  0  0  0  0  0  0  0  0  0
  141.5060   79.3120  221.4360 C   0  0  0  0  0  0  0  0  0  0  0  0
  141.3860   78.6240  222.6670 C   0  0  0  0  0  0  0  0  0  0  0  0
  141.5120   79.3380  223.8700 C   0  0  0  0  0  0  0  0  0  0  0  0
  141.4003   78.8134  224.8304 H   0  0  0  0  0  0  0  0  0  0  0  0
  141.0750   77.1470  222.7250 C   0  0  0  0  0  0  0  0  0  0  0  0
  140.0683   77.0122  223.1474 H   0  0  0  0  0  0  0  0  0  0  0  0
  141.8377   76.6633  223.3530 H   0  0  0  0  0  0  0  0  0  0  0  0
  141.1190   76.5240  221.3970 N   0  0  0  0  0  0  0  0  0  0  0  0
  141.3690   75.1110  221.2830 C   0  0  0  0  0  0  0  0  0  0  0  0
  140.6010   74.2350  221.9800 N   0  0  0  0  0  0  0  0  0  0  0  0
  140.8200   72.8990  221.8960 C   0  0  0  0  0  0  0  0  0  0  0  0
  139.9980   71.9730  222.6350 N   0  0  0  0  0  0  0  0  0  0  0  0
  138.8060   71.3660  222.0200 C   0  0  0  0  0  0  0  0  0  0  0  0
  138.4879   71.9769  221.1623 H   0  0  0  0  0  0  0  0  0  0  0  0
  139.0529   70.3484  221.6831 H   0  0  0  0  0  0  0  0  0  0  0  0
  137.6660   71.2940  223.0420 C   0  0  0  0  0  0  0  0  0  0  0  0
  137.3239   72.3173  223.2561 H   0  0  0  0  0  0  0  0  0  0  0  0
  136.8712   70.6751  222.6003 H   0  0  0  0  0  0  0  0  0  0  0  0
  138.0790   70.6270  224.3720 C   0  0  0  0  0  0  0  0  0  0  0  0
  137.7669   71.2809  225.1996 H   0  0  0  0  0  0  0  0  0  0  0  0
  137.5868   69.6438  224.4041 H   0  0  0  0  0  0  0  0  0  0  0  0
  139.5890   70.3760  224.4960 C   0  0  0  0  0  0  0  0  0  0  0  0
  139.8354   70.1947  225.5526 H   0  0  0  0  0  0  0  0  0  0  0  0
  139.8450   69.5027  223.8781 H   0  0  0  0  0  0  0  0  0  0  0  0
  140.4020   71.5740  223.9940 C   0  0  0  0  0  0  0  0  0  0  0  0
  140.2456   72.4225  224.6764 H   0  0  0  0  0  0  0  0  0  0  0  0
  141.4623   71.2824  223.9658 H   0  0  0  0  0  0  0  0  0  0  0  0
  141.8210   72.4410  221.1010 N   0  0  0  0  0  0  0  0  0  0  0  0
  142.6110   73.2990  220.4020 C   0  0  0  0  0  0  0  0  0  0  0  0
  143.5660   72.8120  219.6520 N   0  0  0  0  0  0  0  0  0  0  0  0
  143.3320   71.9960  219.0400 H   0  0  0  0  0  0  0  0  0  0  0  0
  144.9460   73.3210  219.6320 C   0  0  0  0  0  0  0  0  0  0  0  0
  144.9913   73.7415  218.6166 H   0  0  0  0  0  0  0  0  0  0  0  0
  145.2880   74.1890  220.8430 C   0  0  0  0  0  0  0  0  0  0  0  0
  145.7292   75.1636  220.5870 H   0  0  0  0  0  0  0  0  0  0  0  0
  144.4953   74.5323  221.5240 H   0  0  0  0  0  0  0  0  0  0  0  0
  146.3010   73.1490  221.3010 C   0  0  0  0  0  0  0  0  0  0  0  0
  147.3399   73.5103  221.3137 H   0  0  0  0  0  0  0  0  0  0  0  0
  146.2485   72.7336  222.3182 H   0  0  0  0  0  0  0  0  0  0  0  0
  145.9610   72.2800  220.0980 C   0  0  0  0  0  0  0  0  0  0  0  0
  146.7996   72.1279  219.4026 H   0  0  0  0  0  0  0  0  0  0  0  0
  145.6590   71.2314  220.2366 H   0  0  0  0  0  0  0  0  0  0  0  0
  142.3850   74.6450  220.5040 N   0  0  0  0  0  0  0  0  0  0  0  0
  142.9980   75.3340  220.0200 H   0  0  0  0  0  0  0  0  0  0  0  0
  140.6160   77.2920  220.2550 C   0  0  0  0  0  0  0  0  0  0  0  0
  139.5560   77.5385  220.4155 H   0  0  0  0  0  0  0  0  0  0  0  0
  140.7152   76.6957  219.3360 H   0  0  0  0  0  0  0  0  0  0  0  0
  141.4240   78.5780  220.1210 C   0  0  0  0  0  0  0  0  0  0  0  0
  140.9415   79.2286  219.3767 H   0  0  0  0  0  0  0  0  0  0  0  0
  142.4445   78.3160  219.8049 H   0  0  0  0  0  0  0  0  0  0  0  0
  1  2  1  0
  2  3  2  0
  3  4  1  0
  3  5  1  0
  5  6  1  0
  5  7  2  0
  7  8  1  0
  8  9  2  0
  9 10  1  0
  8 11  1  0
 11 12  1  0
 11 13  1  0
 11 14  1  0
 14 15  1  0
 15 16  2  0
 16 17  1  0
 17 18  1  0
 18 19  1  0
 19 20  1  0
 19 21  1  0
 19 22  1  0
 22 23  1  0
 22 24  1  0
 22 25  1  0
 25 26  1  0
 25 27  1  0
 25 28  1  0
 28 29  1  0
 28 30  1  0
 28 31  1  0
 31 32  1  0
 31 33  1  0
 17 34  2  0
 34 35  1  0
 35 36  2  0
 36 37  1  0
 36 38  1  0
 38 39  1  0
 38 40  1  0
 40 41  1  0
 40 42  1  0
 40 43  1  0
 43 44  1  0
 43 45  1  0
 43 46  1  0
 46 47  1  0
 46 48  1  0
 35 49  1  0
 49 50  1  0
 14 51  1  0
 51 52  1  0
 51 53  1  0
 51 54  1  0
 54 55  1  0
 54 56  1  0
  9  2  1  0
 49 15  1  0
 54  7  1  0
 31 18  1  0
 46 38  1  0
M  CHG  1  36   1
M  END
>  <UniqueID>  (68) 
486

>  <SMILES>  (68) 
c1ccc2c(c1)CCN(c1nc(N3CCCCC3)n/c(=[NH+]/C3CCC3)[nH]1)C2

>  <Energy>  (68) 
125.77127150498245

>  <Genealogy>  (68) 
c1ccc2c(c1)CCN(c1nc([NH2+]C3CCC3)nc(N3CCCCC3)n1)C2 (protonated)
c1ccc2c(c1)CCN(c1nc(N3CCCCC3)nc(=[NH+]C3CCC3)[nH]1)C2 (tautomer)
c1ccc2c(c1)CCN(c1nc(N3CCCCC3)n/c(=[NH+]/C3CCC3)[nH]1)C2 (cis-trans isomerization)
c1ccc2c(c1)CCN(c1nc(N3CCCCC3)n/c(=[NH+]/C3CCC3)[nH]1)C2 (3D coordinates assigned)
c1ccc2c(c1)CCN(c1nc(N3CCCCC3)n/c(=[NH+]/C3CCC3)[nH]1)C2 (nonaromatic ring conformer: 125.77127150498245 kcal/mol)

>  <smiles>  (68) 
c1ccc2c(c1)CCN(c1nc(NC3CCC3)nc(N3CCCCC3)n1)C2

>  <score_type>  (68) 
oracle

>  <origin>  (68) 
autodockgpu

>  <m_score__min__energy>  (68) 
-7.7999999999999998

>  <m_primary>  (68) 
energy

>  <meeko>  (68) 
{"free_energy": -7.76, "intermolecular_energy": -8.96, "internal_energy": -0.43, "cluster_size": 19, "cluster_id": 1, "rank_in_cluster": 8}

>  <energy>  (68) 
-7.76

>  <cluster_rmsd>  (68) 
0.29

>  <rmsd>  (68) 
270.48

>  <cluster>  (68) 
1

$$$$
JGFXCGHACWUNAV-YFNBPOHCNA-O
     RDKit          3D

 56 60  0  0  0  0  0  0  0  0999 V2000
  141.7376   81.3996  224.7894 H   0  0  0  0  0  0  0  0  0  0  0  0
  141.6760   80.8390  223.8450 C   0  0  0  0  0  0  0  0  0  0  0  0
  141.8690   81.4980  222.6300 C   0  0  0  0  0  0  0  0  0  0  0  0
  142.0843   82.5767  222.6181 H   0  0  0  0  0  0  0  0  0  0  0  0
  141.7890   80.7890  221.4290 C   0  0  0  0  0  0  0  0  0  0  0  0
  141.9535   81.3106  220.4746 H   0  0  0  0  0  0  0  0  0  0  0  0
  141.5000   79.4150  221.4320 C   0  0  0  0  0  0  0  0  0  0  0  0
  141.3260   78.7420  222.6660 C   0  0  0  0  0  0  0  0  0  0  0  0
  141.4050   79.4700  223.8640 C   0  0  0  0  0  0  0  0  0  0  0  0
  141.2521   78.9573  224.8251 H   0  0  0  0  0  0  0  0  0  0  0  0
  141.0080   77.2660  222.7280 C   0  0  0  0  0  0  0  0  0  0  0  0
  139.9843   77.1388  223.1099 H   0  0  0  0  0  0  0  0  0  0  0  0
  141.7423   76.7874  223.3926 H   0  0  0  0  0  0  0  0  0  0  0  0
  141.1050   76.6280  221.4100 N   0  0  0  0  0  0  0  0  0  0  0  0
  141.3540   75.2130  221.3230 C   0  0  0  0  0  0  0  0  0  0  0  0
  140.6080   74.3530  222.0640 N   0  0  0  0  0  0  0  0  0  0  0  0
  140.8280   73.0160  222.0050 C   0  0  0  0  0  0  0  0  0  0  0  0
  140.0290   72.1060  222.7890 N   0  0  0  0  0  0  0  0  0  0  0  0
  140.3190   71.8850  224.2150 C   0  0  0  0  0  0  0  0  0  0  0  0
  141.3540   72.1911  224.4275 H   0  0  0  0  0  0  0  0  0  0  0  0
  139.6206   72.4808  224.8210 H   0  0  0  0  0  0  0  0  0  0  0  0
  140.1470   70.4020  224.5640 C   0  0  0  0  0  0  0  0  0  0  0  0
  140.9490   69.8322  224.0720 H   0  0  0  0  0  0  0  0  0  0  0  0
  140.1912   70.3178  225.6599 H   0  0  0  0  0  0  0  0  0  0  0  0
  138.7880   69.8230  224.1150 C   0  0  0  0  0  0  0  0  0  0  0  0
  138.9743   68.8922  223.5593 H   0  0  0  0  0  0  0  0  0  0  0  0
  138.1936   69.6581  225.0258 H   0  0  0  0  0  0  0  0  0  0  0  0
  137.9770   70.7690  223.2170 C   0  0  0  0  0  0  0  0  0  0  0  0
  137.1964   70.1904  222.7014 H   0  0  0  0  0  0  0  0  0  0  0  0
  137.5319   71.5495  223.8516 H   0  0  0  0  0  0  0  0  0  0  0  0
  138.8650   71.4500  222.1700 C   0  0  0  0  0  0  0  0  0  0  0  0
  139.2203   70.6922  221.4562 H   0  0  0  0  0  0  0  0  0  0  0  0
  138.2670   72.2202  221.6609 H   0  0  0  0  0  0  0  0  0  0  0  0
  141.8070   72.5390  221.1930 N   0  0  0  0  0  0  0  0  0  0  0  0
  142.5740   73.3820  220.4510 C   0  0  0  0  0  0  0  0  0  0  0  0
  143.5080   72.8780  219.6860 N   0  0  0  0  0  0  0  0  0  0  0  0
  143.2510   72.0640  219.0810 H   0  0  0  0  0  0  0  0  0  0  0  0
  144.8940   73.3670  219.6390 C   0  0  0  0  0  0  0  0  0  0  0  0
  144.9254   73.7856  218.6223 H   0  0  0  0  0  0  0  0  0  0  0  0
  145.2730   74.2310  220.8420 C   0  0  0  0  0  0  0  0  0  0  0  0
  145.7243   75.1982  220.5758 H   0  0  0  0  0  0  0  0  0  0  0  0
  144.4987   74.5872  221.5374 H   0  0  0  0  0  0  0  0  0  0  0  0
  146.2780   73.1770  221.2830 C   0  0  0  0  0  0  0  0  0  0  0  0
  147.3223   73.5226  221.2756 H   0  0  0  0  0  0  0  0  0  0  0  0
  146.2380   72.7644  222.3019 H   0  0  0  0  0  0  0  0  0  0  0  0
  145.9030   72.3110  220.0890 C   0  0  0  0  0  0  0  0  0  0  0  0
  146.7262   72.1451  219.3785 H   0  0  0  0  0  0  0  0  0  0  0  0
  145.5882   71.2673  220.2356 H   0  0  0  0  0  0  0  0  0  0  0  0
  142.3490   74.7290  220.5270 N   0  0  0  0  0  0  0  0  0  0  0  0
  142.9460   75.4080  220.0090 H   0  0  0  0  0  0  0  0  0  0  0  0
  140.6530   77.3830  220.2390 C   0  0  0  0  0  0  0  0  0  0  0  0
  139.5879   77.6338  220.3515 H   0  0  0  0  0  0  0  0  0  0  0  0
  140.7892   76.7754  219.3322 H   0  0  0  0  0  0  0  0  0  0  0  0
  141.4700   78.6660  220.1240 C   0  0  0  0  0  0  0  0  0  0  0  0
  141.0206   79.3091  219.3530 H   0  0  0  0  0  0  0  0  0  0  0  0
  142.5019   78.3976  219.8537 H   0  0  0  0  0  0  0  0  0  0  0  0
  1  2  1  0
  2  3  2  0
  3  4  1  0
  3  5  1  0
  5  6  1  0
  5  7  2  0
  7  8  1  0
  8  9  2  0
  9 10  1  0
  8 11  1  0
 11 12  1  0
 11 13  1  0
 11 14  1  0
 14 15  1  0
 15 16  2  0
 16 17  1  0
 17 18  1  0
 18 19  1  0
 19 20  1  0
 19 21  1  0
 19 22  1  0
 22 23  1  0
 22 24  1  0
 22 25  1  0
 25 26  1  0
 25 27  1  0
 25 28  1  0
 28 29  1  0
 28 30  1  0
 28 31  1  0
 31 32  1  0
 31 33  1  0
 17 34  2  0
 34 35  1  0
 35 36  2  0
 36 37  1  0
 36 38  1  0
 38 39  1  0
 38 40  1  0
 40 41  1  0
 40 42  1  0
 40 43  1  0
 43 44  1  0
 43 45  1  0
 43 46  1  0
 46 47  1  0
 46 48  1  0
 35 49  1  0
 49 50  1  0
 14 51  1  0
 51 52  1  0
 51 53  1  0
 51 54  1  0
 54 55  1  0
 54 56  1  0
  9  2  1  0
 49 15  1  0
 54  7  1  0
 31 18  1  0
 46 38  1  0
M  CHG  1  36   1
M  END
>  <UniqueID>  (69) 
486

>  <SMILES>  (69) 
c1ccc2c(c1)CCN(c1nc(N3CCCCC3)n/c(=[NH+]/C3CCC3)[nH]1)C2

>  <Energy>  (69) 
125.77127150498245

>  <Genealogy>  (69) 
c1ccc2c(c1)CCN(c1nc([NH2+]C3CCC3)nc(N3CCCCC3)n1)C2 (protonated)
c1ccc2c(c1)CCN(c1nc(N3CCCCC3)nc(=[NH+]C3CCC3)[nH]1)C2 (tautomer)
c1ccc2c(c1)CCN(c1nc(N3CCCCC3)n/c(=[NH+]/C3CCC3)[nH]1)C2 (cis-trans isomerization)
c1ccc2c(c1)CCN(c1nc(N3CCCCC3)n/c(=[NH+]/C3CCC3)[nH]1)C2 (3D coordinates assigned)
c1ccc2c(c1)CCN(c1nc(N3CCCCC3)n/c(=[NH+]/C3CCC3)[nH]1)C2 (nonaromatic ring conformer: 125.77127150498245 kcal/mol)

>  <smiles>  (69) 
c1ccc2c(c1)CCN(c1nc(NC3CCC3)nc(N3CCCCC3)n1)C2

>  <score_type>  (69) 
oracle

>  <origin>  (69) 
autodockgpu

>  <m_score__min__energy>  (69) 
-7.7999999999999998

>  <m_primary>  (69) 
energy

>  <meeko>  (69) 
{"free_energy": -7.8, "intermolecular_energy": -8.99, "internal_energy": -0.44, "cluster_size": 19, "cluster_id": 1, "rank_in_cluster": 1}

>  <energy>  (69) 
-7.73

>  <cluster_rmsd>  (69) 
0.27

>  <rmsd>  (69) 
270.51

>  <cluster>  (69) 
1

$$$$
JGFXCGHACWUNAV-YFNBPOHCNA-O
     RDKit          3D

 56 60  0  0  0  0  0  0  0  0999 V2000
  141.7517   81.3900  224.7563 H   0  0  0  0  0  0  0  0  0  0  0  0
  141.6830   80.8250  223.8150 C   0  0  0  0  0  0  0  0  0  0  0  0
  141.8680   81.4780  222.5950 C   0  0  0  0  0  0  0  0  0  0  0  0
  142.0833   82.5566  222.5762 H   0  0  0  0  0  0  0  0  0  0  0  0
  141.7800   80.7630  221.3980 C   0  0  0  0  0  0  0  0  0  0  0  0
  141.9390   81.2796  220.4399 H   0  0  0  0  0  0  0  0  0  0  0  0
  141.4900   79.3900  221.4100 C   0  0  0  0  0  0  0  0  0  0  0  0
  141.3240   78.7230  222.6470 C   0  0  0  0  0  0  0  0  0  0  0  0
  141.4110   79.4560  223.8420 C   0  0  0  0  0  0  0  0  0  0  0  0
  141.2637   78.9476  224.8063 H   0  0  0  0  0  0  0  0  0  0  0  0
  141.0050   77.2480  222.7180 C   0  0  0  0  0  0  0  0  0  0  0  0
  139.9836   77.1238  223.1069 H   0  0  0  0  0  0  0  0  0  0  0  0
  141.7433   76.7721  223.3801 H   0  0  0  0  0  0  0  0  0  0  0  0
  141.0930   76.6030  221.4030 N   0  0  0  0  0  0  0  0  0  0  0  0
  141.3410   75.1880  221.3200 C   0  0  0  0  0  0  0  0  0  0  0  0
  140.5990   74.3310  222.0700 N   0  0  0  0  0  0  0  0  0  0  0  0
  140.8180   72.9940  222.0170 C   0  0  0  0  0  0  0  0  0  0  0  0
  140.0240   72.0890  222.8110 N   0  0  0  0  0  0  0  0  0  0  0  0
  140.3180   71.8810  224.2380 C   0  0  0  0  0  0  0  0  0  0  0  0
  141.3524   72.1925  224.4455 H   0  0  0  0  0  0  0  0  0  0  0  0
  139.6188   72.4794  224.8405 H   0  0  0  0  0  0  0  0  0  0  0  0
  140.1520   70.4000  224.6000 C   0  0  0  0  0  0  0  0  0  0  0  0
  140.9545   69.8287  224.1104 H   0  0  0  0  0  0  0  0  0  0  0  0
  140.1997   70.3250  225.6964 H   0  0  0  0  0  0  0  0  0  0  0  0
  138.7940   69.8130  224.1600 C   0  0  0  0  0  0  0  0  0  0  0  0
  138.9816   68.8779  223.6119 H   0  0  0  0  0  0  0  0  0  0  0  0
  138.2025   69.6539  225.0737 H   0  0  0  0  0  0  0  0  0  0  0  0
  137.9780   70.7490  223.2560 C   0  0  0  0  0  0  0  0  0  0  0  0
  137.1976   70.1637  222.7477 H   0  0  0  0  0  0  0  0  0  0  0  0
  137.5329   71.5338  223.8853 H   0  0  0  0  0  0  0  0  0  0  0  0
  138.8610   71.4240  222.2000 C   0  0  0  0  0  0  0  0  0  0  0  0
  139.2171   70.6613  221.4919 H   0  0  0  0  0  0  0  0  0  0  0  0
  138.2592   72.1874  221.6851 H   0  0  0  0  0  0  0  0  0  0  0  0
  141.7900   72.5130  221.2000 N   0  0  0  0  0  0  0  0  0  0  0  0
  142.5530   73.3510  220.4480 C   0  0  0  0  0  0  0  0  0  0  0  0
  143.4810   72.8430  219.6790 N   0  0  0  0  0  0  0  0  0  0  0  0
  143.2180   72.0300  219.0750 H   0  0  0  0  0  0  0  0  0  0  0  0
  144.8690   73.3260  219.6260 C   0  0  0  0  0  0  0  0  0  0  0  0
  144.9034   73.7283  218.6028 H   0  0  0  0  0  0  0  0  0  0  0  0
  145.2500   74.2080  220.8150 C   0  0  0  0  0  0  0  0  0  0  0  0
  145.7056   75.1688  220.5336 H   0  0  0  0  0  0  0  0  0  0  0  0
  144.4765   74.5789  221.5036 H   0  0  0  0  0  0  0  0  0  0  0  0
  146.2500   73.1570  221.2740 C   0  0  0  0  0  0  0  0  0  0  0  0
  147.2957   73.4981  221.2622 H   0  0  0  0  0  0  0  0  0  0  0  0
  146.2069   72.7611  222.2994 H   0  0  0  0  0  0  0  0  0  0  0  0
  145.8730   72.2730  220.0940 C   0  0  0  0  0  0  0  0  0  0  0  0
  146.6963   72.0921  219.3873 H   0  0  0  0  0  0  0  0  0  0  0  0
  145.5538   71.2330  220.2570 H   0  0  0  0  0  0  0  0  0  0  0  0
  142.3290   74.6990  220.5200 N   0  0  0  0  0  0  0  0  0  0  0  0
  142.9230   75.3750  219.9940 H   0  0  0  0  0  0  0  0  0  0  0  0
  140.6330   77.3540  220.2320 C   0  0  0  0  0  0  0  0  0  0  0  0
  139.5692   77.6069  220.3517 H   0  0  0  0  0  0  0  0  0  0  0  0
  140.7614   76.7423  219.3268 H   0  0  0  0  0  0  0  0  0  0  0  0
  141.4500   78.6340  220.1050 C   0  0  0  0  0  0  0  0  0  0  0  0
  140.9961   79.2739  219.3339 H   0  0  0  0  0  0  0  0  0  0  0  0
  142.4797   78.3629  219.8288 H   0  0  0  0  0  0  0  0  0  0  0  0
  1  2  1  0
  2  3  2  0
  3  4  1  0
  3  5  1  0
  5  6  1  0
  5  7  2  0
  7  8  1  0
  8  9  2  0
  9 10  1  0
  8 11  1  0
 11 12  1  0
 11 13  1  0
 11 14  1  0
 14 15  1  0
 15 16  2  0
 16 17  1  0
 17 18  1  0
 18 19  1  0
 19 20  1  0
 19 21  1  0
 19 22  1  0
 22 23  1  0
 22 24  1  0
 22 25  1  0
 25 26  1  0
 25 27  1  0
 25 28  1  0
 28 29  1  0
 28 30  1  0
 28 31  1  0
 31 32  1  0
 31 33  1  0
 17 34  2  0
 34 35  1  0
 35 36  2  0
 36 37  1  0
 36 38  1  0
 38 39  1  0
 38 40  1  0
 40 41  1  0
 40 42  1  0
 40 43  1  0
 43 44  1  0
 43 45  1  0
 43 46  1  0
 46 47  1  0
 46 48  1  0
 35 49  1  0
 49 50  1  0
 14 51  1  0
 51 52  1  0
 51 53  1  0
 51 54  1  0
 54 55  1  0
 54 56  1  0
  9  2  1  0
 49 15  1  0
 54  7  1  0
 31 18  1  0
 46 38  1  0
M  CHG  1  36   1
M  END
>  <UniqueID>  (70) 
486

>  <SMILES>  (70) 
c1ccc2c(c1)CCN(c1nc(N3CCCCC3)n/c(=[NH+]/C3CCC3)[nH]1)C2

>  <Energy>  (70) 
125.77127150498245

>  <Genealogy>  (70) 
c1ccc2c(c1)CCN(c1nc([NH2+]C3CCC3)nc(N3CCCCC3)n1)C2 (protonated)
c1ccc2c(c1)CCN(c1nc(N3CCCCC3)nc(=[NH+]C3CCC3)[nH]1)C2 (tautomer)
c1ccc2c(c1)CCN(c1nc(N3CCCCC3)n/c(=[NH+]/C3CCC3)[nH]1)C2 (cis-trans isomerization)
c1ccc2c(c1)CCN(c1nc(N3CCCCC3)n/c(=[NH+]/C3CCC3)[nH]1)C2 (3D coordinates assigned)
c1ccc2c(c1)CCN(c1nc(N3CCCCC3)n/c(=[NH+]/C3CCC3)[nH]1)C2 (nonaromatic ring conformer: 125.77127150498245 kcal/mol)

>  <smiles>  (70) 
c1ccc2c(c1)CCN(c1nc(NC3CCC3)nc(N3CCCCC3)n1)C2

>  <score_type>  (70) 
oracle

>  <origin>  (70) 
autodockgpu

>  <m_score__min__energy>  (70) 
-7.7999999999999998

>  <m_primary>  (70) 
energy

>  <meeko>  (70) 
{"free_energy": -7.8, "intermolecular_energy": -8.99, "internal_energy": -0.44, "cluster_size": 19, "cluster_id": 1, "rank_in_cluster": 5}

>  <energy>  (70) 
-7.68

>  <cluster_rmsd>  (70) 
0.59

>  <rmsd>  (70) 
270.45

>  <cluster>  (70) 
1

$$$$
JGFXCGHACWUNAV-YFNBPOHCNA-O
     RDKit          3D

 56 60  0  0  0  0  0  0  0  0999 V2000
  141.7134   81.3447  224.7812 H   0  0  0  0  0  0  0  0  0  0  0  0
  141.6520   80.7820  223.8380 C   0  0  0  0  0  0  0  0  0  0  0  0
  141.8330   81.4400  222.6210 C   0  0  0  0  0  0  0  0  0  0  0  0
  142.0390   82.5204  222.6063 H   0  0  0  0  0  0  0  0  0  0  0  0
  141.7530   80.7290  221.4210 C   0  0  0  0  0  0  0  0  0  0  0  0
  141.9080   81.2506  220.4650 H   0  0  0  0  0  0  0  0  0  0  0  0
  141.4760   79.3530  221.4280 C   0  0  0  0  0  0  0  0  0  0  0  0
  141.3150   78.6800  222.6630 C   0  0  0  0  0  0  0  0  0  0  0  0
  141.3930   79.4100  223.8600 C   0  0  0  0  0  0  0  0  0  0  0  0
  141.2490   78.8971  224.8224 H   0  0  0  0  0  0  0  0  0  0  0  0
  141.0090   77.2020  222.7290 C   0  0  0  0  0  0  0  0  0  0  0  0
  139.9881   77.0674  223.1158 H   0  0  0  0  0  0  0  0  0  0  0  0
  141.7502   76.7304  223.3910 H   0  0  0  0  0  0  0  0  0  0  0  0
  141.1050   76.5620  221.4110 N   0  0  0  0  0  0  0  0  0  0  0  0
  141.3660   75.1490  221.3250 C   0  0  0  0  0  0  0  0  0  0  0  0
  140.6310   74.2840  222.0700 N   0  0  0  0  0  0  0  0  0  0  0  0
  140.8620   72.9480  222.0130 C   0  0  0  0  0  0  0  0  0  0  0  0
  140.0750   72.0330  222.8010 N   0  0  0  0  0  0  0  0  0  0  0  0
  140.3400   71.8570  224.2390 C   0  0  0  0  0  0  0  0  0  0  0  0
  141.3597   72.2014  224.4663 H   0  0  0  0  0  0  0  0  0  0  0  0
  139.6104   72.4450  224.8151 H   0  0  0  0  0  0  0  0  0  0  0  0
  140.2070   70.3770  224.6200 C   0  0  0  0  0  0  0  0  0  0  0  0
  141.0371   69.8218  224.1587 H   0  0  0  0  0  0  0  0  0  0  0  0
  140.2298   70.3201  225.7183 H   0  0  0  0  0  0  0  0  0  0  0  0
  138.8770   69.7440  224.1570 C   0  0  0  0  0  0  0  0  0  0  0  0
  139.1045   68.8062  223.6290 H   0  0  0  0  0  0  0  0  0  0  0  0
  138.2680   69.5823  225.0586 H   0  0  0  0  0  0  0  0  0  0  0  0
  138.0570   70.6420  223.2180 C   0  0  0  0  0  0  0  0  0  0  0  0
  137.3066   70.0265  222.7002 H   0  0  0  0  0  0  0  0  0  0  0  0
  137.5737   71.4231  223.8233 H   0  0  0  0  0  0  0  0  0  0  0  0
  138.9470   71.3260  222.1730 C   0  0  0  0  0  0  0  0  0  0  0  0
  139.3419   70.5630  221.4861 H   0  0  0  0  0  0  0  0  0  0  0  0
  138.3369   72.0641  221.6317 H   0  0  0  0  0  0  0  0  0  0  0  0
  141.8410   72.4800  221.1970 N   0  0  0  0  0  0  0  0  0  0  0  0
  142.5980   73.3280  220.4490 C   0  0  0  0  0  0  0  0  0  0  0  0
  143.5320   72.8310  219.6810 N   0  0  0  0  0  0  0  0  0  0  0  0
  143.2760   72.0230  219.0670 H   0  0  0  0  0  0  0  0  0  0  0  0
  144.9190   73.3190  219.6400 C   0  0  0  0  0  0  0  0  0  0  0  0
  144.9572   73.7321  218.6212 H   0  0  0  0  0  0  0  0  0  0  0  0
  145.2900   74.1890  220.8420 C   0  0  0  0  0  0  0  0  0  0  0  0
  145.7426   75.1552  220.5746 H   0  0  0  0  0  0  0  0  0  0  0  0
  144.5115   74.5483  221.5312 H   0  0  0  0  0  0  0  0  0  0  0  0
  146.2930   73.1360  221.2930 C   0  0  0  0  0  0  0  0  0  0  0  0
  147.3373   73.4815  221.2902 H   0  0  0  0  0  0  0  0  0  0  0  0
  146.2471   72.7273  222.3132 H   0  0  0  0  0  0  0  0  0  0  0  0
  145.9250   72.2660  220.1010 C   0  0  0  0  0  0  0  0  0  0  0  0
  146.7525   72.0971  219.3962 H   0  0  0  0  0  0  0  0  0  0  0  0
  145.6090   71.2230  220.2504 H   0  0  0  0  0  0  0  0  0  0  0  0
  142.3610   74.6730  220.5250 N   0  0  0  0  0  0  0  0  0  0  0  0
  142.9500   75.3560  220.0030 H   0  0  0  0  0  0  0  0  0  0  0  0
  140.6410   77.3120  220.2420 C   0  0  0  0  0  0  0  0  0  0  0  0
  139.5745   77.5543  220.3602 H   0  0  0  0  0  0  0  0  0  0  0  0
  140.7779   76.7042  219.3354 H   0  0  0  0  0  0  0  0  0  0  0  0
  141.4460   78.6010  220.1200 C   0  0  0  0  0  0  0  0  0  0  0  0
  140.9872   79.2388  219.3501 H   0  0  0  0  0  0  0  0  0  0  0  0
  142.4788   78.3413  219.8444 H   0  0  0  0  0  0  0  0  0  0  0  0
  1  2  1  0
  2  3  2  0
  3  4  1  0
  3  5  1  0
  5  6  1  0
  5  7  2  0
  7  8  1  0
  8  9  2  0
  9 10  1  0
  8 11  1  0
 11 12  1  0
 11 13  1  0
 11 14  1  0
 14 15  1  0
 15 16  2  0
 16 17  1  0
 17 18  1  0
 18 19  1  0
 19 20  1  0
 19 21  1  0
 19 22  1  0
 22 23  1  0
 22 24  1  0
 22 25  1  0
 25 26  1  0
 25 27  1  0
 25 28  1  0
 28 29  1  0
 28 30  1  0
 28 31  1  0
 31 32  1  0
 31 33  1  0
 17 34  2  0
 34 35  1  0
 35 36  2  0
 36 37  1  0
 36 38  1  0
 38 39  1  0
 38 40  1  0
 40 41  1  0
 40 42  1  0
 40 43  1  0
 43 44  1  0
 43 45  1  0
 43 46  1  0
 46 47  1  0
 46 48  1  0
 35 49  1  0
 49 50  1  0
 14 51  1  0
 51 52  1  0
 51 53  1  0
 51 54  1  0
 54 55  1  0
 54 56  1  0
  9  2  1  0
 49 15  1  0
 54  7  1  0
 31 18  1  0
 46 38  1  0
M  CHG  1  36   1
M  END
>  <UniqueID>  (71) 
486

>  <SMILES>  (71) 
c1ccc2c(c1)CCN(c1nc(N3CCCCC3)n/c(=[NH+]/C3CCC3)[nH]1)C2

>  <Energy>  (71) 
125.77127150498245

>  <Genealogy>  (71) 
c1ccc2c(c1)CCN(c1nc([NH2+]C3CCC3)nc(N3CCCCC3)n1)C2 (protonated)
c1ccc2c(c1)CCN(c1nc(N3CCCCC3)nc(=[NH+]C3CCC3)[nH]1)C2 (tautomer)
c1ccc2c(c1)CCN(c1nc(N3CCCCC3)n/c(=[NH+]/C3CCC3)[nH]1)C2 (cis-trans isomerization)
c1ccc2c(c1)CCN(c1nc(N3CCCCC3)n/c(=[NH+]/C3CCC3)[nH]1)C2 (3D coordinates assigned)
c1ccc2c(c1)CCN(c1nc(N3CCCCC3)n/c(=[NH+]/C3CCC3)[nH]1)C2 (nonaromatic ring conformer: 125.77127150498245 kcal/mol)

>  <smiles>  (71) 
c1ccc2c(c1)CCN(c1nc(NC3CCC3)nc(N3CCCCC3)n1)C2

>  <score_type>  (71) 
oracle

>  <origin>  (71) 
autodockgpu

>  <m_score__min__energy>  (71) 
-7.7999999999999998

>  <m_primary>  (71) 
energy

>  <meeko>  (71) 
{"free_energy": -7.79, "intermolecular_energy": -8.99, "internal_energy": -0.44, "cluster_size": 19, "cluster_id": 1, "rank_in_cluster": 6}

>  <energy>  (71) 
-7.63

>  <cluster_rmsd>  (71) 
0.66

>  <rmsd>  (71) 
270.4

>  <cluster>  (71) 
1

$$$$
JGFXCGHACWUNAV-YFNBPOHCNA-O
     RDKit          3D

 56 60  0  0  0  0  0  0  0  0999 V2000
  141.6066   81.3553  224.6383 H   0  0  0  0  0  0  0  0  0  0  0  0
  141.6390   80.7270  223.7360 C   0  0  0  0  0  0  0  0  0  0  0  0
  142.1500   81.2440  222.5450 C   0  0  0  0  0  0  0  0  0  0  0  0
  142.5227   82.2784  222.5106 H   0  0  0  0  0  0  0  0  0  0  0  0
  142.1890   80.4500  221.3960 C   0  0  0  0  0  0  0  0  0  0  0  0
  142.6024   80.8592  220.4624 H   0  0  0  0  0  0  0  0  0  0  0  0
  141.7040   79.1340  221.4260 C   0  0  0  0  0  0  0  0  0  0  0  0
  141.2070   78.6010  222.6390 C   0  0  0  0  0  0  0  0  0  0  0  0
  141.1690   79.4140  223.7840 C   0  0  0  0  0  0  0  0  0  0  0  0
  140.7658   79.0126  224.7254 H   0  0  0  0  0  0  0  0  0  0  0  0
  140.6660   77.1920  222.7270 C   0  0  0  0  0  0  0  0  0  0  0  0
  139.5817   77.2381  222.9065 H   0  0  0  0  0  0  0  0  0  0  0  0
  141.1833   76.6794  223.5514 H   0  0  0  0  0  0  0  0  0  0  0  0
  140.9110   76.4330  221.4950 N   0  0  0  0  0  0  0  0  0  0  0  0
  140.9590   74.9960  221.5440 C   0  0  0  0  0  0  0  0  0  0  0  0
  141.9320   74.3330  220.8670 N   0  0  0  0  0  0  0  0  0  0  0  0
  141.9950   72.9780  220.8900 C   0  0  0  0  0  0  0  0  0  0  0  0
  143.0340   72.2800  220.1750 N   0  0  0  0  0  0  0  0  0  0  0  0
  142.7560   71.0030  219.4970 C   0  0  0  0  0  0  0  0  0  0  0  0
  141.8456   70.5558  219.9226 H   0  0  0  0  0  0  0  0  0  0  0  0
  142.6142   71.1895  218.4222 H   0  0  0  0  0  0  0  0  0  0  0  0
  143.9320   70.0380  219.6880 C   0  0  0  0  0  0  0  0  0  0  0  0
  143.9686   69.7372  220.7454 H   0  0  0  0  0  0  0  0  0  0  0  0
  143.7625   69.1814  219.0190 H   0  0  0  0  0  0  0  0  0  0  0  0
  145.2960   70.6540  219.3060 C   0  0  0  0  0  0  0  0  0  0  0  0
  145.9995   70.4794  220.1334 H   0  0  0  0  0  0  0  0  0  0  0  0
  145.6165   70.1692  218.3720 H   0  0  0  0  0  0  0  0  0  0  0  0
  145.2380   72.1630  219.0300 C   0  0  0  0  0  0  0  0  0  0  0  0
  146.2581   72.5726  219.0694 H   0  0  0  0  0  0  0  0  0  0  0  0
  144.7923   72.3141  218.0358 H   0  0  0  0  0  0  0  0  0  0  0  0
  144.3690   72.8920  220.0610 C   0  0  0  0  0  0  0  0  0  0  0  0
  144.8663   72.8489  221.0412 H   0  0  0  0  0  0  0  0  0  0  0  0
  144.2429   73.9333  219.7298 H   0  0  0  0  0  0  0  0  0  0  0  0
  141.0700   72.2840  221.6020 N   0  0  0  0  0  0  0  0  0  0  0  0
  140.0800   72.9250  222.2790 C   0  0  0  0  0  0  0  0  0  0  0  0
  139.2090   72.2140  222.9480 N   0  0  0  0  0  0  0  0  0  0  0  0
  138.2690   72.6400  223.1230 H   0  0  0  0  0  0  0  0  0  0  0  0
  139.4730   70.8710  223.4870 C   0  0  0  0  0  0  0  0  0  0  0  0
  139.5837   70.2971  222.5551 H   0  0  0  0  0  0  0  0  0  0  0  0
  140.5780   70.8510  224.5440 C   0  0  0  0  0  0  0  0  0  0  0  0
  141.3638   70.1040  224.3582 H   0  0  0  0  0  0  0  0  0  0  0  0
  141.2138   71.7347  224.7017 H   0  0  0  0  0  0  0  0  0  0  0  0
  139.5620   70.4350  225.5980 C   0  0  0  0  0  0  0  0  0  0  0  0
  139.7480   69.4417  226.0324 H   0  0  0  0  0  0  0  0  0  0  0  0
  139.4572   71.0148  226.5269 H   0  0  0  0  0  0  0  0  0  0  0  0
  138.4580   70.4570  224.5510 C   0  0  0  0  0  0  0  0  0  0  0  0
  137.9919   69.4773  224.3696 H   0  0  0  0  0  0  0  0  0  0  0  0
  137.5485   71.0539  224.7142 H   0  0  0  0  0  0  0  0  0  0  0  0
  140.0220   74.2910  222.2380 N   0  0  0  0  0  0  0  0  0  0  0  0
  139.2510   74.8140  222.7050 H   0  0  0  0  0  0  0  0  0  0  0  0
  140.8010   77.1370  220.2150 C   0  0  0  0  0  0  0  0  0  0  0  0
  139.7828   77.5377  220.1020 H   0  0  0  0  0  0  0  0  0  0  0  0
  141.0111   76.4394  219.3908 H   0  0  0  0  0  0  0  0  0  0  0  0
  141.8060   78.2830  220.1840 C   0  0  0  0  0  0  0  0  0  0  0  0
  141.6075   78.9102  219.3024 H   0  0  0  0  0  0  0  0  0  0  0  0
  142.8187   77.8561  220.1373 H   0  0  0  0  0  0  0  0  0  0  0  0
  1  2  1  0
  2  3  2  0
  3  4  1  0
  3  5  1  0
  5  6  1  0
  5  7  2  0
  7  8  1  0
  8  9  2  0
  9 10  1  0
  8 11  1  0
 11 12  1  0
 11 13  1  0
 11 14  1  0
 14 15  1  0
 15 16  2  0
 16 17  1  0
 17 18  1  0
 18 19  1  0
 19 20  1  0
 19 21  1  0
 19 22  1  0
 22 23  1  0
 22 24  1  0
 22 25  1  0
 25 26  1  0
 25 27  1  0
 25 28  1  0
 28 29  1  0
 28 30  1  0
 28 31  1  0
 31 32  1  0
 31 33  1  0
 17 34  2  0
 34 35  1  0
 35 36  2  0
 36 37  1  0
 36 38  1  0
 38 39  1  0
 38 40  1  0
 40 41  1  0
 40 42  1  0
 40 43  1  0
 43 44  1  0
 43 45  1  0
 43 46  1  0
 46 47  1  0
 46 48  1  0
 35 49  1  0
 49 50  1  0
 14 51  1  0
 51 52  1  0
 51 53  1  0
 51 54  1  0
 54 55  1  0
 54 56  1  0
  9  2  1  0
 49 15  1  0
 54  7  1  0
 31 18  1  0
 46 38  1  0
M  CHG  1  36   1
M  END
>  <UniqueID>  (72) 
486

>  <SMILES>  (72) 
c1ccc2c(c1)CCN(c1nc(N3CCCCC3)n/c(=[NH+]/C3CCC3)[nH]1)C2

>  <Energy>  (72) 
125.77127150498245

>  <Genealogy>  (72) 
c1ccc2c(c1)CCN(c1nc([NH2+]C3CCC3)nc(N3CCCCC3)n1)C2 (protonated)
c1ccc2c(c1)CCN(c1nc(N3CCCCC3)nc(=[NH+]C3CCC3)[nH]1)C2 (tautomer)
c1ccc2c(c1)CCN(c1nc(N3CCCCC3)n/c(=[NH+]/C3CCC3)[nH]1)C2 (cis-trans isomerization)
c1ccc2c(c1)CCN(c1nc(N3CCCCC3)n/c(=[NH+]/C3CCC3)[nH]1)C2 (3D coordinates assigned)
c1ccc2c(c1)CCN(c1nc(N3CCCCC3)n/c(=[NH+]/C3CCC3)[nH]1)C2 (nonaromatic ring conformer: 125.77127150498245 kcal/mol)

>  <smiles>  (72) 
c1ccc2c(c1)CCN(c1nc(NC3CCC3)nc(N3CCCCC3)n1)C2

>  <score_type>  (72) 
oracle

>  <origin>  (72) 
autodockgpu

>  <m_score__min__energy>  (72) 
-7.7999999999999998

>  <m_primary>  (72) 
energy

>  <meeko>  (72) 
{"free_energy": -7.35, "intermolecular_energy": -8.54, "internal_energy": -0.37, "cluster_size": 19, "cluster_id": 1, "rank_in_cluster": 19}

>  <energy>  (72) 
-7.63

>  <cluster_rmsd>  (72) 
0.67

>  <rmsd>  (72) 
270.42

>  <cluster>  (72) 
1

$$$$
JGFXCGHACWUNAV-YFNBPOHCNA-O
     RDKit          3D

 56 60  0  0  0  0  0  0  0  0999 V2000
  141.7890   81.0964  224.7915 H   0  0  0  0  0  0  0  0  0  0  0  0
  141.7860   80.5210  223.8540 C   0  0  0  0  0  0  0  0  0  0  0  0
  142.1540   81.1370  222.6570 C   0  0  0  0  0  0  0  0  0  0  0  0
  142.4493   82.1966  222.6528 H   0  0  0  0  0  0  0  0  0  0  0  0
  142.1480   80.4100  221.4640 C   0  0  0  0  0  0  0  0  0  0  0  0
  142.4508   80.8971  220.5254 H   0  0  0  0  0  0  0  0  0  0  0  0
  141.7580   79.0620  221.4560 C   0  0  0  0  0  0  0  0  0  0  0  0
  141.4070   78.4300  222.6730 C   0  0  0  0  0  0  0  0  0  0  0  0
  141.4140   79.1750  223.8630 C   0  0  0  0  0  0  0  0  0  0  0  0
  141.1243   78.6949  224.8094 H   0  0  0  0  0  0  0  0  0  0  0  0
  140.9750   76.9820  222.7220 C   0  0  0  0  0  0  0  0  0  0  0  0
  139.9103   76.9377  222.9949 H   0  0  0  0  0  0  0  0  0  0  0  0
  141.5977   76.4659  223.4676 H   0  0  0  0  0  0  0  0  0  0  0  0
  141.1620   76.3100  221.4300 N   0  0  0  0  0  0  0  0  0  0  0  0
  141.3130   74.8800  221.3890 C   0  0  0  0  0  0  0  0  0  0  0  0
  140.5600   74.1010  222.2100 N   0  0  0  0  0  0  0  0  0  0  0  0
  140.6890   72.7510  222.1960 C   0  0  0  0  0  0  0  0  0  0  0  0
  139.8830   71.9290  223.0650 N   0  0  0  0  0  0  0  0  0  0  0  0
  140.3820   71.5150  224.3870 C   0  0  0  0  0  0  0  0  0  0  0  0
  141.4784   71.6024  224.4059 H   0  0  0  0  0  0  0  0  0  0  0  0
  139.9418   72.1645  225.1579 H   0  0  0  0  0  0  0  0  0  0  0  0
  139.9840   70.0610  224.6680 C   0  0  0  0  0  0  0  0  0  0  0  0
  140.5513   69.4066  223.9898 H   0  0  0  0  0  0  0  0  0  0  0  0
  140.2113   69.8599  225.7253 H   0  0  0  0  0  0  0  0  0  0  0  0
  138.4780   69.7890  224.4650 C   0  0  0  0  0  0  0  0  0  0  0  0
  138.3689   68.9016  223.8242 H   0  0  0  0  0  0  0  0  0  0  0  0
  138.0409   69.6427  225.4638 H   0  0  0  0  0  0  0  0  0  0  0  0
  137.7210   70.9550  223.8110 C   0  0  0  0  0  0  0  0  0  0  0  0
  136.7585   70.5857  223.4275 H   0  0  0  0  0  0  0  0  0  0  0  0
  137.5669   71.7353  224.5709 H   0  0  0  0  0  0  0  0  0  0  0  0
  138.5180   71.5640  222.6520 C   0  0  0  0  0  0  0  0  0  0  0  0
  138.5767   70.8301  221.8347 H   0  0  0  0  0  0  0  0  0  0  0  0
  138.0023   72.4783  222.3231 H   0  0  0  0  0  0  0  0  0  0  0  0
  141.5820   72.1790  221.3480 N   0  0  0  0  0  0  0  0  0  0  0  0
  142.3540   72.9380  220.5260 C   0  0  0  0  0  0  0  0  0  0  0  0
  143.2030   72.3430  219.7280 N   0  0  0  0  0  0  0  0  0  0  0  0
  142.8390   71.9800  218.8170 H   0  0  0  0  0  0  0  0  0  0  0  0
  144.6250   72.1310  220.0400 C   0  0  0  0  0  0  0  0  0  0  0  0
  144.6578   71.0330  220.0985 H   0  0  0  0  0  0  0  0  0  0  0  0
  145.5690   72.8840  219.1010 C   0  0  0  0  0  0  0  0  0  0  0  0
  146.3546   72.2560  218.6554 H   0  0  0  0  0  0  0  0  0  0  0  0
  145.1841   73.3549  218.1844 H   0  0  0  0  0  0  0  0  0  0  0  0
  146.0440   73.7400  220.2660 C   0  0  0  0  0  0  0  0  0  0  0  0
  147.1097   73.6153  220.5084 H   0  0  0  0  0  0  0  0  0  0  0  0
  146.0073   74.8373  220.1989 H   0  0  0  0  0  0  0  0  0  0  0  0
  145.1040   72.9970  221.2040 C   0  0  0  0  0  0  0  0  0  0  0  0
  145.6152   72.4360  222.0002 H   0  0  0  0  0  0  0  0  0  0  0  0
  144.3803   73.5509  221.8199 H   0  0  0  0  0  0  0  0  0  0  0  0
  142.2220   74.2990  220.5570 N   0  0  0  0  0  0  0  0  0  0  0  0
  142.8280   74.9150  219.9750 H   0  0  0  0  0  0  0  0  0  0  0  0
  140.8920   77.0710  220.2080 C   0  0  0  0  0  0  0  0  0  0  0  0
  139.8428   77.4013  220.2045 H   0  0  0  0  0  0  0  0  0  0  0  0
  141.0759   76.4359  219.3289 H   0  0  0  0  0  0  0  0  0  0  0  0
  141.8100   78.2880  220.1620 C   0  0  0  0  0  0  0  0  0  0  0  0
  141.4935   78.9449  219.3384 H   0  0  0  0  0  0  0  0  0  0  0  0
  142.8417   77.9395  220.0067 H   0  0  0  0  0  0  0  0  0  0  0  0
  1  2  1  0
  2  3  2  0
  3  4  1  0
  3  5  1  0
  5  6  1  0
  5  7  2  0
  7  8  1  0
  8  9  2  0
  9 10  1  0
  8 11  1  0
 11 12  1  0
 11 13  1  0
 11 14  1  0
 14 15  1  0
 15 16  2  0
 16 17  1  0
 17 18  1  0
 18 19  1  0
 19 20  1  0
 19 21  1  0
 19 22  1  0
 22 23  1  0
 22 24  1  0
 22 25  1  0
 25 26  1  0
 25 27  1  0
 25 28  1  0
 28 29  1  0
 28 30  1  0
 28 31  1  0
 31 32  1  0
 31 33  1  0
 17 34  2  0
 34 35  1  0
 35 36  2  0
 36 37  1  0
 36 38  1  0
 38 39  1  0
 38 40  1  0
 40 41  1  0
 40 42  1  0
 40 43  1  0
 43 44  1  0
 43 45  1  0
 43 46  1  0
 46 47  1  0
 46 48  1  0
 35 49  1  0
 49 50  1  0
 14 51  1  0
 51 52  1  0
 51 53  1  0
 51 54  1  0
 54 55  1  0
 54 56  1  0
  9  2  1  0
 49 15  1  0
 54  7  1  0
 31 18  1  0
 46 38  1  0
M  CHG  1  36   1
M  END
>  <UniqueID>  (73) 
486

>  <SMILES>  (73) 
c1ccc2c(c1)CCN(c1nc(N3CCCCC3)n/c(=[NH+]/C3CCC3)[nH]1)C2

>  <Energy>  (73) 
125.77127150498245

>  <Genealogy>  (73) 
c1ccc2c(c1)CCN(c1nc([NH2+]C3CCC3)nc(N3CCCCC3)n1)C2 (protonated)
c1ccc2c(c1)CCN(c1nc(N3CCCCC3)nc(=[NH+]C3CCC3)[nH]1)C2 (tautomer)
c1ccc2c(c1)CCN(c1nc(N3CCCCC3)n/c(=[NH+]/C3CCC3)[nH]1)C2 (cis-trans isomerization)
c1ccc2c(c1)CCN(c1nc(N3CCCCC3)n/c(=[NH+]/C3CCC3)[nH]1)C2 (3D coordinates assigned)
c1ccc2c(c1)CCN(c1nc(N3CCCCC3)n/c(=[NH+]/C3CCC3)[nH]1)C2 (nonaromatic ring conformer: 125.77127150498245 kcal/mol)

>  <smiles>  (73) 
c1ccc2c(c1)CCN(c1nc(NC3CCC3)nc(N3CCCCC3)n1)C2

>  <score_type>  (73) 
oracle

>  <origin>  (73) 
autodockgpu

>  <m_score__min__energy>  (73) 
-7.7999999999999998

>  <m_primary>  (73) 
energy

>  <meeko>  (73) 
{"free_energy": -7.68, "intermolecular_energy": -8.88, "internal_energy": -0.5, "cluster_size": 19, "cluster_id": 1, "rank_in_cluster": 10}

>  <energy>  (73) 
-7.63

>  <cluster_rmsd>  (73) 
0.66

>  <rmsd>  (73) 
270.42

>  <cluster>  (73) 
1

$$$$
JGFXCGHACWUNAV-YFNBPOHCNA-O
     RDKit          3D

 56 60  0  0  0  0  0  0  0  0999 V2000
  141.7427   80.9669  224.7225 H   0  0  0  0  0  0  0  0  0  0  0  0
  141.7490   80.3740  223.7960 C   0  0  0  0  0  0  0  0  0  0  0  0
  142.1380   80.9650  222.5930 C   0  0  0  0  0  0  0  0  0  0  0  0
  142.4388   82.0229  222.5729 H   0  0  0  0  0  0  0  0  0  0  0  0
  142.1460   80.2150  221.4140 C   0  0  0  0  0  0  0  0  0  0  0  0
  142.4645   80.6824  220.4705 H   0  0  0  0  0  0  0  0  0  0  0  0
  141.7500   78.8690  221.4270 C   0  0  0  0  0  0  0  0  0  0  0  0
  141.3760   78.2630  222.6500 C   0  0  0  0  0  0  0  0  0  0  0  0
  141.3680   79.0320  223.8250 C   0  0  0  0  0  0  0  0  0  0  0  0
  141.0590   78.5728  224.7756 H   0  0  0  0  0  0  0  0  0  0  0  0
  140.9350   76.8190  222.7200 C   0  0  0  0  0  0  0  0  0  0  0  0
  139.8659   76.7860  222.9769 H   0  0  0  0  0  0  0  0  0  0  0  0
  141.5432   76.3141  223.4850 H   0  0  0  0  0  0  0  0  0  0  0  0
  141.1380   76.1210  221.4450 N   0  0  0  0  0  0  0  0  0  0  0  0
  141.2820   74.6890  221.4340 C   0  0  0  0  0  0  0  0  0  0  0  0
  140.5430   73.9340  222.2880 N   0  0  0  0  0  0  0  0  0  0  0  0
  140.6650   72.5830  222.3030 C   0  0  0  0  0  0  0  0  0  0  0  0
  139.8740   71.7850  223.2070 N   0  0  0  0  0  0  0  0  0  0  0  0
  140.3450   71.5010  224.5720 C   0  0  0  0  0  0  0  0  0  0  0  0
  141.4336   71.6514  224.6199 H   0  0  0  0  0  0  0  0  0  0  0  0
  139.8420   72.1810  225.2753 H   0  0  0  0  0  0  0  0  0  0  0  0
  140.0160   70.0530  224.9520 C   0  0  0  0  0  0  0  0  0  0  0  0
  140.6417   69.3822  224.3450 H   0  0  0  0  0  0  0  0  0  0  0  0
  140.2157   69.9457  226.0284 H   0  0  0  0  0  0  0  0  0  0  0  0
  138.5350   69.6820  224.7230 C   0  0  0  0  0  0  0  0  0  0  0  0
  138.4969   68.7435  224.1506 H   0  0  0  0  0  0  0  0  0  0  0  0
  138.0705   69.5881  225.7157 H   0  0  0  0  0  0  0  0  0  0  0  0
  137.7410   70.7500  223.9560 C   0  0  0  0  0  0  0  0  0  0  0  0
  136.8146   70.2986  223.5713 H   0  0  0  0  0  0  0  0  0  0  0  0
  137.5175   71.5758  224.6475 H   0  0  0  0  0  0  0  0  0  0  0  0
  138.5460   71.3140  222.7790 C   0  0  0  0  0  0  0  0  0  0  0  0
  138.6735   70.5251  222.0231 H   0  0  0  0  0  0  0  0  0  0  0  0
  137.9945   72.1704  222.3638 H   0  0  0  0  0  0  0  0  0  0  0  0
  141.5380   71.9860  221.4510 N   0  0  0  0  0  0  0  0  0  0  0  0
  142.2970   72.7220  220.5950 C   0  0  0  0  0  0  0  0  0  0  0  0
  143.1270   72.1050  219.7950 N   0  0  0  0  0  0  0  0  0  0  0  0
  142.7240   71.4260  219.1080 H   0  0  0  0  0  0  0  0  0  0  0  0
  144.5870   72.2850  219.8150 C   0  0  0  0  0  0  0  0  0  0  0  0
  144.9124   71.3508  219.3339 H   0  0  0  0  0  0  0  0  0  0  0  0
  145.0370   73.6380  219.2610 C   0  0  0  0  0  0  0  0  0  0  0  0
  145.8168   73.5701  218.4881 H   0  0  0  0  0  0  0  0  0  0  0  0
  144.3250   74.2876  218.7308 H   0  0  0  0  0  0  0  0  0  0  0  0
  145.5580   74.0270  220.6370 C   0  0  0  0  0  0  0  0  0  0  0  0
  146.6456   74.1871  220.6755 H   0  0  0  0  0  0  0  0  0  0  0  0
  145.2268   74.9627  221.1112 H   0  0  0  0  0  0  0  0  0  0  0  0
  145.1090   72.6840  221.1940 C   0  0  0  0  0  0  0  0  0  0  0  0
  145.9314   72.0532  221.5624 H   0  0  0  0  0  0  0  0  0  0  0  0
  144.4492   72.6389  222.0730 H   0  0  0  0  0  0  0  0  0  0  0  0
  142.1710   74.0850  220.5980 N   0  0  0  0  0  0  0  0  0  0  0  0
  142.7690   74.6840  219.9900 H   0  0  0  0  0  0  0  0  0  0  0  0
  140.8920   76.8590  220.2040 C   0  0  0  0  0  0  0  0  0  0  0  0
  139.8447   77.1944  220.1769 H   0  0  0  0  0  0  0  0  0  0  0  0
  141.0868   76.2057  219.3407 H   0  0  0  0  0  0  0  0  0  0  0  0
  141.8170   78.0700  220.1490 C   0  0  0  0  0  0  0  0  0  0  0  0
  141.5165   78.7127  219.3084 H   0  0  0  0  0  0  0  0  0  0  0  0
  142.8490   77.7131  220.0162 H   0  0  0  0  0  0  0  0  0  0  0  0
  1  2  1  0
  2  3  2  0
  3  4  1  0
  3  5  1  0
  5  6  1  0
  5  7  2  0
  7  8  1  0
  8  9  2  0
  9 10  1  0
  8 11  1  0
 11 12  1  0
 11 13  1  0
 11 14  1  0
 14 15  1  0
 15 16  2  0
 16 17  1  0
 17 18  1  0
 18 19  1  0
 19 20  1  0
 19 21  1  0
 19 22  1  0
 22 23  1  0
 22 24  1  0
 22 25  1  0
 25 26  1  0
 25 27  1  0
 25 28  1  0
 28 29  1  0
 28 30  1  0
 28 31  1  0
 31 32  1  0
 31 33  1  0
 17 34  2  0
 34 35  1  0
 35 36  2  0
 36 37  1  0
 36 38  1  0
 38 39  1  0
 38 40  1  0
 40 41  1  0
 40 42  1  0
 40 43  1  0
 43 44  1  0
 43 45  1  0
 43 46  1  0
 46 47  1  0
 46 48  1  0
 35 49  1  0
 49 50  1  0
 14 51  1  0
 51 52  1  0
 51 53  1  0
 51 54  1  0
 54 55  1  0
 54 56  1  0
  9  2  1  0
 49 15  1  0
 54  7  1  0
 31 18  1  0
 46 38  1  0
M  CHG  1  36   1
M  END
>  <UniqueID>  (74) 
486

>  <SMILES>  (74) 
c1ccc2c(c1)CCN(c1nc(N3CCCCC3)n/c(=[NH+]/C3CCC3)[nH]1)C2

>  <Energy>  (74) 
125.77127150498245

>  <Genealogy>  (74) 
c1ccc2c(c1)CCN(c1nc([NH2+]C3CCC3)nc(N3CCCCC3)n1)C2 (protonated)
c1ccc2c(c1)CCN(c1nc(N3CCCCC3)nc(=[NH+]C3CCC3)[nH]1)C2 (tautomer)
c1ccc2c(c1)CCN(c1nc(N3CCCCC3)n/c(=[NH+]/C3CCC3)[nH]1)C2 (cis-trans isomerization)
c1ccc2c(c1)CCN(c1nc(N3CCCCC3)n/c(=[NH+]/C3CCC3)[nH]1)C2 (3D coordinates assigned)
c1ccc2c(c1)CCN(c1nc(N3CCCCC3)n/c(=[NH+]/C3CCC3)[nH]1)C2 (nonaromatic ring conformer: 125.77127150498245 kcal/mol)

>  <smiles>  (74) 
c1ccc2c(c1)CCN(c1nc(NC3CCC3)nc(N3CCCCC3)n1)C2

>  <score_type>  (74) 
oracle

>  <origin>  (74) 
autodockgpu

>  <m_score__min__energy>  (74) 
-7.7999999999999998

>  <m_primary>  (74) 
energy

>  <meeko>  (74) 
{"free_energy": -7.57, "intermolecular_energy": -8.76, "internal_energy": -0.57, "cluster_size": 19, "cluster_id": 1, "rank_in_cluster": 18}

>  <energy>  (74) 
-7.61

>  <cluster_rmsd>  (74) 
1.12

>  <rmsd>  (74) 
270.55

>  <cluster>  (74) 
1

$$$$
JGFXCGHACWUNAV-YFNBPOHCNA-O
     RDKit          3D

 56 60  0  0  0  0  0  0  0  0999 V2000
  141.8231   81.4033  224.7642 H   0  0  0  0  0  0  0  0  0  0  0  0
  141.7450   80.8360  223.8250 C   0  0  0  0  0  0  0  0  0  0  0  0
  141.9460   81.4800  222.6030 C   0  0  0  0  0  0  0  0  0  0  0  0
  142.1835   82.5538  222.5808 H   0  0  0  0  0  0  0  0  0  0  0  0
  141.8460   80.7630  221.4080 C   0  0  0  0  0  0  0  0  0  0  0  0
  142.0167   81.2729  220.4484 H   0  0  0  0  0  0  0  0  0  0  0  0
  141.5290   79.3960  221.4250 C   0  0  0  0  0  0  0  0  0  0  0  0
  141.3470   78.7370  222.6650 C   0  0  0  0  0  0  0  0  0  0  0  0
  141.4450   79.4730  223.8570 C   0  0  0  0  0  0  0  0  0  0  0  0
  141.2842   78.9718  224.8229 H   0  0  0  0  0  0  0  0  0  0  0  0
  140.9980   77.2690  222.7410 C   0  0  0  0  0  0  0  0  0  0  0  0
  139.9734   77.1670  223.1279 H   0  0  0  0  0  0  0  0  0  0  0  0
  141.7249   76.7807  223.4068 H   0  0  0  0  0  0  0  0  0  0  0  0
  141.0760   76.6170  221.4280 N   0  0  0  0  0  0  0  0  0  0  0  0
  141.2960   75.1970  221.3520 C   0  0  0  0  0  0  0  0  0  0  0  0
  140.5180   74.3570  222.0840 N   0  0  0  0  0  0  0  0  0  0  0  0
  140.7090   73.0150  222.0360 C   0  0  0  0  0  0  0  0  0  0  0  0
  139.8780   72.1280  222.8100 N   0  0  0  0  0  0  0  0  0  0  0  0
  140.3370   71.6020  224.1050 C   0  0  0  0  0  0  0  0  0  0  0  0
  141.4326   71.6824  224.1625 H   0  0  0  0  0  0  0  0  0  0  0  0
  139.8755   72.1864  224.9146 H   0  0  0  0  0  0  0  0  0  0  0  0
  139.9280   70.1310  224.2520 C   0  0  0  0  0  0  0  0  0  0  0  0
  140.5116   69.5330  223.5366 H   0  0  0  0  0  0  0  0  0  0  0  0
  140.1266   69.8397  225.2940 H   0  0  0  0  0  0  0  0  0  0  0  0
  138.4260   69.8860  223.9860 C   0  0  0  0  0  0  0  0  0  0  0  0
  138.3313   69.0554  223.2710 H   0  0  0  0  0  0  0  0  0  0  0  0
  137.9610   69.6604  224.9570 H   0  0  0  0  0  0  0  0  0  0  0  0
  137.6920   71.1060  223.4110 C   0  0  0  0  0  0  0  0  0  0  0  0
  136.7397   70.7751  222.9709 H   0  0  0  0  0  0  0  0  0  0  0  0
  137.5191   71.8208  224.2290 H   0  0  0  0  0  0  0  0  0  0  0  0
  138.5230   71.8060  222.3300 C   0  0  0  0  0  0  0  0  0  0  0  0
  138.6023   71.1431  221.4558 H   0  0  0  0  0  0  0  0  0  0  0  0
  138.0194   72.7475  222.0653 H   0  0  0  0  0  0  0  0  0  0  0  0
  141.6910   72.5140  221.2430 N   0  0  0  0  0  0  0  0  0  0  0  0
  142.4900   73.3350  220.5100 C   0  0  0  0  0  0  0  0  0  0  0  0
  143.4250   72.8070  219.7630 N   0  0  0  0  0  0  0  0  0  0  0  0
  143.1840   71.9430  219.2240 H   0  0  0  0  0  0  0  0  0  0  0  0
  144.7940   73.3340  219.6530 C   0  0  0  0  0  0  0  0  0  0  0  0
  144.7716   73.7416  218.6316 H   0  0  0  0  0  0  0  0  0  0  0  0
  145.1970   74.2220  220.8310 C   0  0  0  0  0  0  0  0  0  0  0  0
  145.6080   75.1991  220.5371 H   0  0  0  0  0  0  0  0  0  0  0  0
  144.4426   74.5632  221.5552 H   0  0  0  0  0  0  0  0  0  0  0  0
  146.2500   73.2020  221.2380 C   0  0  0  0  0  0  0  0  0  0  0  0
  147.2825   73.5773  221.1824 H   0  0  0  0  0  0  0  0  0  0  0  0
  146.2654   72.7993  222.2615 H   0  0  0  0  0  0  0  0  0  0  0  0
  145.8500   72.3130  220.0700 C   0  0  0  0  0  0  0  0  0  0  0  0
  146.6470   72.1625  219.3269 H   0  0  0  0  0  0  0  0  0  0  0  0
  145.5716   71.2625  220.2403 H   0  0  0  0  0  0  0  0  0  0  0  0
  142.2930   74.6870  220.5760 N   0  0  0  0  0  0  0  0  0  0  0  0
  142.9140   75.3500  220.0650 H   0  0  0  0  0  0  0  0  0  0  0  0
  140.6350   77.3720  220.2530 C   0  0  0  0  0  0  0  0  0  0  0  0
  139.5760   77.6464  220.3683 H   0  0  0  0  0  0  0  0  0  0  0  0
  140.7544   76.7541  219.3508 H   0  0  0  0  0  0  0  0  0  0  0  0
  141.4780   78.6360  220.1230 C   0  0  0  0  0  0  0  0  0  0  0  0
  141.0390   79.2816  219.3480 H   0  0  0  0  0  0  0  0  0  0  0  0
  142.5029   78.3438  219.8507 H   0  0  0  0  0  0  0  0  0  0  0  0
  1  2  1  0
  2  3  2  0
  3  4  1  0
  3  5  1  0
  5  6  1  0
  5  7  2  0
  7  8  1  0
  8  9  2  0
  9 10  1  0
  8 11  1  0
 11 12  1  0
 11 13  1  0
 11 14  1  0
 14 15  1  0
 15 16  2  0
 16 17  1  0
 17 18  1  0
 18 19  1  0
 19 20  1  0
 19 21  1  0
 19 22  1  0
 22 23  1  0
 22 24  1  0
 22 25  1  0
 25 26  1  0
 25 27  1  0
 25 28  1  0
 28 29  1  0
 28 30  1  0
 28 31  1  0
 31 32  1  0
 31 33  1  0
 17 34  2  0
 34 35  1  0
 35 36  2  0
 36 37  1  0
 36 38  1  0
 38 39  1  0
 38 40  1  0
 40 41  1  0
 40 42  1  0
 40 43  1  0
 43 44  1  0
 43 45  1  0
 43 46  1  0
 46 47  1  0
 46 48  1  0
 35 49  1  0
 49 50  1  0
 14 51  1  0
 51 52  1  0
 51 53  1  0
 51 54  1  0
 54 55  1  0
 54 56  1  0
  9  2  1  0
 49 15  1  0
 54  7  1  0
 31 18  1  0
 46 38  1  0
M  CHG  1  36   1
M  END
>  <UniqueID>  (75) 
486

>  <SMILES>  (75) 
c1ccc2c(c1)CCN(c1nc(N3CCCCC3)n/c(=[NH+]/C3CCC3)[nH]1)C2

>  <Energy>  (75) 
125.77127150498245

>  <Genealogy>  (75) 
c1ccc2c(c1)CCN(c1nc([NH2+]C3CCC3)nc(N3CCCCC3)n1)C2 (protonated)
c1ccc2c(c1)CCN(c1nc(N3CCCCC3)nc(=[NH+]C3CCC3)[nH]1)C2 (tautomer)
c1ccc2c(c1)CCN(c1nc(N3CCCCC3)n/c(=[NH+]/C3CCC3)[nH]1)C2 (cis-trans isomerization)
c1ccc2c(c1)CCN(c1nc(N3CCCCC3)n/c(=[NH+]/C3CCC3)[nH]1)C2 (3D coordinates assigned)
c1ccc2c(c1)CCN(c1nc(N3CCCCC3)n/c(=[NH+]/C3CCC3)[nH]1)C2 (nonaromatic ring conformer: 125.77127150498245 kcal/mol)

>  <smiles>  (75) 
c1ccc2c(c1)CCN(c1nc(NC3CCC3)nc(N3CCCCC3)n1)C2

>  <score_type>  (75) 
oracle

>  <origin>  (75) 
autodockgpu

>  <m_score__min__energy>  (75) 
-7.7999999999999998

>  <m_primary>  (75) 
energy

>  <meeko>  (75) 
{"free_energy": -7.8, "intermolecular_energy": -8.99, "internal_energy": -0.42, "cluster_size": 19, "cluster_id": 1, "rank_in_cluster": 4}

>  <energy>  (75) 
-7.6

>  <cluster_rmsd>  (75) 
0.33

>  <rmsd>  (75) 
270.4

>  <cluster>  (75) 
1

$$$$
JGFXCGHACWUNAV-YFNBPOHCNA-O
     RDKit          3D

 56 60  0  0  0  0  0  0  0  0999 V2000
  141.7541   80.9578  224.7432 H   0  0  0  0  0  0  0  0  0  0  0  0
  141.7590   80.3660  223.8160 C   0  0  0  0  0  0  0  0  0  0  0  0
  142.1580   80.9550  222.6160 C   0  0  0  0  0  0  0  0  0  0  0  0
  142.4684   82.0102  222.5988 H   0  0  0  0  0  0  0  0  0  0  0  0
  142.1640   80.2070  221.4360 C   0  0  0  0  0  0  0  0  0  0  0  0
  142.4912   80.6732  220.4949 H   0  0  0  0  0  0  0  0  0  0  0  0
  141.7550   78.8640  221.4440 C   0  0  0  0  0  0  0  0  0  0  0  0
  141.3710   78.2600  222.6650 C   0  0  0  0  0  0  0  0  0  0  0  0
  141.3660   79.0270  223.8420 C   0  0  0  0  0  0  0  0  0  0  0  0
  141.0501   78.5690  224.7909 H   0  0  0  0  0  0  0  0  0  0  0  0
  140.9160   76.8200  222.7310 C   0  0  0  0  0  0  0  0  0  0  0  0
  139.8456   76.7967  222.9832 H   0  0  0  0  0  0  0  0  0  0  0  0
  141.5160   76.3083  223.4979 H   0  0  0  0  0  0  0  0  0  0  0  0
  141.1180   76.1220  221.4560 N   0  0  0  0  0  0  0  0  0  0  0  0
  141.2480   74.6890  221.4430 C   0  0  0  0  0  0  0  0  0  0  0  0
  140.5100   73.9400  222.3030 N   0  0  0  0  0  0  0  0  0  0  0  0
  140.6200   72.5880  222.3170 C   0  0  0  0  0  0  0  0  0  0  0  0
  139.8300   71.7970  223.2280 N   0  0  0  0  0  0  0  0  0  0  0  0
  140.3150   71.5000  224.5850 C   0  0  0  0  0  0  0  0  0  0  0  0
  141.4061   71.6352  224.6191 H   0  0  0  0  0  0  0  0  0  0  0  0
  139.8307   72.1834  225.2980 H   0  0  0  0  0  0  0  0  0  0  0  0
  139.9710   70.0540  224.9630 C   0  0  0  0  0  0  0  0  0  0  0  0
  140.5783   69.3773  224.3439 H   0  0  0  0  0  0  0  0  0  0  0  0
  140.1848   69.9379  226.0358 H   0  0  0  0  0  0  0  0  0  0  0  0
  138.4810   69.7060  224.7530 C   0  0  0  0  0  0  0  0  0  0  0  0
  138.4210   68.7708  224.1770 H   0  0  0  0  0  0  0  0  0  0  0  0
  138.0292   69.6146  225.7518 H   0  0  0  0  0  0  0  0  0  0  0  0
  137.6920   70.7890  224.0020 C   0  0  0  0  0  0  0  0  0  0  0  0
  136.7541   70.3528  223.6279 H   0  0  0  0  0  0  0  0  0  0  0  0
  137.4897   71.6145  224.7003 H   0  0  0  0  0  0  0  0  0  0  0  0
  138.4890   71.3470  222.8170 C   0  0  0  0  0  0  0  0  0  0  0  0
  138.5945   70.5600  222.0557 H   0  0  0  0  0  0  0  0  0  0  0  0
  137.9443   72.2136  222.4141 H   0  0  0  0  0  0  0  0  0  0  0  0
  141.4790   71.9840  221.4570 N   0  0  0  0  0  0  0  0  0  0  0  0
  142.2360   72.7130  220.5940 C   0  0  0  0  0  0  0  0  0  0  0  0
  143.0530   72.0880  219.7860 N   0  0  0  0  0  0  0  0  0  0  0  0
  142.6490   71.3530  219.1610 H   0  0  0  0  0  0  0  0  0  0  0  0
  144.5020   72.3360  219.7170 C   0  0  0  0  0  0  0  0  0  0  0  0
  144.8376   71.4262  219.1978 H   0  0  0  0  0  0  0  0  0  0  0  0
  144.8540   73.7170  219.1620 C   0  0  0  0  0  0  0  0  0  0  0  0
  145.5845   73.6979  218.3398 H   0  0  0  0  0  0  0  0  0  0  0  0
  144.0808   74.3417  218.6910 H   0  0  0  0  0  0  0  0  0  0  0  0
  145.4450   74.1070  220.5100 C   0  0  0  0  0  0  0  0  0  0  0  0
  146.5246   74.3162  220.4826 H   0  0  0  0  0  0  0  0  0  0  0  0
  145.1039   75.0184  221.0228 H   0  0  0  0  0  0  0  0  0  0  0  0
  145.0930   72.7350  221.0670 C   0  0  0  0  0  0  0  0  0  0  0  0
  145.9648   72.1364  221.3697 H   0  0  0  0  0  0  0  0  0  0  0  0
  144.4936   72.6447  221.9849 H   0  0  0  0  0  0  0  0  0  0  0  0
  142.1240   74.0770  220.5980 N   0  0  0  0  0  0  0  0  0  0  0  0
  142.7210   74.6710  219.9850 H   0  0  0  0  0  0  0  0  0  0  0  0
  140.8830   76.8650  220.2150 C   0  0  0  0  0  0  0  0  0  0  0  0
  139.8390   77.2103  220.1851 H   0  0  0  0  0  0  0  0  0  0  0  0
  141.0747   76.2114  219.3512 H   0  0  0  0  0  0  0  0  0  0  0  0
  141.8190   78.0670  220.1650 C   0  0  0  0  0  0  0  0  0  0  0  0
  141.5272   78.7139  219.3245 H   0  0  0  0  0  0  0  0  0  0  0  0
  142.8481   77.7010  220.0347 H   0  0  0  0  0  0  0  0  0  0  0  0
  1  2  1  0
  2  3  2  0
  3  4  1  0
  3  5  1  0
  5  6  1  0
  5  7  2  0
  7  8  1  0
  8  9  2  0
  9 10  1  0
  8 11  1  0
 11 12  1  0
 11 13  1  0
 11 14  1  0
 14 15  1  0
 15 16  2  0
 16 17  1  0
 17 18  1  0
 18 19  1  0
 19 20  1  0
 19 21  1  0
 19 22  1  0
 22 23  1  0
 22 24  1  0
 22 25  1  0
 25 26  1  0
 25 27  1  0
 25 28  1  0
 28 29  1  0
 28 30  1  0
 28 31  1  0
 31 32  1  0
 31 33  1  0
 17 34  2  0
 34 35  1  0
 35 36  2  0
 36 37  1  0
 36 38  1  0
 38 39  1  0
 38 40  1  0
 40 41  1  0
 40 42  1  0
 40 43  1  0
 43 44  1  0
 43 45  1  0
 43 46  1  0
 46 47  1  0
 46 48  1  0
 35 49  1  0
 49 50  1  0
 14 51  1  0
 51 52  1  0
 51 53  1  0
 51 54  1  0
 54 55  1  0
 54 56  1  0
  9  2  1  0
 49 15  1  0
 54  7  1  0
 31 18  1  0
 46 38  1  0
M  CHG  1  36   1
M  END
>  <UniqueID>  (76) 
486

>  <SMILES>  (76) 
c1ccc2c(c1)CCN(c1nc(N3CCCCC3)n/c(=[NH+]/C3CCC3)[nH]1)C2

>  <Energy>  (76) 
125.77127150498245

>  <Genealogy>  (76) 
c1ccc2c(c1)CCN(c1nc([NH2+]C3CCC3)nc(N3CCCCC3)n1)C2 (protonated)
c1ccc2c(c1)CCN(c1nc(N3CCCCC3)nc(=[NH+]C3CCC3)[nH]1)C2 (tautomer)
c1ccc2c(c1)CCN(c1nc(N3CCCCC3)n/c(=[NH+]/C3CCC3)[nH]1)C2 (cis-trans isomerization)
c1ccc2c(c1)CCN(c1nc(N3CCCCC3)n/c(=[NH+]/C3CCC3)[nH]1)C2 (3D coordinates assigned)
c1ccc2c(c1)CCN(c1nc(N3CCCCC3)n/c(=[NH+]/C3CCC3)[nH]1)C2 (nonaromatic ring conformer: 125.77127150498245 kcal/mol)

>  <smiles>  (76) 
c1ccc2c(c1)CCN(c1nc(NC3CCC3)nc(N3CCCCC3)n1)C2

>  <score_type>  (76) 
oracle

>  <origin>  (76) 
autodockgpu

>  <m_score__min__energy>  (76) 
-7.7999999999999998

>  <m_primary>  (76) 
energy

>  <meeko>  (76) 
{"free_energy": -7.57, "intermolecular_energy": -8.77, "internal_energy": -0.56, "cluster_size": 19, "cluster_id": 1, "rank_in_cluster": 17}

>  <energy>  (76) 
-7.58

>  <cluster_rmsd>  (76) 
0.71

>  <rmsd>  (76) 
270.41

>  <cluster>  (76) 
1

$$$$
JGFXCGHACWUNAV-YFNBPOHCNA-O
     RDKit          3D

 56 60  0  0  0  0  0  0  0  0999 V2000
  141.7984   80.9505  224.7747 H   0  0  0  0  0  0  0  0  0  0  0  0
  141.7970   80.3690  223.8410 C   0  0  0  0  0  0  0  0  0  0  0  0
  142.1820   80.9730  222.6440 C   0  0  0  0  0  0  0  0  0  0  0  0
  142.4899   82.0290  222.6357 H   0  0  0  0  0  0  0  0  0  0  0  0
  142.1770   80.2380  221.4550 C   0  0  0  0  0  0  0  0  0  0  0  0
  142.4909   80.7161  220.5154 H   0  0  0  0  0  0  0  0  0  0  0  0
  141.7740   78.8940  221.4530 C   0  0  0  0  0  0  0  0  0  0  0  0
  141.4060   78.2740  222.6710 C   0  0  0  0  0  0  0  0  0  0  0  0
  141.4100   79.0280  223.8560 C   0  0  0  0  0  0  0  0  0  0  0  0
  141.1059   78.5582  224.8030 H   0  0  0  0  0  0  0  0  0  0  0  0
  140.9580   76.8320  222.7260 C   0  0  0  0  0  0  0  0  0  0  0  0
  139.8907   76.8013  222.9903 H   0  0  0  0  0  0  0  0  0  0  0  0
  141.5691   76.3144  223.4801 H   0  0  0  0  0  0  0  0  0  0  0  0
  141.1480   76.1490  221.4410 N   0  0  0  0  0  0  0  0  0  0  0  0
  141.2840   74.7170  221.4110 C   0  0  0  0  0  0  0  0  0  0  0  0
  140.5500   73.9540  222.2620 N   0  0  0  0  0  0  0  0  0  0  0  0
  140.6650   72.6030  222.2590 C   0  0  0  0  0  0  0  0  0  0  0  0
  139.8780   71.7980  223.1610 N   0  0  0  0  0  0  0  0  0  0  0  0
  140.3540   71.5080  224.5230 C   0  0  0  0  0  0  0  0  0  0  0  0
  141.4424   71.6611  224.5684 H   0  0  0  0  0  0  0  0  0  0  0  0
  139.8514   72.1829  225.2315 H   0  0  0  0  0  0  0  0  0  0  0  0
  140.0300   70.0570  224.8960 C   0  0  0  0  0  0  0  0  0  0  0  0
  140.6558   69.3912  224.2836 H   0  0  0  0  0  0  0  0  0  0  0  0
  140.2329   69.9444  225.9712 H   0  0  0  0  0  0  0  0  0  0  0  0
  138.5490   69.6830  224.6690 C   0  0  0  0  0  0  0  0  0  0  0  0
  138.5120   68.7473  224.0919 H   0  0  0  0  0  0  0  0  0  0  0  0
  138.0876   69.5830  225.6625 H   0  0  0  0  0  0  0  0  0  0  0  0
  137.7500   70.7520  223.9100 C   0  0  0  0  0  0  0  0  0  0  0  0
  136.8242   70.2996  223.5249 H   0  0  0  0  0  0  0  0  0  0  0  0
  137.5251   71.5732  224.6064 H   0  0  0  0  0  0  0  0  0  0  0  0
  138.5510   71.3250  222.7340 C   0  0  0  0  0  0  0  0  0  0  0  0
  138.6794   70.5405  221.9737 H   0  0  0  0  0  0  0  0  0  0  0  0
  137.9958   72.1819  222.3248 H   0  0  0  0  0  0  0  0  0  0  0  0
  141.5260   72.0130  221.3910 N   0  0  0  0  0  0  0  0  0  0  0  0
  142.2810   72.7550  220.5380 C   0  0  0  0  0  0  0  0  0  0  0  0
  143.1000   72.1440  219.7220 N   0  0  0  0  0  0  0  0  0  0  0  0
  142.6810   71.5900  218.9390 H   0  0  0  0  0  0  0  0  0  0  0  0
  144.5650   72.1660  219.8470 C   0  0  0  0  0  0  0  0  0  0  0  0
  144.8112   71.1478  219.5114 H   0  0  0  0  0  0  0  0  0  0  0  0
  145.2120   73.3780  219.1760 C   0  0  0  0  0  0  0  0  0  0  0  0
  146.0325   73.1257  218.4881 H   0  0  0  0  0  0  0  0  0  0  0  0
  144.6228   74.0268  218.5113 H   0  0  0  0  0  0  0  0  0  0  0  0
  145.6740   73.8840  220.5350 C   0  0  0  0  0  0  0  0  0  0  0  0
  146.7672   73.9287  220.6486 H   0  0  0  0  0  0  0  0  0  0  0  0
  145.4228   74.9038  220.8619 H   0  0  0  0  0  0  0  0  0  0  0  0
  145.0290   72.6810  221.2090 C   0  0  0  0  0  0  0  0  0  0  0  0
  145.7416   72.0176  221.7209 H   0  0  0  0  0  0  0  0  0  0  0  0
  144.3064   72.8220  222.0263 H   0  0  0  0  0  0  0  0  0  0  0  0
  142.1620   74.1180  220.5580 N   0  0  0  0  0  0  0  0  0  0  0  0
  142.7570   74.7220  219.9520 H   0  0  0  0  0  0  0  0  0  0  0  0
  140.8970   76.9040  220.2110 C   0  0  0  0  0  0  0  0  0  0  0  0
  139.8513   77.2451  220.1955 H   0  0  0  0  0  0  0  0  0  0  0  0
  141.0822   76.2608  219.3381 H   0  0  0  0  0  0  0  0  0  0  0  0
  141.8280   78.1110  220.1650 C   0  0  0  0  0  0  0  0  0  0  0  0
  141.5251   78.7658  219.3346 H   0  0  0  0  0  0  0  0  0  0  0  0
  142.8572   77.7504  220.0207 H   0  0  0  0  0  0  0  0  0  0  0  0
  1  2  1  0
  2  3  2  0
  3  4  1  0
  3  5  1  0
  5  6  1  0
  5  7  2  0
  7  8  1  0
  8  9  2  0
  9 10  1  0
  8 11  1  0
 11 12  1  0
 11 13  1  0
 11 14  1  0
 14 15  1  0
 15 16  2  0
 16 17  1  0
 17 18  1  0
 18 19  1  0
 19 20  1  0
 19 21  1  0
 19 22  1  0
 22 23  1  0
 22 24  1  0
 22 25  1  0
 25 26  1  0
 25 27  1  0
 25 28  1  0
 28 29  1  0
 28 30  1  0
 28 31  1  0
 31 32  1  0
 31 33  1  0
 17 34  2  0
 34 35  1  0
 35 36  2  0
 36 37  1  0
 36 38  1  0
 38 39  1  0
 38 40  1  0
 40 41  1  0
 40 42  1  0
 40 43  1  0
 43 44  1  0
 43 45  1  0
 43 46  1  0
 46 47  1  0
 46 48  1  0
 35 49  1  0
 49 50  1  0
 14 51  1  0
 51 52  1  0
 51 53  1  0
 51 54  1  0
 54 55  1  0
 54 56  1  0
  9  2  1  0
 49 15  1  0
 54  7  1  0
 31 18  1  0
 46 38  1  0
M  CHG  1  36   1
M  END
>  <UniqueID>  (77) 
486

>  <SMILES>  (77) 
c1ccc2c(c1)CCN(c1nc(N3CCCCC3)n/c(=[NH+]/C3CCC3)[nH]1)C2

>  <Energy>  (77) 
125.77127150498245

>  <Genealogy>  (77) 
c1ccc2c(c1)CCN(c1nc([NH2+]C3CCC3)nc(N3CCCCC3)n1)C2 (protonated)
c1ccc2c(c1)CCN(c1nc(N3CCCCC3)nc(=[NH+]C3CCC3)[nH]1)C2 (tautomer)
c1ccc2c(c1)CCN(c1nc(N3CCCCC3)n/c(=[NH+]/C3CCC3)[nH]1)C2 (cis-trans isomerization)
c1ccc2c(c1)CCN(c1nc(N3CCCCC3)n/c(=[NH+]/C3CCC3)[nH]1)C2 (3D coordinates assigned)
c1ccc2c(c1)CCN(c1nc(N3CCCCC3)n/c(=[NH+]/C3CCC3)[nH]1)C2 (nonaromatic ring conformer: 125.77127150498245 kcal/mol)

>  <smiles>  (77) 
c1ccc2c(c1)CCN(c1nc(NC3CCC3)nc(N3CCCCC3)n1)C2

>  <score_type>  (77) 
oracle

>  <origin>  (77) 
autodockgpu

>  <m_score__min__energy>  (77) 
-7.7999999999999998

>  <m_primary>  (77) 
energy

>  <meeko>  (77) 
{"free_energy": -7.63, "intermolecular_energy": -8.83, "internal_energy": -0.56, "cluster_size": 19, "cluster_id": 1, "rank_in_cluster": 12}

>  <energy>  (77) 
-7.57

>  <cluster_rmsd>  (77) 
0.69

>  <rmsd>  (77) 
270.42

>  <cluster>  (77) 
1

$$$$
JGFXCGHACWUNAV-YFNBPOHCNA-O
     RDKit          3D

 56 60  0  0  0  0  0  0  0  0999 V2000
  141.8155   80.9632  224.7614 H   0  0  0  0  0  0  0  0  0  0  0  0
  141.8020   80.3830  223.8270 C   0  0  0  0  0  0  0  0  0  0  0  0
  142.1710   80.9890  222.6250 C   0  0  0  0  0  0  0  0  0  0  0  0
  142.4780   82.0452  222.6140 H   0  0  0  0  0  0  0  0  0  0  0  0
  142.1510   80.2560  221.4360 C   0  0  0  0  0  0  0  0  0  0  0  0
  142.4530   80.7354  220.4932 H   0  0  0  0  0  0  0  0  0  0  0  0
  141.7480   78.9120  221.4370 C   0  0  0  0  0  0  0  0  0  0  0  0
  141.3960   78.2900  222.6590 C   0  0  0  0  0  0  0  0  0  0  0  0
  141.4160   79.0420  223.8450 C   0  0  0  0  0  0  0  0  0  0  0  0
  141.1252   78.5704  224.7953 H   0  0  0  0  0  0  0  0  0  0  0  0
  140.9490   76.8480  222.7170 C   0  0  0  0  0  0  0  0  0  0  0  0
  139.8853   76.8167  222.9954 H   0  0  0  0  0  0  0  0  0  0  0  0
  141.5703   76.3291  223.4618 H   0  0  0  0  0  0  0  0  0  0  0  0
  141.1220   76.1670  221.4280 N   0  0  0  0  0  0  0  0  0  0  0  0
  141.2580   74.7350  221.3940 C   0  0  0  0  0  0  0  0  0  0  0  0
  140.5220   73.9700  222.2420 N   0  0  0  0  0  0  0  0  0  0  0  0
  140.6370   72.6180  222.2350 C   0  0  0  0  0  0  0  0  0  0  0  0
  139.8480   71.8110  223.1330 N   0  0  0  0  0  0  0  0  0  0  0  0
  140.3270   71.5060  224.4910 C   0  0  0  0  0  0  0  0  0  0  0  0
  141.4164   71.6524  224.5341 H   0  0  0  0  0  0  0  0  0  0  0  0
  139.8307   72.1773  225.2072 H   0  0  0  0  0  0  0  0  0  0  0  0
  139.9960   70.0540  224.8520 C   0  0  0  0  0  0  0  0  0  0  0  0
  140.6148   69.3900  224.2306 H   0  0  0  0  0  0  0  0  0  0  0  0
  140.2034   69.9297  225.9251 H   0  0  0  0  0  0  0  0  0  0  0  0
  138.5110   69.6920  224.6280 C   0  0  0  0  0  0  0  0  0  0  0  0
  138.4652   68.7614  224.0433 H   0  0  0  0  0  0  0  0  0  0  0  0
  138.0530   69.5870  225.6226 H   0  0  0  0  0  0  0  0  0  0  0  0
  137.7160   70.7730  223.8810 C   0  0  0  0  0  0  0  0  0  0  0  0
  136.7856   70.3302  223.4959 H   0  0  0  0  0  0  0  0  0  0  0  0
  137.4994   71.5899  224.5851 H   0  0  0  0  0  0  0  0  0  0  0  0
  138.5160   71.3500  222.7070 C   0  0  0  0  0  0  0  0  0  0  0  0
  138.6364   70.5708  221.9399 H   0  0  0  0  0  0  0  0  0  0  0  0
  137.9649   72.2137  222.3067 H   0  0  0  0  0  0  0  0  0  0  0  0
  141.5000   72.0310  221.3670 N   0  0  0  0  0  0  0  0  0  0  0  0
  142.2550   72.7760  220.5170 C   0  0  0  0  0  0  0  0  0  0  0  0
  143.0760   72.1670  219.7000 N   0  0  0  0  0  0  0  0  0  0  0  0
  142.6590   71.6420  218.8970 H   0  0  0  0  0  0  0  0  0  0  0  0
  144.5390   72.1530  219.8520 C   0  0  0  0  0  0  0  0  0  0  0  0
  144.7638   71.1192  219.5506 H   0  0  0  0  0  0  0  0  0  0  0  0
  145.2300   73.3280  219.1590 C   0  0  0  0  0  0  0  0  0  0  0  0
  146.0551   73.0346  218.4933 H   0  0  0  0  0  0  0  0  0  0  0  0
  144.6701   73.9731  218.4659 H   0  0  0  0  0  0  0  0  0  0  0  0
  145.6820   73.8600  220.5120 C   0  0  0  0  0  0  0  0  0  0  0  0
  146.7738   73.8780  220.6445 H   0  0  0  0  0  0  0  0  0  0  0  0
  145.4537   74.8952  220.8056 H   0  0  0  0  0  0  0  0  0  0  0  0
  144.9920   72.6950  221.2070 C   0  0  0  0  0  0  0  0  0  0  0  0
  145.6766   72.0278  221.7512 H   0  0  0  0  0  0  0  0  0  0  0  0
  144.2585   72.8793  222.0058 H   0  0  0  0  0  0  0  0  0  0  0  0
  142.1370   74.1390  220.5410 N   0  0  0  0  0  0  0  0  0  0  0  0
  142.7330   74.7450  219.9380 H   0  0  0  0  0  0  0  0  0  0  0  0
  140.8540   76.9240  220.2040 C   0  0  0  0  0  0  0  0  0  0  0  0
  139.8083   77.2652  220.2042 H   0  0  0  0  0  0  0  0  0  0  0  0
  141.0272   76.2821  219.3276 H   0  0  0  0  0  0  0  0  0  0  0  0
  141.7840   78.1310  220.1460 C   0  0  0  0  0  0  0  0  0  0  0  0
  141.4690   78.7870  219.3212 H   0  0  0  0  0  0  0  0  0  0  0  0
  142.8111   77.7712  219.9858 H   0  0  0  0  0  0  0  0  0  0  0  0
  1  2  1  0
  2  3  2  0
  3  4  1  0
  3  5  1  0
  5  6  1  0
  5  7  2  0
  7  8  1  0
  8  9  2  0
  9 10  1  0
  8 11  1  0
 11 12  1  0
 11 13  1  0
 11 14  1  0
 14 15  1  0
 15 16  2  0
 16 17  1  0
 17 18  1  0
 18 19  1  0
 19 20  1  0
 19 21  1  0
 19 22  1  0
 22 23  1  0
 22 24  1  0
 22 25  1  0
 25 26  1  0
 25 27  1  0
 25 28  1  0
 28 29  1  0
 28 30  1  0
 28 31  1  0
 31 32  1  0
 31 33  1  0
 17 34  2  0
 34 35  1  0
 35 36  2  0
 36 37  1  0
 36 38  1  0
 38 39  1  0
 38 40  1  0
 40 41  1  0
 40 42  1  0
 40 43  1  0
 43 44  1  0
 43 45  1  0
 43 46  1  0
 46 47  1  0
 46 48  1  0
 35 49  1  0
 49 50  1  0
 14 51  1  0
 51 52  1  0
 51 53  1  0
 51 54  1  0
 54 55  1  0
 54 56  1  0
  9  2  1  0
 49 15  1  0
 54  7  1  0
 31 18  1  0
 46 38  1  0
M  CHG  1  36   1
M  END
>  <UniqueID>  (78) 
486

>  <SMILES>  (78) 
c1ccc2c(c1)CCN(c1nc(N3CCCCC3)n/c(=[NH+]/C3CCC3)[nH]1)C2

>  <Energy>  (78) 
125.77127150498245

>  <Genealogy>  (78) 
c1ccc2c(c1)CCN(c1nc([NH2+]C3CCC3)nc(N3CCCCC3)n1)C2 (protonated)
c1ccc2c(c1)CCN(c1nc(N3CCCCC3)nc(=[NH+]C3CCC3)[nH]1)C2 (tautomer)
c1ccc2c(c1)CCN(c1nc(N3CCCCC3)n/c(=[NH+]/C3CCC3)[nH]1)C2 (cis-trans isomerization)
c1ccc2c(c1)CCN(c1nc(N3CCCCC3)n/c(=[NH+]/C3CCC3)[nH]1)C2 (3D coordinates assigned)
c1ccc2c(c1)CCN(c1nc(N3CCCCC3)n/c(=[NH+]/C3CCC3)[nH]1)C2 (nonaromatic ring conformer: 125.77127150498245 kcal/mol)

>  <smiles>  (78) 
c1ccc2c(c1)CCN(c1nc(NC3CCC3)nc(N3CCCCC3)n1)C2

>  <score_type>  (78) 
oracle

>  <origin>  (78) 
autodockgpu

>  <m_score__min__energy>  (78) 
-7.7999999999999998

>  <m_primary>  (78) 
energy

>  <meeko>  (78) 
{"free_energy": -7.63, "intermolecular_energy": -8.83, "internal_energy": -0.55, "cluster_size": 19, "cluster_id": 1, "rank_in_cluster": 11}

>  <energy>  (78) 
-7.57

>  <cluster_rmsd>  (78) 
0.67

>  <rmsd>  (78) 
270.44

>  <cluster>  (78) 
1

$$$$
JGFXCGHACWUNAV-YFNBPOHCNA-O
     RDKit          3D

 56 60  0  0  0  0  0  0  0  0999 V2000
  141.7591   81.3551  224.7957 H   0  0  0  0  0  0  0  0  0  0  0  0
  141.6890   80.7960  223.8510 C   0  0  0  0  0  0  0  0  0  0  0  0
  141.8620   81.4580  222.6350 C   0  0  0  0  0  0  0  0  0  0  0  0
  142.0705   82.5380  222.6228 H   0  0  0  0  0  0  0  0  0  0  0  0
  141.7710   80.7520  221.4330 C   0  0  0  0  0  0  0  0  0  0  0  0
  141.9197   81.2770  220.4779 H   0  0  0  0  0  0  0  0  0  0  0  0
  141.4910   79.3770  221.4370 C   0  0  0  0  0  0  0  0  0  0  0  0
  141.3380   78.7000  222.6710 C   0  0  0  0  0  0  0  0  0  0  0  0
  141.4270   79.4250  223.8700 C   0  0  0  0  0  0  0  0  0  0  0  0
  141.2893   78.9088  224.8316 H   0  0  0  0  0  0  0  0  0  0  0  0
  141.0300   77.2210  222.7330 C   0  0  0  0  0  0  0  0  0  0  0  0
  140.0121   77.0864  223.1276 H   0  0  0  0  0  0  0  0  0  0  0  0
  141.7760   76.7455  223.3867 H   0  0  0  0  0  0  0  0  0  0  0  0
  141.1140   76.5870  221.4130 N   0  0  0  0  0  0  0  0  0  0  0  0
  141.3720   75.1740  221.3190 C   0  0  0  0  0  0  0  0  0  0  0  0
  140.6330   74.3060  222.0580 N   0  0  0  0  0  0  0  0  0  0  0  0
  140.8600   72.9710  221.9930 C   0  0  0  0  0  0  0  0  0  0  0  0
  140.0690   72.0530  222.7750 N   0  0  0  0  0  0  0  0  0  0  0  0
  140.3210   71.8780  224.2150 C   0  0  0  0  0  0  0  0  0  0  0  0
  141.3373   72.2262  224.4516 H   0  0  0  0  0  0  0  0  0  0  0  0
  139.5834   72.4633  224.7836 H   0  0  0  0  0  0  0  0  0  0  0  0
  140.1900   70.3990  224.5960 C   0  0  0  0  0  0  0  0  0  0  0  0
  141.0262   69.8463  224.1429 H   0  0  0  0  0  0  0  0  0  0  0  0
  140.2031   70.3430  225.6945 H   0  0  0  0  0  0  0  0  0  0  0  0
  138.8660   69.7610  224.1210 C   0  0  0  0  0  0  0  0  0  0  0  0
  139.1015   68.8235  223.5960 H   0  0  0  0  0  0  0  0  0  0  0  0
  138.2492   69.5982  225.0171 H   0  0  0  0  0  0  0  0  0  0  0  0
  138.0520   70.6550  223.1740 C   0  0  0  0  0  0  0  0  0  0  0  0
  137.3089   70.0364  222.6494 H   0  0  0  0  0  0  0  0  0  0  0  0
  137.5599   71.4346  223.7740 H   0  0  0  0  0  0  0  0  0  0  0  0
  138.9490   71.3410  222.1380 C   0  0  0  0  0  0  0  0  0  0  0  0
  139.3530   70.5788  221.4555 H   0  0  0  0  0  0  0  0  0  0  0  0
  138.3411   72.0768  221.5911 H   0  0  0  0  0  0  0  0  0  0  0  0
  141.8390   72.5040  221.1760 N   0  0  0  0  0  0  0  0  0  0  0  0
  142.5990   73.3540  220.4350 C   0  0  0  0  0  0  0  0  0  0  0  0
  143.5340   72.8590  219.6650 N   0  0  0  0  0  0  0  0  0  0  0  0
  143.2770   72.0540  219.0480 H   0  0  0  0  0  0  0  0  0  0  0  0
  144.9220   73.3440  219.6290 C   0  0  0  0  0  0  0  0  0  0  0  0
  144.9639   73.7599  218.6115 H   0  0  0  0  0  0  0  0  0  0  0  0
  145.2920   74.2100  220.8340 C   0  0  0  0  0  0  0  0  0  0  0  0
  145.7479   75.1757  220.5700 H   0  0  0  0  0  0  0  0  0  0  0  0
  144.5124   74.5694  221.5217 H   0  0  0  0  0  0  0  0  0  0  0  0
  146.2910   73.1540  221.2860 C   0  0  0  0  0  0  0  0  0  0  0  0
  147.3362   73.4970  221.2871 H   0  0  0  0  0  0  0  0  0  0  0  0
  146.2413   72.7433  222.3052 H   0  0  0  0  0  0  0  0  0  0  0  0
  145.9240   72.2870  220.0900 C   0  0  0  0  0  0  0  0  0  0  0  0
  146.7530   72.1177  219.3871 H   0  0  0  0  0  0  0  0  0  0  0  0
  145.6050   71.2444  220.2359 H   0  0  0  0  0  0  0  0  0  0  0  0
  142.3660   74.6990  220.5180 N   0  0  0  0  0  0  0  0  0  0  0  0
  142.9580   75.3840  220.0010 H   0  0  0  0  0  0  0  0  0  0  0  0
  140.6420   77.3420  220.2500 C   0  0  0  0  0  0  0  0  0  0  0  0
  139.5770   77.5859  220.3773 H   0  0  0  0  0  0  0  0  0  0  0  0
  140.7701   76.7373  219.3401 H   0  0  0  0  0  0  0  0  0  0  0  0
  141.4490   78.6300  220.1270 C   0  0  0  0  0  0  0  0  0  0  0  0
  140.9857   79.2717  219.3631 H   0  0  0  0  0  0  0  0  0  0  0  0
  142.4791   78.3688  219.8428 H   0  0  0  0  0  0  0  0  0  0  0  0
  1  2  1  0
  2  3  2  0
  3  4  1  0
  3  5  1  0
  5  6  1  0
  5  7  2  0
  7  8  1  0
  8  9  2  0
  9 10  1  0
  8 11  1  0
 11 12  1  0
 11 13  1  0
 11 14  1  0
 14 15  1  0
 15 16  2  0
 16 17  1  0
 17 18  1  0
 18 19  1  0
 19 20  1  0
 19 21  1  0
 19 22  1  0
 22 23  1  0
 22 24  1  0
 22 25  1  0
 25 26  1  0
 25 27  1  0
 25 28  1  0
 28 29  1  0
 28 30  1  0
 28 31  1  0
 31 32  1  0
 31 33  1  0
 17 34  2  0
 34 35  1  0
 35 36  2  0
 36 37  1  0
 36 38  1  0
 38 39  1  0
 38 40  1  0
 40 41  1  0
 40 42  1  0
 40 43  1  0
 43 44  1  0
 43 45  1  0
 43 46  1  0
 46 47  1  0
 46 48  1  0
 35 49  1  0
 49 50  1  0
 14 51  1  0
 51 52  1  0
 51 53  1  0
 51 54  1  0
 54 55  1  0
 54 56  1  0
  9  2  1  0
 49 15  1  0
 54  7  1  0
 31 18  1  0
 46 38  1  0
M  CHG  1  36   1
M  END
>  <UniqueID>  (79) 
486

>  <SMILES>  (79) 
c1ccc2c(c1)CCN(c1nc(N3CCCCC3)n/c(=[NH+]/C3CCC3)[nH]1)C2

>  <Energy>  (79) 
125.77127150498245

>  <Genealogy>  (79) 
c1ccc2c(c1)CCN(c1nc([NH2+]C3CCC3)nc(N3CCCCC3)n1)C2 (protonated)
c1ccc2c(c1)CCN(c1nc(N3CCCCC3)nc(=[NH+]C3CCC3)[nH]1)C2 (tautomer)
c1ccc2c(c1)CCN(c1nc(N3CCCCC3)n/c(=[NH+]/C3CCC3)[nH]1)C2 (cis-trans isomerization)
c1ccc2c(c1)CCN(c1nc(N3CCCCC3)n/c(=[NH+]/C3CCC3)[nH]1)C2 (3D coordinates assigned)
c1ccc2c(c1)CCN(c1nc(N3CCCCC3)n/c(=[NH+]/C3CCC3)[nH]1)C2 (nonaromatic ring conformer: 125.77127150498245 kcal/mol)

>  <smiles>  (79) 
c1ccc2c(c1)CCN(c1nc(NC3CCC3)nc(N3CCCCC3)n1)C2

>  <score_type>  (79) 
oracle

>  <origin>  (79) 
autodockgpu

>  <m_score__min__energy>  (79) 
-7.7999999999999998

>  <m_primary>  (79) 
energy

>  <meeko>  (79) 
{"free_energy": -7.8, "intermolecular_energy": -8.99, "internal_energy": -0.44, "cluster_size": 19, "cluster_id": 1, "rank_in_cluster": 3}

>  <energy>  (79) 
-7.35

>  <cluster_rmsd>  (79) 
1.89

>  <rmsd>  (79) 
270.34

>  <cluster>  (79) 
1

$$$$
JGFXCGHACWUNAV-YFNBPOHCNA-O
     RDKit          3D

 56 60  0  0  0  0  0  0  0  0999 V2000
  141.8042   80.9845  224.7525 H   0  0  0  0  0  0  0  0  0  0  0  0
  141.8020   80.4010  223.8200 C   0  0  0  0  0  0  0  0  0  0  0  0
  142.1890   81.0020  222.6220 C   0  0  0  0  0  0  0  0  0  0  0  0
  142.4985   82.0575  222.6119 H   0  0  0  0  0  0  0  0  0  0  0  0
  142.1840   80.2650  221.4350 C   0  0  0  0  0  0  0  0  0  0  0  0
  142.5003   80.7405  220.4949 H   0  0  0  0  0  0  0  0  0  0  0  0
  141.7780   78.9220  221.4350 C   0  0  0  0  0  0  0  0  0  0  0  0
  141.4070   78.3050  222.6540 C   0  0  0  0  0  0  0  0  0  0  0  0
  141.4120   79.0610  223.8380 C   0  0  0  0  0  0  0  0  0  0  0  0
  141.1065   78.5937  224.7858 H   0  0  0  0  0  0  0  0  0  0  0  0
  140.9560   76.8640  222.7110 C   0  0  0  0  0  0  0  0  0  0  0  0
  139.8883   76.8360  222.9742 H   0  0  0  0  0  0  0  0  0  0  0  0
  141.5653   76.3465  223.4666 H   0  0  0  0  0  0  0  0  0  0  0  0
  141.1460   76.1780  221.4270 N   0  0  0  0  0  0  0  0  0  0  0  0
  141.2790   74.7450  221.4000 C   0  0  0  0  0  0  0  0  0  0  0  0
  140.5430   73.9860  222.2530 N   0  0  0  0  0  0  0  0  0  0  0  0
  140.6560   72.6340  222.2520 C   0  0  0  0  0  0  0  0  0  0  0  0
  139.8680   71.8330  223.1560 N   0  0  0  0  0  0  0  0  0  0  0  0
  140.3570   71.5190  224.5080 C   0  0  0  0  0  0  0  0  0  0  0  0
  141.4483   71.6529  224.5404 H   0  0  0  0  0  0  0  0  0  0  0  0
  139.8755   72.1940  225.2309 H   0  0  0  0  0  0  0  0  0  0  0  0
  140.0130   70.0690  224.8690 C   0  0  0  0  0  0  0  0  0  0  0  0
  140.6187   69.3996  224.2405 H   0  0  0  0  0  0  0  0  0  0  0  0
  140.2287   69.9400  225.9399 H   0  0  0  0  0  0  0  0  0  0  0  0
  138.5230   69.7240  224.6580 C   0  0  0  0  0  0  0  0  0  0  0  0
  138.4615   68.7962  224.0703 H   0  0  0  0  0  0  0  0  0  0  0  0
  138.0734   69.6199  225.6565 H   0  0  0  0  0  0  0  0  0  0  0  0
  137.7330   70.8160  223.9230 C   0  0  0  0  0  0  0  0  0  0  0  0
  136.7936   70.3849  223.5465 H   0  0  0  0  0  0  0  0  0  0  0  0
  137.5337   71.6330  224.6321 H   0  0  0  0  0  0  0  0  0  0  0  0
  138.5260   71.3880  222.7430 C   0  0  0  0  0  0  0  0  0  0  0  0
  138.6294   70.6103  221.9720 H   0  0  0  0  0  0  0  0  0  0  0  0
  137.9801   72.2591  222.3517 H   0  0  0  0  0  0  0  0  0  0  0  0
  141.5160   72.0410  221.3850 N   0  0  0  0  0  0  0  0  0  0  0  0
  142.2710   72.7800  220.5300 C   0  0  0  0  0  0  0  0  0  0  0  0
  143.0890   72.1650  219.7150 N   0  0  0  0  0  0  0  0  0  0  0  0
  142.6690   71.6290  218.9200 H   0  0  0  0  0  0  0  0  0  0  0  0
  144.5530   72.1600  219.8560 C   0  0  0  0  0  0  0  0  0  0  0  0
  144.7840   71.1364  219.5260 H   0  0  0  0  0  0  0  0  0  0  0  0
  145.2300   73.3590  219.1890 C   0  0  0  0  0  0  0  0  0  0  0  0
  146.0532   73.0900  218.5108 H   0  0  0  0  0  0  0  0  0  0  0  0
  144.6604   74.0171  218.5164 H   0  0  0  0  0  0  0  0  0  0  0  0
  145.6860   73.8590  220.5520 C   0  0  0  0  0  0  0  0  0  0  0  0
  146.7785   73.8830  220.6780 H   0  0  0  0  0  0  0  0  0  0  0  0
  145.4505   74.8842  220.8738 H   0  0  0  0  0  0  0  0  0  0  0  0
  145.0110   72.6710  221.2210 C   0  0  0  0  0  0  0  0  0  0  0  0
  145.7051   71.9960  221.7431 H   0  0  0  0  0  0  0  0  0  0  0  0
  144.2816   72.8284  222.0292 H   0  0  0  0  0  0  0  0  0  0  0  0
  142.1560   74.1440  220.5480 N   0  0  0  0  0  0  0  0  0  0  0  0
  142.7510   74.7450  219.9400 H   0  0  0  0  0  0  0  0  0  0  0  0
  140.8980   76.9320  220.1960 C   0  0  0  0  0  0  0  0  0  0  0  0
  139.8532   77.2756  220.1794 H   0  0  0  0  0  0  0  0  0  0  0  0
  141.0828   76.2869  219.3244 H   0  0  0  0  0  0  0  0  0  0  0  0
  141.8310   78.1360  220.1480 C   0  0  0  0  0  0  0  0  0  0  0  0
  141.5299   78.7898  219.3162 H   0  0  0  0  0  0  0  0  0  0  0  0
  142.8594   77.7729  220.0049 H   0  0  0  0  0  0  0  0  0  0  0  0
  1  2  1  0
  2  3  2  0
  3  4  1  0
  3  5  1  0
  5  6  1  0
  5  7  2  0
  7  8  1  0
  8  9  2  0
  9 10  1  0
  8 11  1  0
 11 12  1  0
 11 13  1  0
 11 14  1  0
 14 15  1  0
 15 16  2  0
 16 17  1  0
 17 18  1  0
 18 19  1  0
 19 20  1  0
 19 21  1  0
 19 22  1  0
 22 23  1  0
 22 24  1  0
 22 25  1  0
 25 26  1  0
 25 27  1  0
 25 28  1  0
 28 29  1  0
 28 30  1  0
 28 31  1  0
 31 32  1  0
 31 33  1  0
 17 34  2  0
 34 35  1  0
 35 36  2  0
 36 37  1  0
 36 38  1  0
 38 39  1  0
 38 40  1  0
 40 41  1  0
 40 42  1  0
 40 43  1  0
 43 44  1  0
 43 45  1  0
 43 46  1  0
 46 47  1  0
 46 48  1  0
 35 49  1  0
 49 50  1  0
 14 51  1  0
 51 52  1  0
 51 53  1  0
 51 54  1  0
 54 55  1  0
 54 56  1  0
  9  2  1  0
 49 15  1  0
 54  7  1  0
 31 18  1  0
 46 38  1  0
M  CHG  1  36   1
M  END
>  <UniqueID>  (80) 
486

>  <SMILES>  (80) 
c1ccc2c(c1)CCN(c1nc(N3CCCCC3)n/c(=[NH+]/C3CCC3)[nH]1)C2

>  <Energy>  (80) 
125.77127150498245

>  <Genealogy>  (80) 
c1ccc2c(c1)CCN(c1nc([NH2+]C3CCC3)nc(N3CCCCC3)n1)C2 (protonated)
c1ccc2c(c1)CCN(c1nc(N3CCCCC3)nc(=[NH+]C3CCC3)[nH]1)C2 (tautomer)
c1ccc2c(c1)CCN(c1nc(N3CCCCC3)n/c(=[NH+]/C3CCC3)[nH]1)C2 (cis-trans isomerization)
c1ccc2c(c1)CCN(c1nc(N3CCCCC3)n/c(=[NH+]/C3CCC3)[nH]1)C2 (3D coordinates assigned)
c1ccc2c(c1)CCN(c1nc(N3CCCCC3)n/c(=[NH+]/C3CCC3)[nH]1)C2 (nonaromatic ring conformer: 125.77127150498245 kcal/mol)

>  <smiles>  (80) 
c1ccc2c(c1)CCN(c1nc(NC3CCC3)nc(N3CCCCC3)n1)C2

>  <score_type>  (80) 
oracle

>  <origin>  (80) 
autodockgpu

>  <m_score__min__energy>  (80) 
-7.7999999999999998

>  <m_primary>  (80) 
energy

>  <meeko>  (80) 
{"free_energy": -7.63, "intermolecular_energy": -8.82, "internal_energy": -0.56, "cluster_size": 19, "cluster_id": 1, "rank_in_cluster": 13}

>  <energy>  (80) 
-7.37

>  <cluster_rmsd>  (80) 
0.0

>  <rmsd>  (80) 
269.92

>  <cluster>  (80) 
2

$$$$
