ZPZIUNMFLXMAPV-NRFANRHFNA-N
     RDKit          3D

 62 67  0  0  0  0  0  0  0  0999 V2000
  135.9470   68.9340  224.9380 C   0  0  0  0  0  0  0  0  0  0  0  0
  135.2220   69.8730  224.2040 C   0  0  0  0  0  0  0  0  0  0  0  0
  135.8880   70.8890  223.5140 C   0  0  0  0  0  0  0  0  0  0  0  0
  137.2900   70.9770  223.5590 C   0  0  0  0  0  0  0  0  0  0  0  0
  138.0210   70.0280  224.3060 C   0  0  0  0  0  0  0  0  0  0  0  0
  137.3420   69.0050  224.9840 C   0  0  0  0  0  0  0  0  0  0  0  0
  139.5210   70.0730  224.3290 C   0  0  0  0  0  0  0  0  0  0  0  0
  140.0090   71.5140  224.2130 C   0  0  0  0  0  0  0  0  0  0  0  0
  139.4310   72.1470  223.0170 N   0  0  0  0  0  0  0  0  0  0  0  0
  140.2360   73.0030  222.1780 C   0  0  0  0  0  0  0  0  0  0  0  0
  141.2750   72.4860  221.4710 N   0  0  0  0  0  0  0  0  0  0  0  0
  142.0500   73.2880  220.6960 C   0  0  0  0  0  0  0  0  0  0  0  0
  143.1970   72.7060  219.9140 C   0  0  1  0  0  0  0  0  0  0  0  0
  143.9330   73.8220  219.1380 C   0  0  0  0  0  0  0  0  0  0  0  0
  145.3620   73.3960  218.7850 C   0  0  0  0  0  0  0  0  0  0  0  0
  146.1690   73.0020  220.0430 C   0  0  0  0  0  0  0  0  0  0  0  0
  145.3120   72.7400  221.2130 N   0  0  0  0  0  0  0  0  0  0  0  0
  144.1590   71.9120  220.8360 C   0  0  0  0  0  0  0  0  0  0  0  0
  141.7750   74.6170  220.6200 N   0  0  0  0  0  0  0  0  0  0  0  0
  140.7430   75.1500  221.3250 C   0  0  0  0  0  0  0  0  0  0  0  0
  140.4830   76.5670  221.2750 N   0  0  0  0  0  0  0  0  0  0  0  0
  140.6100   77.3280  220.0280 C   0  0  0  0  0  0  0  0  0  0  0  0
  141.7470   78.3370  220.1770 C   0  0  0  0  0  0  0  0  0  0  0  0
  141.6210   79.1250  221.4600 C   0  0  0  0  0  0  0  0  0  0  0  0
  142.3070   80.3440  221.5820 C   0  0  0  0  0  0  0  0  0  0  0  0
  142.2480   81.0720  222.7710 C   0  0  0  0  0  0  0  0  0  0  0  0
  141.5140   80.5870  223.8540 C   0  0  0  0  0  0  0  0  0  0  0  0
  140.8390   79.3690  223.7540 C   0  0  0  0  0  0  0  0  0  0  0  0
  140.8960   78.6200  222.5670 C   0  0  0  0  0  0  0  0  0  0  0  0
  140.1240   77.3220  222.4830 C   0  0  0  0  0  0  0  0  0  0  0  0
  139.9800   74.3350  222.1000 N   0  0  0  0  0  0  0  0  0  0  0  0
  137.9790   72.0700  222.7720 C   0  0  0  0  0  0  0  0  0  0  0  0
  135.4197   68.1362  225.4816 H   0  0  0  0  0  0  0  0  0  0  0  0
  134.1242   69.8134  224.1684 H   0  0  0  0  0  0  0  0  0  0  0  0
  135.3121   71.6239  222.9325 H   0  0  0  0  0  0  0  0  0  0  0  0
  137.9099   68.2553  225.5544 H   0  0  0  0  0  0  0  0  0  0  0  0
  139.8826   69.6423  225.2744 H   0  0  0  0  0  0  0  0  0  0  0  0
  139.9096   69.4939  223.4783 H   0  0  0  0  0  0  0  0  0  0  0  0
  139.7011   72.0758  225.1072 H   0  0  0  0  0  0  0  0  0  0  0  0
  141.1058   71.5178  224.1289 H   0  0  0  0  0  0  0  0  0  0  0  0
  142.7963   71.9908  219.1806 H   0  0  0  0  0  0  0  0  0  0  0  0
  143.3827   74.0379  218.2104 H   0  0  0  0  0  0  0  0  0  0  0  0
  143.9819   74.7175  219.7749 H   0  0  0  0  0  0  0  0  0  0  0  0
  145.3187   72.5328  218.1046 H   0  0  0  0  0  0  0  0  0  0  0  0
  145.8660   74.2495  218.3080 H   0  0  0  0  0  0  0  0  0  0  0  0
  146.7462   72.0927  219.8196 H   0  0  0  0  0  0  0  0  0  0  0  0
  146.8234   73.8494  220.2952 H   0  0  0  0  0  0  0  0  0  0  0  0
  145.8800   72.2030  221.9110 H   0  0  0  0  0  0  0  0  0  0  0  0
  144.5145   71.0176  220.3035 H   0  0  0  0  0  0  0  0  0  0  0  0
  143.6174   71.6207  221.7480 H   0  0  0  0  0  0  0  0  0  0  0  0
  140.8321   76.6416  219.1976 H   0  0  0  0  0  0  0  0  0  0  0  0
  139.6686   77.8563  219.8166 H   0  0  0  0  0  0  0  0  0  0  0  0
  142.7057   77.7977  220.1811 H   0  0  0  0  0  0  0  0  0  0  0  0
  141.6981   79.0405  219.3328 H   0  0  0  0  0  0  0  0  0  0  0  0
  142.8947   80.7276  220.7349 H   0  0  0  0  0  0  0  0  0  0  0  0
  142.7813   82.0304  222.8547 H   0  0  0  0  0  0  0  0  0  0  0  0
  141.4671   81.1655  224.7885 H   0  0  0  0  0  0  0  0  0  0  0  0
  140.2590   78.9936  224.6099 H   0  0  0  0  0  0  0  0  0  0  0  0
  140.3520   76.7110  223.3688 H   0  0  0  0  0  0  0  0  0  0  0  0
  139.0504   77.5577  222.4400 H   0  0  0  0  0  0  0  0  0  0  0  0
  137.5280   73.0346  223.0480 H   0  0  0  0  0  0  0  0  0  0  0  0
  137.8434   71.8350  221.7060 H   0  0  0  0  0  0  0  0  0  0  0  0
  1  2  2  0
  2  3  1  0
  3  4  2  0
  4  5  1  0
  5  6  2  0
  5  7  1  0
  7  8  1  0
  8  9  1  0
  9 10  1  0
 10 11  2  0
 11 12  1  0
 12 13  1  0
 13 14  1  0
 14 15  1  0
 15 16  1  0
 16 17  1  0
 17 18  1  0
 12 19  2  0
 19 20  1  0
 20 21  1  0
 21 22  1  0
 22 23  1  0
 23 24  1  0
 24 25  2  0
 25 26  1  0
 26 27  2  0
 27 28  1  0
 28 29  2  0
 29 30  1  0
 20 31  2  0
  9 32  1  0
  6  1  1  0
 31 10  1  0
 32  4  1  0
 18 13  1  0
 30 21  1  0
 29 24  1  0
  1 33  1  0
  2 34  1  0
  3 35  1  0
  6 36  1  0
  7 37  1  0
  7 38  1  0
  8 39  1  0
  8 40  1  0
 13 41  1  6
 14 42  1  0
 14 43  1  0
 15 44  1  0
 15 45  1  0
 16 46  1  0
 16 47  1  0
 17 48  1  0
 18 49  1  0
 18 50  1  0
 22 51  1  0
 22 52  1  0
 23 53  1  0
 23 54  1  0
 25 55  1  0
 26 56  1  0
 27 57  1  0
 28 58  1  0
 30 59  1  0
 30 60  1  0
 32 61  1  0
 32 62  1  0
M  END
>  <UniqueID>  (1) 
676

>  <SMILES>  (1) 
c1ccc2c(c1)CCN(c1nc([C@H]3CCCNC3)nc(N3CCc4ccccc4C3)n1)C2

>  <Energy>  (1) 
76.68140197216171

>  <Genealogy>  (1) 
c1ccc2c(c1)CCN(c1nc([C@H]3CCCNC3)nc(N3CCc4ccccc4C3)n1)C2 (chirality)
c1ccc2c(c1)CCN(c1nc([C@H]3CCCNC3)nc(N3CCc4ccccc4C3)n1)C2 (3D coordinates assigned)
c1ccc2c(c1)CCN(c1nc([C@H]3CCCNC3)nc(N3CCc4ccccc4C3)n1)C2 (nonaromatic ring conformer: 76.68140197216171 kcal/mol)

>  <smiles>  (1) 
c1ccc2c(c1)CCN(c1nc(C3CCCNC3)nc(N3CCc4ccccc4C3)n1)C2

>  <score_type>  (1) 
oracle

>  <origin>  (1) 
autodockgpu

>  <m_score__min__energy>  (1) 
-8.9299999999999997

>  <m_primary>  (1) 
energy

>  <meeko>  (1) 
{"free_energy": -8.8, "intermolecular_energy": -9.69, "internal_energy": -0.91, "cluster_size": 19, "cluster_id": 1, "rank_in_cluster": 18}

>  <energy>  (1) 
-8.93

>  <cluster_rmsd>  (1) 
0.0

>  <rmsd>  (1) 
271.51

>  <cluster>  (1) 
1

$$$$
ZPZIUNMFLXMAPV-NRFANRHFNA-N
     RDKit          3D

 62 67  0  0  0  0  0  0  0  0999 V2000
  138.1450   68.7980  225.6800 C   0  0  0  0  0  0  0  0  0  0  0  0
  139.4330   69.0360  226.1590 C   0  0  0  0  0  0  0  0  0  0  0  0
  140.2550   69.9710  225.5240 C   0  0  0  0  0  0  0  0  0  0  0  0
  139.7950   70.6710  224.3960 C   0  0  0  0  0  0  0  0  0  0  0  0
  138.4920   70.4240  223.9100 C   0  0  0  0  0  0  0  0  0  0  0  0
  137.6720   69.4930  224.5640 C   0  0  0  0  0  0  0  0  0  0  0  0
  137.9610   71.1940  222.7360 C   0  0  0  0  0  0  0  0  0  0  0  0
  139.0950   71.5450  221.7770 C   0  0  0  0  0  0  0  0  0  0  0  0
  140.1630   72.2550  222.4980 N   0  0  0  0  0  0  0  0  0  0  0  0
  140.8240   73.3900  221.8990 C   0  0  0  0  0  0  0  0  0  0  0  0
  141.9630   73.2150  221.1770 N   0  0  0  0  0  0  0  0  0  0  0  0
  142.6030   74.2790  220.6280 C   0  0  0  0  0  0  0  0  0  0  0  0
  143.8620   74.0740  219.8280 C   0  0  1  0  0  0  0  0  0  0  0  0
  145.0930   74.0840  220.7630 C   0  0  0  0  0  0  0  0  0  0  0  0
  146.2820   73.3690  220.1130 C   0  0  0  0  0  0  0  0  0  0  0  0
  145.9290   71.9180  219.7130 C   0  0  0  0  0  0  0  0  0  0  0  0
  144.4760   71.6750  219.6690 N   0  0  0  0  0  0  0  0  0  0  0  0
  143.7860   72.7760  218.9850 C   0  0  0  0  0  0  0  0  0  0  0  0
  142.0920   75.5270  220.7930 N   0  0  0  0  0  0  0  0  0  0  0  0
  140.9590   75.7200  221.5150 C   0  0  0  0  0  0  0  0  0  0  0  0
  140.4460   77.0520  221.7240 N   0  0  0  0  0  0  0  0  0  0  0  0
  139.7090   77.7650  220.6760 C   0  0  0  0  0  0  0  0  0  0  0  0
  140.5160   78.9890  220.2490 C   0  0  0  0  0  0  0  0  0  0  0  0
  140.9740   79.7920  221.4430 C   0  0  0  0  0  0  0  0  0  0  0  0
  141.3600   81.1300  221.2580 C   0  0  0  0  0  0  0  0  0  0  0  0
  141.8320   81.8850  222.3340 C   0  0  0  0  0  0  0  0  0  0  0  0
  141.9330   81.3110  223.6020 C   0  0  0  0  0  0  0  0  0  0  0  0
  141.5670   79.9770  223.7980 C   0  0  0  0  0  0  0  0  0  0  0  0
  141.1000   79.2030  222.7250 C   0  0  0  0  0  0  0  0  0  0  0  0
  140.6800   77.7720  222.9830 C   0  0  0  0  0  0  0  0  0  0  0  0
  140.3320   74.6460  222.0630 N   0  0  0  0  0  0  0  0  0  0  0  0
  140.7000   71.6990  223.7530 C   0  0  0  0  0  0  0  0  0  0  0  0
  137.5002   68.0616  226.1818 H   0  0  0  0  0  0  0  0  0  0  0  0
  139.8024   68.4871  227.0378 H   0  0  0  0  0  0  0  0  0  0  0  0
  141.2678   70.1599  225.9095 H   0  0  0  0  0  0  0  0  0  0  0  0
  136.6516   69.3091  224.1966 H   0  0  0  0  0  0  0  0  0  0  0  0
  137.2152   70.5819  222.2077 H   0  0  0  0  0  0  0  0  0  0  0  0
  137.4972   72.1236  223.0976 H   0  0  0  0  0  0  0  0  0  0  0  0
  139.5022   70.6209  221.3408 H   0  0  0  0  0  0  0  0  0  0  0  0
  138.7050   72.1942  220.9792 H   0  0  0  0  0  0  0  0  0  0  0  0
  143.9686   74.9074  219.1180 H   0  0  0  0  0  0  0  0  0  0  0  0
  145.3733   75.1258  220.9776 H   0  0  0  0  0  0  0  0  0  0  0  0
  144.8318   73.5560  221.6920 H   0  0  0  0  0  0  0  0  0  0  0  0
  146.5822   73.9240  219.2120 H   0  0  0  0  0  0  0  0  0  0  0  0
  147.1018   73.3325  220.8456 H   0  0  0  0  0  0  0  0  0  0  0  0
  146.3494   71.7159  218.7168 H   0  0  0  0  0  0  0  0  0  0  0  0
  146.3533   71.2511  220.4780 H   0  0  0  0  0  0  0  0  0  0  0  0
  144.3150   70.8000  219.1170 H   0  0  0  0  0  0  0  0  0  0  0  0
  144.2623   72.9504  218.0089 H   0  0  0  0  0  0  0  0  0  0  0  0
  142.7292   72.5025  218.8490 H   0  0  0  0  0  0  0  0  0  0  0  0
  139.5606   77.1007  219.8119 H   0  0  0  0  0  0  0  0  0  0  0  0
  138.7277   78.0810  221.0597 H   0  0  0  0  0  0  0  0  0  0  0  0
  141.3980   78.6561  219.6822 H   0  0  0  0  0  0  0  0  0  0  0  0
  139.8714   79.6289  219.6285 H   0  0  0  0  0  0  0  0  0  0  0  0
  141.2901   81.5859  220.2594 H   0  0  0  0  0  0  0  0  0  0  0  0
  142.1248   82.9343  222.1817 H   0  0  0  0  0  0  0  0  0  0  0  0
  142.3012   81.9096  224.4482 H   0  0  0  0  0  0  0  0  0  0  0  0
  141.6455   79.5305  224.8003 H   0  0  0  0  0  0  0  0  0  0  0  0
  141.4745   77.2608  223.5464 H   0  0  0  0  0  0  0  0  0  0  0  0
  139.7422   77.7824  223.5579 H   0  0  0  0  0  0  0  0  0  0  0  0
  141.6680   71.2234  223.5366 H   0  0  0  0  0  0  0  0  0  0  0  0
  140.7939   72.5347  224.4620 H   0  0  0  0  0  0  0  0  0  0  0  0
  1  2  2  0
  2  3  1  0
  3  4  2  0
  4  5  1  0
  5  6  2  0
  5  7  1  0
  7  8  1  0
  8  9  1  0
  9 10  1  0
 10 11  2  0
 11 12  1  0
 12 13  1  0
 13 14  1  0
 14 15  1  0
 15 16  1  0
 16 17  1  0
 17 18  1  0
 12 19  2  0
 19 20  1  0
 20 21  1  0
 21 22  1  0
 22 23  1  0
 23 24  1  0
 24 25  2  0
 25 26  1  0
 26 27  2  0
 27 28  1  0
 28 29  2  0
 29 30  1  0
 20 31  2  0
  9 32  1  0
  6  1  1  0
 31 10  1  0
 32  4  1  0
 18 13  1  0
 30 21  1  0
 29 24  1  0
  1 33  1  0
  2 34  1  0
  3 35  1  0
  6 36  1  0
  7 37  1  0
  7 38  1  0
  8 39  1  0
  8 40  1  0
 13 41  1  6
 14 42  1  0
 14 43  1  0
 15 44  1  0
 15 45  1  0
 16 46  1  0
 16 47  1  0
 17 48  1  0
 18 49  1  0
 18 50  1  0
 22 51  1  0
 22 52  1  0
 23 53  1  0
 23 54  1  0
 25 55  1  0
 26 56  1  0
 27 57  1  0
 28 58  1  0
 30 59  1  0
 30 60  1  0
 32 61  1  0
 32 62  1  0
M  END
>  <UniqueID>  (2) 
676

>  <SMILES>  (2) 
c1ccc2c(c1)CCN(c1nc([C@H]3CCCNC3)nc(N3CCc4ccccc4C3)n1)C2

>  <Energy>  (2) 
76.68140197216171

>  <Genealogy>  (2) 
c1ccc2c(c1)CCN(c1nc([C@H]3CCCNC3)nc(N3CCc4ccccc4C3)n1)C2 (chirality)
c1ccc2c(c1)CCN(c1nc([C@H]3CCCNC3)nc(N3CCc4ccccc4C3)n1)C2 (3D coordinates assigned)
c1ccc2c(c1)CCN(c1nc([C@H]3CCCNC3)nc(N3CCc4ccccc4C3)n1)C2 (nonaromatic ring conformer: 76.68140197216171 kcal/mol)

>  <smiles>  (2) 
c1ccc2c(c1)CCN(c1nc(C3CCCNC3)nc(N3CCc4ccccc4C3)n1)C2

>  <score_type>  (2) 
oracle

>  <origin>  (2) 
autodockgpu

>  <m_score__min__energy>  (2) 
-8.9299999999999997

>  <m_primary>  (2) 
energy

>  <meeko>  (2) 
{"free_energy": -8.93, "intermolecular_energy": -9.82, "internal_energy": -0.87, "cluster_size": 19, "cluster_id": 1, "rank_in_cluster": 3}

>  <energy>  (2) 
-8.93

>  <cluster_rmsd>  (2) 
0.2

>  <rmsd>  (2) 
271.5

>  <cluster>  (2) 
1

$$$$
ZPZIUNMFLXMAPV-NRFANRHFNA-N
     RDKit          3D

 62 67  0  0  0  0  0  0  0  0999 V2000
  139.2940   69.2290  227.7330 C   0  0  0  0  0  0  0  0  0  0  0  0
  140.4780   69.9310  227.9610 C   0  0  0  0  0  0  0  0  0  0  0  0
  141.0400   70.7050  226.9420 C   0  0  0  0  0  0  0  0  0  0  0  0
  140.4230   70.7770  225.6820 C   0  0  0  0  0  0  0  0  0  0  0  0
  139.2270   70.0620  225.4530 C   0  0  0  0  0  0  0  0  0  0  0  0
  138.6650   69.2990  226.4870 C   0  0  0  0  0  0  0  0  0  0  0  0
  138.5250   70.1630  224.1300 C   0  0  0  0  0  0  0  0  0  0  0  0
  139.5370   70.3640  223.0070 C   0  0  0  0  0  0  0  0  0  0  0  0
  140.3880   71.5280  223.2980 N   0  0  0  0  0  0  0  0  0  0  0  0
  140.7450   72.4560  222.2520 C   0  0  0  0  0  0  0  0  0  0  0  0
  141.4790   72.0380  221.1870 N   0  0  0  0  0  0  0  0  0  0  0  0
  141.8360   72.9100  220.2090 C   0  0  0  0  0  0  0  0  0  0  0  0
  142.6470   72.4350  219.0320 C   0  0  1  0  0  0  0  0  0  0  0  0
  143.3310   73.6360  218.3390 C   0  0  0  0  0  0  0  0  0  0  0  0
  144.5420   73.1810  217.5190 C   0  0  0  0  0  0  0  0  0  0  0  0
  145.5650   72.4130  218.3870 C   0  0  0  0  0  0  0  0  0  0  0  0
  144.9970   71.9490  219.6640 N   0  0  0  0  0  0  0  0  0  0  0  0
  143.6710   71.3520  219.4570 C   0  0  0  0  0  0  0  0  0  0  0  0
  141.4470   74.2090  220.2930 N   0  0  0  0  0  0  0  0  0  0  0  0
  140.7180   74.6440  221.3530 C   0  0  0  0  0  0  0  0  0  0  0  0
  140.3440   76.0330  221.4580 N   0  0  0  0  0  0  0  0  0  0  0  0
  139.8530   76.7870  220.3010 C   0  0  0  0  0  0  0  0  0  0  0  0
  140.8520   77.8920  219.9680 C   0  0  0  0  0  0  0  0  0  0  0  0
  141.2320   78.6820  221.1980 C   0  0  0  0  0  0  0  0  0  0  0  0
  141.7980   79.9570  221.0430 C   0  0  0  0  0  0  0  0  0  0  0  0
  142.2010   80.6920  222.1590 C   0  0  0  0  0  0  0  0  0  0  0  0
  142.0540   80.1590  223.4400 C   0  0  0  0  0  0  0  0  0  0  0  0
  141.5070   78.8850  223.6100 C   0  0  0  0  0  0  0  0  0  0  0  0
  141.1050   78.1300  222.4970 C   0  0  0  0  0  0  0  0  0  0  0  0
  140.4840   76.7690  222.7220 C   0  0  0  0  0  0  0  0  0  0  0  0
  140.3710   73.7610  222.3260 N   0  0  0  0  0  0  0  0  0  0  0  0
  141.0430   71.6510  224.6130 C   0  0  0  0  0  0  0  0  0  0  0  0
  138.8546   68.6189  228.5359 H   0  0  0  0  0  0  0  0  0  0  0  0
  140.9695   69.8752  228.9435 H   0  0  0  0  0  0  0  0  0  0  0  0
  141.9708   71.2610  227.1277 H   0  0  0  0  0  0  0  0  0  0  0  0
  137.7252   68.7534  226.3165 H   0  0  0  0  0  0  0  0  0  0  0  0
  137.9599   69.2371  223.9476 H   0  0  0  0  0  0  0  0  0  0  0  0
  137.8409   71.0241  224.1531 H   0  0  0  0  0  0  0  0  0  0  0  0
  140.1661   69.4660  222.9187 H   0  0  0  0  0  0  0  0  0  0  0  0
  138.9990   70.5374  222.0633 H   0  0  0  0  0  0  0  0  0  0  0  0
  141.9703   71.9636  218.3041 H   0  0  0  0  0  0  0  0  0  0  0  0
  142.6073   74.1252  217.6704 H   0  0  0  0  0  0  0  0  0  0  0  0
  143.6760   74.3370  219.1134 H   0  0  0  0  0  0  0  0  0  0  0  0
  144.1965   72.5223  216.7086 H   0  0  0  0  0  0  0  0  0  0  0  0
  145.0384   74.0758  217.1154 H   0  0  0  0  0  0  0  0  0  0  0  0
  145.9189   71.5384  217.8216 H   0  0  0  0  0  0  0  0  0  0  0  0
  146.3856   73.1066  218.6226 H   0  0  0  0  0  0  0  0  0  0  0  0
  145.6300   71.2060  220.0440 H   0  0  0  0  0  0  0  0  0  0  0  0
  143.7374   70.5877  218.6687 H   0  0  0  0  0  0  0  0  0  0  0  0
  143.3354   70.8965  220.4003 H   0  0  0  0  0  0  0  0  0  0  0  0
  139.7482   76.1123  219.4385 H   0  0  0  0  0  0  0  0  0  0  0  0
  138.8733   77.2295  220.5342 H   0  0  0  0  0  0  0  0  0  0  0  0
  141.7581   77.4380  219.5404 H   0  0  0  0  0  0  0  0  0  0  0  0
  140.3815   78.5780  219.2483 H   0  0  0  0  0  0  0  0  0  0  0  0
  141.9248   80.3797  220.0354 H   0  0  0  0  0  0  0  0  0  0  0  0
  142.6356   81.6940  222.0283 H   0  0  0  0  0  0  0  0  0  0  0  0
  142.3693   80.7429  224.3173 H   0  0  0  0  0  0  0  0  0  0  0  0
  141.3906   78.4708  224.6224 H   0  0  0  0  0  0  0  0  0  0  0  0
  141.1242   76.1910  223.4047 H   0  0  0  0  0  0  0  0  0  0  0  0
  139.4829   76.9104  223.1553 H   0  0  0  0  0  0  0  0  0  0  0  0
  142.1004   71.3686  224.5028 H   0  0  0  0  0  0  0  0  0  0  0  0
  140.9209   72.6947  224.9382 H   0  0  0  0  0  0  0  0  0  0  0  0
  1  2  2  0
  2  3  1  0
  3  4  2  0
  4  5  1  0
  5  6  2  0
  5  7  1  0
  7  8  1  0
  8  9  1  0
  9 10  1  0
 10 11  2  0
 11 12  1  0
 12 13  1  0
 13 14  1  0
 14 15  1  0
 15 16  1  0
 16 17  1  0
 17 18  1  0
 12 19  2  0
 19 20  1  0
 20 21  1  0
 21 22  1  0
 22 23  1  0
 23 24  1  0
 24 25  2  0
 25 26  1  0
 26 27  2  0
 27 28  1  0
 28 29  2  0
 29 30  1  0
 20 31  2  0
  9 32  1  0
  6  1  1  0
 31 10  1  0
 32  4  1  0
 18 13  1  0
 30 21  1  0
 29 24  1  0
  1 33  1  0
  2 34  1  0
  3 35  1  0
  6 36  1  0
  7 37  1  0
  7 38  1  0
  8 39  1  0
  8 40  1  0
 13 41  1  6
 14 42  1  0
 14 43  1  0
 15 44  1  0
 15 45  1  0
 16 46  1  0
 16 47  1  0
 17 48  1  0
 18 49  1  0
 18 50  1  0
 22 51  1  0
 22 52  1  0
 23 53  1  0
 23 54  1  0
 25 55  1  0
 26 56  1  0
 27 57  1  0
 28 58  1  0
 30 59  1  0
 30 60  1  0
 32 61  1  0
 32 62  1  0
M  END
>  <UniqueID>  (3) 
676

>  <SMILES>  (3) 
c1ccc2c(c1)CCN(c1nc([C@H]3CCCNC3)nc(N3CCc4ccccc4C3)n1)C2

>  <Energy>  (3) 
76.68140197216171

>  <Genealogy>  (3) 
c1ccc2c(c1)CCN(c1nc([C@H]3CCCNC3)nc(N3CCc4ccccc4C3)n1)C2 (chirality)
c1ccc2c(c1)CCN(c1nc([C@H]3CCCNC3)nc(N3CCc4ccccc4C3)n1)C2 (3D coordinates assigned)
c1ccc2c(c1)CCN(c1nc([C@H]3CCCNC3)nc(N3CCc4ccccc4C3)n1)C2 (nonaromatic ring conformer: 76.68140197216171 kcal/mol)

>  <smiles>  (3) 
c1ccc2c(c1)CCN(c1nc(C3CCCNC3)nc(N3CCc4ccccc4C3)n1)C2

>  <score_type>  (3) 
oracle

>  <origin>  (3) 
autodockgpu

>  <m_score__min__energy>  (3) 
-8.9299999999999997

>  <m_primary>  (3) 
energy

>  <meeko>  (3) 
{"free_energy": -8.88, "intermolecular_energy": -9.78, "internal_energy": -0.9, "cluster_size": 19, "cluster_id": 1, "rank_in_cluster": 11}

>  <energy>  (3) 
-8.93

>  <cluster_rmsd>  (3) 
0.13

>  <rmsd>  (3) 
271.5

>  <cluster>  (3) 
1

$$$$
ZPZIUNMFLXMAPV-NRFANRHFNA-N
     RDKit          3D

 62 67  0  0  0  0  0  0  0  0999 V2000
  138.1790   68.7920  225.6910 C   0  0  0  0  0  0  0  0  0  0  0  0
  139.5200   68.9300  226.0510 C   0  0  0  0  0  0  0  0  0  0  0  0
  140.3350   69.8430  225.3770 C   0  0  0  0  0  0  0  0  0  0  0  0
  139.8150   70.6220  224.3300 C   0  0  0  0  0  0  0  0  0  0  0  0
  138.4590   70.4770  223.9650 C   0  0  0  0  0  0  0  0  0  0  0  0
  137.6470   69.5660  224.6580 C   0  0  0  0  0  0  0  0  0  0  0  0
  137.8690   71.3320  222.8810 C   0  0  0  0  0  0  0  0  0  0  0  0
  138.9260   71.6600  221.8310 C   0  0  0  0  0  0  0  0  0  0  0  0
  140.1010   72.2690  222.4720 N   0  0  0  0  0  0  0  0  0  0  0  0
  140.7740   73.3890  221.8580 C   0  0  0  0  0  0  0  0  0  0  0  0
  141.9150   73.1940  221.1450 N   0  0  0  0  0  0  0  0  0  0  0  0
  142.5650   74.2450  220.5820 C   0  0  0  0  0  0  0  0  0  0  0  0
  143.8260   74.0180  219.7910 C   0  0  1  0  0  0  0  0  0  0  0  0
  145.0540   74.0480  220.7300 C   0  0  0  0  0  0  0  0  0  0  0  0
  146.2450   73.3150  220.1020 C   0  0  0  0  0  0  0  0  0  0  0  0
  145.8890   71.8560  219.7360 C   0  0  0  0  0  0  0  0  0  0  0  0
  144.4360   71.6150  219.6930 N   0  0  0  0  0  0  0  0  0  0  0  0
  143.7510   72.6990  218.9800 C   0  0  0  0  0  0  0  0  0  0  0  0
  142.0630   75.4990  220.7240 N   0  0  0  0  0  0  0  0  0  0  0  0
  140.9270   75.7120  221.4380 C   0  0  0  0  0  0  0  0  0  0  0  0
  140.4240   77.0500  221.6230 N   0  0  0  0  0  0  0  0  0  0  0  0
  139.8020   77.7960  220.5250 C   0  0  0  0  0  0  0  0  0  0  0  0
  140.6690   79.0100  220.1960 C   0  0  0  0  0  0  0  0  0  0  0  0
  141.0290   79.7840  221.4430 C   0  0  0  0  0  0  0  0  0  0  0  0
  141.4570   81.1150  221.3190 C   0  0  0  0  0  0  0  0  0  0  0  0
  141.8400   81.8420  222.4480 C   0  0  0  0  0  0  0  0  0  0  0  0
  141.8120   81.2450  223.7090 C   0  0  0  0  0  0  0  0  0  0  0  0
  141.4030   79.9170  223.8460 C   0  0  0  0  0  0  0  0  0  0  0  0
  141.0230   79.1700  222.7200 C   0  0  0  0  0  0  0  0  0  0  0  0
  140.5530   77.7450  222.9110 C   0  0  0  0  0  0  0  0  0  0  0  0
  140.2900   74.6510  222.0000 N   0  0  0  0  0  0  0  0  0  0  0  0
  140.7190   71.6230  223.6440 C   0  0  0  0  0  0  0  0  0  0  0  0
  137.5395   68.0717  226.2223 H   0  0  0  0  0  0  0  0  0  0  0  0
  139.9358   68.3195  226.8661 H   0  0  0  0  0  0  0  0  0  0  0  0
  141.3902   69.9525  225.6679 H   0  0  0  0  0  0  0  0  0  0  0  0
  136.5863   69.4613  224.3860 H   0  0  0  0  0  0  0  0  0  0  0  0
  137.0388   70.7909  222.4035 H   0  0  0  0  0  0  0  0  0  0  0  0
  137.5023   72.2695  223.3245 H   0  0  0  0  0  0  0  0  0  0  0  0
  139.2293   70.7352  221.3184 H   0  0  0  0  0  0  0  0  0  0  0  0
  138.5039   72.3691  221.1036 H   0  0  0  0  0  0  0  0  0  0  0  0
  143.9357   74.8334  219.0609 H   0  0  0  0  0  0  0  0  0  0  0  0
  145.3355   75.0942  220.9205 H   0  0  0  0  0  0  0  0  0  0  0  0
  144.7882   73.5427  221.6702 H   0  0  0  0  0  0  0  0  0  0  0  0
  146.5503   73.8474  219.1891 H   0  0  0  0  0  0  0  0  0  0  0  0
  147.0623   73.2946  220.8380 H   0  0  0  0  0  0  0  0  0  0  0  0
  146.3121   71.6290  218.7463 H   0  0  0  0  0  0  0  0  0  0  0  0
  146.3088   71.2070  220.5187 H   0  0  0  0  0  0  0  0  0  0  0  0
  144.2760   70.7260  219.1620 H   0  0  0  0  0  0  0  0  0  0  0  0
  144.2312   72.8483  218.0017 H   0  0  0  0  0  0  0  0  0  0  0  0
  142.6943   72.4239  218.8471 H   0  0  0  0  0  0  0  0  0  0  0  0
  139.7211   77.1493  219.6388 H   0  0  0  0  0  0  0  0  0  0  0  0
  138.7961   78.1269  220.8229 H   0  0  0  0  0  0  0  0  0  0  0  0
  141.5934   78.6680  219.7076 H   0  0  0  0  0  0  0  0  0  0  0  0
  140.0980   79.6731  219.5295 H   0  0  0  0  0  0  0  0  0  0  0  0
  141.4909   81.5882  220.3266 H   0  0  0  0  0  0  0  0  0  0  0  0
  142.1645   82.8878  222.3431 H   0  0  0  0  0  0  0  0  0  0  0  0
  142.1126   81.8214  224.5964 H   0  0  0  0  0  0  0  0  0  0  0  0
  141.3784   79.4531  224.8431 H   0  0  0  0  0  0  0  0  0  0  0  0
  141.2810   77.2081  223.5369 H   0  0  0  0  0  0  0  0  0  0  0  0
  139.5656   77.7663  223.3953 H   0  0  0  0  0  0  0  0  0  0  0  0
  141.6291   71.1007  223.3138 H   0  0  0  0  0  0  0  0  0  0  0  0
  140.9343   72.4170  224.3742 H   0  0  0  0  0  0  0  0  0  0  0  0
  1  2  2  0
  2  3  1  0
  3  4  2  0
  4  5  1  0
  5  6  2  0
  5  7  1  0
  7  8  1  0
  8  9  1  0
  9 10  1  0
 10 11  2  0
 11 12  1  0
 12 13  1  0
 13 14  1  0
 14 15  1  0
 15 16  1  0
 16 17  1  0
 17 18  1  0
 12 19  2  0
 19 20  1  0
 20 21  1  0
 21 22  1  0
 22 23  1  0
 23 24  1  0
 24 25  2  0
 25 26  1  0
 26 27  2  0
 27 28  1  0
 28 29  2  0
 29 30  1  0
 20 31  2  0
  9 32  1  0
  6  1  1  0
 31 10  1  0
 32  4  1  0
 18 13  1  0
 30 21  1  0
 29 24  1  0
  1 33  1  0
  2 34  1  0
  3 35  1  0
  6 36  1  0
  7 37  1  0
  7 38  1  0
  8 39  1  0
  8 40  1  0
 13 41  1  6
 14 42  1  0
 14 43  1  0
 15 44  1  0
 15 45  1  0
 16 46  1  0
 16 47  1  0
 17 48  1  0
 18 49  1  0
 18 50  1  0
 22 51  1  0
 22 52  1  0
 23 53  1  0
 23 54  1  0
 25 55  1  0
 26 56  1  0
 27 57  1  0
 28 58  1  0
 30 59  1  0
 30 60  1  0
 32 61  1  0
 32 62  1  0
M  END
>  <UniqueID>  (4) 
676

>  <SMILES>  (4) 
c1ccc2c(c1)CCN(c1nc([C@H]3CCCNC3)nc(N3CCc4ccccc4C3)n1)C2

>  <Energy>  (4) 
76.68140197216171

>  <Genealogy>  (4) 
c1ccc2c(c1)CCN(c1nc([C@H]3CCCNC3)nc(N3CCc4ccccc4C3)n1)C2 (chirality)
c1ccc2c(c1)CCN(c1nc([C@H]3CCCNC3)nc(N3CCc4ccccc4C3)n1)C2 (3D coordinates assigned)
c1ccc2c(c1)CCN(c1nc([C@H]3CCCNC3)nc(N3CCc4ccccc4C3)n1)C2 (nonaromatic ring conformer: 76.68140197216171 kcal/mol)

>  <smiles>  (4) 
c1ccc2c(c1)CCN(c1nc(C3CCCNC3)nc(N3CCc4ccccc4C3)n1)C2

>  <score_type>  (4) 
oracle

>  <origin>  (4) 
autodockgpu

>  <m_score__min__energy>  (4) 
-8.9299999999999997

>  <m_primary>  (4) 
energy

>  <meeko>  (4) 
{"free_energy": -8.91, "intermolecular_energy": -9.8, "internal_energy": -0.87, "cluster_size": 19, "cluster_id": 1, "rank_in_cluster": 9}

>  <energy>  (4) 
-8.93

>  <cluster_rmsd>  (4) 
0.09

>  <rmsd>  (4) 
271.49

>  <cluster>  (4) 
1

$$$$
ZPZIUNMFLXMAPV-NRFANRHFNA-N
     RDKit          3D

 62 67  0  0  0  0  0  0  0  0999 V2000
  138.2220   68.6450  225.7130 C   0  0  0  0  0  0  0  0  0  0  0  0
  139.5310   68.8530  226.1480 C   0  0  0  0  0  0  0  0  0  0  0  0
  140.3390   69.7960  225.5080 C   0  0  0  0  0  0  0  0  0  0  0  0
  139.8450   70.5350  224.4200 C   0  0  0  0  0  0  0  0  0  0  0  0
  138.5210   70.3200  223.9800 C   0  0  0  0  0  0  0  0  0  0  0  0
  137.7140   69.3800  224.6390 C   0  0  0  0  0  0  0  0  0  0  0  0
  137.9550   71.1310  222.8510 C   0  0  0  0  0  0  0  0  0  0  0  0
  139.0540   71.4970  221.8580 C   0  0  0  0  0  0  0  0  0  0  0  0
  140.1590   72.1710  222.5570 N   0  0  0  0  0  0  0  0  0  0  0  0
  140.8130   73.3150  221.9650 C   0  0  0  0  0  0  0  0  0  0  0  0
  141.9300   73.1490  221.2090 N   0  0  0  0  0  0  0  0  0  0  0  0
  142.5620   74.2210  220.6670 C   0  0  0  0  0  0  0  0  0  0  0  0
  143.7980   74.0260  219.8290 C   0  0  1  0  0  0  0  0  0  0  0  0
  145.0600   74.1070  220.7170 C   0  0  0  0  0  0  0  0  0  0  0  0
  146.2490   73.4050  220.0500 C   0  0  0  0  0  0  0  0  0  0  0  0
  145.9270   71.9310  219.7130 C   0  0  0  0  0  0  0  0  0  0  0  0
  144.4820   71.6430  219.7310 N   0  0  0  0  0  0  0  0  0  0  0  0
  143.7340   72.6970  219.0340 C   0  0  0  0  0  0  0  0  0  0  0  0
  142.0650   75.4690  220.8730 N   0  0  0  0  0  0  0  0  0  0  0  0
  140.9520   75.6520  221.6300 C   0  0  0  0  0  0  0  0  0  0  0  0
  140.4550   76.9820  221.8820 N   0  0  0  0  0  0  0  0  0  0  0  0
  139.5570   77.6570  220.9410 C   0  0  0  0  0  0  0  0  0  0  0  0
  140.2690   78.8810  220.3670 C   0  0  0  0  0  0  0  0  0  0  0  0
  140.8880   79.7210  221.4590 C   0  0  0  0  0  0  0  0  0  0  0  0
  141.2190   81.0580  221.1860 C   0  0  0  0  0  0  0  0  0  0  0  0
  141.8350   81.8470  222.1600 C   0  0  0  0  0  0  0  0  0  0  0  0
  142.1360   81.3070  223.4120 C   0  0  0  0  0  0  0  0  0  0  0  0
  141.8260   79.9750  223.6930 C   0  0  0  0  0  0  0  0  0  0  0  0
  141.2150   79.1660  222.7210 C   0  0  0  0  0  0  0  0  0  0  0  0
  140.8630   77.7380  223.0740 C   0  0  0  0  0  0  0  0  0  0  0  0
  140.3330   74.5700  222.1710 N   0  0  0  0  0  0  0  0  0  0  0  0
  140.7380   71.5700  223.7730 C   0  0  0  0  0  0  0  0  0  0  0  0
  137.5882   67.9004  226.2169 H   0  0  0  0  0  0  0  0  0  0  0  0
  139.9272   68.2742  226.9954 H   0  0  0  0  0  0  0  0  0  0  0  0
  141.3686   69.9610  225.8582 H   0  0  0  0  0  0  0  0  0  0  0  0
  136.6769   69.2212  224.3085 H   0  0  0  0  0  0  0  0  0  0  0  0
  137.1809   70.5439  222.3352 H   0  0  0  0  0  0  0  0  0  0  0  0
  137.5189   72.0551  223.2582 H   0  0  0  0  0  0  0  0  0  0  0  0
  139.4308   70.5818  221.3779 H   0  0  0  0  0  0  0  0  0  0  0  0
  138.6415   72.1749  221.0962 H   0  0  0  0  0  0  0  0  0  0  0  0
  143.8524   74.8365  219.0873 H   0  0  0  0  0  0  0  0  0  0  0  0
  145.3144   75.1640  220.8845 H   0  0  0  0  0  0  0  0  0  0  0  0
  144.8483   73.6048  221.6725 H   0  0  0  0  0  0  0  0  0  0  0  0
  146.5010   73.9364  219.1204 H   0  0  0  0  0  0  0  0  0  0  0  0
  147.0943   73.4191  220.7537 H   0  0  0  0  0  0  0  0  0  0  0  0
  146.3175   71.7067  218.7094 H   0  0  0  0  0  0  0  0  0  0  0  0
  146.3989   71.3045  220.4843 H   0  0  0  0  0  0  0  0  0  0  0  0
  144.3300   70.7440  219.2150 H   0  0  0  0  0  0  0  0  0  0  0  0
  144.1705   72.8510  218.0361 H   0  0  0  0  0  0  0  0  0  0  0  0
  142.6825   72.3867  218.9447 H   0  0  0  0  0  0  0  0  0  0  0  0
  139.2917   76.9682  220.1254 H   0  0  0  0  0  0  0  0  0  0  0  0
  138.6397   77.9699  221.4612 H   0  0  0  0  0  0  0  0  0  0  0  0
  141.0609   78.5455  219.6812 H   0  0  0  0  0  0  0  0  0  0  0  0
  139.5272   79.4956  219.8359 H   0  0  0  0  0  0  0  0  0  0  0  0
  140.9917   81.4867  220.1988 H   0  0  0  0  0  0  0  0  0  0  0  0
  142.0835   82.8958  221.9404 H   0  0  0  0  0  0  0  0  0  0  0  0
  142.6181   81.9320  224.1781 H   0  0  0  0  0  0  0  0  0  0  0  0
  142.0619   79.5563  224.6824 H   0  0  0  0  0  0  0  0  0  0  0  0
  141.7416   77.2524  223.5237 H   0  0  0  0  0  0  0  0  0  0  0  0
  140.0223   77.7512  223.7832 H   0  0  0  0  0  0  0  0  0  0  0  0
  141.6899   71.0889  223.5039 H   0  0  0  0  0  0  0  0  0  0  0  0
  140.8719   72.3824  224.5024 H   0  0  0  0  0  0  0  0  0  0  0  0
  1  2  2  0
  2  3  1  0
  3  4  2  0
  4  5  1  0
  5  6  2  0
  5  7  1  0
  7  8  1  0
  8  9  1  0
  9 10  1  0
 10 11  2  0
 11 12  1  0
 12 13  1  0
 13 14  1  0
 14 15  1  0
 15 16  1  0
 16 17  1  0
 17 18  1  0
 12 19  2  0
 19 20  1  0
 20 21  1  0
 21 22  1  0
 22 23  1  0
 23 24  1  0
 24 25  2  0
 25 26  1  0
 26 27  2  0
 27 28  1  0
 28 29  2  0
 29 30  1  0
 20 31  2  0
  9 32  1  0
  6  1  1  0
 31 10  1  0
 32  4  1  0
 18 13  1  0
 30 21  1  0
 29 24  1  0
  1 33  1  0
  2 34  1  0
  3 35  1  0
  6 36  1  0
  7 37  1  0
  7 38  1  0
  8 39  1  0
  8 40  1  0
 13 41  1  6
 14 42  1  0
 14 43  1  0
 15 44  1  0
 15 45  1  0
 16 46  1  0
 16 47  1  0
 17 48  1  0
 18 49  1  0
 18 50  1  0
 22 51  1  0
 22 52  1  0
 23 53  1  0
 23 54  1  0
 25 55  1  0
 26 56  1  0
 27 57  1  0
 28 58  1  0
 30 59  1  0
 30 60  1  0
 32 61  1  0
 32 62  1  0
M  END
>  <UniqueID>  (5) 
676

>  <SMILES>  (5) 
c1ccc2c(c1)CCN(c1nc([C@H]3CCCNC3)nc(N3CCc4ccccc4C3)n1)C2

>  <Energy>  (5) 
76.68140197216171

>  <Genealogy>  (5) 
c1ccc2c(c1)CCN(c1nc([C@H]3CCCNC3)nc(N3CCc4ccccc4C3)n1)C2 (chirality)
c1ccc2c(c1)CCN(c1nc([C@H]3CCCNC3)nc(N3CCc4ccccc4C3)n1)C2 (3D coordinates assigned)
c1ccc2c(c1)CCN(c1nc([C@H]3CCCNC3)nc(N3CCc4ccccc4C3)n1)C2 (nonaromatic ring conformer: 76.68140197216171 kcal/mol)

>  <smiles>  (5) 
c1ccc2c(c1)CCN(c1nc(C3CCCNC3)nc(N3CCc4ccccc4C3)n1)C2

>  <score_type>  (5) 
oracle

>  <origin>  (5) 
autodockgpu

>  <m_score__min__energy>  (5) 
-8.9299999999999997

>  <m_primary>  (5) 
energy

>  <meeko>  (5) 
{"free_energy": -8.92, "intermolecular_energy": -9.82, "internal_energy": -0.87, "cluster_size": 19, "cluster_id": 1, "rank_in_cluster": 6}

>  <energy>  (5) 
-8.92

>  <cluster_rmsd>  (5) 
0.16

>  <rmsd>  (5) 
271.5

>  <cluster>  (5) 
1

$$$$
ZPZIUNMFLXMAPV-NRFANRHFNA-N
     RDKit          3D

 62 67  0  0  0  0  0  0  0  0999 V2000
  138.1310   68.8490  225.6810 C   0  0  0  0  0  0  0  0  0  0  0  0
  139.4290   69.0690  226.1450 C   0  0  0  0  0  0  0  0  0  0  0  0
  140.2540   69.9960  225.5030 C   0  0  0  0  0  0  0  0  0  0  0  0
  139.7890   70.7060  224.3830 C   0  0  0  0  0  0  0  0  0  0  0  0
  138.4770   70.4770  223.9130 C   0  0  0  0  0  0  0  0  0  0  0  0
  137.6530   69.5550  224.5740 C   0  0  0  0  0  0  0  0  0  0  0  0
  137.9420   71.2590  222.7480 C   0  0  0  0  0  0  0  0  0  0  0  0
  139.0680   71.5980  221.7760 C   0  0  0  0  0  0  0  0  0  0  0  0
  140.1540   72.2920  222.4860 N   0  0  0  0  0  0  0  0  0  0  0  0
  140.8230   73.4200  221.8820 C   0  0  0  0  0  0  0  0  0  0  0  0
  141.9670   73.2360  221.1710 N   0  0  0  0  0  0  0  0  0  0  0  0
  142.6130   74.2940  220.6180 C   0  0  0  0  0  0  0  0  0  0  0  0
  143.8780   74.0800  219.8290 C   0  0  1  0  0  0  0  0  0  0  0  0
  145.1000   74.0760  220.7760 C   0  0  0  0  0  0  0  0  0  0  0  0
  146.2890   73.3510  220.1360 C   0  0  0  0  0  0  0  0  0  0  0  0
  145.9260   71.9050  219.7280 C   0  0  0  0  0  0  0  0  0  0  0  0
  144.4720   71.6760  219.6700 N   0  0  0  0  0  0  0  0  0  0  0  0
  143.7980   72.7840  218.9820 C   0  0  0  0  0  0  0  0  0  0  0  0
  142.1040   75.5450  220.7680 N   0  0  0  0  0  0  0  0  0  0  0  0
  140.9650   75.7460  221.4800 C   0  0  0  0  0  0  0  0  0  0  0  0
  140.4540   77.0810  221.6730 N   0  0  0  0  0  0  0  0  0  0  0  0
  139.7660   77.8030  220.6000 C   0  0  0  0  0  0  0  0  0  0  0  0
  140.5980   79.0230  220.2100 C   0  0  0  0  0  0  0  0  0  0  0  0
  141.0120   79.8190  221.4260 C   0  0  0  0  0  0  0  0  0  0  0  0
  141.4150   81.1540  221.2620 C   0  0  0  0  0  0  0  0  0  0  0  0
  141.8480   81.9010  222.3590 C   0  0  0  0  0  0  0  0  0  0  0  0
  141.8940   81.3210  223.6280 C   0  0  0  0  0  0  0  0  0  0  0  0
  141.5110   79.9900  223.8040 C   0  0  0  0  0  0  0  0  0  0  0  0
  141.0820   79.2230  222.7090 C   0  0  0  0  0  0  0  0  0  0  0  0
  140.6420   77.7950  222.9440 C   0  0  0  0  0  0  0  0  0  0  0  0
  140.3320   74.6780  222.0320 N   0  0  0  0  0  0  0  0  0  0  0  0
  140.6990   71.7240  223.7330 C   0  0  0  0  0  0  0  0  0  0  0  0
  137.4833   68.1185  226.1878 H   0  0  0  0  0  0  0  0  0  0  0  0
  139.8027   68.5120  227.0169 H   0  0  0  0  0  0  0  0  0  0  0  0
  141.2737   70.1711  225.8765 H   0  0  0  0  0  0  0  0  0  0  0  0
  136.6254   69.3867  224.2194 H   0  0  0  0  0  0  0  0  0  0  0  0
  137.1812   70.6592  222.2270 H   0  0  0  0  0  0  0  0  0  0  0  0
  137.4960   72.1936  223.1189 H   0  0  0  0  0  0  0  0  0  0  0  0
  139.4577   70.6701  221.3321 H   0  0  0  0  0  0  0  0  0  0  0  0
  138.6766   72.2544  220.9849 H   0  0  0  0  0  0  0  0  0  0  0  0
  143.9990   74.9142  219.1223 H   0  0  0  0  0  0  0  0  0  0  0  0
  145.3881   75.1146  220.9958 H   0  0  0  0  0  0  0  0  0  0  0  0
  144.8246   73.5482  221.7010 H   0  0  0  0  0  0  0  0  0  0  0  0
  146.6040   73.9056  219.2398 H   0  0  0  0  0  0  0  0  0  0  0  0
  147.1007   73.3042  220.8769 H   0  0  0  0  0  0  0  0  0  0  0  0
  146.3536   71.7022  218.7350 H   0  0  0  0  0  0  0  0  0  0  0  0
  146.3369   71.2316  220.4946 H   0  0  0  0  0  0  0  0  0  0  0  0
  144.3080   70.8030  219.1140 H   0  0  0  0  0  0  0  0  0  0  0  0
  144.2846   72.9561  218.0106 H   0  0  0  0  0  0  0  0  0  0  0  0
  142.7402   72.5202  218.8356 H   0  0  0  0  0  0  0  0  0  0  0  0
  139.6477   77.1430  219.7280 H   0  0  0  0  0  0  0  0  0  0  0  0
  138.7727   78.1251  220.9457 H   0  0  0  0  0  0  0  0  0  0  0  0
  141.5002   78.6860  219.6786 H   0  0  0  0  0  0  0  0  0  0  0  0
  139.9841   79.6693  219.5654 H   0  0  0  0  0  0  0  0  0  0  0  0
  141.3894   81.6140  220.2631 H   0  0  0  0  0  0  0  0  0  0  0  0
  142.1536   82.9489  222.2232 H   0  0  0  0  0  0  0  0  0  0  0  0
  142.2325   81.9136  224.4907 H   0  0  0  0  0  0  0  0  0  0  0  0
  141.5456   79.5394  224.8069 H   0  0  0  0  0  0  0  0  0  0  0  0
  141.4094   77.2760  223.5370 H   0  0  0  0  0  0  0  0  0  0  0  0
  139.6818   77.8101  223.4805 H   0  0  0  0  0  0  0  0  0  0  0  0
  141.6580   71.2366  223.5031 H   0  0  0  0  0  0  0  0  0  0  0  0
  140.8123   72.5558  224.4438 H   0  0  0  0  0  0  0  0  0  0  0  0
  1  2  2  0
  2  3  1  0
  3  4  2  0
  4  5  1  0
  5  6  2  0
  5  7  1  0
  7  8  1  0
  8  9  1  0
  9 10  1  0
 10 11  2  0
 11 12  1  0
 12 13  1  0
 13 14  1  0
 14 15  1  0
 15 16  1  0
 16 17  1  0
 17 18  1  0
 12 19  2  0
 19 20  1  0
 20 21  1  0
 21 22  1  0
 22 23  1  0
 23 24  1  0
 24 25  2  0
 25 26  1  0
 26 27  2  0
 27 28  1  0
 28 29  2  0
 29 30  1  0
 20 31  2  0
  9 32  1  0
  6  1  1  0
 31 10  1  0
 32  4  1  0
 18 13  1  0
 30 21  1  0
 29 24  1  0
  1 33  1  0
  2 34  1  0
  3 35  1  0
  6 36  1  0
  7 37  1  0
  7 38  1  0
  8 39  1  0
  8 40  1  0
 13 41  1  6
 14 42  1  0
 14 43  1  0
 15 44  1  0
 15 45  1  0
 16 46  1  0
 16 47  1  0
 17 48  1  0
 18 49  1  0
 18 50  1  0
 22 51  1  0
 22 52  1  0
 23 53  1  0
 23 54  1  0
 25 55  1  0
 26 56  1  0
 27 57  1  0
 28 58  1  0
 30 59  1  0
 30 60  1  0
 32 61  1  0
 32 62  1  0
M  END
>  <UniqueID>  (6) 
676

>  <SMILES>  (6) 
c1ccc2c(c1)CCN(c1nc([C@H]3CCCNC3)nc(N3CCc4ccccc4C3)n1)C2

>  <Energy>  (6) 
76.68140197216171

>  <Genealogy>  (6) 
c1ccc2c(c1)CCN(c1nc([C@H]3CCCNC3)nc(N3CCc4ccccc4C3)n1)C2 (chirality)
c1ccc2c(c1)CCN(c1nc([C@H]3CCCNC3)nc(N3CCc4ccccc4C3)n1)C2 (3D coordinates assigned)
c1ccc2c(c1)CCN(c1nc([C@H]3CCCNC3)nc(N3CCc4ccccc4C3)n1)C2 (nonaromatic ring conformer: 76.68140197216171 kcal/mol)

>  <smiles>  (6) 
c1ccc2c(c1)CCN(c1nc(C3CCCNC3)nc(N3CCc4ccccc4C3)n1)C2

>  <score_type>  (6) 
oracle

>  <origin>  (6) 
autodockgpu

>  <m_score__min__energy>  (6) 
-8.9299999999999997

>  <m_primary>  (6) 
energy

>  <meeko>  (6) 
{"free_energy": -8.92, "intermolecular_energy": -9.82, "internal_energy": -0.87, "cluster_size": 19, "cluster_id": 1, "rank_in_cluster": 5}

>  <energy>  (6) 
-8.92

>  <cluster_rmsd>  (6) 
0.1

>  <rmsd>  (6) 
271.51

>  <cluster>  (6) 
1

$$$$
ZPZIUNMFLXMAPV-NRFANRHFNA-N
     RDKit          3D

 62 67  0  0  0  0  0  0  0  0999 V2000
  138.2500   68.6090  225.6670 C   0  0  0  0  0  0  0  0  0  0  0  0
  139.5800   68.7750  226.0570 C   0  0  0  0  0  0  0  0  0  0  0  0
  140.3860   69.7150  225.4100 C   0  0  0  0  0  0  0  0  0  0  0  0
  139.8700   70.4940  224.3610 C   0  0  0  0  0  0  0  0  0  0  0  0
  138.5250   70.3200  223.9660 C   0  0  0  0  0  0  0  0  0  0  0  0
  137.7210   69.3820  224.6310 C   0  0  0  0  0  0  0  0  0  0  0  0
  137.9370   71.1730  222.8800 C   0  0  0  0  0  0  0  0  0  0  0  0
  139.0080   71.5390  221.8560 C   0  0  0  0  0  0  0  0  0  0  0  0
  140.1540   72.1690  222.5290 N   0  0  0  0  0  0  0  0  0  0  0  0
  140.8120   73.3120  221.9410 C   0  0  0  0  0  0  0  0  0  0  0  0
  141.9390   73.1460  221.1990 N   0  0  0  0  0  0  0  0  0  0  0  0
  142.5750   74.2180  220.6610 C   0  0  0  0  0  0  0  0  0  0  0  0
  143.8210   74.0230  219.8380 C   0  0  1  0  0  0  0  0  0  0  0  0
  145.0710   74.0760  220.7460 C   0  0  0  0  0  0  0  0  0  0  0  0
  146.2620   73.3730  220.0850 C   0  0  0  0  0  0  0  0  0  0  0  0
  145.9300   71.9080  219.7200 C   0  0  0  0  0  0  0  0  0  0  0  0
  144.4820   71.6340  219.7130 N   0  0  0  0  0  0  0  0  0  0  0  0
  143.7550   72.7070  219.0220 C   0  0  0  0  0  0  0  0  0  0  0  0
  142.0730   75.4650  220.8580 N   0  0  0  0  0  0  0  0  0  0  0  0
  140.9520   75.6490  221.6010 C   0  0  0  0  0  0  0  0  0  0  0  0
  140.4490   76.9780  221.8430 N   0  0  0  0  0  0  0  0  0  0  0  0
  139.5670   77.6520  220.8860 C   0  0  0  0  0  0  0  0  0  0  0  0
  140.2880   78.8760  220.3240 C   0  0  0  0  0  0  0  0  0  0  0  0
  140.8870   79.7170  221.4260 C   0  0  0  0  0  0  0  0  0  0  0  0
  141.2220   81.0540  221.1580 C   0  0  0  0  0  0  0  0  0  0  0  0
  141.8200   81.8440  222.1410 C   0  0  0  0  0  0  0  0  0  0  0  0
  142.0990   81.3060  223.3980 C   0  0  0  0  0  0  0  0  0  0  0  0
  141.7850   79.9740  223.6750 C   0  0  0  0  0  0  0  0  0  0  0  0
  141.1930   79.1640  222.6940 C   0  0  0  0  0  0  0  0  0  0  0  0
  140.8350   77.7360  223.0410 C   0  0  0  0  0  0  0  0  0  0  0  0
  140.3280   74.5670  222.1370 N   0  0  0  0  0  0  0  0  0  0  0  0
  140.7630   71.5240  223.7060 C   0  0  0  0  0  0  0  0  0  0  0  0
  137.6171   67.8677  226.1768 H   0  0  0  0  0  0  0  0  0  0  0  0
  139.9936   68.1655  226.8740 H   0  0  0  0  0  0  0  0  0  0  0  0
  141.4320   69.8461  225.7242 H   0  0  0  0  0  0  0  0  0  0  0  0
  136.6692   69.2548  224.3351 H   0  0  0  0  0  0  0  0  0  0  0  0
  137.1304   70.6177  222.3789 H   0  0  0  0  0  0  0  0  0  0  0  0
  137.5381   72.0959  223.3262 H   0  0  0  0  0  0  0  0  0  0  0  0
  139.3447   70.6279  221.3397 H   0  0  0  0  0  0  0  0  0  0  0  0
  138.5841   72.2459  221.1276 H   0  0  0  0  0  0  0  0  0  0  0  0
  143.8946   74.8444  219.1101 H   0  0  0  0  0  0  0  0  0  0  0  0
  145.3338   75.1273  220.9349 H   0  0  0  0  0  0  0  0  0  0  0  0
  144.8400   73.5602  221.6897 H   0  0  0  0  0  0  0  0  0  0  0  0
  146.5326   73.9165  219.1677 H   0  0  0  0  0  0  0  0  0  0  0  0
  147.0974   73.3674  220.8006 H   0  0  0  0  0  0  0  0  0  0  0  0
  146.3325   71.6957  218.7185 H   0  0  0  0  0  0  0  0  0  0  0  0
  146.3845   71.2648  220.4879 H   0  0  0  0  0  0  0  0  0  0  0  0
  144.3280   70.7450  219.1810 H   0  0  0  0  0  0  0  0  0  0  0  0
  144.2075   72.8717  218.0330 H   0  0  0  0  0  0  0  0  0  0  0  0
  142.7017   72.4092  218.9134 H   0  0  0  0  0  0  0  0  0  0  0  0
  139.3164   76.9626  220.0663 H   0  0  0  0  0  0  0  0  0  0  0  0
  138.6405   77.9645  221.3899 H   0  0  0  0  0  0  0  0  0  0  0  0
  141.0921   78.5407  219.6524 H   0  0  0  0  0  0  0  0  0  0  0  0
  139.5552   79.4897  219.7796 H   0  0  0  0  0  0  0  0  0  0  0  0
  141.0117   81.4817  220.1666 H   0  0  0  0  0  0  0  0  0  0  0  0
  142.0719   82.8927  221.9245 H   0  0  0  0  0  0  0  0  0  0  0  0
  142.5670   81.9322  224.1718 H   0  0  0  0  0  0  0  0  0  0  0  0
  142.0032   79.5567  224.6691 H   0  0  0  0  0  0  0  0  0  0  0  0
  141.7054   77.2512  223.5071 H   0  0  0  0  0  0  0  0  0  0  0  0
  139.9809   77.7500  223.7341 H   0  0  0  0  0  0  0  0  0  0  0  0
  141.6921   71.0277  223.3889 H   0  0  0  0  0  0  0  0  0  0  0  0
  140.9439   72.3141  224.4496 H   0  0  0  0  0  0  0  0  0  0  0  0
  1  2  2  0
  2  3  1  0
  3  4  2  0
  4  5  1  0
  5  6  2  0
  5  7  1  0
  7  8  1  0
  8  9  1  0
  9 10  1  0
 10 11  2  0
 11 12  1  0
 12 13  1  0
 13 14  1  0
 14 15  1  0
 15 16  1  0
 16 17  1  0
 17 18  1  0
 12 19  2  0
 19 20  1  0
 20 21  1  0
 21 22  1  0
 22 23  1  0
 23 24  1  0
 24 25  2  0
 25 26  1  0
 26 27  2  0
 27 28  1  0
 28 29  2  0
 29 30  1  0
 20 31  2  0
  9 32  1  0
  6  1  1  0
 31 10  1  0
 32  4  1  0
 18 13  1  0
 30 21  1  0
 29 24  1  0
  1 33  1  0
  2 34  1  0
  3 35  1  0
  6 36  1  0
  7 37  1  0
  7 38  1  0
  8 39  1  0
  8 40  1  0
 13 41  1  6
 14 42  1  0
 14 43  1  0
 15 44  1  0
 15 45  1  0
 16 46  1  0
 16 47  1  0
 17 48  1  0
 18 49  1  0
 18 50  1  0
 22 51  1  0
 22 52  1  0
 23 53  1  0
 23 54  1  0
 25 55  1  0
 26 56  1  0
 27 57  1  0
 28 58  1  0
 30 59  1  0
 30 60  1  0
 32 61  1  0
 32 62  1  0
M  END
>  <UniqueID>  (7) 
676

>  <SMILES>  (7) 
c1ccc2c(c1)CCN(c1nc([C@H]3CCCNC3)nc(N3CCc4ccccc4C3)n1)C2

>  <Energy>  (7) 
76.68140197216171

>  <Genealogy>  (7) 
c1ccc2c(c1)CCN(c1nc([C@H]3CCCNC3)nc(N3CCc4ccccc4C3)n1)C2 (chirality)
c1ccc2c(c1)CCN(c1nc([C@H]3CCCNC3)nc(N3CCc4ccccc4C3)n1)C2 (3D coordinates assigned)
c1ccc2c(c1)CCN(c1nc([C@H]3CCCNC3)nc(N3CCc4ccccc4C3)n1)C2 (nonaromatic ring conformer: 76.68140197216171 kcal/mol)

>  <smiles>  (7) 
c1ccc2c(c1)CCN(c1nc(C3CCCNC3)nc(N3CCc4ccccc4C3)n1)C2

>  <score_type>  (7) 
oracle

>  <origin>  (7) 
autodockgpu

>  <m_score__min__energy>  (7) 
-8.9299999999999997

>  <m_primary>  (7) 
energy

>  <meeko>  (7) 
{"free_energy": -8.93, "intermolecular_energy": -9.82, "internal_energy": -0.87, "cluster_size": 19, "cluster_id": 1, "rank_in_cluster": 4}

>  <energy>  (7) 
-8.92

>  <cluster_rmsd>  (7) 
0.19

>  <rmsd>  (7) 
271.49

>  <cluster>  (7) 
1

$$$$
ZPZIUNMFLXMAPV-NRFANRHFNA-N
     RDKit          3D

 62 67  0  0  0  0  0  0  0  0999 V2000
  139.2730   69.1960  227.7140 C   0  0  0  0  0  0  0  0  0  0  0  0
  140.4430   69.9120  227.9670 C   0  0  0  0  0  0  0  0  0  0  0  0
  141.0200   70.6880  226.9590 C   0  0  0  0  0  0  0  0  0  0  0  0
  140.4330   70.7480  225.6840 C   0  0  0  0  0  0  0  0  0  0  0  0
  139.2510   70.0190  225.4300 C   0  0  0  0  0  0  0  0  0  0  0  0
  138.6730   69.2540  226.4540 C   0  0  0  0  0  0  0  0  0  0  0  0
  138.5790   70.1050  224.0900 C   0  0  0  0  0  0  0  0  0  0  0  0
  139.6160   70.3130  222.9900 C   0  0  0  0  0  0  0  0  0  0  0  0
  140.4460   71.4880  223.2970 N   0  0  0  0  0  0  0  0  0  0  0  0
  140.8170   72.4160  222.2550 C   0  0  0  0  0  0  0  0  0  0  0  0
  141.5800   72.0010  221.2090 N   0  0  0  0  0  0  0  0  0  0  0  0
  141.9510   72.8720  220.2360 C   0  0  0  0  0  0  0  0  0  0  0  0
  142.7930   72.4020  219.0800 C   0  0  1  0  0  0  0  0  0  0  0  0
  142.2800   73.0230  217.7610 C   0  0  0  0  0  0  0  0  0  0  0  0
  143.3750   73.0190  216.6880 C   0  0  0  0  0  0  0  0  0  0  0  0
  144.6470   73.7570  217.1660 C   0  0  0  0  0  0  0  0  0  0  0  0
  144.6850   73.9430  218.6270 N   0  0  0  0  0  0  0  0  0  0  0  0
  144.2940   72.7080  219.3180 C   0  0  0  0  0  0  0  0  0  0  0  0
  141.5460   74.1680  220.3050 N   0  0  0  0  0  0  0  0  0  0  0  0
  140.7880   74.6000  221.3460 C   0  0  0  0  0  0  0  0  0  0  0  0
  140.3980   75.9850  221.4370 N   0  0  0  0  0  0  0  0  0  0  0  0
  139.9480   76.7350  220.2610 C   0  0  0  0  0  0  0  0  0  0  0  0
  140.9500   77.8500  219.9700 C   0  0  0  0  0  0  0  0  0  0  0  0
  141.2710   78.6420  221.2150 C   0  0  0  0  0  0  0  0  0  0  0  0
  141.8310   79.9230  221.0840 C   0  0  0  0  0  0  0  0  0  0  0  0
  142.1820   80.6600  222.2160 C   0  0  0  0  0  0  0  0  0  0  0  0
  141.9880   80.1240  223.4900 C   0  0  0  0  0  0  0  0  0  0  0  0
  141.4460   78.8460  223.6360 C   0  0  0  0  0  0  0  0  0  0  0  0
  141.0960   78.0880  222.5080 C   0  0  0  0  0  0  0  0  0  0  0  0
  140.4800   76.7210  222.7060 C   0  0  0  0  0  0  0  0  0  0  0  0
  140.4290   73.7170  222.3150 N   0  0  0  0  0  0  0  0  0  0  0  0
  141.0680   71.6240  224.6270 C   0  0  0  0  0  0  0  0  0  0  0  0
  138.8216   68.5841  228.5089 H   0  0  0  0  0  0  0  0  0  0  0  0
  140.9117   69.8655  228.9611 H   0  0  0  0  0  0  0  0  0  0  0  0
  141.9396   71.2555  227.1647 H   0  0  0  0  0  0  0  0  0  0  0  0
  137.7434   68.6975  226.2639 H   0  0  0  0  0  0  0  0  0  0  0  0
  138.0296   69.1714  223.8990 H   0  0  0  0  0  0  0  0  0  0  0  0
  137.8838   70.9575  224.0923 H   0  0  0  0  0  0  0  0  0  0  0  0
  140.2573   69.4220  222.9207 H   0  0  0  0  0  0  0  0  0  0  0  0
  139.0993   70.4760  222.0327 H   0  0  0  0  0  0  0  0  0  0  0  0
  142.7007   71.3089  218.9985 H   0  0  0  0  0  0  0  0  0  0  0  0
  141.4203   72.4397  217.3995 H   0  0  0  0  0  0  0  0  0  0  0  0
  141.9851   74.0646  217.9561 H   0  0  0  0  0  0  0  0  0  0  0  0
  143.6358   71.9775  216.4488 H   0  0  0  0  0  0  0  0  0  0  0  0
  142.9879   73.5422  215.8012 H   0  0  0  0  0  0  0  0  0  0  0  0
  145.5276   73.1713  216.8634 H   0  0  0  0  0  0  0  0  0  0  0  0
  144.6428   74.7559  216.7053 H   0  0  0  0  0  0  0  0  0  0  0  0
  145.6730   74.1650  218.8950 H   0  0  0  0  0  0  0  0  0  0  0  0
  144.8985   71.8725  218.9351 H   0  0  0  0  0  0  0  0  0  0  0  0
  144.4632   72.8365  220.3973 H   0  0  0  0  0  0  0  0  0  0  0  0
  139.8853   76.0600  219.3947 H   0  0  0  0  0  0  0  0  0  0  0  0
  138.9553   77.1680  220.4535 H   0  0  0  0  0  0  0  0  0  0  0  0
  141.8773   77.4049  219.5801 H   0  0  0  0  0  0  0  0  0  0  0  0
  140.5035   78.5322  219.2316 H   0  0  0  0  0  0  0  0  0  0  0  0
  141.9941   80.3483  220.0828 H   0  0  0  0  0  0  0  0  0  0  0  0
  142.6127   81.6660  222.1038 H   0  0  0  0  0  0  0  0  0  0  0  0
  142.2625   80.7093  224.3800 H   0  0  0  0  0  0  0  0  0  0  0  0
  141.2921   78.4300  224.6426 H   0  0  0  0  0  0  0  0  0  0  0  0
  141.0978   76.1483  223.4134 H   0  0  0  0  0  0  0  0  0  0  0  0
  139.4608   76.8523  223.0984 H   0  0  0  0  0  0  0  0  0  0  0  0
  142.1309   71.3533  224.5433 H   0  0  0  0  0  0  0  0  0  0  0  0
  140.9262   72.6676  224.9446 H   0  0  0  0  0  0  0  0  0  0  0  0
  1  2  2  0
  2  3  1  0
  3  4  2  0
  4  5  1  0
  5  6  2  0
  5  7  1  0
  7  8  1  0
  8  9  1  0
  9 10  1  0
 10 11  2  0
 11 12  1  0
 12 13  1  0
 13 14  1  0
 14 15  1  0
 15 16  1  0
 16 17  1  0
 17 18  1  0
 12 19  2  0
 19 20  1  0
 20 21  1  0
 21 22  1  0
 22 23  1  0
 23 24  1  0
 24 25  2  0
 25 26  1  0
 26 27  2  0
 27 28  1  0
 28 29  2  0
 29 30  1  0
 20 31  2  0
  9 32  1  0
  6  1  1  0
 31 10  1  0
 32  4  1  0
 18 13  1  0
 30 21  1  0
 29 24  1  0
  1 33  1  0
  2 34  1  0
  3 35  1  0
  6 36  1  0
  7 37  1  0
  7 38  1  0
  8 39  1  0
  8 40  1  0
 13 41  1  6
 14 42  1  0
 14 43  1  0
 15 44  1  0
 15 45  1  0
 16 46  1  0
 16 47  1  0
 17 48  1  0
 18 49  1  0
 18 50  1  0
 22 51  1  0
 22 52  1  0
 23 53  1  0
 23 54  1  0
 25 55  1  0
 26 56  1  0
 27 57  1  0
 28 58  1  0
 30 59  1  0
 30 60  1  0
 32 61  1  0
 32 62  1  0
M  END
>  <UniqueID>  (8) 
676

>  <SMILES>  (8) 
c1ccc2c(c1)CCN(c1nc([C@H]3CCCNC3)nc(N3CCc4ccccc4C3)n1)C2

>  <Energy>  (8) 
76.68140197216171

>  <Genealogy>  (8) 
c1ccc2c(c1)CCN(c1nc([C@H]3CCCNC3)nc(N3CCc4ccccc4C3)n1)C2 (chirality)
c1ccc2c(c1)CCN(c1nc([C@H]3CCCNC3)nc(N3CCc4ccccc4C3)n1)C2 (3D coordinates assigned)
c1ccc2c(c1)CCN(c1nc([C@H]3CCCNC3)nc(N3CCc4ccccc4C3)n1)C2 (nonaromatic ring conformer: 76.68140197216171 kcal/mol)

>  <smiles>  (8) 
c1ccc2c(c1)CCN(c1nc(C3CCCNC3)nc(N3CCc4ccccc4C3)n1)C2

>  <score_type>  (8) 
oracle

>  <origin>  (8) 
autodockgpu

>  <m_score__min__energy>  (8) 
-8.9299999999999997

>  <m_primary>  (8) 
energy

>  <meeko>  (8) 
{"free_energy": -8.85, "intermolecular_energy": -9.74, "internal_energy": -0.9, "cluster_size": 19, "cluster_id": 1, "rank_in_cluster": 14}

>  <energy>  (8) 
-8.91

>  <cluster_rmsd>  (8) 
0.06

>  <rmsd>  (8) 
271.52

>  <cluster>  (8) 
1

$$$$
ZPZIUNMFLXMAPV-NRFANRHFNA-N
     RDKit          3D

 62 67  0  0  0  0  0  0  0  0999 V2000
  138.1200   68.8910  225.6910 C   0  0  0  0  0  0  0  0  0  0  0  0
  139.4160   69.1150  226.1560 C   0  0  0  0  0  0  0  0  0  0  0  0
  140.2410   70.0400  225.5110 C   0  0  0  0  0  0  0  0  0  0  0  0
  139.7770   70.7440  224.3880 C   0  0  0  0  0  0  0  0  0  0  0  0
  138.4660   70.5120  223.9170 C   0  0  0  0  0  0  0  0  0  0  0  0
  137.6430   69.5910  224.5800 C   0  0  0  0  0  0  0  0  0  0  0  0
  137.9310   71.2870  222.7480 C   0  0  0  0  0  0  0  0  0  0  0  0
  139.0580   71.6250  221.7760 C   0  0  0  0  0  0  0  0  0  0  0  0
  140.1420   72.3230  222.4850 N   0  0  0  0  0  0  0  0  0  0  0  0
  140.8100   73.4500  221.8770 C   0  0  0  0  0  0  0  0  0  0  0  0
  141.9550   73.2650  221.1680 N   0  0  0  0  0  0  0  0  0  0  0  0
  142.6000   74.3220  220.6110 C   0  0  0  0  0  0  0  0  0  0  0  0
  143.8660   74.1060  219.8240 C   0  0  1  0  0  0  0  0  0  0  0  0
  145.0840   74.0840  220.7750 C   0  0  0  0  0  0  0  0  0  0  0  0
  146.2710   73.3570  220.1310 C   0  0  0  0  0  0  0  0  0  0  0  0
  145.8980   71.9180  219.7080 C   0  0  0  0  0  0  0  0  0  0  0  0
  144.4430   71.6990  219.6430 N   0  0  0  0  0  0  0  0  0  0  0  0
  143.7790   72.8190  218.9640 C   0  0  0  0  0  0  0  0  0  0  0  0
  142.0900   75.5720  220.7560 N   0  0  0  0  0  0  0  0  0  0  0  0
  140.9500   75.7750  221.4670 C   0  0  0  0  0  0  0  0  0  0  0  0
  140.4370   77.1090  221.6550 N   0  0  0  0  0  0  0  0  0  0  0  0
  139.7610   77.8320  220.5740 C   0  0  0  0  0  0  0  0  0  0  0  0
  140.5980   79.0520  220.1940 C   0  0  0  0  0  0  0  0  0  0  0  0
  140.9990   79.8470  221.4150 C   0  0  0  0  0  0  0  0  0  0  0  0
  141.4040   81.1820  221.2570 C   0  0  0  0  0  0  0  0  0  0  0  0
  141.8240   81.9290  222.3590 C   0  0  0  0  0  0  0  0  0  0  0  0
  141.8550   81.3490  223.6280 C   0  0  0  0  0  0  0  0  0  0  0  0
  141.4700   80.0170  223.7990 C   0  0  0  0  0  0  0  0  0  0  0  0
  141.0530   79.2510  222.6990 C   0  0  0  0  0  0  0  0  0  0  0  0
  140.6100   77.8230  222.9280 C   0  0  0  0  0  0  0  0  0  0  0  0
  140.3170   74.7080  222.0230 N   0  0  0  0  0  0  0  0  0  0  0  0
  140.6860   71.7610  223.7350 C   0  0  0  0  0  0  0  0  0  0  0  0
  137.4724   68.1619  226.2000 H   0  0  0  0  0  0  0  0  0  0  0  0
  139.7888   68.5629  227.0313 H   0  0  0  0  0  0  0  0  0  0  0  0
  141.2600   70.2178  225.8851 H   0  0  0  0  0  0  0  0  0  0  0  0
  136.6167   69.4186  224.2238 H   0  0  0  0  0  0  0  0  0  0  0  0
  137.1728   70.6827  222.2285 H   0  0  0  0  0  0  0  0  0  0  0  0
  137.4818   72.2220  223.1140 H   0  0  0  0  0  0  0  0  0  0  0  0
  139.4498   70.6963  221.3354 H   0  0  0  0  0  0  0  0  0  0  0  0
  138.6664   72.2784  220.9824 H   0  0  0  0  0  0  0  0  0  0  0  0
  143.9960   74.9457  219.1255 H   0  0  0  0  0  0  0  0  0  0  0  0
  145.3783   75.1183  221.0066 H   0  0  0  0  0  0  0  0  0  0  0  0
  144.8018   73.5488  221.6936 H   0  0  0  0  0  0  0  0  0  0  0  0
  146.5927   73.9182  219.2413 H   0  0  0  0  0  0  0  0  0  0  0  0
  147.0807   73.2975  220.8732 H   0  0  0  0  0  0  0  0  0  0  0  0
  146.3273   71.7218  218.7144 H   0  0  0  0  0  0  0  0  0  0  0  0
  146.3011   71.2348  220.4701 H   0  0  0  0  0  0  0  0  0  0  0  0
  144.2750   70.8340  219.0780 H   0  0  0  0  0  0  0  0  0  0  0  0
  144.2697   72.9971  217.9958 H   0  0  0  0  0  0  0  0  0  0  0  0
  142.7197   72.5644  218.8121 H   0  0  0  0  0  0  0  0  0  0  0  0
  139.6523   77.1724  219.7004 H   0  0  0  0  0  0  0  0  0  0  0  0
  138.7639   78.1543  220.9085 H   0  0  0  0  0  0  0  0  0  0  0  0
  141.5059   78.7149  219.6723 H   0  0  0  0  0  0  0  0  0  0  0  0
  139.9916   79.6990  219.5432 H   0  0  0  0  0  0  0  0  0  0  0  0
  141.3903   81.6424  220.2581 H   0  0  0  0  0  0  0  0  0  0  0  0
  142.1312   82.9769  222.2268 H   0  0  0  0  0  0  0  0  0  0  0  0
  142.1830   81.9415  224.4948 H   0  0  0  0  0  0  0  0  0  0  0  0
  141.4938   79.5656  224.8018 H   0  0  0  0  0  0  0  0  0  0  0  0
  141.3702   77.3038  223.5301 H   0  0  0  0  0  0  0  0  0  0  0  0
  139.6433   77.8383  223.4527 H   0  0  0  0  0  0  0  0  0  0  0  0
  141.6461   71.2744  223.5085 H   0  0  0  0  0  0  0  0  0  0  0  0
  140.7966   72.5959  224.4426 H   0  0  0  0  0  0  0  0  0  0  0  0
  1  2  2  0
  2  3  1  0
  3  4  2  0
  4  5  1  0
  5  6  2  0
  5  7  1  0
  7  8  1  0
  8  9  1  0
  9 10  1  0
 10 11  2  0
 11 12  1  0
 12 13  1  0
 13 14  1  0
 14 15  1  0
 15 16  1  0
 16 17  1  0
 17 18  1  0
 12 19  2  0
 19 20  1  0
 20 21  1  0
 21 22  1  0
 22 23  1  0
 23 24  1  0
 24 25  2  0
 25 26  1  0
 26 27  2  0
 27 28  1  0
 28 29  2  0
 29 30  1  0
 20 31  2  0
  9 32  1  0
  6  1  1  0
 31 10  1  0
 32  4  1  0
 18 13  1  0
 30 21  1  0
 29 24  1  0
  1 33  1  0
  2 34  1  0
  3 35  1  0
  6 36  1  0
  7 37  1  0
  7 38  1  0
  8 39  1  0
  8 40  1  0
 13 41  1  6
 14 42  1  0
 14 43  1  0
 15 44  1  0
 15 45  1  0
 16 46  1  0
 16 47  1  0
 17 48  1  0
 18 49  1  0
 18 50  1  0
 22 51  1  0
 22 52  1  0
 23 53  1  0
 23 54  1  0
 25 55  1  0
 26 56  1  0
 27 57  1  0
 28 58  1  0
 30 59  1  0
 30 60  1  0
 32 61  1  0
 32 62  1  0
M  END
>  <UniqueID>  (9) 
676

>  <SMILES>  (9) 
c1ccc2c(c1)CCN(c1nc([C@H]3CCCNC3)nc(N3CCc4ccccc4C3)n1)C2

>  <Energy>  (9) 
76.68140197216171

>  <Genealogy>  (9) 
c1ccc2c(c1)CCN(c1nc([C@H]3CCCNC3)nc(N3CCc4ccccc4C3)n1)C2 (chirality)
c1ccc2c(c1)CCN(c1nc([C@H]3CCCNC3)nc(N3CCc4ccccc4C3)n1)C2 (3D coordinates assigned)
c1ccc2c(c1)CCN(c1nc([C@H]3CCCNC3)nc(N3CCc4ccccc4C3)n1)C2 (nonaromatic ring conformer: 76.68140197216171 kcal/mol)

>  <smiles>  (9) 
c1ccc2c(c1)CCN(c1nc(C3CCCNC3)nc(N3CCc4ccccc4C3)n1)C2

>  <score_type>  (9) 
oracle

>  <origin>  (9) 
autodockgpu

>  <m_score__min__energy>  (9) 
-8.9299999999999997

>  <m_primary>  (9) 
energy

>  <meeko>  (9) 
{"free_energy": -8.92, "intermolecular_energy": -9.82, "internal_energy": -0.87, "cluster_size": 19, "cluster_id": 1, "rank_in_cluster": 7}

>  <energy>  (9) 
-8.91

>  <cluster_rmsd>  (9) 
0.16

>  <rmsd>  (9) 
271.47

>  <cluster>  (9) 
1

$$$$
ZPZIUNMFLXMAPV-NRFANRHFNA-N
     RDKit          3D

 62 67  0  0  0  0  0  0  0  0999 V2000
  138.1050   68.8170  225.7270 C   0  0  0  0  0  0  0  0  0  0  0  0
  139.4560   68.9100  226.0620 C   0  0  0  0  0  0  0  0  0  0  0  0
  140.2890   69.7950  225.3720 C   0  0  0  0  0  0  0  0  0  0  0  0
  139.7760   70.5900  224.3340 C   0  0  0  0  0  0  0  0  0  0  0  0
  138.4090   70.4900  223.9940 C   0  0  0  0  0  0  0  0  0  0  0  0
  137.5800   69.6080  224.7020 C   0  0  0  0  0  0  0  0  0  0  0  0
  137.8280   71.3640  222.9210 C   0  0  0  0  0  0  0  0  0  0  0  0
  138.8760   71.6570  221.8510 C   0  0  0  0  0  0  0  0  0  0  0  0
  140.0830   72.2270  222.4700 N   0  0  0  0  0  0  0  0  0  0  0  0
  140.7810   73.3240  221.8420 C   0  0  0  0  0  0  0  0  0  0  0  0
  141.9440   73.1010  221.1740 N   0  0  0  0  0  0  0  0  0  0  0  0
  142.6170   74.1310  220.5990 C   0  0  0  0  0  0  0  0  0  0  0  0
  143.9030   73.8730  219.8590 C   0  0  1  0  0  0  0  0  0  0  0  0
  145.0080   73.4360  220.8490 C   0  0  0  0  0  0  0  0  0  0  0  0
  146.1220   72.6710  220.1260 C   0  0  0  0  0  0  0  0  0  0  0  0
  145.5720   71.4430  219.3650 C   0  0  0  0  0  0  0  0  0  0  0  0
  144.1130   71.4990  219.1670 N   0  0  0  0  0  0  0  0  0  0  0  0
  143.7000   72.8370  218.7240 C   0  0  0  0  0  0  0  0  0  0  0  0
  142.1170   75.3910  220.6850 N   0  0  0  0  0  0  0  0  0  0  0  0
  140.9600   75.6310  221.3530 C   0  0  0  0  0  0  0  0  0  0  0  0
  140.4570   76.9770  221.4780 N   0  0  0  0  0  0  0  0  0  0  0  0
  140.0180   77.7450  220.3090 C   0  0  0  0  0  0  0  0  0  0  0  0
  140.9440   78.9450  220.1280 C   0  0  0  0  0  0  0  0  0  0  0  0
  141.1280   79.7000  221.4230 C   0  0  0  0  0  0  0  0  0  0  0  0
  141.5920   81.0240  221.3810 C   0  0  0  0  0  0  0  0  0  0  0  0
  141.8160   81.7330  222.5630 C   0  0  0  0  0  0  0  0  0  0  0  0
  141.5910   81.1240  223.7990 C   0  0  0  0  0  0  0  0  0  0  0  0
  141.1440   79.8030  223.8570 C   0  0  0  0  0  0  0  0  0  0  0  0
  140.9220   79.0740  222.6780 C   0  0  0  0  0  0  0  0  0  0  0  0
  140.4050   77.6560  222.7790 C   0  0  0  0  0  0  0  0  0  0  0  0
  140.2990   74.5920  221.9280 N   0  0  0  0  0  0  0  0  0  0  0  0
  140.7000   71.5610  223.6310 C   0  0  0  0  0  0  0  0  0  0  0  0
  137.4515   68.1192  226.2712 H   0  0  0  0  0  0  0  0  0  0  0  0
  139.8660   68.2862  226.8699 H   0  0  0  0  0  0  0  0  0  0  0  0
  141.3524   69.8693  225.6434 H   0  0  0  0  0  0  0  0  0  0  0  0
  136.5117   69.5386  224.4492 H   0  0  0  0  0  0  0  0  0  0  0  0
  136.9716   70.8508  222.4592 H   0  0  0  0  0  0  0  0  0  0  0  0
  137.5010   72.3131  223.3708 H   0  0  0  0  0  0  0  0  0  0  0  0
  139.1389   70.7227  221.3334 H   0  0  0  0  0  0  0  0  0  0  0  0
  138.4642   72.3798  221.1312 H   0  0  0  0  0  0  0  0  0  0  0  0
  144.2275   74.8085  219.3799 H   0  0  0  0  0  0  0  0  0  0  0  0
  145.4366   74.3293  221.3268 H   0  0  0  0  0  0  0  0  0  0  0  0
  144.5601   72.7727  221.6036 H   0  0  0  0  0  0  0  0  0  0  0  0
  146.6099   73.3463  219.4077 H   0  0  0  0  0  0  0  0  0  0  0  0
  146.8381   72.3139  220.8808 H   0  0  0  0  0  0  0  0  0  0  0  0
  146.0585   71.3936  218.3797 H   0  0  0  0  0  0  0  0  0  0  0  0
  145.7892   70.5525  219.9732 H   0  0  0  0  0  0  0  0  0  0  0  0
  143.8670   70.8180  218.4110 H   0  0  0  0  0  0  0  0  0  0  0  0
  144.3035   73.1319  217.8529 H   0  0  0  0  0  0  0  0  0  0  0  0
  142.6336   72.8088  218.4555 H   0  0  0  0  0  0  0  0  0  0  0  0
  140.0591   77.1086  219.4127 H   0  0  0  0  0  0  0  0  0  0  0  0
  138.9847   78.0914  220.4579 H   0  0  0  0  0  0  0  0  0  0  0  0
  141.9248   78.5905  219.7780 H   0  0  0  0  0  0  0  0  0  0  0  0
  140.4893   79.6251  219.3927 H   0  0  0  0  0  0  0  0  0  0  0  0
  141.7804   81.5063  220.4105 H   0  0  0  0  0  0  0  0  0  0  0  0
  142.1704   82.7735  222.5202 H   0  0  0  0  0  0  0  0  0  0  0  0
  141.7662   81.6859  224.7283 H   0  0  0  0  0  0  0  0  0  0  0  0
  140.9644   79.3297  224.8336 H   0  0  0  0  0  0  0  0  0  0  0  0
  141.0229   77.0994  223.4990 H   0  0  0  0  0  0  0  0  0  0  0  0
  139.3571   77.6906  223.1118 H   0  0  0  0  0  0  0  0  0  0  0  0
  141.5863   71.0091  223.2849 H   0  0  0  0  0  0  0  0  0  0  0  0
  140.9541   72.3476  224.3568 H   0  0  0  0  0  0  0  0  0  0  0  0
  1  2  2  0
  2  3  1  0
  3  4  2  0
  4  5  1  0
  5  6  2  0
  5  7  1  0
  7  8  1  0
  8  9  1  0
  9 10  1  0
 10 11  2  0
 11 12  1  0
 12 13  1  0
 13 14  1  0
 14 15  1  0
 15 16  1  0
 16 17  1  0
 17 18  1  0
 12 19  2  0
 19 20  1  0
 20 21  1  0
 21 22  1  0
 22 23  1  0
 23 24  1  0
 24 25  2  0
 25 26  1  0
 26 27  2  0
 27 28  1  0
 28 29  2  0
 29 30  1  0
 20 31  2  0
  9 32  1  0
  6  1  1  0
 31 10  1  0
 32  4  1  0
 18 13  1  0
 30 21  1  0
 29 24  1  0
  1 33  1  0
  2 34  1  0
  3 35  1  0
  6 36  1  0
  7 37  1  0
  7 38  1  0
  8 39  1  0
  8 40  1  0
 13 41  1  6
 14 42  1  0
 14 43  1  0
 15 44  1  0
 15 45  1  0
 16 46  1  0
 16 47  1  0
 17 48  1  0
 18 49  1  0
 18 50  1  0
 22 51  1  0
 22 52  1  0
 23 53  1  0
 23 54  1  0
 25 55  1  0
 26 56  1  0
 27 57  1  0
 28 58  1  0
 30 59  1  0
 30 60  1  0
 32 61  1  0
 32 62  1  0
M  END
>  <UniqueID>  (10) 
676

>  <SMILES>  (10) 
c1ccc2c(c1)CCN(c1nc([C@H]3CCCNC3)nc(N3CCc4ccccc4C3)n1)C2

>  <Energy>  (10) 
76.68140197216171

>  <Genealogy>  (10) 
c1ccc2c(c1)CCN(c1nc([C@H]3CCCNC3)nc(N3CCc4ccccc4C3)n1)C2 (chirality)
c1ccc2c(c1)CCN(c1nc([C@H]3CCCNC3)nc(N3CCc4ccccc4C3)n1)C2 (3D coordinates assigned)
c1ccc2c(c1)CCN(c1nc([C@H]3CCCNC3)nc(N3CCc4ccccc4C3)n1)C2 (nonaromatic ring conformer: 76.68140197216171 kcal/mol)

>  <smiles>  (10) 
c1ccc2c(c1)CCN(c1nc(C3CCCNC3)nc(N3CCc4ccccc4C3)n1)C2

>  <score_type>  (10) 
oracle

>  <origin>  (10) 
autodockgpu

>  <m_score__min__energy>  (10) 
-8.9299999999999997

>  <m_primary>  (10) 
energy

>  <meeko>  (10) 
{"free_energy": -8.84, "intermolecular_energy": -9.74, "internal_energy": -0.87, "cluster_size": 19, "cluster_id": 1, "rank_in_cluster": 15}

>  <energy>  (10) 
-8.9

>  <cluster_rmsd>  (10) 
0.08

>  <rmsd>  (10) 
271.47

>  <cluster>  (10) 
1

$$$$
ZPZIUNMFLXMAPV-NRFANRHFNA-N
     RDKit          3D

 62 67  0  0  0  0  0  0  0  0999 V2000
  138.2540   68.6430  225.7050 C   0  0  0  0  0  0  0  0  0  0  0  0
  139.5840   68.8130  226.0890 C   0  0  0  0  0  0  0  0  0  0  0  0
  140.3860   69.7520  225.4350 C   0  0  0  0  0  0  0  0  0  0  0  0
  139.8650   70.5230  224.3830 C   0  0  0  0  0  0  0  0  0  0  0  0
  138.5190   70.3450  223.9940 C   0  0  0  0  0  0  0  0  0  0  0  0
  137.7200   69.4090  224.6660 C   0  0  0  0  0  0  0  0  0  0  0  0
  137.9260   71.1910  222.9050 C   0  0  0  0  0  0  0  0  0  0  0  0
  138.9920   71.5530  221.8750 C   0  0  0  0  0  0  0  0  0  0  0  0
  140.1400   72.1900  222.5410 N   0  0  0  0  0  0  0  0  0  0  0  0
  140.7930   73.3310  221.9450 C   0  0  0  0  0  0  0  0  0  0  0  0
  141.9180   73.1630  221.2000 N   0  0  0  0  0  0  0  0  0  0  0  0
  142.5500   74.2330  220.6540 C   0  0  0  0  0  0  0  0  0  0  0  0
  143.7940   74.0360  219.8280 C   0  0  1  0  0  0  0  0  0  0  0  0
  145.0480   74.1130  220.7290 C   0  0  0  0  0  0  0  0  0  0  0  0
  146.2410   73.4100  220.0720 C   0  0  0  0  0  0  0  0  0  0  0  0
  145.9190   71.9370  219.7310 C   0  0  0  0  0  0  0  0  0  0  0  0
  144.4730   71.6520  219.7340 N   0  0  0  0  0  0  0  0  0  0  0  0
  143.7340   72.7080  219.0320 C   0  0  0  0  0  0  0  0  0  0  0  0
  142.0470   75.4810  220.8460 N   0  0  0  0  0  0  0  0  0  0  0  0
  140.9270   75.6660  221.5920 C   0  0  0  0  0  0  0  0  0  0  0  0
  140.4220   76.9960  221.8290 N   0  0  0  0  0  0  0  0  0  0  0  0
  139.6260   77.7060  220.8240 C   0  0  0  0  0  0  0  0  0  0  0  0
  140.4030   78.9330  220.3520 C   0  0  0  0  0  0  0  0  0  0  0  0
  140.9240   79.7380  221.5190 C   0  0  0  0  0  0  0  0  0  0  0  0
  141.2950   81.0770  221.3130 C   0  0  0  0  0  0  0  0  0  0  0  0
  141.8230   81.8340  222.3610 C   0  0  0  0  0  0  0  0  0  0  0  0
  141.9970   81.2600  223.6210 C   0  0  0  0  0  0  0  0  0  0  0  0
  141.6470   79.9260  223.8380 C   0  0  0  0  0  0  0  0  0  0  0  0
  141.1230   79.1490  222.7920 C   0  0  0  0  0  0  0  0  0  0  0  0
  140.7230   77.7170  223.0730 C   0  0  0  0  0  0  0  0  0  0  0  0
  140.3080   74.5860  222.1370 N   0  0  0  0  0  0  0  0  0  0  0  0
  140.7540   71.5520  223.7200 C   0  0  0  0  0  0  0  0  0  0  0  0
  137.6240   67.9039  226.2216 H   0  0  0  0  0  0  0  0  0  0  0  0
  140.0018   68.2077  226.9070 H   0  0  0  0  0  0  0  0  0  0  0  0
  141.4322   69.8882  225.7461 H   0  0  0  0  0  0  0  0  0  0  0  0
  136.6678   69.2773  224.3737 H   0  0  0  0  0  0  0  0  0  0  0  0
  137.1185   70.6316  222.4101 H   0  0  0  0  0  0  0  0  0  0  0  0
  137.5277   72.1159  223.3475 H   0  0  0  0  0  0  0  0  0  0  0  0
  139.3288   70.6396  221.3629 H   0  0  0  0  0  0  0  0  0  0  0  0
  138.5640   72.2545  221.1437 H   0  0  0  0  0  0  0  0  0  0  0  0
  143.8582   74.8471  219.0877 H   0  0  0  0  0  0  0  0  0  0  0  0
  145.3030   75.1691  220.9009 H   0  0  0  0  0  0  0  0  0  0  0  0
  144.8262   73.6098  221.6817 H   0  0  0  0  0  0  0  0  0  0  0  0
  146.5020   73.9417  219.1451 H   0  0  0  0  0  0  0  0  0  0  0  0
  147.0804   73.4221  220.7828 H   0  0  0  0  0  0  0  0  0  0  0  0
  146.3192   71.7123  218.7313 H   0  0  0  0  0  0  0  0  0  0  0  0
  146.3815   71.3092  220.5069 H   0  0  0  0  0  0  0  0  0  0  0  0
  144.3240   70.7540  219.2160 H   0  0  0  0  0  0  0  0  0  0  0  0
  144.1795   72.8617  218.0381 H   0  0  0  0  0  0  0  0  0  0  0  0
  142.6825   72.4002  218.9338 H   0  0  0  0  0  0  0  0  0  0  0  0
  139.4321   77.0409  219.9696 H   0  0  0  0  0  0  0  0  0  0  0  0
  138.6668   78.0189  221.2622 H   0  0  0  0  0  0  0  0  0  0  0  0
  141.2531   78.6034  219.7367 H   0  0  0  0  0  0  0  0  0  0  0  0
  139.7224   79.5702  219.7683 H   0  0  0  0  0  0  0  0  0  0  0  0
  141.1688   81.5323  220.3196 H   0  0  0  0  0  0  0  0  0  0  0  0
  142.1022   82.8846  222.1930 H   0  0  0  0  0  0  0  0  0  0  0  0
  142.4108   81.8599  224.4450 H   0  0  0  0  0  0  0  0  0  0  0  0
  141.7825   79.4807  224.8346 H   0  0  0  0  0  0  0  0  0  0  0  0
  141.5494   77.2087  223.5914 H   0  0  0  0  0  0  0  0  0  0  0  0
  139.8186   77.7243  223.6991 H   0  0  0  0  0  0  0  0  0  0  0  0
  141.6833   71.0562  223.4028 H   0  0  0  0  0  0  0  0  0  0  0  0
  140.9352   72.3463  224.4591 H   0  0  0  0  0  0  0  0  0  0  0  0
  1  2  2  0
  2  3  1  0
  3  4  2  0
  4  5  1  0
  5  6  2  0
  5  7  1  0
  7  8  1  0
  8  9  1  0
  9 10  1  0
 10 11  2  0
 11 12  1  0
 12 13  1  0
 13 14  1  0
 14 15  1  0
 15 16  1  0
 16 17  1  0
 17 18  1  0
 12 19  2  0
 19 20  1  0
 20 21  1  0
 21 22  1  0
 22 23  1  0
 23 24  1  0
 24 25  2  0
 25 26  1  0
 26 27  2  0
 27 28  1  0
 28 29  2  0
 29 30  1  0
 20 31  2  0
  9 32  1  0
  6  1  1  0
 31 10  1  0
 32  4  1  0
 18 13  1  0
 30 21  1  0
 29 24  1  0
  1 33  1  0
  2 34  1  0
  3 35  1  0
  6 36  1  0
  7 37  1  0
  7 38  1  0
  8 39  1  0
  8 40  1  0
 13 41  1  6
 14 42  1  0
 14 43  1  0
 15 44  1  0
 15 45  1  0
 16 46  1  0
 16 47  1  0
 17 48  1  0
 18 49  1  0
 18 50  1  0
 22 51  1  0
 22 52  1  0
 23 53  1  0
 23 54  1  0
 25 55  1  0
 26 56  1  0
 27 57  1  0
 28 58  1  0
 30 59  1  0
 30 60  1  0
 32 61  1  0
 32 62  1  0
M  END
>  <UniqueID>  (11) 
676

>  <SMILES>  (11) 
c1ccc2c(c1)CCN(c1nc([C@H]3CCCNC3)nc(N3CCc4ccccc4C3)n1)C2

>  <Energy>  (11) 
76.68140197216171

>  <Genealogy>  (11) 
c1ccc2c(c1)CCN(c1nc([C@H]3CCCNC3)nc(N3CCc4ccccc4C3)n1)C2 (chirality)
c1ccc2c(c1)CCN(c1nc([C@H]3CCCNC3)nc(N3CCc4ccccc4C3)n1)C2 (3D coordinates assigned)
c1ccc2c(c1)CCN(c1nc([C@H]3CCCNC3)nc(N3CCc4ccccc4C3)n1)C2 (nonaromatic ring conformer: 76.68140197216171 kcal/mol)

>  <smiles>  (11) 
c1ccc2c(c1)CCN(c1nc(C3CCCNC3)nc(N3CCc4ccccc4C3)n1)C2

>  <score_type>  (11) 
oracle

>  <origin>  (11) 
autodockgpu

>  <m_score__min__energy>  (11) 
-8.9299999999999997

>  <m_primary>  (11) 
energy

>  <meeko>  (11) 
{"free_energy": -8.93, "intermolecular_energy": -9.83, "internal_energy": -0.87, "cluster_size": 19, "cluster_id": 1, "rank_in_cluster": 1}

>  <energy>  (11) 
-8.88

>  <cluster_rmsd>  (11) 
1.31

>  <rmsd>  (11) 
271.5

>  <cluster>  (11) 
1

$$$$
ZPZIUNMFLXMAPV-NRFANRHFNA-N
     RDKit          3D

 62 67  0  0  0  0  0  0  0  0999 V2000
  138.3350   68.6420  225.7220 C   0  0  0  0  0  0  0  0  0  0  0  0
  139.6740   68.8030  226.0800 C   0  0  0  0  0  0  0  0  0  0  0  0
  140.4670   69.7430  225.4180 C   0  0  0  0  0  0  0  0  0  0  0  0
  139.9280   70.5260  224.3840 C   0  0  0  0  0  0  0  0  0  0  0  0
  138.5740   70.3580  224.0210 C   0  0  0  0  0  0  0  0  0  0  0  0
  137.7830   69.4210  224.7020 C   0  0  0  0  0  0  0  0  0  0  0  0
  137.9620   71.2170  222.9530 C   0  0  0  0  0  0  0  0  0  0  0  0
  139.0080   71.5830  221.9040 C   0  0  0  0  0  0  0  0  0  0  0  0
  140.1730   72.2080  222.5510 N   0  0  0  0  0  0  0  0  0  0  0  0
  140.8200   73.3510  221.9520 C   0  0  0  0  0  0  0  0  0  0  0  0
  141.9440   73.1870  221.2060 N   0  0  0  0  0  0  0  0  0  0  0  0
  142.5700   74.2590  220.6560 C   0  0  0  0  0  0  0  0  0  0  0  0
  143.8130   74.0670  219.8280 C   0  0  1  0  0  0  0  0  0  0  0  0
  145.0670   74.1300  220.7310 C   0  0  0  0  0  0  0  0  0  0  0  0
  146.2580   73.4300  220.0670 C   0  0  0  0  0  0  0  0  0  0  0  0
  145.9320   71.9620  219.7110 C   0  0  0  0  0  0  0  0  0  0  0  0
  144.4860   71.6810  219.7110 N   0  0  0  0  0  0  0  0  0  0  0  0
  143.7500   72.7470  219.0190 C   0  0  0  0  0  0  0  0  0  0  0  0
  142.0610   75.5040  220.8460 N   0  0  0  0  0  0  0  0  0  0  0  0
  140.9410   75.6860  221.5930 C   0  0  0  0  0  0  0  0  0  0  0  0
  140.4300   77.0130  221.8280 N   0  0  0  0  0  0  0  0  0  0  0  0
  139.6020   77.7050  220.8360 C   0  0  0  0  0  0  0  0  0  0  0  0
  140.3560   78.9330  220.3310 C   0  0  0  0  0  0  0  0  0  0  0  0
  140.8990   79.7570  221.4750 C   0  0  0  0  0  0  0  0  0  0  0  0
  141.2510   81.0960  221.2450 C   0  0  0  0  0  0  0  0  0  0  0  0
  141.7990   81.8700  222.2700 C   0  0  0  0  0  0  0  0  0  0  0  0
  142.0100   81.3120  223.5320 C   0  0  0  0  0  0  0  0  0  0  0  0
  141.6780   79.9770  223.7720 C   0  0  0  0  0  0  0  0  0  0  0  0
  141.1350   79.1840  222.7490 C   0  0  0  0  0  0  0  0  0  0  0  0
  140.7560   77.7520  223.0560 C   0  0  0  0  0  0  0  0  0  0  0  0
  140.3280   74.6040  222.1410 N   0  0  0  0  0  0  0  0  0  0  0  0
  140.8080   71.5570  223.7110 C   0  0  0  0  0  0  0  0  0  0  0  0
  137.7127   67.9002  226.2440 H   0  0  0  0  0  0  0  0  0  0  0  0
  140.1054   68.1890  226.8843 H   0  0  0  0  0  0  0  0  0  0  0  0
  141.5203   69.8709  225.7082 H   0  0  0  0  0  0  0  0  0  0  0  0
  136.7237   69.2990  224.4319 H   0  0  0  0  0  0  0  0  0  0  0  0
  137.1412   70.6663  222.4703 H   0  0  0  0  0  0  0  0  0  0  0  0
  137.5777   72.1397  223.4123 H   0  0  0  0  0  0  0  0  0  0  0  0
  139.3291   70.6726  221.3767 H   0  0  0  0  0  0  0  0  0  0  0  0
  138.5683   72.2933  221.1884 H   0  0  0  0  0  0  0  0  0  0  0  0
  143.8792   74.8853  219.0959 H   0  0  0  0  0  0  0  0  0  0  0  0
  145.3255   75.1833  220.9146 H   0  0  0  0  0  0  0  0  0  0  0  0
  144.8429   73.6174  221.6781 H   0  0  0  0  0  0  0  0  0  0  0  0
  146.5207   73.9704  219.1456 H   0  0  0  0  0  0  0  0  0  0  0  0
  147.0972   73.4322  220.7781 H   0  0  0  0  0  0  0  0  0  0  0  0
  146.3317   71.7465  218.7091 H   0  0  0  0  0  0  0  0  0  0  0  0
  146.3926   71.3250  220.4805 H   0  0  0  0  0  0  0  0  0  0  0  0
  144.3340   70.7890  219.1840 H   0  0  0  0  0  0  0  0  0  0  0  0
  144.1966   72.9094  218.0269 H   0  0  0  0  0  0  0  0  0  0  0  0
  142.6977   72.4432  218.9175 H   0  0  0  0  0  0  0  0  0  0  0  0
  139.3921   77.0288  219.9942 H   0  0  0  0  0  0  0  0  0  0  0  0
  138.6515   78.0145  221.2952 H   0  0  0  0  0  0  0  0  0  0  0  0
  141.1935   78.6034  219.6985 H   0  0  0  0  0  0  0  0  0  0  0  0
  139.6551   79.5573  219.7575 H   0  0  0  0  0  0  0  0  0  0  0  0
  141.0941   81.5389  220.2504 H   0  0  0  0  0  0  0  0  0  0  0  0
  142.0647   82.9209  222.0827 H   0  0  0  0  0  0  0  0  0  0  0  0
  142.4385   81.9249  224.3387 H   0  0  0  0  0  0  0  0  0  0  0  0
  141.8431   79.5439  224.7696 H   0  0  0  0  0  0  0  0  0  0  0  0
  141.6001   77.2575  223.5589 H   0  0  0  0  0  0  0  0  0  0  0  0
  139.8676   77.7584  223.7046 H   0  0  0  0  0  0  0  0  0  0  0  0
  141.7280   71.0597  223.3701 H   0  0  0  0  0  0  0  0  0  0  0  0
  141.0081   72.3440  224.4530 H   0  0  0  0  0  0  0  0  0  0  0  0
  1  2  2  0
  2  3  1  0
  3  4  2  0
  4  5  1  0
  5  6  2  0
  5  7  1  0
  7  8  1  0
  8  9  1  0
  9 10  1  0
 10 11  2  0
 11 12  1  0
 12 13  1  0
 13 14  1  0
 14 15  1  0
 15 16  1  0
 16 17  1  0
 17 18  1  0
 12 19  2  0
 19 20  1  0
 20 21  1  0
 21 22  1  0
 22 23  1  0
 23 24  1  0
 24 25  2  0
 25 26  1  0
 26 27  2  0
 27 28  1  0
 28 29  2  0
 29 30  1  0
 20 31  2  0
  9 32  1  0
  6  1  1  0
 31 10  1  0
 32  4  1  0
 18 13  1  0
 30 21  1  0
 29 24  1  0
  1 33  1  0
  2 34  1  0
  3 35  1  0
  6 36  1  0
  7 37  1  0
  7 38  1  0
  8 39  1  0
  8 40  1  0
 13 41  1  6
 14 42  1  0
 14 43  1  0
 15 44  1  0
 15 45  1  0
 16 46  1  0
 16 47  1  0
 17 48  1  0
 18 49  1  0
 18 50  1  0
 22 51  1  0
 22 52  1  0
 23 53  1  0
 23 54  1  0
 25 55  1  0
 26 56  1  0
 27 57  1  0
 28 58  1  0
 30 59  1  0
 30 60  1  0
 32 61  1  0
 32 62  1  0
M  END
>  <UniqueID>  (12) 
676

>  <SMILES>  (12) 
c1ccc2c(c1)CCN(c1nc([C@H]3CCCNC3)nc(N3CCc4ccccc4C3)n1)C2

>  <Energy>  (12) 
76.68140197216171

>  <Genealogy>  (12) 
c1ccc2c(c1)CCN(c1nc([C@H]3CCCNC3)nc(N3CCc4ccccc4C3)n1)C2 (chirality)
c1ccc2c(c1)CCN(c1nc([C@H]3CCCNC3)nc(N3CCc4ccccc4C3)n1)C2 (3D coordinates assigned)
c1ccc2c(c1)CCN(c1nc([C@H]3CCCNC3)nc(N3CCc4ccccc4C3)n1)C2 (nonaromatic ring conformer: 76.68140197216171 kcal/mol)

>  <smiles>  (12) 
c1ccc2c(c1)CCN(c1nc(C3CCCNC3)nc(N3CCc4ccccc4C3)n1)C2

>  <score_type>  (12) 
oracle

>  <origin>  (12) 
autodockgpu

>  <m_score__min__energy>  (12) 
-8.9299999999999997

>  <m_primary>  (12) 
energy

>  <meeko>  (12) 
{"free_energy": -8.91, "intermolecular_energy": -9.8, "internal_energy": -0.87, "cluster_size": 19, "cluster_id": 1, "rank_in_cluster": 8}

>  <energy>  (12) 
-8.88

>  <cluster_rmsd>  (12) 
1.35

>  <rmsd>  (12) 
271.51

>  <cluster>  (12) 
1

$$$$
ZPZIUNMFLXMAPV-NRFANRHFNA-N
     RDKit          3D

 62 67  0  0  0  0  0  0  0  0999 V2000
  139.9530   67.9140  227.8860 C   0  0  0  0  0  0  0  0  0  0  0  0
  139.2400   67.3430  226.8310 C   0  0  0  0  0  0  0  0  0  0  0  0
  139.2080   67.9760  225.5850 C   0  0  0  0  0  0  0  0  0  0  0  0
  139.8850   69.1910  225.3870 C   0  0  0  0  0  0  0  0  0  0  0  0
  140.6020   69.7670  226.4580 C   0  0  0  0  0  0  0  0  0  0  0  0
  140.6380   69.1170  227.7000 C   0  0  0  0  0  0  0  0  0  0  0  0
  141.3730   71.0400  226.2570 C   0  0  0  0  0  0  0  0  0  0  0  0
  140.6800   71.9210  225.2210 C   0  0  0  0  0  0  0  0  0  0  0  0
  140.4750   71.1660  223.9750 N   0  0  0  0  0  0  0  0  0  0  0  0
  140.6990   71.7920  222.6930 C   0  0  0  0  0  0  0  0  0  0  0  0
  140.2030   73.0330  222.4420 N   0  0  0  0  0  0  0  0  0  0  0  0
  140.3910   73.6200  221.2330 C   0  0  0  0  0  0  0  0  0  0  0  0
  139.8410   74.9960  220.9660 C   0  0  1  0  0  0  0  0  0  0  0  0
  138.7520   75.3440  222.0060 C   0  0  0  0  0  0  0  0  0  0  0  0
  138.5590   76.8610  222.1150 C   0  0  0  0  0  0  0  0  0  0  0  0
  139.8810   77.5820  222.4650 C   0  0  0  0  0  0  0  0  0  0  0  0
  141.0700   76.7440  222.2290 N   0  0  0  0  0  0  0  0  0  0  0  0
  140.9720   76.0560  220.9350 C   0  0  0  0  0  0  0  0  0  0  0  0
  141.0900   72.9640  220.2690 N   0  0  0  0  0  0  0  0  0  0  0  0
  141.5860   71.7210  220.5020 C   0  0  0  0  0  0  0  0  0  0  0  0
  142.2880   71.0120  219.4610 N   0  0  0  0  0  0  0  0  0  0  0  0
  141.5730   70.3050  218.3950 C   0  0  0  0  0  0  0  0  0  0  0  0
  141.8510   68.8080  218.5200 C   0  0  0  0  0  0  0  0  0  0  0  0
  143.3290   68.5310  218.6630 C   0  0  0  0  0  0  0  0  0  0  0  0
  143.8120   67.2430  218.3840 C   0  0  0  0  0  0  0  0  0  0  0  0
  145.1650   66.9440  218.5520 C   0  0  0  0  0  0  0  0  0  0  0  0
  146.0480   67.9230  219.0100 C   0  0  0  0  0  0  0  0  0  0  0  0
  145.5790   69.2050  219.3060 C   0  0  0  0  0  0  0  0  0  0  0  0
  144.2200   69.5190  219.1510 C   0  0  0  0  0  0  0  0  0  0  0  0
  143.7550   70.9270  219.4490 C   0  0  0  0  0  0  0  0  0  0  0  0
  141.3860   71.1440  221.7160 N   0  0  0  0  0  0  0  0  0  0  0  0
  139.8550   69.8290  224.0160 C   0  0  0  0  0  0  0  0  0  0  0  0
  139.9756   67.4156  228.8663 H   0  0  0  0  0  0  0  0  0  0  0  0
  138.7030   66.3946  226.9799 H   0  0  0  0  0  0  0  0  0  0  0  0
  138.6493   67.5199  224.7544 H   0  0  0  0  0  0  0  0  0  0  0  0
  141.2083   69.5565  228.5316 H   0  0  0  0  0  0  0  0  0  0  0  0
  141.4336   71.5822  227.2122 H   0  0  0  0  0  0  0  0  0  0  0  0
  142.3834   70.7936  225.8988 H   0  0  0  0  0  0  0  0  0  0  0  0
  139.7057   72.2475  225.6136 H   0  0  0  0  0  0  0  0  0  0  0  0
  141.3108   72.7977  225.0124 H   0  0  0  0  0  0  0  0  0  0  0  0
  139.3732   75.0020  219.9705 H   0  0  0  0  0  0  0  0  0  0  0  0
  137.8019   74.8819  221.6999 H   0  0  0  0  0  0  0  0  0  0  0  0
  139.0696   74.9604  222.9868 H   0  0  0  0  0  0  0  0  0  0  0  0
  138.1885   77.2433  221.1524 H   0  0  0  0  0  0  0  0  0  0  0  0
  137.8373   77.0577  222.9215 H   0  0  0  0  0  0  0  0  0  0  0  0
  139.9614   78.4879  221.8462 H   0  0  0  0  0  0  0  0  0  0  0  0
  139.8529   77.8212  223.5383 H   0  0  0  0  0  0  0  0  0  0  0  0
  141.9040   77.3750  222.1970 H   0  0  0  0  0  0  0  0  0  0  0  0
  140.7547   76.7938  220.1486 H   0  0  0  0  0  0  0  0  0  0  0  0
  141.9269   75.5505  220.7284 H   0  0  0  0  0  0  0  0  0  0  0  0
  140.4927   70.4890  218.4902 H   0  0  0  0  0  0  0  0  0  0  0  0
  141.9149   70.6666  217.4140 H   0  0  0  0  0  0  0  0  0  0  0  0
  141.3269   68.4196  219.4057 H   0  0  0  0  0  0  0  0  0  0  0  0
  141.4932   68.3123  217.6055 H   0  0  0  0  0  0  0  0  0  0  0  0
  143.1199   66.4644  218.0308 H   0  0  0  0  0  0  0  0  0  0  0  0
  145.5363   65.9342  218.3229 H   0  0  0  0  0  0  0  0  0  0  0  0
  147.1143   67.6848  219.1380 H   0  0  0  0  0  0  0  0  0  0  0  0
  146.2798   69.9739  219.6631 H   0  0  0  0  0  0  0  0  0  0  0  0
  144.1399   71.2309  220.4337 H   0  0  0  0  0  0  0  0  0  0  0  0
  144.1356   71.5932  218.6607 H   0  0  0  0  0  0  0  0  0  0  0  0
  138.8060   69.9219  223.6983 H   0  0  0  0  0  0  0  0  0  0  0  0
  140.4387   69.1814  223.3453 H   0  0  0  0  0  0  0  0  0  0  0  0
  1  2  2  0
  2  3  1  0
  3  4  2  0
  4  5  1  0
  5  6  2  0
  5  7  1  0
  7  8  1  0
  8  9  1  0
  9 10  1  0
 10 11  2  0
 11 12  1  0
 12 13  1  0
 13 14  1  0
 14 15  1  0
 15 16  1  0
 16 17  1  0
 17 18  1  0
 12 19  2  0
 19 20  1  0
 20 21  1  0
 21 22  1  0
 22 23  1  0
 23 24  1  0
 24 25  2  0
 25 26  1  0
 26 27  2  0
 27 28  1  0
 28 29  2  0
 29 30  1  0
 20 31  2  0
  9 32  1  0
  6  1  1  0
 31 10  1  0
 32  4  1  0
 18 13  1  0
 30 21  1  0
 29 24  1  0
  1 33  1  0
  2 34  1  0
  3 35  1  0
  6 36  1  0
  7 37  1  0
  7 38  1  0
  8 39  1  0
  8 40  1  0
 13 41  1  6
 14 42  1  0
 14 43  1  0
 15 44  1  0
 15 45  1  0
 16 46  1  0
 16 47  1  0
 17 48  1  0
 18 49  1  0
 18 50  1  0
 22 51  1  0
 22 52  1  0
 23 53  1  0
 23 54  1  0
 25 55  1  0
 26 56  1  0
 27 57  1  0
 28 58  1  0
 30 59  1  0
 30 60  1  0
 32 61  1  0
 32 62  1  0
M  END
>  <UniqueID>  (13) 
676

>  <SMILES>  (13) 
c1ccc2c(c1)CCN(c1nc([C@H]3CCCNC3)nc(N3CCc4ccccc4C3)n1)C2

>  <Energy>  (13) 
76.68140197216171

>  <Genealogy>  (13) 
c1ccc2c(c1)CCN(c1nc([C@H]3CCCNC3)nc(N3CCc4ccccc4C3)n1)C2 (chirality)
c1ccc2c(c1)CCN(c1nc([C@H]3CCCNC3)nc(N3CCc4ccccc4C3)n1)C2 (3D coordinates assigned)
c1ccc2c(c1)CCN(c1nc([C@H]3CCCNC3)nc(N3CCc4ccccc4C3)n1)C2 (nonaromatic ring conformer: 76.68140197216171 kcal/mol)

>  <smiles>  (13) 
c1ccc2c(c1)CCN(c1nc(C3CCCNC3)nc(N3CCc4ccccc4C3)n1)C2

>  <score_type>  (13) 
oracle

>  <origin>  (13) 
autodockgpu

>  <m_score__min__energy>  (13) 
-8.9299999999999997

>  <m_primary>  (13) 
energy

>  <meeko>  (13) 
{"free_energy": -8.56, "intermolecular_energy": -9.45, "internal_energy": -0.89, "cluster_size": 1, "cluster_id": 2, "rank_in_cluster": 1}

>  <energy>  (13) 
-8.87

>  <cluster_rmsd>  (13) 
1.56

>  <rmsd>  (13) 
271.47

>  <cluster>  (13) 
1

$$$$
ZPZIUNMFLXMAPV-NRFANRHFNA-N
     RDKit          3D

 62 67  0  0  0  0  0  0  0  0999 V2000
  138.1220   68.8940  225.7000 C   0  0  0  0  0  0  0  0  0  0  0  0
  139.4230   69.1100  226.1580 C   0  0  0  0  0  0  0  0  0  0  0  0
  140.2480   70.0320  225.5080 C   0  0  0  0  0  0  0  0  0  0  0  0
  139.7800   70.7410  224.3890 C   0  0  0  0  0  0  0  0  0  0  0  0
  138.4650   70.5160  223.9260 C   0  0  0  0  0  0  0  0  0  0  0  0
  137.6410   69.5980  224.5940 C   0  0  0  0  0  0  0  0  0  0  0  0
  137.9270   71.2960  222.7620 C   0  0  0  0  0  0  0  0  0  0  0  0
  139.0490   71.6300  221.7840 C   0  0  0  0  0  0  0  0  0  0  0  0
  140.1410   72.3210  222.4870 N   0  0  0  0  0  0  0  0  0  0  0  0
  140.8110   73.4450  221.8760 C   0  0  0  0  0  0  0  0  0  0  0  0
  141.9570   73.2570  221.1700 N   0  0  0  0  0  0  0  0  0  0  0  0
  142.6040   74.3110  220.6110 C   0  0  0  0  0  0  0  0  0  0  0  0
  143.8720   74.0920  219.8270 C   0  0  1  0  0  0  0  0  0  0  0  0
  145.0890   74.0790  220.7800 C   0  0  0  0  0  0  0  0  0  0  0  0
  146.2770   73.3490  220.1430 C   0  0  0  0  0  0  0  0  0  0  0  0
  145.9080   71.9060  219.7300 C   0  0  0  0  0  0  0  0  0  0  0  0
  144.4530   71.6850  219.6650 N   0  0  0  0  0  0  0  0  0  0  0  0
  143.7890   72.7990  218.9760 C   0  0  0  0  0  0  0  0  0  0  0  0
  142.0950   75.5630  220.7510 N   0  0  0  0  0  0  0  0  0  0  0  0
  140.9540   75.7690  221.4580 C   0  0  0  0  0  0  0  0  0  0  0  0
  140.4410   77.1040  221.6410 N   0  0  0  0  0  0  0  0  0  0  0  0
  139.8090   77.8410  220.5430 C   0  0  0  0  0  0  0  0  0  0  0  0
  140.6650   79.0600  220.2060 C   0  0  0  0  0  0  0  0  0  0  0  0
  141.0260   79.8410  221.4470 C   0  0  0  0  0  0  0  0  0  0  0  0
  141.4430   81.1750  221.3170 C   0  0  0  0  0  0  0  0  0  0  0  0
  141.8270   81.9090  222.4410 C   0  0  0  0  0  0  0  0  0  0  0  0
  141.8090   81.3160  223.7040 C   0  0  0  0  0  0  0  0  0  0  0  0
  141.4110   79.9860  223.8480 C   0  0  0  0  0  0  0  0  0  0  0  0
  141.0310   79.2320  222.7270 C   0  0  0  0  0  0  0  0  0  0  0  0
  140.5720   77.8040  222.9260 C   0  0  0  0  0  0  0  0  0  0  0  0
  140.3190   74.7040  222.0160 N   0  0  0  0  0  0  0  0  0  0  0  0
  140.6910   71.7540  223.7320 C   0  0  0  0  0  0  0  0  0  0  0  0
  137.4740   68.1672  226.2117 H   0  0  0  0  0  0  0  0  0  0  0  0
  139.7986   68.5547  227.0301 H   0  0  0  0  0  0  0  0  0  0  0  0
  141.2707   70.2037  225.8750 H   0  0  0  0  0  0  0  0  0  0  0  0
  136.6112   69.4319  224.2450 H   0  0  0  0  0  0  0  0  0  0  0  0
  137.1624   70.6967  222.2460 H   0  0  0  0  0  0  0  0  0  0  0  0
  137.4851   72.2326  223.1327 H   0  0  0  0  0  0  0  0  0  0  0  0
  139.4332   70.7002  221.3392 H   0  0  0  0  0  0  0  0  0  0  0  0
  138.6556   72.2870  220.9943 H   0  0  0  0  0  0  0  0  0  0  0  0
  144.0011   74.9272  219.1228 H   0  0  0  0  0  0  0  0  0  0  0  0
  145.3817   75.1154  221.0040 H   0  0  0  0  0  0  0  0  0  0  0  0
  144.8064   73.5507  221.7025 H   0  0  0  0  0  0  0  0  0  0  0  0
  146.5987   73.9041  219.2495 H   0  0  0  0  0  0  0  0  0  0  0  0
  147.0853   73.2961  220.8872 H   0  0  0  0  0  0  0  0  0  0  0  0
  146.3389   71.7032  218.7384 H   0  0  0  0  0  0  0  0  0  0  0  0
  146.3119   71.2286  220.4968 H   0  0  0  0  0  0  0  0  0  0  0  0
  144.2870   70.8150  219.1050 H   0  0  0  0  0  0  0  0  0  0  0  0
  144.2819   72.9709  218.0078 H   0  0  0  0  0  0  0  0  0  0  0  0
  142.7305   72.5418  218.8229 H   0  0  0  0  0  0  0  0  0  0  0  0
  139.7295   77.1904  219.6596 H   0  0  0  0  0  0  0  0  0  0  0  0
  138.8019   78.1653  220.8438 H   0  0  0  0  0  0  0  0  0  0  0  0
  141.5893   78.7231  219.7139 H   0  0  0  0  0  0  0  0  0  0  0  0
  140.0850   79.7166  219.5407 H   0  0  0  0  0  0  0  0  0  0  0  0
  141.4674   81.6453  220.3229 H   0  0  0  0  0  0  0  0  0  0  0  0
  142.1442   82.9565  222.3307 H   0  0  0  0  0  0  0  0  0  0  0  0
  142.1091   81.8979  224.5879 H   0  0  0  0  0  0  0  0  0  0  0  0
  141.3950   79.5257  224.8469 H   0  0  0  0  0  0  0  0  0  0  0  0
  141.3072   77.2744  223.5497 H   0  0  0  0  0  0  0  0  0  0  0  0
  139.5873   77.8198  223.4160 H   0  0  0  0  0  0  0  0  0  0  0  0
  141.6467   71.2622  223.4979 H   0  0  0  0  0  0  0  0  0  0  0  0
  140.8121   72.5868  224.4403 H   0  0  0  0  0  0  0  0  0  0  0  0
  1  2  2  0
  2  3  1  0
  3  4  2  0
  4  5  1  0
  5  6  2  0
  5  7  1  0
  7  8  1  0
  8  9  1  0
  9 10  1  0
 10 11  2  0
 11 12  1  0
 12 13  1  0
 13 14  1  0
 14 15  1  0
 15 16  1  0
 16 17  1  0
 17 18  1  0
 12 19  2  0
 19 20  1  0
 20 21  1  0
 21 22  1  0
 22 23  1  0
 23 24  1  0
 24 25  2  0
 25 26  1  0
 26 27  2  0
 27 28  1  0
 28 29  2  0
 29 30  1  0
 20 31  2  0
  9 32  1  0
  6  1  1  0
 31 10  1  0
 32  4  1  0
 18 13  1  0
 30 21  1  0
 29 24  1  0
  1 33  1  0
  2 34  1  0
  3 35  1  0
  6 36  1  0
  7 37  1  0
  7 38  1  0
  8 39  1  0
  8 40  1  0
 13 41  1  6
 14 42  1  0
 14 43  1  0
 15 44  1  0
 15 45  1  0
 16 46  1  0
 16 47  1  0
 17 48  1  0
 18 49  1  0
 18 50  1  0
 22 51  1  0
 22 52  1  0
 23 53  1  0
 23 54  1  0
 25 55  1  0
 26 56  1  0
 27 57  1  0
 28 58  1  0
 30 59  1  0
 30 60  1  0
 32 61  1  0
 32 62  1  0
M  END
>  <UniqueID>  (14) 
676

>  <SMILES>  (14) 
c1ccc2c(c1)CCN(c1nc([C@H]3CCCNC3)nc(N3CCc4ccccc4C3)n1)C2

>  <Energy>  (14) 
76.68140197216171

>  <Genealogy>  (14) 
c1ccc2c(c1)CCN(c1nc([C@H]3CCCNC3)nc(N3CCc4ccccc4C3)n1)C2 (chirality)
c1ccc2c(c1)CCN(c1nc([C@H]3CCCNC3)nc(N3CCc4ccccc4C3)n1)C2 (3D coordinates assigned)
c1ccc2c(c1)CCN(c1nc([C@H]3CCCNC3)nc(N3CCc4ccccc4C3)n1)C2 (nonaromatic ring conformer: 76.68140197216171 kcal/mol)

>  <smiles>  (14) 
c1ccc2c(c1)CCN(c1nc(C3CCCNC3)nc(N3CCc4ccccc4C3)n1)C2

>  <score_type>  (14) 
oracle

>  <origin>  (14) 
autodockgpu

>  <m_score__min__energy>  (14) 
-8.9299999999999997

>  <m_primary>  (14) 
energy

>  <meeko>  (14) 
{"free_energy": -8.93, "intermolecular_energy": -9.83, "internal_energy": -0.87, "cluster_size": 19, "cluster_id": 1, "rank_in_cluster": 2}

>  <energy>  (14) 
-8.85

>  <cluster_rmsd>  (14) 
1.56

>  <rmsd>  (14) 
271.4

>  <cluster>  (14) 
1

$$$$
ZPZIUNMFLXMAPV-NRFANRHFNA-N
     RDKit          3D

 62 67  0  0  0  0  0  0  0  0999 V2000
  139.2060   69.2360  227.7200 C   0  0  0  0  0  0  0  0  0  0  0  0
  140.3600   69.9690  228.0000 C   0  0  0  0  0  0  0  0  0  0  0  0
  140.9550   70.7450  227.0020 C   0  0  0  0  0  0  0  0  0  0  0  0
  140.4030   70.7880  225.7110 C   0  0  0  0  0  0  0  0  0  0  0  0
  139.2370   70.0430  225.4300 C   0  0  0  0  0  0  0  0  0  0  0  0
  138.6410   69.2780  226.4430 C   0  0  0  0  0  0  0  0  0  0  0  0
  138.6010   70.1110  224.0720 C   0  0  0  0  0  0  0  0  0  0  0  0
  139.6650   70.3240  222.9990 C   0  0  0  0  0  0  0  0  0  0  0  0
  140.4730   71.5120  223.3190 N   0  0  0  0  0  0  0  0  0  0  0  0
  140.8610   72.4370  222.2810 C   0  0  0  0  0  0  0  0  0  0  0  0
  141.6370   72.0180  221.2470 N   0  0  0  0  0  0  0  0  0  0  0  0
  142.0240   72.8870  220.2780 C   0  0  0  0  0  0  0  0  0  0  0  0
  142.8810   72.4120  219.1350 C   0  0  1  0  0  0  0  0  0  0  0  0
  142.4020   73.0500  217.8100 C   0  0  0  0  0  0  0  0  0  0  0  0
  143.5180   73.0370  216.7590 C   0  0  0  0  0  0  0  0  0  0  0  0
  144.7900   73.7530  217.2660 C   0  0  0  0  0  0  0  0  0  0  0  0
  144.8030   73.9290  218.7290 N   0  0  0  0  0  0  0  0  0  0  0  0
  144.3810   72.6940  219.4030 C   0  0  0  0  0  0  0  0  0  0  0  0
  141.6210   74.1830  220.3390 N   0  0  0  0  0  0  0  0  0  0  0  0
  140.8500   74.6190  221.3680 C   0  0  0  0  0  0  0  0  0  0  0  0
  140.4630   76.0050  221.4510 N   0  0  0  0  0  0  0  0  0  0  0  0
  140.0550   76.7620  220.2630 C   0  0  0  0  0  0  0  0  0  0  0  0
  141.0710   77.8740  220.0110 C   0  0  0  0  0  0  0  0  0  0  0  0
  141.3530   78.6600  221.2710 C   0  0  0  0  0  0  0  0  0  0  0  0
  141.9220   79.9390  221.1640 C   0  0  0  0  0  0  0  0  0  0  0  0
  142.2360   80.6710  222.3100 C   0  0  0  0  0  0  0  0  0  0  0  0
  141.9960   80.1300  223.5740 C   0  0  0  0  0  0  0  0  0  0  0  0
  141.4440   78.8530  223.6970 C   0  0  0  0  0  0  0  0  0  0  0  0
  141.1310   78.1010  222.5540 C   0  0  0  0  0  0  0  0  0  0  0  0
  140.5030   76.7360  222.7250 C   0  0  0  0  0  0  0  0  0  0  0  0
  140.4750   73.7390  222.3340 N   0  0  0  0  0  0  0  0  0  0  0  0
  141.0560   71.6650  224.6650 C   0  0  0  0  0  0  0  0  0  0  0  0
  138.7403   68.6239  228.5064 H   0  0  0  0  0  0  0  0  0  0  0  0
  140.8015   69.9358  229.0070 H   0  0  0  0  0  0  0  0  0  0  0  0
  141.8613   71.3258  227.2286 H   0  0  0  0  0  0  0  0  0  0  0  0
  137.7242   68.7083  226.2311 H   0  0  0  0  0  0  0  0  0  0  0  0
  138.0685   69.1693  223.8731 H   0  0  0  0  0  0  0  0  0  0  0  0
  137.8957   70.9548  224.0490 H   0  0  0  0  0  0  0  0  0  0  0  0
  140.3186   69.4404  222.9539 H   0  0  0  0  0  0  0  0  0  0  0  0
  139.1722   70.4740  222.0271 H   0  0  0  0  0  0  0  0  0  0  0  0
  142.7743   71.3209  219.0445 H   0  0  0  0  0  0  0  0  0  0  0  0
  141.5412   72.4818  217.4277 H   0  0  0  0  0  0  0  0  0  0  0  0
  142.1178   74.0943  218.0065 H   0  0  0  0  0  0  0  0  0  0  0  0
  143.7686   71.9933  216.5182 H   0  0  0  0  0  0  0  0  0  0  0  0
  143.1560   73.5715  215.8683 H   0  0  0  0  0  0  0  0  0  0  0  0
  145.6678   73.1568  216.9762 H   0  0  0  0  0  0  0  0  0  0  0  0
  144.8085   74.7549  216.8123 H   0  0  0  0  0  0  0  0  0  0  0  0
  145.7890   74.1340  219.0170 H   0  0  0  0  0  0  0  0  0  0  0  0
  144.9803   71.8527  219.0247 H   0  0  0  0  0  0  0  0  0  0  0  0
  144.5318   72.8117  220.4862 H   0  0  0  0  0  0  0  0  0  0  0  0
  140.0187   76.0909  219.3922 H   0  0  0  0  0  0  0  0  0  0  0  0
  139.0579   77.1980  220.4236 H   0  0  0  0  0  0  0  0  0  0  0  0
  142.0092   77.4266  219.6509 H   0  0  0  0  0  0  0  0  0  0  0  0
  140.6528   78.5613  219.2608 H   0  0  0  0  0  0  0  0  0  0  0  0
  142.1216   80.3669  220.1705 H   0  0  0  0  0  0  0  0  0  0  0  0
  142.6734   81.6760  222.2169 H   0  0  0  0  0  0  0  0  0  0  0  0
  142.2421   80.7106  224.4753 H   0  0  0  0  0  0  0  0  0  0  0  0
  141.2533   78.4339  224.6960 H   0  0  0  0  0  0  0  0  0  0  0  0
  141.0931   76.1582  223.4516 H   0  0  0  0  0  0  0  0  0  0  0  0
  139.4711   76.8700  223.0817 H   0  0  0  0  0  0  0  0  0  0  0  0
  142.1241   71.4074  224.6127 H   0  0  0  0  0  0  0  0  0  0  0  0
  140.8920   72.7088  224.9709 H   0  0  0  0  0  0  0  0  0  0  0  0
  1  2  2  0
  2  3  1  0
  3  4  2  0
  4  5  1  0
  5  6  2  0
  5  7  1  0
  7  8  1  0
  8  9  1  0
  9 10  1  0
 10 11  2  0
 11 12  1  0
 12 13  1  0
 13 14  1  0
 14 15  1  0
 15 16  1  0
 16 17  1  0
 17 18  1  0
 12 19  2  0
 19 20  1  0
 20 21  1  0
 21 22  1  0
 22 23  1  0
 23 24  1  0
 24 25  2  0
 25 26  1  0
 26 27  2  0
 27 28  1  0
 28 29  2  0
 29 30  1  0
 20 31  2  0
  9 32  1  0
  6  1  1  0
 31 10  1  0
 32  4  1  0
 18 13  1  0
 30 21  1  0
 29 24  1  0
  1 33  1  0
  2 34  1  0
  3 35  1  0
  6 36  1  0
  7 37  1  0
  7 38  1  0
  8 39  1  0
  8 40  1  0
 13 41  1  6
 14 42  1  0
 14 43  1  0
 15 44  1  0
 15 45  1  0
 16 46  1  0
 16 47  1  0
 17 48  1  0
 18 49  1  0
 18 50  1  0
 22 51  1  0
 22 52  1  0
 23 53  1  0
 23 54  1  0
 25 55  1  0
 26 56  1  0
 27 57  1  0
 28 58  1  0
 30 59  1  0
 30 60  1  0
 32 61  1  0
 32 62  1  0
M  END
>  <UniqueID>  (15) 
676

>  <SMILES>  (15) 
c1ccc2c(c1)CCN(c1nc([C@H]3CCCNC3)nc(N3CCc4ccccc4C3)n1)C2

>  <Energy>  (15) 
76.68140197216171

>  <Genealogy>  (15) 
c1ccc2c(c1)CCN(c1nc([C@H]3CCCNC3)nc(N3CCc4ccccc4C3)n1)C2 (chirality)
c1ccc2c(c1)CCN(c1nc([C@H]3CCCNC3)nc(N3CCc4ccccc4C3)n1)C2 (3D coordinates assigned)
c1ccc2c(c1)CCN(c1nc([C@H]3CCCNC3)nc(N3CCc4ccccc4C3)n1)C2 (nonaromatic ring conformer: 76.68140197216171 kcal/mol)

>  <smiles>  (15) 
c1ccc2c(c1)CCN(c1nc(C3CCCNC3)nc(N3CCc4ccccc4C3)n1)C2

>  <score_type>  (15) 
oracle

>  <origin>  (15) 
autodockgpu

>  <m_score__min__energy>  (15) 
-8.9299999999999997

>  <m_primary>  (15) 
energy

>  <meeko>  (15) 
{"free_energy": -8.87, "intermolecular_energy": -9.76, "internal_energy": -0.9, "cluster_size": 19, "cluster_id": 1, "rank_in_cluster": 13}

>  <energy>  (15) 
-8.84

>  <cluster_rmsd>  (15) 
0.4

>  <rmsd>  (15) 
271.37

>  <cluster>  (15) 
1

$$$$
ZPZIUNMFLXMAPV-NRFANRHFNA-N
     RDKit          3D

 62 67  0  0  0  0  0  0  0  0999 V2000
  138.1840   68.6910  225.6560 C   0  0  0  0  0  0  0  0  0  0  0  0
  139.5170   68.8470  226.0370 C   0  0  0  0  0  0  0  0  0  0  0  0
  140.3280   69.7760  225.3800 C   0  0  0  0  0  0  0  0  0  0  0  0
  139.8120   70.5530  224.3290 C   0  0  0  0  0  0  0  0  0  0  0  0
  138.4640   70.3900  223.9430 C   0  0  0  0  0  0  0  0  0  0  0  0
  137.6560   69.4630  224.6190 C   0  0  0  0  0  0  0  0  0  0  0  0
  137.8770   71.2420  222.8560 C   0  0  0  0  0  0  0  0  0  0  0  0
  138.9450   71.5920  221.8230 C   0  0  0  0  0  0  0  0  0  0  0  0
  140.1010   72.2160  222.4860 N   0  0  0  0  0  0  0  0  0  0  0  0
  140.7660   73.3490  221.8880 C   0  0  0  0  0  0  0  0  0  0  0  0
  141.8980   73.1710  221.1580 N   0  0  0  0  0  0  0  0  0  0  0  0
  142.5410   74.2340  220.6100 C   0  0  0  0  0  0  0  0  0  0  0  0
  143.7930   74.0260  219.8000 C   0  0  1  0  0  0  0  0  0  0  0  0
  145.0360   74.0870  220.7180 C   0  0  0  0  0  0  0  0  0  0  0  0
  146.2300   73.3720  220.0760 C   0  0  0  0  0  0  0  0  0  0  0  0
  145.8970   71.9040  219.7270 C   0  0  0  0  0  0  0  0  0  0  0  0
  144.4480   71.6340  219.7100 N   0  0  0  0  0  0  0  0  0  0  0  0
  143.7300   72.7000  219.0000 C   0  0  0  0  0  0  0  0  0  0  0  0
  142.0400   75.4850  220.7850 N   0  0  0  0  0  0  0  0  0  0  0  0
  140.9120   75.6810  221.5160 C   0  0  0  0  0  0  0  0  0  0  0  0
  140.4090   77.0140  221.7350 N   0  0  0  0  0  0  0  0  0  0  0  0
  139.6870   77.7450  220.6900 C   0  0  0  0  0  0  0  0  0  0  0  0
  140.5080   78.9670  220.2820 C   0  0  0  0  0  0  0  0  0  0  0  0
  140.9630   79.7530  221.4890 C   0  0  0  0  0  0  0  0  0  0  0  0
  141.3620   81.0890  221.3220 C   0  0  0  0  0  0  0  0  0  0  0  0
  141.8310   81.8280  222.4090 C   0  0  0  0  0  0  0  0  0  0  0  0
  141.9180   81.2390  223.6710 C   0  0  0  0  0  0  0  0  0  0  0  0
  141.5390   79.9070  223.8500 C   0  0  0  0  0  0  0  0  0  0  0  0
  141.0730   79.1480  222.7650 C   0  0  0  0  0  0  0  0  0  0  0  0
  140.6390   77.7190  223.0040 C   0  0  0  0  0  0  0  0  0  0  0  0
  140.2820   74.6080  222.0630 N   0  0  0  0  0  0  0  0  0  0  0  0
  140.7110   71.5720  223.6640 C   0  0  0  0  0  0  0  0  0  0  0  0
  137.5475   67.9583  226.1736 H   0  0  0  0  0  0  0  0  0  0  0  0
  139.9298   68.2383  226.8550 H   0  0  0  0  0  0  0  0  0  0  0  0
  141.3769   69.8999  225.6874 H   0  0  0  0  0  0  0  0  0  0  0  0
  136.6012   69.3438  224.3306 H   0  0  0  0  0  0  0  0  0  0  0  0
  137.0621   70.6913  222.3633 H   0  0  0  0  0  0  0  0  0  0  0  0
  137.4894   72.1711  223.2992 H   0  0  0  0  0  0  0  0  0  0  0  0
  139.2704   70.6748  221.3104 H   0  0  0  0  0  0  0  0  0  0  0  0
  138.5232   72.2980  221.0925 H   0  0  0  0  0  0  0  0  0  0  0  0
  143.8750   74.8382  219.0627 H   0  0  0  0  0  0  0  0  0  0  0  0
  145.3005   75.1399  220.8956 H   0  0  0  0  0  0  0  0  0  0  0  0
  144.7956   73.5842  221.6664 H   0  0  0  0  0  0  0  0  0  0  0  0
  146.5098   73.9029  219.1541 H   0  0  0  0  0  0  0  0  0  0  0  0
  147.0593   73.3730  220.7987 H   0  0  0  0  0  0  0  0  0  0  0  0
  146.3081   71.6776  218.7321 H   0  0  0  0  0  0  0  0  0  0  0  0
  146.3423   71.2695  220.5074 H   0  0  0  0  0  0  0  0  0  0  0  0
  144.2960   70.7390  219.1880 H   0  0  0  0  0  0  0  0  0  0  0  0
  144.1910   72.8510  218.0128 H   0  0  0  0  0  0  0  0  0  0  0  0
  142.6767   72.4037  218.8865 H   0  0  0  0  0  0  0  0  0  0  0  0
  139.5392   77.0916  219.8175 H   0  0  0  0  0  0  0  0  0  0  0  0
  138.7059   78.0658  221.0703 H   0  0  0  0  0  0  0  0  0  0  0  0
  141.3917   78.6327  219.7186 H   0  0  0  0  0  0  0  0  0  0  0  0
  139.8742   79.6190  219.6629 H   0  0  0  0  0  0  0  0  0  0  0  0
  141.3045   81.5561  220.3278 H   0  0  0  0  0  0  0  0  0  0  0  0
  142.1326   82.8768  222.2707 H   0  0  0  0  0  0  0  0  0  0  0  0
  142.2857   81.8249  224.5263 H   0  0  0  0  0  0  0  0  0  0  0  0
  141.6061   79.4494  224.8480 H   0  0  0  0  0  0  0  0  0  0  0  0
  141.4246   77.1951  223.5683 H   0  0  0  0  0  0  0  0  0  0  0  0
  139.6967   77.7314  223.5713 H   0  0  0  0  0  0  0  0  0  0  0  0
  141.6342   71.0660  223.3450 H   0  0  0  0  0  0  0  0  0  0  0  0
  140.9028   72.3644  224.4024 H   0  0  0  0  0  0  0  0  0  0  0  0
  1  2  2  0
  2  3  1  0
  3  4  2  0
  4  5  1  0
  5  6  2  0
  5  7  1  0
  7  8  1  0
  8  9  1  0
  9 10  1  0
 10 11  2  0
 11 12  1  0
 12 13  1  0
 13 14  1  0
 14 15  1  0
 15 16  1  0
 16 17  1  0
 17 18  1  0
 12 19  2  0
 19 20  1  0
 20 21  1  0
 21 22  1  0
 22 23  1  0
 23 24  1  0
 24 25  2  0
 25 26  1  0
 26 27  2  0
 27 28  1  0
 28 29  2  0
 29 30  1  0
 20 31  2  0
  9 32  1  0
  6  1  1  0
 31 10  1  0
 32  4  1  0
 18 13  1  0
 30 21  1  0
 29 24  1  0
  1 33  1  0
  2 34  1  0
  3 35  1  0
  6 36  1  0
  7 37  1  0
  7 38  1  0
  8 39  1  0
  8 40  1  0
 13 41  1  6
 14 42  1  0
 14 43  1  0
 15 44  1  0
 15 45  1  0
 16 46  1  0
 16 47  1  0
 17 48  1  0
 18 49  1  0
 18 50  1  0
 22 51  1  0
 22 52  1  0
 23 53  1  0
 23 54  1  0
 25 55  1  0
 26 56  1  0
 27 57  1  0
 28 58  1  0
 30 59  1  0
 30 60  1  0
 32 61  1  0
 32 62  1  0
M  END
>  <UniqueID>  (16) 
676

>  <SMILES>  (16) 
c1ccc2c(c1)CCN(c1nc([C@H]3CCCNC3)nc(N3CCc4ccccc4C3)n1)C2

>  <Energy>  (16) 
76.68140197216171

>  <Genealogy>  (16) 
c1ccc2c(c1)CCN(c1nc([C@H]3CCCNC3)nc(N3CCc4ccccc4C3)n1)C2 (chirality)
c1ccc2c(c1)CCN(c1nc([C@H]3CCCNC3)nc(N3CCc4ccccc4C3)n1)C2 (3D coordinates assigned)
c1ccc2c(c1)CCN(c1nc([C@H]3CCCNC3)nc(N3CCc4ccccc4C3)n1)C2 (nonaromatic ring conformer: 76.68140197216171 kcal/mol)

>  <smiles>  (16) 
c1ccc2c(c1)CCN(c1nc(C3CCCNC3)nc(N3CCc4ccccc4C3)n1)C2

>  <score_type>  (16) 
oracle

>  <origin>  (16) 
autodockgpu

>  <m_score__min__energy>  (16) 
-8.9299999999999997

>  <m_primary>  (16) 
energy

>  <meeko>  (16) 
{"free_energy": -8.9, "intermolecular_energy": -9.8, "internal_energy": -0.87, "cluster_size": 19, "cluster_id": 1, "rank_in_cluster": 10}

>  <energy>  (16) 
-8.84

>  <cluster_rmsd>  (16) 
1.55

>  <rmsd>  (16) 
271.44

>  <cluster>  (16) 
1

$$$$
ZPZIUNMFLXMAPV-NRFANRHFNA-N
     RDKit          3D

 62 67  0  0  0  0  0  0  0  0999 V2000
  139.2200   69.1110  227.4160 C   0  0  0  0  0  0  0  0  0  0  0  0
  140.4450   69.7340  227.6540 C   0  0  0  0  0  0  0  0  0  0  0  0
  141.0350   70.5210  226.6620 C   0  0  0  0  0  0  0  0  0  0  0  0
  140.4050   70.6860  225.4170 C   0  0  0  0  0  0  0  0  0  0  0  0
  139.1670   70.0510  225.1770 C   0  0  0  0  0  0  0  0  0  0  0  0
  138.5780   69.2740  226.1850 C   0  0  0  0  0  0  0  0  0  0  0  0
  138.4520   70.2510  223.8730 C   0  0  0  0  0  0  0  0  0  0  0  0
  139.4580   70.4470  222.7420 C   0  0  0  0  0  0  0  0  0  0  0  0
  140.3780   71.5470  223.0710 N   0  0  0  0  0  0  0  0  0  0  0  0
  140.7710   72.5010  222.0620 C   0  0  0  0  0  0  0  0  0  0  0  0
  141.4960   72.0970  220.9850 N   0  0  0  0  0  0  0  0  0  0  0  0
  141.8880   72.9920  220.0410 C   0  0  0  0  0  0  0  0  0  0  0  0
  142.6880   72.5350  218.8510 C   0  0  1  0  0  0  0  0  0  0  0  0
  142.0610   73.0810  217.5480 C   0  0  0  0  0  0  0  0  0  0  0  0
  143.0890   73.1060  216.4110 C   0  0  0  0  0  0  0  0  0  0  0  0
  144.3390   73.9330  216.7880 C   0  0  0  0  0  0  0  0  0  0  0  0
  144.4520   74.1690  218.2380 N   0  0  0  0  0  0  0  0  0  0  0  0
  144.1780   72.9360  218.9880 C   0  0  0  0  0  0  0  0  0  0  0  0
  141.5430   74.3000  220.1720 N   0  0  0  0  0  0  0  0  0  0  0  0
  140.8240   74.7200  221.2450 C   0  0  0  0  0  0  0  0  0  0  0  0
  140.4980   76.1160  221.4010 N   0  0  0  0  0  0  0  0  0  0  0  0
  140.1830   76.9650  220.2490 C   0  0  0  0  0  0  0  0  0  0  0  0
  141.2610   78.0390  220.1150 C   0  0  0  0  0  0  0  0  0  0  0  0
  141.5190   78.7290  221.4340 C   0  0  0  0  0  0  0  0  0  0  0  0
  142.1520   79.9820  221.4360 C   0  0  0  0  0  0  0  0  0  0  0  0
  142.4450   80.6240  222.6400 C   0  0  0  0  0  0  0  0  0  0  0  0
  142.1210   80.0180  223.8550 C   0  0  0  0  0  0  0  0  0  0  0  0
  141.5050   78.7650  223.8690 C   0  0  0  0  0  0  0  0  0  0  0  0
  141.2120   78.1030  222.6670 C   0  0  0  0  0  0  0  0  0  0  0  0
  140.5130   76.7620  222.7210 C   0  0  0  0  0  0  0  0  0  0  0  0
  140.4420   73.8140  222.1840 N   0  0  0  0  0  0  0  0  0  0  0  0
  141.0570   71.5720  224.3790 C   0  0  0  0  0  0  0  0  0  0  0  0
  138.7584   68.4904  228.1982 H   0  0  0  0  0  0  0  0  0  0  0  0
  140.9472   69.6055  228.6242 H   0  0  0  0  0  0  0  0  0  0  0  0
  141.9986   71.0145  226.8568 H   0  0  0  0  0  0  0  0  0  0  0  0
  137.6063   68.7905  226.0061 H   0  0  0  0  0  0  0  0  0  0  0  0
  137.8332   69.3671  223.6591 H   0  0  0  0  0  0  0  0  0  0  0  0
  137.8173   71.1464  223.9466 H   0  0  0  0  0  0  0  0  0  0  0  0
  140.0338   69.5202  222.6021 H   0  0  0  0  0  0  0  0  0  0  0  0
  138.9169   70.6937  221.8166 H   0  0  0  0  0  0  0  0  0  0  0  0
  142.6585   71.4363  218.8076 H   0  0  0  0  0  0  0  0  0  0  0  0
  141.2185   72.4365  217.2569 H   0  0  0  0  0  0  0  0  0  0  0  0
  141.7153   74.1093  217.7300 H   0  0  0  0  0  0  0  0  0  0  0  0
  143.3983   72.0743  216.1874 H   0  0  0  0  0  0  0  0  0  0  0  0
  142.6190   73.5756  215.5343 H   0  0  0  0  0  0  0  0  0  0  0  0
  145.2342   73.3908  216.4494 H   0  0  0  0  0  0  0  0  0  0  0  0
  144.2466   74.9141  216.2992 H   0  0  0  0  0  0  0  0  0  0  0  0
  145.4390   74.4570  218.4390 H   0  0  0  0  0  0  0  0  0  0  0  0
  144.8084   72.1253  218.5938 H   0  0  0  0  0  0  0  0  0  0  0  0
  144.4025   73.1097  220.0507 H   0  0  0  0  0  0  0  0  0  0  0  0
  140.1565   76.3527  219.3355 H   0  0  0  0  0  0  0  0  0  0  0  0
  139.2010   77.4392  220.3935 H   0  0  0  0  0  0  0  0  0  0  0  0
  142.1933   77.5690  219.7686 H   0  0  0  0  0  0  0  0  0  0  0  0
  140.9116   78.7919  219.3931 H   0  0  0  0  0  0  0  0  0  0  0  0
  142.4188   80.4609  220.4823 H   0  0  0  0  0  0  0  0  0  0  0  0
  142.9325   81.6100  222.6315 H   0  0  0  0  0  0  0  0  0  0  0  0
  142.3511   80.5279  224.8021 H   0  0  0  0  0  0  0  0  0  0  0  0
  141.2476   78.2936  224.8290 H   0  0  0  0  0  0  0  0  0  0  0  0
  141.0410   76.1107  223.4330 H   0  0  0  0  0  0  0  0  0  0  0  0
  139.4731   76.9243  223.0408 H   0  0  0  0  0  0  0  0  0  0  0  0
  142.0952   71.2367  224.2383 H   0  0  0  0  0  0  0  0  0  0  0  0
  140.9978   72.6046  224.7534 H   0  0  0  0  0  0  0  0  0  0  0  0
  1  2  2  0
  2  3  1  0
  3  4  2  0
  4  5  1  0
  5  6  2  0
  5  7  1  0
  7  8  1  0
  8  9  1  0
  9 10  1  0
 10 11  2  0
 11 12  1  0
 12 13  1  0
 13 14  1  0
 14 15  1  0
 15 16  1  0
 16 17  1  0
 17 18  1  0
 12 19  2  0
 19 20  1  0
 20 21  1  0
 21 22  1  0
 22 23  1  0
 23 24  1  0
 24 25  2  0
 25 26  1  0
 26 27  2  0
 27 28  1  0
 28 29  2  0
 29 30  1  0
 20 31  2  0
  9 32  1  0
  6  1  1  0
 31 10  1  0
 32  4  1  0
 18 13  1  0
 30 21  1  0
 29 24  1  0
  1 33  1  0
  2 34  1  0
  3 35  1  0
  6 36  1  0
  7 37  1  0
  7 38  1  0
  8 39  1  0
  8 40  1  0
 13 41  1  6
 14 42  1  0
 14 43  1  0
 15 44  1  0
 15 45  1  0
 16 46  1  0
 16 47  1  0
 17 48  1  0
 18 49  1  0
 18 50  1  0
 22 51  1  0
 22 52  1  0
 23 53  1  0
 23 54  1  0
 25 55  1  0
 26 56  1  0
 27 57  1  0
 28 58  1  0
 30 59  1  0
 30 60  1  0
 32 61  1  0
 32 62  1  0
M  END
>  <UniqueID>  (17) 
676

>  <SMILES>  (17) 
c1ccc2c(c1)CCN(c1nc([C@H]3CCCNC3)nc(N3CCc4ccccc4C3)n1)C2

>  <Energy>  (17) 
76.68140197216171

>  <Genealogy>  (17) 
c1ccc2c(c1)CCN(c1nc([C@H]3CCCNC3)nc(N3CCc4ccccc4C3)n1)C2 (chirality)
c1ccc2c(c1)CCN(c1nc([C@H]3CCCNC3)nc(N3CCc4ccccc4C3)n1)C2 (3D coordinates assigned)
c1ccc2c(c1)CCN(c1nc([C@H]3CCCNC3)nc(N3CCc4ccccc4C3)n1)C2 (nonaromatic ring conformer: 76.68140197216171 kcal/mol)

>  <smiles>  (17) 
c1ccc2c(c1)CCN(c1nc(C3CCCNC3)nc(N3CCc4ccccc4C3)n1)C2

>  <score_type>  (17) 
oracle

>  <origin>  (17) 
autodockgpu

>  <m_score__min__energy>  (17) 
-8.9299999999999997

>  <m_primary>  (17) 
energy

>  <meeko>  (17) 
{"free_energy": -8.84, "intermolecular_energy": -9.73, "internal_energy": -0.9, "cluster_size": 19, "cluster_id": 1, "rank_in_cluster": 17}

>  <energy>  (17) 
-8.84

>  <cluster_rmsd>  (17) 
1.58

>  <rmsd>  (17) 
271.32

>  <cluster>  (17) 
1

$$$$
ZPZIUNMFLXMAPV-NRFANRHFNA-N
     RDKit          3D

 62 67  0  0  0  0  0  0  0  0999 V2000
  139.3500   69.2290  227.8010 C   0  0  0  0  0  0  0  0  0  0  0  0
  140.5110   69.9690  228.0290 C   0  0  0  0  0  0  0  0  0  0  0  0
  141.0650   70.7370  227.0020 C   0  0  0  0  0  0  0  0  0  0  0  0
  140.4640   70.7650  225.7320 C   0  0  0  0  0  0  0  0  0  0  0  0
  139.2920   70.0120  225.5030 C   0  0  0  0  0  0  0  0  0  0  0  0
  138.7380   69.2550  226.5460 C   0  0  0  0  0  0  0  0  0  0  0  0
  138.6050   70.0640  224.1690 C   0  0  0  0  0  0  0  0  0  0  0  0
  139.6270   70.2700  223.0550 C   0  0  0  0  0  0  0  0  0  0  0  0
  140.4410   71.4640  223.3330 N   0  0  0  0  0  0  0  0  0  0  0  0
  140.7860   72.3790  222.2710 C   0  0  0  0  0  0  0  0  0  0  0  0
  141.5130   71.9490  221.2060 N   0  0  0  0  0  0  0  0  0  0  0  0
  141.8590   72.8100  220.2140 C   0  0  0  0  0  0  0  0  0  0  0  0
  142.6630   72.3230  219.0370 C   0  0  1  0  0  0  0  0  0  0  0  0
  143.3350   73.5170  218.3230 C   0  0  0  0  0  0  0  0  0  0  0  0
  144.5430   73.0560  217.4980 C   0  0  0  0  0  0  0  0  0  0  0  0
  145.5760   72.3040  218.3680 C   0  0  0  0  0  0  0  0  0  0  0  0
  145.0200   71.8560  219.6570 N   0  0  0  0  0  0  0  0  0  0  0  0
  143.6950   71.2500  219.4680 C   0  0  0  0  0  0  0  0  0  0  0  0
  141.4650   74.1080  220.2830 N   0  0  0  0  0  0  0  0  0  0  0  0
  140.7430   74.5550  221.3430 C   0  0  0  0  0  0  0  0  0  0  0  0
  140.3650   75.9440  221.4330 N   0  0  0  0  0  0  0  0  0  0  0  0
  139.9130   76.6940  220.2580 C   0  0  0  0  0  0  0  0  0  0  0  0
  140.9220   77.8000  219.9570 C   0  0  0  0  0  0  0  0  0  0  0  0
  141.2580   78.5930  221.1980 C   0  0  0  0  0  0  0  0  0  0  0  0
  141.8280   79.8680  221.0600 C   0  0  0  0  0  0  0  0  0  0  0  0
  142.1930   80.6060  222.1880 C   0  0  0  0  0  0  0  0  0  0  0  0
  142.0030   80.0750  223.4640 C   0  0  0  0  0  0  0  0  0  0  0  0
  141.4510   78.8010  223.6180 C   0  0  0  0  0  0  0  0  0  0  0  0
  141.0880   78.0430  222.4930 C   0  0  0  0  0  0  0  0  0  0  0  0
  140.4610   76.6820  222.6990 C   0  0  0  0  0  0  0  0  0  0  0  0
  140.4080   73.6840  222.3310 N   0  0  0  0  0  0  0  0  0  0  0  0
  141.0730   71.6330  224.6530 C   0  0  0  0  0  0  0  0  0  0  0  0
  138.9163   68.6243  228.6111 H   0  0  0  0  0  0  0  0  0  0  0  0
  140.9905   69.9475  229.0187 H   0  0  0  0  0  0  0  0  0  0  0  0
  141.9769   71.3232  227.1885 H   0  0  0  0  0  0  0  0  0  0  0  0
  137.8168   68.6789  226.3745 H   0  0  0  0  0  0  0  0  0  0  0  0
  138.0692   69.1184  223.9996 H   0  0  0  0  0  0  0  0  0  0  0  0
  137.8959   70.9049  224.1642 H   0  0  0  0  0  0  0  0  0  0  0  0
  140.2822   69.3885  222.9942 H   0  0  0  0  0  0  0  0  0  0  0  0
  139.0978   70.4081  222.1006 H   0  0  0  0  0  0  0  0  0  0  0  0
  141.9830   71.8388  218.3207 H   0  0  0  0  0  0  0  0  0  0  0  0
  142.6036   73.9939  217.6540 H   0  0  0  0  0  0  0  0  0  0  0  0
  143.6830   74.2299  219.0850 H   0  0  0  0  0  0  0  0  0  0  0  0
  144.1940   72.3852  216.6991 H   0  0  0  0  0  0  0  0  0  0  0  0
  145.0321   73.9475  217.0785 H   0  0  0  0  0  0  0  0  0  0  0  0
  145.9283   71.4226  217.8120 H   0  0  0  0  0  0  0  0  0  0  0  0
  146.3961   73.0037  218.5868 H   0  0  0  0  0  0  0  0  0  0  0  0
  145.6590   71.1200  220.0420 H   0  0  0  0  0  0  0  0  0  0  0  0
  143.7589   70.4759  218.6891 H   0  0  0  0  0  0  0  0  0  0  0  0
  143.3687   70.8050  220.4196 H   0  0  0  0  0  0  0  0  0  0  0  0
  139.8390   76.0170  219.3942 H   0  0  0  0  0  0  0  0  0  0  0  0
  138.9251   77.1354  220.4558 H   0  0  0  0  0  0  0  0  0  0  0  0
  141.8430   77.3463  219.5621 H   0  0  0  0  0  0  0  0  0  0  0  0
  140.4761   78.4838  219.2197 H   0  0  0  0  0  0  0  0  0  0  0  0
  141.9884   80.2889  220.0565 H   0  0  0  0  0  0  0  0  0  0  0  0
  142.6312   81.6081  222.0702 H   0  0  0  0  0  0  0  0  0  0  0  0
  142.2884   80.6605  224.3504 H   0  0  0  0  0  0  0  0  0  0  0  0
  141.2998   78.3891  224.6267 H   0  0  0  0  0  0  0  0  0  0  0  0
  141.0780   76.1058  223.4042 H   0  0  0  0  0  0  0  0  0  0  0  0
  139.4455   76.8232  223.0976 H   0  0  0  0  0  0  0  0  0  0  0  0
  142.1394   71.3789  224.5630 H   0  0  0  0  0  0  0  0  0  0  0  0
  140.9160   72.6793  224.9540 H   0  0  0  0  0  0  0  0  0  0  0  0
  1  2  2  0
  2  3  1  0
  3  4  2  0
  4  5  1  0
  5  6  2  0
  5  7  1  0
  7  8  1  0
  8  9  1  0
  9 10  1  0
 10 11  2  0
 11 12  1  0
 12 13  1  0
 13 14  1  0
 14 15  1  0
 15 16  1  0
 16 17  1  0
 17 18  1  0
 12 19  2  0
 19 20  1  0
 20 21  1  0
 21 22  1  0
 22 23  1  0
 23 24  1  0
 24 25  2  0
 25 26  1  0
 26 27  2  0
 27 28  1  0
 28 29  2  0
 29 30  1  0
 20 31  2  0
  9 32  1  0
  6  1  1  0
 31 10  1  0
 32  4  1  0
 18 13  1  0
 30 21  1  0
 29 24  1  0
  1 33  1  0
  2 34  1  0
  3 35  1  0
  6 36  1  0
  7 37  1  0
  7 38  1  0
  8 39  1  0
  8 40  1  0
 13 41  1  6
 14 42  1  0
 14 43  1  0
 15 44  1  0
 15 45  1  0
 16 46  1  0
 16 47  1  0
 17 48  1  0
 18 49  1  0
 18 50  1  0
 22 51  1  0
 22 52  1  0
 23 53  1  0
 23 54  1  0
 25 55  1  0
 26 56  1  0
 27 57  1  0
 28 58  1  0
 30 59  1  0
 30 60  1  0
 32 61  1  0
 32 62  1  0
M  END
>  <UniqueID>  (18) 
676

>  <SMILES>  (18) 
c1ccc2c(c1)CCN(c1nc([C@H]3CCCNC3)nc(N3CCc4ccccc4C3)n1)C2

>  <Energy>  (18) 
76.68140197216171

>  <Genealogy>  (18) 
c1ccc2c(c1)CCN(c1nc([C@H]3CCCNC3)nc(N3CCc4ccccc4C3)n1)C2 (chirality)
c1ccc2c(c1)CCN(c1nc([C@H]3CCCNC3)nc(N3CCc4ccccc4C3)n1)C2 (3D coordinates assigned)
c1ccc2c(c1)CCN(c1nc([C@H]3CCCNC3)nc(N3CCc4ccccc4C3)n1)C2 (nonaromatic ring conformer: 76.68140197216171 kcal/mol)

>  <smiles>  (18) 
c1ccc2c(c1)CCN(c1nc(C3CCCNC3)nc(N3CCc4ccccc4C3)n1)C2

>  <score_type>  (18) 
oracle

>  <origin>  (18) 
autodockgpu

>  <m_score__min__energy>  (18) 
-8.9299999999999997

>  <m_primary>  (18) 
energy

>  <meeko>  (18) 
{"free_energy": -8.88, "intermolecular_energy": -9.77, "internal_energy": -0.9, "cluster_size": 19, "cluster_id": 1, "rank_in_cluster": 12}

>  <energy>  (18) 
-8.8

>  <cluster_rmsd>  (18) 
1.4

>  <rmsd>  (18) 
271.24

>  <cluster>  (18) 
1

$$$$
ZPZIUNMFLXMAPV-NRFANRHFNA-N
     RDKit          3D

 62 67  0  0  0  0  0  0  0  0999 V2000
  139.2150   69.1950  227.5670 C   0  0  0  0  0  0  0  0  0  0  0  0
  140.4020   69.8770  227.8360 C   0  0  0  0  0  0  0  0  0  0  0  0
  141.0020   70.6560  226.8430 C   0  0  0  0  0  0  0  0  0  0  0  0
  140.4210   70.7530  225.5680 C   0  0  0  0  0  0  0  0  0  0  0  0
  139.2220   70.0590  225.2970 C   0  0  0  0  0  0  0  0  0  0  0  0
  138.6220   69.2900  226.3060 C   0  0  0  0  0  0  0  0  0  0  0  0
  138.5570   70.1860  223.9570 C   0  0  0  0  0  0  0  0  0  0  0  0
  139.6030   70.3870  222.8640 C   0  0  0  0  0  0  0  0  0  0  0  0
  140.4620   71.5350  223.1940 N   0  0  0  0  0  0  0  0  0  0  0  0
  140.8600   72.4710  222.1700 C   0  0  0  0  0  0  0  0  0  0  0  0
  141.6160   72.0560  221.1200 N   0  0  0  0  0  0  0  0  0  0  0  0
  142.0120   72.9350  220.1640 C   0  0  0  0  0  0  0  0  0  0  0  0
  142.8480   72.4640  219.0030 C   0  0  1  0  0  0  0  0  0  0  0  0
  142.3620   73.1290  217.6950 C   0  0  0  0  0  0  0  0  0  0  0  0
  143.4640   73.1140  216.6290 C   0  0  0  0  0  0  0  0  0  0  0  0
  144.7540   73.8030  217.1300 C   0  0  0  0  0  0  0  0  0  0  0  0
  144.7880   73.9570  218.5950 N   0  0  0  0  0  0  0  0  0  0  0  0
  144.3560   72.7190  219.2570 C   0  0  0  0  0  0  0  0  0  0  0  0
  141.6390   74.2380  220.2540 N   0  0  0  0  0  0  0  0  0  0  0  0
  140.8880   74.6710  221.3000 C   0  0  0  0  0  0  0  0  0  0  0  0
  140.5320   76.0630  221.4130 N   0  0  0  0  0  0  0  0  0  0  0  0
  140.2140   76.8740  220.2340 C   0  0  0  0  0  0  0  0  0  0  0  0
  141.2710   77.9660  220.0840 C   0  0  0  0  0  0  0  0  0  0  0  0
  141.4990   78.6970  221.3860 C   0  0  0  0  0  0  0  0  0  0  0  0
  142.1060   79.9620  221.3610 C   0  0  0  0  0  0  0  0  0  0  0  0
  142.3720   80.6430  222.5510 C   0  0  0  0  0  0  0  0  0  0  0  0
  142.0440   80.0630  223.7780 C   0  0  0  0  0  0  0  0  0  0  0  0
  141.4540   78.7980  223.8190 C   0  0  0  0  0  0  0  0  0  0  0  0
  141.1890   78.0980  222.6320 C   0  0  0  0  0  0  0  0  0  0  0  0
  140.5170   76.7450  222.7150 C   0  0  0  0  0  0  0  0  0  0  0  0
  140.5030   73.7800  222.2520 N   0  0  0  0  0  0  0  0  0  0  0  0
  141.0820   71.6320  224.5280 C   0  0  0  0  0  0  0  0  0  0  0  0
  138.7452   68.5812  228.3496 H   0  0  0  0  0  0  0  0  0  0  0  0
  140.8660   69.8015  228.8305 H   0  0  0  0  0  0  0  0  0  0  0  0
  141.9349   71.1964  227.0613 H   0  0  0  0  0  0  0  0  0  0  0  0
  137.6801   68.7595  226.1028 H   0  0  0  0  0  0  0  0  0  0  0  0
  137.9846   69.2703  223.7476 H   0  0  0  0  0  0  0  0  0  0  0  0
  137.8837   71.0557  223.9725 H   0  0  0  0  0  0  0  0  0  0  0  0
  140.2216   69.4812  222.7809 H   0  0  0  0  0  0  0  0  0  0  0  0
  139.0938   70.5802  221.9083 H   0  0  0  0  0  0  0  0  0  0  0  0
  142.7243   71.3761  218.8970 H   0  0  0  0  0  0  0  0  0  0  0  0
  141.4872   72.5803  217.3159 H   0  0  0  0  0  0  0  0  0  0  0  0
  142.0971   74.1746  217.9107 H   0  0  0  0  0  0  0  0  0  0  0  0
  143.6950   72.0702  216.3698 H   0  0  0  0  0  0  0  0  0  0  0  0
  143.0990   73.6668  215.7509 H   0  0  0  0  0  0  0  0  0  0  0  0
  145.6186   73.1976  216.8203 H   0  0  0  0  0  0  0  0  0  0  0  0
  144.7827   74.8110  216.6906 H   0  0  0  0  0  0  0  0  0  0  0  0
  145.7800   74.1420  218.8730 H   0  0  0  0  0  0  0  0  0  0  0  0
  144.9378   71.8742  218.8596 H   0  0  0  0  0  0  0  0  0  0  0  0
  144.5221   72.8185  220.3398 H   0  0  0  0  0  0  0  0  0  0  0  0
  140.2118   76.2368  219.3374 H   0  0  0  0  0  0  0  0  0  0  0  0
  139.2207   77.3312  220.3534 H   0  0  0  0  0  0  0  0  0  0  0  0
  142.2169   77.5063  219.7616 H   0  0  0  0  0  0  0  0  0  0  0  0
  140.9146   78.6917  219.3381 H   0  0  0  0  0  0  0  0  0  0  0  0
  142.3741   80.4203  220.3976 H   0  0  0  0  0  0  0  0  0  0  0  0
  142.8406   81.6378  222.5215 H   0  0  0  0  0  0  0  0  0  0  0  0
  142.2507   80.6033  224.7136 H   0  0  0  0  0  0  0  0  0  0  0  0
  141.1952   78.3471  224.7884 H   0  0  0  0  0  0  0  0  0  0  0  0
  141.0493   76.1246  223.4511 H   0  0  0  0  0  0  0  0  0  0  0  0
  139.4701   76.8942  223.0179 H   0  0  0  0  0  0  0  0  0  0  0  0
  142.1381   71.3364  224.4431 H   0  0  0  0  0  0  0  0  0  0  0  0
  140.9650   72.6730  224.8635 H   0  0  0  0  0  0  0  0  0  0  0  0
  1  2  2  0
  2  3  1  0
  3  4  2  0
  4  5  1  0
  5  6  2  0
  5  7  1  0
  7  8  1  0
  8  9  1  0
  9 10  1  0
 10 11  2  0
 11 12  1  0
 12 13  1  0
 13 14  1  0
 14 15  1  0
 15 16  1  0
 16 17  1  0
 17 18  1  0
 12 19  2  0
 19 20  1  0
 20 21  1  0
 21 22  1  0
 22 23  1  0
 23 24  1  0
 24 25  2  0
 25 26  1  0
 26 27  2  0
 27 28  1  0
 28 29  2  0
 29 30  1  0
 20 31  2  0
  9 32  1  0
  6  1  1  0
 31 10  1  0
 32  4  1  0
 18 13  1  0
 30 21  1  0
 29 24  1  0
  1 33  1  0
  2 34  1  0
  3 35  1  0
  6 36  1  0
  7 37  1  0
  7 38  1  0
  8 39  1  0
  8 40  1  0
 13 41  1  6
 14 42  1  0
 14 43  1  0
 15 44  1  0
 15 45  1  0
 16 46  1  0
 16 47  1  0
 17 48  1  0
 18 49  1  0
 18 50  1  0
 22 51  1  0
 22 52  1  0
 23 53  1  0
 23 54  1  0
 25 55  1  0
 26 56  1  0
 27 57  1  0
 28 58  1  0
 30 59  1  0
 30 60  1  0
 32 61  1  0
 32 62  1  0
M  END
>  <UniqueID>  (19) 
676

>  <SMILES>  (19) 
c1ccc2c(c1)CCN(c1nc([C@H]3CCCNC3)nc(N3CCc4ccccc4C3)n1)C2

>  <Energy>  (19) 
76.68140197216171

>  <Genealogy>  (19) 
c1ccc2c(c1)CCN(c1nc([C@H]3CCCNC3)nc(N3CCc4ccccc4C3)n1)C2 (chirality)
c1ccc2c(c1)CCN(c1nc([C@H]3CCCNC3)nc(N3CCc4ccccc4C3)n1)C2 (3D coordinates assigned)
c1ccc2c(c1)CCN(c1nc([C@H]3CCCNC3)nc(N3CCc4ccccc4C3)n1)C2 (nonaromatic ring conformer: 76.68140197216171 kcal/mol)

>  <smiles>  (19) 
c1ccc2c(c1)CCN(c1nc(C3CCCNC3)nc(N3CCc4ccccc4C3)n1)C2

>  <score_type>  (19) 
oracle

>  <origin>  (19) 
autodockgpu

>  <m_score__min__energy>  (19) 
-8.9299999999999997

>  <m_primary>  (19) 
energy

>  <meeko>  (19) 
{"free_energy": -8.84, "intermolecular_energy": -9.74, "internal_energy": -0.9, "cluster_size": 19, "cluster_id": 1, "rank_in_cluster": 16}

>  <energy>  (19) 
-8.76

>  <cluster_rmsd>  (19) 
1.41

>  <rmsd>  (19) 
271.54

>  <cluster>  (19) 
1

$$$$
ZPZIUNMFLXMAPV-NRFANRHFNA-N
     RDKit          3D

 62 67  0  0  0  0  0  0  0  0999 V2000
  139.3080   69.4230  227.9010 C   0  0  0  0  0  0  0  0  0  0  0  0
  140.3180   70.3430  228.1810 C   0  0  0  0  0  0  0  0  0  0  0  0
  140.8590   71.1220  227.1560 C   0  0  0  0  0  0  0  0  0  0  0  0
  140.3980   70.9800  225.8360 C   0  0  0  0  0  0  0  0  0  0  0  0
  139.3790   70.0440  225.5550 C   0  0  0  0  0  0  0  0  0  0  0  0
  138.8340   69.2770  226.5950 C   0  0  0  0  0  0  0  0  0  0  0  0
  138.8370   69.9090  224.1610 C   0  0  0  0  0  0  0  0  0  0  0  0
  139.9300   70.1990  223.1370 C   0  0  0  0  0  0  0  0  0  0  0  0
  140.5270   71.5180  223.3990 N   0  0  0  0  0  0  0  0  0  0  0  0
  140.8450   72.4080  222.3080 C   0  0  0  0  0  0  0  0  0  0  0  0
  141.5520   71.9550  221.2390 N   0  0  0  0  0  0  0  0  0  0  0  0
  141.8730   72.7920  220.2190 C   0  0  0  0  0  0  0  0  0  0  0  0
  142.6540   72.2800  219.0380 C   0  0  1  0  0  0  0  0  0  0  0  0
  143.2670   73.4620  218.2520 C   0  0  0  0  0  0  0  0  0  0  0  0
  144.4610   73.0020  217.4090 C   0  0  0  0  0  0  0  0  0  0  0  0
  145.5440   72.3190  218.2760 C   0  0  0  0  0  0  0  0  0  0  0  0
  145.0430   71.9090  219.5990 N   0  0  0  0  0  0  0  0  0  0  0  0
  143.7330   71.2570  219.4790 C   0  0  0  0  0  0  0  0  0  0  0  0
  141.4750   74.0900  220.2640 N   0  0  0  0  0  0  0  0  0  0  0  0
  140.7730   74.5600  221.3280 C   0  0  0  0  0  0  0  0  0  0  0  0
  140.3900   75.9490  221.3910 N   0  0  0  0  0  0  0  0  0  0  0  0
  140.0040   76.6950  220.1900 C   0  0  0  0  0  0  0  0  0  0  0  0
  141.0290   77.8000  219.9420 C   0  0  0  0  0  0  0  0  0  0  0  0
  141.2950   78.5970  221.1970 C   0  0  0  0  0  0  0  0  0  0  0  0
  141.8710   79.8730  221.0860 C   0  0  0  0  0  0  0  0  0  0  0  0
  142.1720   80.6150  222.2300 C   0  0  0  0  0  0  0  0  0  0  0  0
  141.9100   80.0880  223.4960 C   0  0  0  0  0  0  0  0  0  0  0  0
  141.3510   78.8150  223.6230 C   0  0  0  0  0  0  0  0  0  0  0  0
  141.0520   78.0530  222.4830 C   0  0  0  0  0  0  0  0  0  0  0  0
  140.4150   76.6920  222.6580 C   0  0  0  0  0  0  0  0  0  0  0  0
  140.4620   73.7120  222.3440 N   0  0  0  0  0  0  0  0  0  0  0  0
  140.9850   71.8630  224.7570 C   0  0  0  0  0  0  0  0  0  0  0  0
  138.8836   68.8108  228.7104 H   0  0  0  0  0  0  0  0  0  0  0  0
  140.6889   70.4552  229.2105 H   0  0  0  0  0  0  0  0  0  0  0  0
  141.6507   71.8511  227.3832 H   0  0  0  0  0  0  0  0  0  0  0  0
  138.0299   68.5574  226.3815 H   0  0  0  0  0  0  0  0  0  0  0  0
  138.4649   68.8843  224.0141 H   0  0  0  0  0  0  0  0  0  0  0  0
  138.0183   70.6308  224.0242 H   0  0  0  0  0  0  0  0  0  0  0  0
  140.7093   69.4259  223.2070 H   0  0  0  0  0  0  0  0  0  0  0  0
  139.4906   70.1951  222.1286 H   0  0  0  0  0  0  0  0  0  0  0  0
  141.9661   71.7463  218.3657 H   0  0  0  0  0  0  0  0  0  0  0  0
  142.5007   73.8879  217.5877 H   0  0  0  0  0  0  0  0  0  0  0  0
  143.6168   74.2169  218.9716 H   0  0  0  0  0  0  0  0  0  0  0  0
  144.1080   72.2872  216.6511 H   0  0  0  0  0  0  0  0  0  0  0  0
  144.9089   73.8886  216.9364 H   0  0  0  0  0  0  0  0  0  0  0  0
  145.9069   71.4262  217.7457 H   0  0  0  0  0  0  0  0  0  0  0  0
  146.3476   73.0522  218.4394 H   0  0  0  0  0  0  0  0  0  0  0  0
  145.7170   71.2110  219.9930 H   0  0  0  0  0  0  0  0  0  0  0  0
  143.7963   70.4529  218.7311 H   0  0  0  0  0  0  0  0  0  0  0  0
  143.4510   70.8434  220.4585 H   0  0  0  0  0  0  0  0  0  0  0  0
  139.9779   76.0151  219.3257 H   0  0  0  0  0  0  0  0  0  0  0  0
  139.0067   77.1371  220.3309 H   0  0  0  0  0  0  0  0  0  0  0  0
  141.9705   77.3448  219.6009 H   0  0  0  0  0  0  0  0  0  0  0  0
  140.6256   78.4813  219.1784 H   0  0  0  0  0  0  0  0  0  0  0  0
  142.0865   80.2906  220.0914 H   0  0  0  0  0  0  0  0  0  0  0  0
  142.6164   81.6166  222.1335 H   0  0  0  0  0  0  0  0  0  0  0  0
  142.1444   80.6768  224.3951 H   0  0  0  0  0  0  0  0  0  0  0  0
  141.1436   78.4066  224.6231 H   0  0  0  0  0  0  0  0  0  0  0  0
  140.9919   76.1186  223.3986 H   0  0  0  0  0  0  0  0  0  0  0  0
  139.3787   76.8342  222.9983 H   0  0  0  0  0  0  0  0  0  0  0  0
  142.0806   71.7696  224.7889 H   0  0  0  0  0  0  0  0  0  0  0  0
  140.6469   72.8898  224.9607 H   0  0  0  0  0  0  0  0  0  0  0  0
  1  2  2  0
  2  3  1  0
  3  4  2  0
  4  5  1  0
  5  6  2  0
  5  7  1  0
  7  8  1  0
  8  9  1  0
  9 10  1  0
 10 11  2  0
 11 12  1  0
 12 13  1  0
 13 14  1  0
 14 15  1  0
 15 16  1  0
 16 17  1  0
 17 18  1  0
 12 19  2  0
 19 20  1  0
 20 21  1  0
 21 22  1  0
 22 23  1  0
 23 24  1  0
 24 25  2  0
 25 26  1  0
 26 27  2  0
 27 28  1  0
 28 29  2  0
 29 30  1  0
 20 31  2  0
  9 32  1  0
  6  1  1  0
 31 10  1  0
 32  4  1  0
 18 13  1  0
 30 21  1  0
 29 24  1  0
  1 33  1  0
  2 34  1  0
  3 35  1  0
  6 36  1  0
  7 37  1  0
  7 38  1  0
  8 39  1  0
  8 40  1  0
 13 41  1  6
 14 42  1  0
 14 43  1  0
 15 44  1  0
 15 45  1  0
 16 46  1  0
 16 47  1  0
 17 48  1  0
 18 49  1  0
 18 50  1  0
 22 51  1  0
 22 52  1  0
 23 53  1  0
 23 54  1  0
 25 55  1  0
 26 56  1  0
 27 57  1  0
 28 58  1  0
 30 59  1  0
 30 60  1  0
 32 61  1  0
 32 62  1  0
M  END
>  <UniqueID>  (20) 
676

>  <SMILES>  (20) 
c1ccc2c(c1)CCN(c1nc([C@H]3CCCNC3)nc(N3CCc4ccccc4C3)n1)C2

>  <Energy>  (20) 
76.68140197216171

>  <Genealogy>  (20) 
c1ccc2c(c1)CCN(c1nc([C@H]3CCCNC3)nc(N3CCc4ccccc4C3)n1)C2 (chirality)
c1ccc2c(c1)CCN(c1nc([C@H]3CCCNC3)nc(N3CCc4ccccc4C3)n1)C2 (3D coordinates assigned)
c1ccc2c(c1)CCN(c1nc([C@H]3CCCNC3)nc(N3CCc4ccccc4C3)n1)C2 (nonaromatic ring conformer: 76.68140197216171 kcal/mol)

>  <smiles>  (20) 
c1ccc2c(c1)CCN(c1nc(C3CCCNC3)nc(N3CCc4ccccc4C3)n1)C2

>  <score_type>  (20) 
oracle

>  <origin>  (20) 
autodockgpu

>  <m_score__min__energy>  (20) 
-8.9299999999999997

>  <m_primary>  (20) 
energy

>  <meeko>  (20) 
{"free_energy": -8.76, "intermolecular_energy": -9.66, "internal_energy": -0.9, "cluster_size": 19, "cluster_id": 1, "rank_in_cluster": 19}

>  <energy>  (20) 
-8.56

>  <cluster_rmsd>  (20) 
0.0

>  <rmsd>  (20) 
270.71

>  <cluster>  (20) 
2

$$$$
ZPZIUNMFLXMAPV-OAQYLSRUNA-N
     RDKit          3D

 62 67  0  0  0  0  0  0  0  0999 V2000
  139.1920   68.0430  226.5330 C   0  0  0  0  0  0  0  0  0  0  0  0
  140.0580   68.9410  227.1570 C   0  0  0  0  0  0  0  0  0  0  0  0
  140.6490   69.9720  226.4220 C   0  0  0  0  0  0  0  0  0  0  0  0
  140.3640   70.1220  225.0550 C   0  0  0  0  0  0  0  0  0  0  0  0
  139.4850   69.2190  224.4280 C   0  0  0  0  0  0  0  0  0  0  0  0
  138.9090   68.1750  225.1700 C   0  0  0  0  0  0  0  0  0  0  0  0
  139.2110   69.3460  222.9600 C   0  0  0  0  0  0  0  0  0  0  0  0
  139.1750   70.8180  222.5600 C   0  0  0  0  0  0  0  0  0  0  0  0
  140.4110   71.5040  222.9720 N   0  0  0  0  0  0  0  0  0  0  0  0
  140.9240   72.5970  222.1810 C   0  0  0  0  0  0  0  0  0  0  0  0
  141.9030   72.3780  221.2660 N   0  0  0  0  0  0  0  0  0  0  0  0
  142.3980   73.4040  220.5260 C   0  0  0  0  0  0  0  0  0  0  0  0
  143.4650   73.1540  219.4940 C   0  0  2  0  0  0  0  0  0  0  0  0
  143.2530   71.7890  218.8040 C   0  0  0  0  0  0  0  0  0  0  0  0
  144.5600   71.2060  218.2370 C   0  0  0  0  0  0  0  0  0  0  0  0
  145.5680   72.3140  217.9090 C   0  0  0  0  0  0  0  0  0  0  0  0
  145.9460   73.0930  219.1040 N   0  0  0  0  0  0  0  0  0  0  0  0
  144.8750   73.2390  220.1130 C   0  0  0  0  0  0  0  0  0  0  0  0
  141.8950   74.6540  220.6920 N   0  0  0  0  0  0  0  0  0  0  0  0
  140.9150   74.8890  221.6030 C   0  0  0  0  0  0  0  0  0  0  0  0
  140.3880   76.2190  221.7890 N   0  0  0  0  0  0  0  0  0  0  0  0
  139.2810   76.6950  220.9430 C   0  0  0  0  0  0  0  0  0  0  0  0
  138.3920   77.6690  221.7110 C   0  0  0  0  0  0  0  0  0  0  0  0
  139.2180   78.7880  222.2690 C   0  0  0  0  0  0  0  0  0  0  0  0
  138.6900   80.0860  222.3610 C   0  0  0  0  0  0  0  0  0  0  0  0
  139.4550   81.1180  222.9080 C   0  0  0  0  0  0  0  0  0  0  0  0
  140.7440   80.8610  223.3790 C   0  0  0  0  0  0  0  0  0  0  0  0
  141.2710   79.5690  223.3060 C   0  0  0  0  0  0  0  0  0  0  0  0
  140.5170   78.5260  222.7450 C   0  0  0  0  0  0  0  0  0  0  0  0
  141.0890   77.1270  222.7170 C   0  0  0  0  0  0  0  0  0  0  0  0
  140.4370   73.8550  222.3450 N   0  0  0  0  0  0  0  0  0  0  0  0
  141.0550   71.2100  224.2670 C   0  0  0  0  0  0  0  0  0  0  0  0
  138.7313   67.2303  227.1137 H   0  0  0  0  0  0  0  0  0  0  0  0
  140.2762   68.8373  228.2301 H   0  0  0  0  0  0  0  0  0  0  0  0
  141.3409   70.6696  226.9165 H   0  0  0  0  0  0  0  0  0  0  0  0
  138.2337   67.4596  224.6779 H   0  0  0  0  0  0  0  0  0  0  0  0
  140.0050   68.8348  222.3959 H   0  0  0  0  0  0  0  0  0  0  0  0
  138.2372   68.8870  222.7340 H   0  0  0  0  0  0  0  0  0  0  0  0
  139.0688   70.8920  221.4676 H   0  0  0  0  0  0  0  0  0  0  0  0
  138.3221   71.2982  223.0619 H   0  0  0  0  0  0  0  0  0  0  0  0
  143.3839   73.9431  218.7320 H   0  0  0  0  0  0  0  0  0  0  0  0
  142.8412   71.0821  219.5394 H   0  0  0  0  0  0  0  0  0  0  0  0
  142.5629   71.9439  217.9615 H   0  0  0  0  0  0  0  0  0  0  0  0
  145.0025   70.5279  218.9815 H   0  0  0  0  0  0  0  0  0  0  0  0
  144.3248   70.6646  217.3088 H   0  0  0  0  0  0  0  0  0  0  0  0
  146.4730   71.8555  217.4837 H   0  0  0  0  0  0  0  0  0  0  0  0
  145.0942   73.0014  217.1928 H   0  0  0  0  0  0  0  0  0  0  0  0
  146.2410   74.0460  218.7880 H   0  0  0  0  0  0  0  0  0  0  0  0
  144.9816   72.4378  220.8591 H   0  0  0  0  0  0  0  0  0  0  0  0
  144.9799   74.2339  220.5703 H   0  0  0  0  0  0  0  0  0  0  0  0
  139.6950   77.2040  220.0601 H   0  0  0  0  0  0  0  0  0  0  0  0
  138.6742   75.8301  220.6369 H   0  0  0  0  0  0  0  0  0  0  0  0
  137.6319   78.0815  221.0313 H   0  0  0  0  0  0  0  0  0  0  0  0
  137.9027   77.1346  222.5387 H   0  0  0  0  0  0  0  0  0  0  0  0
  137.6708   80.2903  222.0011 H   0  0  0  0  0  0  0  0  0  0  0  0
  139.0414   82.1355  222.9680 H   0  0  0  0  0  0  0  0  0  0  0  0
  141.3451   81.6763  223.8079 H   0  0  0  0  0  0  0  0  0  0  0  0
  142.2820   79.3680  223.6901 H   0  0  0  0  0  0  0  0  0  0  0  0
  142.1440   77.1890  222.4118 H   0  0  0  0  0  0  0  0  0  0  0  0
  140.9688   76.7098  223.7277 H   0  0  0  0  0  0  0  0  0  0  0  0
  142.0917   70.8956  224.0760 H   0  0  0  0  0  0  0  0  0  0  0  0
  140.9996   72.1285  224.8698 H   0  0  0  0  0  0  0  0  0  0  0  0
  1  2  2  0
  2  3  1  0
  3  4  2  0
  4  5  1  0
  5  6  2  0
  5  7  1  0
  7  8  1  0
  8  9  1  0
  9 10  1  0
 10 11  2  0
 11 12  1  0
 12 13  1  0
 13 14  1  0
 14 15  1  0
 15 16  1  0
 16 17  1  0
 17 18  1  0
 12 19  2  0
 19 20  1  0
 20 21  1  0
 21 22  1  0
 22 23  1  0
 23 24  1  0
 24 25  2  0
 25 26  1  0
 26 27  2  0
 27 28  1  0
 28 29  2  0
 29 30  1  0
 20 31  2  0
  9 32  1  0
  6  1  1  0
 31 10  1  0
 32  4  1  0
 18 13  1  0
 30 21  1  0
 29 24  1  0
  1 33  1  0
  2 34  1  0
  3 35  1  0
  6 36  1  0
  7 37  1  0
  7 38  1  0
  8 39  1  0
  8 40  1  0
 13 41  1  6
 14 42  1  0
 14 43  1  0
 15 44  1  0
 15 45  1  0
 16 46  1  0
 16 47  1  0
 17 48  1  0
 18 49  1  0
 18 50  1  0
 22 51  1  0
 22 52  1  0
 23 53  1  0
 23 54  1  0
 25 55  1  0
 26 56  1  0
 27 57  1  0
 28 58  1  0
 30 59  1  0
 30 60  1  0
 32 61  1  0
 32 62  1  0
M  END
>  <UniqueID>  (21) 
677

>  <SMILES>  (21) 
c1ccc2c(c1)CCN(c1nc([C@@H]3CCCNC3)nc(N3CCc4ccccc4C3)n1)C2

>  <Energy>  (21) 
76.83119391236505

>  <Genealogy>  (21) 
c1ccc2c(c1)CCN(c1nc([C@@H]3CCCNC3)nc(N3CCc4ccccc4C3)n1)C2 (chirality)
c1ccc2c(c1)CCN(c1nc([C@@H]3CCCNC3)nc(N3CCc4ccccc4C3)n1)C2 (3D coordinates assigned)
c1ccc2c(c1)CCN(c1nc([C@@H]3CCCNC3)nc(N3CCc4ccccc4C3)n1)C2 (nonaromatic ring conformer: 76.83119391236505 kcal/mol)

>  <smiles>  (21) 
c1ccc2c(c1)CCN(c1nc(C3CCCNC3)nc(N3CCc4ccccc4C3)n1)C2

>  <score_type>  (21) 
oracle

>  <origin>  (21) 
autodockgpu

>  <m_score__min__energy>  (21) 
-9.6400000000000006

>  <m_primary>  (21) 
energy

>  <meeko>  (21) 
{"free_energy": -9.63, "intermolecular_energy": -10.52, "internal_energy": -0.78, "cluster_size": 20, "cluster_id": 1, "rank_in_cluster": 4}

>  <energy>  (21) 
-9.64

>  <cluster_rmsd>  (21) 
0.0

>  <rmsd>  (21) 
272.06

>  <cluster>  (21) 
1

$$$$
ZPZIUNMFLXMAPV-OAQYLSRUNA-N
     RDKit          3D

 62 67  0  0  0  0  0  0  0  0999 V2000
  139.5630   81.1180  222.8390 C   0  0  0  0  0  0  0  0  0  0  0  0
  140.7850   80.8070  223.4380 C   0  0  0  0  0  0  0  0  0  0  0  0
  141.2770   79.5010  223.3900 C   0  0  0  0  0  0  0  0  0  0  0  0
  140.5570   78.4950  222.7250 C   0  0  0  0  0  0  0  0  0  0  0  0
  139.3280   78.8120  222.1150 C   0  0  0  0  0  0  0  0  0  0  0  0
  138.8320   80.1240  222.1840 C   0  0  0  0  0  0  0  0  0  0  0  0
  138.5320   77.7350  221.4430 C   0  0  0  0  0  0  0  0  0  0  0  0
  139.4680   76.7430  220.7580 C   0  0  0  0  0  0  0  0  0  0  0  0
  140.4580   76.2120  221.7100 N   0  0  0  0  0  0  0  0  0  0  0  0
  140.9540   74.8670  221.5540 C   0  0  0  0  0  0  0  0  0  0  0  0
  141.8980   74.5900  220.6170 N   0  0  0  0  0  0  0  0  0  0  0  0
  142.3620   73.3240  220.4580 C   0  0  0  0  0  0  0  0  0  0  0  0
  143.4270   73.0240  219.4360 C   0  0  2  0  0  0  0  0  0  0  0  0
  143.3210   71.5640  218.9460 C   0  0  0  0  0  0  0  0  0  0  0  0
  144.6630   71.0200  218.4220 C   0  0  0  0  0  0  0  0  0  0  0  0
  145.5630   72.1530  217.9150 C   0  0  0  0  0  0  0  0  0  0  0  0
  145.8950   73.1190  218.9800 N   0  0  0  0  0  0  0  0  0  0  0  0
  144.8360   73.3130  219.9930 C   0  0  0  0  0  0  0  0  0  0  0  0
  141.8900   72.3310  221.2550 N   0  0  0  0  0  0  0  0  0  0  0  0
  140.9460   72.5910  222.1970 C   0  0  0  0  0  0  0  0  0  0  0  0
  140.4350   71.5350  223.0360 N   0  0  0  0  0  0  0  0  0  0  0  0
  139.1990   70.8300  222.6560 C   0  0  0  0  0  0  0  0  0  0  0  0
  139.2380   69.3780  223.1240 C   0  0  0  0  0  0  0  0  0  0  0  0
  139.5100   69.3210  224.5970 C   0  0  0  0  0  0  0  0  0  0  0  0
  138.9280   68.3180  225.3900 C   0  0  0  0  0  0  0  0  0  0  0  0
  139.2080   68.2520  226.7570 C   0  0  0  0  0  0  0  0  0  0  0  0
  140.0790   69.1760  227.3380 C   0  0  0  0  0  0  0  0  0  0  0  0
  140.6740   70.1670  226.5540 C   0  0  0  0  0  0  0  0  0  0  0  0
  140.3900   70.2520  225.1810 C   0  0  0  0  0  0  0  0  0  0  0  0
  141.0790   71.3030  224.3430 C   0  0  0  0  0  0  0  0  0  0  0  0
  140.4820   73.8620  222.3380 N   0  0  0  0  0  0  0  0  0  0  0  0
  141.0810   77.0780  222.7300 C   0  0  0  0  0  0  0  0  0  0  0  0
  139.1754   82.1465  222.8828 H   0  0  0  0  0  0  0  0  0  0  0  0
  141.3615   81.5923  223.9488 H   0  0  0  0  0  0  0  0  0  0  0  0
  142.2338   79.2588  223.8757 H   0  0  0  0  0  0  0  0  0  0  0  0
  137.8650   80.3697  221.7209 H   0  0  0  0  0  0  0  0  0  0  0  0
  137.9278   77.2060  222.1947 H   0  0  0  0  0  0  0  0  0  0  0  0
  137.8742   78.1905  220.6881 H   0  0  0  0  0  0  0  0  0  0  0  0
  138.8754   75.9098  220.3523 H   0  0  0  0  0  0  0  0  0  0  0  0
  140.0018   77.2639  219.9495 H   0  0  0  0  0  0  0  0  0  0  0  0
  143.2630   73.6900  218.5760 H   0  0  0  0  0  0  0  0  0  0  0  0
  142.9877   70.9339  219.7837 H   0  0  0  0  0  0  0  0  0  0  0  0
  142.6028   71.5418  218.1131 H   0  0  0  0  0  0  0  0  0  0  0  0
  145.1780   70.4907  219.2372 H   0  0  0  0  0  0  0  0  0  0  0  0
  144.4578   70.3378  217.5838 H   0  0  0  0  0  0  0  0  0  0  0  0
  146.4961   71.7180  217.5276 H   0  0  0  0  0  0  0  0  0  0  0  0
  145.0162   72.6925  217.1276 H   0  0  0  0  0  0  0  0  0  0  0  0
  146.0990   74.0400  218.5280 H   0  0  0  0  0  0  0  0  0  0  0  0
  145.0274   72.6351  220.8379 H   0  0  0  0  0  0  0  0  0  0  0  0
  144.8621   74.3670  220.3067 H   0  0  0  0  0  0  0  0  0  0  0  0
  138.3386   71.3352  223.1191 H   0  0  0  0  0  0  0  0  0  0  0  0
  139.1071   70.8450  221.5600 H   0  0  0  0  0  0  0  0  0  0  0  0
  138.2691   68.9014  222.9138 H   0  0  0  0  0  0  0  0  0  0  0  0
  140.0389   68.8474  222.5882 H   0  0  0  0  0  0  0  0  0  0  0  0
  138.2497   67.5824  224.9331 H   0  0  0  0  0  0  0  0  0  0  0  0
  138.7419   67.4715  227.3763 H   0  0  0  0  0  0  0  0  0  0  0  0
  140.2969   69.1233  228.4149 H   0  0  0  0  0  0  0  0  0  0  0  0
  141.3688   70.8849  227.0143 H   0  0  0  0  0  0  0  0  0  0  0  0
  141.0783   72.2495  224.9035 H   0  0  0  0  0  0  0  0  0  0  0  0
  142.0960   70.9365  224.1399 H   0  0  0  0  0  0  0  0  0  0  0  0
  140.8898   76.6404  223.7209 H   0  0  0  0  0  0  0  0  0  0  0  0
  142.1543   77.1311  222.4949 H   0  0  0  0  0  0  0  0  0  0  0  0
  1  2  2  0
  2  3  1  0
  3  4  2  0
  4  5  1  0
  5  6  2  0
  5  7  1  0
  7  8  1  0
  8  9  1  0
  9 10  1  0
 10 11  2  0
 11 12  1  0
 12 13  1  0
 13 14  1  0
 14 15  1  0
 15 16  1  0
 16 17  1  0
 17 18  1  0
 12 19  2  0
 19 20  1  0
 20 21  1  0
 21 22  1  0
 22 23  1  0
 23 24  1  0
 24 25  2  0
 25 26  1  0
 26 27  2  0
 27 28  1  0
 28 29  2  0
 29 30  1  0
 20 31  2  0
  9 32  1  0
  6  1  1  0
 31 10  1  0
 32  4  1  0
 18 13  1  0
 30 21  1  0
 29 24  1  0
  1 33  1  0
  2 34  1  0
  3 35  1  0
  6 36  1  0
  7 37  1  0
  7 38  1  0
  8 39  1  0
  8 40  1  0
 13 41  1  6
 14 42  1  0
 14 43  1  0
 15 44  1  0
 15 45  1  0
 16 46  1  0
 16 47  1  0
 17 48  1  0
 18 49  1  0
 18 50  1  0
 22 51  1  0
 22 52  1  0
 23 53  1  0
 23 54  1  0
 25 55  1  0
 26 56  1  0
 27 57  1  0
 28 58  1  0
 30 59  1  0
 30 60  1  0
 32 61  1  0
 32 62  1  0
M  END
>  <UniqueID>  (22) 
677

>  <SMILES>  (22) 
c1ccc2c(c1)CCN(c1nc([C@@H]3CCCNC3)nc(N3CCc4ccccc4C3)n1)C2

>  <Energy>  (22) 
76.83119391236505

>  <Genealogy>  (22) 
c1ccc2c(c1)CCN(c1nc([C@@H]3CCCNC3)nc(N3CCc4ccccc4C3)n1)C2 (chirality)
c1ccc2c(c1)CCN(c1nc([C@@H]3CCCNC3)nc(N3CCc4ccccc4C3)n1)C2 (3D coordinates assigned)
c1ccc2c(c1)CCN(c1nc([C@@H]3CCCNC3)nc(N3CCc4ccccc4C3)n1)C2 (nonaromatic ring conformer: 76.83119391236505 kcal/mol)

>  <smiles>  (22) 
c1ccc2c(c1)CCN(c1nc(C3CCCNC3)nc(N3CCc4ccccc4C3)n1)C2

>  <score_type>  (22) 
oracle

>  <origin>  (22) 
autodockgpu

>  <m_score__min__energy>  (22) 
-9.6400000000000006

>  <m_primary>  (22) 
energy

>  <meeko>  (22) 
{"free_energy": -9.56, "intermolecular_energy": -10.46, "internal_energy": -0.78, "cluster_size": 20, "cluster_id": 1, "rank_in_cluster": 20}

>  <energy>  (22) 
-9.63

>  <cluster_rmsd>  (22) 
0.03

>  <rmsd>  (22) 
272.06

>  <cluster>  (22) 
1

$$$$
ZPZIUNMFLXMAPV-OAQYLSRUNA-N
     RDKit          3D

 62 67  0  0  0  0  0  0  0  0999 V2000
  139.2010   68.0460  226.5290 C   0  0  0  0  0  0  0  0  0  0  0  0
  140.0670   68.9470  227.1510 C   0  0  0  0  0  0  0  0  0  0  0  0
  140.6520   69.9800  226.4150 C   0  0  0  0  0  0  0  0  0  0  0  0
  140.3620   70.1310  225.0500 C   0  0  0  0  0  0  0  0  0  0  0  0
  139.4840   69.2260  224.4250 C   0  0  0  0  0  0  0  0  0  0  0  0
  138.9130   68.1790  225.1680 C   0  0  0  0  0  0  0  0  0  0  0  0
  139.2050   69.3530  222.9580 C   0  0  0  0  0  0  0  0  0  0  0  0
  139.1630   70.8250  222.5590 C   0  0  0  0  0  0  0  0  0  0  0  0
  140.3980   71.5150  222.9680 N   0  0  0  0  0  0  0  0  0  0  0  0
  140.9050   72.6100  222.1760 C   0  0  0  0  0  0  0  0  0  0  0  0
  141.8840   72.3950  221.2590 N   0  0  0  0  0  0  0  0  0  0  0  0
  142.3730   73.4230  220.5180 C   0  0  0  0  0  0  0  0  0  0  0  0
  143.4390   73.1780  219.4840 C   0  0  2  0  0  0  0  0  0  0  0  0
  143.2330   71.8100  218.7970 C   0  0  0  0  0  0  0  0  0  0  0  0
  144.5430   71.2340  218.2280 C   0  0  0  0  0  0  0  0  0  0  0  0
  145.5430   72.3470  217.8960 C   0  0  0  0  0  0  0  0  0  0  0  0
  145.9200   73.1300  219.0900 N   0  0  0  0  0  0  0  0  0  0  0  0
  144.8500   73.2720  220.1000 C   0  0  0  0  0  0  0  0  0  0  0  0
  141.8650   74.6710  220.6850 N   0  0  0  0  0  0  0  0  0  0  0  0
  140.8850   74.9020  221.5980 C   0  0  0  0  0  0  0  0  0  0  0  0
  140.3540   76.2300  221.7860 N   0  0  0  0  0  0  0  0  0  0  0  0
  139.2410   76.7000  220.9430 C   0  0  0  0  0  0  0  0  0  0  0  0
  138.3510   77.6700  221.7140 C   0  0  0  0  0  0  0  0  0  0  0  0
  139.1740   78.7940  222.2680 C   0  0  0  0  0  0  0  0  0  0  0  0
  138.6400   80.0890  222.3610 C   0  0  0  0  0  0  0  0  0  0  0  0
  139.4030   81.1260  222.9050 C   0  0  0  0  0  0  0  0  0  0  0  0
  140.6950   80.8740  223.3720 C   0  0  0  0  0  0  0  0  0  0  0  0
  141.2270   79.5850  223.2970 C   0  0  0  0  0  0  0  0  0  0  0  0
  140.4760   78.5370  222.7390 C   0  0  0  0  0  0  0  0  0  0  0  0
  141.0530   77.1420  222.7110 C   0  0  0  0  0  0  0  0  0  0  0  0
  140.4130   73.8660  222.3410 N   0  0  0  0  0  0  0  0  0  0  0  0
  141.0470   71.2220  224.2600 C   0  0  0  0  0  0  0  0  0  0  0  0
  138.7451   67.2310  227.1104 H   0  0  0  0  0  0  0  0  0  0  0  0
  140.2892   68.8432  228.2233 H   0  0  0  0  0  0  0  0  0  0  0  0
  141.3437   70.6790  226.9078 H   0  0  0  0  0  0  0  0  0  0  0  0
  138.2378   67.4625  224.6773 H   0  0  0  0  0  0  0  0  0  0  0  0
  139.9989   68.8447  222.3911 H   0  0  0  0  0  0  0  0  0  0  0  0
  138.2320   68.8910  222.7347 H   0  0  0  0  0  0  0  0  0  0  0  0
  139.0535   70.8993  221.4670 H   0  0  0  0  0  0  0  0  0  0  0  0
  138.3099   71.3020  223.0636 H   0  0  0  0  0  0  0  0  0  0  0  0
  143.3519   73.9654  218.7208 H   0  0  0  0  0  0  0  0  0  0  0  0
  142.8272   71.1021  219.5347 H   0  0  0  0  0  0  0  0  0  0  0  0
  142.5396   71.9587  217.9561 H   0  0  0  0  0  0  0  0  0  0  0  0
  144.9913   70.5600  218.9728 H   0  0  0  0  0  0  0  0  0  0  0  0
  144.3092   70.6896  217.3012 H   0  0  0  0  0  0  0  0  0  0  0  0
  146.4494   71.8934  217.4686 H   0  0  0  0  0  0  0  0  0  0  0  0
  145.0632   73.0308  217.1803 H   0  0  0  0  0  0  0  0  0  0  0  0
  146.2080   74.0840  218.7710 H   0  0  0  0  0  0  0  0  0  0  0  0
  144.9624   72.4729  220.8475 H   0  0  0  0  0  0  0  0  0  0  0  0
  144.9501   74.2686  220.5547 H   0  0  0  0  0  0  0  0  0  0  0  0
  139.6491   77.2103  220.0581 H   0  0  0  0  0  0  0  0  0  0  0  0
  138.6372   75.8321  220.6393 H   0  0  0  0  0  0  0  0  0  0  0  0
  137.5859   78.0783  221.0373 H   0  0  0  0  0  0  0  0  0  0  0  0
  137.8681   77.1337  222.5442 H   0  0  0  0  0  0  0  0  0  0  0  0
  137.6185   80.2881  222.0048 H   0  0  0  0  0  0  0  0  0  0  0  0
  138.9855   82.1419  222.9654 H   0  0  0  0  0  0  0  0  0  0  0  0
  141.2941   81.6917  223.7993 H   0  0  0  0  0  0  0  0  0  0  0  0
  142.2404   79.3890  223.6772 H   0  0  0  0  0  0  0  0  0  0  0  0
  142.1070   77.2082  222.4032 H   0  0  0  0  0  0  0  0  0  0  0  0
  140.9367   76.7255  223.7224 H   0  0  0  0  0  0  0  0  0  0  0  0
  142.0839   70.9109  224.0651 H   0  0  0  0  0  0  0  0  0  0  0  0
  140.9907   72.1399  224.8636 H   0  0  0  0  0  0  0  0  0  0  0  0
  1  2  2  0
  2  3  1  0
  3  4  2  0
  4  5  1  0
  5  6  2  0
  5  7  1  0
  7  8  1  0
  8  9  1  0
  9 10  1  0
 10 11  2  0
 11 12  1  0
 12 13  1  0
 13 14  1  0
 14 15  1  0
 15 16  1  0
 16 17  1  0
 17 18  1  0
 12 19  2  0
 19 20  1  0
 20 21  1  0
 21 22  1  0
 22 23  1  0
 23 24  1  0
 24 25  2  0
 25 26  1  0
 26 27  2  0
 27 28  1  0
 28 29  2  0
 29 30  1  0
 20 31  2  0
  9 32  1  0
  6  1  1  0
 31 10  1  0
 32  4  1  0
 18 13  1  0
 30 21  1  0
 29 24  1  0
  1 33  1  0
  2 34  1  0
  3 35  1  0
  6 36  1  0
  7 37  1  0
  7 38  1  0
  8 39  1  0
  8 40  1  0
 13 41  1  6
 14 42  1  0
 14 43  1  0
 15 44  1  0
 15 45  1  0
 16 46  1  0
 16 47  1  0
 17 48  1  0
 18 49  1  0
 18 50  1  0
 22 51  1  0
 22 52  1  0
 23 53  1  0
 23 54  1  0
 25 55  1  0
 26 56  1  0
 27 57  1  0
 28 58  1  0
 30 59  1  0
 30 60  1  0
 32 61  1  0
 32 62  1  0
M  END
>  <UniqueID>  (23) 
677

>  <SMILES>  (23) 
c1ccc2c(c1)CCN(c1nc([C@@H]3CCCNC3)nc(N3CCc4ccccc4C3)n1)C2

>  <Energy>  (23) 
76.83119391236505

>  <Genealogy>  (23) 
c1ccc2c(c1)CCN(c1nc([C@@H]3CCCNC3)nc(N3CCc4ccccc4C3)n1)C2 (chirality)
c1ccc2c(c1)CCN(c1nc([C@@H]3CCCNC3)nc(N3CCc4ccccc4C3)n1)C2 (3D coordinates assigned)
c1ccc2c(c1)CCN(c1nc([C@@H]3CCCNC3)nc(N3CCc4ccccc4C3)n1)C2 (nonaromatic ring conformer: 76.83119391236505 kcal/mol)

>  <smiles>  (23) 
c1ccc2c(c1)CCN(c1nc(C3CCCNC3)nc(N3CCc4ccccc4C3)n1)C2

>  <score_type>  (23) 
oracle

>  <origin>  (23) 
autodockgpu

>  <m_score__min__energy>  (23) 
-9.6400000000000006

>  <m_primary>  (23) 
energy

>  <meeko>  (23) 
{"free_energy": -9.63, "intermolecular_energy": -10.52, "internal_energy": -0.78, "cluster_size": 20, "cluster_id": 1, "rank_in_cluster": 3}

>  <energy>  (23) 
-9.63

>  <cluster_rmsd>  (23) 
0.02

>  <rmsd>  (23) 
272.05

>  <cluster>  (23) 
1

$$$$
ZPZIUNMFLXMAPV-OAQYLSRUNA-N
     RDKit          3D

 62 67  0  0  0  0  0  0  0  0999 V2000
  139.4930   81.0580  222.8810 C   0  0  0  0  0  0  0  0  0  0  0  0
  140.7680   80.7770  223.3740 C   0  0  0  0  0  0  0  0  0  0  0  0
  141.2780   79.4780  223.3000 C   0  0  0  0  0  0  0  0  0  0  0  0
  140.5200   78.4510  222.7160 C   0  0  0  0  0  0  0  0  0  0  0  0
  139.2370   78.7370  222.2140 C   0  0  0  0  0  0  0  0  0  0  0  0
  138.7240   80.0420  222.3070 C   0  0  0  0  0  0  0  0  0  0  0  0
  138.4040   77.6360  221.6290 C   0  0  0  0  0  0  0  0  0  0  0  0
  139.2930   76.6500  220.8790 C   0  0  0  0  0  0  0  0  0  0  0  0
  140.3720   76.1500  221.7470 N   0  0  0  0  0  0  0  0  0  0  0  0
  140.8780   74.8110  221.5670 C   0  0  0  0  0  0  0  0  0  0  0  0
  141.8240   74.5570  220.6260 N   0  0  0  0  0  0  0  0  0  0  0  0
  142.2960   73.2970  220.4440 C   0  0  0  0  0  0  0  0  0  0  0  0
  143.3640   73.0230  219.4190 C   0  0  2  0  0  0  0  0  0  0  0  0
  143.2250   71.5940  218.8500 C   0  0  0  0  0  0  0  0  0  0  0  0
  144.5570   71.0430  218.3120 C   0  0  0  0  0  0  0  0  0  0  0  0
  145.4930   72.1750  217.8740 C   0  0  0  0  0  0  0  0  0  0  0  0
  145.8390   73.0740  218.9930 N   0  0  0  0  0  0  0  0  0  0  0  0
  144.7740   73.2430  220.0040 C   0  0  0  0  0  0  0  0  0  0  0  0
  141.8290   72.2870  221.2220 N   0  0  0  0  0  0  0  0  0  0  0  0
  140.8820   72.5240  222.1680 C   0  0  0  0  0  0  0  0  0  0  0  0
  140.3760   71.4500  222.9870 N   0  0  0  0  0  0  0  0  0  0  0  0
  139.1110   70.7870  222.6270 C   0  0  0  0  0  0  0  0  0  0  0  0
  139.1330   69.3180  223.0410 C   0  0  0  0  0  0  0  0  0  0  0  0
  139.4560   69.2000  224.5000 C   0  0  0  0  0  0  0  0  0  0  0  0
  138.8790   68.1820  225.2770 C   0  0  0  0  0  0  0  0  0  0  0  0
  139.2070   68.0600  226.6290 C   0  0  0  0  0  0  0  0  0  0  0  0
  140.1200   68.9420  227.2110 C   0  0  0  0  0  0  0  0  0  0  0  0
  140.7100   69.9470  226.4410 C   0  0  0  0  0  0  0  0  0  0  0  0
  140.3780   70.0890  225.0840 C   0  0  0  0  0  0  0  0  0  0  0  0
  141.0620   71.1540  224.2590 C   0  0  0  0  0  0  0  0  0  0  0  0
  140.4110   73.7890  222.3320 N   0  0  0  0  0  0  0  0  0  0  0  0
  141.0680   77.0420  222.6950 C   0  0  0  0  0  0  0  0  0  0  0  0
  139.0927   82.0806  222.9443 H   0  0  0  0  0  0  0  0  0  0  0  0
  141.3727   81.5795  223.8216 H   0  0  0  0  0  0  0  0  0  0  0  0
  142.2785   79.2592  223.7014 H   0  0  0  0  0  0  0  0  0  0  0  0
  137.7157   80.2641  221.9275 H   0  0  0  0  0  0  0  0  0  0  0  0
  137.8774   77.1087  222.4381 H   0  0  0  0  0  0  0  0  0  0  0  0
  137.6748   78.0689  220.9285 H   0  0  0  0  0  0  0  0  0  0  0  0
  138.6819   75.8010  220.5387 H   0  0  0  0  0  0  0  0  0  0  0  0
  139.7445   77.1673  220.0196 H   0  0  0  0  0  0  0  0  0  0  0  0
  143.2272   73.7386  218.5949 H   0  0  0  0  0  0  0  0  0  0  0  0
  142.8652   70.9293  219.6492 H   0  0  0  0  0  0  0  0  0  0  0  0
  142.5163   71.6358  218.0098 H   0  0  0  0  0  0  0  0  0  0  0  0
  145.0484   70.4581  219.1035 H   0  0  0  0  0  0  0  0  0  0  0  0
  144.3429   70.4119  217.4368 H   0  0  0  0  0  0  0  0  0  0  0  0
  146.4182   71.7352  217.4732 H   0  0  0  0  0  0  0  0  0  0  0  0
  144.9706   72.7701  217.1105 H   0  0  0  0  0  0  0  0  0  0  0  0
  146.0730   74.0120  218.5930 H   0  0  0  0  0  0  0  0  0  0  0  0
  144.9374   72.5163  220.8134 H   0  0  0  0  0  0  0  0  0  0  0  0
  144.8249   74.2779  220.3733 H   0  0  0  0  0  0  0  0  0  0  0  0
  138.2796   71.2937  223.1390 H   0  0  0  0  0  0  0  0  0  0  0  0
  138.9804   70.8444  221.5363 H   0  0  0  0  0  0  0  0  0  0  0  0
  138.1464   68.8709  222.8492 H   0  0  0  0  0  0  0  0  0  0  0  0
  139.9021   68.7905  222.4577 H   0  0  0  0  0  0  0  0  0  0  0  0
  138.1671   67.4792  224.8195 H   0  0  0  0  0  0  0  0  0  0  0  0
  138.7454   67.2677  227.2366 H   0  0  0  0  0  0  0  0  0  0  0  0
  140.3747   68.8452  228.2767 H   0  0  0  0  0  0  0  0  0  0  0  0
  141.4388   70.6311  226.9002 H   0  0  0  0  0  0  0  0  0  0  0  0
  141.1062   72.0787  224.8532 H   0  0  0  0  0  0  0  0  0  0  0  0
  142.0612   70.7710  224.0040 H   0  0  0  0  0  0  0  0  0  0  0  0
  140.9733   76.6172  223.7053 H   0  0  0  0  0  0  0  0  0  0  0  0
  142.1152   77.1086  222.3649 H   0  0  0  0  0  0  0  0  0  0  0  0
  1  2  2  0
  2  3  1  0
  3  4  2  0
  4  5  1  0
  5  6  2  0
  5  7  1  0
  7  8  1  0
  8  9  1  0
  9 10  1  0
 10 11  2  0
 11 12  1  0
 12 13  1  0
 13 14  1  0
 14 15  1  0
 15 16  1  0
 16 17  1  0
 17 18  1  0
 12 19  2  0
 19 20  1  0
 20 21  1  0
 21 22  1  0
 22 23  1  0
 23 24  1  0
 24 25  2  0
 25 26  1  0
 26 27  2  0
 27 28  1  0
 28 29  2  0
 29 30  1  0
 20 31  2  0
  9 32  1  0
  6  1  1  0
 31 10  1  0
 32  4  1  0
 18 13  1  0
 30 21  1  0
 29 24  1  0
  1 33  1  0
  2 34  1  0
  3 35  1  0
  6 36  1  0
  7 37  1  0
  7 38  1  0
  8 39  1  0
  8 40  1  0
 13 41  1  6
 14 42  1  0
 14 43  1  0
 15 44  1  0
 15 45  1  0
 16 46  1  0
 16 47  1  0
 17 48  1  0
 18 49  1  0
 18 50  1  0
 22 51  1  0
 22 52  1  0
 23 53  1  0
 23 54  1  0
 25 55  1  0
 26 56  1  0
 27 57  1  0
 28 58  1  0
 30 59  1  0
 30 60  1  0
 32 61  1  0
 32 62  1  0
M  END
>  <UniqueID>  (24) 
677

>  <SMILES>  (24) 
c1ccc2c(c1)CCN(c1nc([C@@H]3CCCNC3)nc(N3CCc4ccccc4C3)n1)C2

>  <Energy>  (24) 
76.83119391236505

>  <Genealogy>  (24) 
c1ccc2c(c1)CCN(c1nc([C@@H]3CCCNC3)nc(N3CCc4ccccc4C3)n1)C2 (chirality)
c1ccc2c(c1)CCN(c1nc([C@@H]3CCCNC3)nc(N3CCc4ccccc4C3)n1)C2 (3D coordinates assigned)
c1ccc2c(c1)CCN(c1nc([C@@H]3CCCNC3)nc(N3CCc4ccccc4C3)n1)C2 (nonaromatic ring conformer: 76.83119391236505 kcal/mol)

>  <smiles>  (24) 
c1ccc2c(c1)CCN(c1nc(C3CCCNC3)nc(N3CCc4ccccc4C3)n1)C2

>  <score_type>  (24) 
oracle

>  <origin>  (24) 
autodockgpu

>  <m_score__min__energy>  (24) 
-9.6400000000000006

>  <m_primary>  (24) 
energy

>  <meeko>  (24) 
{"free_energy": -9.57, "intermolecular_energy": -10.47, "internal_energy": -0.78, "cluster_size": 20, "cluster_id": 1, "rank_in_cluster": 18}

>  <energy>  (24) 
-9.63

>  <cluster_rmsd>  (24) 
0.03

>  <rmsd>  (24) 
272.06

>  <cluster>  (24) 
1

$$$$
ZPZIUNMFLXMAPV-OAQYLSRUNA-N
     RDKit          3D

 62 67  0  0  0  0  0  0  0  0999 V2000
  139.1890   68.0380  226.5140 C   0  0  0  0  0  0  0  0  0  0  0  0
  140.0570   68.9350  227.1390 C   0  0  0  0  0  0  0  0  0  0  0  0
  140.6450   69.9690  226.4060 C   0  0  0  0  0  0  0  0  0  0  0  0
  140.3560   70.1240  225.0410 C   0  0  0  0  0  0  0  0  0  0  0  0
  139.4750   69.2230  224.4130 C   0  0  0  0  0  0  0  0  0  0  0  0
  138.9020   68.1760  225.1530 C   0  0  0  0  0  0  0  0  0  0  0  0
  139.1970   69.3550  222.9460 C   0  0  0  0  0  0  0  0  0  0  0  0
  139.1590   70.8290  222.5520 C   0  0  0  0  0  0  0  0  0  0  0  0
  140.3960   71.5140  222.9630 N   0  0  0  0  0  0  0  0  0  0  0  0
  140.9060   72.6100  222.1750 C   0  0  0  0  0  0  0  0  0  0  0  0
  141.8830   72.3950  221.2560 N   0  0  0  0  0  0  0  0  0  0  0  0
  142.3750   73.4240  220.5180 C   0  0  0  0  0  0  0  0  0  0  0  0
  143.4400   73.1790  219.4830 C   0  0  2  0  0  0  0  0  0  0  0  0
  143.2240   71.8180  218.7860 C   0  0  0  0  0  0  0  0  0  0  0  0
  144.5300   71.2370  218.2130 C   0  0  0  0  0  0  0  0  0  0  0  0
  145.5380   72.3450  217.8880 C   0  0  0  0  0  0  0  0  0  0  0  0
  145.9190   73.1170  219.0870 N   0  0  0  0  0  0  0  0  0  0  0  0
  144.8510   73.2590  220.0990 C   0  0  0  0  0  0  0  0  0  0  0  0
  141.8720   74.6730  220.6910 N   0  0  0  0  0  0  0  0  0  0  0  0
  140.8940   74.9040  221.6060 C   0  0  0  0  0  0  0  0  0  0  0  0
  140.3670   76.2340  221.7980 N   0  0  0  0  0  0  0  0  0  0  0  0
  139.2540   76.7100  220.9590 C   0  0  0  0  0  0  0  0  0  0  0  0
  138.3690   77.6810  221.7360 C   0  0  0  0  0  0  0  0  0  0  0  0
  139.1970   78.8000  222.2910 C   0  0  0  0  0  0  0  0  0  0  0  0
  138.6670   80.0970  222.3900 C   0  0  0  0  0  0  0  0  0  0  0  0
  139.4350   81.1290  222.9350 C   0  0  0  0  0  0  0  0  0  0  0  0
  140.7270   80.8710  223.3980 C   0  0  0  0  0  0  0  0  0  0  0  0
  141.2540   79.5800  223.3190 C   0  0  0  0  0  0  0  0  0  0  0  0
  140.4990   78.5370  222.7590 C   0  0  0  0  0  0  0  0  0  0  0  0
  141.0720   77.1400  222.7250 C   0  0  0  0  0  0  0  0  0  0  0  0
  140.4190   73.8670  222.3450 N   0  0  0  0  0  0  0  0  0  0  0  0
  141.0440   71.2160  224.2550 C   0  0  0  0  0  0  0  0  0  0  0  0
  138.7308   67.2224  227.0927 H   0  0  0  0  0  0  0  0  0  0  0  0
  140.2786   68.8275  228.2111 H   0  0  0  0  0  0  0  0  0  0  0  0
  141.3380   70.6652  226.9011 H   0  0  0  0  0  0  0  0  0  0  0  0
  138.2253   67.4624  224.6601 H   0  0  0  0  0  0  0  0  0  0  0  0
  139.9899   68.8465  222.3779 H   0  0  0  0  0  0  0  0  0  0  0  0
  138.2231   68.8960  222.7205 H   0  0  0  0  0  0  0  0  0  0  0  0
  139.0494   70.9074  221.4603 H   0  0  0  0  0  0  0  0  0  0  0  0
  138.3074   71.3067  223.0585 H   0  0  0  0  0  0  0  0  0  0  0  0
  143.3593   73.9728  218.7258 H   0  0  0  0  0  0  0  0  0  0  0  0
  142.8129   71.1076  219.5183 H   0  0  0  0  0  0  0  0  0  0  0  0
  142.5317   71.9778  217.9463 H   0  0  0  0  0  0  0  0  0  0  0  0
  144.9737   70.5550  218.9533 H   0  0  0  0  0  0  0  0  0  0  0  0
  144.2921   70.7007  217.2825 H   0  0  0  0  0  0  0  0  0  0  0  0
  146.4416   71.8879  217.4584 H   0  0  0  0  0  0  0  0  0  0  0  0
  145.0639   73.0365  217.1759 H   0  0  0  0  0  0  0  0  0  0  0  0
  146.2150   74.0720  218.7750 H   0  0  0  0  0  0  0  0  0  0  0  0
  144.9584   72.4538  220.8406 H   0  0  0  0  0  0  0  0  0  0  0  0
  144.9582   74.2514  220.5613 H   0  0  0  0  0  0  0  0  0  0  0  0
  139.6617   77.2217  220.0747 H   0  0  0  0  0  0  0  0  0  0  0  0
  138.6466   75.8452  220.6536 H   0  0  0  0  0  0  0  0  0  0  0  0
  137.6034   78.0940  221.0628 H   0  0  0  0  0  0  0  0  0  0  0  0
  137.8867   77.1437  222.5659 H   0  0  0  0  0  0  0  0  0  0  0  0
  137.6451   80.3006  222.0377 H   0  0  0  0  0  0  0  0  0  0  0  0
  139.0214   82.1462  222.9995 H   0  0  0  0  0  0  0  0  0  0  0  0
  141.3303   81.6855  223.8254 H   0  0  0  0  0  0  0  0  0  0  0  0
  142.2669   79.3791  223.6979 H   0  0  0  0  0  0  0  0  0  0  0  0
  142.1254   77.2038  222.4148 H   0  0  0  0  0  0  0  0  0  0  0  0
  140.9577   76.7201  223.7353 H   0  0  0  0  0  0  0  0  0  0  0  0
  142.0805   70.9034  224.0600 H   0  0  0  0  0  0  0  0  0  0  0  0
  140.9895   72.1322  224.8613 H   0  0  0  0  0  0  0  0  0  0  0  0
  1  2  2  0
  2  3  1  0
  3  4  2  0
  4  5  1  0
  5  6  2  0
  5  7  1  0
  7  8  1  0
  8  9  1  0
  9 10  1  0
 10 11  2  0
 11 12  1  0
 12 13  1  0
 13 14  1  0
 14 15  1  0
 15 16  1  0
 16 17  1  0
 17 18  1  0
 12 19  2  0
 19 20  1  0
 20 21  1  0
 21 22  1  0
 22 23  1  0
 23 24  1  0
 24 25  2  0
 25 26  1  0
 26 27  2  0
 27 28  1  0
 28 29  2  0
 29 30  1  0
 20 31  2  0
  9 32  1  0
  6  1  1  0
 31 10  1  0
 32  4  1  0
 18 13  1  0
 30 21  1  0
 29 24  1  0
  1 33  1  0
  2 34  1  0
  3 35  1  0
  6 36  1  0
  7 37  1  0
  7 38  1  0
  8 39  1  0
  8 40  1  0
 13 41  1  6
 14 42  1  0
 14 43  1  0
 15 44  1  0
 15 45  1  0
 16 46  1  0
 16 47  1  0
 17 48  1  0
 18 49  1  0
 18 50  1  0
 22 51  1  0
 22 52  1  0
 23 53  1  0
 23 54  1  0
 25 55  1  0
 26 56  1  0
 27 57  1  0
 28 58  1  0
 30 59  1  0
 30 60  1  0
 32 61  1  0
 32 62  1  0
M  END
>  <UniqueID>  (25) 
677

>  <SMILES>  (25) 
c1ccc2c(c1)CCN(c1nc([C@@H]3CCCNC3)nc(N3CCc4ccccc4C3)n1)C2

>  <Energy>  (25) 
76.83119391236505

>  <Genealogy>  (25) 
c1ccc2c(c1)CCN(c1nc([C@@H]3CCCNC3)nc(N3CCc4ccccc4C3)n1)C2 (chirality)
c1ccc2c(c1)CCN(c1nc([C@@H]3CCCNC3)nc(N3CCc4ccccc4C3)n1)C2 (3D coordinates assigned)
c1ccc2c(c1)CCN(c1nc([C@@H]3CCCNC3)nc(N3CCc4ccccc4C3)n1)C2 (nonaromatic ring conformer: 76.83119391236505 kcal/mol)

>  <smiles>  (25) 
c1ccc2c(c1)CCN(c1nc(C3CCCNC3)nc(N3CCc4ccccc4C3)n1)C2

>  <score_type>  (25) 
oracle

>  <origin>  (25) 
autodockgpu

>  <m_score__min__energy>  (25) 
-9.6400000000000006

>  <m_primary>  (25) 
energy

>  <meeko>  (25) 
{"free_energy": -9.64, "intermolecular_energy": -10.53, "internal_energy": -0.78, "cluster_size": 20, "cluster_id": 1, "rank_in_cluster": 1}

>  <energy>  (25) 
-9.61

>  <cluster_rmsd>  (25) 
0.15

>  <rmsd>  (25) 
272.07

>  <cluster>  (25) 
1

$$$$
ZPZIUNMFLXMAPV-OAQYLSRUNA-N
     RDKit          3D

 62 67  0  0  0  0  0  0  0  0999 V2000
  139.4230   81.1310  222.9860 C   0  0  0  0  0  0  0  0  0  0  0  0
  140.7170   80.8680  223.4390 C   0  0  0  0  0  0  0  0  0  0  0  0
  141.2450   79.5780  223.3440 C   0  0  0  0  0  0  0  0  0  0  0  0
  140.4860   78.5410  222.7780 C   0  0  0  0  0  0  0  0  0  0  0  0
  139.1840   78.8100  222.3150 C   0  0  0  0  0  0  0  0  0  0  0  0
  138.6540   80.1050  222.4300 C   0  0  0  0  0  0  0  0  0  0  0  0
  138.3520   77.6980  221.7500 C   0  0  0  0  0  0  0  0  0  0  0  0
  139.2340   76.7290  220.9680 C   0  0  0  0  0  0  0  0  0  0  0  0
  140.3460   76.2440  221.8020 N   0  0  0  0  0  0  0  0  0  0  0  0
  140.8670   74.9130  221.6010 C   0  0  0  0  0  0  0  0  0  0  0  0
  141.8200   74.6860  220.6590 N   0  0  0  0  0  0  0  0  0  0  0  0
  142.3070   73.4350  220.4570 C   0  0  0  0  0  0  0  0  0  0  0  0
  143.3810   73.1910  219.4310 C   0  0  2  0  0  0  0  0  0  0  0  0
  143.1630   71.8380  218.7200 C   0  0  0  0  0  0  0  0  0  0  0  0
  144.4710   71.2520  218.1560 C   0  0  0  0  0  0  0  0  0  0  0  0
  145.4900   72.3560  217.8530 C   0  0  0  0  0  0  0  0  0  0  0  0
  145.8650   73.1140  219.0630 N   0  0  0  0  0  0  0  0  0  0  0  0
  144.7860   73.2550  220.0640 C   0  0  0  0  0  0  0  0  0  0  0  0
  141.8480   72.4060  221.2150 N   0  0  0  0  0  0  0  0  0  0  0  0
  140.8950   72.6160  222.1620 C   0  0  0  0  0  0  0  0  0  0  0  0
  140.3980   71.5220  222.9590 N   0  0  0  0  0  0  0  0  0  0  0  0
  139.1600   70.8290  222.5640 C   0  0  0  0  0  0  0  0  0  0  0  0
  139.2110   69.3580  222.9670 C   0  0  0  0  0  0  0  0  0  0  0  0
  139.5010   69.2370  224.4320 C   0  0  0  0  0  0  0  0  0  0  0  0
  138.9330   68.1970  225.1870 C   0  0  0  0  0  0  0  0  0  0  0  0
  139.2300   68.0730  226.5460 C   0  0  0  0  0  0  0  0  0  0  0  0
  140.1050   68.9740  227.1570 C   0  0  0  0  0  0  0  0  0  0  0  0
  140.6860   70.0010  226.4090 C   0  0  0  0  0  0  0  0  0  0  0  0
  140.3840   70.1450  225.0460 C   0  0  0  0  0  0  0  0  0  0  0  0
  141.0600   71.2350  224.2460 C   0  0  0  0  0  0  0  0  0  0  0  0
  140.4090   73.8730  222.3450 N   0  0  0  0  0  0  0  0  0  0  0  0
  141.0550   77.1420  222.7340 C   0  0  0  0  0  0  0  0  0  0  0  0
  139.0083   82.1466  223.0667 H   0  0  0  0  0  0  0  0  0  0  0  0
  141.3222   81.6782  223.8717 H   0  0  0  0  0  0  0  0  0  0  0  0
  142.2604   79.3737  223.7144 H   0  0  0  0  0  0  0  0  0  0  0  0
  137.6314   80.3125  222.0818 H   0  0  0  0  0  0  0  0  0  0  0  0
  137.8588   77.1587  222.5721 H   0  0  0  0  0  0  0  0  0  0  0  0
  137.5952   78.1222  221.0737 H   0  0  0  0  0  0  0  0  0  0  0  0
  138.6269   75.8714  220.6424 H   0  0  0  0  0  0  0  0  0  0  0  0
  139.6506   77.2562  220.0971 H   0  0  0  0  0  0  0  0  0  0  0  0
  143.3141   73.9915  218.6795 H   0  0  0  0  0  0  0  0  0  0  0  0
  142.7388   71.1243  219.4416 H   0  0  0  0  0  0  0  0  0  0  0  0
  142.4813   72.0103  217.8741 H   0  0  0  0  0  0  0  0  0  0  0  0
  144.9015   70.5598  218.8946 H   0  0  0  0  0  0  0  0  0  0  0  0
  144.2399   70.7256  217.2182 H   0  0  0  0  0  0  0  0  0  0  0  0
  146.3946   71.8966  217.4279 H   0  0  0  0  0  0  0  0  0  0  0  0
  145.0274   73.0581  217.1437 H   0  0  0  0  0  0  0  0  0  0  0  0
  146.1700   74.0690  218.7630 H   0  0  0  0  0  0  0  0  0  0  0  0
  144.8788   72.4424  220.7996 H   0  0  0  0  0  0  0  0  0  0  0  0
  144.8951   74.2425  220.5362 H   0  0  0  0  0  0  0  0  0  0  0  0
  138.3037   71.3094  223.0599 H   0  0  0  0  0  0  0  0  0  0  0  0
  139.0538   70.8919  221.4709 H   0  0  0  0  0  0  0  0  0  0  0  0
  138.2417   68.8865  222.7475 H   0  0  0  0  0  0  0  0  0  0  0  0
  140.0078   68.8557  222.3988 H   0  0  0  0  0  0  0  0  0  0  0  0
  138.2526   67.4786  224.7064 H   0  0  0  0  0  0  0  0  0  0  0  0
  138.7740   67.2644  227.1362 H   0  0  0  0  0  0  0  0  0  0  0  0
  140.3368   68.8749  228.2277 H   0  0  0  0  0  0  0  0  0  0  0  0
  141.3843   70.7009  226.8912 H   0  0  0  0  0  0  0  0  0  0  0  0
  141.0641   72.1559  224.8476 H   0  0  0  0  0  0  0  0  0  0  0  0
  142.0754   70.8814  224.0139 H   0  0  0  0  0  0  0  0  0  0  0  0
  140.9963   76.7110  223.7443 H   0  0  0  0  0  0  0  0  0  0  0  0
  142.0911   77.2267  222.3743 H   0  0  0  0  0  0  0  0  0  0  0  0
  1  2  2  0
  2  3  1  0
  3  4  2  0
  4  5  1  0
  5  6  2  0
  5  7  1  0
  7  8  1  0
  8  9  1  0
  9 10  1  0
 10 11  2  0
 11 12  1  0
 12 13  1  0
 13 14  1  0
 14 15  1  0
 15 16  1  0
 16 17  1  0
 17 18  1  0
 12 19  2  0
 19 20  1  0
 20 21  1  0
 21 22  1  0
 22 23  1  0
 23 24  1  0
 24 25  2  0
 25 26  1  0
 26 27  2  0
 27 28  1  0
 28 29  2  0
 29 30  1  0
 20 31  2  0
  9 32  1  0
  6  1  1  0
 31 10  1  0
 32  4  1  0
 18 13  1  0
 30 21  1  0
 29 24  1  0
  1 33  1  0
  2 34  1  0
  3 35  1  0
  6 36  1  0
  7 37  1  0
  7 38  1  0
  8 39  1  0
  8 40  1  0
 13 41  1  6
 14 42  1  0
 14 43  1  0
 15 44  1  0
 15 45  1  0
 16 46  1  0
 16 47  1  0
 17 48  1  0
 18 49  1  0
 18 50  1  0
 22 51  1  0
 22 52  1  0
 23 53  1  0
 23 54  1  0
 25 55  1  0
 26 56  1  0
 27 57  1  0
 28 58  1  0
 30 59  1  0
 30 60  1  0
 32 61  1  0
 32 62  1  0
M  END
>  <UniqueID>  (26) 
677

>  <SMILES>  (26) 
c1ccc2c(c1)CCN(c1nc([C@@H]3CCCNC3)nc(N3CCc4ccccc4C3)n1)C2

>  <Energy>  (26) 
76.83119391236505

>  <Genealogy>  (26) 
c1ccc2c(c1)CCN(c1nc([C@@H]3CCCNC3)nc(N3CCc4ccccc4C3)n1)C2 (chirality)
c1ccc2c(c1)CCN(c1nc([C@@H]3CCCNC3)nc(N3CCc4ccccc4C3)n1)C2 (3D coordinates assigned)
c1ccc2c(c1)CCN(c1nc([C@@H]3CCCNC3)nc(N3CCc4ccccc4C3)n1)C2 (nonaromatic ring conformer: 76.83119391236505 kcal/mol)

>  <smiles>  (26) 
c1ccc2c(c1)CCN(c1nc(C3CCCNC3)nc(N3CCc4ccccc4C3)n1)C2

>  <score_type>  (26) 
oracle

>  <origin>  (26) 
autodockgpu

>  <m_score__min__energy>  (26) 
-9.6400000000000006

>  <m_primary>  (26) 
energy

>  <meeko>  (26) 
{"free_energy": -9.58, "intermolecular_energy": -10.48, "internal_energy": -0.78, "cluster_size": 20, "cluster_id": 1, "rank_in_cluster": 17}

>  <energy>  (26) 
-9.61

>  <cluster_rmsd>  (26) 
0.09

>  <rmsd>  (26) 
272.03

>  <cluster>  (26) 
1

$$$$
ZPZIUNMFLXMAPV-OAQYLSRUNA-N
     RDKit          3D

 62 67  0  0  0  0  0  0  0  0999 V2000
  139.4400   81.0460  222.8280 C   0  0  0  0  0  0  0  0  0  0  0  0
  140.7300   80.7880  223.2940 C   0  0  0  0  0  0  0  0  0  0  0  0
  141.2550   79.4950  223.2260 C   0  0  0  0  0  0  0  0  0  0  0  0
  140.4970   78.4500  222.6750 C   0  0  0  0  0  0  0  0  0  0  0  0
  139.1980   78.7120  222.2000 C   0  0  0  0  0  0  0  0  0  0  0  0
  138.6710   80.0110  222.2870 C   0  0  0  0  0  0  0  0  0  0  0  0
  138.3660   77.5920  221.6520 C   0  0  0  0  0  0  0  0  0  0  0  0
  139.2500   76.6060  220.8940 C   0  0  0  0  0  0  0  0  0  0  0  0
  140.3560   76.1340  221.7430 N   0  0  0  0  0  0  0  0  0  0  0  0
  140.8750   74.7980  221.5700 C   0  0  0  0  0  0  0  0  0  0  0  0
  141.8260   74.5500  220.6320 N   0  0  0  0  0  0  0  0  0  0  0  0
  142.3100   73.2930  220.4570 C   0  0  0  0  0  0  0  0  0  0  0  0
  143.3830   73.0250  219.4350 C   0  0  2  0  0  0  0  0  0  0  0  0
  143.2950   71.5730  218.9170 C   0  0  0  0  0  0  0  0  0  0  0  0
  144.6460   71.0550  218.3890 C   0  0  0  0  0  0  0  0  0  0  0  0
  145.5350   72.2060  217.9070 C   0  0  0  0  0  0  0  0  0  0  0  0
  145.8520   73.1550  218.9920 N   0  0  0  0  0  0  0  0  0  0  0  0
  144.7860   73.3190  220.0030 C   0  0  0  0  0  0  0  0  0  0  0  0
  141.8520   72.2820  221.2380 N   0  0  0  0  0  0  0  0  0  0  0  0
  140.9010   72.5150  222.1810 C   0  0  0  0  0  0  0  0  0  0  0  0
  140.4030   71.4390  223.0040 N   0  0  0  0  0  0  0  0  0  0  0  0
  139.1610   70.7440  222.6290 C   0  0  0  0  0  0  0  0  0  0  0  0
  139.2070   69.2810  223.0620 C   0  0  0  0  0  0  0  0  0  0  0  0
  139.5050   69.1880  224.5280 C   0  0  0  0  0  0  0  0  0  0  0  0
  138.9370   68.1660  225.3070 C   0  0  0  0  0  0  0  0  0  0  0  0
  139.2410   68.0680  226.6660 C   0  0  0  0  0  0  0  0  0  0  0  0
  140.1230   68.9780  227.2540 C   0  0  0  0  0  0  0  0  0  0  0  0
  140.7040   69.9870  226.4830 C   0  0  0  0  0  0  0  0  0  0  0  0
  140.3950   70.1050  225.1180 C   0  0  0  0  0  0  0  0  0  0  0  0
  141.0710   71.1750  224.2930 C   0  0  0  0  0  0  0  0  0  0  0  0
  140.4170   73.7750  222.3380 N   0  0  0  0  0  0  0  0  0  0  0  0
  141.0620   77.0480  222.6610 C   0  0  0  0  0  0  0  0  0  0  0  0
  139.0279   82.0642  222.8863 H   0  0  0  0  0  0  0  0  0  0  0  0
  141.3347   81.6044  223.7157 H   0  0  0  0  0  0  0  0  0  0  0  0
  142.2676   79.2949  223.6062 H   0  0  0  0  0  0  0  0  0  0  0  0
  137.6511   80.2146  221.9288 H   0  0  0  0  0  0  0  0  0  0  0  0
  137.8666   77.0699  222.4815 H   0  0  0  0  0  0  0  0  0  0  0  0
  137.6140   78.0050  220.9635 H   0  0  0  0  0  0  0  0  0  0  0  0
  138.6425   75.7439  220.5814 H   0  0  0  0  0  0  0  0  0  0  0  0
  139.6731   77.1157  220.0158 H   0  0  0  0  0  0  0  0  0  0  0  0
  143.2158   73.7059  218.5874 H   0  0  0  0  0  0  0  0  0  0  0  0
  142.9653   70.9233  219.7411 H   0  0  0  0  0  0  0  0  0  0  0  0
  142.5802   71.5579  218.0811 H   0  0  0  0  0  0  0  0  0  0  0  0
  145.1636   70.5168  219.1968 H   0  0  0  0  0  0  0  0  0  0  0  0
  144.4520   70.3866  217.5372 H   0  0  0  0  0  0  0  0  0  0  0  0
  146.4743   71.7885  217.5153 H   0  0  0  0  0  0  0  0  0  0  0  0
  144.9859   72.7543  217.1273 H   0  0  0  0  0  0  0  0  0  0  0  0
  146.0470   74.0870  218.5580 H   0  0  0  0  0  0  0  0  0  0  0  0
  144.9810   72.6281  220.8365 H   0  0  0  0  0  0  0  0  0  0  0  0
  144.7990   74.3675  220.3353 H   0  0  0  0  0  0  0  0  0  0  0  0
  138.3091   71.2385  223.1186 H   0  0  0  0  0  0  0  0  0  0  0  0
  139.0503   70.7849  221.5353 H   0  0  0  0  0  0  0  0  0  0  0  0
  138.2341   68.8101  222.8577 H   0  0  0  0  0  0  0  0  0  0  0  0
  139.9981   68.7633  222.4998 H   0  0  0  0  0  0  0  0  0  0  0  0
  138.2508   67.4410  224.8448 H   0  0  0  0  0  0  0  0  0  0  0  0
  138.7854   67.2731  227.2747 H   0  0  0  0  0  0  0  0  0  0  0  0
  140.3600   68.8996  228.3253 H   0  0  0  0  0  0  0  0  0  0  0  0
  141.4077   70.6935  226.9474 H   0  0  0  0  0  0  0  0  0  0  0  0
  141.0825   72.1078  224.8759 H   0  0  0  0  0  0  0  0  0  0  0  0
  142.0836   70.8123  224.0626 H   0  0  0  0  0  0  0  0  0  0  0  0
  140.9964   76.6368  223.6791 H   0  0  0  0  0  0  0  0  0  0  0  0
  142.1001   77.1230  222.3051 H   0  0  0  0  0  0  0  0  0  0  0  0
  1  2  2  0
  2  3  1  0
  3  4  2  0
  4  5  1  0
  5  6  2  0
  5  7  1  0
  7  8  1  0
  8  9  1  0
  9 10  1  0
 10 11  2  0
 11 12  1  0
 12 13  1  0
 13 14  1  0
 14 15  1  0
 15 16  1  0
 16 17  1  0
 17 18  1  0
 12 19  2  0
 19 20  1  0
 20 21  1  0
 21 22  1  0
 22 23  1  0
 23 24  1  0
 24 25  2  0
 25 26  1  0
 26 27  2  0
 27 28  1  0
 28 29  2  0
 29 30  1  0
 20 31  2  0
  9 32  1  0
  6  1  1  0
 31 10  1  0
 32  4  1  0
 18 13  1  0
 30 21  1  0
 29 24  1  0
  1 33  1  0
  2 34  1  0
  3 35  1  0
  6 36  1  0
  7 37  1  0
  7 38  1  0
  8 39  1  0
  8 40  1  0
 13 41  1  6
 14 42  1  0
 14 43  1  0
 15 44  1  0
 15 45  1  0
 16 46  1  0
 16 47  1  0
 17 48  1  0
 18 49  1  0
 18 50  1  0
 22 51  1  0
 22 52  1  0
 23 53  1  0
 23 54  1  0
 25 55  1  0
 26 56  1  0
 27 57  1  0
 28 58  1  0
 30 59  1  0
 30 60  1  0
 32 61  1  0
 32 62  1  0
M  END
>  <UniqueID>  (27) 
677

>  <SMILES>  (27) 
c1ccc2c(c1)CCN(c1nc([C@@H]3CCCNC3)nc(N3CCc4ccccc4C3)n1)C2

>  <Energy>  (27) 
76.83119391236505

>  <Genealogy>  (27) 
c1ccc2c(c1)CCN(c1nc([C@@H]3CCCNC3)nc(N3CCc4ccccc4C3)n1)C2 (chirality)
c1ccc2c(c1)CCN(c1nc([C@@H]3CCCNC3)nc(N3CCc4ccccc4C3)n1)C2 (3D coordinates assigned)
c1ccc2c(c1)CCN(c1nc([C@@H]3CCCNC3)nc(N3CCc4ccccc4C3)n1)C2 (nonaromatic ring conformer: 76.83119391236505 kcal/mol)

>  <smiles>  (27) 
c1ccc2c(c1)CCN(c1nc(C3CCCNC3)nc(N3CCc4ccccc4C3)n1)C2

>  <score_type>  (27) 
oracle

>  <origin>  (27) 
autodockgpu

>  <m_score__min__energy>  (27) 
-9.6400000000000006

>  <m_primary>  (27) 
energy

>  <meeko>  (27) 
{"free_energy": -9.57, "intermolecular_energy": -10.46, "internal_energy": -0.78, "cluster_size": 20, "cluster_id": 1, "rank_in_cluster": 19}

>  <energy>  (27) 
-9.61

>  <cluster_rmsd>  (27) 
0.05

>  <rmsd>  (27) 
272.05

>  <cluster>  (27) 
1

$$$$
ZPZIUNMFLXMAPV-OAQYLSRUNA-N
     RDKit          3D

 62 67  0  0  0  0  0  0  0  0999 V2000
  139.4060   81.1310  222.9430 C   0  0  0  0  0  0  0  0  0  0  0  0
  140.7170   80.8890  223.3550 C   0  0  0  0  0  0  0  0  0  0  0  0
  141.2550   79.6030  223.2620 C   0  0  0  0  0  0  0  0  0  0  0  0
  140.4890   78.5490  222.7390 C   0  0  0  0  0  0  0  0  0  0  0  0
  139.1690   78.7970  222.3170 C   0  0  0  0  0  0  0  0  0  0  0  0
  138.6290   80.0880  222.4300 C   0  0  0  0  0  0  0  0  0  0  0  0
  138.3290   77.6670  221.7990 C   0  0  0  0  0  0  0  0  0  0  0  0
  139.1950   76.6950  221.0030 C   0  0  0  0  0  0  0  0  0  0  0  0
  140.3400   76.2350  221.8050 N   0  0  0  0  0  0  0  0  0  0  0  0
  140.8680   74.9070  221.6070 C   0  0  0  0  0  0  0  0  0  0  0  0
  141.8320   74.6850  220.6760 N   0  0  0  0  0  0  0  0  0  0  0  0
  142.3260   73.4360  220.4760 C   0  0  0  0  0  0  0  0  0  0  0  0
  143.4130   73.1990  219.4620 C   0  0  2  0  0  0  0  0  0  0  0  0
  143.1710   71.8780  218.6990 C   0  0  0  0  0  0  0  0  0  0  0  0
  144.4730   71.2760  218.1380 C   0  0  0  0  0  0  0  0  0  0  0  0
  145.5280   72.3600  217.8930 C   0  0  0  0  0  0  0  0  0  0  0  0
  145.9000   73.0650  219.1360 N   0  0  0  0  0  0  0  0  0  0  0  0
  144.8070   73.2010  220.1220 C   0  0  0  0  0  0  0  0  0  0  0  0
  141.8630   72.4040  221.2270 N   0  0  0  0  0  0  0  0  0  0  0  0
  140.8980   72.6090  222.1630 C   0  0  0  0  0  0  0  0  0  0  0  0
  140.3960   71.5110  222.9530 N   0  0  0  0  0  0  0  0  0  0  0  0
  139.1600   70.8220  222.5480 C   0  0  0  0  0  0  0  0  0  0  0  0
  139.2070   69.3480  222.9430 C   0  0  0  0  0  0  0  0  0  0  0  0
  139.4900   69.2190  224.4090 C   0  0  0  0  0  0  0  0  0  0  0  0
  138.9180   68.1760  225.1560 C   0  0  0  0  0  0  0  0  0  0  0  0
  139.2090   68.0440  226.5160 C   0  0  0  0  0  0  0  0  0  0  0  0
  140.0820   68.9410  227.1350 C   0  0  0  0  0  0  0  0  0  0  0  0
  140.6680   69.9710  226.3960 C   0  0  0  0  0  0  0  0  0  0  0  0
  140.3720   70.1230  225.0310 C   0  0  0  0  0  0  0  0  0  0  0  0
  141.0520   71.2160  224.2410 C   0  0  0  0  0  0  0  0  0  0  0  0
  140.4050   73.8630  222.3440 N   0  0  0  0  0  0  0  0  0  0  0  0
  141.0710   77.1550  222.6970 C   0  0  0  0  0  0  0  0  0  0  0  0
  138.9834   82.1435  223.0219 H   0  0  0  0  0  0  0  0  0  0  0  0
  141.3280   81.7122  223.7537 H   0  0  0  0  0  0  0  0  0  0  0  0
  142.2846   79.4152  223.6005 H   0  0  0  0  0  0  0  0  0  0  0  0
  137.5928   80.2792  222.1144 H   0  0  0  0  0  0  0  0  0  0  0  0
  137.8701   77.1362  222.6461 H   0  0  0  0  0  0  0  0  0  0  0  0
  137.5443   78.0718  221.1430 H   0  0  0  0  0  0  0  0  0  0  0  0
  138.5868   75.8259  220.7118 H   0  0  0  0  0  0  0  0  0  0  0  0
  139.5761   77.2131  220.1107 H   0  0  0  0  0  0  0  0  0  0  0  0
  143.3832   74.0276  218.7392 H   0  0  0  0  0  0  0  0  0  0  0  0
  142.7138   71.1515  219.3869 H   0  0  0  0  0  0  0  0  0  0  0  0
  142.5101   72.0989  217.8479 H   0  0  0  0  0  0  0  0  0  0  0  0
  144.8700   70.5462  218.8590 H   0  0  0  0  0  0  0  0  0  0  0  0
  144.2451   70.7903  217.1777 H   0  0  0  0  0  0  0  0  0  0  0  0
  146.4276   71.8899  217.4692 H   0  0  0  0  0  0  0  0  0  0  0  0
  145.0994   73.0990  217.2001 H   0  0  0  0  0  0  0  0  0  0  0  0
  146.2370   74.0210  218.8760 H   0  0  0  0  0  0  0  0  0  0  0  0
  144.8636   72.3607  220.8296 H   0  0  0  0  0  0  0  0  0  0  0  0
  144.9345   74.1676  220.6313 H   0  0  0  0  0  0  0  0  0  0  0  0
  138.3017   71.3007  223.0422 H   0  0  0  0  0  0  0  0  0  0  0  0
  139.0596   70.8912  221.4548 H   0  0  0  0  0  0  0  0  0  0  0  0
  138.2381   68.8791  222.7164 H   0  0  0  0  0  0  0  0  0  0  0  0
  140.0055   68.8474  222.3757 H   0  0  0  0  0  0  0  0  0  0  0  0
  138.2389   67.4610  224.6687 H   0  0  0  0  0  0  0  0  0  0  0  0
  138.7499   67.2326  227.0999 H   0  0  0  0  0  0  0  0  0  0  0  0
  140.3085   68.8362  228.2063 H   0  0  0  0  0  0  0  0  0  0  0  0
  141.3651   70.6671  226.8853 H   0  0  0  0  0  0  0  0  0  0  0  0
  141.0544   72.1334  224.8479 H   0  0  0  0  0  0  0  0  0  0  0  0
  142.0681   70.8628  224.0114 H   0  0  0  0  0  0  0  0  0  0  0  0
  141.0522   76.7397  223.7154 H   0  0  0  0  0  0  0  0  0  0  0  0
  142.0929   77.2445  222.2998 H   0  0  0  0  0  0  0  0  0  0  0  0
  1  2  2  0
  2  3  1  0
  3  4  2  0
  4  5  1  0
  5  6  2  0
  5  7  1  0
  7  8  1  0
  8  9  1  0
  9 10  1  0
 10 11  2  0
 11 12  1  0
 12 13  1  0
 13 14  1  0
 14 15  1  0
 15 16  1  0
 16 17  1  0
 17 18  1  0
 12 19  2  0
 19 20  1  0
 20 21  1  0
 21 22  1  0
 22 23  1  0
 23 24  1  0
 24 25  2  0
 25 26  1  0
 26 27  2  0
 27 28  1  0
 28 29  2  0
 29 30  1  0
 20 31  2  0
  9 32  1  0
  6  1  1  0
 31 10  1  0
 32  4  1  0
 18 13  1  0
 30 21  1  0
 29 24  1  0
  1 33  1  0
  2 34  1  0
  3 35  1  0
  6 36  1  0
  7 37  1  0
  7 38  1  0
  8 39  1  0
  8 40  1  0
 13 41  1  6
 14 42  1  0
 14 43  1  0
 15 44  1  0
 15 45  1  0
 16 46  1  0
 16 47  1  0
 17 48  1  0
 18 49  1  0
 18 50  1  0
 22 51  1  0
 22 52  1  0
 23 53  1  0
 23 54  1  0
 25 55  1  0
 26 56  1  0
 27 57  1  0
 28 58  1  0
 30 59  1  0
 30 60  1  0
 32 61  1  0
 32 62  1  0
M  END
>  <UniqueID>  (28) 
677

>  <SMILES>  (28) 
c1ccc2c(c1)CCN(c1nc([C@@H]3CCCNC3)nc(N3CCc4ccccc4C3)n1)C2

>  <Energy>  (28) 
76.83119391236505

>  <Genealogy>  (28) 
c1ccc2c(c1)CCN(c1nc([C@@H]3CCCNC3)nc(N3CCc4ccccc4C3)n1)C2 (chirality)
c1ccc2c(c1)CCN(c1nc([C@@H]3CCCNC3)nc(N3CCc4ccccc4C3)n1)C2 (3D coordinates assigned)
c1ccc2c(c1)CCN(c1nc([C@@H]3CCCNC3)nc(N3CCc4ccccc4C3)n1)C2 (nonaromatic ring conformer: 76.83119391236505 kcal/mol)

>  <smiles>  (28) 
c1ccc2c(c1)CCN(c1nc(C3CCCNC3)nc(N3CCc4ccccc4C3)n1)C2

>  <score_type>  (28) 
oracle

>  <origin>  (28) 
autodockgpu

>  <m_score__min__energy>  (28) 
-9.6400000000000006

>  <m_primary>  (28) 
energy

>  <meeko>  (28) 
{"free_energy": -9.61, "intermolecular_energy": -10.5, "internal_energy": -0.78, "cluster_size": 20, "cluster_id": 1, "rank_in_cluster": 7}

>  <energy>  (28) 
-9.6

>  <cluster_rmsd>  (28) 
0.04

>  <rmsd>  (28) 
272.06

>  <cluster>  (28) 
1

$$$$
ZPZIUNMFLXMAPV-OAQYLSRUNA-N
     RDKit          3D

 62 67  0  0  0  0  0  0  0  0999 V2000
  139.4370   81.1240  222.9610 C   0  0  0  0  0  0  0  0  0  0  0  0
  140.7260   80.8620  223.4280 C   0  0  0  0  0  0  0  0  0  0  0  0
  141.2560   79.5730  223.3390 C   0  0  0  0  0  0  0  0  0  0  0  0
  140.5050   78.5350  222.7660 C   0  0  0  0  0  0  0  0  0  0  0  0
  139.2070   78.8010  222.2890 C   0  0  0  0  0  0  0  0  0  0  0  0
  138.6750   80.0960  222.3980 C   0  0  0  0  0  0  0  0  0  0  0  0
  138.3820   77.6880  221.7160 C   0  0  0  0  0  0  0  0  0  0  0  0
  139.2740   76.7200  220.9440 C   0  0  0  0  0  0  0  0  0  0  0  0
  140.3780   76.2360  221.7900 N   0  0  0  0  0  0  0  0  0  0  0  0
  140.9030   74.9060  221.5950 C   0  0  0  0  0  0  0  0  0  0  0  0
  141.8650   74.6800  220.6620 N   0  0  0  0  0  0  0  0  0  0  0  0
  142.3550   73.4290  220.4660 C   0  0  0  0  0  0  0  0  0  0  0  0
  143.4390   73.1860  219.4500 C   0  0  2  0  0  0  0  0  0  0  0  0
  143.2400   71.8230  218.7510 C   0  0  0  0  0  0  0  0  0  0  0  0
  144.5580   71.2450  218.2030 C   0  0  0  0  0  0  0  0  0  0  0  0
  145.5690   72.3560  217.8950 C   0  0  0  0  0  0  0  0  0  0  0  0
  145.9260   73.1310  219.1000 N   0  0  0  0  0  0  0  0  0  0  0  0
  144.8390   73.2710  220.0920 C   0  0  0  0  0  0  0  0  0  0  0  0
  141.8910   72.4010  221.2210 N   0  0  0  0  0  0  0  0  0  0  0  0
  140.9290   72.6100  222.1580 C   0  0  0  0  0  0  0  0  0  0  0  0
  140.4260   71.5160  222.9520 N   0  0  0  0  0  0  0  0  0  0  0  0
  139.1980   70.8150  222.5410 C   0  0  0  0  0  0  0  0  0  0  0  0
  139.2500   69.3460  222.9490 C   0  0  0  0  0  0  0  0  0  0  0  0
  139.5190   69.2310  224.4190 C   0  0  0  0  0  0  0  0  0  0  0  0
  138.9460   68.1910  225.1690 C   0  0  0  0  0  0  0  0  0  0  0  0
  139.2240   68.0720  226.5330 C   0  0  0  0  0  0  0  0  0  0  0  0
  140.0850   68.9800  227.1530 C   0  0  0  0  0  0  0  0  0  0  0  0
  140.6720   70.0070  226.4110 C   0  0  0  0  0  0  0  0  0  0  0  0
  140.3890   70.1460  225.0420 C   0  0  0  0  0  0  0  0  0  0  0  0
  141.0700   71.2360  224.2490 C   0  0  0  0  0  0  0  0  0  0  0  0
  140.4390   73.8660  222.3360 N   0  0  0  0  0  0  0  0  0  0  0  0
  141.0760   77.1360  222.7280 C   0  0  0  0  0  0  0  0  0  0  0  0
  139.0207   82.1394  223.0360 H   0  0  0  0  0  0  0  0  0  0  0  0
  141.3258   81.6728  223.8672 H   0  0  0  0  0  0  0  0  0  0  0  0
  142.2677   79.3701  223.7201 H   0  0  0  0  0  0  0  0  0  0  0  0
  137.6558   80.3021  222.0393 H   0  0  0  0  0  0  0  0  0  0  0  0
  137.8807   77.1485  222.5331 H   0  0  0  0  0  0  0  0  0  0  0  0
  137.6315   78.1107  221.0318 H   0  0  0  0  0  0  0  0  0  0  0  0
  138.6716   75.8617  220.6118 H   0  0  0  0  0  0  0  0  0  0  0  0
  139.6996   77.2480  220.0780 H   0  0  0  0  0  0  0  0  0  0  0  0
  143.3691   73.9783  218.6902 H   0  0  0  0  0  0  0  0  0  0  0  0
  142.8176   71.1124  219.4767 H   0  0  0  0  0  0  0  0  0  0  0  0
  142.5629   71.9796  217.8984 H   0  0  0  0  0  0  0  0  0  0  0  0
  144.9900   70.5653  218.9523 H   0  0  0  0  0  0  0  0  0  0  0  0
  144.3389   70.7067  217.2691 H   0  0  0  0  0  0  0  0  0  0  0  0
  146.4816   71.9009  217.4826 H   0  0  0  0  0  0  0  0  0  0  0  0
  145.1059   73.0452  217.1735 H   0  0  0  0  0  0  0  0  0  0  0  0
  146.2240   74.0860  218.7930 H   0  0  0  0  0  0  0  0  0  0  0  0
  144.9351   72.4670  220.8365 H   0  0  0  0  0  0  0  0  0  0  0  0
  144.9348   74.2643  220.5549 H   0  0  0  0  0  0  0  0  0  0  0  0
  138.3319   71.2925  223.0225 H   0  0  0  0  0  0  0  0  0  0  0  0
  139.1083   70.8737  221.4462 H   0  0  0  0  0  0  0  0  0  0  0  0
  138.2863   68.8692  222.7167 H   0  0  0  0  0  0  0  0  0  0  0  0
  140.0574   68.8457  222.3942 H   0  0  0  0  0  0  0  0  0  0  0  0
  138.2761   67.4678  224.6809 H   0  0  0  0  0  0  0  0  0  0  0  0
  138.7643   67.2625  227.1190 H   0  0  0  0  0  0  0  0  0  0  0  0
  140.3011   68.8861  228.2275 H   0  0  0  0  0  0  0  0  0  0  0  0
  141.3601   70.7114  226.9013 H   0  0  0  0  0  0  0  0  0  0  0  0
  141.0606   72.1587  224.8478 H   0  0  0  0  0  0  0  0  0  0  0  0
  142.0903   70.8866  224.0326 H   0  0  0  0  0  0  0  0  0  0  0  0
  141.0080   76.7055  223.7380 H   0  0  0  0  0  0  0  0  0  0  0  0
  142.1152   77.2222  222.3778 H   0  0  0  0  0  0  0  0  0  0  0  0
  1  2  2  0
  2  3  1  0
  3  4  2  0
  4  5  1  0
  5  6  2  0
  5  7  1  0
  7  8  1  0
  8  9  1  0
  9 10  1  0
 10 11  2  0
 11 12  1  0
 12 13  1  0
 13 14  1  0
 14 15  1  0
 15 16  1  0
 16 17  1  0
 17 18  1  0
 12 19  2  0
 19 20  1  0
 20 21  1  0
 21 22  1  0
 22 23  1  0
 23 24  1  0
 24 25  2  0
 25 26  1  0
 26 27  2  0
 27 28  1  0
 28 29  2  0
 29 30  1  0
 20 31  2  0
  9 32  1  0
  6  1  1  0
 31 10  1  0
 32  4  1  0
 18 13  1  0
 30 21  1  0
 29 24  1  0
  1 33  1  0
  2 34  1  0
  3 35  1  0
  6 36  1  0
  7 37  1  0
  7 38  1  0
  8 39  1  0
  8 40  1  0
 13 41  1  6
 14 42  1  0
 14 43  1  0
 15 44  1  0
 15 45  1  0
 16 46  1  0
 16 47  1  0
 17 48  1  0
 18 49  1  0
 18 50  1  0
 22 51  1  0
 22 52  1  0
 23 53  1  0
 23 54  1  0
 25 55  1  0
 26 56  1  0
 27 57  1  0
 28 58  1  0
 30 59  1  0
 30 60  1  0
 32 61  1  0
 32 62  1  0
M  END
>  <UniqueID>  (29) 
677

>  <SMILES>  (29) 
c1ccc2c(c1)CCN(c1nc([C@@H]3CCCNC3)nc(N3CCc4ccccc4C3)n1)C2

>  <Energy>  (29) 
76.83119391236505

>  <Genealogy>  (29) 
c1ccc2c(c1)CCN(c1nc([C@@H]3CCCNC3)nc(N3CCc4ccccc4C3)n1)C2 (chirality)
c1ccc2c(c1)CCN(c1nc([C@@H]3CCCNC3)nc(N3CCc4ccccc4C3)n1)C2 (3D coordinates assigned)
c1ccc2c(c1)CCN(c1nc([C@@H]3CCCNC3)nc(N3CCc4ccccc4C3)n1)C2 (nonaromatic ring conformer: 76.83119391236505 kcal/mol)

>  <smiles>  (29) 
c1ccc2c(c1)CCN(c1nc(C3CCCNC3)nc(N3CCc4ccccc4C3)n1)C2

>  <score_type>  (29) 
oracle

>  <origin>  (29) 
autodockgpu

>  <m_score__min__energy>  (29) 
-9.6400000000000006

>  <m_primary>  (29) 
energy

>  <meeko>  (29) 
{"free_energy": -9.59, "intermolecular_energy": -10.49, "internal_energy": -0.78, "cluster_size": 20, "cluster_id": 1, "rank_in_cluster": 14}

>  <energy>  (29) 
-9.6

>  <cluster_rmsd>  (29) 
0.04

>  <rmsd>  (29) 
272.06

>  <cluster>  (29) 
1

$$$$
ZPZIUNMFLXMAPV-OAQYLSRUNA-N
     RDKit          3D

 62 67  0  0  0  0  0  0  0  0999 V2000
  139.4250   81.1490  222.9570 C   0  0  0  0  0  0  0  0  0  0  0  0
  140.7160   80.8900  223.4180 C   0  0  0  0  0  0  0  0  0  0  0  0
  141.2470   79.6010  223.3300 C   0  0  0  0  0  0  0  0  0  0  0  0
  140.4940   78.5610  222.7620 C   0  0  0  0  0  0  0  0  0  0  0  0
  139.1940   78.8250  222.2910 C   0  0  0  0  0  0  0  0  0  0  0  0
  138.6610   80.1200  222.4000 C   0  0  0  0  0  0  0  0  0  0  0  0
  138.3670   77.7100  221.7250 C   0  0  0  0  0  0  0  0  0  0  0  0
  139.2560   76.7410  220.9510 C   0  0  0  0  0  0  0  0  0  0  0  0
  140.3650   76.2600  221.7920 N   0  0  0  0  0  0  0  0  0  0  0  0
  140.8890   74.9300  221.5970 C   0  0  0  0  0  0  0  0  0  0  0  0
  141.8540   74.7040  220.6680 N   0  0  0  0  0  0  0  0  0  0  0  0
  142.3450   73.4530  220.4720 C   0  0  0  0  0  0  0  0  0  0  0  0
  143.4330   73.2110  219.4600 C   0  0  2  0  0  0  0  0  0  0  0  0
  143.2200   71.8610  218.7390 C   0  0  0  0  0  0  0  0  0  0  0  0
  144.5330   71.2740  218.1910 C   0  0  0  0  0  0  0  0  0  0  0  0
  145.5610   72.3760  217.9060 C   0  0  0  0  0  0  0  0  0  0  0  0
  145.9210   73.1270  219.1250 N   0  0  0  0  0  0  0  0  0  0  0  0
  144.8290   73.2670  220.1120 C   0  0  0  0  0  0  0  0  0  0  0  0
  141.8780   72.4240  221.2240 N   0  0  0  0  0  0  0  0  0  0  0  0
  140.9130   72.6330  222.1590 C   0  0  0  0  0  0  0  0  0  0  0  0
  140.4070   71.5390  222.9500 N   0  0  0  0  0  0  0  0  0  0  0  0
  139.1780   70.8410  222.5360 C   0  0  0  0  0  0  0  0  0  0  0  0
  139.2270   69.3710  222.9420 C   0  0  0  0  0  0  0  0  0  0  0  0
  139.4950   69.2520  224.4120 C   0  0  0  0  0  0  0  0  0  0  0  0
  138.9190   68.2120  225.1590 C   0  0  0  0  0  0  0  0  0  0  0  0
  139.1950   68.0900  226.5230 C   0  0  0  0  0  0  0  0  0  0  0  0
  140.0580   68.9950  227.1460 C   0  0  0  0  0  0  0  0  0  0  0  0
  140.6480   70.0220  226.4060 C   0  0  0  0  0  0  0  0  0  0  0  0
  140.3660   70.1640  225.0380 C   0  0  0  0  0  0  0  0  0  0  0  0
  141.0500   71.2550  224.2470 C   0  0  0  0  0  0  0  0  0  0  0  0
  140.4230   73.8890  222.3360 N   0  0  0  0  0  0  0  0  0  0  0  0
  141.0660   77.1630  222.7250 C   0  0  0  0  0  0  0  0  0  0  0  0
  139.0081   82.1642  223.0320 H   0  0  0  0  0  0  0  0  0  0  0  0
  141.3171   81.7027  223.8518 H   0  0  0  0  0  0  0  0  0  0  0  0
  142.2603   79.3997  223.7077 H   0  0  0  0  0  0  0  0  0  0  0  0
  137.6398   80.3246  222.0461 H   0  0  0  0  0  0  0  0  0  0  0  0
  137.8703   77.1720  222.5459 H   0  0  0  0  0  0  0  0  0  0  0  0
  137.6126   78.1303  221.0437 H   0  0  0  0  0  0  0  0  0  0  0  0
  138.6526   75.8813  220.6241 H   0  0  0  0  0  0  0  0  0  0  0  0
  139.6767   77.2676  220.0816 H   0  0  0  0  0  0  0  0  0  0  0  0
  143.3796   74.0160  218.7122 H   0  0  0  0  0  0  0  0  0  0  0  0
  142.7834   71.1454  219.4512 H   0  0  0  0  0  0  0  0  0  0  0  0
  142.5505   72.0394  217.8847 H   0  0  0  0  0  0  0  0  0  0  0  0
  144.9510   70.5774  218.9327 H   0  0  0  0  0  0  0  0  0  0  0  0
  144.3128   70.7528  217.2477 H   0  0  0  0  0  0  0  0  0  0  0  0
  146.4698   71.9150  217.4918 H   0  0  0  0  0  0  0  0  0  0  0  0
  145.1118   73.0826  217.1926 H   0  0  0  0  0  0  0  0  0  0  0  0
  146.2340   74.0820  218.8330 H   0  0  0  0  0  0  0  0  0  0  0  0
  144.9091   72.4506  220.8448 H   0  0  0  0  0  0  0  0  0  0  0  0
  144.9351   74.2518  220.5904 H   0  0  0  0  0  0  0  0  0  0  0  0
  138.3121   71.3193  223.0170 H   0  0  0  0  0  0  0  0  0  0  0  0
  139.0897   70.9017  221.4412 H   0  0  0  0  0  0  0  0  0  0  0  0
  138.2625   68.8965  222.7083 H   0  0  0  0  0  0  0  0  0  0  0  0
  140.0341   68.8706  222.3869 H   0  0  0  0  0  0  0  0  0  0  0  0
  138.2483   67.4910  224.6687 H   0  0  0  0  0  0  0  0  0  0  0  0
  138.7325   67.2807  227.1070 H   0  0  0  0  0  0  0  0  0  0  0  0
  140.2730   68.8985  228.2205 H   0  0  0  0  0  0  0  0  0  0  0  0
  141.3377   70.7237  226.8978 H   0  0  0  0  0  0  0  0  0  0  0  0
  141.0422   72.1765  224.8477 H   0  0  0  0  0  0  0  0  0  0  0  0
  142.0697   70.9040  224.0303 H   0  0  0  0  0  0  0  0  0  0  0  0
  141.0025   76.7349  223.7363 H   0  0  0  0  0  0  0  0  0  0  0  0
  142.1036   77.2494  222.3703 H   0  0  0  0  0  0  0  0  0  0  0  0
  1  2  2  0
  2  3  1  0
  3  4  2  0
  4  5  1  0
  5  6  2  0
  5  7  1  0
  7  8  1  0
  8  9  1  0
  9 10  1  0
 10 11  2  0
 11 12  1  0
 12 13  1  0
 13 14  1  0
 14 15  1  0
 15 16  1  0
 16 17  1  0
 17 18  1  0
 12 19  2  0
 19 20  1  0
 20 21  1  0
 21 22  1  0
 22 23  1  0
 23 24  1  0
 24 25  2  0
 25 26  1  0
 26 27  2  0
 27 28  1  0
 28 29  2  0
 29 30  1  0
 20 31  2  0
  9 32  1  0
  6  1  1  0
 31 10  1  0
 32  4  1  0
 18 13  1  0
 30 21  1  0
 29 24  1  0
  1 33  1  0
  2 34  1  0
  3 35  1  0
  6 36  1  0
  7 37  1  0
  7 38  1  0
  8 39  1  0
  8 40  1  0
 13 41  1  6
 14 42  1  0
 14 43  1  0
 15 44  1  0
 15 45  1  0
 16 46  1  0
 16 47  1  0
 17 48  1  0
 18 49  1  0
 18 50  1  0
 22 51  1  0
 22 52  1  0
 23 53  1  0
 23 54  1  0
 25 55  1  0
 26 56  1  0
 27 57  1  0
 28 58  1  0
 30 59  1  0
 30 60  1  0
 32 61  1  0
 32 62  1  0
M  END
>  <UniqueID>  (30) 
677

>  <SMILES>  (30) 
c1ccc2c(c1)CCN(c1nc([C@@H]3CCCNC3)nc(N3CCc4ccccc4C3)n1)C2

>  <Energy>  (30) 
76.83119391236505

>  <Genealogy>  (30) 
c1ccc2c(c1)CCN(c1nc([C@@H]3CCCNC3)nc(N3CCc4ccccc4C3)n1)C2 (chirality)
c1ccc2c(c1)CCN(c1nc([C@@H]3CCCNC3)nc(N3CCc4ccccc4C3)n1)C2 (3D coordinates assigned)
c1ccc2c(c1)CCN(c1nc([C@@H]3CCCNC3)nc(N3CCc4ccccc4C3)n1)C2 (nonaromatic ring conformer: 76.83119391236505 kcal/mol)

>  <smiles>  (30) 
c1ccc2c(c1)CCN(c1nc(C3CCCNC3)nc(N3CCc4ccccc4C3)n1)C2

>  <score_type>  (30) 
oracle

>  <origin>  (30) 
autodockgpu

>  <m_score__min__energy>  (30) 
-9.6400000000000006

>  <m_primary>  (30) 
energy

>  <meeko>  (30) 
{"free_energy": -9.6, "intermolecular_energy": -10.49, "internal_energy": -0.78, "cluster_size": 20, "cluster_id": 1, "rank_in_cluster": 12}

>  <energy>  (30) 
-9.6

>  <cluster_rmsd>  (30) 
0.06

>  <rmsd>  (30) 
272.07

>  <cluster>  (30) 
1

$$$$
ZPZIUNMFLXMAPV-OAQYLSRUNA-N
     RDKit          3D

 62 67  0  0  0  0  0  0  0  0999 V2000
  139.4170   81.1130  222.9440 C   0  0  0  0  0  0  0  0  0  0  0  0
  140.7150   80.8610  223.3920 C   0  0  0  0  0  0  0  0  0  0  0  0
  141.2490   79.5730  223.3050 C   0  0  0  0  0  0  0  0  0  0  0  0
  140.4930   78.5270  222.7510 C   0  0  0  0  0  0  0  0  0  0  0  0
  139.1870   78.7850  222.2930 C   0  0  0  0  0  0  0  0  0  0  0  0
  138.6510   80.0780  222.4010 C   0  0  0  0  0  0  0  0  0  0  0  0
  138.3580   77.6640  221.7420 C   0  0  0  0  0  0  0  0  0  0  0  0
  139.2410   76.6940  220.9630 C   0  0  0  0  0  0  0  0  0  0  0  0
  140.3610   76.2210  221.7940 N   0  0  0  0  0  0  0  0  0  0  0  0
  140.8880   74.8920  221.6000 C   0  0  0  0  0  0  0  0  0  0  0  0
  141.8480   74.6660  220.6660 N   0  0  0  0  0  0  0  0  0  0  0  0
  142.3410   73.4160  220.4710 C   0  0  0  0  0  0  0  0  0  0  0  0
  143.4230   73.1730  219.4530 C   0  0  2  0  0  0  0  0  0  0  0  0
  143.2420   71.7960  218.7780 C   0  0  0  0  0  0  0  0  0  0  0  0
  144.5650   71.2300  218.2320 C   0  0  0  0  0  0  0  0  0  0  0  0
  145.5570   72.3510  217.9000 C   0  0  0  0  0  0  0  0  0  0  0  0
  145.9090   73.1510  219.0900 N   0  0  0  0  0  0  0  0  0  0  0  0
  144.8250   73.2900  220.0860 C   0  0  0  0  0  0  0  0  0  0  0  0
  141.8810   72.3880  221.2290 N   0  0  0  0  0  0  0  0  0  0  0  0
  140.9200   72.5970  222.1680 C   0  0  0  0  0  0  0  0  0  0  0  0
  140.4220   71.5030  222.9660 N   0  0  0  0  0  0  0  0  0  0  0  0
  139.1940   70.7990  222.5590 C   0  0  0  0  0  0  0  0  0  0  0  0
  139.2500   69.3310  222.9710 C   0  0  0  0  0  0  0  0  0  0  0  0
  139.5240   69.2190  224.4400 C   0  0  0  0  0  0  0  0  0  0  0  0
  138.9550   68.1790  225.1930 C   0  0  0  0  0  0  0  0  0  0  0  0
  139.2370   68.0640  226.5560 C   0  0  0  0  0  0  0  0  0  0  0  0
  140.0980   68.9750  227.1730 C   0  0  0  0  0  0  0  0  0  0  0  0
  140.6810   70.0020  226.4270 C   0  0  0  0  0  0  0  0  0  0  0  0
  140.3940   70.1370  225.0590 C   0  0  0  0  0  0  0  0  0  0  0  0
  141.0710   71.2270  224.2620 C   0  0  0  0  0  0  0  0  0  0  0  0
  140.4280   73.8520  222.3450 N   0  0  0  0  0  0  0  0  0  0  0  0
  141.0700   77.1310  222.7150 C   0  0  0  0  0  0  0  0  0  0  0  0
  138.9970   82.1269  223.0185 H   0  0  0  0  0  0  0  0  0  0  0  0
  141.3184   81.6781  223.8143 H   0  0  0  0  0  0  0  0  0  0  0  0
  142.2671   79.3770  223.6724 H   0  0  0  0  0  0  0  0  0  0  0  0
  137.6252   80.2770  222.0573 H   0  0  0  0  0  0  0  0  0  0  0  0
  137.8726   77.1286  222.5713 H   0  0  0  0  0  0  0  0  0  0  0  0
  137.5948   78.0783  221.0668 H   0  0  0  0  0  0  0  0  0  0  0  0
  138.6368   75.8307  220.6475 H   0  0  0  0  0  0  0  0  0  0  0  0
  139.6500   77.2172  220.0861 H   0  0  0  0  0  0  0  0  0  0  0  0
  143.3364   73.9514  218.6806 H   0  0  0  0  0  0  0  0  0  0  0  0
  142.8351   71.0910  219.5179 H   0  0  0  0  0  0  0  0  0  0  0  0
  142.5578   71.9278  217.9269 H   0  0  0  0  0  0  0  0  0  0  0  0
  145.0116   70.5693  218.9896 H   0  0  0  0  0  0  0  0  0  0  0  0
  144.3489   70.6734  217.3081 H   0  0  0  0  0  0  0  0  0  0  0  0
  146.4741   71.9032  217.4896 H   0  0  0  0  0  0  0  0  0  0  0  0
  145.0793   73.0212  217.1702 H   0  0  0  0  0  0  0  0  0  0  0  0
  146.1900   74.1050  218.7650 H   0  0  0  0  0  0  0  0  0  0  0  0
  144.9376   72.4995  220.8426 H   0  0  0  0  0  0  0  0  0  0  0  0
  144.9077   74.2919  220.5326 H   0  0  0  0  0  0  0  0  0  0  0  0
  138.3280   71.2762  223.0410 H   0  0  0  0  0  0  0  0  0  0  0  0
  139.1015   70.8550  221.4643 H   0  0  0  0  0  0  0  0  0  0  0  0
  138.2864   68.8520  222.7430 H   0  0  0  0  0  0  0  0  0  0  0  0
  140.0569   68.8313  222.4149 H   0  0  0  0  0  0  0  0  0  0  0  0
  138.2856   67.4532  224.7081 H   0  0  0  0  0  0  0  0  0  0  0  0
  138.7804   67.2548  227.1448 H   0  0  0  0  0  0  0  0  0  0  0  0
  140.3170   68.8834  228.2471 H   0  0  0  0  0  0  0  0  0  0  0  0
  141.3688   70.7090  226.9139 H   0  0  0  0  0  0  0  0  0  0  0  0
  141.0617   72.1508  224.8590 H   0  0  0  0  0  0  0  0  0  0  0  0
  142.0915   70.8795  224.0434 H   0  0  0  0  0  0  0  0  0  0  0  0
  141.0195   76.7078  223.7291 H   0  0  0  0  0  0  0  0  0  0  0  0
  142.1035   77.2190  222.3487 H   0  0  0  0  0  0  0  0  0  0  0  0
  1  2  2  0
  2  3  1  0
  3  4  2  0
  4  5  1  0
  5  6  2  0
  5  7  1  0
  7  8  1  0
  8  9  1  0
  9 10  1  0
 10 11  2  0
 11 12  1  0
 12 13  1  0
 13 14  1  0
 14 15  1  0
 15 16  1  0
 16 17  1  0
 17 18  1  0
 12 19  2  0
 19 20  1  0
 20 21  1  0
 21 22  1  0
 22 23  1  0
 23 24  1  0
 24 25  2  0
 25 26  1  0
 26 27  2  0
 27 28  1  0
 28 29  2  0
 29 30  1  0
 20 31  2  0
  9 32  1  0
  6  1  1  0
 31 10  1  0
 32  4  1  0
 18 13  1  0
 30 21  1  0
 29 24  1  0
  1 33  1  0
  2 34  1  0
  3 35  1  0
  6 36  1  0
  7 37  1  0
  7 38  1  0
  8 39  1  0
  8 40  1  0
 13 41  1  6
 14 42  1  0
 14 43  1  0
 15 44  1  0
 15 45  1  0
 16 46  1  0
 16 47  1  0
 17 48  1  0
 18 49  1  0
 18 50  1  0
 22 51  1  0
 22 52  1  0
 23 53  1  0
 23 54  1  0
 25 55  1  0
 26 56  1  0
 27 57  1  0
 28 58  1  0
 30 59  1  0
 30 60  1  0
 32 61  1  0
 32 62  1  0
M  END
>  <UniqueID>  (31) 
677

>  <SMILES>  (31) 
c1ccc2c(c1)CCN(c1nc([C@@H]3CCCNC3)nc(N3CCc4ccccc4C3)n1)C2

>  <Energy>  (31) 
76.83119391236505

>  <Genealogy>  (31) 
c1ccc2c(c1)CCN(c1nc([C@@H]3CCCNC3)nc(N3CCc4ccccc4C3)n1)C2 (chirality)
c1ccc2c(c1)CCN(c1nc([C@@H]3CCCNC3)nc(N3CCc4ccccc4C3)n1)C2 (3D coordinates assigned)
c1ccc2c(c1)CCN(c1nc([C@@H]3CCCNC3)nc(N3CCc4ccccc4C3)n1)C2 (nonaromatic ring conformer: 76.83119391236505 kcal/mol)

>  <smiles>  (31) 
c1ccc2c(c1)CCN(c1nc(C3CCCNC3)nc(N3CCc4ccccc4C3)n1)C2

>  <score_type>  (31) 
oracle

>  <origin>  (31) 
autodockgpu

>  <m_score__min__energy>  (31) 
-9.6400000000000006

>  <m_primary>  (31) 
energy

>  <meeko>  (31) 
{"free_energy": -9.6, "intermolecular_energy": -10.49, "internal_energy": -0.78, "cluster_size": 20, "cluster_id": 1, "rank_in_cluster": 9}

>  <energy>  (31) 
-9.6

>  <cluster_rmsd>  (31) 
0.08

>  <rmsd>  (31) 
272.06

>  <cluster>  (31) 
1

$$$$
ZPZIUNMFLXMAPV-OAQYLSRUNA-N
     RDKit          3D

 62 67  0  0  0  0  0  0  0  0999 V2000
  139.4510   81.1510  222.8900 C   0  0  0  0  0  0  0  0  0  0  0  0
  140.7420   80.8920  223.3540 C   0  0  0  0  0  0  0  0  0  0  0  0
  141.2680   79.6000  223.2780 C   0  0  0  0  0  0  0  0  0  0  0  0
  140.5110   78.5570  222.7200 C   0  0  0  0  0  0  0  0  0  0  0  0
  139.2120   78.8220  222.2470 C   0  0  0  0  0  0  0  0  0  0  0  0
  138.6840   80.1200  222.3430 C   0  0  0  0  0  0  0  0  0  0  0  0
  138.3820   77.7040  221.6910 C   0  0  0  0  0  0  0  0  0  0  0  0
  139.2670   76.7250  220.9260 C   0  0  0  0  0  0  0  0  0  0  0  0
  140.3740   76.2480  221.7720 N   0  0  0  0  0  0  0  0  0  0  0  0
  140.8940   74.9150  221.5890 C   0  0  0  0  0  0  0  0  0  0  0  0
  141.8530   74.6750  220.6580 N   0  0  0  0  0  0  0  0  0  0  0  0
  142.3390   73.4210  220.4730 C   0  0  0  0  0  0  0  0  0  0  0  0
  143.4210   73.1640  219.4580 C   0  0  2  0  0  0  0  0  0  0  0  0
  143.2530   71.7670  218.8200 C   0  0  0  0  0  0  0  0  0  0  0  0
  144.5800   71.2020  218.2830 C   0  0  0  0  0  0  0  0  0  0  0  0
  145.5580   72.3260  217.9180 C   0  0  0  0  0  0  0  0  0  0  0  0
  145.9050   73.1600  219.0850 N   0  0  0  0  0  0  0  0  0  0  0  0
  144.8230   73.3140  220.0810 C   0  0  0  0  0  0  0  0  0  0  0  0
  141.8740   72.4020  221.2400 N   0  0  0  0  0  0  0  0  0  0  0  0
  140.9140   72.6250  222.1770 C   0  0  0  0  0  0  0  0  0  0  0  0
  140.4100   71.5400  222.9840 N   0  0  0  0  0  0  0  0  0  0  0  0
  139.1740   70.8450  222.5880 C   0  0  0  0  0  0  0  0  0  0  0  0
  139.2190   69.3790  223.0080 C   0  0  0  0  0  0  0  0  0  0  0  0
  139.4990   69.2740  224.4770 C   0  0  0  0  0  0  0  0  0  0  0  0
  138.9240   68.2440  225.2390 C   0  0  0  0  0  0  0  0  0  0  0  0
  139.2120   68.1340  226.6020 C   0  0  0  0  0  0  0  0  0  0  0  0
  140.0850   69.0410  227.2080 C   0  0  0  0  0  0  0  0  0  0  0  0
  140.6730   70.0580  226.4530 C   0  0  0  0  0  0  0  0  0  0  0  0
  140.3800   70.1870  225.0850 C   0  0  0  0  0  0  0  0  0  0  0  0
  141.0630   71.2660  224.2780 C   0  0  0  0  0  0  0  0  0  0  0  0
  140.4290   73.8840  222.3430 N   0  0  0  0  0  0  0  0  0  0  0  0
  141.0790   77.1570  222.6960 C   0  0  0  0  0  0  0  0  0  0  0  0
  139.0375   82.1682  222.9553 H   0  0  0  0  0  0  0  0  0  0  0  0
  141.3460   81.7066  223.7802 H   0  0  0  0  0  0  0  0  0  0  0  0
  142.2807   79.3985  223.6573 H   0  0  0  0  0  0  0  0  0  0  0  0
  137.6638   80.3250  221.9865 H   0  0  0  0  0  0  0  0  0  0  0  0
  137.8837   77.1752  222.5169 H   0  0  0  0  0  0  0  0  0  0  0  0
  137.6294   78.1206  221.0054 H   0  0  0  0  0  0  0  0  0  0  0  0
  138.6606   75.8645  220.6070 H   0  0  0  0  0  0  0  0  0  0  0  0
  139.6895   77.2416  220.0516 H   0  0  0  0  0  0  0  0  0  0  0  0
  143.3232   73.9212  218.6661 H   0  0  0  0  0  0  0  0  0  0  0  0
  142.8575   71.0771  219.5801 H   0  0  0  0  0  0  0  0  0  0  0  0
  142.5636   71.8685  217.9688 H   0  0  0  0  0  0  0  0  0  0  0  0
  145.0372   70.5661  219.0554 H   0  0  0  0  0  0  0  0  0  0  0  0
  144.3667   70.6192  217.3748 H   0  0  0  0  0  0  0  0  0  0  0  0
  146.4787   71.8784  217.5155 H   0  0  0  0  0  0  0  0  0  0  0  0
  145.0697   72.9716  217.1732 H   0  0  0  0  0  0  0  0  0  0  0  0
  146.1740   74.1090  218.7340 H   0  0  0  0  0  0  0  0  0  0  0  0
  144.9474   72.5460  220.8586 H   0  0  0  0  0  0  0  0  0  0  0  0
  144.8959   74.3288  220.4993 H   0  0  0  0  0  0  0  0  0  0  0  0
  138.3150   71.3327  223.0720 H   0  0  0  0  0  0  0  0  0  0  0  0
  139.0760   70.8956  221.4935 H   0  0  0  0  0  0  0  0  0  0  0  0
  138.2502   68.9071  222.7873 H   0  0  0  0  0  0  0  0  0  0  0  0
  140.0185   68.8686  222.4510 H   0  0  0  0  0  0  0  0  0  0  0  0
  138.2451   67.5219  224.7617 H   0  0  0  0  0  0  0  0  0  0  0  0
  138.7510   67.3327  227.1982 H   0  0  0  0  0  0  0  0  0  0  0  0
  140.3095   68.9539  228.2813 H   0  0  0  0  0  0  0  0  0  0  0  0
  141.3694   70.7620  226.9320 H   0  0  0  0  0  0  0  0  0  0  0  0
  141.0652   72.1935  224.8694 H   0  0  0  0  0  0  0  0  0  0  0  0
  142.0792   70.9079  224.0564 H   0  0  0  0  0  0  0  0  0  0  0  0
  141.0151   76.7386  223.7113 H   0  0  0  0  0  0  0  0  0  0  0  0
  142.1168   77.2366  222.3401 H   0  0  0  0  0  0  0  0  0  0  0  0
  1  2  2  0
  2  3  1  0
  3  4  2  0
  4  5  1  0
  5  6  2  0
  5  7  1  0
  7  8  1  0
  8  9  1  0
  9 10  1  0
 10 11  2  0
 11 12  1  0
 12 13  1  0
 13 14  1  0
 14 15  1  0
 15 16  1  0
 16 17  1  0
 17 18  1  0
 12 19  2  0
 19 20  1  0
 20 21  1  0
 21 22  1  0
 22 23  1  0
 23 24  1  0
 24 25  2  0
 25 26  1  0
 26 27  2  0
 27 28  1  0
 28 29  2  0
 29 30  1  0
 20 31  2  0
  9 32  1  0
  6  1  1  0
 31 10  1  0
 32  4  1  0
 18 13  1  0
 30 21  1  0
 29 24  1  0
  1 33  1  0
  2 34  1  0
  3 35  1  0
  6 36  1  0
  7 37  1  0
  7 38  1  0
  8 39  1  0
  8 40  1  0
 13 41  1  6
 14 42  1  0
 14 43  1  0
 15 44  1  0
 15 45  1  0
 16 46  1  0
 16 47  1  0
 17 48  1  0
 18 49  1  0
 18 50  1  0
 22 51  1  0
 22 52  1  0
 23 53  1  0
 23 54  1  0
 25 55  1  0
 26 56  1  0
 27 57  1  0
 28 58  1  0
 30 59  1  0
 30 60  1  0
 32 61  1  0
 32 62  1  0
M  END
>  <UniqueID>  (32) 
677

>  <SMILES>  (32) 
c1ccc2c(c1)CCN(c1nc([C@@H]3CCCNC3)nc(N3CCc4ccccc4C3)n1)C2

>  <Energy>  (32) 
76.83119391236505

>  <Genealogy>  (32) 
c1ccc2c(c1)CCN(c1nc([C@@H]3CCCNC3)nc(N3CCc4ccccc4C3)n1)C2 (chirality)
c1ccc2c(c1)CCN(c1nc([C@@H]3CCCNC3)nc(N3CCc4ccccc4C3)n1)C2 (3D coordinates assigned)
c1ccc2c(c1)CCN(c1nc([C@@H]3CCCNC3)nc(N3CCc4ccccc4C3)n1)C2 (nonaromatic ring conformer: 76.83119391236505 kcal/mol)

>  <smiles>  (32) 
c1ccc2c(c1)CCN(c1nc(C3CCCNC3)nc(N3CCc4ccccc4C3)n1)C2

>  <score_type>  (32) 
oracle

>  <origin>  (32) 
autodockgpu

>  <m_score__min__energy>  (32) 
-9.6400000000000006

>  <m_primary>  (32) 
energy

>  <meeko>  (32) 
{"free_energy": -9.6, "intermolecular_energy": -10.49, "internal_energy": -0.78, "cluster_size": 20, "cluster_id": 1, "rank_in_cluster": 10}

>  <energy>  (32) 
-9.6

>  <cluster_rmsd>  (32) 
0.04

>  <rmsd>  (32) 
272.06

>  <cluster>  (32) 
1

$$$$
ZPZIUNMFLXMAPV-OAQYLSRUNA-N
     RDKit          3D

 62 67  0  0  0  0  0  0  0  0999 V2000
  139.4630   81.0960  222.9140 C   0  0  0  0  0  0  0  0  0  0  0  0
  140.7590   80.8340  223.3620 C   0  0  0  0  0  0  0  0  0  0  0  0
  141.2830   79.5420  223.2780 C   0  0  0  0  0  0  0  0  0  0  0  0
  140.5180   78.5010  222.7290 C   0  0  0  0  0  0  0  0  0  0  0  0
  139.2130   78.7680  222.2710 C   0  0  0  0  0  0  0  0  0  0  0  0
  138.6880   80.0660  222.3750 C   0  0  0  0  0  0  0  0  0  0  0  0
  138.3740   77.6520  221.7250 C   0  0  0  0  0  0  0  0  0  0  0  0
  139.2480   76.6720  220.9480 C   0  0  0  0  0  0  0  0  0  0  0  0
  140.3650   76.1930  221.7800 N   0  0  0  0  0  0  0  0  0  0  0  0
  140.8810   74.8580  221.5900 C   0  0  0  0  0  0  0  0  0  0  0  0
  141.8340   74.6200  220.6530 N   0  0  0  0  0  0  0  0  0  0  0  0
  142.3170   73.3650  220.4620 C   0  0  0  0  0  0  0  0  0  0  0  0
  143.3920   73.1090  219.4400 C   0  0  2  0  0  0  0  0  0  0  0  0
  143.2010   71.7260  218.7780 C   0  0  0  0  0  0  0  0  0  0  0  0
  144.5190   71.1500  218.2290 C   0  0  0  0  0  0  0  0  0  0  0  0
  145.5130   72.2650  217.8820 C   0  0  0  0  0  0  0  0  0  0  0  0
  145.8750   73.0740  219.0620 N   0  0  0  0  0  0  0  0  0  0  0  0
  144.7980   73.2270  220.0630 C   0  0  0  0  0  0  0  0  0  0  0  0
  141.8520   72.3450  221.2270 N   0  0  0  0  0  0  0  0  0  0  0  0
  140.8980   72.5660  222.1700 C   0  0  0  0  0  0  0  0  0  0  0  0
  140.3950   71.4800  222.9750 N   0  0  0  0  0  0  0  0  0  0  0  0
  139.1520   70.7930  222.5860 C   0  0  0  0  0  0  0  0  0  0  0  0
  139.1940   69.3240  222.9980 C   0  0  0  0  0  0  0  0  0  0  0  0
  139.4850   69.2100  224.4640 C   0  0  0  0  0  0  0  0  0  0  0  0
  138.9110   68.1790  225.2260 C   0  0  0  0  0  0  0  0  0  0  0  0
  139.2100   68.0620  226.5850 C   0  0  0  0  0  0  0  0  0  0  0  0
  140.0910   68.9610  227.1890 C   0  0  0  0  0  0  0  0  0  0  0  0
  140.6780   69.9790  226.4340 C   0  0  0  0  0  0  0  0  0  0  0  0
  140.3750   70.1170  225.0700 C   0  0  0  0  0  0  0  0  0  0  0  0
  141.0570   71.1970  224.2630 C   0  0  0  0  0  0  0  0  0  0  0  0
  140.4170   73.8260  222.3420 N   0  0  0  0  0  0  0  0  0  0  0  0
  141.0820   77.1000  222.6970 C   0  0  0  0  0  0  0  0  0  0  0  0
  139.0518   82.1138  222.9854 H   0  0  0  0  0  0  0  0  0  0  0  0
  141.3691   81.6472  223.7822 H   0  0  0  0  0  0  0  0  0  0  0  0
  142.3003   79.3392  223.6439 H   0  0  0  0  0  0  0  0  0  0  0  0
  137.6637   80.2726  222.0312 H   0  0  0  0  0  0  0  0  0  0  0  0
  137.8854   77.1234  222.5568 H   0  0  0  0  0  0  0  0  0  0  0  0
  137.6132   78.0702  221.0495 H   0  0  0  0  0  0  0  0  0  0  0  0
  138.6364   75.8125  220.6362 H   0  0  0  0  0  0  0  0  0  0  0  0
  139.6601   77.1884  220.0685 H   0  0  0  0  0  0  0  0  0  0  0  0
  143.3042   73.8808  218.6611 H   0  0  0  0  0  0  0  0  0  0  0  0
  142.7958   71.0292  219.5265 H   0  0  0  0  0  0  0  0  0  0  0  0
  142.5119   71.8528  217.9300 H   0  0  0  0  0  0  0  0  0  0  0  0
  144.9676   70.4940  218.9896 H   0  0  0  0  0  0  0  0  0  0  0  0
  144.2957   70.5861  217.3113 H   0  0  0  0  0  0  0  0  0  0  0  0
  146.4261   71.8105  217.4701 H   0  0  0  0  0  0  0  0  0  0  0  0
  145.0328   72.9307  217.1497 H   0  0  0  0  0  0  0  0  0  0  0  0
  146.1580   74.0240  218.7270 H   0  0  0  0  0  0  0  0  0  0  0  0
  144.9123   72.4437  220.8268 H   0  0  0  0  0  0  0  0  0  0  0  0
  144.8872   74.2329  220.4991 H   0  0  0  0  0  0  0  0  0  0  0  0
  138.2996   71.2821  223.0802 H   0  0  0  0  0  0  0  0  0  0  0  0
  139.0444   70.8500  221.4928 H   0  0  0  0  0  0  0  0  0  0  0  0
  138.2215   68.8574  222.7825 H   0  0  0  0  0  0  0  0  0  0  0  0
  139.9869   68.8131  222.4320 H   0  0  0  0  0  0  0  0  0  0  0  0
  138.2246   67.4624  224.7513 H   0  0  0  0  0  0  0  0  0  0  0  0
  138.7504   67.2597  227.1810 H   0  0  0  0  0  0  0  0  0  0  0  0
  140.3230   68.8675  228.2602 H   0  0  0  0  0  0  0  0  0  0  0  0
  141.3819   70.6768  226.9109 H   0  0  0  0  0  0  0  0  0  0  0  0
  141.0679   72.1216  224.8588 H   0  0  0  0  0  0  0  0  0  0  0  0
  142.0700   70.8356  224.0321 H   0  0  0  0  0  0  0  0  0  0  0  0
  141.0284   76.6807  223.7126 H   0  0  0  0  0  0  0  0  0  0  0  0
  142.1158   77.1778  222.3293 H   0  0  0  0  0  0  0  0  0  0  0  0
  1  2  2  0
  2  3  1  0
  3  4  2  0
  4  5  1  0
  5  6  2  0
  5  7  1  0
  7  8  1  0
  8  9  1  0
  9 10  1  0
 10 11  2  0
 11 12  1  0
 12 13  1  0
 13 14  1  0
 14 15  1  0
 15 16  1  0
 16 17  1  0
 17 18  1  0
 12 19  2  0
 19 20  1  0
 20 21  1  0
 21 22  1  0
 22 23  1  0
 23 24  1  0
 24 25  2  0
 25 26  1  0
 26 27  2  0
 27 28  1  0
 28 29  2  0
 29 30  1  0
 20 31  2  0
  9 32  1  0
  6  1  1  0
 31 10  1  0
 32  4  1  0
 18 13  1  0
 30 21  1  0
 29 24  1  0
  1 33  1  0
  2 34  1  0
  3 35  1  0
  6 36  1  0
  7 37  1  0
  7 38  1  0
  8 39  1  0
  8 40  1  0
 13 41  1  6
 14 42  1  0
 14 43  1  0
 15 44  1  0
 15 45  1  0
 16 46  1  0
 16 47  1  0
 17 48  1  0
 18 49  1  0
 18 50  1  0
 22 51  1  0
 22 52  1  0
 23 53  1  0
 23 54  1  0
 25 55  1  0
 26 56  1  0
 27 57  1  0
 28 58  1  0
 30 59  1  0
 30 60  1  0
 32 61  1  0
 32 62  1  0
M  END
>  <UniqueID>  (33) 
677

>  <SMILES>  (33) 
c1ccc2c(c1)CCN(c1nc([C@@H]3CCCNC3)nc(N3CCc4ccccc4C3)n1)C2

>  <Energy>  (33) 
76.83119391236505

>  <Genealogy>  (33) 
c1ccc2c(c1)CCN(c1nc([C@@H]3CCCNC3)nc(N3CCc4ccccc4C3)n1)C2 (chirality)
c1ccc2c(c1)CCN(c1nc([C@@H]3CCCNC3)nc(N3CCc4ccccc4C3)n1)C2 (3D coordinates assigned)
c1ccc2c(c1)CCN(c1nc([C@@H]3CCCNC3)nc(N3CCc4ccccc4C3)n1)C2 (nonaromatic ring conformer: 76.83119391236505 kcal/mol)

>  <smiles>  (33) 
c1ccc2c(c1)CCN(c1nc(C3CCCNC3)nc(N3CCc4ccccc4C3)n1)C2

>  <score_type>  (33) 
oracle

>  <origin>  (33) 
autodockgpu

>  <m_score__min__energy>  (33) 
-9.6400000000000006

>  <m_primary>  (33) 
energy

>  <meeko>  (33) 
{"free_energy": -9.59, "intermolecular_energy": -10.49, "internal_energy": -0.78, "cluster_size": 20, "cluster_id": 1, "rank_in_cluster": 13}

>  <energy>  (33) 
-9.59

>  <cluster_rmsd>  (33) 
0.06

>  <rmsd>  (33) 
272.04

>  <cluster>  (33) 
1

$$$$
ZPZIUNMFLXMAPV-OAQYLSRUNA-N
     RDKit          3D

 62 67  0  0  0  0  0  0  0  0999 V2000
  139.1980   68.1060  226.7210 C   0  0  0  0  0  0  0  0  0  0  0  0
  140.0720   69.0210  227.3100 C   0  0  0  0  0  0  0  0  0  0  0  0
  140.6610   70.0260  226.5380 C   0  0  0  0  0  0  0  0  0  0  0  0
  140.3660   70.1330  225.1700 C   0  0  0  0  0  0  0  0  0  0  0  0
  139.4790   69.2140  224.5780 C   0  0  0  0  0  0  0  0  0  0  0  0
  138.9050   68.1960  225.3570 C   0  0  0  0  0  0  0  0  0  0  0  0
  139.1950   69.2950  223.1090 C   0  0  0  0  0  0  0  0  0  0  0  0
  139.1610   70.7540  222.6620 C   0  0  0  0  0  0  0  0  0  0  0  0
  140.4020   71.4480  223.0430 N   0  0  0  0  0  0  0  0  0  0  0  0
  140.9130   72.5130  222.2150 C   0  0  0  0  0  0  0  0  0  0  0  0
  141.8830   72.2610  221.2980 N   0  0  0  0  0  0  0  0  0  0  0  0
  142.3760   73.2610  220.5220 C   0  0  0  0  0  0  0  0  0  0  0  0
  143.4330   72.9740  219.4890 C   0  0  2  0  0  0  0  0  0  0  0  0
  143.3020   71.5310  218.9560 C   0  0  0  0  0  0  0  0  0  0  0  0
  144.6330   70.9810  218.4130 C   0  0  0  0  0  0  0  0  0  0  0  0
  145.5510   72.1120  217.9360 C   0  0  0  0  0  0  0  0  0  0  0  0
  145.9020   73.0400  219.0300 N   0  0  0  0  0  0  0  0  0  0  0  0
  144.8480   73.2220  220.0500 C   0  0  0  0  0  0  0  0  0  0  0  0
  141.8810   74.5180  220.6530 N   0  0  0  0  0  0  0  0  0  0  0  0
  140.9090   74.7860  221.5650 C   0  0  0  0  0  0  0  0  0  0  0  0
  140.3910   76.1240  221.7140 N   0  0  0  0  0  0  0  0  0  0  0  0
  139.2910   76.5850  220.8500 C   0  0  0  0  0  0  0  0  0  0  0  0
  138.4040   77.5840  221.5890 C   0  0  0  0  0  0  0  0  0  0  0  0
  139.2350   78.7120  222.1220 C   0  0  0  0  0  0  0  0  0  0  0  0
  138.7140   80.0150  222.1780 C   0  0  0  0  0  0  0  0  0  0  0  0
  139.4830   81.0560  222.7020 C   0  0  0  0  0  0  0  0  0  0  0  0
  140.7680   80.8020  223.1870 C   0  0  0  0  0  0  0  0  0  0  0  0
  141.2870   79.5060  223.1500 C   0  0  0  0  0  0  0  0  0  0  0  0
  140.5290   78.4530  222.6110 C   0  0  0  0  0  0  0  0  0  0  0  0
  141.0920   77.0510  222.6230 C   0  0  0  0  0  0  0  0  0  0  0  0
  140.4330   73.7780  222.3430 N   0  0  0  0  0  0  0  0  0  0  0  0
  141.0550   71.1930  224.3420 C   0  0  0  0  0  0  0  0  0  0  0  0
  138.7394   67.3134  227.3305 H   0  0  0  0  0  0  0  0  0  0  0  0
  140.2977   68.9509  228.3843 H   0  0  0  0  0  0  0  0  0  0  0  0
  141.3591   70.7365  227.0047 H   0  0  0  0  0  0  0  0  0  0  0  0
  138.2234   67.4680  224.8929 H   0  0  0  0  0  0  0  0  0  0  0  0
  139.9833   68.7632  222.5560 H   0  0  0  0  0  0  0  0  0  0  0  0
  138.2181   68.8326  222.9047 H   0  0  0  0  0  0  0  0  0  0  0  0
  139.0472   70.7933  221.5686 H   0  0  0  0  0  0  0  0  0  0  0  0
  138.3133   71.2532  223.1541 H   0  0  0  0  0  0  0  0  0  0  0  0
  143.2775   73.6683  218.6501 H   0  0  0  0  0  0  0  0  0  0  0  0
  142.9600   70.8818  219.7755 H   0  0  0  0  0  0  0  0  0  0  0  0
  142.5819   71.5455  218.1246 H   0  0  0  0  0  0  0  0  0  0  0  0
  145.1410   70.4200  219.2113 H   0  0  0  0  0  0  0  0  0  0  0  0
  144.4141   70.3273  217.5558 H   0  0  0  0  0  0  0  0  0  0  0  0
  146.4754   71.6727  217.5330 H   0  0  0  0  0  0  0  0  0  0  0  0
  145.0127   72.6838  217.1658 H   0  0  0  0  0  0  0  0  0  0  0  0
  146.1200   73.9710  218.6040 H   0  0  0  0  0  0  0  0  0  0  0  0
  145.0293   72.5163  220.8741 H   0  0  0  0  0  0  0  0  0  0  0  0
  144.8927   74.2660  220.3937 H   0  0  0  0  0  0  0  0  0  0  0  0
  139.7126   77.0689  219.9566 H   0  0  0  0  0  0  0  0  0  0  0  0
  138.6804   75.7164  220.5626 H   0  0  0  0  0  0  0  0  0  0  0  0
  137.6495   77.9836  220.8955 H   0  0  0  0  0  0  0  0  0  0  0  0
  137.9074   77.0741  222.4277 H   0  0  0  0  0  0  0  0  0  0  0  0
  137.6977   80.2159  221.8082 H   0  0  0  0  0  0  0  0  0  0  0  0
  139.0763   82.0776  222.7329 H   0  0  0  0  0  0  0  0  0  0  0  0
  141.3721   81.6240  223.5987 H   0  0  0  0  0  0  0  0  0  0  0  0
  142.2945   79.3086  223.5449 H   0  0  0  0  0  0  0  0  0  0  0  0
  142.1493   77.0985  222.3233 H   0  0  0  0  0  0  0  0  0  0  0  0
  140.9628   76.6608  223.6433 H   0  0  0  0  0  0  0  0  0  0  0  0
  142.0890   70.8687  224.1533 H   0  0  0  0  0  0  0  0  0  0  0  0
  141.0075   72.1305  224.9155 H   0  0  0  0  0  0  0  0  0  0  0  0
  1  2  2  0
  2  3  1  0
  3  4  2  0
  4  5  1  0
  5  6  2  0
  5  7  1  0
  7  8  1  0
  8  9  1  0
  9 10  1  0
 10 11  2  0
 11 12  1  0
 12 13  1  0
 13 14  1  0
 14 15  1  0
 15 16  1  0
 16 17  1  0
 17 18  1  0
 12 19  2  0
 19 20  1  0
 20 21  1  0
 21 22  1  0
 22 23  1  0
 23 24  1  0
 24 25  2  0
 25 26  1  0
 26 27  2  0
 27 28  1  0
 28 29  2  0
 29 30  1  0
 20 31  2  0
  9 32  1  0
  6  1  1  0
 31 10  1  0
 32  4  1  0
 18 13  1  0
 30 21  1  0
 29 24  1  0
  1 33  1  0
  2 34  1  0
  3 35  1  0
  6 36  1  0
  7 37  1  0
  7 38  1  0
  8 39  1  0
  8 40  1  0
 13 41  1  6
 14 42  1  0
 14 43  1  0
 15 44  1  0
 15 45  1  0
 16 46  1  0
 16 47  1  0
 17 48  1  0
 18 49  1  0
 18 50  1  0
 22 51  1  0
 22 52  1  0
 23 53  1  0
 23 54  1  0
 25 55  1  0
 26 56  1  0
 27 57  1  0
 28 58  1  0
 30 59  1  0
 30 60  1  0
 32 61  1  0
 32 62  1  0
M  END
>  <UniqueID>  (34) 
677

>  <SMILES>  (34) 
c1ccc2c(c1)CCN(c1nc([C@@H]3CCCNC3)nc(N3CCc4ccccc4C3)n1)C2

>  <Energy>  (34) 
76.83119391236505

>  <Genealogy>  (34) 
c1ccc2c(c1)CCN(c1nc([C@@H]3CCCNC3)nc(N3CCc4ccccc4C3)n1)C2 (chirality)
c1ccc2c(c1)CCN(c1nc([C@@H]3CCCNC3)nc(N3CCc4ccccc4C3)n1)C2 (3D coordinates assigned)
c1ccc2c(c1)CCN(c1nc([C@@H]3CCCNC3)nc(N3CCc4ccccc4C3)n1)C2 (nonaromatic ring conformer: 76.83119391236505 kcal/mol)

>  <smiles>  (34) 
c1ccc2c(c1)CCN(c1nc(C3CCCNC3)nc(N3CCc4ccccc4C3)n1)C2

>  <score_type>  (34) 
oracle

>  <origin>  (34) 
autodockgpu

>  <m_score__min__energy>  (34) 
-9.6400000000000006

>  <m_primary>  (34) 
energy

>  <meeko>  (34) 
{"free_energy": -9.59, "intermolecular_energy": -10.48, "internal_energy": -0.78, "cluster_size": 20, "cluster_id": 1, "rank_in_cluster": 16}

>  <energy>  (34) 
-9.59

>  <cluster_rmsd>  (34) 
0.03

>  <rmsd>  (34) 
272.06

>  <cluster>  (34) 
1

$$$$
ZPZIUNMFLXMAPV-OAQYLSRUNA-N
     RDKit          3D

 62 67  0  0  0  0  0  0  0  0999 V2000
  139.2120   68.1600  226.6860 C   0  0  0  0  0  0  0  0  0  0  0  0
  140.0880   69.0710  227.2790 C   0  0  0  0  0  0  0  0  0  0  0  0
  140.6790   70.0780  226.5110 C   0  0  0  0  0  0  0  0  0  0  0  0
  140.3840   70.1910  225.1430 C   0  0  0  0  0  0  0  0  0  0  0  0
  139.4950   69.2760  224.5480 C   0  0  0  0  0  0  0  0  0  0  0  0
  138.9190   68.2560  225.3230 C   0  0  0  0  0  0  0  0  0  0  0  0
  139.2100   69.3630  223.0790 C   0  0  0  0  0  0  0  0  0  0  0  0
  139.1790   70.8240  222.6380 C   0  0  0  0  0  0  0  0  0  0  0  0
  140.4220   71.5140  223.0220 N   0  0  0  0  0  0  0  0  0  0  0  0
  140.9350   72.5810  222.1970 C   0  0  0  0  0  0  0  0  0  0  0  0
  141.9000   72.3300  221.2740 N   0  0  0  0  0  0  0  0  0  0  0  0
  142.3950   73.3310  220.5020 C   0  0  0  0  0  0  0  0  0  0  0  0
  143.4460   73.0450  219.4630 C   0  0  2  0  0  0  0  0  0  0  0  0
  143.2810   71.6190  218.8940 C   0  0  0  0  0  0  0  0  0  0  0  0
  144.5990   71.0510  218.3380 C   0  0  0  0  0  0  0  0  0  0  0  0
  145.5450   72.1720  217.8910 C   0  0  0  0  0  0  0  0  0  0  0  0
  145.9160   73.0640  219.0070 N   0  0  0  0  0  0  0  0  0  0  0  0
  144.8660   73.2450  220.0310 C   0  0  0  0  0  0  0  0  0  0  0  0
  141.9060   74.5900  220.6430 N   0  0  0  0  0  0  0  0  0  0  0  0
  140.9400   74.8580  221.5610 C   0  0  0  0  0  0  0  0  0  0  0  0
  140.4290   76.1980  221.7200 N   0  0  0  0  0  0  0  0  0  0  0  0
  139.4160   76.7120  220.7830 C   0  0  0  0  0  0  0  0  0  0  0  0
  138.4820   77.6960  221.4820 C   0  0  0  0  0  0  0  0  0  0  0  0
  139.2780   78.7870  222.1320 C   0  0  0  0  0  0  0  0  0  0  0  0
  138.7720   80.0950  222.1970 C   0  0  0  0  0  0  0  0  0  0  0  0
  139.5060   81.1010  222.8300 C   0  0  0  0  0  0  0  0  0  0  0  0
  140.7400   80.8050  223.4140 C   0  0  0  0  0  0  0  0  0  0  0  0
  141.2420   79.5030  223.3680 C   0  0  0  0  0  0  0  0  0  0  0  0
  140.5200   78.4860  222.7220 C   0  0  0  0  0  0  0  0  0  0  0  0
  141.0600   77.0750  222.7240 C   0  0  0  0  0  0  0  0  0  0  0  0
  140.4620   73.8480  222.3350 N   0  0  0  0  0  0  0  0  0  0  0  0
  141.0750   71.2530  224.3190 C   0  0  0  0  0  0  0  0  0  0  0  0
  138.7519   67.3658  227.2923 H   0  0  0  0  0  0  0  0  0  0  0  0
  140.3135   68.9961  228.3530 H   0  0  0  0  0  0  0  0  0  0  0  0
  141.3785   70.7853  226.9805 H   0  0  0  0  0  0  0  0  0  0  0  0
  138.2359   67.5312  224.8561 H   0  0  0  0  0  0  0  0  0  0  0  0
  139.9967   68.8316  222.5234 H   0  0  0  0  0  0  0  0  0  0  0  0
  138.2320   68.9033  222.8734 H   0  0  0  0  0  0  0  0  0  0  0  0
  139.0653   70.8681  221.5448 H   0  0  0  0  0  0  0  0  0  0  0  0
  138.3323   71.3230  223.1322 H   0  0  0  0  0  0  0  0  0  0  0  0
  143.3084   73.7637  218.6417 H   0  0  0  0  0  0  0  0  0  0  0  0
  142.9227   70.9579  219.6969 H   0  0  0  0  0  0  0  0  0  0  0  0
  142.5623   71.6715  218.0629 H   0  0  0  0  0  0  0  0  0  0  0  0
  145.0922   70.4574  219.1219 H   0  0  0  0  0  0  0  0  0  0  0  0
  144.3656   70.4250  217.4641 H   0  0  0  0  0  0  0  0  0  0  0  0
  146.4595   71.7209  217.4786 H   0  0  0  0  0  0  0  0  0  0  0  0
  145.0214   72.7755  217.1349 H   0  0  0  0  0  0  0  0  0  0  0  0
  146.1570   73.9990  218.6050 H   0  0  0  0  0  0  0  0  0  0  0  0
  145.0296   72.5145  220.8370 H   0  0  0  0  0  0  0  0  0  0  0  0
  144.9352   74.2784  220.4015 H   0  0  0  0  0  0  0  0  0  0  0  0
  139.9212   77.2234  219.9504 H   0  0  0  0  0  0  0  0  0  0  0  0
  138.8209   75.8663  220.4079 H   0  0  0  0  0  0  0  0  0  0  0  0
  137.7973   78.1363  220.7421 H   0  0  0  0  0  0  0  0  0  0  0  0
  137.9065   77.1617  222.2523 H   0  0  0  0  0  0  0  0  0  0  0  0
  137.7951   80.3282  221.7484 H   0  0  0  0  0  0  0  0  0  0  0  0
  139.1119   82.1272  222.8686 H   0  0  0  0  0  0  0  0  0  0  0  0
  141.3170   81.5989  223.9108 H   0  0  0  0  0  0  0  0  0  0  0  0
  142.2083   79.2724  223.8403 H   0  0  0  0  0  0  0  0  0  0  0  0
  142.1401   77.1161  222.5197 H   0  0  0  0  0  0  0  0  0  0  0  0
  140.8361   76.6462  223.7119 H   0  0  0  0  0  0  0  0  0  0  0  0
  142.1083   70.9274  224.1285 H   0  0  0  0  0  0  0  0  0  0  0  0
  141.0299   72.1883  224.8962 H   0  0  0  0  0  0  0  0  0  0  0  0
  1  2  2  0
  2  3  1  0
  3  4  2  0
  4  5  1  0
  5  6  2  0
  5  7  1  0
  7  8  1  0
  8  9  1  0
  9 10  1  0
 10 11  2  0
 11 12  1  0
 12 13  1  0
 13 14  1  0
 14 15  1  0
 15 16  1  0
 16 17  1  0
 17 18  1  0
 12 19  2  0
 19 20  1  0
 20 21  1  0
 21 22  1  0
 22 23  1  0
 23 24  1  0
 24 25  2  0
 25 26  1  0
 26 27  2  0
 27 28  1  0
 28 29  2  0
 29 30  1  0
 20 31  2  0
  9 32  1  0
  6  1  1  0
 31 10  1  0
 32  4  1  0
 18 13  1  0
 30 21  1  0
 29 24  1  0
  1 33  1  0
  2 34  1  0
  3 35  1  0
  6 36  1  0
  7 37  1  0
  7 38  1  0
  8 39  1  0
  8 40  1  0
 13 41  1  6
 14 42  1  0
 14 43  1  0
 15 44  1  0
 15 45  1  0
 16 46  1  0
 16 47  1  0
 17 48  1  0
 18 49  1  0
 18 50  1  0
 22 51  1  0
 22 52  1  0
 23 53  1  0
 23 54  1  0
 25 55  1  0
 26 56  1  0
 27 57  1  0
 28 58  1  0
 30 59  1  0
 30 60  1  0
 32 61  1  0
 32 62  1  0
M  END
>  <UniqueID>  (35) 
677

>  <SMILES>  (35) 
c1ccc2c(c1)CCN(c1nc([C@@H]3CCCNC3)nc(N3CCc4ccccc4C3)n1)C2

>  <Energy>  (35) 
76.83119391236505

>  <Genealogy>  (35) 
c1ccc2c(c1)CCN(c1nc([C@@H]3CCCNC3)nc(N3CCc4ccccc4C3)n1)C2 (chirality)
c1ccc2c(c1)CCN(c1nc([C@@H]3CCCNC3)nc(N3CCc4ccccc4C3)n1)C2 (3D coordinates assigned)
c1ccc2c(c1)CCN(c1nc([C@@H]3CCCNC3)nc(N3CCc4ccccc4C3)n1)C2 (nonaromatic ring conformer: 76.83119391236505 kcal/mol)

>  <smiles>  (35) 
c1ccc2c(c1)CCN(c1nc(C3CCCNC3)nc(N3CCc4ccccc4C3)n1)C2

>  <score_type>  (35) 
oracle

>  <origin>  (35) 
autodockgpu

>  <m_score__min__energy>  (35) 
-9.6400000000000006

>  <m_primary>  (35) 
energy

>  <meeko>  (35) 
{"free_energy": -9.61, "intermolecular_energy": -10.5, "internal_energy": -0.78, "cluster_size": 20, "cluster_id": 1, "rank_in_cluster": 5}

>  <energy>  (35) 
-9.59

>  <cluster_rmsd>  (35) 
0.06

>  <rmsd>  (35) 
272.03

>  <cluster>  (35) 
1

$$$$
ZPZIUNMFLXMAPV-OAQYLSRUNA-N
     RDKit          3D

 62 67  0  0  0  0  0  0  0  0999 V2000
  139.4290   81.1340  222.9590 C   0  0  0  0  0  0  0  0  0  0  0  0
  140.7260   80.8770  223.4060 C   0  0  0  0  0  0  0  0  0  0  0  0
  141.2560   79.5870  223.3150 C   0  0  0  0  0  0  0  0  0  0  0  0
  140.4970   78.5450  222.7590 C   0  0  0  0  0  0  0  0  0  0  0  0
  139.1910   78.8080  222.3020 C   0  0  0  0  0  0  0  0  0  0  0  0
  138.6590   80.1030  222.4140 C   0  0  0  0  0  0  0  0  0  0  0  0
  138.3580   77.6910  221.7490 C   0  0  0  0  0  0  0  0  0  0  0  0
  139.2380   76.7200  220.9670 C   0  0  0  0  0  0  0  0  0  0  0  0
  140.3570   76.2420  221.7970 N   0  0  0  0  0  0  0  0  0  0  0  0
  140.8790   74.9120  221.6000 C   0  0  0  0  0  0  0  0  0  0  0  0
  141.8370   74.6840  220.6630 N   0  0  0  0  0  0  0  0  0  0  0  0
  142.3250   73.4330  220.4650 C   0  0  0  0  0  0  0  0  0  0  0  0
  143.4050   73.1890  219.4440 C   0  0  2  0  0  0  0  0  0  0  0  0
  143.1990   71.8280  218.7440 C   0  0  0  0  0  0  0  0  0  0  0  0
  144.5120   71.2470  218.1880 C   0  0  0  0  0  0  0  0  0  0  0  0
  145.5250   72.3560  217.8780 C   0  0  0  0  0  0  0  0  0  0  0  0
  145.8900   73.1270  219.0830 N   0  0  0  0  0  0  0  0  0  0  0  0
  144.8070   73.2680  220.0800 C   0  0  0  0  0  0  0  0  0  0  0  0
  141.8640   72.4050  221.2220 N   0  0  0  0  0  0  0  0  0  0  0  0
  140.9070   72.6160  222.1640 C   0  0  0  0  0  0  0  0  0  0  0  0
  140.4070   71.5220  222.9610 N   0  0  0  0  0  0  0  0  0  0  0  0
  139.1740   70.8250  222.5590 C   0  0  0  0  0  0  0  0  0  0  0  0
  139.2260   69.3550  222.9660 C   0  0  0  0  0  0  0  0  0  0  0  0
  139.5060   69.2380  224.4340 C   0  0  0  0  0  0  0  0  0  0  0  0
  138.9360   68.1990  225.1870 C   0  0  0  0  0  0  0  0  0  0  0  0
  139.2240   68.0790  226.5480 C   0  0  0  0  0  0  0  0  0  0  0  0
  140.0920   68.9840  227.1630 C   0  0  0  0  0  0  0  0  0  0  0  0
  140.6760   70.0100  226.4170 C   0  0  0  0  0  0  0  0  0  0  0  0
  140.3830   70.1500  225.0510 C   0  0  0  0  0  0  0  0  0  0  0  0
  141.0610   71.2400  224.2530 C   0  0  0  0  0  0  0  0  0  0  0  0
  140.4190   73.8720  222.3440 N   0  0  0  0  0  0  0  0  0  0  0  0
  141.0690   77.1470  222.7190 C   0  0  0  0  0  0  0  0  0  0  0  0
  139.0125   82.1492  223.0358 H   0  0  0  0  0  0  0  0  0  0  0  0
  141.3320   81.6910  223.8306 H   0  0  0  0  0  0  0  0  0  0  0  0
  142.2738   79.3869  223.6812 H   0  0  0  0  0  0  0  0  0  0  0  0
  137.6335   80.3062  222.0718 H   0  0  0  0  0  0  0  0  0  0  0  0
  137.8714   77.1551  222.5773 H   0  0  0  0  0  0  0  0  0  0  0  0
  137.5955   78.1091  221.0754 H   0  0  0  0  0  0  0  0  0  0  0  0
  138.6312   75.8591  220.6497 H   0  0  0  0  0  0  0  0  0  0  0  0
  139.6481   77.2438  220.0909 H   0  0  0  0  0  0  0  0  0  0  0  0
  143.3348   73.9834  218.6863 H   0  0  0  0  0  0  0  0  0  0  0  0
  142.7785   71.1174  219.4708 H   0  0  0  0  0  0  0  0  0  0  0  0
  142.5181   71.9881  217.8951 H   0  0  0  0  0  0  0  0  0  0  0  0
  144.9455   70.5639  218.9333 H   0  0  0  0  0  0  0  0  0  0  0  0
  144.2866   70.7116  217.2539 H   0  0  0  0  0  0  0  0  0  0  0  0
  146.4343   71.8992  217.4602 H   0  0  0  0  0  0  0  0  0  0  0  0
  145.0605   73.0484  217.1605 H   0  0  0  0  0  0  0  0  0  0  0  0
  146.1890   74.0810  218.7760 H   0  0  0  0  0  0  0  0  0  0  0  0
  144.9036   72.4618  220.8221 H   0  0  0  0  0  0  0  0  0  0  0  0
  144.9077   74.2599  220.5448 H   0  0  0  0  0  0  0  0  0  0  0  0
  138.3129   71.3044  223.0476 H   0  0  0  0  0  0  0  0  0  0  0  0
  139.0753   70.8850  221.4651 H   0  0  0  0  0  0  0  0  0  0  0  0
  138.2595   68.8804  222.7407 H   0  0  0  0  0  0  0  0  0  0  0  0
  140.0282   68.8536  222.4048 H   0  0  0  0  0  0  0  0  0  0  0  0
  138.2608   67.4777  224.7035 H   0  0  0  0  0  0  0  0  0  0  0  0
  138.7665   67.2703  227.1368 H   0  0  0  0  0  0  0  0  0  0  0  0
  140.3158   68.8885  228.2358 H   0  0  0  0  0  0  0  0  0  0  0  0
  141.3695   70.7125  226.9024 H   0  0  0  0  0  0  0  0  0  0  0  0
  141.0583   72.1623  224.8524 H   0  0  0  0  0  0  0  0  0  0  0  0
  142.0790   70.8888  224.0286 H   0  0  0  0  0  0  0  0  0  0  0  0
  141.0178   76.7215  223.7321 H   0  0  0  0  0  0  0  0  0  0  0  0
  142.1024   77.2325  222.3519 H   0  0  0  0  0  0  0  0  0  0  0  0
  1  2  2  0
  2  3  1  0
  3  4  2  0
  4  5  1  0
  5  6  2  0
  5  7  1  0
  7  8  1  0
  8  9  1  0
  9 10  1  0
 10 11  2  0
 11 12  1  0
 12 13  1  0
 13 14  1  0
 14 15  1  0
 15 16  1  0
 16 17  1  0
 17 18  1  0
 12 19  2  0
 19 20  1  0
 20 21  1  0
 21 22  1  0
 22 23  1  0
 23 24  1  0
 24 25  2  0
 25 26  1  0
 26 27  2  0
 27 28  1  0
 28 29  2  0
 29 30  1  0
 20 31  2  0
  9 32  1  0
  6  1  1  0
 31 10  1  0
 32  4  1  0
 18 13  1  0
 30 21  1  0
 29 24  1  0
  1 33  1  0
  2 34  1  0
  3 35  1  0
  6 36  1  0
  7 37  1  0
  7 38  1  0
  8 39  1  0
  8 40  1  0
 13 41  1  6
 14 42  1  0
 14 43  1  0
 15 44  1  0
 15 45  1  0
 16 46  1  0
 16 47  1  0
 17 48  1  0
 18 49  1  0
 18 50  1  0
 22 51  1  0
 22 52  1  0
 23 53  1  0
 23 54  1  0
 25 55  1  0
 26 56  1  0
 27 57  1  0
 28 58  1  0
 30 59  1  0
 30 60  1  0
 32 61  1  0
 32 62  1  0
M  END
>  <UniqueID>  (36) 
677

>  <SMILES>  (36) 
c1ccc2c(c1)CCN(c1nc([C@@H]3CCCNC3)nc(N3CCc4ccccc4C3)n1)C2

>  <Energy>  (36) 
76.83119391236505

>  <Genealogy>  (36) 
c1ccc2c(c1)CCN(c1nc([C@@H]3CCCNC3)nc(N3CCc4ccccc4C3)n1)C2 (chirality)
c1ccc2c(c1)CCN(c1nc([C@@H]3CCCNC3)nc(N3CCc4ccccc4C3)n1)C2 (3D coordinates assigned)
c1ccc2c(c1)CCN(c1nc([C@@H]3CCCNC3)nc(N3CCc4ccccc4C3)n1)C2 (nonaromatic ring conformer: 76.83119391236505 kcal/mol)

>  <smiles>  (36) 
c1ccc2c(c1)CCN(c1nc(C3CCCNC3)nc(N3CCc4ccccc4C3)n1)C2

>  <score_type>  (36) 
oracle

>  <origin>  (36) 
autodockgpu

>  <m_score__min__energy>  (36) 
-9.6400000000000006

>  <m_primary>  (36) 
energy

>  <meeko>  (36) 
{"free_energy": -9.6, "intermolecular_energy": -10.5, "internal_energy": -0.78, "cluster_size": 20, "cluster_id": 1, "rank_in_cluster": 8}

>  <energy>  (36) 
-9.59

>  <cluster_rmsd>  (36) 
0.19

>  <rmsd>  (36) 
272.04

>  <cluster>  (36) 
1

$$$$
ZPZIUNMFLXMAPV-OAQYLSRUNA-N
     RDKit          3D

 62 67  0  0  0  0  0  0  0  0999 V2000
  139.4490   81.0630  222.8830 C   0  0  0  0  0  0  0  0  0  0  0  0
  140.7430   80.8050  223.3370 C   0  0  0  0  0  0  0  0  0  0  0  0
  141.2690   79.5130  223.2620 C   0  0  0  0  0  0  0  0  0  0  0  0
  140.5070   78.4690  222.7130 C   0  0  0  0  0  0  0  0  0  0  0  0
  139.2040   78.7320  222.2490 C   0  0  0  0  0  0  0  0  0  0  0  0
  138.6770   80.0300  222.3450 C   0  0  0  0  0  0  0  0  0  0  0  0
  138.3690   77.6130  221.7040 C   0  0  0  0  0  0  0  0  0  0  0  0
  139.2480   76.6310  220.9350 C   0  0  0  0  0  0  0  0  0  0  0  0
  140.3610   76.1560  221.7740 N   0  0  0  0  0  0  0  0  0  0  0  0
  140.8790   74.8220  221.5920 C   0  0  0  0  0  0  0  0  0  0  0  0
  141.8390   74.5810  220.6620 N   0  0  0  0  0  0  0  0  0  0  0  0
  142.3240   73.3260  220.4780 C   0  0  0  0  0  0  0  0  0  0  0  0
  143.4060   73.0670  219.4640 C   0  0  2  0  0  0  0  0  0  0  0  0
  143.2100   71.6910  218.7920 C   0  0  0  0  0  0  0  0  0  0  0  0
  144.5270   71.1070  218.2510 C   0  0  0  0  0  0  0  0  0  0  0  0
  145.5340   72.2150  217.9200 C   0  0  0  0  0  0  0  0  0  0  0  0
  145.8920   73.0130  219.1090 N   0  0  0  0  0  0  0  0  0  0  0  0
  144.8070   73.1680  220.1010 C   0  0  0  0  0  0  0  0  0  0  0  0
  141.8550   72.3080  221.2440 N   0  0  0  0  0  0  0  0  0  0  0  0
  140.8950   72.5310  222.1790 C   0  0  0  0  0  0  0  0  0  0  0  0
  140.3870   71.4480  222.9850 N   0  0  0  0  0  0  0  0  0  0  0  0
  139.1290   70.7810  222.6090 C   0  0  0  0  0  0  0  0  0  0  0  0
  139.1550   69.3090  223.0120 C   0  0  0  0  0  0  0  0  0  0  0  0
  139.4650   69.1820  224.4730 C   0  0  0  0  0  0  0  0  0  0  0  0
  138.8870   68.1550  225.2360 C   0  0  0  0  0  0  0  0  0  0  0  0
  139.2030   68.0240  226.5910 C   0  0  0  0  0  0  0  0  0  0  0  0
  140.1060   68.9070  227.1880 C   0  0  0  0  0  0  0  0  0  0  0  0
  140.6970   69.9210  226.4310 C   0  0  0  0  0  0  0  0  0  0  0  0
  140.3770   70.0710  225.0720 C   0  0  0  0  0  0  0  0  0  0  0  0
  141.0630   71.1470  224.2610 C   0  0  0  0  0  0  0  0  0  0  0  0
  140.4110   73.7910  222.3450 N   0  0  0  0  0  0  0  0  0  0  0  0
  141.0730   77.0680  222.6900 C   0  0  0  0  0  0  0  0  0  0  0  0
  139.0363   82.0805  222.9487 H   0  0  0  0  0  0  0  0  0  0  0  0
  141.3505   81.6212  223.7551 H   0  0  0  0  0  0  0  0  0  0  0  0
  142.2844   79.3126  223.6346 H   0  0  0  0  0  0  0  0  0  0  0  0
  137.6540   80.2341  221.9959 H   0  0  0  0  0  0  0  0  0  0  0  0
  137.8773   77.0872  222.5357 H   0  0  0  0  0  0  0  0  0  0  0  0
  137.6107   78.0274  221.0234 H   0  0  0  0  0  0  0  0  0  0  0  0
  138.6388   75.7699  220.6231 H   0  0  0  0  0  0  0  0  0  0  0  0
  139.6642   77.1448  220.0559 H   0  0  0  0  0  0  0  0  0  0  0  0
  143.3315   73.8445  218.6894 H   0  0  0  0  0  0  0  0  0  0  0  0
  142.7923   70.9930  219.5325 H   0  0  0  0  0  0  0  0  0  0  0  0
  142.5300   71.8294  217.9385 H   0  0  0  0  0  0  0  0  0  0  0  0
  144.9630   70.4421  219.0111 H   0  0  0  0  0  0  0  0  0  0  0  0
  144.3067   70.5512  217.3277 H   0  0  0  0  0  0  0  0  0  0  0  0
  146.4468   71.7549  217.5136 H   0  0  0  0  0  0  0  0  0  0  0  0
  145.0669   72.8895  217.1873 H   0  0  0  0  0  0  0  0  0  0  0  0
  146.1870   73.9630  218.7830 H   0  0  0  0  0  0  0  0  0  0  0  0
  144.9073   72.3781  220.8599 H   0  0  0  0  0  0  0  0  0  0  0  0
  144.9009   74.1698  220.5454 H   0  0  0  0  0  0  0  0  0  0  0  0
  138.2905   71.2794  223.1174 H   0  0  0  0  0  0  0  0  0  0  0  0
  139.0078   70.8459  221.5176 H   0  0  0  0  0  0  0  0  0  0  0  0
  138.1727   68.8581  222.8077 H   0  0  0  0  0  0  0  0  0  0  0  0
  139.9322   68.7899  222.4319 H   0  0  0  0  0  0  0  0  0  0  0  0
  138.1837   67.4517  224.7661 H   0  0  0  0  0  0  0  0  0  0  0  0
  138.7401   67.2246  227.1882 H   0  0  0  0  0  0  0  0  0  0  0  0
  140.3518   68.8036  228.2552 H   0  0  0  0  0  0  0  0  0  0  0  0
  141.4173   70.6061  226.9021 H   0  0  0  0  0  0  0  0  0  0  0  0
  141.0960   72.0675  224.8623 H   0  0  0  0  0  0  0  0  0  0  0  0
  142.0670   70.7723  224.0129 H   0  0  0  0  0  0  0  0  0  0  0  0
  141.0154   76.6534  223.7072 H   0  0  0  0  0  0  0  0  0  0  0  0
  142.1083   77.1453  222.3265 H   0  0  0  0  0  0  0  0  0  0  0  0
  1  2  2  0
  2  3  1  0
  3  4  2  0
  4  5  1  0
  5  6  2  0
  5  7  1  0
  7  8  1  0
  8  9  1  0
  9 10  1  0
 10 11  2  0
 11 12  1  0
 12 13  1  0
 13 14  1  0
 14 15  1  0
 15 16  1  0
 16 17  1  0
 17 18  1  0
 12 19  2  0
 19 20  1  0
 20 21  1  0
 21 22  1  0
 22 23  1  0
 23 24  1  0
 24 25  2  0
 25 26  1  0
 26 27  2  0
 27 28  1  0
 28 29  2  0
 29 30  1  0
 20 31  2  0
  9 32  1  0
  6  1  1  0
 31 10  1  0
 32  4  1  0
 18 13  1  0
 30 21  1  0
 29 24  1  0
  1 33  1  0
  2 34  1  0
  3 35  1  0
  6 36  1  0
  7 37  1  0
  7 38  1  0
  8 39  1  0
  8 40  1  0
 13 41  1  6
 14 42  1  0
 14 43  1  0
 15 44  1  0
 15 45  1  0
 16 46  1  0
 16 47  1  0
 17 48  1  0
 18 49  1  0
 18 50  1  0
 22 51  1  0
 22 52  1  0
 23 53  1  0
 23 54  1  0
 25 55  1  0
 26 56  1  0
 27 57  1  0
 28 58  1  0
 30 59  1  0
 30 60  1  0
 32 61  1  0
 32 62  1  0
M  END
>  <UniqueID>  (37) 
677

>  <SMILES>  (37) 
c1ccc2c(c1)CCN(c1nc([C@@H]3CCCNC3)nc(N3CCc4ccccc4C3)n1)C2

>  <Energy>  (37) 
76.83119391236505

>  <Genealogy>  (37) 
c1ccc2c(c1)CCN(c1nc([C@@H]3CCCNC3)nc(N3CCc4ccccc4C3)n1)C2 (chirality)
c1ccc2c(c1)CCN(c1nc([C@@H]3CCCNC3)nc(N3CCc4ccccc4C3)n1)C2 (3D coordinates assigned)
c1ccc2c(c1)CCN(c1nc([C@@H]3CCCNC3)nc(N3CCc4ccccc4C3)n1)C2 (nonaromatic ring conformer: 76.83119391236505 kcal/mol)

>  <smiles>  (37) 
c1ccc2c(c1)CCN(c1nc(C3CCCNC3)nc(N3CCc4ccccc4C3)n1)C2

>  <score_type>  (37) 
oracle

>  <origin>  (37) 
autodockgpu

>  <m_score__min__energy>  (37) 
-9.6400000000000006

>  <m_primary>  (37) 
energy

>  <meeko>  (37) 
{"free_energy": -9.61, "intermolecular_energy": -10.5, "internal_energy": -0.78, "cluster_size": 20, "cluster_id": 1, "rank_in_cluster": 6}

>  <energy>  (37) 
-9.58

>  <cluster_rmsd>  (37) 
0.05

>  <rmsd>  (37) 
272.05

>  <cluster>  (37) 
1

$$$$
ZPZIUNMFLXMAPV-OAQYLSRUNA-N
     RDKit          3D

 62 67  0  0  0  0  0  0  0  0999 V2000
  139.1770   68.0840  226.4680 C   0  0  0  0  0  0  0  0  0  0  0  0
  140.0330   68.9840  227.1050 C   0  0  0  0  0  0  0  0  0  0  0  0
  140.6210   70.0250  226.3800 C   0  0  0  0  0  0  0  0  0  0  0  0
  140.3430   70.1820  225.0130 C   0  0  0  0  0  0  0  0  0  0  0  0
  139.4740   69.2770  224.3740 C   0  0  0  0  0  0  0  0  0  0  0  0
  138.9010   68.2240  225.1060 C   0  0  0  0  0  0  0  0  0  0  0  0
  139.2080   69.4130  222.9050 C   0  0  0  0  0  0  0  0  0  0  0  0
  139.1640   70.8870  222.5160 C   0  0  0  0  0  0  0  0  0  0  0  0
  140.3920   71.5790  222.9400 N   0  0  0  0  0  0  0  0  0  0  0  0
  140.9020   72.6810  222.1600 C   0  0  0  0  0  0  0  0  0  0  0  0
  141.8830   72.4750  221.2440 N   0  0  0  0  0  0  0  0  0  0  0  0
  142.3750   73.5090  220.5140 C   0  0  0  0  0  0  0  0  0  0  0  0
  143.4450   73.2730  219.4810 C   0  0  2  0  0  0  0  0  0  0  0  0
  143.1860   71.9570  218.7140 C   0  0  0  0  0  0  0  0  0  0  0  0
  144.4760   71.3540  218.1300 C   0  0  0  0  0  0  0  0  0  0  0  0
  145.5320   72.4360  217.8740 C   0  0  0  0  0  0  0  0  0  0  0  0
  145.9260   73.1310  219.1150 N   0  0  0  0  0  0  0  0  0  0  0  0
  144.8490   73.2660  220.1190 C   0  0  0  0  0  0  0  0  0  0  0  0
  141.8680   74.7550  220.6910 N   0  0  0  0  0  0  0  0  0  0  0  0
  140.8850   74.9790  221.6040 C   0  0  0  0  0  0  0  0  0  0  0  0
  140.3540   76.3050  221.8010 N   0  0  0  0  0  0  0  0  0  0  0  0
  139.2100   76.7650  220.9950 C   0  0  0  0  0  0  0  0  0  0  0  0
  138.3420   77.7350  221.7910 C   0  0  0  0  0  0  0  0  0  0  0  0
  139.1780   78.8660  222.3100 C   0  0  0  0  0  0  0  0  0  0  0  0
  138.6410   80.1590  222.4140 C   0  0  0  0  0  0  0  0  0  0  0  0
  139.4170   81.2030  222.9250 C   0  0  0  0  0  0  0  0  0  0  0  0
  140.7260   80.9600  223.3480 C   0  0  0  0  0  0  0  0  0  0  0  0
  141.2610   79.6730  223.2630 C   0  0  0  0  0  0  0  0  0  0  0  0
  140.4970   78.6190  222.7370 C   0  0  0  0  0  0  0  0  0  0  0  0
  141.0800   77.2260  222.6960 C   0  0  0  0  0  0  0  0  0  0  0  0
  140.4100   73.9360  222.3350 N   0  0  0  0  0  0  0  0  0  0  0  0
  141.0310   71.2810  224.2370 C   0  0  0  0  0  0  0  0  0  0  0  0
  138.7191   67.2632  227.0396 H   0  0  0  0  0  0  0  0  0  0  0  0
  140.2453   68.8741  228.1787 H   0  0  0  0  0  0  0  0  0  0  0  0
  141.3048   70.7244  226.8833 H   0  0  0  0  0  0  0  0  0  0  0  0
  138.2331   67.5077  224.6052 H   0  0  0  0  0  0  0  0  0  0  0  0
  140.0090   68.9116  222.3420 H   0  0  0  0  0  0  0  0  0  0  0  0
  138.2389   68.9488  222.6695 H   0  0  0  0  0  0  0  0  0  0  0  0
  139.0636   70.9684  221.4236 H   0  0  0  0  0  0  0  0  0  0  0  0
  138.3049   71.3572  223.0168 H   0  0  0  0  0  0  0  0  0  0  0  0
  143.4067   74.1055  218.7631 H   0  0  0  0  0  0  0  0  0  0  0  0
  142.7367   71.2283  219.4047 H   0  0  0  0  0  0  0  0  0  0  0  0
  142.5128   72.1853  217.8745 H   0  0  0  0  0  0  0  0  0  0  0  0
  144.8815   70.6189  218.8409 H   0  0  0  0  0  0  0  0  0  0  0  0
  144.2312   70.8746  217.1707 H   0  0  0  0  0  0  0  0  0  0  0  0
  146.4229   71.9650  217.4329 H   0  0  0  0  0  0  0  0  0  0  0  0
  145.0958   73.1808  217.1921 H   0  0  0  0  0  0  0  0  0  0  0  0
  146.2630   74.0870  218.8550 H   0  0  0  0  0  0  0  0  0  0  0  0
  144.9133   72.4217  220.8211 H   0  0  0  0  0  0  0  0  0  0  0  0
  144.9883   74.2293  220.6314 H   0  0  0  0  0  0  0  0  0  0  0  0
  139.5846   77.2724  220.0937 H   0  0  0  0  0  0  0  0  0  0  0  0
  138.6004   75.8924  220.7175 H   0  0  0  0  0  0  0  0  0  0  0  0
  137.5520   78.1357  221.1389 H   0  0  0  0  0  0  0  0  0  0  0  0
  137.8906   77.2011  222.6403 H   0  0  0  0  0  0  0  0  0  0  0  0
  137.6067   80.3509  222.0924 H   0  0  0  0  0  0  0  0  0  0  0  0
  138.9966   82.2171  222.9942 H   0  0  0  0  0  0  0  0  0  0  0  0
  141.3358   81.7833  223.7484 H   0  0  0  0  0  0  0  0  0  0  0  0
  142.2874   79.4837  223.6103 H   0  0  0  0  0  0  0  0  0  0  0  0
  142.1222   77.2958  222.3511 H   0  0  0  0  0  0  0  0  0  0  0  0
  141.0010   76.8146  223.7131 H   0  0  0  0  0  0  0  0  0  0  0  0
  142.0711   70.9757  224.0500 H   0  0  0  0  0  0  0  0  0  0  0  0
  140.9657   72.1948  224.8459 H   0  0  0  0  0  0  0  0  0  0  0  0
  1  2  2  0
  2  3  1  0
  3  4  2  0
  4  5  1  0
  5  6  2  0
  5  7  1  0
  7  8  1  0
  8  9  1  0
  9 10  1  0
 10 11  2  0
 11 12  1  0
 12 13  1  0
 13 14  1  0
 14 15  1  0
 15 16  1  0
 16 17  1  0
 17 18  1  0
 12 19  2  0
 19 20  1  0
 20 21  1  0
 21 22  1  0
 22 23  1  0
 23 24  1  0
 24 25  2  0
 25 26  1  0
 26 27  2  0
 27 28  1  0
 28 29  2  0
 29 30  1  0
 20 31  2  0
  9 32  1  0
  6  1  1  0
 31 10  1  0
 32  4  1  0
 18 13  1  0
 30 21  1  0
 29 24  1  0
  1 33  1  0
  2 34  1  0
  3 35  1  0
  6 36  1  0
  7 37  1  0
  7 38  1  0
  8 39  1  0
  8 40  1  0
 13 41  1  6
 14 42  1  0
 14 43  1  0
 15 44  1  0
 15 45  1  0
 16 46  1  0
 16 47  1  0
 17 48  1  0
 18 49  1  0
 18 50  1  0
 22 51  1  0
 22 52  1  0
 23 53  1  0
 23 54  1  0
 25 55  1  0
 26 56  1  0
 27 57  1  0
 28 58  1  0
 30 59  1  0
 30 60  1  0
 32 61  1  0
 32 62  1  0
M  END
>  <UniqueID>  (38) 
677

>  <SMILES>  (38) 
c1ccc2c(c1)CCN(c1nc([C@@H]3CCCNC3)nc(N3CCc4ccccc4C3)n1)C2

>  <Energy>  (38) 
76.83119391236505

>  <Genealogy>  (38) 
c1ccc2c(c1)CCN(c1nc([C@@H]3CCCNC3)nc(N3CCc4ccccc4C3)n1)C2 (chirality)
c1ccc2c(c1)CCN(c1nc([C@@H]3CCCNC3)nc(N3CCc4ccccc4C3)n1)C2 (3D coordinates assigned)
c1ccc2c(c1)CCN(c1nc([C@@H]3CCCNC3)nc(N3CCc4ccccc4C3)n1)C2 (nonaromatic ring conformer: 76.83119391236505 kcal/mol)

>  <smiles>  (38) 
c1ccc2c(c1)CCN(c1nc(C3CCCNC3)nc(N3CCc4ccccc4C3)n1)C2

>  <score_type>  (38) 
oracle

>  <origin>  (38) 
autodockgpu

>  <m_score__min__energy>  (38) 
-9.6400000000000006

>  <m_primary>  (38) 
energy

>  <meeko>  (38) 
{"free_energy": -9.6, "intermolecular_energy": -10.49, "internal_energy": -0.78, "cluster_size": 20, "cluster_id": 1, "rank_in_cluster": 11}

>  <energy>  (38) 
-9.57

>  <cluster_rmsd>  (38) 
0.13

>  <rmsd>  (38) 
272.02

>  <cluster>  (38) 
1

$$$$
ZPZIUNMFLXMAPV-OAQYLSRUNA-N
     RDKit          3D

 62 67  0  0  0  0  0  0  0  0999 V2000
  139.4060   81.1210  222.9080 C   0  0  0  0  0  0  0  0  0  0  0  0
  140.7220   80.8820  223.3070 C   0  0  0  0  0  0  0  0  0  0  0  0
  141.2590   79.5950  223.2170 C   0  0  0  0  0  0  0  0  0  0  0  0
  140.4870   78.5380  222.7080 C   0  0  0  0  0  0  0  0  0  0  0  0
  139.1630   78.7830  222.3000 C   0  0  0  0  0  0  0  0  0  0  0  0
  138.6240   80.0750  222.4110 C   0  0  0  0  0  0  0  0  0  0  0  0
  138.3180   77.6500  221.7990 C   0  0  0  0  0  0  0  0  0  0  0  0
  139.1750   76.6730  220.9990 C   0  0  0  0  0  0  0  0  0  0  0  0
  140.3290   76.2180  221.7910 N   0  0  0  0  0  0  0  0  0  0  0  0
  140.8560   74.8880  221.5960 C   0  0  0  0  0  0  0  0  0  0  0  0
  141.8130   74.6620  220.6580 N   0  0  0  0  0  0  0  0  0  0  0  0
  142.3050   73.4120  220.4610 C   0  0  0  0  0  0  0  0  0  0  0  0
  143.3840   73.1690  219.4400 C   0  0  2  0  0  0  0  0  0  0  0  0
  143.1730   71.8120  218.7330 C   0  0  0  0  0  0  0  0  0  0  0  0
  144.4850   71.2300  218.1750 C   0  0  0  0  0  0  0  0  0  0  0  0
  145.5020   72.3370  217.8710 C   0  0  0  0  0  0  0  0  0  0  0  0
  145.8690   73.1000  219.0800 N   0  0  0  0  0  0  0  0  0  0  0  0
  144.7860   73.2410  220.0770 C   0  0  0  0  0  0  0  0  0  0  0  0
  141.8470   72.3840  221.2210 N   0  0  0  0  0  0  0  0  0  0  0  0
  140.8900   72.5930  222.1630 C   0  0  0  0  0  0  0  0  0  0  0  0
  140.3940   71.5000  222.9620 N   0  0  0  0  0  0  0  0  0  0  0  0
  139.1540   70.8080  222.5700 C   0  0  0  0  0  0  0  0  0  0  0  0
  139.2040   69.3370  222.9730 C   0  0  0  0  0  0  0  0  0  0  0  0
  139.4980   69.2150  224.4380 C   0  0  0  0  0  0  0  0  0  0  0  0
  138.9310   68.1760  225.1940 C   0  0  0  0  0  0  0  0  0  0  0  0
  139.2330   68.0520  226.5520 C   0  0  0  0  0  0  0  0  0  0  0  0
  140.1100   68.9520  227.1600 C   0  0  0  0  0  0  0  0  0  0  0  0
  140.6910   69.9780  226.4110 C   0  0  0  0  0  0  0  0  0  0  0  0
  140.3850   70.1220  225.0480 C   0  0  0  0  0  0  0  0  0  0  0  0
  141.0590   71.2110  224.2470 C   0  0  0  0  0  0  0  0  0  0  0  0
  140.3980   73.8480  222.3420 N   0  0  0  0  0  0  0  0  0  0  0  0
  141.0700   77.1440  222.6700 C   0  0  0  0  0  0  0  0  0  0  0  0
  138.9840   82.1339  222.9849 H   0  0  0  0  0  0  0  0  0  0  0  0
  141.3374   81.7080  223.6929 H   0  0  0  0  0  0  0  0  0  0  0  0
  142.2918   79.4089  223.5466 H   0  0  0  0  0  0  0  0  0  0  0  0
  137.5841   80.2640  222.1061 H   0  0  0  0  0  0  0  0  0  0  0  0
  137.8691   77.1244  222.6547 H   0  0  0  0  0  0  0  0  0  0  0  0
  137.5257   78.0505  221.1495 H   0  0  0  0  0  0  0  0  0  0  0  0
  138.5635   75.8022  220.7201 H   0  0  0  0  0  0  0  0  0  0  0  0
  139.5459   77.1855  220.0991 H   0  0  0  0  0  0  0  0  0  0  0  0
  143.3174   73.9669  218.6857 H   0  0  0  0  0  0  0  0  0  0  0  0
  142.7497   71.0991  219.4560 H   0  0  0  0  0  0  0  0  0  0  0  0
  142.4926   71.9782  217.8848 H   0  0  0  0  0  0  0  0  0  0  0  0
  144.9158   70.5419  218.9172 H   0  0  0  0  0  0  0  0  0  0  0  0
  144.2585   70.7003  217.2379 H   0  0  0  0  0  0  0  0  0  0  0  0
  146.4098   71.8793  217.4511 H   0  0  0  0  0  0  0  0  0  0  0  0
  145.0404   73.0347  217.1568 H   0  0  0  0  0  0  0  0  0  0  0  0
  146.1720   74.0560  218.7780 H   0  0  0  0  0  0  0  0  0  0  0  0
  144.8795   72.4318  220.8162 H   0  0  0  0  0  0  0  0  0  0  0  0
  144.8898   74.2308  220.5454 H   0  0  0  0  0  0  0  0  0  0  0  0
  138.2994   71.2895  223.0678 H   0  0  0  0  0  0  0  0  0  0  0  0
  139.0455   70.8708  221.4772 H   0  0  0  0  0  0  0  0  0  0  0  0
  138.2334   68.8670  222.7561 H   0  0  0  0  0  0  0  0  0  0  0  0
  139.9987   68.8338  222.4027 H   0  0  0  0  0  0  0  0  0  0  0  0
  138.2479   67.4586  224.7157 H   0  0  0  0  0  0  0  0  0  0  0  0
  138.7789   67.2435  227.1437 H   0  0  0  0  0  0  0  0  0  0  0  0
  140.3438   68.8531  228.2303 H   0  0  0  0  0  0  0  0  0  0  0  0
  141.3918   70.6767  226.8913 H   0  0  0  0  0  0  0  0  0  0  0  0
  141.0659   72.1315  224.8492 H   0  0  0  0  0  0  0  0  0  0  0  0
  142.0732   70.8560  224.0115 H   0  0  0  0  0  0  0  0  0  0  0  0
  141.0619   76.7356  223.6913 H   0  0  0  0  0  0  0  0  0  0  0  0
  142.0881   77.2308  222.2626 H   0  0  0  0  0  0  0  0  0  0  0  0
  1  2  2  0
  2  3  1  0
  3  4  2  0
  4  5  1  0
  5  6  2  0
  5  7  1  0
  7  8  1  0
  8  9  1  0
  9 10  1  0
 10 11  2  0
 11 12  1  0
 12 13  1  0
 13 14  1  0
 14 15  1  0
 15 16  1  0
 16 17  1  0
 17 18  1  0
 12 19  2  0
 19 20  1  0
 20 21  1  0
 21 22  1  0
 22 23  1  0
 23 24  1  0
 24 25  2  0
 25 26  1  0
 26 27  2  0
 27 28  1  0
 28 29  2  0
 29 30  1  0
 20 31  2  0
  9 32  1  0
  6  1  1  0
 31 10  1  0
 32  4  1  0
 18 13  1  0
 30 21  1  0
 29 24  1  0
  1 33  1  0
  2 34  1  0
  3 35  1  0
  6 36  1  0
  7 37  1  0
  7 38  1  0
  8 39  1  0
  8 40  1  0
 13 41  1  6
 14 42  1  0
 14 43  1  0
 15 44  1  0
 15 45  1  0
 16 46  1  0
 16 47  1  0
 17 48  1  0
 18 49  1  0
 18 50  1  0
 22 51  1  0
 22 52  1  0
 23 53  1  0
 23 54  1  0
 25 55  1  0
 26 56  1  0
 27 57  1  0
 28 58  1  0
 30 59  1  0
 30 60  1  0
 32 61  1  0
 32 62  1  0
M  END
>  <UniqueID>  (39) 
677

>  <SMILES>  (39) 
c1ccc2c(c1)CCN(c1nc([C@@H]3CCCNC3)nc(N3CCc4ccccc4C3)n1)C2

>  <Energy>  (39) 
76.83119391236505

>  <Genealogy>  (39) 
c1ccc2c(c1)CCN(c1nc([C@@H]3CCCNC3)nc(N3CCc4ccccc4C3)n1)C2 (chirality)
c1ccc2c(c1)CCN(c1nc([C@@H]3CCCNC3)nc(N3CCc4ccccc4C3)n1)C2 (3D coordinates assigned)
c1ccc2c(c1)CCN(c1nc([C@@H]3CCCNC3)nc(N3CCc4ccccc4C3)n1)C2 (nonaromatic ring conformer: 76.83119391236505 kcal/mol)

>  <smiles>  (39) 
c1ccc2c(c1)CCN(c1nc(C3CCCNC3)nc(N3CCc4ccccc4C3)n1)C2

>  <score_type>  (39) 
oracle

>  <origin>  (39) 
autodockgpu

>  <m_score__min__energy>  (39) 
-9.6400000000000006

>  <m_primary>  (39) 
energy

>  <meeko>  (39) 
{"free_energy": -9.59, "intermolecular_energy": -10.49, "internal_energy": -0.78, "cluster_size": 20, "cluster_id": 1, "rank_in_cluster": 15}

>  <energy>  (39) 
-9.57

>  <cluster_rmsd>  (39) 
0.15

>  <rmsd>  (39) 
272.03

>  <cluster>  (39) 
1

$$$$
ZPZIUNMFLXMAPV-OAQYLSRUNA-N
     RDKit          3D

 62 67  0  0  0  0  0  0  0  0999 V2000
  139.2130   68.0600  226.5380 C   0  0  0  0  0  0  0  0  0  0  0  0
  140.0800   68.9600  227.1590 C   0  0  0  0  0  0  0  0  0  0  0  0
  140.6670   69.9910  226.4210 C   0  0  0  0  0  0  0  0  0  0  0  0
  140.3770   70.1400  225.0550 C   0  0  0  0  0  0  0  0  0  0  0  0
  139.4980   69.2340  224.4320 C   0  0  0  0  0  0  0  0  0  0  0  0
  138.9250   68.1900  225.1770 C   0  0  0  0  0  0  0  0  0  0  0  0
  139.2190   69.3600  222.9640 C   0  0  0  0  0  0  0  0  0  0  0  0
  139.1800   70.8310  222.5630 C   0  0  0  0  0  0  0  0  0  0  0  0
  140.4160   71.5190  222.9710 N   0  0  0  0  0  0  0  0  0  0  0  0
  140.9240   72.6120  222.1770 C   0  0  0  0  0  0  0  0  0  0  0  0
  141.9040   72.3950  221.2610 N   0  0  0  0  0  0  0  0  0  0  0  0
  142.3950   73.4200  220.5180 C   0  0  0  0  0  0  0  0  0  0  0  0
  143.4610   73.1710  219.4850 C   0  0  2  0  0  0  0  0  0  0  0  0
  143.2650   71.7940  218.8150 C   0  0  0  0  0  0  0  0  0  0  0  0
  144.5780   71.2220  218.2500 C   0  0  0  0  0  0  0  0  0  0  0  0
  145.5690   72.3390  217.9030 C   0  0  0  0  0  0  0  0  0  0  0  0
  145.9410   73.1390  219.0870 N   0  0  0  0  0  0  0  0  0  0  0  0
  144.8720   73.2840  220.0970 C   0  0  0  0  0  0  0  0  0  0  0  0
  141.8890   74.6690  220.6830 N   0  0  0  0  0  0  0  0  0  0  0  0
  140.9090   74.9030  221.5950 C   0  0  0  0  0  0  0  0  0  0  0  0
  140.3790   76.2320  221.7790 N   0  0  0  0  0  0  0  0  0  0  0  0
  139.2700   76.7040  220.9330 C   0  0  0  0  0  0  0  0  0  0  0  0
  138.3790   77.6760  221.7010 C   0  0  0  0  0  0  0  0  0  0  0  0
  139.2020   78.7990  222.2560 C   0  0  0  0  0  0  0  0  0  0  0  0
  138.6700   80.0950  222.3460 C   0  0  0  0  0  0  0  0  0  0  0  0
  139.4330   81.1310  222.8910 C   0  0  0  0  0  0  0  0  0  0  0  0
  140.7230   80.8770  223.3620 C   0  0  0  0  0  0  0  0  0  0  0  0
  141.2530   79.5870  223.2900 C   0  0  0  0  0  0  0  0  0  0  0  0
  140.5020   78.5410  222.7310 C   0  0  0  0  0  0  0  0  0  0  0  0
  141.0770   77.1440  222.7050 C   0  0  0  0  0  0  0  0  0  0  0  0
  140.4350   73.8690  222.3390 N   0  0  0  0  0  0  0  0  0  0  0  0
  141.0650   71.2280  224.2630 C   0  0  0  0  0  0  0  0  0  0  0  0
  138.7556   67.2470  227.1209 H   0  0  0  0  0  0  0  0  0  0  0  0
  140.3017   68.8576  228.2315 H   0  0  0  0  0  0  0  0  0  0  0  0
  141.3600   70.6897  226.9125 H   0  0  0  0  0  0  0  0  0  0  0  0
  138.2484   67.4736  224.6881 H   0  0  0  0  0  0  0  0  0  0  0  0
  140.0118   68.8493  222.3977 H   0  0  0  0  0  0  0  0  0  0  0  0
  138.2449   68.8999  222.7416 H   0  0  0  0  0  0  0  0  0  0  0  0
  139.0708   70.9039  221.4709 H   0  0  0  0  0  0  0  0  0  0  0  0
  138.3278   71.3105  223.0669 H   0  0  0  0  0  0  0  0  0  0  0  0
  143.3661   73.9483  218.7125 H   0  0  0  0  0  0  0  0  0  0  0  0
  142.8666   71.0916  219.5619 H   0  0  0  0  0  0  0  0  0  0  0  0
  142.5687   71.9272  217.9739 H   0  0  0  0  0  0  0  0  0  0  0  0
  145.0331   70.5601  219.0015 H   0  0  0  0  0  0  0  0  0  0  0  0
  144.3465   70.6654  217.3299 H   0  0  0  0  0  0  0  0  0  0  0  0
  146.4785   71.8875  217.4800 H   0  0  0  0  0  0  0  0  0  0  0  0
  145.0831   73.0103  217.1796 H   0  0  0  0  0  0  0  0  0  0  0  0
  146.2210   74.0920  218.7560 H   0  0  0  0  0  0  0  0  0  0  0  0
  144.9924   72.4947  220.8537 H   0  0  0  0  0  0  0  0  0  0  0  0
  144.9646   74.2867  220.5397 H   0  0  0  0  0  0  0  0  0  0  0  0
  139.6819   77.2135  220.0494 H   0  0  0  0  0  0  0  0  0  0  0  0
  138.6655   75.8372  220.6277 H   0  0  0  0  0  0  0  0  0  0  0  0
  137.6162   78.0848  221.0220 H   0  0  0  0  0  0  0  0  0  0  0  0
  137.8931   77.1411  222.5304 H   0  0  0  0  0  0  0  0  0  0  0  0
  137.6499   80.2955  221.9865 H   0  0  0  0  0  0  0  0  0  0  0  0
  139.0172   82.1477  222.9491 H   0  0  0  0  0  0  0  0  0  0  0  0
  141.3223   81.6940  223.7902 H   0  0  0  0  0  0  0  0  0  0  0  0
  142.2649   79.3894  223.6735 H   0  0  0  0  0  0  0  0  0  0  0  0
  142.1318   77.2083  222.3996 H   0  0  0  0  0  0  0  0  0  0  0  0
  140.9572   76.7284  223.7164 H   0  0  0  0  0  0  0  0  0  0  0  0
  142.1012   70.9142  224.0686 H   0  0  0  0  0  0  0  0  0  0  0  0
  141.0118   72.1473  224.8647 H   0  0  0  0  0  0  0  0  0  0  0  0
  1  2  2  0
  2  3  1  0
  3  4  2  0
  4  5  1  0
  5  6  2  0
  5  7  1  0
  7  8  1  0
  8  9  1  0
  9 10  1  0
 10 11  2  0
 11 12  1  0
 12 13  1  0
 13 14  1  0
 14 15  1  0
 15 16  1  0
 16 17  1  0
 17 18  1  0
 12 19  2  0
 19 20  1  0
 20 21  1  0
 21 22  1  0
 22 23  1  0
 23 24  1  0
 24 25  2  0
 25 26  1  0
 26 27  2  0
 27 28  1  0
 28 29  2  0
 29 30  1  0
 20 31  2  0
  9 32  1  0
  6  1  1  0
 31 10  1  0
 32  4  1  0
 18 13  1  0
 30 21  1  0
 29 24  1  0
  1 33  1  0
  2 34  1  0
  3 35  1  0
  6 36  1  0
  7 37  1  0
  7 38  1  0
  8 39  1  0
  8 40  1  0
 13 41  1  6
 14 42  1  0
 14 43  1  0
 15 44  1  0
 15 45  1  0
 16 46  1  0
 16 47  1  0
 17 48  1  0
 18 49  1  0
 18 50  1  0
 22 51  1  0
 22 52  1  0
 23 53  1  0
 23 54  1  0
 25 55  1  0
 26 56  1  0
 27 57  1  0
 28 58  1  0
 30 59  1  0
 30 60  1  0
 32 61  1  0
 32 62  1  0
M  END
>  <UniqueID>  (40) 
677

>  <SMILES>  (40) 
c1ccc2c(c1)CCN(c1nc([C@@H]3CCCNC3)nc(N3CCc4ccccc4C3)n1)C2

>  <Energy>  (40) 
76.83119391236505

>  <Genealogy>  (40) 
c1ccc2c(c1)CCN(c1nc([C@@H]3CCCNC3)nc(N3CCc4ccccc4C3)n1)C2 (chirality)
c1ccc2c(c1)CCN(c1nc([C@@H]3CCCNC3)nc(N3CCc4ccccc4C3)n1)C2 (3D coordinates assigned)
c1ccc2c(c1)CCN(c1nc([C@@H]3CCCNC3)nc(N3CCc4ccccc4C3)n1)C2 (nonaromatic ring conformer: 76.83119391236505 kcal/mol)

>  <smiles>  (40) 
c1ccc2c(c1)CCN(c1nc(C3CCCNC3)nc(N3CCc4ccccc4C3)n1)C2

>  <score_type>  (40) 
oracle

>  <origin>  (40) 
autodockgpu

>  <m_score__min__energy>  (40) 
-9.6400000000000006

>  <m_primary>  (40) 
energy

>  <meeko>  (40) 
{"free_energy": -9.63, "intermolecular_energy": -10.53, "internal_energy": -0.78, "cluster_size": 20, "cluster_id": 1, "rank_in_cluster": 2}

>  <energy>  (40) 
-9.56

>  <cluster_rmsd>  (40) 
0.2

>  <rmsd>  (40) 
272.09

>  <cluster>  (40) 
1

$$$$
ZPZIUNMFLXMAPV-NRFANRHFNA-N
     RDKit          3D

 62 67  0  0  0  0  0  0  0  0999 V2000
  135.9470   68.9340  224.9380 C   0  0  0  0  0  0  0  0  0  0  0  0
  135.2220   69.8730  224.2040 C   0  0  0  0  0  0  0  0  0  0  0  0
  135.8880   70.8890  223.5140 C   0  0  0  0  0  0  0  0  0  0  0  0
  137.2900   70.9770  223.5590 C   0  0  0  0  0  0  0  0  0  0  0  0
  138.0210   70.0280  224.3060 C   0  0  0  0  0  0  0  0  0  0  0  0
  137.3420   69.0050  224.9840 C   0  0  0  0  0  0  0  0  0  0  0  0
  139.5210   70.0730  224.3290 C   0  0  0  0  0  0  0  0  0  0  0  0
  140.0090   71.5140  224.2130 C   0  0  0  0  0  0  0  0  0  0  0  0
  139.4310   72.1470  223.0170 N   0  0  0  0  0  0  0  0  0  0  0  0
  140.2360   73.0030  222.1780 C   0  0  0  0  0  0  0  0  0  0  0  0
  141.2750   72.4860  221.4710 N   0  0  0  0  0  0  0  0  0  0  0  0
  142.0500   73.2880  220.6960 C   0  0  0  0  0  0  0  0  0  0  0  0
  143.1970   72.7060  219.9140 C   0  0  1  0  0  0  0  0  0  0  0  0
  143.9330   73.8220  219.1380 C   0  0  0  0  0  0  0  0  0  0  0  0
  145.3620   73.3960  218.7850 C   0  0  0  0  0  0  0  0  0  0  0  0
  146.1690   73.0020  220.0430 C   0  0  0  0  0  0  0  0  0  0  0  0
  145.3120   72.7400  221.2130 N   0  0  0  0  0  0  0  0  0  0  0  0
  144.1590   71.9120  220.8360 C   0  0  0  0  0  0  0  0  0  0  0  0
  141.7750   74.6170  220.6200 N   0  0  0  0  0  0  0  0  0  0  0  0
  140.7430   75.1500  221.3250 C   0  0  0  0  0  0  0  0  0  0  0  0
  140.4830   76.5670  221.2750 N   0  0  0  0  0  0  0  0  0  0  0  0
  140.6100   77.3280  220.0280 C   0  0  0  0  0  0  0  0  0  0  0  0
  141.7470   78.3370  220.1770 C   0  0  0  0  0  0  0  0  0  0  0  0
  141.6210   79.1250  221.4600 C   0  0  0  0  0  0  0  0  0  0  0  0
  142.3070   80.3440  221.5820 C   0  0  0  0  0  0  0  0  0  0  0  0
  142.2480   81.0720  222.7710 C   0  0  0  0  0  0  0  0  0  0  0  0
  141.5140   80.5870  223.8540 C   0  0  0  0  0  0  0  0  0  0  0  0
  140.8390   79.3690  223.7540 C   0  0  0  0  0  0  0  0  0  0  0  0
  140.8960   78.6200  222.5670 C   0  0  0  0  0  0  0  0  0  0  0  0
  140.1240   77.3220  222.4830 C   0  0  0  0  0  0  0  0  0  0  0  0
  139.9800   74.3350  222.1000 N   0  0  0  0  0  0  0  0  0  0  0  0
  137.9790   72.0700  222.7720 C   0  0  0  0  0  0  0  0  0  0  0  0
  135.4197   68.1362  225.4816 H   0  0  0  0  0  0  0  0  0  0  0  0
  134.1242   69.8134  224.1684 H   0  0  0  0  0  0  0  0  0  0  0  0
  135.3121   71.6239  222.9325 H   0  0  0  0  0  0  0  0  0  0  0  0
  137.9099   68.2553  225.5544 H   0  0  0  0  0  0  0  0  0  0  0  0
  139.8826   69.6423  225.2744 H   0  0  0  0  0  0  0  0  0  0  0  0
  139.9096   69.4939  223.4783 H   0  0  0  0  0  0  0  0  0  0  0  0
  139.7011   72.0758  225.1072 H   0  0  0  0  0  0  0  0  0  0  0  0
  141.1058   71.5178  224.1289 H   0  0  0  0  0  0  0  0  0  0  0  0
  142.7963   71.9908  219.1806 H   0  0  0  0  0  0  0  0  0  0  0  0
  143.3827   74.0379  218.2104 H   0  0  0  0  0  0  0  0  0  0  0  0
  143.9819   74.7175  219.7749 H   0  0  0  0  0  0  0  0  0  0  0  0
  145.3187   72.5328  218.1046 H   0  0  0  0  0  0  0  0  0  0  0  0
  145.8660   74.2495  218.3080 H   0  0  0  0  0  0  0  0  0  0  0  0
  146.7462   72.0927  219.8196 H   0  0  0  0  0  0  0  0  0  0  0  0
  146.8234   73.8494  220.2952 H   0  0  0  0  0  0  0  0  0  0  0  0
  145.8800   72.2030  221.9110 H   0  0  0  0  0  0  0  0  0  0  0  0
  144.5145   71.0176  220.3035 H   0  0  0  0  0  0  0  0  0  0  0  0
  143.6174   71.6207  221.7480 H   0  0  0  0  0  0  0  0  0  0  0  0
  140.8321   76.6416  219.1976 H   0  0  0  0  0  0  0  0  0  0  0  0
  139.6686   77.8563  219.8166 H   0  0  0  0  0  0  0  0  0  0  0  0
  142.7057   77.7977  220.1811 H   0  0  0  0  0  0  0  0  0  0  0  0
  141.6981   79.0405  219.3328 H   0  0  0  0  0  0  0  0  0  0  0  0
  142.8947   80.7276  220.7349 H   0  0  0  0  0  0  0  0  0  0  0  0
  142.7813   82.0304  222.8547 H   0  0  0  0  0  0  0  0  0  0  0  0
  141.4671   81.1655  224.7885 H   0  0  0  0  0  0  0  0  0  0  0  0
  140.2590   78.9936  224.6099 H   0  0  0  0  0  0  0  0  0  0  0  0
  140.3520   76.7110  223.3688 H   0  0  0  0  0  0  0  0  0  0  0  0
  139.0504   77.5577  222.4400 H   0  0  0  0  0  0  0  0  0  0  0  0
  137.5280   73.0346  223.0480 H   0  0  0  0  0  0  0  0  0  0  0  0
  137.8434   71.8350  221.7060 H   0  0  0  0  0  0  0  0  0  0  0  0
  1  2  2  0
  2  3  1  0
  3  4  2  0
  4  5  1  0
  5  6  2  0
  5  7  1  0
  7  8  1  0
  8  9  1  0
  9 10  1  0
 10 11  2  0
 11 12  1  0
 12 13  1  0
 13 14  1  0
 14 15  1  0
 15 16  1  0
 16 17  1  0
 17 18  1  0
 12 19  2  0
 19 20  1  0
 20 21  1  0
 21 22  1  0
 22 23  1  0
 23 24  1  0
 24 25  2  0
 25 26  1  0
 26 27  2  0
 27 28  1  0
 28 29  2  0
 29 30  1  0
 20 31  2  0
  9 32  1  0
  6  1  1  0
 31 10  1  0
 32  4  1  0
 18 13  1  0
 30 21  1  0
 29 24  1  0
  1 33  1  0
  2 34  1  0
  3 35  1  0
  6 36  1  0
  7 37  1  0
  7 38  1  0
  8 39  1  0
  8 40  1  0
 13 41  1  6
 14 42  1  0
 14 43  1  0
 15 44  1  0
 15 45  1  0
 16 46  1  0
 16 47  1  0
 17 48  1  0
 18 49  1  0
 18 50  1  0
 22 51  1  0
 22 52  1  0
 23 53  1  0
 23 54  1  0
 25 55  1  0
 26 56  1  0
 27 57  1  0
 28 58  1  0
 30 59  1  0
 30 60  1  0
 32 61  1  0
 32 62  1  0
M  END
>  <UniqueID>  (41) 
678

>  <SMILES>  (41) 
c1ccc2c(c1)CCN(c1nc([C@H]3CCCNC3)nc(N3CCc4ccccc4C3)n1)C2

>  <Energy>  (41) 
77.27381382131934

>  <Genealogy>  (41) 
c1ccc2c(c1)CCN(c1nc([C@H]3CCCNC3)nc(N3CCc4ccccc4C3)n1)C2 (chirality)
c1ccc2c(c1)CCN(c1nc([C@H]3CCCNC3)nc(N3CCc4ccccc4C3)n1)C2 (3D coordinates assigned)
c1ccc2c(c1)CCN(c1nc([C@H]3CCCNC3)nc(N3CCc4ccccc4C3)n1)C2 (nonaromatic ring conformer: 77.27381382131934 kcal/mol)

>  <smiles>  (41) 
c1ccc2c(c1)CCN(c1nc(C3CCCNC3)nc(N3CCc4ccccc4C3)n1)C2

>  <score_type>  (41) 
oracle

>  <origin>  (41) 
autodockgpu

>  <m_score__min__energy>  (41) 
-8.9299999999999997

>  <m_primary>  (41) 
energy

>  <meeko>  (41) 
{"free_energy": -8.8, "intermolecular_energy": -9.69, "internal_energy": -0.91, "cluster_size": 19, "cluster_id": 1, "rank_in_cluster": 18}

>  <energy>  (41) 
-8.93

>  <cluster_rmsd>  (41) 
0.0

>  <rmsd>  (41) 
271.51

>  <cluster>  (41) 
1

$$$$
ZPZIUNMFLXMAPV-NRFANRHFNA-N
     RDKit          3D

 62 67  0  0  0  0  0  0  0  0999 V2000
  138.1450   68.7980  225.6800 C   0  0  0  0  0  0  0  0  0  0  0  0
  139.4330   69.0360  226.1590 C   0  0  0  0  0  0  0  0  0  0  0  0
  140.2550   69.9710  225.5240 C   0  0  0  0  0  0  0  0  0  0  0  0
  139.7950   70.6710  224.3960 C   0  0  0  0  0  0  0  0  0  0  0  0
  138.4920   70.4240  223.9100 C   0  0  0  0  0  0  0  0  0  0  0  0
  137.6720   69.4930  224.5640 C   0  0  0  0  0  0  0  0  0  0  0  0
  137.9610   71.1940  222.7360 C   0  0  0  0  0  0  0  0  0  0  0  0
  139.0950   71.5450  221.7770 C   0  0  0  0  0  0  0  0  0  0  0  0
  140.1630   72.2550  222.4980 N   0  0  0  0  0  0  0  0  0  0  0  0
  140.8240   73.3900  221.8990 C   0  0  0  0  0  0  0  0  0  0  0  0
  141.9630   73.2150  221.1770 N   0  0  0  0  0  0  0  0  0  0  0  0
  142.6030   74.2790  220.6280 C   0  0  0  0  0  0  0  0  0  0  0  0
  143.8620   74.0740  219.8280 C   0  0  1  0  0  0  0  0  0  0  0  0
  145.0930   74.0840  220.7630 C   0  0  0  0  0  0  0  0  0  0  0  0
  146.2820   73.3690  220.1130 C   0  0  0  0  0  0  0  0  0  0  0  0
  145.9290   71.9180  219.7130 C   0  0  0  0  0  0  0  0  0  0  0  0
  144.4760   71.6750  219.6690 N   0  0  0  0  0  0  0  0  0  0  0  0
  143.7860   72.7760  218.9850 C   0  0  0  0  0  0  0  0  0  0  0  0
  142.0920   75.5270  220.7930 N   0  0  0  0  0  0  0  0  0  0  0  0
  140.9590   75.7200  221.5150 C   0  0  0  0  0  0  0  0  0  0  0  0
  140.4460   77.0520  221.7240 N   0  0  0  0  0  0  0  0  0  0  0  0
  139.7090   77.7650  220.6760 C   0  0  0  0  0  0  0  0  0  0  0  0
  140.5160   78.9890  220.2490 C   0  0  0  0  0  0  0  0  0  0  0  0
  140.9740   79.7920  221.4430 C   0  0  0  0  0  0  0  0  0  0  0  0
  141.3600   81.1300  221.2580 C   0  0  0  0  0  0  0  0  0  0  0  0
  141.8320   81.8850  222.3340 C   0  0  0  0  0  0  0  0  0  0  0  0
  141.9330   81.3110  223.6020 C   0  0  0  0  0  0  0  0  0  0  0  0
  141.5670   79.9770  223.7980 C   0  0  0  0  0  0  0  0  0  0  0  0
  141.1000   79.2030  222.7250 C   0  0  0  0  0  0  0  0  0  0  0  0
  140.6800   77.7720  222.9830 C   0  0  0  0  0  0  0  0  0  0  0  0
  140.3320   74.6460  222.0630 N   0  0  0  0  0  0  0  0  0  0  0  0
  140.7000   71.6990  223.7530 C   0  0  0  0  0  0  0  0  0  0  0  0
  137.5002   68.0616  226.1818 H   0  0  0  0  0  0  0  0  0  0  0  0
  139.8024   68.4871  227.0378 H   0  0  0  0  0  0  0  0  0  0  0  0
  141.2678   70.1599  225.9095 H   0  0  0  0  0  0  0  0  0  0  0  0
  136.6516   69.3091  224.1966 H   0  0  0  0  0  0  0  0  0  0  0  0
  137.2152   70.5819  222.2077 H   0  0  0  0  0  0  0  0  0  0  0  0
  137.4972   72.1236  223.0976 H   0  0  0  0  0  0  0  0  0  0  0  0
  139.5022   70.6209  221.3408 H   0  0  0  0  0  0  0  0  0  0  0  0
  138.7050   72.1942  220.9792 H   0  0  0  0  0  0  0  0  0  0  0  0
  143.9686   74.9074  219.1180 H   0  0  0  0  0  0  0  0  0  0  0  0
  145.3733   75.1258  220.9776 H   0  0  0  0  0  0  0  0  0  0  0  0
  144.8318   73.5560  221.6920 H   0  0  0  0  0  0  0  0  0  0  0  0
  146.5822   73.9240  219.2120 H   0  0  0  0  0  0  0  0  0  0  0  0
  147.1018   73.3325  220.8456 H   0  0  0  0  0  0  0  0  0  0  0  0
  146.3494   71.7159  218.7168 H   0  0  0  0  0  0  0  0  0  0  0  0
  146.3533   71.2511  220.4780 H   0  0  0  0  0  0  0  0  0  0  0  0
  144.3150   70.8000  219.1170 H   0  0  0  0  0  0  0  0  0  0  0  0
  144.2623   72.9504  218.0089 H   0  0  0  0  0  0  0  0  0  0  0  0
  142.7292   72.5025  218.8490 H   0  0  0  0  0  0  0  0  0  0  0  0
  139.5606   77.1007  219.8119 H   0  0  0  0  0  0  0  0  0  0  0  0
  138.7277   78.0810  221.0597 H   0  0  0  0  0  0  0  0  0  0  0  0
  141.3980   78.6561  219.6822 H   0  0  0  0  0  0  0  0  0  0  0  0
  139.8714   79.6289  219.6285 H   0  0  0  0  0  0  0  0  0  0  0  0
  141.2901   81.5859  220.2594 H   0  0  0  0  0  0  0  0  0  0  0  0
  142.1248   82.9343  222.1817 H   0  0  0  0  0  0  0  0  0  0  0  0
  142.3012   81.9096  224.4482 H   0  0  0  0  0  0  0  0  0  0  0  0
  141.6455   79.5305  224.8003 H   0  0  0  0  0  0  0  0  0  0  0  0
  141.4745   77.2608  223.5464 H   0  0  0  0  0  0  0  0  0  0  0  0
  139.7422   77.7824  223.5579 H   0  0  0  0  0  0  0  0  0  0  0  0
  141.6680   71.2234  223.5366 H   0  0  0  0  0  0  0  0  0  0  0  0
  140.7939   72.5347  224.4620 H   0  0  0  0  0  0  0  0  0  0  0  0
  1  2  2  0
  2  3  1  0
  3  4  2  0
  4  5  1  0
  5  6  2  0
  5  7  1  0
  7  8  1  0
  8  9  1  0
  9 10  1  0
 10 11  2  0
 11 12  1  0
 12 13  1  0
 13 14  1  0
 14 15  1  0
 15 16  1  0
 16 17  1  0
 17 18  1  0
 12 19  2  0
 19 20  1  0
 20 21  1  0
 21 22  1  0
 22 23  1  0
 23 24  1  0
 24 25  2  0
 25 26  1  0
 26 27  2  0
 27 28  1  0
 28 29  2  0
 29 30  1  0
 20 31  2  0
  9 32  1  0
  6  1  1  0
 31 10  1  0
 32  4  1  0
 18 13  1  0
 30 21  1  0
 29 24  1  0
  1 33  1  0
  2 34  1  0
  3 35  1  0
  6 36  1  0
  7 37  1  0
  7 38  1  0
  8 39  1  0
  8 40  1  0
 13 41  1  6
 14 42  1  0
 14 43  1  0
 15 44  1  0
 15 45  1  0
 16 46  1  0
 16 47  1  0
 17 48  1  0
 18 49  1  0
 18 50  1  0
 22 51  1  0
 22 52  1  0
 23 53  1  0
 23 54  1  0
 25 55  1  0
 26 56  1  0
 27 57  1  0
 28 58  1  0
 30 59  1  0
 30 60  1  0
 32 61  1  0
 32 62  1  0
M  END
>  <UniqueID>  (42) 
678

>  <SMILES>  (42) 
c1ccc2c(c1)CCN(c1nc([C@H]3CCCNC3)nc(N3CCc4ccccc4C3)n1)C2

>  <Energy>  (42) 
77.27381382131934

>  <Genealogy>  (42) 
c1ccc2c(c1)CCN(c1nc([C@H]3CCCNC3)nc(N3CCc4ccccc4C3)n1)C2 (chirality)
c1ccc2c(c1)CCN(c1nc([C@H]3CCCNC3)nc(N3CCc4ccccc4C3)n1)C2 (3D coordinates assigned)
c1ccc2c(c1)CCN(c1nc([C@H]3CCCNC3)nc(N3CCc4ccccc4C3)n1)C2 (nonaromatic ring conformer: 77.27381382131934 kcal/mol)

>  <smiles>  (42) 
c1ccc2c(c1)CCN(c1nc(C3CCCNC3)nc(N3CCc4ccccc4C3)n1)C2

>  <score_type>  (42) 
oracle

>  <origin>  (42) 
autodockgpu

>  <m_score__min__energy>  (42) 
-8.9299999999999997

>  <m_primary>  (42) 
energy

>  <meeko>  (42) 
{"free_energy": -8.93, "intermolecular_energy": -9.82, "internal_energy": -0.87, "cluster_size": 19, "cluster_id": 1, "rank_in_cluster": 3}

>  <energy>  (42) 
-8.93

>  <cluster_rmsd>  (42) 
0.2

>  <rmsd>  (42) 
271.5

>  <cluster>  (42) 
1

$$$$
ZPZIUNMFLXMAPV-NRFANRHFNA-N
     RDKit          3D

 62 67  0  0  0  0  0  0  0  0999 V2000
  139.2940   69.2290  227.7330 C   0  0  0  0  0  0  0  0  0  0  0  0
  140.4780   69.9310  227.9610 C   0  0  0  0  0  0  0  0  0  0  0  0
  141.0400   70.7050  226.9420 C   0  0  0  0  0  0  0  0  0  0  0  0
  140.4230   70.7770  225.6820 C   0  0  0  0  0  0  0  0  0  0  0  0
  139.2270   70.0620  225.4530 C   0  0  0  0  0  0  0  0  0  0  0  0
  138.6650   69.2990  226.4870 C   0  0  0  0  0  0  0  0  0  0  0  0
  138.5250   70.1630  224.1300 C   0  0  0  0  0  0  0  0  0  0  0  0
  139.5370   70.3640  223.0070 C   0  0  0  0  0  0  0  0  0  0  0  0
  140.3880   71.5280  223.2980 N   0  0  0  0  0  0  0  0  0  0  0  0
  140.7450   72.4560  222.2520 C   0  0  0  0  0  0  0  0  0  0  0  0
  141.4790   72.0380  221.1870 N   0  0  0  0  0  0  0  0  0  0  0  0
  141.8360   72.9100  220.2090 C   0  0  0  0  0  0  0  0  0  0  0  0
  142.6470   72.4350  219.0320 C   0  0  1  0  0  0  0  0  0  0  0  0
  143.3310   73.6360  218.3390 C   0  0  0  0  0  0  0  0  0  0  0  0
  144.5420   73.1810  217.5190 C   0  0  0  0  0  0  0  0  0  0  0  0
  145.5650   72.4130  218.3870 C   0  0  0  0  0  0  0  0  0  0  0  0
  144.9970   71.9490  219.6640 N   0  0  0  0  0  0  0  0  0  0  0  0
  143.6710   71.3520  219.4570 C   0  0  0  0  0  0  0  0  0  0  0  0
  141.4470   74.2090  220.2930 N   0  0  0  0  0  0  0  0  0  0  0  0
  140.7180   74.6440  221.3530 C   0  0  0  0  0  0  0  0  0  0  0  0
  140.3440   76.0330  221.4580 N   0  0  0  0  0  0  0  0  0  0  0  0
  139.8530   76.7870  220.3010 C   0  0  0  0  0  0  0  0  0  0  0  0
  140.8520   77.8920  219.9680 C   0  0  0  0  0  0  0  0  0  0  0  0
  141.2320   78.6820  221.1980 C   0  0  0  0  0  0  0  0  0  0  0  0
  141.7980   79.9570  221.0430 C   0  0  0  0  0  0  0  0  0  0  0  0
  142.2010   80.6920  222.1590 C   0  0  0  0  0  0  0  0  0  0  0  0
  142.0540   80.1590  223.4400 C   0  0  0  0  0  0  0  0  0  0  0  0
  141.5070   78.8850  223.6100 C   0  0  0  0  0  0  0  0  0  0  0  0
  141.1050   78.1300  222.4970 C   0  0  0  0  0  0  0  0  0  0  0  0
  140.4840   76.7690  222.7220 C   0  0  0  0  0  0  0  0  0  0  0  0
  140.3710   73.7610  222.3260 N   0  0  0  0  0  0  0  0  0  0  0  0
  141.0430   71.6510  224.6130 C   0  0  0  0  0  0  0  0  0  0  0  0
  138.8546   68.6189  228.5359 H   0  0  0  0  0  0  0  0  0  0  0  0
  140.9695   69.8752  228.9435 H   0  0  0  0  0  0  0  0  0  0  0  0
  141.9708   71.2610  227.1277 H   0  0  0  0  0  0  0  0  0  0  0  0
  137.7252   68.7534  226.3165 H   0  0  0  0  0  0  0  0  0  0  0  0
  137.9599   69.2371  223.9476 H   0  0  0  0  0  0  0  0  0  0  0  0
  137.8409   71.0241  224.1531 H   0  0  0  0  0  0  0  0  0  0  0  0
  140.1661   69.4660  222.9187 H   0  0  0  0  0  0  0  0  0  0  0  0
  138.9990   70.5374  222.0633 H   0  0  0  0  0  0  0  0  0  0  0  0
  141.9703   71.9636  218.3041 H   0  0  0  0  0  0  0  0  0  0  0  0
  142.6073   74.1252  217.6704 H   0  0  0  0  0  0  0  0  0  0  0  0
  143.6760   74.3370  219.1134 H   0  0  0  0  0  0  0  0  0  0  0  0
  144.1965   72.5223  216.7086 H   0  0  0  0  0  0  0  0  0  0  0  0
  145.0384   74.0758  217.1154 H   0  0  0  0  0  0  0  0  0  0  0  0
  145.9189   71.5384  217.8216 H   0  0  0  0  0  0  0  0  0  0  0  0
  146.3856   73.1066  218.6226 H   0  0  0  0  0  0  0  0  0  0  0  0
  145.6300   71.2060  220.0440 H   0  0  0  0  0  0  0  0  0  0  0  0
  143.7374   70.5877  218.6687 H   0  0  0  0  0  0  0  0  0  0  0  0
  143.3354   70.8965  220.4003 H   0  0  0  0  0  0  0  0  0  0  0  0
  139.7482   76.1123  219.4385 H   0  0  0  0  0  0  0  0  0  0  0  0
  138.8733   77.2295  220.5342 H   0  0  0  0  0  0  0  0  0  0  0  0
  141.7581   77.4380  219.5404 H   0  0  0  0  0  0  0  0  0  0  0  0
  140.3815   78.5780  219.2483 H   0  0  0  0  0  0  0  0  0  0  0  0
  141.9248   80.3797  220.0354 H   0  0  0  0  0  0  0  0  0  0  0  0
  142.6356   81.6940  222.0283 H   0  0  0  0  0  0  0  0  0  0  0  0
  142.3693   80.7429  224.3173 H   0  0  0  0  0  0  0  0  0  0  0  0
  141.3906   78.4708  224.6224 H   0  0  0  0  0  0  0  0  0  0  0  0
  141.1242   76.1910  223.4047 H   0  0  0  0  0  0  0  0  0  0  0  0
  139.4829   76.9104  223.1553 H   0  0  0  0  0  0  0  0  0  0  0  0
  142.1004   71.3686  224.5028 H   0  0  0  0  0  0  0  0  0  0  0  0
  140.9209   72.6947  224.9382 H   0  0  0  0  0  0  0  0  0  0  0  0
  1  2  2  0
  2  3  1  0
  3  4  2  0
  4  5  1  0
  5  6  2  0
  5  7  1  0
  7  8  1  0
  8  9  1  0
  9 10  1  0
 10 11  2  0
 11 12  1  0
 12 13  1  0
 13 14  1  0
 14 15  1  0
 15 16  1  0
 16 17  1  0
 17 18  1  0
 12 19  2  0
 19 20  1  0
 20 21  1  0
 21 22  1  0
 22 23  1  0
 23 24  1  0
 24 25  2  0
 25 26  1  0
 26 27  2  0
 27 28  1  0
 28 29  2  0
 29 30  1  0
 20 31  2  0
  9 32  1  0
  6  1  1  0
 31 10  1  0
 32  4  1  0
 18 13  1  0
 30 21  1  0
 29 24  1  0
  1 33  1  0
  2 34  1  0
  3 35  1  0
  6 36  1  0
  7 37  1  0
  7 38  1  0
  8 39  1  0
  8 40  1  0
 13 41  1  6
 14 42  1  0
 14 43  1  0
 15 44  1  0
 15 45  1  0
 16 46  1  0
 16 47  1  0
 17 48  1  0
 18 49  1  0
 18 50  1  0
 22 51  1  0
 22 52  1  0
 23 53  1  0
 23 54  1  0
 25 55  1  0
 26 56  1  0
 27 57  1  0
 28 58  1  0
 30 59  1  0
 30 60  1  0
 32 61  1  0
 32 62  1  0
M  END
>  <UniqueID>  (43) 
678

>  <SMILES>  (43) 
c1ccc2c(c1)CCN(c1nc([C@H]3CCCNC3)nc(N3CCc4ccccc4C3)n1)C2

>  <Energy>  (43) 
77.27381382131934

>  <Genealogy>  (43) 
c1ccc2c(c1)CCN(c1nc([C@H]3CCCNC3)nc(N3CCc4ccccc4C3)n1)C2 (chirality)
c1ccc2c(c1)CCN(c1nc([C@H]3CCCNC3)nc(N3CCc4ccccc4C3)n1)C2 (3D coordinates assigned)
c1ccc2c(c1)CCN(c1nc([C@H]3CCCNC3)nc(N3CCc4ccccc4C3)n1)C2 (nonaromatic ring conformer: 77.27381382131934 kcal/mol)

>  <smiles>  (43) 
c1ccc2c(c1)CCN(c1nc(C3CCCNC3)nc(N3CCc4ccccc4C3)n1)C2

>  <score_type>  (43) 
oracle

>  <origin>  (43) 
autodockgpu

>  <m_score__min__energy>  (43) 
-8.9299999999999997

>  <m_primary>  (43) 
energy

>  <meeko>  (43) 
{"free_energy": -8.88, "intermolecular_energy": -9.78, "internal_energy": -0.9, "cluster_size": 19, "cluster_id": 1, "rank_in_cluster": 11}

>  <energy>  (43) 
-8.93

>  <cluster_rmsd>  (43) 
0.13

>  <rmsd>  (43) 
271.5

>  <cluster>  (43) 
1

$$$$
ZPZIUNMFLXMAPV-NRFANRHFNA-N
     RDKit          3D

 62 67  0  0  0  0  0  0  0  0999 V2000
  138.1790   68.7920  225.6910 C   0  0  0  0  0  0  0  0  0  0  0  0
  139.5200   68.9300  226.0510 C   0  0  0  0  0  0  0  0  0  0  0  0
  140.3350   69.8430  225.3770 C   0  0  0  0  0  0  0  0  0  0  0  0
  139.8150   70.6220  224.3300 C   0  0  0  0  0  0  0  0  0  0  0  0
  138.4590   70.4770  223.9650 C   0  0  0  0  0  0  0  0  0  0  0  0
  137.6470   69.5660  224.6580 C   0  0  0  0  0  0  0  0  0  0  0  0
  137.8690   71.3320  222.8810 C   0  0  0  0  0  0  0  0  0  0  0  0
  138.9260   71.6600  221.8310 C   0  0  0  0  0  0  0  0  0  0  0  0
  140.1010   72.2690  222.4720 N   0  0  0  0  0  0  0  0  0  0  0  0
  140.7740   73.3890  221.8580 C   0  0  0  0  0  0  0  0  0  0  0  0
  141.9150   73.1940  221.1450 N   0  0  0  0  0  0  0  0  0  0  0  0
  142.5650   74.2450  220.5820 C   0  0  0  0  0  0  0  0  0  0  0  0
  143.8260   74.0180  219.7910 C   0  0  1  0  0  0  0  0  0  0  0  0
  145.0540   74.0480  220.7300 C   0  0  0  0  0  0  0  0  0  0  0  0
  146.2450   73.3150  220.1020 C   0  0  0  0  0  0  0  0  0  0  0  0
  145.8890   71.8560  219.7360 C   0  0  0  0  0  0  0  0  0  0  0  0
  144.4360   71.6150  219.6930 N   0  0  0  0  0  0  0  0  0  0  0  0
  143.7510   72.6990  218.9800 C   0  0  0  0  0  0  0  0  0  0  0  0
  142.0630   75.4990  220.7240 N   0  0  0  0  0  0  0  0  0  0  0  0
  140.9270   75.7120  221.4380 C   0  0  0  0  0  0  0  0  0  0  0  0
  140.4240   77.0500  221.6230 N   0  0  0  0  0  0  0  0  0  0  0  0
  139.8020   77.7960  220.5250 C   0  0  0  0  0  0  0  0  0  0  0  0
  140.6690   79.0100  220.1960 C   0  0  0  0  0  0  0  0  0  0  0  0
  141.0290   79.7840  221.4430 C   0  0  0  0  0  0  0  0  0  0  0  0
  141.4570   81.1150  221.3190 C   0  0  0  0  0  0  0  0  0  0  0  0
  141.8400   81.8420  222.4480 C   0  0  0  0  0  0  0  0  0  0  0  0
  141.8120   81.2450  223.7090 C   0  0  0  0  0  0  0  0  0  0  0  0
  141.4030   79.9170  223.8460 C   0  0  0  0  0  0  0  0  0  0  0  0
  141.0230   79.1700  222.7200 C   0  0  0  0  0  0  0  0  0  0  0  0
  140.5530   77.7450  222.9110 C   0  0  0  0  0  0  0  0  0  0  0  0
  140.2900   74.6510  222.0000 N   0  0  0  0  0  0  0  0  0  0  0  0
  140.7190   71.6230  223.6440 C   0  0  0  0  0  0  0  0  0  0  0  0
  137.5395   68.0717  226.2223 H   0  0  0  0  0  0  0  0  0  0  0  0
  139.9358   68.3195  226.8661 H   0  0  0  0  0  0  0  0  0  0  0  0
  141.3902   69.9525  225.6679 H   0  0  0  0  0  0  0  0  0  0  0  0
  136.5863   69.4613  224.3860 H   0  0  0  0  0  0  0  0  0  0  0  0
  137.0388   70.7909  222.4035 H   0  0  0  0  0  0  0  0  0  0  0  0
  137.5023   72.2695  223.3245 H   0  0  0  0  0  0  0  0  0  0  0  0
  139.2293   70.7352  221.3184 H   0  0  0  0  0  0  0  0  0  0  0  0
  138.5039   72.3691  221.1036 H   0  0  0  0  0  0  0  0  0  0  0  0
  143.9357   74.8334  219.0609 H   0  0  0  0  0  0  0  0  0  0  0  0
  145.3355   75.0942  220.9205 H   0  0  0  0  0  0  0  0  0  0  0  0
  144.7882   73.5427  221.6702 H   0  0  0  0  0  0  0  0  0  0  0  0
  146.5503   73.8474  219.1891 H   0  0  0  0  0  0  0  0  0  0  0  0
  147.0623   73.2946  220.8380 H   0  0  0  0  0  0  0  0  0  0  0  0
  146.3121   71.6290  218.7463 H   0  0  0  0  0  0  0  0  0  0  0  0
  146.3088   71.2070  220.5187 H   0  0  0  0  0  0  0  0  0  0  0  0
  144.2760   70.7260  219.1620 H   0  0  0  0  0  0  0  0  0  0  0  0
  144.2312   72.8483  218.0017 H   0  0  0  0  0  0  0  0  0  0  0  0
  142.6943   72.4239  218.8471 H   0  0  0  0  0  0  0  0  0  0  0  0
  139.7211   77.1493  219.6388 H   0  0  0  0  0  0  0  0  0  0  0  0
  138.7961   78.1269  220.8229 H   0  0  0  0  0  0  0  0  0  0  0  0
  141.5934   78.6680  219.7076 H   0  0  0  0  0  0  0  0  0  0  0  0
  140.0980   79.6731  219.5295 H   0  0  0  0  0  0  0  0  0  0  0  0
  141.4909   81.5882  220.3266 H   0  0  0  0  0  0  0  0  0  0  0  0
  142.1645   82.8878  222.3431 H   0  0  0  0  0  0  0  0  0  0  0  0
  142.1126   81.8214  224.5964 H   0  0  0  0  0  0  0  0  0  0  0  0
  141.3784   79.4531  224.8431 H   0  0  0  0  0  0  0  0  0  0  0  0
  141.2810   77.2081  223.5369 H   0  0  0  0  0  0  0  0  0  0  0  0
  139.5656   77.7663  223.3953 H   0  0  0  0  0  0  0  0  0  0  0  0
  141.6291   71.1007  223.3138 H   0  0  0  0  0  0  0  0  0  0  0  0
  140.9343   72.4170  224.3742 H   0  0  0  0  0  0  0  0  0  0  0  0
  1  2  2  0
  2  3  1  0
  3  4  2  0
  4  5  1  0
  5  6  2  0
  5  7  1  0
  7  8  1  0
  8  9  1  0
  9 10  1  0
 10 11  2  0
 11 12  1  0
 12 13  1  0
 13 14  1  0
 14 15  1  0
 15 16  1  0
 16 17  1  0
 17 18  1  0
 12 19  2  0
 19 20  1  0
 20 21  1  0
 21 22  1  0
 22 23  1  0
 23 24  1  0
 24 25  2  0
 25 26  1  0
 26 27  2  0
 27 28  1  0
 28 29  2  0
 29 30  1  0
 20 31  2  0
  9 32  1  0
  6  1  1  0
 31 10  1  0
 32  4  1  0
 18 13  1  0
 30 21  1  0
 29 24  1  0
  1 33  1  0
  2 34  1  0
  3 35  1  0
  6 36  1  0
  7 37  1  0
  7 38  1  0
  8 39  1  0
  8 40  1  0
 13 41  1  6
 14 42  1  0
 14 43  1  0
 15 44  1  0
 15 45  1  0
 16 46  1  0
 16 47  1  0
 17 48  1  0
 18 49  1  0
 18 50  1  0
 22 51  1  0
 22 52  1  0
 23 53  1  0
 23 54  1  0
 25 55  1  0
 26 56  1  0
 27 57  1  0
 28 58  1  0
 30 59  1  0
 30 60  1  0
 32 61  1  0
 32 62  1  0
M  END
>  <UniqueID>  (44) 
678

>  <SMILES>  (44) 
c1ccc2c(c1)CCN(c1nc([C@H]3CCCNC3)nc(N3CCc4ccccc4C3)n1)C2

>  <Energy>  (44) 
77.27381382131934

>  <Genealogy>  (44) 
c1ccc2c(c1)CCN(c1nc([C@H]3CCCNC3)nc(N3CCc4ccccc4C3)n1)C2 (chirality)
c1ccc2c(c1)CCN(c1nc([C@H]3CCCNC3)nc(N3CCc4ccccc4C3)n1)C2 (3D coordinates assigned)
c1ccc2c(c1)CCN(c1nc([C@H]3CCCNC3)nc(N3CCc4ccccc4C3)n1)C2 (nonaromatic ring conformer: 77.27381382131934 kcal/mol)

>  <smiles>  (44) 
c1ccc2c(c1)CCN(c1nc(C3CCCNC3)nc(N3CCc4ccccc4C3)n1)C2

>  <score_type>  (44) 
oracle

>  <origin>  (44) 
autodockgpu

>  <m_score__min__energy>  (44) 
-8.9299999999999997

>  <m_primary>  (44) 
energy

>  <meeko>  (44) 
{"free_energy": -8.91, "intermolecular_energy": -9.8, "internal_energy": -0.87, "cluster_size": 19, "cluster_id": 1, "rank_in_cluster": 9}

>  <energy>  (44) 
-8.93

>  <cluster_rmsd>  (44) 
0.09

>  <rmsd>  (44) 
271.49

>  <cluster>  (44) 
1

$$$$
ZPZIUNMFLXMAPV-NRFANRHFNA-N
     RDKit          3D

 62 67  0  0  0  0  0  0  0  0999 V2000
  138.2220   68.6450  225.7130 C   0  0  0  0  0  0  0  0  0  0  0  0
  139.5310   68.8530  226.1480 C   0  0  0  0  0  0  0  0  0  0  0  0
  140.3390   69.7960  225.5080 C   0  0  0  0  0  0  0  0  0  0  0  0
  139.8450   70.5350  224.4200 C   0  0  0  0  0  0  0  0  0  0  0  0
  138.5210   70.3200  223.9800 C   0  0  0  0  0  0  0  0  0  0  0  0
  137.7140   69.3800  224.6390 C   0  0  0  0  0  0  0  0  0  0  0  0
  137.9550   71.1310  222.8510 C   0  0  0  0  0  0  0  0  0  0  0  0
  139.0540   71.4970  221.8580 C   0  0  0  0  0  0  0  0  0  0  0  0
  140.1590   72.1710  222.5570 N   0  0  0  0  0  0  0  0  0  0  0  0
  140.8130   73.3150  221.9650 C   0  0  0  0  0  0  0  0  0  0  0  0
  141.9300   73.1490  221.2090 N   0  0  0  0  0  0  0  0  0  0  0  0
  142.5620   74.2210  220.6670 C   0  0  0  0  0  0  0  0  0  0  0  0
  143.7980   74.0260  219.8290 C   0  0  1  0  0  0  0  0  0  0  0  0
  145.0600   74.1070  220.7170 C   0  0  0  0  0  0  0  0  0  0  0  0
  146.2490   73.4050  220.0500 C   0  0  0  0  0  0  0  0  0  0  0  0
  145.9270   71.9310  219.7130 C   0  0  0  0  0  0  0  0  0  0  0  0
  144.4820   71.6430  219.7310 N   0  0  0  0  0  0  0  0  0  0  0  0
  143.7340   72.6970  219.0340 C   0  0  0  0  0  0  0  0  0  0  0  0
  142.0650   75.4690  220.8730 N   0  0  0  0  0  0  0  0  0  0  0  0
  140.9520   75.6520  221.6300 C   0  0  0  0  0  0  0  0  0  0  0  0
  140.4550   76.9820  221.8820 N   0  0  0  0  0  0  0  0  0  0  0  0
  139.5570   77.6570  220.9410 C   0  0  0  0  0  0  0  0  0  0  0  0
  140.2690   78.8810  220.3670 C   0  0  0  0  0  0  0  0  0  0  0  0
  140.8880   79.7210  221.4590 C   0  0  0  0  0  0  0  0  0  0  0  0
  141.2190   81.0580  221.1860 C   0  0  0  0  0  0  0  0  0  0  0  0
  141.8350   81.8470  222.1600 C   0  0  0  0  0  0  0  0  0  0  0  0
  142.1360   81.3070  223.4120 C   0  0  0  0  0  0  0  0  0  0  0  0
  141.8260   79.9750  223.6930 C   0  0  0  0  0  0  0  0  0  0  0  0
  141.2150   79.1660  222.7210 C   0  0  0  0  0  0  0  0  0  0  0  0
  140.8630   77.7380  223.0740 C   0  0  0  0  0  0  0  0  0  0  0  0
  140.3330   74.5700  222.1710 N   0  0  0  0  0  0  0  0  0  0  0  0
  140.7380   71.5700  223.7730 C   0  0  0  0  0  0  0  0  0  0  0  0
  137.5882   67.9004  226.2169 H   0  0  0  0  0  0  0  0  0  0  0  0
  139.9272   68.2742  226.9954 H   0  0  0  0  0  0  0  0  0  0  0  0
  141.3686   69.9610  225.8582 H   0  0  0  0  0  0  0  0  0  0  0  0
  136.6769   69.2212  224.3085 H   0  0  0  0  0  0  0  0  0  0  0  0
  137.1809   70.5439  222.3352 H   0  0  0  0  0  0  0  0  0  0  0  0
  137.5189   72.0551  223.2582 H   0  0  0  0  0  0  0  0  0  0  0  0
  139.4308   70.5818  221.3779 H   0  0  0  0  0  0  0  0  0  0  0  0
  138.6415   72.1749  221.0962 H   0  0  0  0  0  0  0  0  0  0  0  0
  143.8524   74.8365  219.0873 H   0  0  0  0  0  0  0  0  0  0  0  0
  145.3144   75.1640  220.8845 H   0  0  0  0  0  0  0  0  0  0  0  0
  144.8483   73.6048  221.6725 H   0  0  0  0  0  0  0  0  0  0  0  0
  146.5010   73.9364  219.1204 H   0  0  0  0  0  0  0  0  0  0  0  0
  147.0943   73.4191  220.7537 H   0  0  0  0  0  0  0  0  0  0  0  0
  146.3175   71.7067  218.7094 H   0  0  0  0  0  0  0  0  0  0  0  0
  146.3989   71.3045  220.4843 H   0  0  0  0  0  0  0  0  0  0  0  0
  144.3300   70.7440  219.2150 H   0  0  0  0  0  0  0  0  0  0  0  0
  144.1705   72.8510  218.0361 H   0  0  0  0  0  0  0  0  0  0  0  0
  142.6825   72.3867  218.9447 H   0  0  0  0  0  0  0  0  0  0  0  0
  139.2917   76.9682  220.1254 H   0  0  0  0  0  0  0  0  0  0  0  0
  138.6397   77.9699  221.4612 H   0  0  0  0  0  0  0  0  0  0  0  0
  141.0609   78.5455  219.6812 H   0  0  0  0  0  0  0  0  0  0  0  0
  139.5272   79.4956  219.8359 H   0  0  0  0  0  0  0  0  0  0  0  0
  140.9917   81.4867  220.1988 H   0  0  0  0  0  0  0  0  0  0  0  0
  142.0835   82.8958  221.9404 H   0  0  0  0  0  0  0  0  0  0  0  0
  142.6181   81.9320  224.1781 H   0  0  0  0  0  0  0  0  0  0  0  0
  142.0619   79.5563  224.6824 H   0  0  0  0  0  0  0  0  0  0  0  0
  141.7416   77.2524  223.5237 H   0  0  0  0  0  0  0  0  0  0  0  0
  140.0223   77.7512  223.7832 H   0  0  0  0  0  0  0  0  0  0  0  0
  141.6899   71.0889  223.5039 H   0  0  0  0  0  0  0  0  0  0  0  0
  140.8719   72.3824  224.5024 H   0  0  0  0  0  0  0  0  0  0  0  0
  1  2  2  0
  2  3  1  0
  3  4  2  0
  4  5  1  0
  5  6  2  0
  5  7  1  0
  7  8  1  0
  8  9  1  0
  9 10  1  0
 10 11  2  0
 11 12  1  0
 12 13  1  0
 13 14  1  0
 14 15  1  0
 15 16  1  0
 16 17  1  0
 17 18  1  0
 12 19  2  0
 19 20  1  0
 20 21  1  0
 21 22  1  0
 22 23  1  0
 23 24  1  0
 24 25  2  0
 25 26  1  0
 26 27  2  0
 27 28  1  0
 28 29  2  0
 29 30  1  0
 20 31  2  0
  9 32  1  0
  6  1  1  0
 31 10  1  0
 32  4  1  0
 18 13  1  0
 30 21  1  0
 29 24  1  0
  1 33  1  0
  2 34  1  0
  3 35  1  0
  6 36  1  0
  7 37  1  0
  7 38  1  0
  8 39  1  0
  8 40  1  0
 13 41  1  6
 14 42  1  0
 14 43  1  0
 15 44  1  0
 15 45  1  0
 16 46  1  0
 16 47  1  0
 17 48  1  0
 18 49  1  0
 18 50  1  0
 22 51  1  0
 22 52  1  0
 23 53  1  0
 23 54  1  0
 25 55  1  0
 26 56  1  0
 27 57  1  0
 28 58  1  0
 30 59  1  0
 30 60  1  0
 32 61  1  0
 32 62  1  0
M  END
>  <UniqueID>  (45) 
678

>  <SMILES>  (45) 
c1ccc2c(c1)CCN(c1nc([C@H]3CCCNC3)nc(N3CCc4ccccc4C3)n1)C2

>  <Energy>  (45) 
77.27381382131934

>  <Genealogy>  (45) 
c1ccc2c(c1)CCN(c1nc([C@H]3CCCNC3)nc(N3CCc4ccccc4C3)n1)C2 (chirality)
c1ccc2c(c1)CCN(c1nc([C@H]3CCCNC3)nc(N3CCc4ccccc4C3)n1)C2 (3D coordinates assigned)
c1ccc2c(c1)CCN(c1nc([C@H]3CCCNC3)nc(N3CCc4ccccc4C3)n1)C2 (nonaromatic ring conformer: 77.27381382131934 kcal/mol)

>  <smiles>  (45) 
c1ccc2c(c1)CCN(c1nc(C3CCCNC3)nc(N3CCc4ccccc4C3)n1)C2

>  <score_type>  (45) 
oracle

>  <origin>  (45) 
autodockgpu

>  <m_score__min__energy>  (45) 
-8.9299999999999997

>  <m_primary>  (45) 
energy

>  <meeko>  (45) 
{"free_energy": -8.92, "intermolecular_energy": -9.82, "internal_energy": -0.87, "cluster_size": 19, "cluster_id": 1, "rank_in_cluster": 6}

>  <energy>  (45) 
-8.92

>  <cluster_rmsd>  (45) 
0.16

>  <rmsd>  (45) 
271.5

>  <cluster>  (45) 
1

$$$$
ZPZIUNMFLXMAPV-NRFANRHFNA-N
     RDKit          3D

 62 67  0  0  0  0  0  0  0  0999 V2000
  138.1310   68.8490  225.6810 C   0  0  0  0  0  0  0  0  0  0  0  0
  139.4290   69.0690  226.1450 C   0  0  0  0  0  0  0  0  0  0  0  0
  140.2540   69.9960  225.5030 C   0  0  0  0  0  0  0  0  0  0  0  0
  139.7890   70.7060  224.3830 C   0  0  0  0  0  0  0  0  0  0  0  0
  138.4770   70.4770  223.9130 C   0  0  0  0  0  0  0  0  0  0  0  0
  137.6530   69.5550  224.5740 C   0  0  0  0  0  0  0  0  0  0  0  0
  137.9420   71.2590  222.7480 C   0  0  0  0  0  0  0  0  0  0  0  0
  139.0680   71.5980  221.7760 C   0  0  0  0  0  0  0  0  0  0  0  0
  140.1540   72.2920  222.4860 N   0  0  0  0  0  0  0  0  0  0  0  0
  140.8230   73.4200  221.8820 C   0  0  0  0  0  0  0  0  0  0  0  0
  141.9670   73.2360  221.1710 N   0  0  0  0  0  0  0  0  0  0  0  0
  142.6130   74.2940  220.6180 C   0  0  0  0  0  0  0  0  0  0  0  0
  143.8780   74.0800  219.8290 C   0  0  1  0  0  0  0  0  0  0  0  0
  145.1000   74.0760  220.7760 C   0  0  0  0  0  0  0  0  0  0  0  0
  146.2890   73.3510  220.1360 C   0  0  0  0  0  0  0  0  0  0  0  0
  145.9260   71.9050  219.7280 C   0  0  0  0  0  0  0  0  0  0  0  0
  144.4720   71.6760  219.6700 N   0  0  0  0  0  0  0  0  0  0  0  0
  143.7980   72.7840  218.9820 C   0  0  0  0  0  0  0  0  0  0  0  0
  142.1040   75.5450  220.7680 N   0  0  0  0  0  0  0  0  0  0  0  0
  140.9650   75.7460  221.4800 C   0  0  0  0  0  0  0  0  0  0  0  0
  140.4540   77.0810  221.6730 N   0  0  0  0  0  0  0  0  0  0  0  0
  139.7660   77.8030  220.6000 C   0  0  0  0  0  0  0  0  0  0  0  0
  140.5980   79.0230  220.2100 C   0  0  0  0  0  0  0  0  0  0  0  0
  141.0120   79.8190  221.4260 C   0  0  0  0  0  0  0  0  0  0  0  0
  141.4150   81.1540  221.2620 C   0  0  0  0  0  0  0  0  0  0  0  0
  141.8480   81.9010  222.3590 C   0  0  0  0  0  0  0  0  0  0  0  0
  141.8940   81.3210  223.6280 C   0  0  0  0  0  0  0  0  0  0  0  0
  141.5110   79.9900  223.8040 C   0  0  0  0  0  0  0  0  0  0  0  0
  141.0820   79.2230  222.7090 C   0  0  0  0  0  0  0  0  0  0  0  0
  140.6420   77.7950  222.9440 C   0  0  0  0  0  0  0  0  0  0  0  0
  140.3320   74.6780  222.0320 N   0  0  0  0  0  0  0  0  0  0  0  0
  140.6990   71.7240  223.7330 C   0  0  0  0  0  0  0  0  0  0  0  0
  137.4833   68.1185  226.1878 H   0  0  0  0  0  0  0  0  0  0  0  0
  139.8027   68.5120  227.0169 H   0  0  0  0  0  0  0  0  0  0  0  0
  141.2737   70.1711  225.8765 H   0  0  0  0  0  0  0  0  0  0  0  0
  136.6254   69.3867  224.2194 H   0  0  0  0  0  0  0  0  0  0  0  0
  137.1812   70.6592  222.2270 H   0  0  0  0  0  0  0  0  0  0  0  0
  137.4960   72.1936  223.1189 H   0  0  0  0  0  0  0  0  0  0  0  0
  139.4577   70.6701  221.3321 H   0  0  0  0  0  0  0  0  0  0  0  0
  138.6766   72.2544  220.9849 H   0  0  0  0  0  0  0  0  0  0  0  0
  143.9990   74.9142  219.1223 H   0  0  0  0  0  0  0  0  0  0  0  0
  145.3881   75.1146  220.9958 H   0  0  0  0  0  0  0  0  0  0  0  0
  144.8246   73.5482  221.7010 H   0  0  0  0  0  0  0  0  0  0  0  0
  146.6040   73.9056  219.2398 H   0  0  0  0  0  0  0  0  0  0  0  0
  147.1007   73.3042  220.8769 H   0  0  0  0  0  0  0  0  0  0  0  0
  146.3536   71.7022  218.7350 H   0  0  0  0  0  0  0  0  0  0  0  0
  146.3369   71.2316  220.4946 H   0  0  0  0  0  0  0  0  0  0  0  0
  144.3080   70.8030  219.1140 H   0  0  0  0  0  0  0  0  0  0  0  0
  144.2846   72.9561  218.0106 H   0  0  0  0  0  0  0  0  0  0  0  0
  142.7402   72.5202  218.8356 H   0  0  0  0  0  0  0  0  0  0  0  0
  139.6477   77.1430  219.7280 H   0  0  0  0  0  0  0  0  0  0  0  0
  138.7727   78.1251  220.9457 H   0  0  0  0  0  0  0  0  0  0  0  0
  141.5002   78.6860  219.6786 H   0  0  0  0  0  0  0  0  0  0  0  0
  139.9841   79.6693  219.5654 H   0  0  0  0  0  0  0  0  0  0  0  0
  141.3894   81.6140  220.2631 H   0  0  0  0  0  0  0  0  0  0  0  0
  142.1536   82.9489  222.2232 H   0  0  0  0  0  0  0  0  0  0  0  0
  142.2325   81.9136  224.4907 H   0  0  0  0  0  0  0  0  0  0  0  0
  141.5456   79.5394  224.8069 H   0  0  0  0  0  0  0  0  0  0  0  0
  141.4094   77.2760  223.5370 H   0  0  0  0  0  0  0  0  0  0  0  0
  139.6818   77.8101  223.4805 H   0  0  0  0  0  0  0  0  0  0  0  0
  141.6580   71.2366  223.5031 H   0  0  0  0  0  0  0  0  0  0  0  0
  140.8123   72.5558  224.4438 H   0  0  0  0  0  0  0  0  0  0  0  0
  1  2  2  0
  2  3  1  0
  3  4  2  0
  4  5  1  0
  5  6  2  0
  5  7  1  0
  7  8  1  0
  8  9  1  0
  9 10  1  0
 10 11  2  0
 11 12  1  0
 12 13  1  0
 13 14  1  0
 14 15  1  0
 15 16  1  0
 16 17  1  0
 17 18  1  0
 12 19  2  0
 19 20  1  0
 20 21  1  0
 21 22  1  0
 22 23  1  0
 23 24  1  0
 24 25  2  0
 25 26  1  0
 26 27  2  0
 27 28  1  0
 28 29  2  0
 29 30  1  0
 20 31  2  0
  9 32  1  0
  6  1  1  0
 31 10  1  0
 32  4  1  0
 18 13  1  0
 30 21  1  0
 29 24  1  0
  1 33  1  0
  2 34  1  0
  3 35  1  0
  6 36  1  0
  7 37  1  0
  7 38  1  0
  8 39  1  0
  8 40  1  0
 13 41  1  6
 14 42  1  0
 14 43  1  0
 15 44  1  0
 15 45  1  0
 16 46  1  0
 16 47  1  0
 17 48  1  0
 18 49  1  0
 18 50  1  0
 22 51  1  0
 22 52  1  0
 23 53  1  0
 23 54  1  0
 25 55  1  0
 26 56  1  0
 27 57  1  0
 28 58  1  0
 30 59  1  0
 30 60  1  0
 32 61  1  0
 32 62  1  0
M  END
>  <UniqueID>  (46) 
678

>  <SMILES>  (46) 
c1ccc2c(c1)CCN(c1nc([C@H]3CCCNC3)nc(N3CCc4ccccc4C3)n1)C2

>  <Energy>  (46) 
77.27381382131934

>  <Genealogy>  (46) 
c1ccc2c(c1)CCN(c1nc([C@H]3CCCNC3)nc(N3CCc4ccccc4C3)n1)C2 (chirality)
c1ccc2c(c1)CCN(c1nc([C@H]3CCCNC3)nc(N3CCc4ccccc4C3)n1)C2 (3D coordinates assigned)
c1ccc2c(c1)CCN(c1nc([C@H]3CCCNC3)nc(N3CCc4ccccc4C3)n1)C2 (nonaromatic ring conformer: 77.27381382131934 kcal/mol)

>  <smiles>  (46) 
c1ccc2c(c1)CCN(c1nc(C3CCCNC3)nc(N3CCc4ccccc4C3)n1)C2

>  <score_type>  (46) 
oracle

>  <origin>  (46) 
autodockgpu

>  <m_score__min__energy>  (46) 
-8.9299999999999997

>  <m_primary>  (46) 
energy

>  <meeko>  (46) 
{"free_energy": -8.92, "intermolecular_energy": -9.82, "internal_energy": -0.87, "cluster_size": 19, "cluster_id": 1, "rank_in_cluster": 5}

>  <energy>  (46) 
-8.92

>  <cluster_rmsd>  (46) 
0.1

>  <rmsd>  (46) 
271.51

>  <cluster>  (46) 
1

$$$$
ZPZIUNMFLXMAPV-NRFANRHFNA-N
     RDKit          3D

 62 67  0  0  0  0  0  0  0  0999 V2000
  138.2500   68.6090  225.6670 C   0  0  0  0  0  0  0  0  0  0  0  0
  139.5800   68.7750  226.0570 C   0  0  0  0  0  0  0  0  0  0  0  0
  140.3860   69.7150  225.4100 C   0  0  0  0  0  0  0  0  0  0  0  0
  139.8700   70.4940  224.3610 C   0  0  0  0  0  0  0  0  0  0  0  0
  138.5250   70.3200  223.9660 C   0  0  0  0  0  0  0  0  0  0  0  0
  137.7210   69.3820  224.6310 C   0  0  0  0  0  0  0  0  0  0  0  0
  137.9370   71.1730  222.8800 C   0  0  0  0  0  0  0  0  0  0  0  0
  139.0080   71.5390  221.8560 C   0  0  0  0  0  0  0  0  0  0  0  0
  140.1540   72.1690  222.5290 N   0  0  0  0  0  0  0  0  0  0  0  0
  140.8120   73.3120  221.9410 C   0  0  0  0  0  0  0  0  0  0  0  0
  141.9390   73.1460  221.1990 N   0  0  0  0  0  0  0  0  0  0  0  0
  142.5750   74.2180  220.6610 C   0  0  0  0  0  0  0  0  0  0  0  0
  143.8210   74.0230  219.8380 C   0  0  1  0  0  0  0  0  0  0  0  0
  145.0710   74.0760  220.7460 C   0  0  0  0  0  0  0  0  0  0  0  0
  146.2620   73.3730  220.0850 C   0  0  0  0  0  0  0  0  0  0  0  0
  145.9300   71.9080  219.7200 C   0  0  0  0  0  0  0  0  0  0  0  0
  144.4820   71.6340  219.7130 N   0  0  0  0  0  0  0  0  0  0  0  0
  143.7550   72.7070  219.0220 C   0  0  0  0  0  0  0  0  0  0  0  0
  142.0730   75.4650  220.8580 N   0  0  0  0  0  0  0  0  0  0  0  0
  140.9520   75.6490  221.6010 C   0  0  0  0  0  0  0  0  0  0  0  0
  140.4490   76.9780  221.8430 N   0  0  0  0  0  0  0  0  0  0  0  0
  139.5670   77.6520  220.8860 C   0  0  0  0  0  0  0  0  0  0  0  0
  140.2880   78.8760  220.3240 C   0  0  0  0  0  0  0  0  0  0  0  0
  140.8870   79.7170  221.4260 C   0  0  0  0  0  0  0  0  0  0  0  0
  141.2220   81.0540  221.1580 C   0  0  0  0  0  0  0  0  0  0  0  0
  141.8200   81.8440  222.1410 C   0  0  0  0  0  0  0  0  0  0  0  0
  142.0990   81.3060  223.3980 C   0  0  0  0  0  0  0  0  0  0  0  0
  141.7850   79.9740  223.6750 C   0  0  0  0  0  0  0  0  0  0  0  0
  141.1930   79.1640  222.6940 C   0  0  0  0  0  0  0  0  0  0  0  0
  140.8350   77.7360  223.0410 C   0  0  0  0  0  0  0  0  0  0  0  0
  140.3280   74.5670  222.1370 N   0  0  0  0  0  0  0  0  0  0  0  0
  140.7630   71.5240  223.7060 C   0  0  0  0  0  0  0  0  0  0  0  0
  137.6171   67.8677  226.1768 H   0  0  0  0  0  0  0  0  0  0  0  0
  139.9936   68.1655  226.8740 H   0  0  0  0  0  0  0  0  0  0  0  0
  141.4320   69.8461  225.7242 H   0  0  0  0  0  0  0  0  0  0  0  0
  136.6692   69.2548  224.3351 H   0  0  0  0  0  0  0  0  0  0  0  0
  137.1304   70.6177  222.3789 H   0  0  0  0  0  0  0  0  0  0  0  0
  137.5381   72.0959  223.3262 H   0  0  0  0  0  0  0  0  0  0  0  0
  139.3447   70.6279  221.3397 H   0  0  0  0  0  0  0  0  0  0  0  0
  138.5841   72.2459  221.1276 H   0  0  0  0  0  0  0  0  0  0  0  0
  143.8946   74.8444  219.1101 H   0  0  0  0  0  0  0  0  0  0  0  0
  145.3338   75.1273  220.9349 H   0  0  0  0  0  0  0  0  0  0  0  0
  144.8400   73.5602  221.6897 H   0  0  0  0  0  0  0  0  0  0  0  0
  146.5326   73.9165  219.1677 H   0  0  0  0  0  0  0  0  0  0  0  0
  147.0974   73.3674  220.8006 H   0  0  0  0  0  0  0  0  0  0  0  0
  146.3325   71.6957  218.7185 H   0  0  0  0  0  0  0  0  0  0  0  0
  146.3845   71.2648  220.4879 H   0  0  0  0  0  0  0  0  0  0  0  0
  144.3280   70.7450  219.1810 H   0  0  0  0  0  0  0  0  0  0  0  0
  144.2075   72.8717  218.0330 H   0  0  0  0  0  0  0  0  0  0  0  0
  142.7017   72.4092  218.9134 H   0  0  0  0  0  0  0  0  0  0  0  0
  139.3164   76.9626  220.0663 H   0  0  0  0  0  0  0  0  0  0  0  0
  138.6405   77.9645  221.3899 H   0  0  0  0  0  0  0  0  0  0  0  0
  141.0921   78.5407  219.6524 H   0  0  0  0  0  0  0  0  0  0  0  0
  139.5552   79.4897  219.7796 H   0  0  0  0  0  0  0  0  0  0  0  0
  141.0117   81.4817  220.1666 H   0  0  0  0  0  0  0  0  0  0  0  0
  142.0719   82.8927  221.9245 H   0  0  0  0  0  0  0  0  0  0  0  0
  142.5670   81.9322  224.1718 H   0  0  0  0  0  0  0  0  0  0  0  0
  142.0032   79.5567  224.6691 H   0  0  0  0  0  0  0  0  0  0  0  0
  141.7054   77.2512  223.5071 H   0  0  0  0  0  0  0  0  0  0  0  0
  139.9809   77.7500  223.7341 H   0  0  0  0  0  0  0  0  0  0  0  0
  141.6921   71.0277  223.3889 H   0  0  0  0  0  0  0  0  0  0  0  0
  140.9439   72.3141  224.4496 H   0  0  0  0  0  0  0  0  0  0  0  0
  1  2  2  0
  2  3  1  0
  3  4  2  0
  4  5  1  0
  5  6  2  0
  5  7  1  0
  7  8  1  0
  8  9  1  0
  9 10  1  0
 10 11  2  0
 11 12  1  0
 12 13  1  0
 13 14  1  0
 14 15  1  0
 15 16  1  0
 16 17  1  0
 17 18  1  0
 12 19  2  0
 19 20  1  0
 20 21  1  0
 21 22  1  0
 22 23  1  0
 23 24  1  0
 24 25  2  0
 25 26  1  0
 26 27  2  0
 27 28  1  0
 28 29  2  0
 29 30  1  0
 20 31  2  0
  9 32  1  0
  6  1  1  0
 31 10  1  0
 32  4  1  0
 18 13  1  0
 30 21  1  0
 29 24  1  0
  1 33  1  0
  2 34  1  0
  3 35  1  0
  6 36  1  0
  7 37  1  0
  7 38  1  0
  8 39  1  0
  8 40  1  0
 13 41  1  6
 14 42  1  0
 14 43  1  0
 15 44  1  0
 15 45  1  0
 16 46  1  0
 16 47  1  0
 17 48  1  0
 18 49  1  0
 18 50  1  0
 22 51  1  0
 22 52  1  0
 23 53  1  0
 23 54  1  0
 25 55  1  0
 26 56  1  0
 27 57  1  0
 28 58  1  0
 30 59  1  0
 30 60  1  0
 32 61  1  0
 32 62  1  0
M  END
>  <UniqueID>  (47) 
678

>  <SMILES>  (47) 
c1ccc2c(c1)CCN(c1nc([C@H]3CCCNC3)nc(N3CCc4ccccc4C3)n1)C2

>  <Energy>  (47) 
77.27381382131934

>  <Genealogy>  (47) 
c1ccc2c(c1)CCN(c1nc([C@H]3CCCNC3)nc(N3CCc4ccccc4C3)n1)C2 (chirality)
c1ccc2c(c1)CCN(c1nc([C@H]3CCCNC3)nc(N3CCc4ccccc4C3)n1)C2 (3D coordinates assigned)
c1ccc2c(c1)CCN(c1nc([C@H]3CCCNC3)nc(N3CCc4ccccc4C3)n1)C2 (nonaromatic ring conformer: 77.27381382131934 kcal/mol)

>  <smiles>  (47) 
c1ccc2c(c1)CCN(c1nc(C3CCCNC3)nc(N3CCc4ccccc4C3)n1)C2

>  <score_type>  (47) 
oracle

>  <origin>  (47) 
autodockgpu

>  <m_score__min__energy>  (47) 
-8.9299999999999997

>  <m_primary>  (47) 
energy

>  <meeko>  (47) 
{"free_energy": -8.93, "intermolecular_energy": -9.82, "internal_energy": -0.87, "cluster_size": 19, "cluster_id": 1, "rank_in_cluster": 4}

>  <energy>  (47) 
-8.92

>  <cluster_rmsd>  (47) 
0.19

>  <rmsd>  (47) 
271.49

>  <cluster>  (47) 
1

$$$$
ZPZIUNMFLXMAPV-NRFANRHFNA-N
     RDKit          3D

 62 67  0  0  0  0  0  0  0  0999 V2000
  139.2730   69.1960  227.7140 C   0  0  0  0  0  0  0  0  0  0  0  0
  140.4430   69.9120  227.9670 C   0  0  0  0  0  0  0  0  0  0  0  0
  141.0200   70.6880  226.9590 C   0  0  0  0  0  0  0  0  0  0  0  0
  140.4330   70.7480  225.6840 C   0  0  0  0  0  0  0  0  0  0  0  0
  139.2510   70.0190  225.4300 C   0  0  0  0  0  0  0  0  0  0  0  0
  138.6730   69.2540  226.4540 C   0  0  0  0  0  0  0  0  0  0  0  0
  138.5790   70.1050  224.0900 C   0  0  0  0  0  0  0  0  0  0  0  0
  139.6160   70.3130  222.9900 C   0  0  0  0  0  0  0  0  0  0  0  0
  140.4460   71.4880  223.2970 N   0  0  0  0  0  0  0  0  0  0  0  0
  140.8170   72.4160  222.2550 C   0  0  0  0  0  0  0  0  0  0  0  0
  141.5800   72.0010  221.2090 N   0  0  0  0  0  0  0  0  0  0  0  0
  141.9510   72.8720  220.2360 C   0  0  0  0  0  0  0  0  0  0  0  0
  142.7930   72.4020  219.0800 C   0  0  1  0  0  0  0  0  0  0  0  0
  142.2800   73.0230  217.7610 C   0  0  0  0  0  0  0  0  0  0  0  0
  143.3750   73.0190  216.6880 C   0  0  0  0  0  0  0  0  0  0  0  0
  144.6470   73.7570  217.1660 C   0  0  0  0  0  0  0  0  0  0  0  0
  144.6850   73.9430  218.6270 N   0  0  0  0  0  0  0  0  0  0  0  0
  144.2940   72.7080  219.3180 C   0  0  0  0  0  0  0  0  0  0  0  0
  141.5460   74.1680  220.3050 N   0  0  0  0  0  0  0  0  0  0  0  0
  140.7880   74.6000  221.3460 C   0  0  0  0  0  0  0  0  0  0  0  0
  140.3980   75.9850  221.4370 N   0  0  0  0  0  0  0  0  0  0  0  0
  139.9480   76.7350  220.2610 C   0  0  0  0  0  0  0  0  0  0  0  0
  140.9500   77.8500  219.9700 C   0  0  0  0  0  0  0  0  0  0  0  0
  141.2710   78.6420  221.2150 C   0  0  0  0  0  0  0  0  0  0  0  0
  141.8310   79.9230  221.0840 C   0  0  0  0  0  0  0  0  0  0  0  0
  142.1820   80.6600  222.2160 C   0  0  0  0  0  0  0  0  0  0  0  0
  141.9880   80.1240  223.4900 C   0  0  0  0  0  0  0  0  0  0  0  0
  141.4460   78.8460  223.6360 C   0  0  0  0  0  0  0  0  0  0  0  0
  141.0960   78.0880  222.5080 C   0  0  0  0  0  0  0  0  0  0  0  0
  140.4800   76.7210  222.7060 C   0  0  0  0  0  0  0  0  0  0  0  0
  140.4290   73.7170  222.3150 N   0  0  0  0  0  0  0  0  0  0  0  0
  141.0680   71.6240  224.6270 C   0  0  0  0  0  0  0  0  0  0  0  0
  138.8216   68.5841  228.5089 H   0  0  0  0  0  0  0  0  0  0  0  0
  140.9117   69.8655  228.9611 H   0  0  0  0  0  0  0  0  0  0  0  0
  141.9396   71.2555  227.1647 H   0  0  0  0  0  0  0  0  0  0  0  0
  137.7434   68.6975  226.2639 H   0  0  0  0  0  0  0  0  0  0  0  0
  138.0296   69.1714  223.8990 H   0  0  0  0  0  0  0  0  0  0  0  0
  137.8838   70.9575  224.0923 H   0  0  0  0  0  0  0  0  0  0  0  0
  140.2573   69.4220  222.9207 H   0  0  0  0  0  0  0  0  0  0  0  0
  139.0993   70.4760  222.0327 H   0  0  0  0  0  0  0  0  0  0  0  0
  142.7007   71.3089  218.9985 H   0  0  0  0  0  0  0  0  0  0  0  0
  141.4203   72.4397  217.3995 H   0  0  0  0  0  0  0  0  0  0  0  0
  141.9851   74.0646  217.9561 H   0  0  0  0  0  0  0  0  0  0  0  0
  143.6358   71.9775  216.4488 H   0  0  0  0  0  0  0  0  0  0  0  0
  142.9879   73.5422  215.8012 H   0  0  0  0  0  0  0  0  0  0  0  0
  145.5276   73.1713  216.8634 H   0  0  0  0  0  0  0  0  0  0  0  0
  144.6428   74.7559  216.7053 H   0  0  0  0  0  0  0  0  0  0  0  0
  145.6730   74.1650  218.8950 H   0  0  0  0  0  0  0  0  0  0  0  0
  144.8985   71.8725  218.9351 H   0  0  0  0  0  0  0  0  0  0  0  0
  144.4632   72.8365  220.3973 H   0  0  0  0  0  0  0  0  0  0  0  0
  139.8853   76.0600  219.3947 H   0  0  0  0  0  0  0  0  0  0  0  0
  138.9553   77.1680  220.4535 H   0  0  0  0  0  0  0  0  0  0  0  0
  141.8773   77.4049  219.5801 H   0  0  0  0  0  0  0  0  0  0  0  0
  140.5035   78.5322  219.2316 H   0  0  0  0  0  0  0  0  0  0  0  0
  141.9941   80.3483  220.0828 H   0  0  0  0  0  0  0  0  0  0  0  0
  142.6127   81.6660  222.1038 H   0  0  0  0  0  0  0  0  0  0  0  0
  142.2625   80.7093  224.3800 H   0  0  0  0  0  0  0  0  0  0  0  0
  141.2921   78.4300  224.6426 H   0  0  0  0  0  0  0  0  0  0  0  0
  141.0978   76.1483  223.4134 H   0  0  0  0  0  0  0  0  0  0  0  0
  139.4608   76.8523  223.0984 H   0  0  0  0  0  0  0  0  0  0  0  0
  142.1309   71.3533  224.5433 H   0  0  0  0  0  0  0  0  0  0  0  0
  140.9262   72.6676  224.9446 H   0  0  0  0  0  0  0  0  0  0  0  0
  1  2  2  0
  2  3  1  0
  3  4  2  0
  4  5  1  0
  5  6  2  0
  5  7  1  0
  7  8  1  0
  8  9  1  0
  9 10  1  0
 10 11  2  0
 11 12  1  0
 12 13  1  0
 13 14  1  0
 14 15  1  0
 15 16  1  0
 16 17  1  0
 17 18  1  0
 12 19  2  0
 19 20  1  0
 20 21  1  0
 21 22  1  0
 22 23  1  0
 23 24  1  0
 24 25  2  0
 25 26  1  0
 26 27  2  0
 27 28  1  0
 28 29  2  0
 29 30  1  0
 20 31  2  0
  9 32  1  0
  6  1  1  0
 31 10  1  0
 32  4  1  0
 18 13  1  0
 30 21  1  0
 29 24  1  0
  1 33  1  0
  2 34  1  0
  3 35  1  0
  6 36  1  0
  7 37  1  0
  7 38  1  0
  8 39  1  0
  8 40  1  0
 13 41  1  6
 14 42  1  0
 14 43  1  0
 15 44  1  0
 15 45  1  0
 16 46  1  0
 16 47  1  0
 17 48  1  0
 18 49  1  0
 18 50  1  0
 22 51  1  0
 22 52  1  0
 23 53  1  0
 23 54  1  0
 25 55  1  0
 26 56  1  0
 27 57  1  0
 28 58  1  0
 30 59  1  0
 30 60  1  0
 32 61  1  0
 32 62  1  0
M  END
>  <UniqueID>  (48) 
678

>  <SMILES>  (48) 
c1ccc2c(c1)CCN(c1nc([C@H]3CCCNC3)nc(N3CCc4ccccc4C3)n1)C2

>  <Energy>  (48) 
77.27381382131934

>  <Genealogy>  (48) 
c1ccc2c(c1)CCN(c1nc([C@H]3CCCNC3)nc(N3CCc4ccccc4C3)n1)C2 (chirality)
c1ccc2c(c1)CCN(c1nc([C@H]3CCCNC3)nc(N3CCc4ccccc4C3)n1)C2 (3D coordinates assigned)
c1ccc2c(c1)CCN(c1nc([C@H]3CCCNC3)nc(N3CCc4ccccc4C3)n1)C2 (nonaromatic ring conformer: 77.27381382131934 kcal/mol)

>  <smiles>  (48) 
c1ccc2c(c1)CCN(c1nc(C3CCCNC3)nc(N3CCc4ccccc4C3)n1)C2

>  <score_type>  (48) 
oracle

>  <origin>  (48) 
autodockgpu

>  <m_score__min__energy>  (48) 
-8.9299999999999997

>  <m_primary>  (48) 
energy

>  <meeko>  (48) 
{"free_energy": -8.85, "intermolecular_energy": -9.74, "internal_energy": -0.9, "cluster_size": 19, "cluster_id": 1, "rank_in_cluster": 14}

>  <energy>  (48) 
-8.91

>  <cluster_rmsd>  (48) 
0.06

>  <rmsd>  (48) 
271.52

>  <cluster>  (48) 
1

$$$$
ZPZIUNMFLXMAPV-NRFANRHFNA-N
     RDKit          3D

 62 67  0  0  0  0  0  0  0  0999 V2000
  138.1200   68.8910  225.6910 C   0  0  0  0  0  0  0  0  0  0  0  0
  139.4160   69.1150  226.1560 C   0  0  0  0  0  0  0  0  0  0  0  0
  140.2410   70.0400  225.5110 C   0  0  0  0  0  0  0  0  0  0  0  0
  139.7770   70.7440  224.3880 C   0  0  0  0  0  0  0  0  0  0  0  0
  138.4660   70.5120  223.9170 C   0  0  0  0  0  0  0  0  0  0  0  0
  137.6430   69.5910  224.5800 C   0  0  0  0  0  0  0  0  0  0  0  0
  137.9310   71.2870  222.7480 C   0  0  0  0  0  0  0  0  0  0  0  0
  139.0580   71.6250  221.7760 C   0  0  0  0  0  0  0  0  0  0  0  0
  140.1420   72.3230  222.4850 N   0  0  0  0  0  0  0  0  0  0  0  0
  140.8100   73.4500  221.8770 C   0  0  0  0  0  0  0  0  0  0  0  0
  141.9550   73.2650  221.1680 N   0  0  0  0  0  0  0  0  0  0  0  0
  142.6000   74.3220  220.6110 C   0  0  0  0  0  0  0  0  0  0  0  0
  143.8660   74.1060  219.8240 C   0  0  1  0  0  0  0  0  0  0  0  0
  145.0840   74.0840  220.7750 C   0  0  0  0  0  0  0  0  0  0  0  0
  146.2710   73.3570  220.1310 C   0  0  0  0  0  0  0  0  0  0  0  0
  145.8980   71.9180  219.7080 C   0  0  0  0  0  0  0  0  0  0  0  0
  144.4430   71.6990  219.6430 N   0  0  0  0  0  0  0  0  0  0  0  0
  143.7790   72.8190  218.9640 C   0  0  0  0  0  0  0  0  0  0  0  0
  142.0900   75.5720  220.7560 N   0  0  0  0  0  0  0  0  0  0  0  0
  140.9500   75.7750  221.4670 C   0  0  0  0  0  0  0  0  0  0  0  0
  140.4370   77.1090  221.6550 N   0  0  0  0  0  0  0  0  0  0  0  0
  139.7610   77.8320  220.5740 C   0  0  0  0  0  0  0  0  0  0  0  0
  140.5980   79.0520  220.1940 C   0  0  0  0  0  0  0  0  0  0  0  0
  140.9990   79.8470  221.4150 C   0  0  0  0  0  0  0  0  0  0  0  0
  141.4040   81.1820  221.2570 C   0  0  0  0  0  0  0  0  0  0  0  0
  141.8240   81.9290  222.3590 C   0  0  0  0  0  0  0  0  0  0  0  0
  141.8550   81.3490  223.6280 C   0  0  0  0  0  0  0  0  0  0  0  0
  141.4700   80.0170  223.7990 C   0  0  0  0  0  0  0  0  0  0  0  0
  141.0530   79.2510  222.6990 C   0  0  0  0  0  0  0  0  0  0  0  0
  140.6100   77.8230  222.9280 C   0  0  0  0  0  0  0  0  0  0  0  0
  140.3170   74.7080  222.0230 N   0  0  0  0  0  0  0  0  0  0  0  0
  140.6860   71.7610  223.7350 C   0  0  0  0  0  0  0  0  0  0  0  0
  137.4724   68.1619  226.2000 H   0  0  0  0  0  0  0  0  0  0  0  0
  139.7888   68.5629  227.0313 H   0  0  0  0  0  0  0  0  0  0  0  0
  141.2600   70.2178  225.8851 H   0  0  0  0  0  0  0  0  0  0  0  0
  136.6167   69.4186  224.2238 H   0  0  0  0  0  0  0  0  0  0  0  0
  137.1728   70.6827  222.2285 H   0  0  0  0  0  0  0  0  0  0  0  0
  137.4818   72.2220  223.1140 H   0  0  0  0  0  0  0  0  0  0  0  0
  139.4498   70.6963  221.3354 H   0  0  0  0  0  0  0  0  0  0  0  0
  138.6664   72.2784  220.9824 H   0  0  0  0  0  0  0  0  0  0  0  0
  143.9960   74.9457  219.1255 H   0  0  0  0  0  0  0  0  0  0  0  0
  145.3783   75.1183  221.0066 H   0  0  0  0  0  0  0  0  0  0  0  0
  144.8018   73.5488  221.6936 H   0  0  0  0  0  0  0  0  0  0  0  0
  146.5927   73.9182  219.2413 H   0  0  0  0  0  0  0  0  0  0  0  0
  147.0807   73.2975  220.8732 H   0  0  0  0  0  0  0  0  0  0  0  0
  146.3273   71.7218  218.7144 H   0  0  0  0  0  0  0  0  0  0  0  0
  146.3011   71.2348  220.4701 H   0  0  0  0  0  0  0  0  0  0  0  0
  144.2750   70.8340  219.0780 H   0  0  0  0  0  0  0  0  0  0  0  0
  144.2697   72.9971  217.9958 H   0  0  0  0  0  0  0  0  0  0  0  0
  142.7197   72.5644  218.8121 H   0  0  0  0  0  0  0  0  0  0  0  0
  139.6523   77.1724  219.7004 H   0  0  0  0  0  0  0  0  0  0  0  0
  138.7639   78.1543  220.9085 H   0  0  0  0  0  0  0  0  0  0  0  0
  141.5059   78.7149  219.6723 H   0  0  0  0  0  0  0  0  0  0  0  0
  139.9916   79.6990  219.5432 H   0  0  0  0  0  0  0  0  0  0  0  0
  141.3903   81.6424  220.2581 H   0  0  0  0  0  0  0  0  0  0  0  0
  142.1312   82.9769  222.2268 H   0  0  0  0  0  0  0  0  0  0  0  0
  142.1830   81.9415  224.4948 H   0  0  0  0  0  0  0  0  0  0  0  0
  141.4938   79.5656  224.8018 H   0  0  0  0  0  0  0  0  0  0  0  0
  141.3702   77.3038  223.5301 H   0  0  0  0  0  0  0  0  0  0  0  0
  139.6433   77.8383  223.4527 H   0  0  0  0  0  0  0  0  0  0  0  0
  141.6461   71.2744  223.5085 H   0  0  0  0  0  0  0  0  0  0  0  0
  140.7966   72.5959  224.4426 H   0  0  0  0  0  0  0  0  0  0  0  0
  1  2  2  0
  2  3  1  0
  3  4  2  0
  4  5  1  0
  5  6  2  0
  5  7  1  0
  7  8  1  0
  8  9  1  0
  9 10  1  0
 10 11  2  0
 11 12  1  0
 12 13  1  0
 13 14  1  0
 14 15  1  0
 15 16  1  0
 16 17  1  0
 17 18  1  0
 12 19  2  0
 19 20  1  0
 20 21  1  0
 21 22  1  0
 22 23  1  0
 23 24  1  0
 24 25  2  0
 25 26  1  0
 26 27  2  0
 27 28  1  0
 28 29  2  0
 29 30  1  0
 20 31  2  0
  9 32  1  0
  6  1  1  0
 31 10  1  0
 32  4  1  0
 18 13  1  0
 30 21  1  0
 29 24  1  0
  1 33  1  0
  2 34  1  0
  3 35  1  0
  6 36  1  0
  7 37  1  0
  7 38  1  0
  8 39  1  0
  8 40  1  0
 13 41  1  6
 14 42  1  0
 14 43  1  0
 15 44  1  0
 15 45  1  0
 16 46  1  0
 16 47  1  0
 17 48  1  0
 18 49  1  0
 18 50  1  0
 22 51  1  0
 22 52  1  0
 23 53  1  0
 23 54  1  0
 25 55  1  0
 26 56  1  0
 27 57  1  0
 28 58  1  0
 30 59  1  0
 30 60  1  0
 32 61  1  0
 32 62  1  0
M  END
>  <UniqueID>  (49) 
678

>  <SMILES>  (49) 
c1ccc2c(c1)CCN(c1nc([C@H]3CCCNC3)nc(N3CCc4ccccc4C3)n1)C2

>  <Energy>  (49) 
77.27381382131934

>  <Genealogy>  (49) 
c1ccc2c(c1)CCN(c1nc([C@H]3CCCNC3)nc(N3CCc4ccccc4C3)n1)C2 (chirality)
c1ccc2c(c1)CCN(c1nc([C@H]3CCCNC3)nc(N3CCc4ccccc4C3)n1)C2 (3D coordinates assigned)
c1ccc2c(c1)CCN(c1nc([C@H]3CCCNC3)nc(N3CCc4ccccc4C3)n1)C2 (nonaromatic ring conformer: 77.27381382131934 kcal/mol)

>  <smiles>  (49) 
c1ccc2c(c1)CCN(c1nc(C3CCCNC3)nc(N3CCc4ccccc4C3)n1)C2

>  <score_type>  (49) 
oracle

>  <origin>  (49) 
autodockgpu

>  <m_score__min__energy>  (49) 
-8.9299999999999997

>  <m_primary>  (49) 
energy

>  <meeko>  (49) 
{"free_energy": -8.92, "intermolecular_energy": -9.82, "internal_energy": -0.87, "cluster_size": 19, "cluster_id": 1, "rank_in_cluster": 7}

>  <energy>  (49) 
-8.91

>  <cluster_rmsd>  (49) 
0.16

>  <rmsd>  (49) 
271.47

>  <cluster>  (49) 
1

$$$$
ZPZIUNMFLXMAPV-NRFANRHFNA-N
     RDKit          3D

 62 67  0  0  0  0  0  0  0  0999 V2000
  138.1050   68.8170  225.7270 C   0  0  0  0  0  0  0  0  0  0  0  0
  139.4560   68.9100  226.0620 C   0  0  0  0  0  0  0  0  0  0  0  0
  140.2890   69.7950  225.3720 C   0  0  0  0  0  0  0  0  0  0  0  0
  139.7760   70.5900  224.3340 C   0  0  0  0  0  0  0  0  0  0  0  0
  138.4090   70.4900  223.9940 C   0  0  0  0  0  0  0  0  0  0  0  0
  137.5800   69.6080  224.7020 C   0  0  0  0  0  0  0  0  0  0  0  0
  137.8280   71.3640  222.9210 C   0  0  0  0  0  0  0  0  0  0  0  0
  138.8760   71.6570  221.8510 C   0  0  0  0  0  0  0  0  0  0  0  0
  140.0830   72.2270  222.4700 N   0  0  0  0  0  0  0  0  0  0  0  0
  140.7810   73.3240  221.8420 C   0  0  0  0  0  0  0  0  0  0  0  0
  141.9440   73.1010  221.1740 N   0  0  0  0  0  0  0  0  0  0  0  0
  142.6170   74.1310  220.5990 C   0  0  0  0  0  0  0  0  0  0  0  0
  143.9030   73.8730  219.8590 C   0  0  1  0  0  0  0  0  0  0  0  0
  145.0080   73.4360  220.8490 C   0  0  0  0  0  0  0  0  0  0  0  0
  146.1220   72.6710  220.1260 C   0  0  0  0  0  0  0  0  0  0  0  0
  145.5720   71.4430  219.3650 C   0  0  0  0  0  0  0  0  0  0  0  0
  144.1130   71.4990  219.1670 N   0  0  0  0  0  0  0  0  0  0  0  0
  143.7000   72.8370  218.7240 C   0  0  0  0  0  0  0  0  0  0  0  0
  142.1170   75.3910  220.6850 N   0  0  0  0  0  0  0  0  0  0  0  0
  140.9600   75.6310  221.3530 C   0  0  0  0  0  0  0  0  0  0  0  0
  140.4570   76.9770  221.4780 N   0  0  0  0  0  0  0  0  0  0  0  0
  140.0180   77.7450  220.3090 C   0  0  0  0  0  0  0  0  0  0  0  0
  140.9440   78.9450  220.1280 C   0  0  0  0  0  0  0  0  0  0  0  0
  141.1280   79.7000  221.4230 C   0  0  0  0  0  0  0  0  0  0  0  0
  141.5920   81.0240  221.3810 C   0  0  0  0  0  0  0  0  0  0  0  0
  141.8160   81.7330  222.5630 C   0  0  0  0  0  0  0  0  0  0  0  0
  141.5910   81.1240  223.7990 C   0  0  0  0  0  0  0  0  0  0  0  0
  141.1440   79.8030  223.8570 C   0  0  0  0  0  0  0  0  0  0  0  0
  140.9220   79.0740  222.6780 C   0  0  0  0  0  0  0  0  0  0  0  0
  140.4050   77.6560  222.7790 C   0  0  0  0  0  0  0  0  0  0  0  0
  140.2990   74.5920  221.9280 N   0  0  0  0  0  0  0  0  0  0  0  0
  140.7000   71.5610  223.6310 C   0  0  0  0  0  0  0  0  0  0  0  0
  137.4515   68.1192  226.2712 H   0  0  0  0  0  0  0  0  0  0  0  0
  139.8660   68.2862  226.8699 H   0  0  0  0  0  0  0  0  0  0  0  0
  141.3524   69.8693  225.6434 H   0  0  0  0  0  0  0  0  0  0  0  0
  136.5117   69.5386  224.4492 H   0  0  0  0  0  0  0  0  0  0  0  0
  136.9716   70.8508  222.4592 H   0  0  0  0  0  0  0  0  0  0  0  0
  137.5010   72.3131  223.3708 H   0  0  0  0  0  0  0  0  0  0  0  0
  139.1389   70.7227  221.3334 H   0  0  0  0  0  0  0  0  0  0  0  0
  138.4642   72.3798  221.1312 H   0  0  0  0  0  0  0  0  0  0  0  0
  144.2275   74.8085  219.3799 H   0  0  0  0  0  0  0  0  0  0  0  0
  145.4366   74.3293  221.3268 H   0  0  0  0  0  0  0  0  0  0  0  0
  144.5601   72.7727  221.6036 H   0  0  0  0  0  0  0  0  0  0  0  0
  146.6099   73.3463  219.4077 H   0  0  0  0  0  0  0  0  0  0  0  0
  146.8381   72.3139  220.8808 H   0  0  0  0  0  0  0  0  0  0  0  0
  146.0585   71.3936  218.3797 H   0  0  0  0  0  0  0  0  0  0  0  0
  145.7892   70.5525  219.9732 H   0  0  0  0  0  0  0  0  0  0  0  0
  143.8670   70.8180  218.4110 H   0  0  0  0  0  0  0  0  0  0  0  0
  144.3035   73.1319  217.8529 H   0  0  0  0  0  0  0  0  0  0  0  0
  142.6336   72.8088  218.4555 H   0  0  0  0  0  0  0  0  0  0  0  0
  140.0591   77.1086  219.4127 H   0  0  0  0  0  0  0  0  0  0  0  0
  138.9847   78.0914  220.4579 H   0  0  0  0  0  0  0  0  0  0  0  0
  141.9248   78.5905  219.7780 H   0  0  0  0  0  0  0  0  0  0  0  0
  140.4893   79.6251  219.3927 H   0  0  0  0  0  0  0  0  0  0  0  0
  141.7804   81.5063  220.4105 H   0  0  0  0  0  0  0  0  0  0  0  0
  142.1704   82.7735  222.5202 H   0  0  0  0  0  0  0  0  0  0  0  0
  141.7662   81.6859  224.7283 H   0  0  0  0  0  0  0  0  0  0  0  0
  140.9644   79.3297  224.8336 H   0  0  0  0  0  0  0  0  0  0  0  0
  141.0229   77.0994  223.4990 H   0  0  0  0  0  0  0  0  0  0  0  0
  139.3571   77.6906  223.1118 H   0  0  0  0  0  0  0  0  0  0  0  0
  141.5863   71.0091  223.2849 H   0  0  0  0  0  0  0  0  0  0  0  0
  140.9541   72.3476  224.3568 H   0  0  0  0  0  0  0  0  0  0  0  0
  1  2  2  0
  2  3  1  0
  3  4  2  0
  4  5  1  0
  5  6  2  0
  5  7  1  0
  7  8  1  0
  8  9  1  0
  9 10  1  0
 10 11  2  0
 11 12  1  0
 12 13  1  0
 13 14  1  0
 14 15  1  0
 15 16  1  0
 16 17  1  0
 17 18  1  0
 12 19  2  0
 19 20  1  0
 20 21  1  0
 21 22  1  0
 22 23  1  0
 23 24  1  0
 24 25  2  0
 25 26  1  0
 26 27  2  0
 27 28  1  0
 28 29  2  0
 29 30  1  0
 20 31  2  0
  9 32  1  0
  6  1  1  0
 31 10  1  0
 32  4  1  0
 18 13  1  0
 30 21  1  0
 29 24  1  0
  1 33  1  0
  2 34  1  0
  3 35  1  0
  6 36  1  0
  7 37  1  0
  7 38  1  0
  8 39  1  0
  8 40  1  0
 13 41  1  6
 14 42  1  0
 14 43  1  0
 15 44  1  0
 15 45  1  0
 16 46  1  0
 16 47  1  0
 17 48  1  0
 18 49  1  0
 18 50  1  0
 22 51  1  0
 22 52  1  0
 23 53  1  0
 23 54  1  0
 25 55  1  0
 26 56  1  0
 27 57  1  0
 28 58  1  0
 30 59  1  0
 30 60  1  0
 32 61  1  0
 32 62  1  0
M  END
>  <UniqueID>  (50) 
678

>  <SMILES>  (50) 
c1ccc2c(c1)CCN(c1nc([C@H]3CCCNC3)nc(N3CCc4ccccc4C3)n1)C2

>  <Energy>  (50) 
77.27381382131934

>  <Genealogy>  (50) 
c1ccc2c(c1)CCN(c1nc([C@H]3CCCNC3)nc(N3CCc4ccccc4C3)n1)C2 (chirality)
c1ccc2c(c1)CCN(c1nc([C@H]3CCCNC3)nc(N3CCc4ccccc4C3)n1)C2 (3D coordinates assigned)
c1ccc2c(c1)CCN(c1nc([C@H]3CCCNC3)nc(N3CCc4ccccc4C3)n1)C2 (nonaromatic ring conformer: 77.27381382131934 kcal/mol)

>  <smiles>  (50) 
c1ccc2c(c1)CCN(c1nc(C3CCCNC3)nc(N3CCc4ccccc4C3)n1)C2

>  <score_type>  (50) 
oracle

>  <origin>  (50) 
autodockgpu

>  <m_score__min__energy>  (50) 
-8.9299999999999997

>  <m_primary>  (50) 
energy

>  <meeko>  (50) 
{"free_energy": -8.84, "intermolecular_energy": -9.74, "internal_energy": -0.87, "cluster_size": 19, "cluster_id": 1, "rank_in_cluster": 15}

>  <energy>  (50) 
-8.9

>  <cluster_rmsd>  (50) 
0.08

>  <rmsd>  (50) 
271.47

>  <cluster>  (50) 
1

$$$$
ZPZIUNMFLXMAPV-NRFANRHFNA-N
     RDKit          3D

 62 67  0  0  0  0  0  0  0  0999 V2000
  138.2540   68.6430  225.7050 C   0  0  0  0  0  0  0  0  0  0  0  0
  139.5840   68.8130  226.0890 C   0  0  0  0  0  0  0  0  0  0  0  0
  140.3860   69.7520  225.4350 C   0  0  0  0  0  0  0  0  0  0  0  0
  139.8650   70.5230  224.3830 C   0  0  0  0  0  0  0  0  0  0  0  0
  138.5190   70.3450  223.9940 C   0  0  0  0  0  0  0  0  0  0  0  0
  137.7200   69.4090  224.6660 C   0  0  0  0  0  0  0  0  0  0  0  0
  137.9260   71.1910  222.9050 C   0  0  0  0  0  0  0  0  0  0  0  0
  138.9920   71.5530  221.8750 C   0  0  0  0  0  0  0  0  0  0  0  0
  140.1400   72.1900  222.5410 N   0  0  0  0  0  0  0  0  0  0  0  0
  140.7930   73.3310  221.9450 C   0  0  0  0  0  0  0  0  0  0  0  0
  141.9180   73.1630  221.2000 N   0  0  0  0  0  0  0  0  0  0  0  0
  142.5500   74.2330  220.6540 C   0  0  0  0  0  0  0  0  0  0  0  0
  143.7940   74.0360  219.8280 C   0  0  1  0  0  0  0  0  0  0  0  0
  145.0480   74.1130  220.7290 C   0  0  0  0  0  0  0  0  0  0  0  0
  146.2410   73.4100  220.0720 C   0  0  0  0  0  0  0  0  0  0  0  0
  145.9190   71.9370  219.7310 C   0  0  0  0  0  0  0  0  0  0  0  0
  144.4730   71.6520  219.7340 N   0  0  0  0  0  0  0  0  0  0  0  0
  143.7340   72.7080  219.0320 C   0  0  0  0  0  0  0  0  0  0  0  0
  142.0470   75.4810  220.8460 N   0  0  0  0  0  0  0  0  0  0  0  0
  140.9270   75.6660  221.5920 C   0  0  0  0  0  0  0  0  0  0  0  0
  140.4220   76.9960  221.8290 N   0  0  0  0  0  0  0  0  0  0  0  0
  139.6260   77.7060  220.8240 C   0  0  0  0  0  0  0  0  0  0  0  0
  140.4030   78.9330  220.3520 C   0  0  0  0  0  0  0  0  0  0  0  0
  140.9240   79.7380  221.5190 C   0  0  0  0  0  0  0  0  0  0  0  0
  141.2950   81.0770  221.3130 C   0  0  0  0  0  0  0  0  0  0  0  0
  141.8230   81.8340  222.3610 C   0  0  0  0  0  0  0  0  0  0  0  0
  141.9970   81.2600  223.6210 C   0  0  0  0  0  0  0  0  0  0  0  0
  141.6470   79.9260  223.8380 C   0  0  0  0  0  0  0  0  0  0  0  0
  141.1230   79.1490  222.7920 C   0  0  0  0  0  0  0  0  0  0  0  0
  140.7230   77.7170  223.0730 C   0  0  0  0  0  0  0  0  0  0  0  0
  140.3080   74.5860  222.1370 N   0  0  0  0  0  0  0  0  0  0  0  0
  140.7540   71.5520  223.7200 C   0  0  0  0  0  0  0  0  0  0  0  0
  137.6240   67.9039  226.2216 H   0  0  0  0  0  0  0  0  0  0  0  0
  140.0018   68.2077  226.9070 H   0  0  0  0  0  0  0  0  0  0  0  0
  141.4322   69.8882  225.7461 H   0  0  0  0  0  0  0  0  0  0  0  0
  136.6678   69.2773  224.3737 H   0  0  0  0  0  0  0  0  0  0  0  0
  137.1185   70.6316  222.4101 H   0  0  0  0  0  0  0  0  0  0  0  0
  137.5277   72.1159  223.3475 H   0  0  0  0  0  0  0  0  0  0  0  0
  139.3288   70.6396  221.3629 H   0  0  0  0  0  0  0  0  0  0  0  0
  138.5640   72.2545  221.1437 H   0  0  0  0  0  0  0  0  0  0  0  0
  143.8582   74.8471  219.0877 H   0  0  0  0  0  0  0  0  0  0  0  0
  145.3030   75.1691  220.9009 H   0  0  0  0  0  0  0  0  0  0  0  0
  144.8262   73.6098  221.6817 H   0  0  0  0  0  0  0  0  0  0  0  0
  146.5020   73.9417  219.1451 H   0  0  0  0  0  0  0  0  0  0  0  0
  147.0804   73.4221  220.7828 H   0  0  0  0  0  0  0  0  0  0  0  0
  146.3192   71.7123  218.7313 H   0  0  0  0  0  0  0  0  0  0  0  0
  146.3815   71.3092  220.5069 H   0  0  0  0  0  0  0  0  0  0  0  0
  144.3240   70.7540  219.2160 H   0  0  0  0  0  0  0  0  0  0  0  0
  144.1795   72.8617  218.0381 H   0  0  0  0  0  0  0  0  0  0  0  0
  142.6825   72.4002  218.9338 H   0  0  0  0  0  0  0  0  0  0  0  0
  139.4321   77.0409  219.9696 H   0  0  0  0  0  0  0  0  0  0  0  0
  138.6668   78.0189  221.2622 H   0  0  0  0  0  0  0  0  0  0  0  0
  141.2531   78.6034  219.7367 H   0  0  0  0  0  0  0  0  0  0  0  0
  139.7224   79.5702  219.7683 H   0  0  0  0  0  0  0  0  0  0  0  0
  141.1688   81.5323  220.3196 H   0  0  0  0  0  0  0  0  0  0  0  0
  142.1022   82.8846  222.1930 H   0  0  0  0  0  0  0  0  0  0  0  0
  142.4108   81.8599  224.4450 H   0  0  0  0  0  0  0  0  0  0  0  0
  141.7825   79.4807  224.8346 H   0  0  0  0  0  0  0  0  0  0  0  0
  141.5494   77.2087  223.5914 H   0  0  0  0  0  0  0  0  0  0  0  0
  139.8186   77.7243  223.6991 H   0  0  0  0  0  0  0  0  0  0  0  0
  141.6833   71.0562  223.4028 H   0  0  0  0  0  0  0  0  0  0  0  0
  140.9352   72.3463  224.4591 H   0  0  0  0  0  0  0  0  0  0  0  0
  1  2  2  0
  2  3  1  0
  3  4  2  0
  4  5  1  0
  5  6  2  0
  5  7  1  0
  7  8  1  0
  8  9  1  0
  9 10  1  0
 10 11  2  0
 11 12  1  0
 12 13  1  0
 13 14  1  0
 14 15  1  0
 15 16  1  0
 16 17  1  0
 17 18  1  0
 12 19  2  0
 19 20  1  0
 20 21  1  0
 21 22  1  0
 22 23  1  0
 23 24  1  0
 24 25  2  0
 25 26  1  0
 26 27  2  0
 27 28  1  0
 28 29  2  0
 29 30  1  0
 20 31  2  0
  9 32  1  0
  6  1  1  0
 31 10  1  0
 32  4  1  0
 18 13  1  0
 30 21  1  0
 29 24  1  0
  1 33  1  0
  2 34  1  0
  3 35  1  0
  6 36  1  0
  7 37  1  0
  7 38  1  0
  8 39  1  0
  8 40  1  0
 13 41  1  6
 14 42  1  0
 14 43  1  0
 15 44  1  0
 15 45  1  0
 16 46  1  0
 16 47  1  0
 17 48  1  0
 18 49  1  0
 18 50  1  0
 22 51  1  0
 22 52  1  0
 23 53  1  0
 23 54  1  0
 25 55  1  0
 26 56  1  0
 27 57  1  0
 28 58  1  0
 30 59  1  0
 30 60  1  0
 32 61  1  0
 32 62  1  0
M  END
>  <UniqueID>  (51) 
678

>  <SMILES>  (51) 
c1ccc2c(c1)CCN(c1nc([C@H]3CCCNC3)nc(N3CCc4ccccc4C3)n1)C2

>  <Energy>  (51) 
77.27381382131934

>  <Genealogy>  (51) 
c1ccc2c(c1)CCN(c1nc([C@H]3CCCNC3)nc(N3CCc4ccccc4C3)n1)C2 (chirality)
c1ccc2c(c1)CCN(c1nc([C@H]3CCCNC3)nc(N3CCc4ccccc4C3)n1)C2 (3D coordinates assigned)
c1ccc2c(c1)CCN(c1nc([C@H]3CCCNC3)nc(N3CCc4ccccc4C3)n1)C2 (nonaromatic ring conformer: 77.27381382131934 kcal/mol)

>  <smiles>  (51) 
c1ccc2c(c1)CCN(c1nc(C3CCCNC3)nc(N3CCc4ccccc4C3)n1)C2

>  <score_type>  (51) 
oracle

>  <origin>  (51) 
autodockgpu

>  <m_score__min__energy>  (51) 
-8.9299999999999997

>  <m_primary>  (51) 
energy

>  <meeko>  (51) 
{"free_energy": -8.93, "intermolecular_energy": -9.83, "internal_energy": -0.87, "cluster_size": 19, "cluster_id": 1, "rank_in_cluster": 1}

>  <energy>  (51) 
-8.88

>  <cluster_rmsd>  (51) 
1.31

>  <rmsd>  (51) 
271.5

>  <cluster>  (51) 
1

$$$$
ZPZIUNMFLXMAPV-NRFANRHFNA-N
     RDKit          3D

 62 67  0  0  0  0  0  0  0  0999 V2000
  138.3350   68.6420  225.7220 C   0  0  0  0  0  0  0  0  0  0  0  0
  139.6740   68.8030  226.0800 C   0  0  0  0  0  0  0  0  0  0  0  0
  140.4670   69.7430  225.4180 C   0  0  0  0  0  0  0  0  0  0  0  0
  139.9280   70.5260  224.3840 C   0  0  0  0  0  0  0  0  0  0  0  0
  138.5740   70.3580  224.0210 C   0  0  0  0  0  0  0  0  0  0  0  0
  137.7830   69.4210  224.7020 C   0  0  0  0  0  0  0  0  0  0  0  0
  137.9620   71.2170  222.9530 C   0  0  0  0  0  0  0  0  0  0  0  0
  139.0080   71.5830  221.9040 C   0  0  0  0  0  0  0  0  0  0  0  0
  140.1730   72.2080  222.5510 N   0  0  0  0  0  0  0  0  0  0  0  0
  140.8200   73.3510  221.9520 C   0  0  0  0  0  0  0  0  0  0  0  0
  141.9440   73.1870  221.2060 N   0  0  0  0  0  0  0  0  0  0  0  0
  142.5700   74.2590  220.6560 C   0  0  0  0  0  0  0  0  0  0  0  0
  143.8130   74.0670  219.8280 C   0  0  1  0  0  0  0  0  0  0  0  0
  145.0670   74.1300  220.7310 C   0  0  0  0  0  0  0  0  0  0  0  0
  146.2580   73.4300  220.0670 C   0  0  0  0  0  0  0  0  0  0  0  0
  145.9320   71.9620  219.7110 C   0  0  0  0  0  0  0  0  0  0  0  0
  144.4860   71.6810  219.7110 N   0  0  0  0  0  0  0  0  0  0  0  0
  143.7500   72.7470  219.0190 C   0  0  0  0  0  0  0  0  0  0  0  0
  142.0610   75.5040  220.8460 N   0  0  0  0  0  0  0  0  0  0  0  0
  140.9410   75.6860  221.5930 C   0  0  0  0  0  0  0  0  0  0  0  0
  140.4300   77.0130  221.8280 N   0  0  0  0  0  0  0  0  0  0  0  0
  139.6020   77.7050  220.8360 C   0  0  0  0  0  0  0  0  0  0  0  0
  140.3560   78.9330  220.3310 C   0  0  0  0  0  0  0  0  0  0  0  0
  140.8990   79.7570  221.4750 C   0  0  0  0  0  0  0  0  0  0  0  0
  141.2510   81.0960  221.2450 C   0  0  0  0  0  0  0  0  0  0  0  0
  141.7990   81.8700  222.2700 C   0  0  0  0  0  0  0  0  0  0  0  0
  142.0100   81.3120  223.5320 C   0  0  0  0  0  0  0  0  0  0  0  0
  141.6780   79.9770  223.7720 C   0  0  0  0  0  0  0  0  0  0  0  0
  141.1350   79.1840  222.7490 C   0  0  0  0  0  0  0  0  0  0  0  0
  140.7560   77.7520  223.0560 C   0  0  0  0  0  0  0  0  0  0  0  0
  140.3280   74.6040  222.1410 N   0  0  0  0  0  0  0  0  0  0  0  0
  140.8080   71.5570  223.7110 C   0  0  0  0  0  0  0  0  0  0  0  0
  137.7127   67.9002  226.2440 H   0  0  0  0  0  0  0  0  0  0  0  0
  140.1054   68.1890  226.8843 H   0  0  0  0  0  0  0  0  0  0  0  0
  141.5203   69.8709  225.7082 H   0  0  0  0  0  0  0  0  0  0  0  0
  136.7237   69.2990  224.4319 H   0  0  0  0  0  0  0  0  0  0  0  0
  137.1412   70.6663  222.4703 H   0  0  0  0  0  0  0  0  0  0  0  0
  137.5777   72.1397  223.4123 H   0  0  0  0  0  0  0  0  0  0  0  0
  139.3291   70.6726  221.3767 H   0  0  0  0  0  0  0  0  0  0  0  0
  138.5683   72.2933  221.1884 H   0  0  0  0  0  0  0  0  0  0  0  0
  143.8792   74.8853  219.0959 H   0  0  0  0  0  0  0  0  0  0  0  0
  145.3255   75.1833  220.9146 H   0  0  0  0  0  0  0  0  0  0  0  0
  144.8429   73.6174  221.6781 H   0  0  0  0  0  0  0  0  0  0  0  0
  146.5207   73.9704  219.1456 H   0  0  0  0  0  0  0  0  0  0  0  0
  147.0972   73.4322  220.7781 H   0  0  0  0  0  0  0  0  0  0  0  0
  146.3317   71.7465  218.7091 H   0  0  0  0  0  0  0  0  0  0  0  0
  146.3926   71.3250  220.4805 H   0  0  0  0  0  0  0  0  0  0  0  0
  144.3340   70.7890  219.1840 H   0  0  0  0  0  0  0  0  0  0  0  0
  144.1966   72.9094  218.0269 H   0  0  0  0  0  0  0  0  0  0  0  0
  142.6977   72.4432  218.9175 H   0  0  0  0  0  0  0  0  0  0  0  0
  139.3921   77.0288  219.9942 H   0  0  0  0  0  0  0  0  0  0  0  0
  138.6515   78.0145  221.2952 H   0  0  0  0  0  0  0  0  0  0  0  0
  141.1935   78.6034  219.6985 H   0  0  0  0  0  0  0  0  0  0  0  0
  139.6551   79.5573  219.7575 H   0  0  0  0  0  0  0  0  0  0  0  0
  141.0941   81.5389  220.2504 H   0  0  0  0  0  0  0  0  0  0  0  0
  142.0647   82.9209  222.0827 H   0  0  0  0  0  0  0  0  0  0  0  0
  142.4385   81.9249  224.3387 H   0  0  0  0  0  0  0  0  0  0  0  0
  141.8431   79.5439  224.7696 H   0  0  0  0  0  0  0  0  0  0  0  0
  141.6001   77.2575  223.5589 H   0  0  0  0  0  0  0  0  0  0  0  0
  139.8676   77.7584  223.7046 H   0  0  0  0  0  0  0  0  0  0  0  0
  141.7280   71.0597  223.3701 H   0  0  0  0  0  0  0  0  0  0  0  0
  141.0081   72.3440  224.4530 H   0  0  0  0  0  0  0  0  0  0  0  0
  1  2  2  0
  2  3  1  0
  3  4  2  0
  4  5  1  0
  5  6  2  0
  5  7  1  0
  7  8  1  0
  8  9  1  0
  9 10  1  0
 10 11  2  0
 11 12  1  0
 12 13  1  0
 13 14  1  0
 14 15  1  0
 15 16  1  0
 16 17  1  0
 17 18  1  0
 12 19  2  0
 19 20  1  0
 20 21  1  0
 21 22  1  0
 22 23  1  0
 23 24  1  0
 24 25  2  0
 25 26  1  0
 26 27  2  0
 27 28  1  0
 28 29  2  0
 29 30  1  0
 20 31  2  0
  9 32  1  0
  6  1  1  0
 31 10  1  0
 32  4  1  0
 18 13  1  0
 30 21  1  0
 29 24  1  0
  1 33  1  0
  2 34  1  0
  3 35  1  0
  6 36  1  0
  7 37  1  0
  7 38  1  0
  8 39  1  0
  8 40  1  0
 13 41  1  6
 14 42  1  0
 14 43  1  0
 15 44  1  0
 15 45  1  0
 16 46  1  0
 16 47  1  0
 17 48  1  0
 18 49  1  0
 18 50  1  0
 22 51  1  0
 22 52  1  0
 23 53  1  0
 23 54  1  0
 25 55  1  0
 26 56  1  0
 27 57  1  0
 28 58  1  0
 30 59  1  0
 30 60  1  0
 32 61  1  0
 32 62  1  0
M  END
>  <UniqueID>  (52) 
678

>  <SMILES>  (52) 
c1ccc2c(c1)CCN(c1nc([C@H]3CCCNC3)nc(N3CCc4ccccc4C3)n1)C2

>  <Energy>  (52) 
77.27381382131934

>  <Genealogy>  (52) 
c1ccc2c(c1)CCN(c1nc([C@H]3CCCNC3)nc(N3CCc4ccccc4C3)n1)C2 (chirality)
c1ccc2c(c1)CCN(c1nc([C@H]3CCCNC3)nc(N3CCc4ccccc4C3)n1)C2 (3D coordinates assigned)
c1ccc2c(c1)CCN(c1nc([C@H]3CCCNC3)nc(N3CCc4ccccc4C3)n1)C2 (nonaromatic ring conformer: 77.27381382131934 kcal/mol)

>  <smiles>  (52) 
c1ccc2c(c1)CCN(c1nc(C3CCCNC3)nc(N3CCc4ccccc4C3)n1)C2

>  <score_type>  (52) 
oracle

>  <origin>  (52) 
autodockgpu

>  <m_score__min__energy>  (52) 
-8.9299999999999997

>  <m_primary>  (52) 
energy

>  <meeko>  (52) 
{"free_energy": -8.91, "intermolecular_energy": -9.8, "internal_energy": -0.87, "cluster_size": 19, "cluster_id": 1, "rank_in_cluster": 8}

>  <energy>  (52) 
-8.88

>  <cluster_rmsd>  (52) 
1.35

>  <rmsd>  (52) 
271.51

>  <cluster>  (52) 
1

$$$$
ZPZIUNMFLXMAPV-NRFANRHFNA-N
     RDKit          3D

 62 67  0  0  0  0  0  0  0  0999 V2000
  139.9530   67.9140  227.8860 C   0  0  0  0  0  0  0  0  0  0  0  0
  139.2400   67.3430  226.8310 C   0  0  0  0  0  0  0  0  0  0  0  0
  139.2080   67.9760  225.5850 C   0  0  0  0  0  0  0  0  0  0  0  0
  139.8850   69.1910  225.3870 C   0  0  0  0  0  0  0  0  0  0  0  0
  140.6020   69.7670  226.4580 C   0  0  0  0  0  0  0  0  0  0  0  0
  140.6380   69.1170  227.7000 C   0  0  0  0  0  0  0  0  0  0  0  0
  141.3730   71.0400  226.2570 C   0  0  0  0  0  0  0  0  0  0  0  0
  140.6800   71.9210  225.2210 C   0  0  0  0  0  0  0  0  0  0  0  0
  140.4750   71.1660  223.9750 N   0  0  0  0  0  0  0  0  0  0  0  0
  140.6990   71.7920  222.6930 C   0  0  0  0  0  0  0  0  0  0  0  0
  140.2030   73.0330  222.4420 N   0  0  0  0  0  0  0  0  0  0  0  0
  140.3910   73.6200  221.2330 C   0  0  0  0  0  0  0  0  0  0  0  0
  139.8410   74.9960  220.9660 C   0  0  1  0  0  0  0  0  0  0  0  0
  138.7520   75.3440  222.0060 C   0  0  0  0  0  0  0  0  0  0  0  0
  138.5590   76.8610  222.1150 C   0  0  0  0  0  0  0  0  0  0  0  0
  139.8810   77.5820  222.4650 C   0  0  0  0  0  0  0  0  0  0  0  0
  141.0700   76.7440  222.2290 N   0  0  0  0  0  0  0  0  0  0  0  0
  140.9720   76.0560  220.9350 C   0  0  0  0  0  0  0  0  0  0  0  0
  141.0900   72.9640  220.2690 N   0  0  0  0  0  0  0  0  0  0  0  0
  141.5860   71.7210  220.5020 C   0  0  0  0  0  0  0  0  0  0  0  0
  142.2880   71.0120  219.4610 N   0  0  0  0  0  0  0  0  0  0  0  0
  141.5730   70.3050  218.3950 C   0  0  0  0  0  0  0  0  0  0  0  0
  141.8510   68.8080  218.5200 C   0  0  0  0  0  0  0  0  0  0  0  0
  143.3290   68.5310  218.6630 C   0  0  0  0  0  0  0  0  0  0  0  0
  143.8120   67.2430  218.3840 C   0  0  0  0  0  0  0  0  0  0  0  0
  145.1650   66.9440  218.5520 C   0  0  0  0  0  0  0  0  0  0  0  0
  146.0480   67.9230  219.0100 C   0  0  0  0  0  0  0  0  0  0  0  0
  145.5790   69.2050  219.3060 C   0  0  0  0  0  0  0  0  0  0  0  0
  144.2200   69.5190  219.1510 C   0  0  0  0  0  0  0  0  0  0  0  0
  143.7550   70.9270  219.4490 C   0  0  0  0  0  0  0  0  0  0  0  0
  141.3860   71.1440  221.7160 N   0  0  0  0  0  0  0  0  0  0  0  0
  139.8550   69.8290  224.0160 C   0  0  0  0  0  0  0  0  0  0  0  0
  139.9756   67.4156  228.8663 H   0  0  0  0  0  0  0  0  0  0  0  0
  138.7030   66.3946  226.9799 H   0  0  0  0  0  0  0  0  0  0  0  0
  138.6493   67.5199  224.7544 H   0  0  0  0  0  0  0  0  0  0  0  0
  141.2083   69.5565  228.5316 H   0  0  0  0  0  0  0  0  0  0  0  0
  141.4336   71.5822  227.2122 H   0  0  0  0  0  0  0  0  0  0  0  0
  142.3834   70.7936  225.8988 H   0  0  0  0  0  0  0  0  0  0  0  0
  139.7057   72.2475  225.6136 H   0  0  0  0  0  0  0  0  0  0  0  0
  141.3108   72.7977  225.0124 H   0  0  0  0  0  0  0  0  0  0  0  0
  139.3732   75.0020  219.9705 H   0  0  0  0  0  0  0  0  0  0  0  0
  137.8019   74.8819  221.6999 H   0  0  0  0  0  0  0  0  0  0  0  0
  139.0696   74.9604  222.9868 H   0  0  0  0  0  0  0  0  0  0  0  0
  138.1885   77.2433  221.1524 H   0  0  0  0  0  0  0  0  0  0  0  0
  137.8373   77.0577  222.9215 H   0  0  0  0  0  0  0  0  0  0  0  0
  139.9614   78.4879  221.8462 H   0  0  0  0  0  0  0  0  0  0  0  0
  139.8529   77.8212  223.5383 H   0  0  0  0  0  0  0  0  0  0  0  0
  141.9040   77.3750  222.1970 H   0  0  0  0  0  0  0  0  0  0  0  0
  140.7547   76.7938  220.1486 H   0  0  0  0  0  0  0  0  0  0  0  0
  141.9269   75.5505  220.7284 H   0  0  0  0  0  0  0  0  0  0  0  0
  140.4927   70.4890  218.4902 H   0  0  0  0  0  0  0  0  0  0  0  0
  141.9149   70.6666  217.4140 H   0  0  0  0  0  0  0  0  0  0  0  0
  141.3269   68.4196  219.4057 H   0  0  0  0  0  0  0  0  0  0  0  0
  141.4932   68.3123  217.6055 H   0  0  0  0  0  0  0  0  0  0  0  0
  143.1199   66.4644  218.0308 H   0  0  0  0  0  0  0  0  0  0  0  0
  145.5363   65.9342  218.3229 H   0  0  0  0  0  0  0  0  0  0  0  0
  147.1143   67.6848  219.1380 H   0  0  0  0  0  0  0  0  0  0  0  0
  146.2798   69.9739  219.6631 H   0  0  0  0  0  0  0  0  0  0  0  0
  144.1399   71.2309  220.4337 H   0  0  0  0  0  0  0  0  0  0  0  0
  144.1356   71.5932  218.6607 H   0  0  0  0  0  0  0  0  0  0  0  0
  138.8060   69.9219  223.6983 H   0  0  0  0  0  0  0  0  0  0  0  0
  140.4387   69.1814  223.3453 H   0  0  0  0  0  0  0  0  0  0  0  0
  1  2  2  0
  2  3  1  0
  3  4  2  0
  4  5  1  0
  5  6  2  0
  5  7  1  0
  7  8  1  0
  8  9  1  0
  9 10  1  0
 10 11  2  0
 11 12  1  0
 12 13  1  0
 13 14  1  0
 14 15  1  0
 15 16  1  0
 16 17  1  0
 17 18  1  0
 12 19  2  0
 19 20  1  0
 20 21  1  0
 21 22  1  0
 22 23  1  0
 23 24  1  0
 24 25  2  0
 25 26  1  0
 26 27  2  0
 27 28  1  0
 28 29  2  0
 29 30  1  0
 20 31  2  0
  9 32  1  0
  6  1  1  0
 31 10  1  0
 32  4  1  0
 18 13  1  0
 30 21  1  0
 29 24  1  0
  1 33  1  0
  2 34  1  0
  3 35  1  0
  6 36  1  0
  7 37  1  0
  7 38  1  0
  8 39  1  0
  8 40  1  0
 13 41  1  6
 14 42  1  0
 14 43  1  0
 15 44  1  0
 15 45  1  0
 16 46  1  0
 16 47  1  0
 17 48  1  0
 18 49  1  0
 18 50  1  0
 22 51  1  0
 22 52  1  0
 23 53  1  0
 23 54  1  0
 25 55  1  0
 26 56  1  0
 27 57  1  0
 28 58  1  0
 30 59  1  0
 30 60  1  0
 32 61  1  0
 32 62  1  0
M  END
>  <UniqueID>  (53) 
678

>  <SMILES>  (53) 
c1ccc2c(c1)CCN(c1nc([C@H]3CCCNC3)nc(N3CCc4ccccc4C3)n1)C2

>  <Energy>  (53) 
77.27381382131934

>  <Genealogy>  (53) 
c1ccc2c(c1)CCN(c1nc([C@H]3CCCNC3)nc(N3CCc4ccccc4C3)n1)C2 (chirality)
c1ccc2c(c1)CCN(c1nc([C@H]3CCCNC3)nc(N3CCc4ccccc4C3)n1)C2 (3D coordinates assigned)
c1ccc2c(c1)CCN(c1nc([C@H]3CCCNC3)nc(N3CCc4ccccc4C3)n1)C2 (nonaromatic ring conformer: 77.27381382131934 kcal/mol)

>  <smiles>  (53) 
c1ccc2c(c1)CCN(c1nc(C3CCCNC3)nc(N3CCc4ccccc4C3)n1)C2

>  <score_type>  (53) 
oracle

>  <origin>  (53) 
autodockgpu

>  <m_score__min__energy>  (53) 
-8.9299999999999997

>  <m_primary>  (53) 
energy

>  <meeko>  (53) 
{"free_energy": -8.56, "intermolecular_energy": -9.45, "internal_energy": -0.89, "cluster_size": 1, "cluster_id": 2, "rank_in_cluster": 1}

>  <energy>  (53) 
-8.87

>  <cluster_rmsd>  (53) 
1.56

>  <rmsd>  (53) 
271.47

>  <cluster>  (53) 
1

$$$$
ZPZIUNMFLXMAPV-NRFANRHFNA-N
     RDKit          3D

 62 67  0  0  0  0  0  0  0  0999 V2000
  138.1220   68.8940  225.7000 C   0  0  0  0  0  0  0  0  0  0  0  0
  139.4230   69.1100  226.1580 C   0  0  0  0  0  0  0  0  0  0  0  0
  140.2480   70.0320  225.5080 C   0  0  0  0  0  0  0  0  0  0  0  0
  139.7800   70.7410  224.3890 C   0  0  0  0  0  0  0  0  0  0  0  0
  138.4650   70.5160  223.9260 C   0  0  0  0  0  0  0  0  0  0  0  0
  137.6410   69.5980  224.5940 C   0  0  0  0  0  0  0  0  0  0  0  0
  137.9270   71.2960  222.7620 C   0  0  0  0  0  0  0  0  0  0  0  0
  139.0490   71.6300  221.7840 C   0  0  0  0  0  0  0  0  0  0  0  0
  140.1410   72.3210  222.4870 N   0  0  0  0  0  0  0  0  0  0  0  0
  140.8110   73.4450  221.8760 C   0  0  0  0  0  0  0  0  0  0  0  0
  141.9570   73.2570  221.1700 N   0  0  0  0  0  0  0  0  0  0  0  0
  142.6040   74.3110  220.6110 C   0  0  0  0  0  0  0  0  0  0  0  0
  143.8720   74.0920  219.8270 C   0  0  1  0  0  0  0  0  0  0  0  0
  145.0890   74.0790  220.7800 C   0  0  0  0  0  0  0  0  0  0  0  0
  146.2770   73.3490  220.1430 C   0  0  0  0  0  0  0  0  0  0  0  0
  145.9080   71.9060  219.7300 C   0  0  0  0  0  0  0  0  0  0  0  0
  144.4530   71.6850  219.6650 N   0  0  0  0  0  0  0  0  0  0  0  0
  143.7890   72.7990  218.9760 C   0  0  0  0  0  0  0  0  0  0  0  0
  142.0950   75.5630  220.7510 N   0  0  0  0  0  0  0  0  0  0  0  0
  140.9540   75.7690  221.4580 C   0  0  0  0  0  0  0  0  0  0  0  0
  140.4410   77.1040  221.6410 N   0  0  0  0  0  0  0  0  0  0  0  0
  139.8090   77.8410  220.5430 C   0  0  0  0  0  0  0  0  0  0  0  0
  140.6650   79.0600  220.2060 C   0  0  0  0  0  0  0  0  0  0  0  0
  141.0260   79.8410  221.4470 C   0  0  0  0  0  0  0  0  0  0  0  0
  141.4430   81.1750  221.3170 C   0  0  0  0  0  0  0  0  0  0  0  0
  141.8270   81.9090  222.4410 C   0  0  0  0  0  0  0  0  0  0  0  0
  141.8090   81.3160  223.7040 C   0  0  0  0  0  0  0  0  0  0  0  0
  141.4110   79.9860  223.8480 C   0  0  0  0  0  0  0  0  0  0  0  0
  141.0310   79.2320  222.7270 C   0  0  0  0  0  0  0  0  0  0  0  0
  140.5720   77.8040  222.9260 C   0  0  0  0  0  0  0  0  0  0  0  0
  140.3190   74.7040  222.0160 N   0  0  0  0  0  0  0  0  0  0  0  0
  140.6910   71.7540  223.7320 C   0  0  0  0  0  0  0  0  0  0  0  0
  137.4740   68.1672  226.2117 H   0  0  0  0  0  0  0  0  0  0  0  0
  139.7986   68.5547  227.0301 H   0  0  0  0  0  0  0  0  0  0  0  0
  141.2707   70.2037  225.8750 H   0  0  0  0  0  0  0  0  0  0  0  0
  136.6112   69.4319  224.2450 H   0  0  0  0  0  0  0  0  0  0  0  0
  137.1624   70.6967  222.2460 H   0  0  0  0  0  0  0  0  0  0  0  0
  137.4851   72.2326  223.1327 H   0  0  0  0  0  0  0  0  0  0  0  0
  139.4332   70.7002  221.3392 H   0  0  0  0  0  0  0  0  0  0  0  0
  138.6556   72.2870  220.9943 H   0  0  0  0  0  0  0  0  0  0  0  0
  144.0011   74.9272  219.1228 H   0  0  0  0  0  0  0  0  0  0  0  0
  145.3817   75.1154  221.0040 H   0  0  0  0  0  0  0  0  0  0  0  0
  144.8064   73.5507  221.7025 H   0  0  0  0  0  0  0  0  0  0  0  0
  146.5987   73.9041  219.2495 H   0  0  0  0  0  0  0  0  0  0  0  0
  147.0853   73.2961  220.8872 H   0  0  0  0  0  0  0  0  0  0  0  0
  146.3389   71.7032  218.7384 H   0  0  0  0  0  0  0  0  0  0  0  0
  146.3119   71.2286  220.4968 H   0  0  0  0  0  0  0  0  0  0  0  0
  144.2870   70.8150  219.1050 H   0  0  0  0  0  0  0  0  0  0  0  0
  144.2819   72.9709  218.0078 H   0  0  0  0  0  0  0  0  0  0  0  0
  142.7305   72.5418  218.8229 H   0  0  0  0  0  0  0  0  0  0  0  0
  139.7295   77.1904  219.6596 H   0  0  0  0  0  0  0  0  0  0  0  0
  138.8019   78.1653  220.8438 H   0  0  0  0  0  0  0  0  0  0  0  0
  141.5893   78.7231  219.7139 H   0  0  0  0  0  0  0  0  0  0  0  0
  140.0850   79.7166  219.5407 H   0  0  0  0  0  0  0  0  0  0  0  0
  141.4674   81.6453  220.3229 H   0  0  0  0  0  0  0  0  0  0  0  0
  142.1442   82.9565  222.3307 H   0  0  0  0  0  0  0  0  0  0  0  0
  142.1091   81.8979  224.5879 H   0  0  0  0  0  0  0  0  0  0  0  0
  141.3950   79.5257  224.8469 H   0  0  0  0  0  0  0  0  0  0  0  0
  141.3072   77.2744  223.5497 H   0  0  0  0  0  0  0  0  0  0  0  0
  139.5873   77.8198  223.4160 H   0  0  0  0  0  0  0  0  0  0  0  0
  141.6467   71.2622  223.4979 H   0  0  0  0  0  0  0  0  0  0  0  0
  140.8121   72.5868  224.4403 H   0  0  0  0  0  0  0  0  0  0  0  0
  1  2  2  0
  2  3  1  0
  3  4  2  0
  4  5  1  0
  5  6  2  0
  5  7  1  0
  7  8  1  0
  8  9  1  0
  9 10  1  0
 10 11  2  0
 11 12  1  0
 12 13  1  0
 13 14  1  0
 14 15  1  0
 15 16  1  0
 16 17  1  0
 17 18  1  0
 12 19  2  0
 19 20  1  0
 20 21  1  0
 21 22  1  0
 22 23  1  0
 23 24  1  0
 24 25  2  0
 25 26  1  0
 26 27  2  0
 27 28  1  0
 28 29  2  0
 29 30  1  0
 20 31  2  0
  9 32  1  0
  6  1  1  0
 31 10  1  0
 32  4  1  0
 18 13  1  0
 30 21  1  0
 29 24  1  0
  1 33  1  0
  2 34  1  0
  3 35  1  0
  6 36  1  0
  7 37  1  0
  7 38  1  0
  8 39  1  0
  8 40  1  0
 13 41  1  6
 14 42  1  0
 14 43  1  0
 15 44  1  0
 15 45  1  0
 16 46  1  0
 16 47  1  0
 17 48  1  0
 18 49  1  0
 18 50  1  0
 22 51  1  0
 22 52  1  0
 23 53  1  0
 23 54  1  0
 25 55  1  0
 26 56  1  0
 27 57  1  0
 28 58  1  0
 30 59  1  0
 30 60  1  0
 32 61  1  0
 32 62  1  0
M  END
>  <UniqueID>  (54) 
678

>  <SMILES>  (54) 
c1ccc2c(c1)CCN(c1nc([C@H]3CCCNC3)nc(N3CCc4ccccc4C3)n1)C2

>  <Energy>  (54) 
77.27381382131934

>  <Genealogy>  (54) 
c1ccc2c(c1)CCN(c1nc([C@H]3CCCNC3)nc(N3CCc4ccccc4C3)n1)C2 (chirality)
c1ccc2c(c1)CCN(c1nc([C@H]3CCCNC3)nc(N3CCc4ccccc4C3)n1)C2 (3D coordinates assigned)
c1ccc2c(c1)CCN(c1nc([C@H]3CCCNC3)nc(N3CCc4ccccc4C3)n1)C2 (nonaromatic ring conformer: 77.27381382131934 kcal/mol)

>  <smiles>  (54) 
c1ccc2c(c1)CCN(c1nc(C3CCCNC3)nc(N3CCc4ccccc4C3)n1)C2

>  <score_type>  (54) 
oracle

>  <origin>  (54) 
autodockgpu

>  <m_score__min__energy>  (54) 
-8.9299999999999997

>  <m_primary>  (54) 
energy

>  <meeko>  (54) 
{"free_energy": -8.93, "intermolecular_energy": -9.83, "internal_energy": -0.87, "cluster_size": 19, "cluster_id": 1, "rank_in_cluster": 2}

>  <energy>  (54) 
-8.85

>  <cluster_rmsd>  (54) 
1.56

>  <rmsd>  (54) 
271.4

>  <cluster>  (54) 
1

$$$$
ZPZIUNMFLXMAPV-NRFANRHFNA-N
     RDKit          3D

 62 67  0  0  0  0  0  0  0  0999 V2000
  139.2060   69.2360  227.7200 C   0  0  0  0  0  0  0  0  0  0  0  0
  140.3600   69.9690  228.0000 C   0  0  0  0  0  0  0  0  0  0  0  0
  140.9550   70.7450  227.0020 C   0  0  0  0  0  0  0  0  0  0  0  0
  140.4030   70.7880  225.7110 C   0  0  0  0  0  0  0  0  0  0  0  0
  139.2370   70.0430  225.4300 C   0  0  0  0  0  0  0  0  0  0  0  0
  138.6410   69.2780  226.4430 C   0  0  0  0  0  0  0  0  0  0  0  0
  138.6010   70.1110  224.0720 C   0  0  0  0  0  0  0  0  0  0  0  0
  139.6650   70.3240  222.9990 C   0  0  0  0  0  0  0  0  0  0  0  0
  140.4730   71.5120  223.3190 N   0  0  0  0  0  0  0  0  0  0  0  0
  140.8610   72.4370  222.2810 C   0  0  0  0  0  0  0  0  0  0  0  0
  141.6370   72.0180  221.2470 N   0  0  0  0  0  0  0  0  0  0  0  0
  142.0240   72.8870  220.2780 C   0  0  0  0  0  0  0  0  0  0  0  0
  142.8810   72.4120  219.1350 C   0  0  1  0  0  0  0  0  0  0  0  0
  142.4020   73.0500  217.8100 C   0  0  0  0  0  0  0  0  0  0  0  0
  143.5180   73.0370  216.7590 C   0  0  0  0  0  0  0  0  0  0  0  0
  144.7900   73.7530  217.2660 C   0  0  0  0  0  0  0  0  0  0  0  0
  144.8030   73.9290  218.7290 N   0  0  0  0  0  0  0  0  0  0  0  0
  144.3810   72.6940  219.4030 C   0  0  0  0  0  0  0  0  0  0  0  0
  141.6210   74.1830  220.3390 N   0  0  0  0  0  0  0  0  0  0  0  0
  140.8500   74.6190  221.3680 C   0  0  0  0  0  0  0  0  0  0  0  0
  140.4630   76.0050  221.4510 N   0  0  0  0  0  0  0  0  0  0  0  0
  140.0550   76.7620  220.2630 C   0  0  0  0  0  0  0  0  0  0  0  0
  141.0710   77.8740  220.0110 C   0  0  0  0  0  0  0  0  0  0  0  0
  141.3530   78.6600  221.2710 C   0  0  0  0  0  0  0  0  0  0  0  0
  141.9220   79.9390  221.1640 C   0  0  0  0  0  0  0  0  0  0  0  0
  142.2360   80.6710  222.3100 C   0  0  0  0  0  0  0  0  0  0  0  0
  141.9960   80.1300  223.5740 C   0  0  0  0  0  0  0  0  0  0  0  0
  141.4440   78.8530  223.6970 C   0  0  0  0  0  0  0  0  0  0  0  0
  141.1310   78.1010  222.5540 C   0  0  0  0  0  0  0  0  0  0  0  0
  140.5030   76.7360  222.7250 C   0  0  0  0  0  0  0  0  0  0  0  0
  140.4750   73.7390  222.3340 N   0  0  0  0  0  0  0  0  0  0  0  0
  141.0560   71.6650  224.6650 C   0  0  0  0  0  0  0  0  0  0  0  0
  138.7403   68.6239  228.5064 H   0  0  0  0  0  0  0  0  0  0  0  0
  140.8015   69.9358  229.0070 H   0  0  0  0  0  0  0  0  0  0  0  0
  141.8613   71.3258  227.2286 H   0  0  0  0  0  0  0  0  0  0  0  0
  137.7242   68.7083  226.2311 H   0  0  0  0  0  0  0  0  0  0  0  0
  138.0685   69.1693  223.8731 H   0  0  0  0  0  0  0  0  0  0  0  0
  137.8957   70.9548  224.0490 H   0  0  0  0  0  0  0  0  0  0  0  0
  140.3186   69.4404  222.9539 H   0  0  0  0  0  0  0  0  0  0  0  0
  139.1722   70.4740  222.0271 H   0  0  0  0  0  0  0  0  0  0  0  0
  142.7743   71.3209  219.0445 H   0  0  0  0  0  0  0  0  0  0  0  0
  141.5412   72.4818  217.4277 H   0  0  0  0  0  0  0  0  0  0  0  0
  142.1178   74.0943  218.0065 H   0  0  0  0  0  0  0  0  0  0  0  0
  143.7686   71.9933  216.5182 H   0  0  0  0  0  0  0  0  0  0  0  0
  143.1560   73.5715  215.8683 H   0  0  0  0  0  0  0  0  0  0  0  0
  145.6678   73.1568  216.9762 H   0  0  0  0  0  0  0  0  0  0  0  0
  144.8085   74.7549  216.8123 H   0  0  0  0  0  0  0  0  0  0  0  0
  145.7890   74.1340  219.0170 H   0  0  0  0  0  0  0  0  0  0  0  0
  144.9803   71.8527  219.0247 H   0  0  0  0  0  0  0  0  0  0  0  0
  144.5318   72.8117  220.4862 H   0  0  0  0  0  0  0  0  0  0  0  0
  140.0187   76.0909  219.3922 H   0  0  0  0  0  0  0  0  0  0  0  0
  139.0579   77.1980  220.4236 H   0  0  0  0  0  0  0  0  0  0  0  0
  142.0092   77.4266  219.6509 H   0  0  0  0  0  0  0  0  0  0  0  0
  140.6528   78.5613  219.2608 H   0  0  0  0  0  0  0  0  0  0  0  0
  142.1216   80.3669  220.1705 H   0  0  0  0  0  0  0  0  0  0  0  0
  142.6734   81.6760  222.2169 H   0  0  0  0  0  0  0  0  0  0  0  0
  142.2421   80.7106  224.4753 H   0  0  0  0  0  0  0  0  0  0  0  0
  141.2533   78.4339  224.6960 H   0  0  0  0  0  0  0  0  0  0  0  0
  141.0931   76.1582  223.4516 H   0  0  0  0  0  0  0  0  0  0  0  0
  139.4711   76.8700  223.0817 H   0  0  0  0  0  0  0  0  0  0  0  0
  142.1241   71.4074  224.6127 H   0  0  0  0  0  0  0  0  0  0  0  0
  140.8920   72.7088  224.9709 H   0  0  0  0  0  0  0  0  0  0  0  0
  1  2  2  0
  2  3  1  0
  3  4  2  0
  4  5  1  0
  5  6  2  0
  5  7  1  0
  7  8  1  0
  8  9  1  0
  9 10  1  0
 10 11  2  0
 11 12  1  0
 12 13  1  0
 13 14  1  0
 14 15  1  0
 15 16  1  0
 16 17  1  0
 17 18  1  0
 12 19  2  0
 19 20  1  0
 20 21  1  0
 21 22  1  0
 22 23  1  0
 23 24  1  0
 24 25  2  0
 25 26  1  0
 26 27  2  0
 27 28  1  0
 28 29  2  0
 29 30  1  0
 20 31  2  0
  9 32  1  0
  6  1  1  0
 31 10  1  0
 32  4  1  0
 18 13  1  0
 30 21  1  0
 29 24  1  0
  1 33  1  0
  2 34  1  0
  3 35  1  0
  6 36  1  0
  7 37  1  0
  7 38  1  0
  8 39  1  0
  8 40  1  0
 13 41  1  6
 14 42  1  0
 14 43  1  0
 15 44  1  0
 15 45  1  0
 16 46  1  0
 16 47  1  0
 17 48  1  0
 18 49  1  0
 18 50  1  0
 22 51  1  0
 22 52  1  0
 23 53  1  0
 23 54  1  0
 25 55  1  0
 26 56  1  0
 27 57  1  0
 28 58  1  0
 30 59  1  0
 30 60  1  0
 32 61  1  0
 32 62  1  0
M  END
>  <UniqueID>  (55) 
678

>  <SMILES>  (55) 
c1ccc2c(c1)CCN(c1nc([C@H]3CCCNC3)nc(N3CCc4ccccc4C3)n1)C2

>  <Energy>  (55) 
77.27381382131934

>  <Genealogy>  (55) 
c1ccc2c(c1)CCN(c1nc([C@H]3CCCNC3)nc(N3CCc4ccccc4C3)n1)C2 (chirality)
c1ccc2c(c1)CCN(c1nc([C@H]3CCCNC3)nc(N3CCc4ccccc4C3)n1)C2 (3D coordinates assigned)
c1ccc2c(c1)CCN(c1nc([C@H]3CCCNC3)nc(N3CCc4ccccc4C3)n1)C2 (nonaromatic ring conformer: 77.27381382131934 kcal/mol)

>  <smiles>  (55) 
c1ccc2c(c1)CCN(c1nc(C3CCCNC3)nc(N3CCc4ccccc4C3)n1)C2

>  <score_type>  (55) 
oracle

>  <origin>  (55) 
autodockgpu

>  <m_score__min__energy>  (55) 
-8.9299999999999997

>  <m_primary>  (55) 
energy

>  <meeko>  (55) 
{"free_energy": -8.87, "intermolecular_energy": -9.76, "internal_energy": -0.9, "cluster_size": 19, "cluster_id": 1, "rank_in_cluster": 13}

>  <energy>  (55) 
-8.84

>  <cluster_rmsd>  (55) 
0.4

>  <rmsd>  (55) 
271.37

>  <cluster>  (55) 
1

$$$$
ZPZIUNMFLXMAPV-NRFANRHFNA-N
     RDKit          3D

 62 67  0  0  0  0  0  0  0  0999 V2000
  138.1840   68.6910  225.6560 C   0  0  0  0  0  0  0  0  0  0  0  0
  139.5170   68.8470  226.0370 C   0  0  0  0  0  0  0  0  0  0  0  0
  140.3280   69.7760  225.3800 C   0  0  0  0  0  0  0  0  0  0  0  0
  139.8120   70.5530  224.3290 C   0  0  0  0  0  0  0  0  0  0  0  0
  138.4640   70.3900  223.9430 C   0  0  0  0  0  0  0  0  0  0  0  0
  137.6560   69.4630  224.6190 C   0  0  0  0  0  0  0  0  0  0  0  0
  137.8770   71.2420  222.8560 C   0  0  0  0  0  0  0  0  0  0  0  0
  138.9450   71.5920  221.8230 C   0  0  0  0  0  0  0  0  0  0  0  0
  140.1010   72.2160  222.4860 N   0  0  0  0  0  0  0  0  0  0  0  0
  140.7660   73.3490  221.8880 C   0  0  0  0  0  0  0  0  0  0  0  0
  141.8980   73.1710  221.1580 N   0  0  0  0  0  0  0  0  0  0  0  0
  142.5410   74.2340  220.6100 C   0  0  0  0  0  0  0  0  0  0  0  0
  143.7930   74.0260  219.8000 C   0  0  1  0  0  0  0  0  0  0  0  0
  145.0360   74.0870  220.7180 C   0  0  0  0  0  0  0  0  0  0  0  0
  146.2300   73.3720  220.0760 C   0  0  0  0  0  0  0  0  0  0  0  0
  145.8970   71.9040  219.7270 C   0  0  0  0  0  0  0  0  0  0  0  0
  144.4480   71.6340  219.7100 N   0  0  0  0  0  0  0  0  0  0  0  0
  143.7300   72.7000  219.0000 C   0  0  0  0  0  0  0  0  0  0  0  0
  142.0400   75.4850  220.7850 N   0  0  0  0  0  0  0  0  0  0  0  0
  140.9120   75.6810  221.5160 C   0  0  0  0  0  0  0  0  0  0  0  0
  140.4090   77.0140  221.7350 N   0  0  0  0  0  0  0  0  0  0  0  0
  139.6870   77.7450  220.6900 C   0  0  0  0  0  0  0  0  0  0  0  0
  140.5080   78.9670  220.2820 C   0  0  0  0  0  0  0  0  0  0  0  0
  140.9630   79.7530  221.4890 C   0  0  0  0  0  0  0  0  0  0  0  0
  141.3620   81.0890  221.3220 C   0  0  0  0  0  0  0  0  0  0  0  0
  141.8310   81.8280  222.4090 C   0  0  0  0  0  0  0  0  0  0  0  0
  141.9180   81.2390  223.6710 C   0  0  0  0  0  0  0  0  0  0  0  0
  141.5390   79.9070  223.8500 C   0  0  0  0  0  0  0  0  0  0  0  0
  141.0730   79.1480  222.7650 C   0  0  0  0  0  0  0  0  0  0  0  0
  140.6390   77.7190  223.0040 C   0  0  0  0  0  0  0  0  0  0  0  0
  140.2820   74.6080  222.0630 N   0  0  0  0  0  0  0  0  0  0  0  0
  140.7110   71.5720  223.6640 C   0  0  0  0  0  0  0  0  0  0  0  0
  137.5475   67.9583  226.1736 H   0  0  0  0  0  0  0  0  0  0  0  0
  139.9298   68.2383  226.8550 H   0  0  0  0  0  0  0  0  0  0  0  0
  141.3769   69.8999  225.6874 H   0  0  0  0  0  0  0  0  0  0  0  0
  136.6012   69.3438  224.3306 H   0  0  0  0  0  0  0  0  0  0  0  0
  137.0621   70.6913  222.3633 H   0  0  0  0  0  0  0  0  0  0  0  0
  137.4894   72.1711  223.2992 H   0  0  0  0  0  0  0  0  0  0  0  0
  139.2704   70.6748  221.3104 H   0  0  0  0  0  0  0  0  0  0  0  0
  138.5232   72.2980  221.0925 H   0  0  0  0  0  0  0  0  0  0  0  0
  143.8750   74.8382  219.0627 H   0  0  0  0  0  0  0  0  0  0  0  0
  145.3005   75.1399  220.8956 H   0  0  0  0  0  0  0  0  0  0  0  0
  144.7956   73.5842  221.6664 H   0  0  0  0  0  0  0  0  0  0  0  0
  146.5098   73.9029  219.1541 H   0  0  0  0  0  0  0  0  0  0  0  0
  147.0593   73.3730  220.7987 H   0  0  0  0  0  0  0  0  0  0  0  0
  146.3081   71.6776  218.7321 H   0  0  0  0  0  0  0  0  0  0  0  0
  146.3423   71.2695  220.5074 H   0  0  0  0  0  0  0  0  0  0  0  0
  144.2960   70.7390  219.1880 H   0  0  0  0  0  0  0  0  0  0  0  0
  144.1910   72.8510  218.0128 H   0  0  0  0  0  0  0  0  0  0  0  0
  142.6767   72.4037  218.8865 H   0  0  0  0  0  0  0  0  0  0  0  0
  139.5392   77.0916  219.8175 H   0  0  0  0  0  0  0  0  0  0  0  0
  138.7059   78.0658  221.0703 H   0  0  0  0  0  0  0  0  0  0  0  0
  141.3917   78.6327  219.7186 H   0  0  0  0  0  0  0  0  0  0  0  0
  139.8742   79.6190  219.6629 H   0  0  0  0  0  0  0  0  0  0  0  0
  141.3045   81.5561  220.3278 H   0  0  0  0  0  0  0  0  0  0  0  0
  142.1326   82.8768  222.2707 H   0  0  0  0  0  0  0  0  0  0  0  0
  142.2857   81.8249  224.5263 H   0  0  0  0  0  0  0  0  0  0  0  0
  141.6061   79.4494  224.8480 H   0  0  0  0  0  0  0  0  0  0  0  0
  141.4246   77.1951  223.5683 H   0  0  0  0  0  0  0  0  0  0  0  0
  139.6967   77.7314  223.5713 H   0  0  0  0  0  0  0  0  0  0  0  0
  141.6342   71.0660  223.3450 H   0  0  0  0  0  0  0  0  0  0  0  0
  140.9028   72.3644  224.4024 H   0  0  0  0  0  0  0  0  0  0  0  0
  1  2  2  0
  2  3  1  0
  3  4  2  0
  4  5  1  0
  5  6  2  0
  5  7  1  0
  7  8  1  0
  8  9  1  0
  9 10  1  0
 10 11  2  0
 11 12  1  0
 12 13  1  0
 13 14  1  0
 14 15  1  0
 15 16  1  0
 16 17  1  0
 17 18  1  0
 12 19  2  0
 19 20  1  0
 20 21  1  0
 21 22  1  0
 22 23  1  0
 23 24  1  0
 24 25  2  0
 25 26  1  0
 26 27  2  0
 27 28  1  0
 28 29  2  0
 29 30  1  0
 20 31  2  0
  9 32  1  0
  6  1  1  0
 31 10  1  0
 32  4  1  0
 18 13  1  0
 30 21  1  0
 29 24  1  0
  1 33  1  0
  2 34  1  0
  3 35  1  0
  6 36  1  0
  7 37  1  0
  7 38  1  0
  8 39  1  0
  8 40  1  0
 13 41  1  6
 14 42  1  0
 14 43  1  0
 15 44  1  0
 15 45  1  0
 16 46  1  0
 16 47  1  0
 17 48  1  0
 18 49  1  0
 18 50  1  0
 22 51  1  0
 22 52  1  0
 23 53  1  0
 23 54  1  0
 25 55  1  0
 26 56  1  0
 27 57  1  0
 28 58  1  0
 30 59  1  0
 30 60  1  0
 32 61  1  0
 32 62  1  0
M  END
>  <UniqueID>  (56) 
678

>  <SMILES>  (56) 
c1ccc2c(c1)CCN(c1nc([C@H]3CCCNC3)nc(N3CCc4ccccc4C3)n1)C2

>  <Energy>  (56) 
77.27381382131934

>  <Genealogy>  (56) 
c1ccc2c(c1)CCN(c1nc([C@H]3CCCNC3)nc(N3CCc4ccccc4C3)n1)C2 (chirality)
c1ccc2c(c1)CCN(c1nc([C@H]3CCCNC3)nc(N3CCc4ccccc4C3)n1)C2 (3D coordinates assigned)
c1ccc2c(c1)CCN(c1nc([C@H]3CCCNC3)nc(N3CCc4ccccc4C3)n1)C2 (nonaromatic ring conformer: 77.27381382131934 kcal/mol)

>  <smiles>  (56) 
c1ccc2c(c1)CCN(c1nc(C3CCCNC3)nc(N3CCc4ccccc4C3)n1)C2

>  <score_type>  (56) 
oracle

>  <origin>  (56) 
autodockgpu

>  <m_score__min__energy>  (56) 
-8.9299999999999997

>  <m_primary>  (56) 
energy

>  <meeko>  (56) 
{"free_energy": -8.9, "intermolecular_energy": -9.8, "internal_energy": -0.87, "cluster_size": 19, "cluster_id": 1, "rank_in_cluster": 10}

>  <energy>  (56) 
-8.84

>  <cluster_rmsd>  (56) 
1.55

>  <rmsd>  (56) 
271.44

>  <cluster>  (56) 
1

$$$$
ZPZIUNMFLXMAPV-NRFANRHFNA-N
     RDKit          3D

 62 67  0  0  0  0  0  0  0  0999 V2000
  139.2200   69.1110  227.4160 C   0  0  0  0  0  0  0  0  0  0  0  0
  140.4450   69.7340  227.6540 C   0  0  0  0  0  0  0  0  0  0  0  0
  141.0350   70.5210  226.6620 C   0  0  0  0  0  0  0  0  0  0  0  0
  140.4050   70.6860  225.4170 C   0  0  0  0  0  0  0  0  0  0  0  0
  139.1670   70.0510  225.1770 C   0  0  0  0  0  0  0  0  0  0  0  0
  138.5780   69.2740  226.1850 C   0  0  0  0  0  0  0  0  0  0  0  0
  138.4520   70.2510  223.8730 C   0  0  0  0  0  0  0  0  0  0  0  0
  139.4580   70.4470  222.7420 C   0  0  0  0  0  0  0  0  0  0  0  0
  140.3780   71.5470  223.0710 N   0  0  0  0  0  0  0  0  0  0  0  0
  140.7710   72.5010  222.0620 C   0  0  0  0  0  0  0  0  0  0  0  0
  141.4960   72.0970  220.9850 N   0  0  0  0  0  0  0  0  0  0  0  0
  141.8880   72.9920  220.0410 C   0  0  0  0  0  0  0  0  0  0  0  0
  142.6880   72.5350  218.8510 C   0  0  1  0  0  0  0  0  0  0  0  0
  142.0610   73.0810  217.5480 C   0  0  0  0  0  0  0  0  0  0  0  0
  143.0890   73.1060  216.4110 C   0  0  0  0  0  0  0  0  0  0  0  0
  144.3390   73.9330  216.7880 C   0  0  0  0  0  0  0  0  0  0  0  0
  144.4520   74.1690  218.2380 N   0  0  0  0  0  0  0  0  0  0  0  0
  144.1780   72.9360  218.9880 C   0  0  0  0  0  0  0  0  0  0  0  0
  141.5430   74.3000  220.1720 N   0  0  0  0  0  0  0  0  0  0  0  0
  140.8240   74.7200  221.2450 C   0  0  0  0  0  0  0  0  0  0  0  0
  140.4980   76.1160  221.4010 N   0  0  0  0  0  0  0  0  0  0  0  0
  140.1830   76.9650  220.2490 C   0  0  0  0  0  0  0  0  0  0  0  0
  141.2610   78.0390  220.1150 C   0  0  0  0  0  0  0  0  0  0  0  0
  141.5190   78.7290  221.4340 C   0  0  0  0  0  0  0  0  0  0  0  0
  142.1520   79.9820  221.4360 C   0  0  0  0  0  0  0  0  0  0  0  0
  142.4450   80.6240  222.6400 C   0  0  0  0  0  0  0  0  0  0  0  0
  142.1210   80.0180  223.8550 C   0  0  0  0  0  0  0  0  0  0  0  0
  141.5050   78.7650  223.8690 C   0  0  0  0  0  0  0  0  0  0  0  0
  141.2120   78.1030  222.6670 C   0  0  0  0  0  0  0  0  0  0  0  0
  140.5130   76.7620  222.7210 C   0  0  0  0  0  0  0  0  0  0  0  0
  140.4420   73.8140  222.1840 N   0  0  0  0  0  0  0  0  0  0  0  0
  141.0570   71.5720  224.3790 C   0  0  0  0  0  0  0  0  0  0  0  0
  138.7584   68.4904  228.1982 H   0  0  0  0  0  0  0  0  0  0  0  0
  140.9472   69.6055  228.6242 H   0  0  0  0  0  0  0  0  0  0  0  0
  141.9986   71.0145  226.8568 H   0  0  0  0  0  0  0  0  0  0  0  0
  137.6063   68.7905  226.0061 H   0  0  0  0  0  0  0  0  0  0  0  0
  137.8332   69.3671  223.6591 H   0  0  0  0  0  0  0  0  0  0  0  0
  137.8173   71.1464  223.9466 H   0  0  0  0  0  0  0  0  0  0  0  0
  140.0338   69.5202  222.6021 H   0  0  0  0  0  0  0  0  0  0  0  0
  138.9169   70.6937  221.8166 H   0  0  0  0  0  0  0  0  0  0  0  0
  142.6585   71.4363  218.8076 H   0  0  0  0  0  0  0  0  0  0  0  0
  141.2185   72.4365  217.2569 H   0  0  0  0  0  0  0  0  0  0  0  0
  141.7153   74.1093  217.7300 H   0  0  0  0  0  0  0  0  0  0  0  0
  143.3983   72.0743  216.1874 H   0  0  0  0  0  0  0  0  0  0  0  0
  142.6190   73.5756  215.5343 H   0  0  0  0  0  0  0  0  0  0  0  0
  145.2342   73.3908  216.4494 H   0  0  0  0  0  0  0  0  0  0  0  0
  144.2466   74.9141  216.2992 H   0  0  0  0  0  0  0  0  0  0  0  0
  145.4390   74.4570  218.4390 H   0  0  0  0  0  0  0  0  0  0  0  0
  144.8084   72.1253  218.5938 H   0  0  0  0  0  0  0  0  0  0  0  0
  144.4025   73.1097  220.0507 H   0  0  0  0  0  0  0  0  0  0  0  0
  140.1565   76.3527  219.3355 H   0  0  0  0  0  0  0  0  0  0  0  0
  139.2010   77.4392  220.3935 H   0  0  0  0  0  0  0  0  0  0  0  0
  142.1933   77.5690  219.7686 H   0  0  0  0  0  0  0  0  0  0  0  0
  140.9116   78.7919  219.3931 H   0  0  0  0  0  0  0  0  0  0  0  0
  142.4188   80.4609  220.4823 H   0  0  0  0  0  0  0  0  0  0  0  0
  142.9325   81.6100  222.6315 H   0  0  0  0  0  0  0  0  0  0  0  0
  142.3511   80.5279  224.8021 H   0  0  0  0  0  0  0  0  0  0  0  0
  141.2476   78.2936  224.8290 H   0  0  0  0  0  0  0  0  0  0  0  0
  141.0410   76.1107  223.4330 H   0  0  0  0  0  0  0  0  0  0  0  0
  139.4731   76.9243  223.0408 H   0  0  0  0  0  0  0  0  0  0  0  0
  142.0952   71.2367  224.2383 H   0  0  0  0  0  0  0  0  0  0  0  0
  140.9978   72.6046  224.7534 H   0  0  0  0  0  0  0  0  0  0  0  0
  1  2  2  0
  2  3  1  0
  3  4  2  0
  4  5  1  0
  5  6  2  0
  5  7  1  0
  7  8  1  0
  8  9  1  0
  9 10  1  0
 10 11  2  0
 11 12  1  0
 12 13  1  0
 13 14  1  0
 14 15  1  0
 15 16  1  0
 16 17  1  0
 17 18  1  0
 12 19  2  0
 19 20  1  0
 20 21  1  0
 21 22  1  0
 22 23  1  0
 23 24  1  0
 24 25  2  0
 25 26  1  0
 26 27  2  0
 27 28  1  0
 28 29  2  0
 29 30  1  0
 20 31  2  0
  9 32  1  0
  6  1  1  0
 31 10  1  0
 32  4  1  0
 18 13  1  0
 30 21  1  0
 29 24  1  0
  1 33  1  0
  2 34  1  0
  3 35  1  0
  6 36  1  0
  7 37  1  0
  7 38  1  0
  8 39  1  0
  8 40  1  0
 13 41  1  6
 14 42  1  0
 14 43  1  0
 15 44  1  0
 15 45  1  0
 16 46  1  0
 16 47  1  0
 17 48  1  0
 18 49  1  0
 18 50  1  0
 22 51  1  0
 22 52  1  0
 23 53  1  0
 23 54  1  0
 25 55  1  0
 26 56  1  0
 27 57  1  0
 28 58  1  0
 30 59  1  0
 30 60  1  0
 32 61  1  0
 32 62  1  0
M  END
>  <UniqueID>  (57) 
678

>  <SMILES>  (57) 
c1ccc2c(c1)CCN(c1nc([C@H]3CCCNC3)nc(N3CCc4ccccc4C3)n1)C2

>  <Energy>  (57) 
77.27381382131934

>  <Genealogy>  (57) 
c1ccc2c(c1)CCN(c1nc([C@H]3CCCNC3)nc(N3CCc4ccccc4C3)n1)C2 (chirality)
c1ccc2c(c1)CCN(c1nc([C@H]3CCCNC3)nc(N3CCc4ccccc4C3)n1)C2 (3D coordinates assigned)
c1ccc2c(c1)CCN(c1nc([C@H]3CCCNC3)nc(N3CCc4ccccc4C3)n1)C2 (nonaromatic ring conformer: 77.27381382131934 kcal/mol)

>  <smiles>  (57) 
c1ccc2c(c1)CCN(c1nc(C3CCCNC3)nc(N3CCc4ccccc4C3)n1)C2

>  <score_type>  (57) 
oracle

>  <origin>  (57) 
autodockgpu

>  <m_score__min__energy>  (57) 
-8.9299999999999997

>  <m_primary>  (57) 
energy

>  <meeko>  (57) 
{"free_energy": -8.84, "intermolecular_energy": -9.73, "internal_energy": -0.9, "cluster_size": 19, "cluster_id": 1, "rank_in_cluster": 17}

>  <energy>  (57) 
-8.84

>  <cluster_rmsd>  (57) 
1.58

>  <rmsd>  (57) 
271.32

>  <cluster>  (57) 
1

$$$$
ZPZIUNMFLXMAPV-NRFANRHFNA-N
     RDKit          3D

 62 67  0  0  0  0  0  0  0  0999 V2000
  139.3500   69.2290  227.8010 C   0  0  0  0  0  0  0  0  0  0  0  0
  140.5110   69.9690  228.0290 C   0  0  0  0  0  0  0  0  0  0  0  0
  141.0650   70.7370  227.0020 C   0  0  0  0  0  0  0  0  0  0  0  0
  140.4640   70.7650  225.7320 C   0  0  0  0  0  0  0  0  0  0  0  0
  139.2920   70.0120  225.5030 C   0  0  0  0  0  0  0  0  0  0  0  0
  138.7380   69.2550  226.5460 C   0  0  0  0  0  0  0  0  0  0  0  0
  138.6050   70.0640  224.1690 C   0  0  0  0  0  0  0  0  0  0  0  0
  139.6270   70.2700  223.0550 C   0  0  0  0  0  0  0  0  0  0  0  0
  140.4410   71.4640  223.3330 N   0  0  0  0  0  0  0  0  0  0  0  0
  140.7860   72.3790  222.2710 C   0  0  0  0  0  0  0  0  0  0  0  0
  141.5130   71.9490  221.2060 N   0  0  0  0  0  0  0  0  0  0  0  0
  141.8590   72.8100  220.2140 C   0  0  0  0  0  0  0  0  0  0  0  0
  142.6630   72.3230  219.0370 C   0  0  1  0  0  0  0  0  0  0  0  0
  143.3350   73.5170  218.3230 C   0  0  0  0  0  0  0  0  0  0  0  0
  144.5430   73.0560  217.4980 C   0  0  0  0  0  0  0  0  0  0  0  0
  145.5760   72.3040  218.3680 C   0  0  0  0  0  0  0  0  0  0  0  0
  145.0200   71.8560  219.6570 N   0  0  0  0  0  0  0  0  0  0  0  0
  143.6950   71.2500  219.4680 C   0  0  0  0  0  0  0  0  0  0  0  0
  141.4650   74.1080  220.2830 N   0  0  0  0  0  0  0  0  0  0  0  0
  140.7430   74.5550  221.3430 C   0  0  0  0  0  0  0  0  0  0  0  0
  140.3650   75.9440  221.4330 N   0  0  0  0  0  0  0  0  0  0  0  0
  139.9130   76.6940  220.2580 C   0  0  0  0  0  0  0  0  0  0  0  0
  140.9220   77.8000  219.9570 C   0  0  0  0  0  0  0  0  0  0  0  0
  141.2580   78.5930  221.1980 C   0  0  0  0  0  0  0  0  0  0  0  0
  141.8280   79.8680  221.0600 C   0  0  0  0  0  0  0  0  0  0  0  0
  142.1930   80.6060  222.1880 C   0  0  0  0  0  0  0  0  0  0  0  0
  142.0030   80.0750  223.4640 C   0  0  0  0  0  0  0  0  0  0  0  0
  141.4510   78.8010  223.6180 C   0  0  0  0  0  0  0  0  0  0  0  0
  141.0880   78.0430  222.4930 C   0  0  0  0  0  0  0  0  0  0  0  0
  140.4610   76.6820  222.6990 C   0  0  0  0  0  0  0  0  0  0  0  0
  140.4080   73.6840  222.3310 N   0  0  0  0  0  0  0  0  0  0  0  0
  141.0730   71.6330  224.6530 C   0  0  0  0  0  0  0  0  0  0  0  0
  138.9163   68.6243  228.6111 H   0  0  0  0  0  0  0  0  0  0  0  0
  140.9905   69.9475  229.0187 H   0  0  0  0  0  0  0  0  0  0  0  0
  141.9769   71.3232  227.1885 H   0  0  0  0  0  0  0  0  0  0  0  0
  137.8168   68.6789  226.3745 H   0  0  0  0  0  0  0  0  0  0  0  0
  138.0692   69.1184  223.9996 H   0  0  0  0  0  0  0  0  0  0  0  0
  137.8959   70.9049  224.1642 H   0  0  0  0  0  0  0  0  0  0  0  0
  140.2822   69.3885  222.9942 H   0  0  0  0  0  0  0  0  0  0  0  0
  139.0978   70.4081  222.1006 H   0  0  0  0  0  0  0  0  0  0  0  0
  141.9830   71.8388  218.3207 H   0  0  0  0  0  0  0  0  0  0  0  0
  142.6036   73.9939  217.6540 H   0  0  0  0  0  0  0  0  0  0  0  0
  143.6830   74.2299  219.0850 H   0  0  0  0  0  0  0  0  0  0  0  0
  144.1940   72.3852  216.6991 H   0  0  0  0  0  0  0  0  0  0  0  0
  145.0321   73.9475  217.0785 H   0  0  0  0  0  0  0  0  0  0  0  0
  145.9283   71.4226  217.8120 H   0  0  0  0  0  0  0  0  0  0  0  0
  146.3961   73.0037  218.5868 H   0  0  0  0  0  0  0  0  0  0  0  0
  145.6590   71.1200  220.0420 H   0  0  0  0  0  0  0  0  0  0  0  0
  143.7589   70.4759  218.6891 H   0  0  0  0  0  0  0  0  0  0  0  0
  143.3687   70.8050  220.4196 H   0  0  0  0  0  0  0  0  0  0  0  0
  139.8390   76.0170  219.3942 H   0  0  0  0  0  0  0  0  0  0  0  0
  138.9251   77.1354  220.4558 H   0  0  0  0  0  0  0  0  0  0  0  0
  141.8430   77.3463  219.5621 H   0  0  0  0  0  0  0  0  0  0  0  0
  140.4761   78.4838  219.2197 H   0  0  0  0  0  0  0  0  0  0  0  0
  141.9884   80.2889  220.0565 H   0  0  0  0  0  0  0  0  0  0  0  0
  142.6312   81.6081  222.0702 H   0  0  0  0  0  0  0  0  0  0  0  0
  142.2884   80.6605  224.3504 H   0  0  0  0  0  0  0  0  0  0  0  0
  141.2998   78.3891  224.6267 H   0  0  0  0  0  0  0  0  0  0  0  0
  141.0780   76.1058  223.4042 H   0  0  0  0  0  0  0  0  0  0  0  0
  139.4455   76.8232  223.0976 H   0  0  0  0  0  0  0  0  0  0  0  0
  142.1394   71.3789  224.5630 H   0  0  0  0  0  0  0  0  0  0  0  0
  140.9160   72.6793  224.9540 H   0  0  0  0  0  0  0  0  0  0  0  0
  1  2  2  0
  2  3  1  0
  3  4  2  0
  4  5  1  0
  5  6  2  0
  5  7  1  0
  7  8  1  0
  8  9  1  0
  9 10  1  0
 10 11  2  0
 11 12  1  0
 12 13  1  0
 13 14  1  0
 14 15  1  0
 15 16  1  0
 16 17  1  0
 17 18  1  0
 12 19  2  0
 19 20  1  0
 20 21  1  0
 21 22  1  0
 22 23  1  0
 23 24  1  0
 24 25  2  0
 25 26  1  0
 26 27  2  0
 27 28  1  0
 28 29  2  0
 29 30  1  0
 20 31  2  0
  9 32  1  0
  6  1  1  0
 31 10  1  0
 32  4  1  0
 18 13  1  0
 30 21  1  0
 29 24  1  0
  1 33  1  0
  2 34  1  0
  3 35  1  0
  6 36  1  0
  7 37  1  0
  7 38  1  0
  8 39  1  0
  8 40  1  0
 13 41  1  6
 14 42  1  0
 14 43  1  0
 15 44  1  0
 15 45  1  0
 16 46  1  0
 16 47  1  0
 17 48  1  0
 18 49  1  0
 18 50  1  0
 22 51  1  0
 22 52  1  0
 23 53  1  0
 23 54  1  0
 25 55  1  0
 26 56  1  0
 27 57  1  0
 28 58  1  0
 30 59  1  0
 30 60  1  0
 32 61  1  0
 32 62  1  0
M  END
>  <UniqueID>  (58) 
678

>  <SMILES>  (58) 
c1ccc2c(c1)CCN(c1nc([C@H]3CCCNC3)nc(N3CCc4ccccc4C3)n1)C2

>  <Energy>  (58) 
77.27381382131934

>  <Genealogy>  (58) 
c1ccc2c(c1)CCN(c1nc([C@H]3CCCNC3)nc(N3CCc4ccccc4C3)n1)C2 (chirality)
c1ccc2c(c1)CCN(c1nc([C@H]3CCCNC3)nc(N3CCc4ccccc4C3)n1)C2 (3D coordinates assigned)
c1ccc2c(c1)CCN(c1nc([C@H]3CCCNC3)nc(N3CCc4ccccc4C3)n1)C2 (nonaromatic ring conformer: 77.27381382131934 kcal/mol)

>  <smiles>  (58) 
c1ccc2c(c1)CCN(c1nc(C3CCCNC3)nc(N3CCc4ccccc4C3)n1)C2

>  <score_type>  (58) 
oracle

>  <origin>  (58) 
autodockgpu

>  <m_score__min__energy>  (58) 
-8.9299999999999997

>  <m_primary>  (58) 
energy

>  <meeko>  (58) 
{"free_energy": -8.88, "intermolecular_energy": -9.77, "internal_energy": -0.9, "cluster_size": 19, "cluster_id": 1, "rank_in_cluster": 12}

>  <energy>  (58) 
-8.8

>  <cluster_rmsd>  (58) 
1.4

>  <rmsd>  (58) 
271.24

>  <cluster>  (58) 
1

$$$$
ZPZIUNMFLXMAPV-NRFANRHFNA-N
     RDKit          3D

 62 67  0  0  0  0  0  0  0  0999 V2000
  139.2150   69.1950  227.5670 C   0  0  0  0  0  0  0  0  0  0  0  0
  140.4020   69.8770  227.8360 C   0  0  0  0  0  0  0  0  0  0  0  0
  141.0020   70.6560  226.8430 C   0  0  0  0  0  0  0  0  0  0  0  0
  140.4210   70.7530  225.5680 C   0  0  0  0  0  0  0  0  0  0  0  0
  139.2220   70.0590  225.2970 C   0  0  0  0  0  0  0  0  0  0  0  0
  138.6220   69.2900  226.3060 C   0  0  0  0  0  0  0  0  0  0  0  0
  138.5570   70.1860  223.9570 C   0  0  0  0  0  0  0  0  0  0  0  0
  139.6030   70.3870  222.8640 C   0  0  0  0  0  0  0  0  0  0  0  0
  140.4620   71.5350  223.1940 N   0  0  0  0  0  0  0  0  0  0  0  0
  140.8600   72.4710  222.1700 C   0  0  0  0  0  0  0  0  0  0  0  0
  141.6160   72.0560  221.1200 N   0  0  0  0  0  0  0  0  0  0  0  0
  142.0120   72.9350  220.1640 C   0  0  0  0  0  0  0  0  0  0  0  0
  142.8480   72.4640  219.0030 C   0  0  1  0  0  0  0  0  0  0  0  0
  142.3620   73.1290  217.6950 C   0  0  0  0  0  0  0  0  0  0  0  0
  143.4640   73.1140  216.6290 C   0  0  0  0  0  0  0  0  0  0  0  0
  144.7540   73.8030  217.1300 C   0  0  0  0  0  0  0  0  0  0  0  0
  144.7880   73.9570  218.5950 N   0  0  0  0  0  0  0  0  0  0  0  0
  144.3560   72.7190  219.2570 C   0  0  0  0  0  0  0  0  0  0  0  0
  141.6390   74.2380  220.2540 N   0  0  0  0  0  0  0  0  0  0  0  0
  140.8880   74.6710  221.3000 C   0  0  0  0  0  0  0  0  0  0  0  0
  140.5320   76.0630  221.4130 N   0  0  0  0  0  0  0  0  0  0  0  0
  140.2140   76.8740  220.2340 C   0  0  0  0  0  0  0  0  0  0  0  0
  141.2710   77.9660  220.0840 C   0  0  0  0  0  0  0  0  0  0  0  0
  141.4990   78.6970  221.3860 C   0  0  0  0  0  0  0  0  0  0  0  0
  142.1060   79.9620  221.3610 C   0  0  0  0  0  0  0  0  0  0  0  0
  142.3720   80.6430  222.5510 C   0  0  0  0  0  0  0  0  0  0  0  0
  142.0440   80.0630  223.7780 C   0  0  0  0  0  0  0  0  0  0  0  0
  141.4540   78.7980  223.8190 C   0  0  0  0  0  0  0  0  0  0  0  0
  141.1890   78.0980  222.6320 C   0  0  0  0  0  0  0  0  0  0  0  0
  140.5170   76.7450  222.7150 C   0  0  0  0  0  0  0  0  0  0  0  0
  140.5030   73.7800  222.2520 N   0  0  0  0  0  0  0  0  0  0  0  0
  141.0820   71.6320  224.5280 C   0  0  0  0  0  0  0  0  0  0  0  0
  138.7452   68.5812  228.3496 H   0  0  0  0  0  0  0  0  0  0  0  0
  140.8660   69.8015  228.8305 H   0  0  0  0  0  0  0  0  0  0  0  0
  141.9349   71.1964  227.0613 H   0  0  0  0  0  0  0  0  0  0  0  0
  137.6801   68.7595  226.1028 H   0  0  0  0  0  0  0  0  0  0  0  0
  137.9846   69.2703  223.7476 H   0  0  0  0  0  0  0  0  0  0  0  0
  137.8837   71.0557  223.9725 H   0  0  0  0  0  0  0  0  0  0  0  0
  140.2216   69.4812  222.7809 H   0  0  0  0  0  0  0  0  0  0  0  0
  139.0938   70.5802  221.9083 H   0  0  0  0  0  0  0  0  0  0  0  0
  142.7243   71.3761  218.8970 H   0  0  0  0  0  0  0  0  0  0  0  0
  141.4872   72.5803  217.3159 H   0  0  0  0  0  0  0  0  0  0  0  0
  142.0971   74.1746  217.9107 H   0  0  0  0  0  0  0  0  0  0  0  0
  143.6950   72.0702  216.3698 H   0  0  0  0  0  0  0  0  0  0  0  0
  143.0990   73.6668  215.7509 H   0  0  0  0  0  0  0  0  0  0  0  0
  145.6186   73.1976  216.8203 H   0  0  0  0  0  0  0  0  0  0  0  0
  144.7827   74.8110  216.6906 H   0  0  0  0  0  0  0  0  0  0  0  0
  145.7800   74.1420  218.8730 H   0  0  0  0  0  0  0  0  0  0  0  0
  144.9378   71.8742  218.8596 H   0  0  0  0  0  0  0  0  0  0  0  0
  144.5221   72.8185  220.3398 H   0  0  0  0  0  0  0  0  0  0  0  0
  140.2118   76.2368  219.3374 H   0  0  0  0  0  0  0  0  0  0  0  0
  139.2207   77.3312  220.3534 H   0  0  0  0  0  0  0  0  0  0  0  0
  142.2169   77.5063  219.7616 H   0  0  0  0  0  0  0  0  0  0  0  0
  140.9146   78.6917  219.3381 H   0  0  0  0  0  0  0  0  0  0  0  0
  142.3741   80.4203  220.3976 H   0  0  0  0  0  0  0  0  0  0  0  0
  142.8406   81.6378  222.5215 H   0  0  0  0  0  0  0  0  0  0  0  0
  142.2507   80.6033  224.7136 H   0  0  0  0  0  0  0  0  0  0  0  0
  141.1952   78.3471  224.7884 H   0  0  0  0  0  0  0  0  0  0  0  0
  141.0493   76.1246  223.4511 H   0  0  0  0  0  0  0  0  0  0  0  0
  139.4701   76.8942  223.0179 H   0  0  0  0  0  0  0  0  0  0  0  0
  142.1381   71.3364  224.4431 H   0  0  0  0  0  0  0  0  0  0  0  0
  140.9650   72.6730  224.8635 H   0  0  0  0  0  0  0  0  0  0  0  0
  1  2  2  0
  2  3  1  0
  3  4  2  0
  4  5  1  0
  5  6  2  0
  5  7  1  0
  7  8  1  0
  8  9  1  0
  9 10  1  0
 10 11  2  0
 11 12  1  0
 12 13  1  0
 13 14  1  0
 14 15  1  0
 15 16  1  0
 16 17  1  0
 17 18  1  0
 12 19  2  0
 19 20  1  0
 20 21  1  0
 21 22  1  0
 22 23  1  0
 23 24  1  0
 24 25  2  0
 25 26  1  0
 26 27  2  0
 27 28  1  0
 28 29  2  0
 29 30  1  0
 20 31  2  0
  9 32  1  0
  6  1  1  0
 31 10  1  0
 32  4  1  0
 18 13  1  0
 30 21  1  0
 29 24  1  0
  1 33  1  0
  2 34  1  0
  3 35  1  0
  6 36  1  0
  7 37  1  0
  7 38  1  0
  8 39  1  0
  8 40  1  0
 13 41  1  6
 14 42  1  0
 14 43  1  0
 15 44  1  0
 15 45  1  0
 16 46  1  0
 16 47  1  0
 17 48  1  0
 18 49  1  0
 18 50  1  0
 22 51  1  0
 22 52  1  0
 23 53  1  0
 23 54  1  0
 25 55  1  0
 26 56  1  0
 27 57  1  0
 28 58  1  0
 30 59  1  0
 30 60  1  0
 32 61  1  0
 32 62  1  0
M  END
>  <UniqueID>  (59) 
678

>  <SMILES>  (59) 
c1ccc2c(c1)CCN(c1nc([C@H]3CCCNC3)nc(N3CCc4ccccc4C3)n1)C2

>  <Energy>  (59) 
77.27381382131934

>  <Genealogy>  (59) 
c1ccc2c(c1)CCN(c1nc([C@H]3CCCNC3)nc(N3CCc4ccccc4C3)n1)C2 (chirality)
c1ccc2c(c1)CCN(c1nc([C@H]3CCCNC3)nc(N3CCc4ccccc4C3)n1)C2 (3D coordinates assigned)
c1ccc2c(c1)CCN(c1nc([C@H]3CCCNC3)nc(N3CCc4ccccc4C3)n1)C2 (nonaromatic ring conformer: 77.27381382131934 kcal/mol)

>  <smiles>  (59) 
c1ccc2c(c1)CCN(c1nc(C3CCCNC3)nc(N3CCc4ccccc4C3)n1)C2

>  <score_type>  (59) 
oracle

>  <origin>  (59) 
autodockgpu

>  <m_score__min__energy>  (59) 
-8.9299999999999997

>  <m_primary>  (59) 
energy

>  <meeko>  (59) 
{"free_energy": -8.84, "intermolecular_energy": -9.74, "internal_energy": -0.9, "cluster_size": 19, "cluster_id": 1, "rank_in_cluster": 16}

>  <energy>  (59) 
-8.76

>  <cluster_rmsd>  (59) 
1.41

>  <rmsd>  (59) 
271.54

>  <cluster>  (59) 
1

$$$$
ZPZIUNMFLXMAPV-NRFANRHFNA-N
     RDKit          3D

 62 67  0  0  0  0  0  0  0  0999 V2000
  139.3080   69.4230  227.9010 C   0  0  0  0  0  0  0  0  0  0  0  0
  140.3180   70.3430  228.1810 C   0  0  0  0  0  0  0  0  0  0  0  0
  140.8590   71.1220  227.1560 C   0  0  0  0  0  0  0  0  0  0  0  0
  140.3980   70.9800  225.8360 C   0  0  0  0  0  0  0  0  0  0  0  0
  139.3790   70.0440  225.5550 C   0  0  0  0  0  0  0  0  0  0  0  0
  138.8340   69.2770  226.5950 C   0  0  0  0  0  0  0  0  0  0  0  0
  138.8370   69.9090  224.1610 C   0  0  0  0  0  0  0  0  0  0  0  0
  139.9300   70.1990  223.1370 C   0  0  0  0  0  0  0  0  0  0  0  0
  140.5270   71.5180  223.3990 N   0  0  0  0  0  0  0  0  0  0  0  0
  140.8450   72.4080  222.3080 C   0  0  0  0  0  0  0  0  0  0  0  0
  141.5520   71.9550  221.2390 N   0  0  0  0  0  0  0  0  0  0  0  0
  141.8730   72.7920  220.2190 C   0  0  0  0  0  0  0  0  0  0  0  0
  142.6540   72.2800  219.0380 C   0  0  1  0  0  0  0  0  0  0  0  0
  143.2670   73.4620  218.2520 C   0  0  0  0  0  0  0  0  0  0  0  0
  144.4610   73.0020  217.4090 C   0  0  0  0  0  0  0  0  0  0  0  0
  145.5440   72.3190  218.2760 C   0  0  0  0  0  0  0  0  0  0  0  0
  145.0430   71.9090  219.5990 N   0  0  0  0  0  0  0  0  0  0  0  0
  143.7330   71.2570  219.4790 C   0  0  0  0  0  0  0  0  0  0  0  0
  141.4750   74.0900  220.2640 N   0  0  0  0  0  0  0  0  0  0  0  0
  140.7730   74.5600  221.3280 C   0  0  0  0  0  0  0  0  0  0  0  0
  140.3900   75.9490  221.3910 N   0  0  0  0  0  0  0  0  0  0  0  0
  140.0040   76.6950  220.1900 C   0  0  0  0  0  0  0  0  0  0  0  0
  141.0290   77.8000  219.9420 C   0  0  0  0  0  0  0  0  0  0  0  0
  141.2950   78.5970  221.1970 C   0  0  0  0  0  0  0  0  0  0  0  0
  141.8710   79.8730  221.0860 C   0  0  0  0  0  0  0  0  0  0  0  0
  142.1720   80.6150  222.2300 C   0  0  0  0  0  0  0  0  0  0  0  0
  141.9100   80.0880  223.4960 C   0  0  0  0  0  0  0  0  0  0  0  0
  141.3510   78.8150  223.6230 C   0  0  0  0  0  0  0  0  0  0  0  0
  141.0520   78.0530  222.4830 C   0  0  0  0  0  0  0  0  0  0  0  0
  140.4150   76.6920  222.6580 C   0  0  0  0  0  0  0  0  0  0  0  0
  140.4620   73.7120  222.3440 N   0  0  0  0  0  0  0  0  0  0  0  0
  140.9850   71.8630  224.7570 C   0  0  0  0  0  0  0  0  0  0  0  0
  138.8836   68.8108  228.7104 H   0  0  0  0  0  0  0  0  0  0  0  0
  140.6889   70.4552  229.2105 H   0  0  0  0  0  0  0  0  0  0  0  0
  141.6507   71.8511  227.3832 H   0  0  0  0  0  0  0  0  0  0  0  0
  138.0299   68.5574  226.3815 H   0  0  0  0  0  0  0  0  0  0  0  0
  138.4649   68.8843  224.0141 H   0  0  0  0  0  0  0  0  0  0  0  0
  138.0183   70.6308  224.0242 H   0  0  0  0  0  0  0  0  0  0  0  0
  140.7093   69.4259  223.2070 H   0  0  0  0  0  0  0  0  0  0  0  0
  139.4906   70.1951  222.1286 H   0  0  0  0  0  0  0  0  0  0  0  0
  141.9661   71.7463  218.3657 H   0  0  0  0  0  0  0  0  0  0  0  0
  142.5007   73.8879  217.5877 H   0  0  0  0  0  0  0  0  0  0  0  0
  143.6168   74.2169  218.9716 H   0  0  0  0  0  0  0  0  0  0  0  0
  144.1080   72.2872  216.6511 H   0  0  0  0  0  0  0  0  0  0  0  0
  144.9089   73.8886  216.9364 H   0  0  0  0  0  0  0  0  0  0  0  0
  145.9069   71.4262  217.7457 H   0  0  0  0  0  0  0  0  0  0  0  0
  146.3476   73.0522  218.4394 H   0  0  0  0  0  0  0  0  0  0  0  0
  145.7170   71.2110  219.9930 H   0  0  0  0  0  0  0  0  0  0  0  0
  143.7963   70.4529  218.7311 H   0  0  0  0  0  0  0  0  0  0  0  0
  143.4510   70.8434  220.4585 H   0  0  0  0  0  0  0  0  0  0  0  0
  139.9779   76.0151  219.3257 H   0  0  0  0  0  0  0  0  0  0  0  0
  139.0067   77.1371  220.3309 H   0  0  0  0  0  0  0  0  0  0  0  0
  141.9705   77.3448  219.6009 H   0  0  0  0  0  0  0  0  0  0  0  0
  140.6256   78.4813  219.1784 H   0  0  0  0  0  0  0  0  0  0  0  0
  142.0865   80.2906  220.0914 H   0  0  0  0  0  0  0  0  0  0  0  0
  142.6164   81.6166  222.1335 H   0  0  0  0  0  0  0  0  0  0  0  0
  142.1444   80.6768  224.3951 H   0  0  0  0  0  0  0  0  0  0  0  0
  141.1436   78.4066  224.6231 H   0  0  0  0  0  0  0  0  0  0  0  0
  140.9919   76.1186  223.3986 H   0  0  0  0  0  0  0  0  0  0  0  0
  139.3787   76.8342  222.9983 H   0  0  0  0  0  0  0  0  0  0  0  0
  142.0806   71.7696  224.7889 H   0  0  0  0  0  0  0  0  0  0  0  0
  140.6469   72.8898  224.9607 H   0  0  0  0  0  0  0  0  0  0  0  0
  1  2  2  0
  2  3  1  0
  3  4  2  0
  4  5  1  0
  5  6  2  0
  5  7  1  0
  7  8  1  0
  8  9  1  0
  9 10  1  0
 10 11  2  0
 11 12  1  0
 12 13  1  0
 13 14  1  0
 14 15  1  0
 15 16  1  0
 16 17  1  0
 17 18  1  0
 12 19  2  0
 19 20  1  0
 20 21  1  0
 21 22  1  0
 22 23  1  0
 23 24  1  0
 24 25  2  0
 25 26  1  0
 26 27  2  0
 27 28  1  0
 28 29  2  0
 29 30  1  0
 20 31  2  0
  9 32  1  0
  6  1  1  0
 31 10  1  0
 32  4  1  0
 18 13  1  0
 30 21  1  0
 29 24  1  0
  1 33  1  0
  2 34  1  0
  3 35  1  0
  6 36  1  0
  7 37  1  0
  7 38  1  0
  8 39  1  0
  8 40  1  0
 13 41  1  6
 14 42  1  0
 14 43  1  0
 15 44  1  0
 15 45  1  0
 16 46  1  0
 16 47  1  0
 17 48  1  0
 18 49  1  0
 18 50  1  0
 22 51  1  0
 22 52  1  0
 23 53  1  0
 23 54  1  0
 25 55  1  0
 26 56  1  0
 27 57  1  0
 28 58  1  0
 30 59  1  0
 30 60  1  0
 32 61  1  0
 32 62  1  0
M  END
>  <UniqueID>  (60) 
678

>  <SMILES>  (60) 
c1ccc2c(c1)CCN(c1nc([C@H]3CCCNC3)nc(N3CCc4ccccc4C3)n1)C2

>  <Energy>  (60) 
77.27381382131934

>  <Genealogy>  (60) 
c1ccc2c(c1)CCN(c1nc([C@H]3CCCNC3)nc(N3CCc4ccccc4C3)n1)C2 (chirality)
c1ccc2c(c1)CCN(c1nc([C@H]3CCCNC3)nc(N3CCc4ccccc4C3)n1)C2 (3D coordinates assigned)
c1ccc2c(c1)CCN(c1nc([C@H]3CCCNC3)nc(N3CCc4ccccc4C3)n1)C2 (nonaromatic ring conformer: 77.27381382131934 kcal/mol)

>  <smiles>  (60) 
c1ccc2c(c1)CCN(c1nc(C3CCCNC3)nc(N3CCc4ccccc4C3)n1)C2

>  <score_type>  (60) 
oracle

>  <origin>  (60) 
autodockgpu

>  <m_score__min__energy>  (60) 
-8.9299999999999997

>  <m_primary>  (60) 
energy

>  <meeko>  (60) 
{"free_energy": -8.76, "intermolecular_energy": -9.66, "internal_energy": -0.9, "cluster_size": 19, "cluster_id": 1, "rank_in_cluster": 19}

>  <energy>  (60) 
-8.56

>  <cluster_rmsd>  (60) 
0.0

>  <rmsd>  (60) 
270.71

>  <cluster>  (60) 
2

$$$$
ZPZIUNMFLXMAPV-OAQYLSRUNA-N
     RDKit          3D

 62 67  0  0  0  0  0  0  0  0999 V2000
  139.1920   68.0430  226.5330 C   0  0  0  0  0  0  0  0  0  0  0  0
  140.0580   68.9410  227.1570 C   0  0  0  0  0  0  0  0  0  0  0  0
  140.6490   69.9720  226.4220 C   0  0  0  0  0  0  0  0  0  0  0  0
  140.3640   70.1220  225.0550 C   0  0  0  0  0  0  0  0  0  0  0  0
  139.4850   69.2190  224.4280 C   0  0  0  0  0  0  0  0  0  0  0  0
  138.9090   68.1750  225.1700 C   0  0  0  0  0  0  0  0  0  0  0  0
  139.2110   69.3460  222.9600 C   0  0  0  0  0  0  0  0  0  0  0  0
  139.1750   70.8180  222.5600 C   0  0  0  0  0  0  0  0  0  0  0  0
  140.4110   71.5040  222.9720 N   0  0  0  0  0  0  0  0  0  0  0  0
  140.9240   72.5970  222.1810 C   0  0  0  0  0  0  0  0  0  0  0  0
  141.9030   72.3780  221.2660 N   0  0  0  0  0  0  0  0  0  0  0  0
  142.3980   73.4040  220.5260 C   0  0  0  0  0  0  0  0  0  0  0  0
  143.4650   73.1540  219.4940 C   0  0  2  0  0  0  0  0  0  0  0  0
  143.2530   71.7890  218.8040 C   0  0  0  0  0  0  0  0  0  0  0  0
  144.5600   71.2060  218.2370 C   0  0  0  0  0  0  0  0  0  0  0  0
  145.5680   72.3140  217.9090 C   0  0  0  0  0  0  0  0  0  0  0  0
  145.9460   73.0930  219.1040 N   0  0  0  0  0  0  0  0  0  0  0  0
  144.8750   73.2390  220.1130 C   0  0  0  0  0  0  0  0  0  0  0  0
  141.8950   74.6540  220.6920 N   0  0  0  0  0  0  0  0  0  0  0  0
  140.9150   74.8890  221.6030 C   0  0  0  0  0  0  0  0  0  0  0  0
  140.3880   76.2190  221.7890 N   0  0  0  0  0  0  0  0  0  0  0  0
  139.2810   76.6950  220.9430 C   0  0  0  0  0  0  0  0  0  0  0  0
  138.3920   77.6690  221.7110 C   0  0  0  0  0  0  0  0  0  0  0  0
  139.2180   78.7880  222.2690 C   0  0  0  0  0  0  0  0  0  0  0  0
  138.6900   80.0860  222.3610 C   0  0  0  0  0  0  0  0  0  0  0  0
  139.4550   81.1180  222.9080 C   0  0  0  0  0  0  0  0  0  0  0  0
  140.7440   80.8610  223.3790 C   0  0  0  0  0  0  0  0  0  0  0  0
  141.2710   79.5690  223.3060 C   0  0  0  0  0  0  0  0  0  0  0  0
  140.5170   78.5260  222.7450 C   0  0  0  0  0  0  0  0  0  0  0  0
  141.0890   77.1270  222.7170 C   0  0  0  0  0  0  0  0  0  0  0  0
  140.4370   73.8550  222.3450 N   0  0  0  0  0  0  0  0  0  0  0  0
  141.0550   71.2100  224.2670 C   0  0  0  0  0  0  0  0  0  0  0  0
  138.7313   67.2303  227.1137 H   0  0  0  0  0  0  0  0  0  0  0  0
  140.2762   68.8373  228.2301 H   0  0  0  0  0  0  0  0  0  0  0  0
  141.3409   70.6696  226.9165 H   0  0  0  0  0  0  0  0  0  0  0  0
  138.2337   67.4596  224.6779 H   0  0  0  0  0  0  0  0  0  0  0  0
  140.0050   68.8348  222.3959 H   0  0  0  0  0  0  0  0  0  0  0  0
  138.2372   68.8870  222.7340 H   0  0  0  0  0  0  0  0  0  0  0  0
  139.0688   70.8920  221.4676 H   0  0  0  0  0  0  0  0  0  0  0  0
  138.3221   71.2982  223.0619 H   0  0  0  0  0  0  0  0  0  0  0  0
  143.3839   73.9431  218.7320 H   0  0  0  0  0  0  0  0  0  0  0  0
  142.8412   71.0821  219.5394 H   0  0  0  0  0  0  0  0  0  0  0  0
  142.5629   71.9439  217.9615 H   0  0  0  0  0  0  0  0  0  0  0  0
  145.0025   70.5279  218.9815 H   0  0  0  0  0  0  0  0  0  0  0  0
  144.3248   70.6646  217.3088 H   0  0  0  0  0  0  0  0  0  0  0  0
  146.4730   71.8555  217.4837 H   0  0  0  0  0  0  0  0  0  0  0  0
  145.0942   73.0014  217.1928 H   0  0  0  0  0  0  0  0  0  0  0  0
  146.2410   74.0460  218.7880 H   0  0  0  0  0  0  0  0  0  0  0  0
  144.9816   72.4378  220.8591 H   0  0  0  0  0  0  0  0  0  0  0  0
  144.9799   74.2339  220.5703 H   0  0  0  0  0  0  0  0  0  0  0  0
  139.6950   77.2040  220.0601 H   0  0  0  0  0  0  0  0  0  0  0  0
  138.6742   75.8301  220.6369 H   0  0  0  0  0  0  0  0  0  0  0  0
  137.6319   78.0815  221.0313 H   0  0  0  0  0  0  0  0  0  0  0  0
  137.9027   77.1346  222.5387 H   0  0  0  0  0  0  0  0  0  0  0  0
  137.6708   80.2903  222.0011 H   0  0  0  0  0  0  0  0  0  0  0  0
  139.0414   82.1355  222.9680 H   0  0  0  0  0  0  0  0  0  0  0  0
  141.3451   81.6763  223.8079 H   0  0  0  0  0  0  0  0  0  0  0  0
  142.2820   79.3680  223.6901 H   0  0  0  0  0  0  0  0  0  0  0  0
  142.1440   77.1890  222.4118 H   0  0  0  0  0  0  0  0  0  0  0  0
  140.9688   76.7098  223.7277 H   0  0  0  0  0  0  0  0  0  0  0  0
  142.0917   70.8956  224.0760 H   0  0  0  0  0  0  0  0  0  0  0  0
  140.9996   72.1285  224.8698 H   0  0  0  0  0  0  0  0  0  0  0  0
  1  2  2  0
  2  3  1  0
  3  4  2  0
  4  5  1  0
  5  6  2  0
  5  7  1  0
  7  8  1  0
  8  9  1  0
  9 10  1  0
 10 11  2  0
 11 12  1  0
 12 13  1  0
 13 14  1  0
 14 15  1  0
 15 16  1  0
 16 17  1  0
 17 18  1  0
 12 19  2  0
 19 20  1  0
 20 21  1  0
 21 22  1  0
 22 23  1  0
 23 24  1  0
 24 25  2  0
 25 26  1  0
 26 27  2  0
 27 28  1  0
 28 29  2  0
 29 30  1  0
 20 31  2  0
  9 32  1  0
  6  1  1  0
 31 10  1  0
 32  4  1  0
 18 13  1  0
 30 21  1  0
 29 24  1  0
  1 33  1  0
  2 34  1  0
  3 35  1  0
  6 36  1  0
  7 37  1  0
  7 38  1  0
  8 39  1  0
  8 40  1  0
 13 41  1  6
 14 42  1  0
 14 43  1  0
 15 44  1  0
 15 45  1  0
 16 46  1  0
 16 47  1  0
 17 48  1  0
 18 49  1  0
 18 50  1  0
 22 51  1  0
 22 52  1  0
 23 53  1  0
 23 54  1  0
 25 55  1  0
 26 56  1  0
 27 57  1  0
 28 58  1  0
 30 59  1  0
 30 60  1  0
 32 61  1  0
 32 62  1  0
M  END
>  <UniqueID>  (61) 
679

>  <SMILES>  (61) 
c1ccc2c(c1)CCN(c1nc([C@@H]3CCCNC3)nc(N3CCc4ccccc4C3)n1)C2

>  <Energy>  (61) 
77.55306268174873

>  <Genealogy>  (61) 
c1ccc2c(c1)CCN(c1nc([C@@H]3CCCNC3)nc(N3CCc4ccccc4C3)n1)C2 (chirality)
c1ccc2c(c1)CCN(c1nc([C@@H]3CCCNC3)nc(N3CCc4ccccc4C3)n1)C2 (3D coordinates assigned)
c1ccc2c(c1)CCN(c1nc([C@@H]3CCCNC3)nc(N3CCc4ccccc4C3)n1)C2 (nonaromatic ring conformer: 77.55306268174873 kcal/mol)

>  <smiles>  (61) 
c1ccc2c(c1)CCN(c1nc(C3CCCNC3)nc(N3CCc4ccccc4C3)n1)C2

>  <score_type>  (61) 
oracle

>  <origin>  (61) 
autodockgpu

>  <m_score__min__energy>  (61) 
-9.6400000000000006

>  <m_primary>  (61) 
energy

>  <meeko>  (61) 
{"free_energy": -9.63, "intermolecular_energy": -10.52, "internal_energy": -0.78, "cluster_size": 20, "cluster_id": 1, "rank_in_cluster": 4}

>  <energy>  (61) 
-9.64

>  <cluster_rmsd>  (61) 
0.0

>  <rmsd>  (61) 
272.06

>  <cluster>  (61) 
1

$$$$
ZPZIUNMFLXMAPV-OAQYLSRUNA-N
     RDKit          3D

 62 67  0  0  0  0  0  0  0  0999 V2000
  139.5630   81.1180  222.8390 C   0  0  0  0  0  0  0  0  0  0  0  0
  140.7850   80.8070  223.4380 C   0  0  0  0  0  0  0  0  0  0  0  0
  141.2770   79.5010  223.3900 C   0  0  0  0  0  0  0  0  0  0  0  0
  140.5570   78.4950  222.7250 C   0  0  0  0  0  0  0  0  0  0  0  0
  139.3280   78.8120  222.1150 C   0  0  0  0  0  0  0  0  0  0  0  0
  138.8320   80.1240  222.1840 C   0  0  0  0  0  0  0  0  0  0  0  0
  138.5320   77.7350  221.4430 C   0  0  0  0  0  0  0  0  0  0  0  0
  139.4680   76.7430  220.7580 C   0  0  0  0  0  0  0  0  0  0  0  0
  140.4580   76.2120  221.7100 N   0  0  0  0  0  0  0  0  0  0  0  0
  140.9540   74.8670  221.5540 C   0  0  0  0  0  0  0  0  0  0  0  0
  141.8980   74.5900  220.6170 N   0  0  0  0  0  0  0  0  0  0  0  0
  142.3620   73.3240  220.4580 C   0  0  0  0  0  0  0  0  0  0  0  0
  143.4270   73.0240  219.4360 C   0  0  2  0  0  0  0  0  0  0  0  0
  143.3210   71.5640  218.9460 C   0  0  0  0  0  0  0  0  0  0  0  0
  144.6630   71.0200  218.4220 C   0  0  0  0  0  0  0  0  0  0  0  0
  145.5630   72.1530  217.9150 C   0  0  0  0  0  0  0  0  0  0  0  0
  145.8950   73.1190  218.9800 N   0  0  0  0  0  0  0  0  0  0  0  0
  144.8360   73.3130  219.9930 C   0  0  0  0  0  0  0  0  0  0  0  0
  141.8900   72.3310  221.2550 N   0  0  0  0  0  0  0  0  0  0  0  0
  140.9460   72.5910  222.1970 C   0  0  0  0  0  0  0  0  0  0  0  0
  140.4350   71.5350  223.0360 N   0  0  0  0  0  0  0  0  0  0  0  0
  139.1990   70.8300  222.6560 C   0  0  0  0  0  0  0  0  0  0  0  0
  139.2380   69.3780  223.1240 C   0  0  0  0  0  0  0  0  0  0  0  0
  139.5100   69.3210  224.5970 C   0  0  0  0  0  0  0  0  0  0  0  0
  138.9280   68.3180  225.3900 C   0  0  0  0  0  0  0  0  0  0  0  0
  139.2080   68.2520  226.7570 C   0  0  0  0  0  0  0  0  0  0  0  0
  140.0790   69.1760  227.3380 C   0  0  0  0  0  0  0  0  0  0  0  0
  140.6740   70.1670  226.5540 C   0  0  0  0  0  0  0  0  0  0  0  0
  140.3900   70.2520  225.1810 C   0  0  0  0  0  0  0  0  0  0  0  0
  141.0790   71.3030  224.3430 C   0  0  0  0  0  0  0  0  0  0  0  0
  140.4820   73.8620  222.3380 N   0  0  0  0  0  0  0  0  0  0  0  0
  141.0810   77.0780  222.7300 C   0  0  0  0  0  0  0  0  0  0  0  0
  139.1754   82.1465  222.8828 H   0  0  0  0  0  0  0  0  0  0  0  0
  141.3615   81.5923  223.9488 H   0  0  0  0  0  0  0  0  0  0  0  0
  142.2338   79.2588  223.8757 H   0  0  0  0  0  0  0  0  0  0  0  0
  137.8650   80.3697  221.7209 H   0  0  0  0  0  0  0  0  0  0  0  0
  137.9278   77.2060  222.1947 H   0  0  0  0  0  0  0  0  0  0  0  0
  137.8742   78.1905  220.6881 H   0  0  0  0  0  0  0  0  0  0  0  0
  138.8754   75.9098  220.3523 H   0  0  0  0  0  0  0  0  0  0  0  0
  140.0018   77.2639  219.9495 H   0  0  0  0  0  0  0  0  0  0  0  0
  143.2630   73.6900  218.5760 H   0  0  0  0  0  0  0  0  0  0  0  0
  142.9877   70.9339  219.7837 H   0  0  0  0  0  0  0  0  0  0  0  0
  142.6028   71.5418  218.1131 H   0  0  0  0  0  0  0  0  0  0  0  0
  145.1780   70.4907  219.2372 H   0  0  0  0  0  0  0  0  0  0  0  0
  144.4578   70.3378  217.5838 H   0  0  0  0  0  0  0  0  0  0  0  0
  146.4961   71.7180  217.5276 H   0  0  0  0  0  0  0  0  0  0  0  0
  145.0162   72.6925  217.1276 H   0  0  0  0  0  0  0  0  0  0  0  0
  146.0990   74.0400  218.5280 H   0  0  0  0  0  0  0  0  0  0  0  0
  145.0274   72.6351  220.8379 H   0  0  0  0  0  0  0  0  0  0  0  0
  144.8621   74.3670  220.3067 H   0  0  0  0  0  0  0  0  0  0  0  0
  138.3386   71.3352  223.1191 H   0  0  0  0  0  0  0  0  0  0  0  0
  139.1071   70.8450  221.5600 H   0  0  0  0  0  0  0  0  0  0  0  0
  138.2691   68.9014  222.9138 H   0  0  0  0  0  0  0  0  0  0  0  0
  140.0389   68.8474  222.5882 H   0  0  0  0  0  0  0  0  0  0  0  0
  138.2497   67.5824  224.9331 H   0  0  0  0  0  0  0  0  0  0  0  0
  138.7419   67.4715  227.3763 H   0  0  0  0  0  0  0  0  0  0  0  0
  140.2969   69.1233  228.4149 H   0  0  0  0  0  0  0  0  0  0  0  0
  141.3688   70.8849  227.0143 H   0  0  0  0  0  0  0  0  0  0  0  0
  141.0783   72.2495  224.9035 H   0  0  0  0  0  0  0  0  0  0  0  0
  142.0960   70.9365  224.1399 H   0  0  0  0  0  0  0  0  0  0  0  0
  140.8898   76.6404  223.7209 H   0  0  0  0  0  0  0  0  0  0  0  0
  142.1543   77.1311  222.4949 H   0  0  0  0  0  0  0  0  0  0  0  0
  1  2  2  0
  2  3  1  0
  3  4  2  0
  4  5  1  0
  5  6  2  0
  5  7  1  0
  7  8  1  0
  8  9  1  0
  9 10  1  0
 10 11  2  0
 11 12  1  0
 12 13  1  0
 13 14  1  0
 14 15  1  0
 15 16  1  0
 16 17  1  0
 17 18  1  0
 12 19  2  0
 19 20  1  0
 20 21  1  0
 21 22  1  0
 22 23  1  0
 23 24  1  0
 24 25  2  0
 25 26  1  0
 26 27  2  0
 27 28  1  0
 28 29  2  0
 29 30  1  0
 20 31  2  0
  9 32  1  0
  6  1  1  0
 31 10  1  0
 32  4  1  0
 18 13  1  0
 30 21  1  0
 29 24  1  0
  1 33  1  0
  2 34  1  0
  3 35  1  0
  6 36  1  0
  7 37  1  0
  7 38  1  0
  8 39  1  0
  8 40  1  0
 13 41  1  6
 14 42  1  0
 14 43  1  0
 15 44  1  0
 15 45  1  0
 16 46  1  0
 16 47  1  0
 17 48  1  0
 18 49  1  0
 18 50  1  0
 22 51  1  0
 22 52  1  0
 23 53  1  0
 23 54  1  0
 25 55  1  0
 26 56  1  0
 27 57  1  0
 28 58  1  0
 30 59  1  0
 30 60  1  0
 32 61  1  0
 32 62  1  0
M  END
>  <UniqueID>  (62) 
679

>  <SMILES>  (62) 
c1ccc2c(c1)CCN(c1nc([C@@H]3CCCNC3)nc(N3CCc4ccccc4C3)n1)C2

>  <Energy>  (62) 
77.55306268174873

>  <Genealogy>  (62) 
c1ccc2c(c1)CCN(c1nc([C@@H]3CCCNC3)nc(N3CCc4ccccc4C3)n1)C2 (chirality)
c1ccc2c(c1)CCN(c1nc([C@@H]3CCCNC3)nc(N3CCc4ccccc4C3)n1)C2 (3D coordinates assigned)
c1ccc2c(c1)CCN(c1nc([C@@H]3CCCNC3)nc(N3CCc4ccccc4C3)n1)C2 (nonaromatic ring conformer: 77.55306268174873 kcal/mol)

>  <smiles>  (62) 
c1ccc2c(c1)CCN(c1nc(C3CCCNC3)nc(N3CCc4ccccc4C3)n1)C2

>  <score_type>  (62) 
oracle

>  <origin>  (62) 
autodockgpu

>  <m_score__min__energy>  (62) 
-9.6400000000000006

>  <m_primary>  (62) 
energy

>  <meeko>  (62) 
{"free_energy": -9.56, "intermolecular_energy": -10.46, "internal_energy": -0.78, "cluster_size": 20, "cluster_id": 1, "rank_in_cluster": 20}

>  <energy>  (62) 
-9.63

>  <cluster_rmsd>  (62) 
0.03

>  <rmsd>  (62) 
272.06

>  <cluster>  (62) 
1

$$$$
ZPZIUNMFLXMAPV-OAQYLSRUNA-N
     RDKit          3D

 62 67  0  0  0  0  0  0  0  0999 V2000
  139.2010   68.0460  226.5290 C   0  0  0  0  0  0  0  0  0  0  0  0
  140.0670   68.9470  227.1510 C   0  0  0  0  0  0  0  0  0  0  0  0
  140.6520   69.9800  226.4150 C   0  0  0  0  0  0  0  0  0  0  0  0
  140.3620   70.1310  225.0500 C   0  0  0  0  0  0  0  0  0  0  0  0
  139.4840   69.2260  224.4250 C   0  0  0  0  0  0  0  0  0  0  0  0
  138.9130   68.1790  225.1680 C   0  0  0  0  0  0  0  0  0  0  0  0
  139.2050   69.3530  222.9580 C   0  0  0  0  0  0  0  0  0  0  0  0
  139.1630   70.8250  222.5590 C   0  0  0  0  0  0  0  0  0  0  0  0
  140.3980   71.5150  222.9680 N   0  0  0  0  0  0  0  0  0  0  0  0
  140.9050   72.6100  222.1760 C   0  0  0  0  0  0  0  0  0  0  0  0
  141.8840   72.3950  221.2590 N   0  0  0  0  0  0  0  0  0  0  0  0
  142.3730   73.4230  220.5180 C   0  0  0  0  0  0  0  0  0  0  0  0
  143.4390   73.1780  219.4840 C   0  0  2  0  0  0  0  0  0  0  0  0
  143.2330   71.8100  218.7970 C   0  0  0  0  0  0  0  0  0  0  0  0
  144.5430   71.2340  218.2280 C   0  0  0  0  0  0  0  0  0  0  0  0
  145.5430   72.3470  217.8960 C   0  0  0  0  0  0  0  0  0  0  0  0
  145.9200   73.1300  219.0900 N   0  0  0  0  0  0  0  0  0  0  0  0
  144.8500   73.2720  220.1000 C   0  0  0  0  0  0  0  0  0  0  0  0
  141.8650   74.6710  220.6850 N   0  0  0  0  0  0  0  0  0  0  0  0
  140.8850   74.9020  221.5980 C   0  0  0  0  0  0  0  0  0  0  0  0
  140.3540   76.2300  221.7860 N   0  0  0  0  0  0  0  0  0  0  0  0
  139.2410   76.7000  220.9430 C   0  0  0  0  0  0  0  0  0  0  0  0
  138.3510   77.6700  221.7140 C   0  0  0  0  0  0  0  0  0  0  0  0
  139.1740   78.7940  222.2680 C   0  0  0  0  0  0  0  0  0  0  0  0
  138.6400   80.0890  222.3610 C   0  0  0  0  0  0  0  0  0  0  0  0
  139.4030   81.1260  222.9050 C   0  0  0  0  0  0  0  0  0  0  0  0
  140.6950   80.8740  223.3720 C   0  0  0  0  0  0  0  0  0  0  0  0
  141.2270   79.5850  223.2970 C   0  0  0  0  0  0  0  0  0  0  0  0
  140.4760   78.5370  222.7390 C   0  0  0  0  0  0  0  0  0  0  0  0
  141.0530   77.1420  222.7110 C   0  0  0  0  0  0  0  0  0  0  0  0
  140.4130   73.8660  222.3410 N   0  0  0  0  0  0  0  0  0  0  0  0
  141.0470   71.2220  224.2600 C   0  0  0  0  0  0  0  0  0  0  0  0
  138.7451   67.2310  227.1104 H   0  0  0  0  0  0  0  0  0  0  0  0
  140.2892   68.8432  228.2233 H   0  0  0  0  0  0  0  0  0  0  0  0
  141.3437   70.6790  226.9078 H   0  0  0  0  0  0  0  0  0  0  0  0
  138.2378   67.4625  224.6773 H   0  0  0  0  0  0  0  0  0  0  0  0
  139.9989   68.8447  222.3911 H   0  0  0  0  0  0  0  0  0  0  0  0
  138.2320   68.8910  222.7347 H   0  0  0  0  0  0  0  0  0  0  0  0
  139.0535   70.8993  221.4670 H   0  0  0  0  0  0  0  0  0  0  0  0
  138.3099   71.3020  223.0636 H   0  0  0  0  0  0  0  0  0  0  0  0
  143.3519   73.9654  218.7208 H   0  0  0  0  0  0  0  0  0  0  0  0
  142.8272   71.1021  219.5347 H   0  0  0  0  0  0  0  0  0  0  0  0
  142.5396   71.9587  217.9561 H   0  0  0  0  0  0  0  0  0  0  0  0
  144.9913   70.5600  218.9728 H   0  0  0  0  0  0  0  0  0  0  0  0
  144.3092   70.6896  217.3012 H   0  0  0  0  0  0  0  0  0  0  0  0
  146.4494   71.8934  217.4686 H   0  0  0  0  0  0  0  0  0  0  0  0
  145.0632   73.0308  217.1803 H   0  0  0  0  0  0  0  0  0  0  0  0
  146.2080   74.0840  218.7710 H   0  0  0  0  0  0  0  0  0  0  0  0
  144.9624   72.4729  220.8475 H   0  0  0  0  0  0  0  0  0  0  0  0
  144.9501   74.2686  220.5547 H   0  0  0  0  0  0  0  0  0  0  0  0
  139.6491   77.2103  220.0581 H   0  0  0  0  0  0  0  0  0  0  0  0
  138.6372   75.8321  220.6393 H   0  0  0  0  0  0  0  0  0  0  0  0
  137.5859   78.0783  221.0373 H   0  0  0  0  0  0  0  0  0  0  0  0
  137.8681   77.1337  222.5442 H   0  0  0  0  0  0  0  0  0  0  0  0
  137.6185   80.2881  222.0048 H   0  0  0  0  0  0  0  0  0  0  0  0
  138.9855   82.1419  222.9654 H   0  0  0  0  0  0  0  0  0  0  0  0
  141.2941   81.6917  223.7993 H   0  0  0  0  0  0  0  0  0  0  0  0
  142.2404   79.3890  223.6772 H   0  0  0  0  0  0  0  0  0  0  0  0
  142.1070   77.2082  222.4032 H   0  0  0  0  0  0  0  0  0  0  0  0
  140.9367   76.7255  223.7224 H   0  0  0  0  0  0  0  0  0  0  0  0
  142.0839   70.9109  224.0651 H   0  0  0  0  0  0  0  0  0  0  0  0
  140.9907   72.1399  224.8636 H   0  0  0  0  0  0  0  0  0  0  0  0
  1  2  2  0
  2  3  1  0
  3  4  2  0
  4  5  1  0
  5  6  2  0
  5  7  1  0
  7  8  1  0
  8  9  1  0
  9 10  1  0
 10 11  2  0
 11 12  1  0
 12 13  1  0
 13 14  1  0
 14 15  1  0
 15 16  1  0
 16 17  1  0
 17 18  1  0
 12 19  2  0
 19 20  1  0
 20 21  1  0
 21 22  1  0
 22 23  1  0
 23 24  1  0
 24 25  2  0
 25 26  1  0
 26 27  2  0
 27 28  1  0
 28 29  2  0
 29 30  1  0
 20 31  2  0
  9 32  1  0
  6  1  1  0
 31 10  1  0
 32  4  1  0
 18 13  1  0
 30 21  1  0
 29 24  1  0
  1 33  1  0
  2 34  1  0
  3 35  1  0
  6 36  1  0
  7 37  1  0
  7 38  1  0
  8 39  1  0
  8 40  1  0
 13 41  1  6
 14 42  1  0
 14 43  1  0
 15 44  1  0
 15 45  1  0
 16 46  1  0
 16 47  1  0
 17 48  1  0
 18 49  1  0
 18 50  1  0
 22 51  1  0
 22 52  1  0
 23 53  1  0
 23 54  1  0
 25 55  1  0
 26 56  1  0
 27 57  1  0
 28 58  1  0
 30 59  1  0
 30 60  1  0
 32 61  1  0
 32 62  1  0
M  END
>  <UniqueID>  (63) 
679

>  <SMILES>  (63) 
c1ccc2c(c1)CCN(c1nc([C@@H]3CCCNC3)nc(N3CCc4ccccc4C3)n1)C2

>  <Energy>  (63) 
77.55306268174873

>  <Genealogy>  (63) 
c1ccc2c(c1)CCN(c1nc([C@@H]3CCCNC3)nc(N3CCc4ccccc4C3)n1)C2 (chirality)
c1ccc2c(c1)CCN(c1nc([C@@H]3CCCNC3)nc(N3CCc4ccccc4C3)n1)C2 (3D coordinates assigned)
c1ccc2c(c1)CCN(c1nc([C@@H]3CCCNC3)nc(N3CCc4ccccc4C3)n1)C2 (nonaromatic ring conformer: 77.55306268174873 kcal/mol)

>  <smiles>  (63) 
c1ccc2c(c1)CCN(c1nc(C3CCCNC3)nc(N3CCc4ccccc4C3)n1)C2

>  <score_type>  (63) 
oracle

>  <origin>  (63) 
autodockgpu

>  <m_score__min__energy>  (63) 
-9.6400000000000006

>  <m_primary>  (63) 
energy

>  <meeko>  (63) 
{"free_energy": -9.63, "intermolecular_energy": -10.52, "internal_energy": -0.78, "cluster_size": 20, "cluster_id": 1, "rank_in_cluster": 3}

>  <energy>  (63) 
-9.63

>  <cluster_rmsd>  (63) 
0.02

>  <rmsd>  (63) 
272.05

>  <cluster>  (63) 
1

$$$$
ZPZIUNMFLXMAPV-OAQYLSRUNA-N
     RDKit          3D

 62 67  0  0  0  0  0  0  0  0999 V2000
  139.4930   81.0580  222.8810 C   0  0  0  0  0  0  0  0  0  0  0  0
  140.7680   80.7770  223.3740 C   0  0  0  0  0  0  0  0  0  0  0  0
  141.2780   79.4780  223.3000 C   0  0  0  0  0  0  0  0  0  0  0  0
  140.5200   78.4510  222.7160 C   0  0  0  0  0  0  0  0  0  0  0  0
  139.2370   78.7370  222.2140 C   0  0  0  0  0  0  0  0  0  0  0  0
  138.7240   80.0420  222.3070 C   0  0  0  0  0  0  0  0  0  0  0  0
  138.4040   77.6360  221.6290 C   0  0  0  0  0  0  0  0  0  0  0  0
  139.2930   76.6500  220.8790 C   0  0  0  0  0  0  0  0  0  0  0  0
  140.3720   76.1500  221.7470 N   0  0  0  0  0  0  0  0  0  0  0  0
  140.8780   74.8110  221.5670 C   0  0  0  0  0  0  0  0  0  0  0  0
  141.8240   74.5570  220.6260 N   0  0  0  0  0  0  0  0  0  0  0  0
  142.2960   73.2970  220.4440 C   0  0  0  0  0  0  0  0  0  0  0  0
  143.3640   73.0230  219.4190 C   0  0  2  0  0  0  0  0  0  0  0  0
  143.2250   71.5940  218.8500 C   0  0  0  0  0  0  0  0  0  0  0  0
  144.5570   71.0430  218.3120 C   0  0  0  0  0  0  0  0  0  0  0  0
  145.4930   72.1750  217.8740 C   0  0  0  0  0  0  0  0  0  0  0  0
  145.8390   73.0740  218.9930 N   0  0  0  0  0  0  0  0  0  0  0  0
  144.7740   73.2430  220.0040 C   0  0  0  0  0  0  0  0  0  0  0  0
  141.8290   72.2870  221.2220 N   0  0  0  0  0  0  0  0  0  0  0  0
  140.8820   72.5240  222.1680 C   0  0  0  0  0  0  0  0  0  0  0  0
  140.3760   71.4500  222.9870 N   0  0  0  0  0  0  0  0  0  0  0  0
  139.1110   70.7870  222.6270 C   0  0  0  0  0  0  0  0  0  0  0  0
  139.1330   69.3180  223.0410 C   0  0  0  0  0  0  0  0  0  0  0  0
  139.4560   69.2000  224.5000 C   0  0  0  0  0  0  0  0  0  0  0  0
  138.8790   68.1820  225.2770 C   0  0  0  0  0  0  0  0  0  0  0  0
  139.2070   68.0600  226.6290 C   0  0  0  0  0  0  0  0  0  0  0  0
  140.1200   68.9420  227.2110 C   0  0  0  0  0  0  0  0  0  0  0  0
  140.7100   69.9470  226.4410 C   0  0  0  0  0  0  0  0  0  0  0  0
  140.3780   70.0890  225.0840 C   0  0  0  0  0  0  0  0  0  0  0  0
  141.0620   71.1540  224.2590 C   0  0  0  0  0  0  0  0  0  0  0  0
  140.4110   73.7890  222.3320 N   0  0  0  0  0  0  0  0  0  0  0  0
  141.0680   77.0420  222.6950 C   0  0  0  0  0  0  0  0  0  0  0  0
  139.0927   82.0806  222.9443 H   0  0  0  0  0  0  0  0  0  0  0  0
  141.3727   81.5795  223.8216 H   0  0  0  0  0  0  0  0  0  0  0  0
  142.2785   79.2592  223.7014 H   0  0  0  0  0  0  0  0  0  0  0  0
  137.7157   80.2641  221.9275 H   0  0  0  0  0  0  0  0  0  0  0  0
  137.8774   77.1087  222.4381 H   0  0  0  0  0  0  0  0  0  0  0  0
  137.6748   78.0689  220.9285 H   0  0  0  0  0  0  0  0  0  0  0  0
  138.6819   75.8010  220.5387 H   0  0  0  0  0  0  0  0  0  0  0  0
  139.7445   77.1673  220.0196 H   0  0  0  0  0  0  0  0  0  0  0  0
  143.2272   73.7386  218.5949 H   0  0  0  0  0  0  0  0  0  0  0  0
  142.8652   70.9293  219.6492 H   0  0  0  0  0  0  0  0  0  0  0  0
  142.5163   71.6358  218.0098 H   0  0  0  0  0  0  0  0  0  0  0  0
  145.0484   70.4581  219.1035 H   0  0  0  0  0  0  0  0  0  0  0  0
  144.3429   70.4119  217.4368 H   0  0  0  0  0  0  0  0  0  0  0  0
  146.4182   71.7352  217.4732 H   0  0  0  0  0  0  0  0  0  0  0  0
  144.9706   72.7701  217.1105 H   0  0  0  0  0  0  0  0  0  0  0  0
  146.0730   74.0120  218.5930 H   0  0  0  0  0  0  0  0  0  0  0  0
  144.9374   72.5163  220.8134 H   0  0  0  0  0  0  0  0  0  0  0  0
  144.8249   74.2779  220.3733 H   0  0  0  0  0  0  0  0  0  0  0  0
  138.2796   71.2937  223.1390 H   0  0  0  0  0  0  0  0  0  0  0  0
  138.9804   70.8444  221.5363 H   0  0  0  0  0  0  0  0  0  0  0  0
  138.1464   68.8709  222.8492 H   0  0  0  0  0  0  0  0  0  0  0  0
  139.9021   68.7905  222.4577 H   0  0  0  0  0  0  0  0  0  0  0  0
  138.1671   67.4792  224.8195 H   0  0  0  0  0  0  0  0  0  0  0  0
  138.7454   67.2677  227.2366 H   0  0  0  0  0  0  0  0  0  0  0  0
  140.3747   68.8452  228.2767 H   0  0  0  0  0  0  0  0  0  0  0  0
  141.4388   70.6311  226.9002 H   0  0  0  0  0  0  0  0  0  0  0  0
  141.1062   72.0787  224.8532 H   0  0  0  0  0  0  0  0  0  0  0  0
  142.0612   70.7710  224.0040 H   0  0  0  0  0  0  0  0  0  0  0  0
  140.9733   76.6172  223.7053 H   0  0  0  0  0  0  0  0  0  0  0  0
  142.1152   77.1086  222.3649 H   0  0  0  0  0  0  0  0  0  0  0  0
  1  2  2  0
  2  3  1  0
  3  4  2  0
  4  5  1  0
  5  6  2  0
  5  7  1  0
  7  8  1  0
  8  9  1  0
  9 10  1  0
 10 11  2  0
 11 12  1  0
 12 13  1  0
 13 14  1  0
 14 15  1  0
 15 16  1  0
 16 17  1  0
 17 18  1  0
 12 19  2  0
 19 20  1  0
 20 21  1  0
 21 22  1  0
 22 23  1  0
 23 24  1  0
 24 25  2  0
 25 26  1  0
 26 27  2  0
 27 28  1  0
 28 29  2  0
 29 30  1  0
 20 31  2  0
  9 32  1  0
  6  1  1  0
 31 10  1  0
 32  4  1  0
 18 13  1  0
 30 21  1  0
 29 24  1  0
  1 33  1  0
  2 34  1  0
  3 35  1  0
  6 36  1  0
  7 37  1  0
  7 38  1  0
  8 39  1  0
  8 40  1  0
 13 41  1  6
 14 42  1  0
 14 43  1  0
 15 44  1  0
 15 45  1  0
 16 46  1  0
 16 47  1  0
 17 48  1  0
 18 49  1  0
 18 50  1  0
 22 51  1  0
 22 52  1  0
 23 53  1  0
 23 54  1  0
 25 55  1  0
 26 56  1  0
 27 57  1  0
 28 58  1  0
 30 59  1  0
 30 60  1  0
 32 61  1  0
 32 62  1  0
M  END
>  <UniqueID>  (64) 
679

>  <SMILES>  (64) 
c1ccc2c(c1)CCN(c1nc([C@@H]3CCCNC3)nc(N3CCc4ccccc4C3)n1)C2

>  <Energy>  (64) 
77.55306268174873

>  <Genealogy>  (64) 
c1ccc2c(c1)CCN(c1nc([C@@H]3CCCNC3)nc(N3CCc4ccccc4C3)n1)C2 (chirality)
c1ccc2c(c1)CCN(c1nc([C@@H]3CCCNC3)nc(N3CCc4ccccc4C3)n1)C2 (3D coordinates assigned)
c1ccc2c(c1)CCN(c1nc([C@@H]3CCCNC3)nc(N3CCc4ccccc4C3)n1)C2 (nonaromatic ring conformer: 77.55306268174873 kcal/mol)

>  <smiles>  (64) 
c1ccc2c(c1)CCN(c1nc(C3CCCNC3)nc(N3CCc4ccccc4C3)n1)C2

>  <score_type>  (64) 
oracle

>  <origin>  (64) 
autodockgpu

>  <m_score__min__energy>  (64) 
-9.6400000000000006

>  <m_primary>  (64) 
energy

>  <meeko>  (64) 
{"free_energy": -9.57, "intermolecular_energy": -10.47, "internal_energy": -0.78, "cluster_size": 20, "cluster_id": 1, "rank_in_cluster": 18}

>  <energy>  (64) 
-9.63

>  <cluster_rmsd>  (64) 
0.03

>  <rmsd>  (64) 
272.06

>  <cluster>  (64) 
1

$$$$
ZPZIUNMFLXMAPV-OAQYLSRUNA-N
     RDKit          3D

 62 67  0  0  0  0  0  0  0  0999 V2000
  139.1890   68.0380  226.5140 C   0  0  0  0  0  0  0  0  0  0  0  0
  140.0570   68.9350  227.1390 C   0  0  0  0  0  0  0  0  0  0  0  0
  140.6450   69.9690  226.4060 C   0  0  0  0  0  0  0  0  0  0  0  0
  140.3560   70.1240  225.0410 C   0  0  0  0  0  0  0  0  0  0  0  0
  139.4750   69.2230  224.4130 C   0  0  0  0  0  0  0  0  0  0  0  0
  138.9020   68.1760  225.1530 C   0  0  0  0  0  0  0  0  0  0  0  0
  139.1970   69.3550  222.9460 C   0  0  0  0  0  0  0  0  0  0  0  0
  139.1590   70.8290  222.5520 C   0  0  0  0  0  0  0  0  0  0  0  0
  140.3960   71.5140  222.9630 N   0  0  0  0  0  0  0  0  0  0  0  0
  140.9060   72.6100  222.1750 C   0  0  0  0  0  0  0  0  0  0  0  0
  141.8830   72.3950  221.2560 N   0  0  0  0  0  0  0  0  0  0  0  0
  142.3750   73.4240  220.5180 C   0  0  0  0  0  0  0  0  0  0  0  0
  143.4400   73.1790  219.4830 C   0  0  2  0  0  0  0  0  0  0  0  0
  143.2240   71.8180  218.7860 C   0  0  0  0  0  0  0  0  0  0  0  0
  144.5300   71.2370  218.2130 C   0  0  0  0  0  0  0  0  0  0  0  0
  145.5380   72.3450  217.8880 C   0  0  0  0  0  0  0  0  0  0  0  0
  145.9190   73.1170  219.0870 N   0  0  0  0  0  0  0  0  0  0  0  0
  144.8510   73.2590  220.0990 C   0  0  0  0  0  0  0  0  0  0  0  0
  141.8720   74.6730  220.6910 N   0  0  0  0  0  0  0  0  0  0  0  0
  140.8940   74.9040  221.6060 C   0  0  0  0  0  0  0  0  0  0  0  0
  140.3670   76.2340  221.7980 N   0  0  0  0  0  0  0  0  0  0  0  0
  139.2540   76.7100  220.9590 C   0  0  0  0  0  0  0  0  0  0  0  0
  138.3690   77.6810  221.7360 C   0  0  0  0  0  0  0  0  0  0  0  0
  139.1970   78.8000  222.2910 C   0  0  0  0  0  0  0  0  0  0  0  0
  138.6670   80.0970  222.3900 C   0  0  0  0  0  0  0  0  0  0  0  0
  139.4350   81.1290  222.9350 C   0  0  0  0  0  0  0  0  0  0  0  0
  140.7270   80.8710  223.3980 C   0  0  0  0  0  0  0  0  0  0  0  0
  141.2540   79.5800  223.3190 C   0  0  0  0  0  0  0  0  0  0  0  0
  140.4990   78.5370  222.7590 C   0  0  0  0  0  0  0  0  0  0  0  0
  141.0720   77.1400  222.7250 C   0  0  0  0  0  0  0  0  0  0  0  0
  140.4190   73.8670  222.3450 N   0  0  0  0  0  0  0  0  0  0  0  0
  141.0440   71.2160  224.2550 C   0  0  0  0  0  0  0  0  0  0  0  0
  138.7308   67.2224  227.0927 H   0  0  0  0  0  0  0  0  0  0  0  0
  140.2786   68.8275  228.2111 H   0  0  0  0  0  0  0  0  0  0  0  0
  141.3380   70.6652  226.9011 H   0  0  0  0  0  0  0  0  0  0  0  0
  138.2253   67.4624  224.6601 H   0  0  0  0  0  0  0  0  0  0  0  0
  139.9899   68.8465  222.3779 H   0  0  0  0  0  0  0  0  0  0  0  0
  138.2231   68.8960  222.7205 H   0  0  0  0  0  0  0  0  0  0  0  0
  139.0494   70.9074  221.4603 H   0  0  0  0  0  0  0  0  0  0  0  0
  138.3074   71.3067  223.0585 H   0  0  0  0  0  0  0  0  0  0  0  0
  143.3593   73.9728  218.7258 H   0  0  0  0  0  0  0  0  0  0  0  0
  142.8129   71.1076  219.5183 H   0  0  0  0  0  0  0  0  0  0  0  0
  142.5317   71.9778  217.9463 H   0  0  0  0  0  0  0  0  0  0  0  0
  144.9737   70.5550  218.9533 H   0  0  0  0  0  0  0  0  0  0  0  0
  144.2921   70.7007  217.2825 H   0  0  0  0  0  0  0  0  0  0  0  0
  146.4416   71.8879  217.4584 H   0  0  0  0  0  0  0  0  0  0  0  0
  145.0639   73.0365  217.1759 H   0  0  0  0  0  0  0  0  0  0  0  0
  146.2150   74.0720  218.7750 H   0  0  0  0  0  0  0  0  0  0  0  0
  144.9584   72.4538  220.8406 H   0  0  0  0  0  0  0  0  0  0  0  0
  144.9582   74.2514  220.5613 H   0  0  0  0  0  0  0  0  0  0  0  0
  139.6617   77.2217  220.0747 H   0  0  0  0  0  0  0  0  0  0  0  0
  138.6466   75.8452  220.6536 H   0  0  0  0  0  0  0  0  0  0  0  0
  137.6034   78.0940  221.0628 H   0  0  0  0  0  0  0  0  0  0  0  0
  137.8867   77.1437  222.5659 H   0  0  0  0  0  0  0  0  0  0  0  0
  137.6451   80.3006  222.0377 H   0  0  0  0  0  0  0  0  0  0  0  0
  139.0214   82.1462  222.9995 H   0  0  0  0  0  0  0  0  0  0  0  0
  141.3303   81.6855  223.8254 H   0  0  0  0  0  0  0  0  0  0  0  0
  142.2669   79.3791  223.6979 H   0  0  0  0  0  0  0  0  0  0  0  0
  142.1254   77.2038  222.4148 H   0  0  0  0  0  0  0  0  0  0  0  0
  140.9577   76.7201  223.7353 H   0  0  0  0  0  0  0  0  0  0  0  0
  142.0805   70.9034  224.0600 H   0  0  0  0  0  0  0  0  0  0  0  0
  140.9895   72.1322  224.8613 H   0  0  0  0  0  0  0  0  0  0  0  0
  1  2  2  0
  2  3  1  0
  3  4  2  0
  4  5  1  0
  5  6  2  0
  5  7  1  0
  7  8  1  0
  8  9  1  0
  9 10  1  0
 10 11  2  0
 11 12  1  0
 12 13  1  0
 13 14  1  0
 14 15  1  0
 15 16  1  0
 16 17  1  0
 17 18  1  0
 12 19  2  0
 19 20  1  0
 20 21  1  0
 21 22  1  0
 22 23  1  0
 23 24  1  0
 24 25  2  0
 25 26  1  0
 26 27  2  0
 27 28  1  0
 28 29  2  0
 29 30  1  0
 20 31  2  0
  9 32  1  0
  6  1  1  0
 31 10  1  0
 32  4  1  0
 18 13  1  0
 30 21  1  0
 29 24  1  0
  1 33  1  0
  2 34  1  0
  3 35  1  0
  6 36  1  0
  7 37  1  0
  7 38  1  0
  8 39  1  0
  8 40  1  0
 13 41  1  6
 14 42  1  0
 14 43  1  0
 15 44  1  0
 15 45  1  0
 16 46  1  0
 16 47  1  0
 17 48  1  0
 18 49  1  0
 18 50  1  0
 22 51  1  0
 22 52  1  0
 23 53  1  0
 23 54  1  0
 25 55  1  0
 26 56  1  0
 27 57  1  0
 28 58  1  0
 30 59  1  0
 30 60  1  0
 32 61  1  0
 32 62  1  0
M  END
>  <UniqueID>  (65) 
679

>  <SMILES>  (65) 
c1ccc2c(c1)CCN(c1nc([C@@H]3CCCNC3)nc(N3CCc4ccccc4C3)n1)C2

>  <Energy>  (65) 
77.55306268174873

>  <Genealogy>  (65) 
c1ccc2c(c1)CCN(c1nc([C@@H]3CCCNC3)nc(N3CCc4ccccc4C3)n1)C2 (chirality)
c1ccc2c(c1)CCN(c1nc([C@@H]3CCCNC3)nc(N3CCc4ccccc4C3)n1)C2 (3D coordinates assigned)
c1ccc2c(c1)CCN(c1nc([C@@H]3CCCNC3)nc(N3CCc4ccccc4C3)n1)C2 (nonaromatic ring conformer: 77.55306268174873 kcal/mol)

>  <smiles>  (65) 
c1ccc2c(c1)CCN(c1nc(C3CCCNC3)nc(N3CCc4ccccc4C3)n1)C2

>  <score_type>  (65) 
oracle

>  <origin>  (65) 
autodockgpu

>  <m_score__min__energy>  (65) 
-9.6400000000000006

>  <m_primary>  (65) 
energy

>  <meeko>  (65) 
{"free_energy": -9.64, "intermolecular_energy": -10.53, "internal_energy": -0.78, "cluster_size": 20, "cluster_id": 1, "rank_in_cluster": 1}

>  <energy>  (65) 
-9.61

>  <cluster_rmsd>  (65) 
0.15

>  <rmsd>  (65) 
272.07

>  <cluster>  (65) 
1

$$$$
ZPZIUNMFLXMAPV-OAQYLSRUNA-N
     RDKit          3D

 62 67  0  0  0  0  0  0  0  0999 V2000
  139.4230   81.1310  222.9860 C   0  0  0  0  0  0  0  0  0  0  0  0
  140.7170   80.8680  223.4390 C   0  0  0  0  0  0  0  0  0  0  0  0
  141.2450   79.5780  223.3440 C   0  0  0  0  0  0  0  0  0  0  0  0
  140.4860   78.5410  222.7780 C   0  0  0  0  0  0  0  0  0  0  0  0
  139.1840   78.8100  222.3150 C   0  0  0  0  0  0  0  0  0  0  0  0
  138.6540   80.1050  222.4300 C   0  0  0  0  0  0  0  0  0  0  0  0
  138.3520   77.6980  221.7500 C   0  0  0  0  0  0  0  0  0  0  0  0
  139.2340   76.7290  220.9680 C   0  0  0  0  0  0  0  0  0  0  0  0
  140.3460   76.2440  221.8020 N   0  0  0  0  0  0  0  0  0  0  0  0
  140.8670   74.9130  221.6010 C   0  0  0  0  0  0  0  0  0  0  0  0
  141.8200   74.6860  220.6590 N   0  0  0  0  0  0  0  0  0  0  0  0
  142.3070   73.4350  220.4570 C   0  0  0  0  0  0  0  0  0  0  0  0
  143.3810   73.1910  219.4310 C   0  0  2  0  0  0  0  0  0  0  0  0
  143.1630   71.8380  218.7200 C   0  0  0  0  0  0  0  0  0  0  0  0
  144.4710   71.2520  218.1560 C   0  0  0  0  0  0  0  0  0  0  0  0
  145.4900   72.3560  217.8530 C   0  0  0  0  0  0  0  0  0  0  0  0
  145.8650   73.1140  219.0630 N   0  0  0  0  0  0  0  0  0  0  0  0
  144.7860   73.2550  220.0640 C   0  0  0  0  0  0  0  0  0  0  0  0
  141.8480   72.4060  221.2150 N   0  0  0  0  0  0  0  0  0  0  0  0
  140.8950   72.6160  222.1620 C   0  0  0  0  0  0  0  0  0  0  0  0
  140.3980   71.5220  222.9590 N   0  0  0  0  0  0  0  0  0  0  0  0
  139.1600   70.8290  222.5640 C   0  0  0  0  0  0  0  0  0  0  0  0
  139.2110   69.3580  222.9670 C   0  0  0  0  0  0  0  0  0  0  0  0
  139.5010   69.2370  224.4320 C   0  0  0  0  0  0  0  0  0  0  0  0
  138.9330   68.1970  225.1870 C   0  0  0  0  0  0  0  0  0  0  0  0
  139.2300   68.0730  226.5460 C   0  0  0  0  0  0  0  0  0  0  0  0
  140.1050   68.9740  227.1570 C   0  0  0  0  0  0  0  0  0  0  0  0
  140.6860   70.0010  226.4090 C   0  0  0  0  0  0  0  0  0  0  0  0
  140.3840   70.1450  225.0460 C   0  0  0  0  0  0  0  0  0  0  0  0
  141.0600   71.2350  224.2460 C   0  0  0  0  0  0  0  0  0  0  0  0
  140.4090   73.8730  222.3450 N   0  0  0  0  0  0  0  0  0  0  0  0
  141.0550   77.1420  222.7340 C   0  0  0  0  0  0  0  0  0  0  0  0
  139.0083   82.1466  223.0667 H   0  0  0  0  0  0  0  0  0  0  0  0
  141.3222   81.6782  223.8717 H   0  0  0  0  0  0  0  0  0  0  0  0
  142.2604   79.3737  223.7144 H   0  0  0  0  0  0  0  0  0  0  0  0
  137.6314   80.3125  222.0818 H   0  0  0  0  0  0  0  0  0  0  0  0
  137.8588   77.1587  222.5721 H   0  0  0  0  0  0  0  0  0  0  0  0
  137.5952   78.1222  221.0737 H   0  0  0  0  0  0  0  0  0  0  0  0
  138.6269   75.8714  220.6424 H   0  0  0  0  0  0  0  0  0  0  0  0
  139.6506   77.2562  220.0971 H   0  0  0  0  0  0  0  0  0  0  0  0
  143.3141   73.9915  218.6795 H   0  0  0  0  0  0  0  0  0  0  0  0
  142.7388   71.1243  219.4416 H   0  0  0  0  0  0  0  0  0  0  0  0
  142.4813   72.0103  217.8741 H   0  0  0  0  0  0  0  0  0  0  0  0
  144.9015   70.5598  218.8946 H   0  0  0  0  0  0  0  0  0  0  0  0
  144.2399   70.7256  217.2182 H   0  0  0  0  0  0  0  0  0  0  0  0
  146.3946   71.8966  217.4279 H   0  0  0  0  0  0  0  0  0  0  0  0
  145.0274   73.0581  217.1437 H   0  0  0  0  0  0  0  0  0  0  0  0
  146.1700   74.0690  218.7630 H   0  0  0  0  0  0  0  0  0  0  0  0
  144.8788   72.4424  220.7996 H   0  0  0  0  0  0  0  0  0  0  0  0
  144.8951   74.2425  220.5362 H   0  0  0  0  0  0  0  0  0  0  0  0
  138.3037   71.3094  223.0599 H   0  0  0  0  0  0  0  0  0  0  0  0
  139.0538   70.8919  221.4709 H   0  0  0  0  0  0  0  0  0  0  0  0
  138.2417   68.8865  222.7475 H   0  0  0  0  0  0  0  0  0  0  0  0
  140.0078   68.8557  222.3988 H   0  0  0  0  0  0  0  0  0  0  0  0
  138.2526   67.4786  224.7064 H   0  0  0  0  0  0  0  0  0  0  0  0
  138.7740   67.2644  227.1362 H   0  0  0  0  0  0  0  0  0  0  0  0
  140.3368   68.8749  228.2277 H   0  0  0  0  0  0  0  0  0  0  0  0
  141.3843   70.7009  226.8912 H   0  0  0  0  0  0  0  0  0  0  0  0
  141.0641   72.1559  224.8476 H   0  0  0  0  0  0  0  0  0  0  0  0
  142.0754   70.8814  224.0139 H   0  0  0  0  0  0  0  0  0  0  0  0
  140.9963   76.7110  223.7443 H   0  0  0  0  0  0  0  0  0  0  0  0
  142.0911   77.2267  222.3743 H   0  0  0  0  0  0  0  0  0  0  0  0
  1  2  2  0
  2  3  1  0
  3  4  2  0
  4  5  1  0
  5  6  2  0
  5  7  1  0
  7  8  1  0
  8  9  1  0
  9 10  1  0
 10 11  2  0
 11 12  1  0
 12 13  1  0
 13 14  1  0
 14 15  1  0
 15 16  1  0
 16 17  1  0
 17 18  1  0
 12 19  2  0
 19 20  1  0
 20 21  1  0
 21 22  1  0
 22 23  1  0
 23 24  1  0
 24 25  2  0
 25 26  1  0
 26 27  2  0
 27 28  1  0
 28 29  2  0
 29 30  1  0
 20 31  2  0
  9 32  1  0
  6  1  1  0
 31 10  1  0
 32  4  1  0
 18 13  1  0
 30 21  1  0
 29 24  1  0
  1 33  1  0
  2 34  1  0
  3 35  1  0
  6 36  1  0
  7 37  1  0
  7 38  1  0
  8 39  1  0
  8 40  1  0
 13 41  1  6
 14 42  1  0
 14 43  1  0
 15 44  1  0
 15 45  1  0
 16 46  1  0
 16 47  1  0
 17 48  1  0
 18 49  1  0
 18 50  1  0
 22 51  1  0
 22 52  1  0
 23 53  1  0
 23 54  1  0
 25 55  1  0
 26 56  1  0
 27 57  1  0
 28 58  1  0
 30 59  1  0
 30 60  1  0
 32 61  1  0
 32 62  1  0
M  END
>  <UniqueID>  (66) 
679

>  <SMILES>  (66) 
c1ccc2c(c1)CCN(c1nc([C@@H]3CCCNC3)nc(N3CCc4ccccc4C3)n1)C2

>  <Energy>  (66) 
77.55306268174873

>  <Genealogy>  (66) 
c1ccc2c(c1)CCN(c1nc([C@@H]3CCCNC3)nc(N3CCc4ccccc4C3)n1)C2 (chirality)
c1ccc2c(c1)CCN(c1nc([C@@H]3CCCNC3)nc(N3CCc4ccccc4C3)n1)C2 (3D coordinates assigned)
c1ccc2c(c1)CCN(c1nc([C@@H]3CCCNC3)nc(N3CCc4ccccc4C3)n1)C2 (nonaromatic ring conformer: 77.55306268174873 kcal/mol)

>  <smiles>  (66) 
c1ccc2c(c1)CCN(c1nc(C3CCCNC3)nc(N3CCc4ccccc4C3)n1)C2

>  <score_type>  (66) 
oracle

>  <origin>  (66) 
autodockgpu

>  <m_score__min__energy>  (66) 
-9.6400000000000006

>  <m_primary>  (66) 
energy

>  <meeko>  (66) 
{"free_energy": -9.58, "intermolecular_energy": -10.48, "internal_energy": -0.78, "cluster_size": 20, "cluster_id": 1, "rank_in_cluster": 17}

>  <energy>  (66) 
-9.61

>  <cluster_rmsd>  (66) 
0.09

>  <rmsd>  (66) 
272.03

>  <cluster>  (66) 
1

$$$$
ZPZIUNMFLXMAPV-OAQYLSRUNA-N
     RDKit          3D

 62 67  0  0  0  0  0  0  0  0999 V2000
  139.4400   81.0460  222.8280 C   0  0  0  0  0  0  0  0  0  0  0  0
  140.7300   80.7880  223.2940 C   0  0  0  0  0  0  0  0  0  0  0  0
  141.2550   79.4950  223.2260 C   0  0  0  0  0  0  0  0  0  0  0  0
  140.4970   78.4500  222.6750 C   0  0  0  0  0  0  0  0  0  0  0  0
  139.1980   78.7120  222.2000 C   0  0  0  0  0  0  0  0  0  0  0  0
  138.6710   80.0110  222.2870 C   0  0  0  0  0  0  0  0  0  0  0  0
  138.3660   77.5920  221.6520 C   0  0  0  0  0  0  0  0  0  0  0  0
  139.2500   76.6060  220.8940 C   0  0  0  0  0  0  0  0  0  0  0  0
  140.3560   76.1340  221.7430 N   0  0  0  0  0  0  0  0  0  0  0  0
  140.8750   74.7980  221.5700 C   0  0  0  0  0  0  0  0  0  0  0  0
  141.8260   74.5500  220.6320 N   0  0  0  0  0  0  0  0  0  0  0  0
  142.3100   73.2930  220.4570 C   0  0  0  0  0  0  0  0  0  0  0  0
  143.3830   73.0250  219.4350 C   0  0  2  0  0  0  0  0  0  0  0  0
  143.2950   71.5730  218.9170 C   0  0  0  0  0  0  0  0  0  0  0  0
  144.6460   71.0550  218.3890 C   0  0  0  0  0  0  0  0  0  0  0  0
  145.5350   72.2060  217.9070 C   0  0  0  0  0  0  0  0  0  0  0  0
  145.8520   73.1550  218.9920 N   0  0  0  0  0  0  0  0  0  0  0  0
  144.7860   73.3190  220.0030 C   0  0  0  0  0  0  0  0  0  0  0  0
  141.8520   72.2820  221.2380 N   0  0  0  0  0  0  0  0  0  0  0  0
  140.9010   72.5150  222.1810 C   0  0  0  0  0  0  0  0  0  0  0  0
  140.4030   71.4390  223.0040 N   0  0  0  0  0  0  0  0  0  0  0  0
  139.1610   70.7440  222.6290 C   0  0  0  0  0  0  0  0  0  0  0  0
  139.2070   69.2810  223.0620 C   0  0  0  0  0  0  0  0  0  0  0  0
  139.5050   69.1880  224.5280 C   0  0  0  0  0  0  0  0  0  0  0  0
  138.9370   68.1660  225.3070 C   0  0  0  0  0  0  0  0  0  0  0  0
  139.2410   68.0680  226.6660 C   0  0  0  0  0  0  0  0  0  0  0  0
  140.1230   68.9780  227.2540 C   0  0  0  0  0  0  0  0  0  0  0  0
  140.7040   69.9870  226.4830 C   0  0  0  0  0  0  0  0  0  0  0  0
  140.3950   70.1050  225.1180 C   0  0  0  0  0  0  0  0  0  0  0  0
  141.0710   71.1750  224.2930 C   0  0  0  0  0  0  0  0  0  0  0  0
  140.4170   73.7750  222.3380 N   0  0  0  0  0  0  0  0  0  0  0  0
  141.0620   77.0480  222.6610 C   0  0  0  0  0  0  0  0  0  0  0  0
  139.0279   82.0642  222.8863 H   0  0  0  0  0  0  0  0  0  0  0  0
  141.3347   81.6044  223.7157 H   0  0  0  0  0  0  0  0  0  0  0  0
  142.2676   79.2949  223.6062 H   0  0  0  0  0  0  0  0  0  0  0  0
  137.6511   80.2146  221.9288 H   0  0  0  0  0  0  0  0  0  0  0  0
  137.8666   77.0699  222.4815 H   0  0  0  0  0  0  0  0  0  0  0  0
  137.6140   78.0050  220.9635 H   0  0  0  0  0  0  0  0  0  0  0  0
  138.6425   75.7439  220.5814 H   0  0  0  0  0  0  0  0  0  0  0  0
  139.6731   77.1157  220.0158 H   0  0  0  0  0  0  0  0  0  0  0  0
  143.2158   73.7059  218.5874 H   0  0  0  0  0  0  0  0  0  0  0  0
  142.9653   70.9233  219.7411 H   0  0  0  0  0  0  0  0  0  0  0  0
  142.5802   71.5579  218.0811 H   0  0  0  0  0  0  0  0  0  0  0  0
  145.1636   70.5168  219.1968 H   0  0  0  0  0  0  0  0  0  0  0  0
  144.4520   70.3866  217.5372 H   0  0  0  0  0  0  0  0  0  0  0  0
  146.4743   71.7885  217.5153 H   0  0  0  0  0  0  0  0  0  0  0  0
  144.9859   72.7543  217.1273 H   0  0  0  0  0  0  0  0  0  0  0  0
  146.0470   74.0870  218.5580 H   0  0  0  0  0  0  0  0  0  0  0  0
  144.9810   72.6281  220.8365 H   0  0  0  0  0  0  0  0  0  0  0  0
  144.7990   74.3675  220.3353 H   0  0  0  0  0  0  0  0  0  0  0  0
  138.3091   71.2385  223.1186 H   0  0  0  0  0  0  0  0  0  0  0  0
  139.0503   70.7849  221.5353 H   0  0  0  0  0  0  0  0  0  0  0  0
  138.2341   68.8101  222.8577 H   0  0  0  0  0  0  0  0  0  0  0  0
  139.9981   68.7633  222.4998 H   0  0  0  0  0  0  0  0  0  0  0  0
  138.2508   67.4410  224.8448 H   0  0  0  0  0  0  0  0  0  0  0  0
  138.7854   67.2731  227.2747 H   0  0  0  0  0  0  0  0  0  0  0  0
  140.3600   68.8996  228.3253 H   0  0  0  0  0  0  0  0  0  0  0  0
  141.4077   70.6935  226.9474 H   0  0  0  0  0  0  0  0  0  0  0  0
  141.0825   72.1078  224.8759 H   0  0  0  0  0  0  0  0  0  0  0  0
  142.0836   70.8123  224.0626 H   0  0  0  0  0  0  0  0  0  0  0  0
  140.9964   76.6368  223.6791 H   0  0  0  0  0  0  0  0  0  0  0  0
  142.1001   77.1230  222.3051 H   0  0  0  0  0  0  0  0  0  0  0  0
  1  2  2  0
  2  3  1  0
  3  4  2  0
  4  5  1  0
  5  6  2  0
  5  7  1  0
  7  8  1  0
  8  9  1  0
  9 10  1  0
 10 11  2  0
 11 12  1  0
 12 13  1  0
 13 14  1  0
 14 15  1  0
 15 16  1  0
 16 17  1  0
 17 18  1  0
 12 19  2  0
 19 20  1  0
 20 21  1  0
 21 22  1  0
 22 23  1  0
 23 24  1  0
 24 25  2  0
 25 26  1  0
 26 27  2  0
 27 28  1  0
 28 29  2  0
 29 30  1  0
 20 31  2  0
  9 32  1  0
  6  1  1  0
 31 10  1  0
 32  4  1  0
 18 13  1  0
 30 21  1  0
 29 24  1  0
  1 33  1  0
  2 34  1  0
  3 35  1  0
  6 36  1  0
  7 37  1  0
  7 38  1  0
  8 39  1  0
  8 40  1  0
 13 41  1  6
 14 42  1  0
 14 43  1  0
 15 44  1  0
 15 45  1  0
 16 46  1  0
 16 47  1  0
 17 48  1  0
 18 49  1  0
 18 50  1  0
 22 51  1  0
 22 52  1  0
 23 53  1  0
 23 54  1  0
 25 55  1  0
 26 56  1  0
 27 57  1  0
 28 58  1  0
 30 59  1  0
 30 60  1  0
 32 61  1  0
 32 62  1  0
M  END
>  <UniqueID>  (67) 
679

>  <SMILES>  (67) 
c1ccc2c(c1)CCN(c1nc([C@@H]3CCCNC3)nc(N3CCc4ccccc4C3)n1)C2

>  <Energy>  (67) 
77.55306268174873

>  <Genealogy>  (67) 
c1ccc2c(c1)CCN(c1nc([C@@H]3CCCNC3)nc(N3CCc4ccccc4C3)n1)C2 (chirality)
c1ccc2c(c1)CCN(c1nc([C@@H]3CCCNC3)nc(N3CCc4ccccc4C3)n1)C2 (3D coordinates assigned)
c1ccc2c(c1)CCN(c1nc([C@@H]3CCCNC3)nc(N3CCc4ccccc4C3)n1)C2 (nonaromatic ring conformer: 77.55306268174873 kcal/mol)

>  <smiles>  (67) 
c1ccc2c(c1)CCN(c1nc(C3CCCNC3)nc(N3CCc4ccccc4C3)n1)C2

>  <score_type>  (67) 
oracle

>  <origin>  (67) 
autodockgpu

>  <m_score__min__energy>  (67) 
-9.6400000000000006

>  <m_primary>  (67) 
energy

>  <meeko>  (67) 
{"free_energy": -9.57, "intermolecular_energy": -10.46, "internal_energy": -0.78, "cluster_size": 20, "cluster_id": 1, "rank_in_cluster": 19}

>  <energy>  (67) 
-9.61

>  <cluster_rmsd>  (67) 
0.05

>  <rmsd>  (67) 
272.05

>  <cluster>  (67) 
1

$$$$
ZPZIUNMFLXMAPV-OAQYLSRUNA-N
     RDKit          3D

 62 67  0  0  0  0  0  0  0  0999 V2000
  139.4060   81.1310  222.9430 C   0  0  0  0  0  0  0  0  0  0  0  0
  140.7170   80.8890  223.3550 C   0  0  0  0  0  0  0  0  0  0  0  0
  141.2550   79.6030  223.2620 C   0  0  0  0  0  0  0  0  0  0  0  0
  140.4890   78.5490  222.7390 C   0  0  0  0  0  0  0  0  0  0  0  0
  139.1690   78.7970  222.3170 C   0  0  0  0  0  0  0  0  0  0  0  0
  138.6290   80.0880  222.4300 C   0  0  0  0  0  0  0  0  0  0  0  0
  138.3290   77.6670  221.7990 C   0  0  0  0  0  0  0  0  0  0  0  0
  139.1950   76.6950  221.0030 C   0  0  0  0  0  0  0  0  0  0  0  0
  140.3400   76.2350  221.8050 N   0  0  0  0  0  0  0  0  0  0  0  0
  140.8680   74.9070  221.6070 C   0  0  0  0  0  0  0  0  0  0  0  0
  141.8320   74.6850  220.6760 N   0  0  0  0  0  0  0  0  0  0  0  0
  142.3260   73.4360  220.4760 C   0  0  0  0  0  0  0  0  0  0  0  0
  143.4130   73.1990  219.4620 C   0  0  2  0  0  0  0  0  0  0  0  0
  143.1710   71.8780  218.6990 C   0  0  0  0  0  0  0  0  0  0  0  0
  144.4730   71.2760  218.1380 C   0  0  0  0  0  0  0  0  0  0  0  0
  145.5280   72.3600  217.8930 C   0  0  0  0  0  0  0  0  0  0  0  0
  145.9000   73.0650  219.1360 N   0  0  0  0  0  0  0  0  0  0  0  0
  144.8070   73.2010  220.1220 C   0  0  0  0  0  0  0  0  0  0  0  0
  141.8630   72.4040  221.2270 N   0  0  0  0  0  0  0  0  0  0  0  0
  140.8980   72.6090  222.1630 C   0  0  0  0  0  0  0  0  0  0  0  0
  140.3960   71.5110  222.9530 N   0  0  0  0  0  0  0  0  0  0  0  0
  139.1600   70.8220  222.5480 C   0  0  0  0  0  0  0  0  0  0  0  0
  139.2070   69.3480  222.9430 C   0  0  0  0  0  0  0  0  0  0  0  0
  139.4900   69.2190  224.4090 C   0  0  0  0  0  0  0  0  0  0  0  0
  138.9180   68.1760  225.1560 C   0  0  0  0  0  0  0  0  0  0  0  0
  139.2090   68.0440  226.5160 C   0  0  0  0  0  0  0  0  0  0  0  0
  140.0820   68.9410  227.1350 C   0  0  0  0  0  0  0  0  0  0  0  0
  140.6680   69.9710  226.3960 C   0  0  0  0  0  0  0  0  0  0  0  0
  140.3720   70.1230  225.0310 C   0  0  0  0  0  0  0  0  0  0  0  0
  141.0520   71.2160  224.2410 C   0  0  0  0  0  0  0  0  0  0  0  0
  140.4050   73.8630  222.3440 N   0  0  0  0  0  0  0  0  0  0  0  0
  141.0710   77.1550  222.6970 C   0  0  0  0  0  0  0  0  0  0  0  0
  138.9834   82.1435  223.0219 H   0  0  0  0  0  0  0  0  0  0  0  0
  141.3280   81.7122  223.7537 H   0  0  0  0  0  0  0  0  0  0  0  0
  142.2846   79.4152  223.6005 H   0  0  0  0  0  0  0  0  0  0  0  0
  137.5928   80.2792  222.1144 H   0  0  0  0  0  0  0  0  0  0  0  0
  137.8701   77.1362  222.6461 H   0  0  0  0  0  0  0  0  0  0  0  0
  137.5443   78.0718  221.1430 H   0  0  0  0  0  0  0  0  0  0  0  0
  138.5868   75.8259  220.7118 H   0  0  0  0  0  0  0  0  0  0  0  0
  139.5761   77.2131  220.1107 H   0  0  0  0  0  0  0  0  0  0  0  0
  143.3832   74.0276  218.7392 H   0  0  0  0  0  0  0  0  0  0  0  0
  142.7138   71.1515  219.3869 H   0  0  0  0  0  0  0  0  0  0  0  0
  142.5101   72.0989  217.8479 H   0  0  0  0  0  0  0  0  0  0  0  0
  144.8700   70.5462  218.8590 H   0  0  0  0  0  0  0  0  0  0  0  0
  144.2451   70.7903  217.1777 H   0  0  0  0  0  0  0  0  0  0  0  0
  146.4276   71.8899  217.4692 H   0  0  0  0  0  0  0  0  0  0  0  0
  145.0994   73.0990  217.2001 H   0  0  0  0  0  0  0  0  0  0  0  0
  146.2370   74.0210  218.8760 H   0  0  0  0  0  0  0  0  0  0  0  0
  144.8636   72.3607  220.8296 H   0  0  0  0  0  0  0  0  0  0  0  0
  144.9345   74.1676  220.6313 H   0  0  0  0  0  0  0  0  0  0  0  0
  138.3017   71.3007  223.0422 H   0  0  0  0  0  0  0  0  0  0  0  0
  139.0596   70.8912  221.4548 H   0  0  0  0  0  0  0  0  0  0  0  0
  138.2381   68.8791  222.7164 H   0  0  0  0  0  0  0  0  0  0  0  0
  140.0055   68.8474  222.3757 H   0  0  0  0  0  0  0  0  0  0  0  0
  138.2389   67.4610  224.6687 H   0  0  0  0  0  0  0  0  0  0  0  0
  138.7499   67.2326  227.0999 H   0  0  0  0  0  0  0  0  0  0  0  0
  140.3085   68.8362  228.2063 H   0  0  0  0  0  0  0  0  0  0  0  0
  141.3651   70.6671  226.8853 H   0  0  0  0  0  0  0  0  0  0  0  0
  141.0544   72.1334  224.8479 H   0  0  0  0  0  0  0  0  0  0  0  0
  142.0681   70.8628  224.0114 H   0  0  0  0  0  0  0  0  0  0  0  0
  141.0522   76.7397  223.7154 H   0  0  0  0  0  0  0  0  0  0  0  0
  142.0929   77.2445  222.2998 H   0  0  0  0  0  0  0  0  0  0  0  0
  1  2  2  0
  2  3  1  0
  3  4  2  0
  4  5  1  0
  5  6  2  0
  5  7  1  0
  7  8  1  0
  8  9  1  0
  9 10  1  0
 10 11  2  0
 11 12  1  0
 12 13  1  0
 13 14  1  0
 14 15  1  0
 15 16  1  0
 16 17  1  0
 17 18  1  0
 12 19  2  0
 19 20  1  0
 20 21  1  0
 21 22  1  0
 22 23  1  0
 23 24  1  0
 24 25  2  0
 25 26  1  0
 26 27  2  0
 27 28  1  0
 28 29  2  0
 29 30  1  0
 20 31  2  0
  9 32  1  0
  6  1  1  0
 31 10  1  0
 32  4  1  0
 18 13  1  0
 30 21  1  0
 29 24  1  0
  1 33  1  0
  2 34  1  0
  3 35  1  0
  6 36  1  0
  7 37  1  0
  7 38  1  0
  8 39  1  0
  8 40  1  0
 13 41  1  6
 14 42  1  0
 14 43  1  0
 15 44  1  0
 15 45  1  0
 16 46  1  0
 16 47  1  0
 17 48  1  0
 18 49  1  0
 18 50  1  0
 22 51  1  0
 22 52  1  0
 23 53  1  0
 23 54  1  0
 25 55  1  0
 26 56  1  0
 27 57  1  0
 28 58  1  0
 30 59  1  0
 30 60  1  0
 32 61  1  0
 32 62  1  0
M  END
>  <UniqueID>  (68) 
679

>  <SMILES>  (68) 
c1ccc2c(c1)CCN(c1nc([C@@H]3CCCNC3)nc(N3CCc4ccccc4C3)n1)C2

>  <Energy>  (68) 
77.55306268174873

>  <Genealogy>  (68) 
c1ccc2c(c1)CCN(c1nc([C@@H]3CCCNC3)nc(N3CCc4ccccc4C3)n1)C2 (chirality)
c1ccc2c(c1)CCN(c1nc([C@@H]3CCCNC3)nc(N3CCc4ccccc4C3)n1)C2 (3D coordinates assigned)
c1ccc2c(c1)CCN(c1nc([C@@H]3CCCNC3)nc(N3CCc4ccccc4C3)n1)C2 (nonaromatic ring conformer: 77.55306268174873 kcal/mol)

>  <smiles>  (68) 
c1ccc2c(c1)CCN(c1nc(C3CCCNC3)nc(N3CCc4ccccc4C3)n1)C2

>  <score_type>  (68) 
oracle

>  <origin>  (68) 
autodockgpu

>  <m_score__min__energy>  (68) 
-9.6400000000000006

>  <m_primary>  (68) 
energy

>  <meeko>  (68) 
{"free_energy": -9.61, "intermolecular_energy": -10.5, "internal_energy": -0.78, "cluster_size": 20, "cluster_id": 1, "rank_in_cluster": 7}

>  <energy>  (68) 
-9.6

>  <cluster_rmsd>  (68) 
0.04

>  <rmsd>  (68) 
272.06

>  <cluster>  (68) 
1

$$$$
ZPZIUNMFLXMAPV-OAQYLSRUNA-N
     RDKit          3D

 62 67  0  0  0  0  0  0  0  0999 V2000
  139.4370   81.1240  222.9610 C   0  0  0  0  0  0  0  0  0  0  0  0
  140.7260   80.8620  223.4280 C   0  0  0  0  0  0  0  0  0  0  0  0
  141.2560   79.5730  223.3390 C   0  0  0  0  0  0  0  0  0  0  0  0
  140.5050   78.5350  222.7660 C   0  0  0  0  0  0  0  0  0  0  0  0
  139.2070   78.8010  222.2890 C   0  0  0  0  0  0  0  0  0  0  0  0
  138.6750   80.0960  222.3980 C   0  0  0  0  0  0  0  0  0  0  0  0
  138.3820   77.6880  221.7160 C   0  0  0  0  0  0  0  0  0  0  0  0
  139.2740   76.7200  220.9440 C   0  0  0  0  0  0  0  0  0  0  0  0
  140.3780   76.2360  221.7900 N   0  0  0  0  0  0  0  0  0  0  0  0
  140.9030   74.9060  221.5950 C   0  0  0  0  0  0  0  0  0  0  0  0
  141.8650   74.6800  220.6620 N   0  0  0  0  0  0  0  0  0  0  0  0
  142.3550   73.4290  220.4660 C   0  0  0  0  0  0  0  0  0  0  0  0
  143.4390   73.1860  219.4500 C   0  0  2  0  0  0  0  0  0  0  0  0
  143.2400   71.8230  218.7510 C   0  0  0  0  0  0  0  0  0  0  0  0
  144.5580   71.2450  218.2030 C   0  0  0  0  0  0  0  0  0  0  0  0
  145.5690   72.3560  217.8950 C   0  0  0  0  0  0  0  0  0  0  0  0
  145.9260   73.1310  219.1000 N   0  0  0  0  0  0  0  0  0  0  0  0
  144.8390   73.2710  220.0920 C   0  0  0  0  0  0  0  0  0  0  0  0
  141.8910   72.4010  221.2210 N   0  0  0  0  0  0  0  0  0  0  0  0
  140.9290   72.6100  222.1580 C   0  0  0  0  0  0  0  0  0  0  0  0
  140.4260   71.5160  222.9520 N   0  0  0  0  0  0  0  0  0  0  0  0
  139.1980   70.8150  222.5410 C   0  0  0  0  0  0  0  0  0  0  0  0
  139.2500   69.3460  222.9490 C   0  0  0  0  0  0  0  0  0  0  0  0
  139.5190   69.2310  224.4190 C   0  0  0  0  0  0  0  0  0  0  0  0
  138.9460   68.1910  225.1690 C   0  0  0  0  0  0  0  0  0  0  0  0
  139.2240   68.0720  226.5330 C   0  0  0  0  0  0  0  0  0  0  0  0
  140.0850   68.9800  227.1530 C   0  0  0  0  0  0  0  0  0  0  0  0
  140.6720   70.0070  226.4110 C   0  0  0  0  0  0  0  0  0  0  0  0
  140.3890   70.1460  225.0420 C   0  0  0  0  0  0  0  0  0  0  0  0
  141.0700   71.2360  224.2490 C   0  0  0  0  0  0  0  0  0  0  0  0
  140.4390   73.8660  222.3360 N   0  0  0  0  0  0  0  0  0  0  0  0
  141.0760   77.1360  222.7280 C   0  0  0  0  0  0  0  0  0  0  0  0
  139.0207   82.1394  223.0360 H   0  0  0  0  0  0  0  0  0  0  0  0
  141.3258   81.6728  223.8672 H   0  0  0  0  0  0  0  0  0  0  0  0
  142.2677   79.3701  223.7201 H   0  0  0  0  0  0  0  0  0  0  0  0
  137.6558   80.3021  222.0393 H   0  0  0  0  0  0  0  0  0  0  0  0
  137.8807   77.1485  222.5331 H   0  0  0  0  0  0  0  0  0  0  0  0
  137.6315   78.1107  221.0318 H   0  0  0  0  0  0  0  0  0  0  0  0
  138.6716   75.8617  220.6118 H   0  0  0  0  0  0  0  0  0  0  0  0
  139.6996   77.2480  220.0780 H   0  0  0  0  0  0  0  0  0  0  0  0
  143.3691   73.9783  218.6902 H   0  0  0  0  0  0  0  0  0  0  0  0
  142.8176   71.1124  219.4767 H   0  0  0  0  0  0  0  0  0  0  0  0
  142.5629   71.9796  217.8984 H   0  0  0  0  0  0  0  0  0  0  0  0
  144.9900   70.5653  218.9523 H   0  0  0  0  0  0  0  0  0  0  0  0
  144.3389   70.7067  217.2691 H   0  0  0  0  0  0  0  0  0  0  0  0
  146.4816   71.9009  217.4826 H   0  0  0  0  0  0  0  0  0  0  0  0
  145.1059   73.0452  217.1735 H   0  0  0  0  0  0  0  0  0  0  0  0
  146.2240   74.0860  218.7930 H   0  0  0  0  0  0  0  0  0  0  0  0
  144.9351   72.4670  220.8365 H   0  0  0  0  0  0  0  0  0  0  0  0
  144.9348   74.2643  220.5549 H   0  0  0  0  0  0  0  0  0  0  0  0
  138.3319   71.2925  223.0225 H   0  0  0  0  0  0  0  0  0  0  0  0
  139.1083   70.8737  221.4462 H   0  0  0  0  0  0  0  0  0  0  0  0
  138.2863   68.8692  222.7167 H   0  0  0  0  0  0  0  0  0  0  0  0
  140.0574   68.8457  222.3942 H   0  0  0  0  0  0  0  0  0  0  0  0
  138.2761   67.4678  224.6809 H   0  0  0  0  0  0  0  0  0  0  0  0
  138.7643   67.2625  227.1190 H   0  0  0  0  0  0  0  0  0  0  0  0
  140.3011   68.8861  228.2275 H   0  0  0  0  0  0  0  0  0  0  0  0
  141.3601   70.7114  226.9013 H   0  0  0  0  0  0  0  0  0  0  0  0
  141.0606   72.1587  224.8478 H   0  0  0  0  0  0  0  0  0  0  0  0
  142.0903   70.8866  224.0326 H   0  0  0  0  0  0  0  0  0  0  0  0
  141.0080   76.7055  223.7380 H   0  0  0  0  0  0  0  0  0  0  0  0
  142.1152   77.2222  222.3778 H   0  0  0  0  0  0  0  0  0  0  0  0
  1  2  2  0
  2  3  1  0
  3  4  2  0
  4  5  1  0
  5  6  2  0
  5  7  1  0
  7  8  1  0
  8  9  1  0
  9 10  1  0
 10 11  2  0
 11 12  1  0
 12 13  1  0
 13 14  1  0
 14 15  1  0
 15 16  1  0
 16 17  1  0
 17 18  1  0
 12 19  2  0
 19 20  1  0
 20 21  1  0
 21 22  1  0
 22 23  1  0
 23 24  1  0
 24 25  2  0
 25 26  1  0
 26 27  2  0
 27 28  1  0
 28 29  2  0
 29 30  1  0
 20 31  2  0
  9 32  1  0
  6  1  1  0
 31 10  1  0
 32  4  1  0
 18 13  1  0
 30 21  1  0
 29 24  1  0
  1 33  1  0
  2 34  1  0
  3 35  1  0
  6 36  1  0
  7 37  1  0
  7 38  1  0
  8 39  1  0
  8 40  1  0
 13 41  1  6
 14 42  1  0
 14 43  1  0
 15 44  1  0
 15 45  1  0
 16 46  1  0
 16 47  1  0
 17 48  1  0
 18 49  1  0
 18 50  1  0
 22 51  1  0
 22 52  1  0
 23 53  1  0
 23 54  1  0
 25 55  1  0
 26 56  1  0
 27 57  1  0
 28 58  1  0
 30 59  1  0
 30 60  1  0
 32 61  1  0
 32 62  1  0
M  END
>  <UniqueID>  (69) 
679

>  <SMILES>  (69) 
c1ccc2c(c1)CCN(c1nc([C@@H]3CCCNC3)nc(N3CCc4ccccc4C3)n1)C2

>  <Energy>  (69) 
77.55306268174873

>  <Genealogy>  (69) 
c1ccc2c(c1)CCN(c1nc([C@@H]3CCCNC3)nc(N3CCc4ccccc4C3)n1)C2 (chirality)
c1ccc2c(c1)CCN(c1nc([C@@H]3CCCNC3)nc(N3CCc4ccccc4C3)n1)C2 (3D coordinates assigned)
c1ccc2c(c1)CCN(c1nc([C@@H]3CCCNC3)nc(N3CCc4ccccc4C3)n1)C2 (nonaromatic ring conformer: 77.55306268174873 kcal/mol)

>  <smiles>  (69) 
c1ccc2c(c1)CCN(c1nc(C3CCCNC3)nc(N3CCc4ccccc4C3)n1)C2

>  <score_type>  (69) 
oracle

>  <origin>  (69) 
autodockgpu

>  <m_score__min__energy>  (69) 
-9.6400000000000006

>  <m_primary>  (69) 
energy

>  <meeko>  (69) 
{"free_energy": -9.59, "intermolecular_energy": -10.49, "internal_energy": -0.78, "cluster_size": 20, "cluster_id": 1, "rank_in_cluster": 14}

>  <energy>  (69) 
-9.6

>  <cluster_rmsd>  (69) 
0.04

>  <rmsd>  (69) 
272.06

>  <cluster>  (69) 
1

$$$$
ZPZIUNMFLXMAPV-OAQYLSRUNA-N
     RDKit          3D

 62 67  0  0  0  0  0  0  0  0999 V2000
  139.4250   81.1490  222.9570 C   0  0  0  0  0  0  0  0  0  0  0  0
  140.7160   80.8900  223.4180 C   0  0  0  0  0  0  0  0  0  0  0  0
  141.2470   79.6010  223.3300 C   0  0  0  0  0  0  0  0  0  0  0  0
  140.4940   78.5610  222.7620 C   0  0  0  0  0  0  0  0  0  0  0  0
  139.1940   78.8250  222.2910 C   0  0  0  0  0  0  0  0  0  0  0  0
  138.6610   80.1200  222.4000 C   0  0  0  0  0  0  0  0  0  0  0  0
  138.3670   77.7100  221.7250 C   0  0  0  0  0  0  0  0  0  0  0  0
  139.2560   76.7410  220.9510 C   0  0  0  0  0  0  0  0  0  0  0  0
  140.3650   76.2600  221.7920 N   0  0  0  0  0  0  0  0  0  0  0  0
  140.8890   74.9300  221.5970 C   0  0  0  0  0  0  0  0  0  0  0  0
  141.8540   74.7040  220.6680 N   0  0  0  0  0  0  0  0  0  0  0  0
  142.3450   73.4530  220.4720 C   0  0  0  0  0  0  0  0  0  0  0  0
  143.4330   73.2110  219.4600 C   0  0  2  0  0  0  0  0  0  0  0  0
  143.2200   71.8610  218.7390 C   0  0  0  0  0  0  0  0  0  0  0  0
  144.5330   71.2740  218.1910 C   0  0  0  0  0  0  0  0  0  0  0  0
  145.5610   72.3760  217.9060 C   0  0  0  0  0  0  0  0  0  0  0  0
  145.9210   73.1270  219.1250 N   0  0  0  0  0  0  0  0  0  0  0  0
  144.8290   73.2670  220.1120 C   0  0  0  0  0  0  0  0  0  0  0  0
  141.8780   72.4240  221.2240 N   0  0  0  0  0  0  0  0  0  0  0  0
  140.9130   72.6330  222.1590 C   0  0  0  0  0  0  0  0  0  0  0  0
  140.4070   71.5390  222.9500 N   0  0  0  0  0  0  0  0  0  0  0  0
  139.1780   70.8410  222.5360 C   0  0  0  0  0  0  0  0  0  0  0  0
  139.2270   69.3710  222.9420 C   0  0  0  0  0  0  0  0  0  0  0  0
  139.4950   69.2520  224.4120 C   0  0  0  0  0  0  0  0  0  0  0  0
  138.9190   68.2120  225.1590 C   0  0  0  0  0  0  0  0  0  0  0  0
  139.1950   68.0900  226.5230 C   0  0  0  0  0  0  0  0  0  0  0  0
  140.0580   68.9950  227.1460 C   0  0  0  0  0  0  0  0  0  0  0  0
  140.6480   70.0220  226.4060 C   0  0  0  0  0  0  0  0  0  0  0  0
  140.3660   70.1640  225.0380 C   0  0  0  0  0  0  0  0  0  0  0  0
  141.0500   71.2550  224.2470 C   0  0  0  0  0  0  0  0  0  0  0  0
  140.4230   73.8890  222.3360 N   0  0  0  0  0  0  0  0  0  0  0  0
  141.0660   77.1630  222.7250 C   0  0  0  0  0  0  0  0  0  0  0  0
  139.0081   82.1642  223.0320 H   0  0  0  0  0  0  0  0  0  0  0  0
  141.3171   81.7027  223.8518 H   0  0  0  0  0  0  0  0  0  0  0  0
  142.2603   79.3997  223.7077 H   0  0  0  0  0  0  0  0  0  0  0  0
  137.6398   80.3246  222.0461 H   0  0  0  0  0  0  0  0  0  0  0  0
  137.8703   77.1720  222.5459 H   0  0  0  0  0  0  0  0  0  0  0  0
  137.6126   78.1303  221.0437 H   0  0  0  0  0  0  0  0  0  0  0  0
  138.6526   75.8813  220.6241 H   0  0  0  0  0  0  0  0  0  0  0  0
  139.6767   77.2676  220.0816 H   0  0  0  0  0  0  0  0  0  0  0  0
  143.3796   74.0160  218.7122 H   0  0  0  0  0  0  0  0  0  0  0  0
  142.7834   71.1454  219.4512 H   0  0  0  0  0  0  0  0  0  0  0  0
  142.5505   72.0394  217.8847 H   0  0  0  0  0  0  0  0  0  0  0  0
  144.9510   70.5774  218.9327 H   0  0  0  0  0  0  0  0  0  0  0  0
  144.3128   70.7528  217.2477 H   0  0  0  0  0  0  0  0  0  0  0  0
  146.4698   71.9150  217.4918 H   0  0  0  0  0  0  0  0  0  0  0  0
  145.1118   73.0826  217.1926 H   0  0  0  0  0  0  0  0  0  0  0  0
  146.2340   74.0820  218.8330 H   0  0  0  0  0  0  0  0  0  0  0  0
  144.9091   72.4506  220.8448 H   0  0  0  0  0  0  0  0  0  0  0  0
  144.9351   74.2518  220.5904 H   0  0  0  0  0  0  0  0  0  0  0  0
  138.3121   71.3193  223.0170 H   0  0  0  0  0  0  0  0  0  0  0  0
  139.0897   70.9017  221.4412 H   0  0  0  0  0  0  0  0  0  0  0  0
  138.2625   68.8965  222.7083 H   0  0  0  0  0  0  0  0  0  0  0  0
  140.0341   68.8706  222.3869 H   0  0  0  0  0  0  0  0  0  0  0  0
  138.2483   67.4910  224.6687 H   0  0  0  0  0  0  0  0  0  0  0  0
  138.7325   67.2807  227.1070 H   0  0  0  0  0  0  0  0  0  0  0  0
  140.2730   68.8985  228.2205 H   0  0  0  0  0  0  0  0  0  0  0  0
  141.3377   70.7237  226.8978 H   0  0  0  0  0  0  0  0  0  0  0  0
  141.0422   72.1765  224.8477 H   0  0  0  0  0  0  0  0  0  0  0  0
  142.0697   70.9040  224.0303 H   0  0  0  0  0  0  0  0  0  0  0  0
  141.0025   76.7349  223.7363 H   0  0  0  0  0  0  0  0  0  0  0  0
  142.1036   77.2494  222.3703 H   0  0  0  0  0  0  0  0  0  0  0  0
  1  2  2  0
  2  3  1  0
  3  4  2  0
  4  5  1  0
  5  6  2  0
  5  7  1  0
  7  8  1  0
  8  9  1  0
  9 10  1  0
 10 11  2  0
 11 12  1  0
 12 13  1  0
 13 14  1  0
 14 15  1  0
 15 16  1  0
 16 17  1  0
 17 18  1  0
 12 19  2  0
 19 20  1  0
 20 21  1  0
 21 22  1  0
 22 23  1  0
 23 24  1  0
 24 25  2  0
 25 26  1  0
 26 27  2  0
 27 28  1  0
 28 29  2  0
 29 30  1  0
 20 31  2  0
  9 32  1  0
  6  1  1  0
 31 10  1  0
 32  4  1  0
 18 13  1  0
 30 21  1  0
 29 24  1  0
  1 33  1  0
  2 34  1  0
  3 35  1  0
  6 36  1  0
  7 37  1  0
  7 38  1  0
  8 39  1  0
  8 40  1  0
 13 41  1  6
 14 42  1  0
 14 43  1  0
 15 44  1  0
 15 45  1  0
 16 46  1  0
 16 47  1  0
 17 48  1  0
 18 49  1  0
 18 50  1  0
 22 51  1  0
 22 52  1  0
 23 53  1  0
 23 54  1  0
 25 55  1  0
 26 56  1  0
 27 57  1  0
 28 58  1  0
 30 59  1  0
 30 60  1  0
 32 61  1  0
 32 62  1  0
M  END
>  <UniqueID>  (70) 
679

>  <SMILES>  (70) 
c1ccc2c(c1)CCN(c1nc([C@@H]3CCCNC3)nc(N3CCc4ccccc4C3)n1)C2

>  <Energy>  (70) 
77.55306268174873

>  <Genealogy>  (70) 
c1ccc2c(c1)CCN(c1nc([C@@H]3CCCNC3)nc(N3CCc4ccccc4C3)n1)C2 (chirality)
c1ccc2c(c1)CCN(c1nc([C@@H]3CCCNC3)nc(N3CCc4ccccc4C3)n1)C2 (3D coordinates assigned)
c1ccc2c(c1)CCN(c1nc([C@@H]3CCCNC3)nc(N3CCc4ccccc4C3)n1)C2 (nonaromatic ring conformer: 77.55306268174873 kcal/mol)

>  <smiles>  (70) 
c1ccc2c(c1)CCN(c1nc(C3CCCNC3)nc(N3CCc4ccccc4C3)n1)C2

>  <score_type>  (70) 
oracle

>  <origin>  (70) 
autodockgpu

>  <m_score__min__energy>  (70) 
-9.6400000000000006

>  <m_primary>  (70) 
energy

>  <meeko>  (70) 
{"free_energy": -9.6, "intermolecular_energy": -10.49, "internal_energy": -0.78, "cluster_size": 20, "cluster_id": 1, "rank_in_cluster": 12}

>  <energy>  (70) 
-9.6

>  <cluster_rmsd>  (70) 
0.06

>  <rmsd>  (70) 
272.07

>  <cluster>  (70) 
1

$$$$
ZPZIUNMFLXMAPV-OAQYLSRUNA-N
     RDKit          3D

 62 67  0  0  0  0  0  0  0  0999 V2000
  139.4170   81.1130  222.9440 C   0  0  0  0  0  0  0  0  0  0  0  0
  140.7150   80.8610  223.3920 C   0  0  0  0  0  0  0  0  0  0  0  0
  141.2490   79.5730  223.3050 C   0  0  0  0  0  0  0  0  0  0  0  0
  140.4930   78.5270  222.7510 C   0  0  0  0  0  0  0  0  0  0  0  0
  139.1870   78.7850  222.2930 C   0  0  0  0  0  0  0  0  0  0  0  0
  138.6510   80.0780  222.4010 C   0  0  0  0  0  0  0  0  0  0  0  0
  138.3580   77.6640  221.7420 C   0  0  0  0  0  0  0  0  0  0  0  0
  139.2410   76.6940  220.9630 C   0  0  0  0  0  0  0  0  0  0  0  0
  140.3610   76.2210  221.7940 N   0  0  0  0  0  0  0  0  0  0  0  0
  140.8880   74.8920  221.6000 C   0  0  0  0  0  0  0  0  0  0  0  0
  141.8480   74.6660  220.6660 N   0  0  0  0  0  0  0  0  0  0  0  0
  142.3410   73.4160  220.4710 C   0  0  0  0  0  0  0  0  0  0  0  0
  143.4230   73.1730  219.4530 C   0  0  2  0  0  0  0  0  0  0  0  0
  143.2420   71.7960  218.7780 C   0  0  0  0  0  0  0  0  0  0  0  0
  144.5650   71.2300  218.2320 C   0  0  0  0  0  0  0  0  0  0  0  0
  145.5570   72.3510  217.9000 C   0  0  0  0  0  0  0  0  0  0  0  0
  145.9090   73.1510  219.0900 N   0  0  0  0  0  0  0  0  0  0  0  0
  144.8250   73.2900  220.0860 C   0  0  0  0  0  0  0  0  0  0  0  0
  141.8810   72.3880  221.2290 N   0  0  0  0  0  0  0  0  0  0  0  0
  140.9200   72.5970  222.1680 C   0  0  0  0  0  0  0  0  0  0  0  0
  140.4220   71.5030  222.9660 N   0  0  0  0  0  0  0  0  0  0  0  0
  139.1940   70.7990  222.5590 C   0  0  0  0  0  0  0  0  0  0  0  0
  139.2500   69.3310  222.9710 C   0  0  0  0  0  0  0  0  0  0  0  0
  139.5240   69.2190  224.4400 C   0  0  0  0  0  0  0  0  0  0  0  0
  138.9550   68.1790  225.1930 C   0  0  0  0  0  0  0  0  0  0  0  0
  139.2370   68.0640  226.5560 C   0  0  0  0  0  0  0  0  0  0  0  0
  140.0980   68.9750  227.1730 C   0  0  0  0  0  0  0  0  0  0  0  0
  140.6810   70.0020  226.4270 C   0  0  0  0  0  0  0  0  0  0  0  0
  140.3940   70.1370  225.0590 C   0  0  0  0  0  0  0  0  0  0  0  0
  141.0710   71.2270  224.2620 C   0  0  0  0  0  0  0  0  0  0  0  0
  140.4280   73.8520  222.3450 N   0  0  0  0  0  0  0  0  0  0  0  0
  141.0700   77.1310  222.7150 C   0  0  0  0  0  0  0  0  0  0  0  0
  138.9970   82.1269  223.0185 H   0  0  0  0  0  0  0  0  0  0  0  0
  141.3184   81.6781  223.8143 H   0  0  0  0  0  0  0  0  0  0  0  0
  142.2671   79.3770  223.6724 H   0  0  0  0  0  0  0  0  0  0  0  0
  137.6252   80.2770  222.0573 H   0  0  0  0  0  0  0  0  0  0  0  0
  137.8726   77.1286  222.5713 H   0  0  0  0  0  0  0  0  0  0  0  0
  137.5948   78.0783  221.0668 H   0  0  0  0  0  0  0  0  0  0  0  0
  138.6368   75.8307  220.6475 H   0  0  0  0  0  0  0  0  0  0  0  0
  139.6500   77.2172  220.0861 H   0  0  0  0  0  0  0  0  0  0  0  0
  143.3364   73.9514  218.6806 H   0  0  0  0  0  0  0  0  0  0  0  0
  142.8351   71.0910  219.5179 H   0  0  0  0  0  0  0  0  0  0  0  0
  142.5578   71.9278  217.9269 H   0  0  0  0  0  0  0  0  0  0  0  0
  145.0116   70.5693  218.9896 H   0  0  0  0  0  0  0  0  0  0  0  0
  144.3489   70.6734  217.3081 H   0  0  0  0  0  0  0  0  0  0  0  0
  146.4741   71.9032  217.4896 H   0  0  0  0  0  0  0  0  0  0  0  0
  145.0793   73.0212  217.1702 H   0  0  0  0  0  0  0  0  0  0  0  0
  146.1900   74.1050  218.7650 H   0  0  0  0  0  0  0  0  0  0  0  0
  144.9376   72.4995  220.8426 H   0  0  0  0  0  0  0  0  0  0  0  0
  144.9077   74.2919  220.5326 H   0  0  0  0  0  0  0  0  0  0  0  0
  138.3280   71.2762  223.0410 H   0  0  0  0  0  0  0  0  0  0  0  0
  139.1015   70.8550  221.4643 H   0  0  0  0  0  0  0  0  0  0  0  0
  138.2864   68.8520  222.7430 H   0  0  0  0  0  0  0  0  0  0  0  0
  140.0569   68.8313  222.4149 H   0  0  0  0  0  0  0  0  0  0  0  0
  138.2856   67.4532  224.7081 H   0  0  0  0  0  0  0  0  0  0  0  0
  138.7804   67.2548  227.1448 H   0  0  0  0  0  0  0  0  0  0  0  0
  140.3170   68.8834  228.2471 H   0  0  0  0  0  0  0  0  0  0  0  0
  141.3688   70.7090  226.9139 H   0  0  0  0  0  0  0  0  0  0  0  0
  141.0617   72.1508  224.8590 H   0  0  0  0  0  0  0  0  0  0  0  0
  142.0915   70.8795  224.0434 H   0  0  0  0  0  0  0  0  0  0  0  0
  141.0195   76.7078  223.7291 H   0  0  0  0  0  0  0  0  0  0  0  0
  142.1035   77.2190  222.3487 H   0  0  0  0  0  0  0  0  0  0  0  0
  1  2  2  0
  2  3  1  0
  3  4  2  0
  4  5  1  0
  5  6  2  0
  5  7  1  0
  7  8  1  0
  8  9  1  0
  9 10  1  0
 10 11  2  0
 11 12  1  0
 12 13  1  0
 13 14  1  0
 14 15  1  0
 15 16  1  0
 16 17  1  0
 17 18  1  0
 12 19  2  0
 19 20  1  0
 20 21  1  0
 21 22  1  0
 22 23  1  0
 23 24  1  0
 24 25  2  0
 25 26  1  0
 26 27  2  0
 27 28  1  0
 28 29  2  0
 29 30  1  0
 20 31  2  0
  9 32  1  0
  6  1  1  0
 31 10  1  0
 32  4  1  0
 18 13  1  0
 30 21  1  0
 29 24  1  0
  1 33  1  0
  2 34  1  0
  3 35  1  0
  6 36  1  0
  7 37  1  0
  7 38  1  0
  8 39  1  0
  8 40  1  0
 13 41  1  6
 14 42  1  0
 14 43  1  0
 15 44  1  0
 15 45  1  0
 16 46  1  0
 16 47  1  0
 17 48  1  0
 18 49  1  0
 18 50  1  0
 22 51  1  0
 22 52  1  0
 23 53  1  0
 23 54  1  0
 25 55  1  0
 26 56  1  0
 27 57  1  0
 28 58  1  0
 30 59  1  0
 30 60  1  0
 32 61  1  0
 32 62  1  0
M  END
>  <UniqueID>  (71) 
679

>  <SMILES>  (71) 
c1ccc2c(c1)CCN(c1nc([C@@H]3CCCNC3)nc(N3CCc4ccccc4C3)n1)C2

>  <Energy>  (71) 
77.55306268174873

>  <Genealogy>  (71) 
c1ccc2c(c1)CCN(c1nc([C@@H]3CCCNC3)nc(N3CCc4ccccc4C3)n1)C2 (chirality)
c1ccc2c(c1)CCN(c1nc([C@@H]3CCCNC3)nc(N3CCc4ccccc4C3)n1)C2 (3D coordinates assigned)
c1ccc2c(c1)CCN(c1nc([C@@H]3CCCNC3)nc(N3CCc4ccccc4C3)n1)C2 (nonaromatic ring conformer: 77.55306268174873 kcal/mol)

>  <smiles>  (71) 
c1ccc2c(c1)CCN(c1nc(C3CCCNC3)nc(N3CCc4ccccc4C3)n1)C2

>  <score_type>  (71) 
oracle

>  <origin>  (71) 
autodockgpu

>  <m_score__min__energy>  (71) 
-9.6400000000000006

>  <m_primary>  (71) 
energy

>  <meeko>  (71) 
{"free_energy": -9.6, "intermolecular_energy": -10.49, "internal_energy": -0.78, "cluster_size": 20, "cluster_id": 1, "rank_in_cluster": 9}

>  <energy>  (71) 
-9.6

>  <cluster_rmsd>  (71) 
0.08

>  <rmsd>  (71) 
272.06

>  <cluster>  (71) 
1

$$$$
ZPZIUNMFLXMAPV-OAQYLSRUNA-N
     RDKit          3D

 62 67  0  0  0  0  0  0  0  0999 V2000
  139.4510   81.1510  222.8900 C   0  0  0  0  0  0  0  0  0  0  0  0
  140.7420   80.8920  223.3540 C   0  0  0  0  0  0  0  0  0  0  0  0
  141.2680   79.6000  223.2780 C   0  0  0  0  0  0  0  0  0  0  0  0
  140.5110   78.5570  222.7200 C   0  0  0  0  0  0  0  0  0  0  0  0
  139.2120   78.8220  222.2470 C   0  0  0  0  0  0  0  0  0  0  0  0
  138.6840   80.1200  222.3430 C   0  0  0  0  0  0  0  0  0  0  0  0
  138.3820   77.7040  221.6910 C   0  0  0  0  0  0  0  0  0  0  0  0
  139.2670   76.7250  220.9260 C   0  0  0  0  0  0  0  0  0  0  0  0
  140.3740   76.2480  221.7720 N   0  0  0  0  0  0  0  0  0  0  0  0
  140.8940   74.9150  221.5890 C   0  0  0  0  0  0  0  0  0  0  0  0
  141.8530   74.6750  220.6580 N   0  0  0  0  0  0  0  0  0  0  0  0
  142.3390   73.4210  220.4730 C   0  0  0  0  0  0  0  0  0  0  0  0
  143.4210   73.1640  219.4580 C   0  0  2  0  0  0  0  0  0  0  0  0
  143.2530   71.7670  218.8200 C   0  0  0  0  0  0  0  0  0  0  0  0
  144.5800   71.2020  218.2830 C   0  0  0  0  0  0  0  0  0  0  0  0
  145.5580   72.3260  217.9180 C   0  0  0  0  0  0  0  0  0  0  0  0
  145.9050   73.1600  219.0850 N   0  0  0  0  0  0  0  0  0  0  0  0
  144.8230   73.3140  220.0810 C   0  0  0  0  0  0  0  0  0  0  0  0
  141.8740   72.4020  221.2400 N   0  0  0  0  0  0  0  0  0  0  0  0
  140.9140   72.6250  222.1770 C   0  0  0  0  0  0  0  0  0  0  0  0
  140.4100   71.5400  222.9840 N   0  0  0  0  0  0  0  0  0  0  0  0
  139.1740   70.8450  222.5880 C   0  0  0  0  0  0  0  0  0  0  0  0
  139.2190   69.3790  223.0080 C   0  0  0  0  0  0  0  0  0  0  0  0
  139.4990   69.2740  224.4770 C   0  0  0  0  0  0  0  0  0  0  0  0
  138.9240   68.2440  225.2390 C   0  0  0  0  0  0  0  0  0  0  0  0
  139.2120   68.1340  226.6020 C   0  0  0  0  0  0  0  0  0  0  0  0
  140.0850   69.0410  227.2080 C   0  0  0  0  0  0  0  0  0  0  0  0
  140.6730   70.0580  226.4530 C   0  0  0  0  0  0  0  0  0  0  0  0
  140.3800   70.1870  225.0850 C   0  0  0  0  0  0  0  0  0  0  0  0
  141.0630   71.2660  224.2780 C   0  0  0  0  0  0  0  0  0  0  0  0
  140.4290   73.8840  222.3430 N   0  0  0  0  0  0  0  0  0  0  0  0
  141.0790   77.1570  222.6960 C   0  0  0  0  0  0  0  0  0  0  0  0
  139.0375   82.1682  222.9553 H   0  0  0  0  0  0  0  0  0  0  0  0
  141.3460   81.7066  223.7802 H   0  0  0  0  0  0  0  0  0  0  0  0
  142.2807   79.3985  223.6573 H   0  0  0  0  0  0  0  0  0  0  0  0
  137.6638   80.3250  221.9865 H   0  0  0  0  0  0  0  0  0  0  0  0
  137.8837   77.1752  222.5169 H   0  0  0  0  0  0  0  0  0  0  0  0
  137.6294   78.1206  221.0054 H   0  0  0  0  0  0  0  0  0  0  0  0
  138.6606   75.8645  220.6070 H   0  0  0  0  0  0  0  0  0  0  0  0
  139.6895   77.2416  220.0516 H   0  0  0  0  0  0  0  0  0  0  0  0
  143.3232   73.9212  218.6661 H   0  0  0  0  0  0  0  0  0  0  0  0
  142.8575   71.0771  219.5801 H   0  0  0  0  0  0  0  0  0  0  0  0
  142.5636   71.8685  217.9688 H   0  0  0  0  0  0  0  0  0  0  0  0
  145.0372   70.5661  219.0554 H   0  0  0  0  0  0  0  0  0  0  0  0
  144.3667   70.6192  217.3748 H   0  0  0  0  0  0  0  0  0  0  0  0
  146.4787   71.8784  217.5155 H   0  0  0  0  0  0  0  0  0  0  0  0
  145.0697   72.9716  217.1732 H   0  0  0  0  0  0  0  0  0  0  0  0
  146.1740   74.1090  218.7340 H   0  0  0  0  0  0  0  0  0  0  0  0
  144.9474   72.5460  220.8586 H   0  0  0  0  0  0  0  0  0  0  0  0
  144.8959   74.3288  220.4993 H   0  0  0  0  0  0  0  0  0  0  0  0
  138.3150   71.3327  223.0720 H   0  0  0  0  0  0  0  0  0  0  0  0
  139.0760   70.8956  221.4935 H   0  0  0  0  0  0  0  0  0  0  0  0
  138.2502   68.9071  222.7873 H   0  0  0  0  0  0  0  0  0  0  0  0
  140.0185   68.8686  222.4510 H   0  0  0  0  0  0  0  0  0  0  0  0
  138.2451   67.5219  224.7617 H   0  0  0  0  0  0  0  0  0  0  0  0
  138.7510   67.3327  227.1982 H   0  0  0  0  0  0  0  0  0  0  0  0
  140.3095   68.9539  228.2813 H   0  0  0  0  0  0  0  0  0  0  0  0
  141.3694   70.7620  226.9320 H   0  0  0  0  0  0  0  0  0  0  0  0
  141.0652   72.1935  224.8694 H   0  0  0  0  0  0  0  0  0  0  0  0
  142.0792   70.9079  224.0564 H   0  0  0  0  0  0  0  0  0  0  0  0
  141.0151   76.7386  223.7113 H   0  0  0  0  0  0  0  0  0  0  0  0
  142.1168   77.2366  222.3401 H   0  0  0  0  0  0  0  0  0  0  0  0
  1  2  2  0
  2  3  1  0
  3  4  2  0
  4  5  1  0
  5  6  2  0
  5  7  1  0
  7  8  1  0
  8  9  1  0
  9 10  1  0
 10 11  2  0
 11 12  1  0
 12 13  1  0
 13 14  1  0
 14 15  1  0
 15 16  1  0
 16 17  1  0
 17 18  1  0
 12 19  2  0
 19 20  1  0
 20 21  1  0
 21 22  1  0
 22 23  1  0
 23 24  1  0
 24 25  2  0
 25 26  1  0
 26 27  2  0
 27 28  1  0
 28 29  2  0
 29 30  1  0
 20 31  2  0
  9 32  1  0
  6  1  1  0
 31 10  1  0
 32  4  1  0
 18 13  1  0
 30 21  1  0
 29 24  1  0
  1 33  1  0
  2 34  1  0
  3 35  1  0
  6 36  1  0
  7 37  1  0
  7 38  1  0
  8 39  1  0
  8 40  1  0
 13 41  1  6
 14 42  1  0
 14 43  1  0
 15 44  1  0
 15 45  1  0
 16 46  1  0
 16 47  1  0
 17 48  1  0
 18 49  1  0
 18 50  1  0
 22 51  1  0
 22 52  1  0
 23 53  1  0
 23 54  1  0
 25 55  1  0
 26 56  1  0
 27 57  1  0
 28 58  1  0
 30 59  1  0
 30 60  1  0
 32 61  1  0
 32 62  1  0
M  END
>  <UniqueID>  (72) 
679

>  <SMILES>  (72) 
c1ccc2c(c1)CCN(c1nc([C@@H]3CCCNC3)nc(N3CCc4ccccc4C3)n1)C2

>  <Energy>  (72) 
77.55306268174873

>  <Genealogy>  (72) 
c1ccc2c(c1)CCN(c1nc([C@@H]3CCCNC3)nc(N3CCc4ccccc4C3)n1)C2 (chirality)
c1ccc2c(c1)CCN(c1nc([C@@H]3CCCNC3)nc(N3CCc4ccccc4C3)n1)C2 (3D coordinates assigned)
c1ccc2c(c1)CCN(c1nc([C@@H]3CCCNC3)nc(N3CCc4ccccc4C3)n1)C2 (nonaromatic ring conformer: 77.55306268174873 kcal/mol)

>  <smiles>  (72) 
c1ccc2c(c1)CCN(c1nc(C3CCCNC3)nc(N3CCc4ccccc4C3)n1)C2

>  <score_type>  (72) 
oracle

>  <origin>  (72) 
autodockgpu

>  <m_score__min__energy>  (72) 
-9.6400000000000006

>  <m_primary>  (72) 
energy

>  <meeko>  (72) 
{"free_energy": -9.6, "intermolecular_energy": -10.49, "internal_energy": -0.78, "cluster_size": 20, "cluster_id": 1, "rank_in_cluster": 10}

>  <energy>  (72) 
-9.6

>  <cluster_rmsd>  (72) 
0.04

>  <rmsd>  (72) 
272.06

>  <cluster>  (72) 
1

$$$$
ZPZIUNMFLXMAPV-OAQYLSRUNA-N
     RDKit          3D

 62 67  0  0  0  0  0  0  0  0999 V2000
  139.4630   81.0960  222.9140 C   0  0  0  0  0  0  0  0  0  0  0  0
  140.7590   80.8340  223.3620 C   0  0  0  0  0  0  0  0  0  0  0  0
  141.2830   79.5420  223.2780 C   0  0  0  0  0  0  0  0  0  0  0  0
  140.5180   78.5010  222.7290 C   0  0  0  0  0  0  0  0  0  0  0  0
  139.2130   78.7680  222.2710 C   0  0  0  0  0  0  0  0  0  0  0  0
  138.6880   80.0660  222.3750 C   0  0  0  0  0  0  0  0  0  0  0  0
  138.3740   77.6520  221.7250 C   0  0  0  0  0  0  0  0  0  0  0  0
  139.2480   76.6720  220.9480 C   0  0  0  0  0  0  0  0  0  0  0  0
  140.3650   76.1930  221.7800 N   0  0  0  0  0  0  0  0  0  0  0  0
  140.8810   74.8580  221.5900 C   0  0  0  0  0  0  0  0  0  0  0  0
  141.8340   74.6200  220.6530 N   0  0  0  0  0  0  0  0  0  0  0  0
  142.3170   73.3650  220.4620 C   0  0  0  0  0  0  0  0  0  0  0  0
  143.3920   73.1090  219.4400 C   0  0  2  0  0  0  0  0  0  0  0  0
  143.2010   71.7260  218.7780 C   0  0  0  0  0  0  0  0  0  0  0  0
  144.5190   71.1500  218.2290 C   0  0  0  0  0  0  0  0  0  0  0  0
  145.5130   72.2650  217.8820 C   0  0  0  0  0  0  0  0  0  0  0  0
  145.8750   73.0740  219.0620 N   0  0  0  0  0  0  0  0  0  0  0  0
  144.7980   73.2270  220.0630 C   0  0  0  0  0  0  0  0  0  0  0  0
  141.8520   72.3450  221.2270 N   0  0  0  0  0  0  0  0  0  0  0  0
  140.8980   72.5660  222.1700 C   0  0  0  0  0  0  0  0  0  0  0  0
  140.3950   71.4800  222.9750 N   0  0  0  0  0  0  0  0  0  0  0  0
  139.1520   70.7930  222.5860 C   0  0  0  0  0  0  0  0  0  0  0  0
  139.1940   69.3240  222.9980 C   0  0  0  0  0  0  0  0  0  0  0  0
  139.4850   69.2100  224.4640 C   0  0  0  0  0  0  0  0  0  0  0  0
  138.9110   68.1790  225.2260 C   0  0  0  0  0  0  0  0  0  0  0  0
  139.2100   68.0620  226.5850 C   0  0  0  0  0  0  0  0  0  0  0  0
  140.0910   68.9610  227.1890 C   0  0  0  0  0  0  0  0  0  0  0  0
  140.6780   69.9790  226.4340 C   0  0  0  0  0  0  0  0  0  0  0  0
  140.3750   70.1170  225.0700 C   0  0  0  0  0  0  0  0  0  0  0  0
  141.0570   71.1970  224.2630 C   0  0  0  0  0  0  0  0  0  0  0  0
  140.4170   73.8260  222.3420 N   0  0  0  0  0  0  0  0  0  0  0  0
  141.0820   77.1000  222.6970 C   0  0  0  0  0  0  0  0  0  0  0  0
  139.0518   82.1138  222.9854 H   0  0  0  0  0  0  0  0  0  0  0  0
  141.3691   81.6472  223.7822 H   0  0  0  0  0  0  0  0  0  0  0  0
  142.3003   79.3392  223.6439 H   0  0  0  0  0  0  0  0  0  0  0  0
  137.6637   80.2726  222.0312 H   0  0  0  0  0  0  0  0  0  0  0  0
  137.8854   77.1234  222.5568 H   0  0  0  0  0  0  0  0  0  0  0  0
  137.6132   78.0702  221.0495 H   0  0  0  0  0  0  0  0  0  0  0  0
  138.6364   75.8125  220.6362 H   0  0  0  0  0  0  0  0  0  0  0  0
  139.6601   77.1884  220.0685 H   0  0  0  0  0  0  0  0  0  0  0  0
  143.3042   73.8808  218.6611 H   0  0  0  0  0  0  0  0  0  0  0  0
  142.7958   71.0292  219.5265 H   0  0  0  0  0  0  0  0  0  0  0  0
  142.5119   71.8528  217.9300 H   0  0  0  0  0  0  0  0  0  0  0  0
  144.9676   70.4940  218.9896 H   0  0  0  0  0  0  0  0  0  0  0  0
  144.2957   70.5861  217.3113 H   0  0  0  0  0  0  0  0  0  0  0  0
  146.4261   71.8105  217.4701 H   0  0  0  0  0  0  0  0  0  0  0  0
  145.0328   72.9307  217.1497 H   0  0  0  0  0  0  0  0  0  0  0  0
  146.1580   74.0240  218.7270 H   0  0  0  0  0  0  0  0  0  0  0  0
  144.9123   72.4437  220.8268 H   0  0  0  0  0  0  0  0  0  0  0  0
  144.8872   74.2329  220.4991 H   0  0  0  0  0  0  0  0  0  0  0  0
  138.2996   71.2821  223.0802 H   0  0  0  0  0  0  0  0  0  0  0  0
  139.0444   70.8500  221.4928 H   0  0  0  0  0  0  0  0  0  0  0  0
  138.2215   68.8574  222.7825 H   0  0  0  0  0  0  0  0  0  0  0  0
  139.9869   68.8131  222.4320 H   0  0  0  0  0  0  0  0  0  0  0  0
  138.2246   67.4624  224.7513 H   0  0  0  0  0  0  0  0  0  0  0  0
  138.7504   67.2597  227.1810 H   0  0  0  0  0  0  0  0  0  0  0  0
  140.3230   68.8675  228.2602 H   0  0  0  0  0  0  0  0  0  0  0  0
  141.3819   70.6768  226.9109 H   0  0  0  0  0  0  0  0  0  0  0  0
  141.0679   72.1216  224.8588 H   0  0  0  0  0  0  0  0  0  0  0  0
  142.0700   70.8356  224.0321 H   0  0  0  0  0  0  0  0  0  0  0  0
  141.0284   76.6807  223.7126 H   0  0  0  0  0  0  0  0  0  0  0  0
  142.1158   77.1778  222.3293 H   0  0  0  0  0  0  0  0  0  0  0  0
  1  2  2  0
  2  3  1  0
  3  4  2  0
  4  5  1  0
  5  6  2  0
  5  7  1  0
  7  8  1  0
  8  9  1  0
  9 10  1  0
 10 11  2  0
 11 12  1  0
 12 13  1  0
 13 14  1  0
 14 15  1  0
 15 16  1  0
 16 17  1  0
 17 18  1  0
 12 19  2  0
 19 20  1  0
 20 21  1  0
 21 22  1  0
 22 23  1  0
 23 24  1  0
 24 25  2  0
 25 26  1  0
 26 27  2  0
 27 28  1  0
 28 29  2  0
 29 30  1  0
 20 31  2  0
  9 32  1  0
  6  1  1  0
 31 10  1  0
 32  4  1  0
 18 13  1  0
 30 21  1  0
 29 24  1  0
  1 33  1  0
  2 34  1  0
  3 35  1  0
  6 36  1  0
  7 37  1  0
  7 38  1  0
  8 39  1  0
  8 40  1  0
 13 41  1  6
 14 42  1  0
 14 43  1  0
 15 44  1  0
 15 45  1  0
 16 46  1  0
 16 47  1  0
 17 48  1  0
 18 49  1  0
 18 50  1  0
 22 51  1  0
 22 52  1  0
 23 53  1  0
 23 54  1  0
 25 55  1  0
 26 56  1  0
 27 57  1  0
 28 58  1  0
 30 59  1  0
 30 60  1  0
 32 61  1  0
 32 62  1  0
M  END
>  <UniqueID>  (73) 
679

>  <SMILES>  (73) 
c1ccc2c(c1)CCN(c1nc([C@@H]3CCCNC3)nc(N3CCc4ccccc4C3)n1)C2

>  <Energy>  (73) 
77.55306268174873

>  <Genealogy>  (73) 
c1ccc2c(c1)CCN(c1nc([C@@H]3CCCNC3)nc(N3CCc4ccccc4C3)n1)C2 (chirality)
c1ccc2c(c1)CCN(c1nc([C@@H]3CCCNC3)nc(N3CCc4ccccc4C3)n1)C2 (3D coordinates assigned)
c1ccc2c(c1)CCN(c1nc([C@@H]3CCCNC3)nc(N3CCc4ccccc4C3)n1)C2 (nonaromatic ring conformer: 77.55306268174873 kcal/mol)

>  <smiles>  (73) 
c1ccc2c(c1)CCN(c1nc(C3CCCNC3)nc(N3CCc4ccccc4C3)n1)C2

>  <score_type>  (73) 
oracle

>  <origin>  (73) 
autodockgpu

>  <m_score__min__energy>  (73) 
-9.6400000000000006

>  <m_primary>  (73) 
energy

>  <meeko>  (73) 
{"free_energy": -9.59, "intermolecular_energy": -10.49, "internal_energy": -0.78, "cluster_size": 20, "cluster_id": 1, "rank_in_cluster": 13}

>  <energy>  (73) 
-9.59

>  <cluster_rmsd>  (73) 
0.06

>  <rmsd>  (73) 
272.04

>  <cluster>  (73) 
1

$$$$
ZPZIUNMFLXMAPV-OAQYLSRUNA-N
     RDKit          3D

 62 67  0  0  0  0  0  0  0  0999 V2000
  139.1980   68.1060  226.7210 C   0  0  0  0  0  0  0  0  0  0  0  0
  140.0720   69.0210  227.3100 C   0  0  0  0  0  0  0  0  0  0  0  0
  140.6610   70.0260  226.5380 C   0  0  0  0  0  0  0  0  0  0  0  0
  140.3660   70.1330  225.1700 C   0  0  0  0  0  0  0  0  0  0  0  0
  139.4790   69.2140  224.5780 C   0  0  0  0  0  0  0  0  0  0  0  0
  138.9050   68.1960  225.3570 C   0  0  0  0  0  0  0  0  0  0  0  0
  139.1950   69.2950  223.1090 C   0  0  0  0  0  0  0  0  0  0  0  0
  139.1610   70.7540  222.6620 C   0  0  0  0  0  0  0  0  0  0  0  0
  140.4020   71.4480  223.0430 N   0  0  0  0  0  0  0  0  0  0  0  0
  140.9130   72.5130  222.2150 C   0  0  0  0  0  0  0  0  0  0  0  0
  141.8830   72.2610  221.2980 N   0  0  0  0  0  0  0  0  0  0  0  0
  142.3760   73.2610  220.5220 C   0  0  0  0  0  0  0  0  0  0  0  0
  143.4330   72.9740  219.4890 C   0  0  2  0  0  0  0  0  0  0  0  0
  143.3020   71.5310  218.9560 C   0  0  0  0  0  0  0  0  0  0  0  0
  144.6330   70.9810  218.4130 C   0  0  0  0  0  0  0  0  0  0  0  0
  145.5510   72.1120  217.9360 C   0  0  0  0  0  0  0  0  0  0  0  0
  145.9020   73.0400  219.0300 N   0  0  0  0  0  0  0  0  0  0  0  0
  144.8480   73.2220  220.0500 C   0  0  0  0  0  0  0  0  0  0  0  0
  141.8810   74.5180  220.6530 N   0  0  0  0  0  0  0  0  0  0  0  0
  140.9090   74.7860  221.5650 C   0  0  0  0  0  0  0  0  0  0  0  0
  140.3910   76.1240  221.7140 N   0  0  0  0  0  0  0  0  0  0  0  0
  139.2910   76.5850  220.8500 C   0  0  0  0  0  0  0  0  0  0  0  0
  138.4040   77.5840  221.5890 C   0  0  0  0  0  0  0  0  0  0  0  0
  139.2350   78.7120  222.1220 C   0  0  0  0  0  0  0  0  0  0  0  0
  138.7140   80.0150  222.1780 C   0  0  0  0  0  0  0  0  0  0  0  0
  139.4830   81.0560  222.7020 C   0  0  0  0  0  0  0  0  0  0  0  0
  140.7680   80.8020  223.1870 C   0  0  0  0  0  0  0  0  0  0  0  0
  141.2870   79.5060  223.1500 C   0  0  0  0  0  0  0  0  0  0  0  0
  140.5290   78.4530  222.6110 C   0  0  0  0  0  0  0  0  0  0  0  0
  141.0920   77.0510  222.6230 C   0  0  0  0  0  0  0  0  0  0  0  0
  140.4330   73.7780  222.3430 N   0  0  0  0  0  0  0  0  0  0  0  0
  141.0550   71.1930  224.3420 C   0  0  0  0  0  0  0  0  0  0  0  0
  138.7394   67.3134  227.3305 H   0  0  0  0  0  0  0  0  0  0  0  0
  140.2977   68.9509  228.3843 H   0  0  0  0  0  0  0  0  0  0  0  0
  141.3591   70.7365  227.0047 H   0  0  0  0  0  0  0  0  0  0  0  0
  138.2234   67.4680  224.8929 H   0  0  0  0  0  0  0  0  0  0  0  0
  139.9833   68.7632  222.5560 H   0  0  0  0  0  0  0  0  0  0  0  0
  138.2181   68.8326  222.9047 H   0  0  0  0  0  0  0  0  0  0  0  0
  139.0472   70.7933  221.5686 H   0  0  0  0  0  0  0  0  0  0  0  0
  138.3133   71.2532  223.1541 H   0  0  0  0  0  0  0  0  0  0  0  0
  143.2775   73.6683  218.6501 H   0  0  0  0  0  0  0  0  0  0  0  0
  142.9600   70.8818  219.7755 H   0  0  0  0  0  0  0  0  0  0  0  0
  142.5819   71.5455  218.1246 H   0  0  0  0  0  0  0  0  0  0  0  0
  145.1410   70.4200  219.2113 H   0  0  0  0  0  0  0  0  0  0  0  0
  144.4141   70.3273  217.5558 H   0  0  0  0  0  0  0  0  0  0  0  0
  146.4754   71.6727  217.5330 H   0  0  0  0  0  0  0  0  0  0  0  0
  145.0127   72.6838  217.1658 H   0  0  0  0  0  0  0  0  0  0  0  0
  146.1200   73.9710  218.6040 H   0  0  0  0  0  0  0  0  0  0  0  0
  145.0293   72.5163  220.8741 H   0  0  0  0  0  0  0  0  0  0  0  0
  144.8927   74.2660  220.3937 H   0  0  0  0  0  0  0  0  0  0  0  0
  139.7126   77.0689  219.9566 H   0  0  0  0  0  0  0  0  0  0  0  0
  138.6804   75.7164  220.5626 H   0  0  0  0  0  0  0  0  0  0  0  0
  137.6495   77.9836  220.8955 H   0  0  0  0  0  0  0  0  0  0  0  0
  137.9074   77.0741  222.4277 H   0  0  0  0  0  0  0  0  0  0  0  0
  137.6977   80.2159  221.8082 H   0  0  0  0  0  0  0  0  0  0  0  0
  139.0763   82.0776  222.7329 H   0  0  0  0  0  0  0  0  0  0  0  0
  141.3721   81.6240  223.5987 H   0  0  0  0  0  0  0  0  0  0  0  0
  142.2945   79.3086  223.5449 H   0  0  0  0  0  0  0  0  0  0  0  0
  142.1493   77.0985  222.3233 H   0  0  0  0  0  0  0  0  0  0  0  0
  140.9628   76.6608  223.6433 H   0  0  0  0  0  0  0  0  0  0  0  0
  142.0890   70.8687  224.1533 H   0  0  0  0  0  0  0  0  0  0  0  0
  141.0075   72.1305  224.9155 H   0  0  0  0  0  0  0  0  0  0  0  0
  1  2  2  0
  2  3  1  0
  3  4  2  0
  4  5  1  0
  5  6  2  0
  5  7  1  0
  7  8  1  0
  8  9  1  0
  9 10  1  0
 10 11  2  0
 11 12  1  0
 12 13  1  0
 13 14  1  0
 14 15  1  0
 15 16  1  0
 16 17  1  0
 17 18  1  0
 12 19  2  0
 19 20  1  0
 20 21  1  0
 21 22  1  0
 22 23  1  0
 23 24  1  0
 24 25  2  0
 25 26  1  0
 26 27  2  0
 27 28  1  0
 28 29  2  0
 29 30  1  0
 20 31  2  0
  9 32  1  0
  6  1  1  0
 31 10  1  0
 32  4  1  0
 18 13  1  0
 30 21  1  0
 29 24  1  0
  1 33  1  0
  2 34  1  0
  3 35  1  0
  6 36  1  0
  7 37  1  0
  7 38  1  0
  8 39  1  0
  8 40  1  0
 13 41  1  6
 14 42  1  0
 14 43  1  0
 15 44  1  0
 15 45  1  0
 16 46  1  0
 16 47  1  0
 17 48  1  0
 18 49  1  0
 18 50  1  0
 22 51  1  0
 22 52  1  0
 23 53  1  0
 23 54  1  0
 25 55  1  0
 26 56  1  0
 27 57  1  0
 28 58  1  0
 30 59  1  0
 30 60  1  0
 32 61  1  0
 32 62  1  0
M  END
>  <UniqueID>  (74) 
679

>  <SMILES>  (74) 
c1ccc2c(c1)CCN(c1nc([C@@H]3CCCNC3)nc(N3CCc4ccccc4C3)n1)C2

>  <Energy>  (74) 
77.55306268174873

>  <Genealogy>  (74) 
c1ccc2c(c1)CCN(c1nc([C@@H]3CCCNC3)nc(N3CCc4ccccc4C3)n1)C2 (chirality)
c1ccc2c(c1)CCN(c1nc([C@@H]3CCCNC3)nc(N3CCc4ccccc4C3)n1)C2 (3D coordinates assigned)
c1ccc2c(c1)CCN(c1nc([C@@H]3CCCNC3)nc(N3CCc4ccccc4C3)n1)C2 (nonaromatic ring conformer: 77.55306268174873 kcal/mol)

>  <smiles>  (74) 
c1ccc2c(c1)CCN(c1nc(C3CCCNC3)nc(N3CCc4ccccc4C3)n1)C2

>  <score_type>  (74) 
oracle

>  <origin>  (74) 
autodockgpu

>  <m_score__min__energy>  (74) 
-9.6400000000000006

>  <m_primary>  (74) 
energy

>  <meeko>  (74) 
{"free_energy": -9.59, "intermolecular_energy": -10.48, "internal_energy": -0.78, "cluster_size": 20, "cluster_id": 1, "rank_in_cluster": 16}

>  <energy>  (74) 
-9.59

>  <cluster_rmsd>  (74) 
0.03

>  <rmsd>  (74) 
272.06

>  <cluster>  (74) 
1

$$$$
ZPZIUNMFLXMAPV-OAQYLSRUNA-N
     RDKit          3D

 62 67  0  0  0  0  0  0  0  0999 V2000
  139.2120   68.1600  226.6860 C   0  0  0  0  0  0  0  0  0  0  0  0
  140.0880   69.0710  227.2790 C   0  0  0  0  0  0  0  0  0  0  0  0
  140.6790   70.0780  226.5110 C   0  0  0  0  0  0  0  0  0  0  0  0
  140.3840   70.1910  225.1430 C   0  0  0  0  0  0  0  0  0  0  0  0
  139.4950   69.2760  224.5480 C   0  0  0  0  0  0  0  0  0  0  0  0
  138.9190   68.2560  225.3230 C   0  0  0  0  0  0  0  0  0  0  0  0
  139.2100   69.3630  223.0790 C   0  0  0  0  0  0  0  0  0  0  0  0
  139.1790   70.8240  222.6380 C   0  0  0  0  0  0  0  0  0  0  0  0
  140.4220   71.5140  223.0220 N   0  0  0  0  0  0  0  0  0  0  0  0
  140.9350   72.5810  222.1970 C   0  0  0  0  0  0  0  0  0  0  0  0
  141.9000   72.3300  221.2740 N   0  0  0  0  0  0  0  0  0  0  0  0
  142.3950   73.3310  220.5020 C   0  0  0  0  0  0  0  0  0  0  0  0
  143.4460   73.0450  219.4630 C   0  0  2  0  0  0  0  0  0  0  0  0
  143.2810   71.6190  218.8940 C   0  0  0  0  0  0  0  0  0  0  0  0
  144.5990   71.0510  218.3380 C   0  0  0  0  0  0  0  0  0  0  0  0
  145.5450   72.1720  217.8910 C   0  0  0  0  0  0  0  0  0  0  0  0
  145.9160   73.0640  219.0070 N   0  0  0  0  0  0  0  0  0  0  0  0
  144.8660   73.2450  220.0310 C   0  0  0  0  0  0  0  0  0  0  0  0
  141.9060   74.5900  220.6430 N   0  0  0  0  0  0  0  0  0  0  0  0
  140.9400   74.8580  221.5610 C   0  0  0  0  0  0  0  0  0  0  0  0
  140.4290   76.1980  221.7200 N   0  0  0  0  0  0  0  0  0  0  0  0
  139.4160   76.7120  220.7830 C   0  0  0  0  0  0  0  0  0  0  0  0
  138.4820   77.6960  221.4820 C   0  0  0  0  0  0  0  0  0  0  0  0
  139.2780   78.7870  222.1320 C   0  0  0  0  0  0  0  0  0  0  0  0
  138.7720   80.0950  222.1970 C   0  0  0  0  0  0  0  0  0  0  0  0
  139.5060   81.1010  222.8300 C   0  0  0  0  0  0  0  0  0  0  0  0
  140.7400   80.8050  223.4140 C   0  0  0  0  0  0  0  0  0  0  0  0
  141.2420   79.5030  223.3680 C   0  0  0  0  0  0  0  0  0  0  0  0
  140.5200   78.4860  222.7220 C   0  0  0  0  0  0  0  0  0  0  0  0
  141.0600   77.0750  222.7240 C   0  0  0  0  0  0  0  0  0  0  0  0
  140.4620   73.8480  222.3350 N   0  0  0  0  0  0  0  0  0  0  0  0
  141.0750   71.2530  224.3190 C   0  0  0  0  0  0  0  0  0  0  0  0
  138.7519   67.3658  227.2923 H   0  0  0  0  0  0  0  0  0  0  0  0
  140.3135   68.9961  228.3530 H   0  0  0  0  0  0  0  0  0  0  0  0
  141.3785   70.7853  226.9805 H   0  0  0  0  0  0  0  0  0  0  0  0
  138.2359   67.5312  224.8561 H   0  0  0  0  0  0  0  0  0  0  0  0
  139.9967   68.8316  222.5234 H   0  0  0  0  0  0  0  0  0  0  0  0
  138.2320   68.9033  222.8734 H   0  0  0  0  0  0  0  0  0  0  0  0
  139.0653   70.8681  221.5448 H   0  0  0  0  0  0  0  0  0  0  0  0
  138.3323   71.3230  223.1322 H   0  0  0  0  0  0  0  0  0  0  0  0
  143.3084   73.7637  218.6417 H   0  0  0  0  0  0  0  0  0  0  0  0
  142.9227   70.9579  219.6969 H   0  0  0  0  0  0  0  0  0  0  0  0
  142.5623   71.6715  218.0629 H   0  0  0  0  0  0  0  0  0  0  0  0
  145.0922   70.4574  219.1219 H   0  0  0  0  0  0  0  0  0  0  0  0
  144.3656   70.4250  217.4641 H   0  0  0  0  0  0  0  0  0  0  0  0
  146.4595   71.7209  217.4786 H   0  0  0  0  0  0  0  0  0  0  0  0
  145.0214   72.7755  217.1349 H   0  0  0  0  0  0  0  0  0  0  0  0
  146.1570   73.9990  218.6050 H   0  0  0  0  0  0  0  0  0  0  0  0
  145.0296   72.5145  220.8370 H   0  0  0  0  0  0  0  0  0  0  0  0
  144.9352   74.2784  220.4015 H   0  0  0  0  0  0  0  0  0  0  0  0
  139.9212   77.2234  219.9504 H   0  0  0  0  0  0  0  0  0  0  0  0
  138.8209   75.8663  220.4079 H   0  0  0  0  0  0  0  0  0  0  0  0
  137.7973   78.1363  220.7421 H   0  0  0  0  0  0  0  0  0  0  0  0
  137.9065   77.1617  222.2523 H   0  0  0  0  0  0  0  0  0  0  0  0
  137.7951   80.3282  221.7484 H   0  0  0  0  0  0  0  0  0  0  0  0
  139.1119   82.1272  222.8686 H   0  0  0  0  0  0  0  0  0  0  0  0
  141.3170   81.5989  223.9108 H   0  0  0  0  0  0  0  0  0  0  0  0
  142.2083   79.2724  223.8403 H   0  0  0  0  0  0  0  0  0  0  0  0
  142.1401   77.1161  222.5197 H   0  0  0  0  0  0  0  0  0  0  0  0
  140.8361   76.6462  223.7119 H   0  0  0  0  0  0  0  0  0  0  0  0
  142.1083   70.9274  224.1285 H   0  0  0  0  0  0  0  0  0  0  0  0
  141.0299   72.1883  224.8962 H   0  0  0  0  0  0  0  0  0  0  0  0
  1  2  2  0
  2  3  1  0
  3  4  2  0
  4  5  1  0
  5  6  2  0
  5  7  1  0
  7  8  1  0
  8  9  1  0
  9 10  1  0
 10 11  2  0
 11 12  1  0
 12 13  1  0
 13 14  1  0
 14 15  1  0
 15 16  1  0
 16 17  1  0
 17 18  1  0
 12 19  2  0
 19 20  1  0
 20 21  1  0
 21 22  1  0
 22 23  1  0
 23 24  1  0
 24 25  2  0
 25 26  1  0
 26 27  2  0
 27 28  1  0
 28 29  2  0
 29 30  1  0
 20 31  2  0
  9 32  1  0
  6  1  1  0
 31 10  1  0
 32  4  1  0
 18 13  1  0
 30 21  1  0
 29 24  1  0
  1 33  1  0
  2 34  1  0
  3 35  1  0
  6 36  1  0
  7 37  1  0
  7 38  1  0
  8 39  1  0
  8 40  1  0
 13 41  1  6
 14 42  1  0
 14 43  1  0
 15 44  1  0
 15 45  1  0
 16 46  1  0
 16 47  1  0
 17 48  1  0
 18 49  1  0
 18 50  1  0
 22 51  1  0
 22 52  1  0
 23 53  1  0
 23 54  1  0
 25 55  1  0
 26 56  1  0
 27 57  1  0
 28 58  1  0
 30 59  1  0
 30 60  1  0
 32 61  1  0
 32 62  1  0
M  END
>  <UniqueID>  (75) 
679

>  <SMILES>  (75) 
c1ccc2c(c1)CCN(c1nc([C@@H]3CCCNC3)nc(N3CCc4ccccc4C3)n1)C2

>  <Energy>  (75) 
77.55306268174873

>  <Genealogy>  (75) 
c1ccc2c(c1)CCN(c1nc([C@@H]3CCCNC3)nc(N3CCc4ccccc4C3)n1)C2 (chirality)
c1ccc2c(c1)CCN(c1nc([C@@H]3CCCNC3)nc(N3CCc4ccccc4C3)n1)C2 (3D coordinates assigned)
c1ccc2c(c1)CCN(c1nc([C@@H]3CCCNC3)nc(N3CCc4ccccc4C3)n1)C2 (nonaromatic ring conformer: 77.55306268174873 kcal/mol)

>  <smiles>  (75) 
c1ccc2c(c1)CCN(c1nc(C3CCCNC3)nc(N3CCc4ccccc4C3)n1)C2

>  <score_type>  (75) 
oracle

>  <origin>  (75) 
autodockgpu

>  <m_score__min__energy>  (75) 
-9.6400000000000006

>  <m_primary>  (75) 
energy

>  <meeko>  (75) 
{"free_energy": -9.61, "intermolecular_energy": -10.5, "internal_energy": -0.78, "cluster_size": 20, "cluster_id": 1, "rank_in_cluster": 5}

>  <energy>  (75) 
-9.59

>  <cluster_rmsd>  (75) 
0.06

>  <rmsd>  (75) 
272.03

>  <cluster>  (75) 
1

$$$$
ZPZIUNMFLXMAPV-OAQYLSRUNA-N
     RDKit          3D

 62 67  0  0  0  0  0  0  0  0999 V2000
  139.4290   81.1340  222.9590 C   0  0  0  0  0  0  0  0  0  0  0  0
  140.7260   80.8770  223.4060 C   0  0  0  0  0  0  0  0  0  0  0  0
  141.2560   79.5870  223.3150 C   0  0  0  0  0  0  0  0  0  0  0  0
  140.4970   78.5450  222.7590 C   0  0  0  0  0  0  0  0  0  0  0  0
  139.1910   78.8080  222.3020 C   0  0  0  0  0  0  0  0  0  0  0  0
  138.6590   80.1030  222.4140 C   0  0  0  0  0  0  0  0  0  0  0  0
  138.3580   77.6910  221.7490 C   0  0  0  0  0  0  0  0  0  0  0  0
  139.2380   76.7200  220.9670 C   0  0  0  0  0  0  0  0  0  0  0  0
  140.3570   76.2420  221.7970 N   0  0  0  0  0  0  0  0  0  0  0  0
  140.8790   74.9120  221.6000 C   0  0  0  0  0  0  0  0  0  0  0  0
  141.8370   74.6840  220.6630 N   0  0  0  0  0  0  0  0  0  0  0  0
  142.3250   73.4330  220.4650 C   0  0  0  0  0  0  0  0  0  0  0  0
  143.4050   73.1890  219.4440 C   0  0  2  0  0  0  0  0  0  0  0  0
  143.1990   71.8280  218.7440 C   0  0  0  0  0  0  0  0  0  0  0  0
  144.5120   71.2470  218.1880 C   0  0  0  0  0  0  0  0  0  0  0  0
  145.5250   72.3560  217.8780 C   0  0  0  0  0  0  0  0  0  0  0  0
  145.8900   73.1270  219.0830 N   0  0  0  0  0  0  0  0  0  0  0  0
  144.8070   73.2680  220.0800 C   0  0  0  0  0  0  0  0  0  0  0  0
  141.8640   72.4050  221.2220 N   0  0  0  0  0  0  0  0  0  0  0  0
  140.9070   72.6160  222.1640 C   0  0  0  0  0  0  0  0  0  0  0  0
  140.4070   71.5220  222.9610 N   0  0  0  0  0  0  0  0  0  0  0  0
  139.1740   70.8250  222.5590 C   0  0  0  0  0  0  0  0  0  0  0  0
  139.2260   69.3550  222.9660 C   0  0  0  0  0  0  0  0  0  0  0  0
  139.5060   69.2380  224.4340 C   0  0  0  0  0  0  0  0  0  0  0  0
  138.9360   68.1990  225.1870 C   0  0  0  0  0  0  0  0  0  0  0  0
  139.2240   68.0790  226.5480 C   0  0  0  0  0  0  0  0  0  0  0  0
  140.0920   68.9840  227.1630 C   0  0  0  0  0  0  0  0  0  0  0  0
  140.6760   70.0100  226.4170 C   0  0  0  0  0  0  0  0  0  0  0  0
  140.3830   70.1500  225.0510 C   0  0  0  0  0  0  0  0  0  0  0  0
  141.0610   71.2400  224.2530 C   0  0  0  0  0  0  0  0  0  0  0  0
  140.4190   73.8720  222.3440 N   0  0  0  0  0  0  0  0  0  0  0  0
  141.0690   77.1470  222.7190 C   0  0  0  0  0  0  0  0  0  0  0  0
  139.0125   82.1492  223.0358 H   0  0  0  0  0  0  0  0  0  0  0  0
  141.3320   81.6910  223.8306 H   0  0  0  0  0  0  0  0  0  0  0  0
  142.2738   79.3869  223.6812 H   0  0  0  0  0  0  0  0  0  0  0  0
  137.6335   80.3062  222.0718 H   0  0  0  0  0  0  0  0  0  0  0  0
  137.8714   77.1551  222.5773 H   0  0  0  0  0  0  0  0  0  0  0  0
  137.5955   78.1091  221.0754 H   0  0  0  0  0  0  0  0  0  0  0  0
  138.6312   75.8591  220.6497 H   0  0  0  0  0  0  0  0  0  0  0  0
  139.6481   77.2438  220.0909 H   0  0  0  0  0  0  0  0  0  0  0  0
  143.3348   73.9834  218.6863 H   0  0  0  0  0  0  0  0  0  0  0  0
  142.7785   71.1174  219.4708 H   0  0  0  0  0  0  0  0  0  0  0  0
  142.5181   71.9881  217.8951 H   0  0  0  0  0  0  0  0  0  0  0  0
  144.9455   70.5639  218.9333 H   0  0  0  0  0  0  0  0  0  0  0  0
  144.2866   70.7116  217.2539 H   0  0  0  0  0  0  0  0  0  0  0  0
  146.4343   71.8992  217.4602 H   0  0  0  0  0  0  0  0  0  0  0  0
  145.0605   73.0484  217.1605 H   0  0  0  0  0  0  0  0  0  0  0  0
  146.1890   74.0810  218.7760 H   0  0  0  0  0  0  0  0  0  0  0  0
  144.9036   72.4618  220.8221 H   0  0  0  0  0  0  0  0  0  0  0  0
  144.9077   74.2599  220.5448 H   0  0  0  0  0  0  0  0  0  0  0  0
  138.3129   71.3044  223.0476 H   0  0  0  0  0  0  0  0  0  0  0  0
  139.0753   70.8850  221.4651 H   0  0  0  0  0  0  0  0  0  0  0  0
  138.2595   68.8804  222.7407 H   0  0  0  0  0  0  0  0  0  0  0  0
  140.0282   68.8536  222.4048 H   0  0  0  0  0  0  0  0  0  0  0  0
  138.2608   67.4777  224.7035 H   0  0  0  0  0  0  0  0  0  0  0  0
  138.7665   67.2703  227.1368 H   0  0  0  0  0  0  0  0  0  0  0  0
  140.3158   68.8885  228.2358 H   0  0  0  0  0  0  0  0  0  0  0  0
  141.3695   70.7125  226.9024 H   0  0  0  0  0  0  0  0  0  0  0  0
  141.0583   72.1623  224.8524 H   0  0  0  0  0  0  0  0  0  0  0  0
  142.0790   70.8888  224.0286 H   0  0  0  0  0  0  0  0  0  0  0  0
  141.0178   76.7215  223.7321 H   0  0  0  0  0  0  0  0  0  0  0  0
  142.1024   77.2325  222.3519 H   0  0  0  0  0  0  0  0  0  0  0  0
  1  2  2  0
  2  3  1  0
  3  4  2  0
  4  5  1  0
  5  6  2  0
  5  7  1  0
  7  8  1  0
  8  9  1  0
  9 10  1  0
 10 11  2  0
 11 12  1  0
 12 13  1  0
 13 14  1  0
 14 15  1  0
 15 16  1  0
 16 17  1  0
 17 18  1  0
 12 19  2  0
 19 20  1  0
 20 21  1  0
 21 22  1  0
 22 23  1  0
 23 24  1  0
 24 25  2  0
 25 26  1  0
 26 27  2  0
 27 28  1  0
 28 29  2  0
 29 30  1  0
 20 31  2  0
  9 32  1  0
  6  1  1  0
 31 10  1  0
 32  4  1  0
 18 13  1  0
 30 21  1  0
 29 24  1  0
  1 33  1  0
  2 34  1  0
  3 35  1  0
  6 36  1  0
  7 37  1  0
  7 38  1  0
  8 39  1  0
  8 40  1  0
 13 41  1  6
 14 42  1  0
 14 43  1  0
 15 44  1  0
 15 45  1  0
 16 46  1  0
 16 47  1  0
 17 48  1  0
 18 49  1  0
 18 50  1  0
 22 51  1  0
 22 52  1  0
 23 53  1  0
 23 54  1  0
 25 55  1  0
 26 56  1  0
 27 57  1  0
 28 58  1  0
 30 59  1  0
 30 60  1  0
 32 61  1  0
 32 62  1  0
M  END
>  <UniqueID>  (76) 
679

>  <SMILES>  (76) 
c1ccc2c(c1)CCN(c1nc([C@@H]3CCCNC3)nc(N3CCc4ccccc4C3)n1)C2

>  <Energy>  (76) 
77.55306268174873

>  <Genealogy>  (76) 
c1ccc2c(c1)CCN(c1nc([C@@H]3CCCNC3)nc(N3CCc4ccccc4C3)n1)C2 (chirality)
c1ccc2c(c1)CCN(c1nc([C@@H]3CCCNC3)nc(N3CCc4ccccc4C3)n1)C2 (3D coordinates assigned)
c1ccc2c(c1)CCN(c1nc([C@@H]3CCCNC3)nc(N3CCc4ccccc4C3)n1)C2 (nonaromatic ring conformer: 77.55306268174873 kcal/mol)

>  <smiles>  (76) 
c1ccc2c(c1)CCN(c1nc(C3CCCNC3)nc(N3CCc4ccccc4C3)n1)C2

>  <score_type>  (76) 
oracle

>  <origin>  (76) 
autodockgpu

>  <m_score__min__energy>  (76) 
-9.6400000000000006

>  <m_primary>  (76) 
energy

>  <meeko>  (76) 
{"free_energy": -9.6, "intermolecular_energy": -10.5, "internal_energy": -0.78, "cluster_size": 20, "cluster_id": 1, "rank_in_cluster": 8}

>  <energy>  (76) 
-9.59

>  <cluster_rmsd>  (76) 
0.19

>  <rmsd>  (76) 
272.04

>  <cluster>  (76) 
1

$$$$
ZPZIUNMFLXMAPV-OAQYLSRUNA-N
     RDKit          3D

 62 67  0  0  0  0  0  0  0  0999 V2000
  139.4490   81.0630  222.8830 C   0  0  0  0  0  0  0  0  0  0  0  0
  140.7430   80.8050  223.3370 C   0  0  0  0  0  0  0  0  0  0  0  0
  141.2690   79.5130  223.2620 C   0  0  0  0  0  0  0  0  0  0  0  0
  140.5070   78.4690  222.7130 C   0  0  0  0  0  0  0  0  0  0  0  0
  139.2040   78.7320  222.2490 C   0  0  0  0  0  0  0  0  0  0  0  0
  138.6770   80.0300  222.3450 C   0  0  0  0  0  0  0  0  0  0  0  0
  138.3690   77.6130  221.7040 C   0  0  0  0  0  0  0  0  0  0  0  0
  139.2480   76.6310  220.9350 C   0  0  0  0  0  0  0  0  0  0  0  0
  140.3610   76.1560  221.7740 N   0  0  0  0  0  0  0  0  0  0  0  0
  140.8790   74.8220  221.5920 C   0  0  0  0  0  0  0  0  0  0  0  0
  141.8390   74.5810  220.6620 N   0  0  0  0  0  0  0  0  0  0  0  0
  142.3240   73.3260  220.4780 C   0  0  0  0  0  0  0  0  0  0  0  0
  143.4060   73.0670  219.4640 C   0  0  2  0  0  0  0  0  0  0  0  0
  143.2100   71.6910  218.7920 C   0  0  0  0  0  0  0  0  0  0  0  0
  144.5270   71.1070  218.2510 C   0  0  0  0  0  0  0  0  0  0  0  0
  145.5340   72.2150  217.9200 C   0  0  0  0  0  0  0  0  0  0  0  0
  145.8920   73.0130  219.1090 N   0  0  0  0  0  0  0  0  0  0  0  0
  144.8070   73.1680  220.1010 C   0  0  0  0  0  0  0  0  0  0  0  0
  141.8550   72.3080  221.2440 N   0  0  0  0  0  0  0  0  0  0  0  0
  140.8950   72.5310  222.1790 C   0  0  0  0  0  0  0  0  0  0  0  0
  140.3870   71.4480  222.9850 N   0  0  0  0  0  0  0  0  0  0  0  0
  139.1290   70.7810  222.6090 C   0  0  0  0  0  0  0  0  0  0  0  0
  139.1550   69.3090  223.0120 C   0  0  0  0  0  0  0  0  0  0  0  0
  139.4650   69.1820  224.4730 C   0  0  0  0  0  0  0  0  0  0  0  0
  138.8870   68.1550  225.2360 C   0  0  0  0  0  0  0  0  0  0  0  0
  139.2030   68.0240  226.5910 C   0  0  0  0  0  0  0  0  0  0  0  0
  140.1060   68.9070  227.1880 C   0  0  0  0  0  0  0  0  0  0  0  0
  140.6970   69.9210  226.4310 C   0  0  0  0  0  0  0  0  0  0  0  0
  140.3770   70.0710  225.0720 C   0  0  0  0  0  0  0  0  0  0  0  0
  141.0630   71.1470  224.2610 C   0  0  0  0  0  0  0  0  0  0  0  0
  140.4110   73.7910  222.3450 N   0  0  0  0  0  0  0  0  0  0  0  0
  141.0730   77.0680  222.6900 C   0  0  0  0  0  0  0  0  0  0  0  0
  139.0363   82.0805  222.9487 H   0  0  0  0  0  0  0  0  0  0  0  0
  141.3505   81.6212  223.7551 H   0  0  0  0  0  0  0  0  0  0  0  0
  142.2844   79.3126  223.6346 H   0  0  0  0  0  0  0  0  0  0  0  0
  137.6540   80.2341  221.9959 H   0  0  0  0  0  0  0  0  0  0  0  0
  137.8773   77.0872  222.5357 H   0  0  0  0  0  0  0  0  0  0  0  0
  137.6107   78.0274  221.0234 H   0  0  0  0  0  0  0  0  0  0  0  0
  138.6388   75.7699  220.6231 H   0  0  0  0  0  0  0  0  0  0  0  0
  139.6642   77.1448  220.0559 H   0  0  0  0  0  0  0  0  0  0  0  0
  143.3315   73.8445  218.6894 H   0  0  0  0  0  0  0  0  0  0  0  0
  142.7923   70.9930  219.5325 H   0  0  0  0  0  0  0  0  0  0  0  0
  142.5300   71.8294  217.9385 H   0  0  0  0  0  0  0  0  0  0  0  0
  144.9630   70.4421  219.0111 H   0  0  0  0  0  0  0  0  0  0  0  0
  144.3067   70.5512  217.3277 H   0  0  0  0  0  0  0  0  0  0  0  0
  146.4468   71.7549  217.5136 H   0  0  0  0  0  0  0  0  0  0  0  0
  145.0669   72.8895  217.1873 H   0  0  0  0  0  0  0  0  0  0  0  0
  146.1870   73.9630  218.7830 H   0  0  0  0  0  0  0  0  0  0  0  0
  144.9073   72.3781  220.8599 H   0  0  0  0  0  0  0  0  0  0  0  0
  144.9009   74.1698  220.5454 H   0  0  0  0  0  0  0  0  0  0  0  0
  138.2905   71.2794  223.1174 H   0  0  0  0  0  0  0  0  0  0  0  0
  139.0078   70.8459  221.5176 H   0  0  0  0  0  0  0  0  0  0  0  0
  138.1727   68.8581  222.8077 H   0  0  0  0  0  0  0  0  0  0  0  0
  139.9322   68.7899  222.4319 H   0  0  0  0  0  0  0  0  0  0  0  0
  138.1837   67.4517  224.7661 H   0  0  0  0  0  0  0  0  0  0  0  0
  138.7401   67.2246  227.1882 H   0  0  0  0  0  0  0  0  0  0  0  0
  140.3518   68.8036  228.2552 H   0  0  0  0  0  0  0  0  0  0  0  0
  141.4173   70.6061  226.9021 H   0  0  0  0  0  0  0  0  0  0  0  0
  141.0960   72.0675  224.8623 H   0  0  0  0  0  0  0  0  0  0  0  0
  142.0670   70.7723  224.0129 H   0  0  0  0  0  0  0  0  0  0  0  0
  141.0154   76.6534  223.7072 H   0  0  0  0  0  0  0  0  0  0  0  0
  142.1083   77.1453  222.3265 H   0  0  0  0  0  0  0  0  0  0  0  0
  1  2  2  0
  2  3  1  0
  3  4  2  0
  4  5  1  0
  5  6  2  0
  5  7  1  0
  7  8  1  0
  8  9  1  0
  9 10  1  0
 10 11  2  0
 11 12  1  0
 12 13  1  0
 13 14  1  0
 14 15  1  0
 15 16  1  0
 16 17  1  0
 17 18  1  0
 12 19  2  0
 19 20  1  0
 20 21  1  0
 21 22  1  0
 22 23  1  0
 23 24  1  0
 24 25  2  0
 25 26  1  0
 26 27  2  0
 27 28  1  0
 28 29  2  0
 29 30  1  0
 20 31  2  0
  9 32  1  0
  6  1  1  0
 31 10  1  0
 32  4  1  0
 18 13  1  0
 30 21  1  0
 29 24  1  0
  1 33  1  0
  2 34  1  0
  3 35  1  0
  6 36  1  0
  7 37  1  0
  7 38  1  0
  8 39  1  0
  8 40  1  0
 13 41  1  6
 14 42  1  0
 14 43  1  0
 15 44  1  0
 15 45  1  0
 16 46  1  0
 16 47  1  0
 17 48  1  0
 18 49  1  0
 18 50  1  0
 22 51  1  0
 22 52  1  0
 23 53  1  0
 23 54  1  0
 25 55  1  0
 26 56  1  0
 27 57  1  0
 28 58  1  0
 30 59  1  0
 30 60  1  0
 32 61  1  0
 32 62  1  0
M  END
>  <UniqueID>  (77) 
679

>  <SMILES>  (77) 
c1ccc2c(c1)CCN(c1nc([C@@H]3CCCNC3)nc(N3CCc4ccccc4C3)n1)C2

>  <Energy>  (77) 
77.55306268174873

>  <Genealogy>  (77) 
c1ccc2c(c1)CCN(c1nc([C@@H]3CCCNC3)nc(N3CCc4ccccc4C3)n1)C2 (chirality)
c1ccc2c(c1)CCN(c1nc([C@@H]3CCCNC3)nc(N3CCc4ccccc4C3)n1)C2 (3D coordinates assigned)
c1ccc2c(c1)CCN(c1nc([C@@H]3CCCNC3)nc(N3CCc4ccccc4C3)n1)C2 (nonaromatic ring conformer: 77.55306268174873 kcal/mol)

>  <smiles>  (77) 
c1ccc2c(c1)CCN(c1nc(C3CCCNC3)nc(N3CCc4ccccc4C3)n1)C2

>  <score_type>  (77) 
oracle

>  <origin>  (77) 
autodockgpu

>  <m_score__min__energy>  (77) 
-9.6400000000000006

>  <m_primary>  (77) 
energy

>  <meeko>  (77) 
{"free_energy": -9.61, "intermolecular_energy": -10.5, "internal_energy": -0.78, "cluster_size": 20, "cluster_id": 1, "rank_in_cluster": 6}

>  <energy>  (77) 
-9.58

>  <cluster_rmsd>  (77) 
0.05

>  <rmsd>  (77) 
272.05

>  <cluster>  (77) 
1

$$$$
ZPZIUNMFLXMAPV-OAQYLSRUNA-N
     RDKit          3D

 62 67  0  0  0  0  0  0  0  0999 V2000
  139.1770   68.0840  226.4680 C   0  0  0  0  0  0  0  0  0  0  0  0
  140.0330   68.9840  227.1050 C   0  0  0  0  0  0  0  0  0  0  0  0
  140.6210   70.0250  226.3800 C   0  0  0  0  0  0  0  0  0  0  0  0
  140.3430   70.1820  225.0130 C   0  0  0  0  0  0  0  0  0  0  0  0
  139.4740   69.2770  224.3740 C   0  0  0  0  0  0  0  0  0  0  0  0
  138.9010   68.2240  225.1060 C   0  0  0  0  0  0  0  0  0  0  0  0
  139.2080   69.4130  222.9050 C   0  0  0  0  0  0  0  0  0  0  0  0
  139.1640   70.8870  222.5160 C   0  0  0  0  0  0  0  0  0  0  0  0
  140.3920   71.5790  222.9400 N   0  0  0  0  0  0  0  0  0  0  0  0
  140.9020   72.6810  222.1600 C   0  0  0  0  0  0  0  0  0  0  0  0
  141.8830   72.4750  221.2440 N   0  0  0  0  0  0  0  0  0  0  0  0
  142.3750   73.5090  220.5140 C   0  0  0  0  0  0  0  0  0  0  0  0
  143.4450   73.2730  219.4810 C   0  0  2  0  0  0  0  0  0  0  0  0
  143.1860   71.9570  218.7140 C   0  0  0  0  0  0  0  0  0  0  0  0
  144.4760   71.3540  218.1300 C   0  0  0  0  0  0  0  0  0  0  0  0
  145.5320   72.4360  217.8740 C   0  0  0  0  0  0  0  0  0  0  0  0
  145.9260   73.1310  219.1150 N   0  0  0  0  0  0  0  0  0  0  0  0
  144.8490   73.2660  220.1190 C   0  0  0  0  0  0  0  0  0  0  0  0
  141.8680   74.7550  220.6910 N   0  0  0  0  0  0  0  0  0  0  0  0
  140.8850   74.9790  221.6040 C   0  0  0  0  0  0  0  0  0  0  0  0
  140.3540   76.3050  221.8010 N   0  0  0  0  0  0  0  0  0  0  0  0
  139.2100   76.7650  220.9950 C   0  0  0  0  0  0  0  0  0  0  0  0
  138.3420   77.7350  221.7910 C   0  0  0  0  0  0  0  0  0  0  0  0
  139.1780   78.8660  222.3100 C   0  0  0  0  0  0  0  0  0  0  0  0
  138.6410   80.1590  222.4140 C   0  0  0  0  0  0  0  0  0  0  0  0
  139.4170   81.2030  222.9250 C   0  0  0  0  0  0  0  0  0  0  0  0
  140.7260   80.9600  223.3480 C   0  0  0  0  0  0  0  0  0  0  0  0
  141.2610   79.6730  223.2630 C   0  0  0  0  0  0  0  0  0  0  0  0
  140.4970   78.6190  222.7370 C   0  0  0  0  0  0  0  0  0  0  0  0
  141.0800   77.2260  222.6960 C   0  0  0  0  0  0  0  0  0  0  0  0
  140.4100   73.9360  222.3350 N   0  0  0  0  0  0  0  0  0  0  0  0
  141.0310   71.2810  224.2370 C   0  0  0  0  0  0  0  0  0  0  0  0
  138.7191   67.2632  227.0396 H   0  0  0  0  0  0  0  0  0  0  0  0
  140.2453   68.8741  228.1787 H   0  0  0  0  0  0  0  0  0  0  0  0
  141.3048   70.7244  226.8833 H   0  0  0  0  0  0  0  0  0  0  0  0
  138.2331   67.5077  224.6052 H   0  0  0  0  0  0  0  0  0  0  0  0
  140.0090   68.9116  222.3420 H   0  0  0  0  0  0  0  0  0  0  0  0
  138.2389   68.9488  222.6695 H   0  0  0  0  0  0  0  0  0  0  0  0
  139.0636   70.9684  221.4236 H   0  0  0  0  0  0  0  0  0  0  0  0
  138.3049   71.3572  223.0168 H   0  0  0  0  0  0  0  0  0  0  0  0
  143.4067   74.1055  218.7631 H   0  0  0  0  0  0  0  0  0  0  0  0
  142.7367   71.2283  219.4047 H   0  0  0  0  0  0  0  0  0  0  0  0
  142.5128   72.1853  217.8745 H   0  0  0  0  0  0  0  0  0  0  0  0
  144.8815   70.6189  218.8409 H   0  0  0  0  0  0  0  0  0  0  0  0
  144.2312   70.8746  217.1707 H   0  0  0  0  0  0  0  0  0  0  0  0
  146.4229   71.9650  217.4329 H   0  0  0  0  0  0  0  0  0  0  0  0
  145.0958   73.1808  217.1921 H   0  0  0  0  0  0  0  0  0  0  0  0
  146.2630   74.0870  218.8550 H   0  0  0  0  0  0  0  0  0  0  0  0
  144.9133   72.4217  220.8211 H   0  0  0  0  0  0  0  0  0  0  0  0
  144.9883   74.2293  220.6314 H   0  0  0  0  0  0  0  0  0  0  0  0
  139.5846   77.2724  220.0937 H   0  0  0  0  0  0  0  0  0  0  0  0
  138.6004   75.8924  220.7175 H   0  0  0  0  0  0  0  0  0  0  0  0
  137.5520   78.1357  221.1389 H   0  0  0  0  0  0  0  0  0  0  0  0
  137.8906   77.2011  222.6403 H   0  0  0  0  0  0  0  0  0  0  0  0
  137.6067   80.3509  222.0924 H   0  0  0  0  0  0  0  0  0  0  0  0
  138.9966   82.2171  222.9942 H   0  0  0  0  0  0  0  0  0  0  0  0
  141.3358   81.7833  223.7484 H   0  0  0  0  0  0  0  0  0  0  0  0
  142.2874   79.4837  223.6103 H   0  0  0  0  0  0  0  0  0  0  0  0
  142.1222   77.2958  222.3511 H   0  0  0  0  0  0  0  0  0  0  0  0
  141.0010   76.8146  223.7131 H   0  0  0  0  0  0  0  0  0  0  0  0
  142.0711   70.9757  224.0500 H   0  0  0  0  0  0  0  0  0  0  0  0
  140.9657   72.1948  224.8459 H   0  0  0  0  0  0  0  0  0  0  0  0
  1  2  2  0
  2  3  1  0
  3  4  2  0
  4  5  1  0
  5  6  2  0
  5  7  1  0
  7  8  1  0
  8  9  1  0
  9 10  1  0
 10 11  2  0
 11 12  1  0
 12 13  1  0
 13 14  1  0
 14 15  1  0
 15 16  1  0
 16 17  1  0
 17 18  1  0
 12 19  2  0
 19 20  1  0
 20 21  1  0
 21 22  1  0
 22 23  1  0
 23 24  1  0
 24 25  2  0
 25 26  1  0
 26 27  2  0
 27 28  1  0
 28 29  2  0
 29 30  1  0
 20 31  2  0
  9 32  1  0
  6  1  1  0
 31 10  1  0
 32  4  1  0
 18 13  1  0
 30 21  1  0
 29 24  1  0
  1 33  1  0
  2 34  1  0
  3 35  1  0
  6 36  1  0
  7 37  1  0
  7 38  1  0
  8 39  1  0
  8 40  1  0
 13 41  1  6
 14 42  1  0
 14 43  1  0
 15 44  1  0
 15 45  1  0
 16 46  1  0
 16 47  1  0
 17 48  1  0
 18 49  1  0
 18 50  1  0
 22 51  1  0
 22 52  1  0
 23 53  1  0
 23 54  1  0
 25 55  1  0
 26 56  1  0
 27 57  1  0
 28 58  1  0
 30 59  1  0
 30 60  1  0
 32 61  1  0
 32 62  1  0
M  END
>  <UniqueID>  (78) 
679

>  <SMILES>  (78) 
c1ccc2c(c1)CCN(c1nc([C@@H]3CCCNC3)nc(N3CCc4ccccc4C3)n1)C2

>  <Energy>  (78) 
77.55306268174873

>  <Genealogy>  (78) 
c1ccc2c(c1)CCN(c1nc([C@@H]3CCCNC3)nc(N3CCc4ccccc4C3)n1)C2 (chirality)
c1ccc2c(c1)CCN(c1nc([C@@H]3CCCNC3)nc(N3CCc4ccccc4C3)n1)C2 (3D coordinates assigned)
c1ccc2c(c1)CCN(c1nc([C@@H]3CCCNC3)nc(N3CCc4ccccc4C3)n1)C2 (nonaromatic ring conformer: 77.55306268174873 kcal/mol)

>  <smiles>  (78) 
c1ccc2c(c1)CCN(c1nc(C3CCCNC3)nc(N3CCc4ccccc4C3)n1)C2

>  <score_type>  (78) 
oracle

>  <origin>  (78) 
autodockgpu

>  <m_score__min__energy>  (78) 
-9.6400000000000006

>  <m_primary>  (78) 
energy

>  <meeko>  (78) 
{"free_energy": -9.6, "intermolecular_energy": -10.49, "internal_energy": -0.78, "cluster_size": 20, "cluster_id": 1, "rank_in_cluster": 11}

>  <energy>  (78) 
-9.57

>  <cluster_rmsd>  (78) 
0.13

>  <rmsd>  (78) 
272.02

>  <cluster>  (78) 
1

$$$$
ZPZIUNMFLXMAPV-OAQYLSRUNA-N
     RDKit          3D

 62 67  0  0  0  0  0  0  0  0999 V2000
  139.4060   81.1210  222.9080 C   0  0  0  0  0  0  0  0  0  0  0  0
  140.7220   80.8820  223.3070 C   0  0  0  0  0  0  0  0  0  0  0  0
  141.2590   79.5950  223.2170 C   0  0  0  0  0  0  0  0  0  0  0  0
  140.4870   78.5380  222.7080 C   0  0  0  0  0  0  0  0  0  0  0  0
  139.1630   78.7830  222.3000 C   0  0  0  0  0  0  0  0  0  0  0  0
  138.6240   80.0750  222.4110 C   0  0  0  0  0  0  0  0  0  0  0  0
  138.3180   77.6500  221.7990 C   0  0  0  0  0  0  0  0  0  0  0  0
  139.1750   76.6730  220.9990 C   0  0  0  0  0  0  0  0  0  0  0  0
  140.3290   76.2180  221.7910 N   0  0  0  0  0  0  0  0  0  0  0  0
  140.8560   74.8880  221.5960 C   0  0  0  0  0  0  0  0  0  0  0  0
  141.8130   74.6620  220.6580 N   0  0  0  0  0  0  0  0  0  0  0  0
  142.3050   73.4120  220.4610 C   0  0  0  0  0  0  0  0  0  0  0  0
  143.3840   73.1690  219.4400 C   0  0  2  0  0  0  0  0  0  0  0  0
  143.1730   71.8120  218.7330 C   0  0  0  0  0  0  0  0  0  0  0  0
  144.4850   71.2300  218.1750 C   0  0  0  0  0  0  0  0  0  0  0  0
  145.5020   72.3370  217.8710 C   0  0  0  0  0  0  0  0  0  0  0  0
  145.8690   73.1000  219.0800 N   0  0  0  0  0  0  0  0  0  0  0  0
  144.7860   73.2410  220.0770 C   0  0  0  0  0  0  0  0  0  0  0  0
  141.8470   72.3840  221.2210 N   0  0  0  0  0  0  0  0  0  0  0  0
  140.8900   72.5930  222.1630 C   0  0  0  0  0  0  0  0  0  0  0  0
  140.3940   71.5000  222.9620 N   0  0  0  0  0  0  0  0  0  0  0  0
  139.1540   70.8080  222.5700 C   0  0  0  0  0  0  0  0  0  0  0  0
  139.2040   69.3370  222.9730 C   0  0  0  0  0  0  0  0  0  0  0  0
  139.4980   69.2150  224.4380 C   0  0  0  0  0  0  0  0  0  0  0  0
  138.9310   68.1760  225.1940 C   0  0  0  0  0  0  0  0  0  0  0  0
  139.2330   68.0520  226.5520 C   0  0  0  0  0  0  0  0  0  0  0  0
  140.1100   68.9520  227.1600 C   0  0  0  0  0  0  0  0  0  0  0  0
  140.6910   69.9780  226.4110 C   0  0  0  0  0  0  0  0  0  0  0  0
  140.3850   70.1220  225.0480 C   0  0  0  0  0  0  0  0  0  0  0  0
  141.0590   71.2110  224.2470 C   0  0  0  0  0  0  0  0  0  0  0  0
  140.3980   73.8480  222.3420 N   0  0  0  0  0  0  0  0  0  0  0  0
  141.0700   77.1440  222.6700 C   0  0  0  0  0  0  0  0  0  0  0  0
  138.9840   82.1339  222.9849 H   0  0  0  0  0  0  0  0  0  0  0  0
  141.3374   81.7080  223.6929 H   0  0  0  0  0  0  0  0  0  0  0  0
  142.2918   79.4089  223.5466 H   0  0  0  0  0  0  0  0  0  0  0  0
  137.5841   80.2640  222.1061 H   0  0  0  0  0  0  0  0  0  0  0  0
  137.8691   77.1244  222.6547 H   0  0  0  0  0  0  0  0  0  0  0  0
  137.5257   78.0505  221.1495 H   0  0  0  0  0  0  0  0  0  0  0  0
  138.5635   75.8022  220.7201 H   0  0  0  0  0  0  0  0  0  0  0  0
  139.5459   77.1855  220.0991 H   0  0  0  0  0  0  0  0  0  0  0  0
  143.3174   73.9669  218.6857 H   0  0  0  0  0  0  0  0  0  0  0  0
  142.7497   71.0991  219.4560 H   0  0  0  0  0  0  0  0  0  0  0  0
  142.4926   71.9782  217.8848 H   0  0  0  0  0  0  0  0  0  0  0  0
  144.9158   70.5419  218.9172 H   0  0  0  0  0  0  0  0  0  0  0  0
  144.2585   70.7003  217.2379 H   0  0  0  0  0  0  0  0  0  0  0  0
  146.4098   71.8793  217.4511 H   0  0  0  0  0  0  0  0  0  0  0  0
  145.0404   73.0347  217.1568 H   0  0  0  0  0  0  0  0  0  0  0  0
  146.1720   74.0560  218.7780 H   0  0  0  0  0  0  0  0  0  0  0  0
  144.8795   72.4318  220.8162 H   0  0  0  0  0  0  0  0  0  0  0  0
  144.8898   74.2308  220.5454 H   0  0  0  0  0  0  0  0  0  0  0  0
  138.2994   71.2895  223.0678 H   0  0  0  0  0  0  0  0  0  0  0  0
  139.0455   70.8708  221.4772 H   0  0  0  0  0  0  0  0  0  0  0  0
  138.2334   68.8670  222.7561 H   0  0  0  0  0  0  0  0  0  0  0  0
  139.9987   68.8338  222.4027 H   0  0  0  0  0  0  0  0  0  0  0  0
  138.2479   67.4586  224.7157 H   0  0  0  0  0  0  0  0  0  0  0  0
  138.7789   67.2435  227.1437 H   0  0  0  0  0  0  0  0  0  0  0  0
  140.3438   68.8531  228.2303 H   0  0  0  0  0  0  0  0  0  0  0  0
  141.3918   70.6767  226.8913 H   0  0  0  0  0  0  0  0  0  0  0  0
  141.0659   72.1315  224.8492 H   0  0  0  0  0  0  0  0  0  0  0  0
  142.0732   70.8560  224.0115 H   0  0  0  0  0  0  0  0  0  0  0  0
  141.0619   76.7356  223.6913 H   0  0  0  0  0  0  0  0  0  0  0  0
  142.0881   77.2308  222.2626 H   0  0  0  0  0  0  0  0  0  0  0  0
  1  2  2  0
  2  3  1  0
  3  4  2  0
  4  5  1  0
  5  6  2  0
  5  7  1  0
  7  8  1  0
  8  9  1  0
  9 10  1  0
 10 11  2  0
 11 12  1  0
 12 13  1  0
 13 14  1  0
 14 15  1  0
 15 16  1  0
 16 17  1  0
 17 18  1  0
 12 19  2  0
 19 20  1  0
 20 21  1  0
 21 22  1  0
 22 23  1  0
 23 24  1  0
 24 25  2  0
 25 26  1  0
 26 27  2  0
 27 28  1  0
 28 29  2  0
 29 30  1  0
 20 31  2  0
  9 32  1  0
  6  1  1  0
 31 10  1  0
 32  4  1  0
 18 13  1  0
 30 21  1  0
 29 24  1  0
  1 33  1  0
  2 34  1  0
  3 35  1  0
  6 36  1  0
  7 37  1  0
  7 38  1  0
  8 39  1  0
  8 40  1  0
 13 41  1  6
 14 42  1  0
 14 43  1  0
 15 44  1  0
 15 45  1  0
 16 46  1  0
 16 47  1  0
 17 48  1  0
 18 49  1  0
 18 50  1  0
 22 51  1  0
 22 52  1  0
 23 53  1  0
 23 54  1  0
 25 55  1  0
 26 56  1  0
 27 57  1  0
 28 58  1  0
 30 59  1  0
 30 60  1  0
 32 61  1  0
 32 62  1  0
M  END
>  <UniqueID>  (79) 
679

>  <SMILES>  (79) 
c1ccc2c(c1)CCN(c1nc([C@@H]3CCCNC3)nc(N3CCc4ccccc4C3)n1)C2

>  <Energy>  (79) 
77.55306268174873

>  <Genealogy>  (79) 
c1ccc2c(c1)CCN(c1nc([C@@H]3CCCNC3)nc(N3CCc4ccccc4C3)n1)C2 (chirality)
c1ccc2c(c1)CCN(c1nc([C@@H]3CCCNC3)nc(N3CCc4ccccc4C3)n1)C2 (3D coordinates assigned)
c1ccc2c(c1)CCN(c1nc([C@@H]3CCCNC3)nc(N3CCc4ccccc4C3)n1)C2 (nonaromatic ring conformer: 77.55306268174873 kcal/mol)

>  <smiles>  (79) 
c1ccc2c(c1)CCN(c1nc(C3CCCNC3)nc(N3CCc4ccccc4C3)n1)C2

>  <score_type>  (79) 
oracle

>  <origin>  (79) 
autodockgpu

>  <m_score__min__energy>  (79) 
-9.6400000000000006

>  <m_primary>  (79) 
energy

>  <meeko>  (79) 
{"free_energy": -9.59, "intermolecular_energy": -10.49, "internal_energy": -0.78, "cluster_size": 20, "cluster_id": 1, "rank_in_cluster": 15}

>  <energy>  (79) 
-9.57

>  <cluster_rmsd>  (79) 
0.15

>  <rmsd>  (79) 
272.03

>  <cluster>  (79) 
1

$$$$
ZPZIUNMFLXMAPV-OAQYLSRUNA-N
     RDKit          3D

 62 67  0  0  0  0  0  0  0  0999 V2000
  139.2130   68.0600  226.5380 C   0  0  0  0  0  0  0  0  0  0  0  0
  140.0800   68.9600  227.1590 C   0  0  0  0  0  0  0  0  0  0  0  0
  140.6670   69.9910  226.4210 C   0  0  0  0  0  0  0  0  0  0  0  0
  140.3770   70.1400  225.0550 C   0  0  0  0  0  0  0  0  0  0  0  0
  139.4980   69.2340  224.4320 C   0  0  0  0  0  0  0  0  0  0  0  0
  138.9250   68.1900  225.1770 C   0  0  0  0  0  0  0  0  0  0  0  0
  139.2190   69.3600  222.9640 C   0  0  0  0  0  0  0  0  0  0  0  0
  139.1800   70.8310  222.5630 C   0  0  0  0  0  0  0  0  0  0  0  0
  140.4160   71.5190  222.9710 N   0  0  0  0  0  0  0  0  0  0  0  0
  140.9240   72.6120  222.1770 C   0  0  0  0  0  0  0  0  0  0  0  0
  141.9040   72.3950  221.2610 N   0  0  0  0  0  0  0  0  0  0  0  0
  142.3950   73.4200  220.5180 C   0  0  0  0  0  0  0  0  0  0  0  0
  143.4610   73.1710  219.4850 C   0  0  2  0  0  0  0  0  0  0  0  0
  143.2650   71.7940  218.8150 C   0  0  0  0  0  0  0  0  0  0  0  0
  144.5780   71.2220  218.2500 C   0  0  0  0  0  0  0  0  0  0  0  0
  145.5690   72.3390  217.9030 C   0  0  0  0  0  0  0  0  0  0  0  0
  145.9410   73.1390  219.0870 N   0  0  0  0  0  0  0  0  0  0  0  0
  144.8720   73.2840  220.0970 C   0  0  0  0  0  0  0  0  0  0  0  0
  141.8890   74.6690  220.6830 N   0  0  0  0  0  0  0  0  0  0  0  0
  140.9090   74.9030  221.5950 C   0  0  0  0  0  0  0  0  0  0  0  0
  140.3790   76.2320  221.7790 N   0  0  0  0  0  0  0  0  0  0  0  0
  139.2700   76.7040  220.9330 C   0  0  0  0  0  0  0  0  0  0  0  0
  138.3790   77.6760  221.7010 C   0  0  0  0  0  0  0  0  0  0  0  0
  139.2020   78.7990  222.2560 C   0  0  0  0  0  0  0  0  0  0  0  0
  138.6700   80.0950  222.3460 C   0  0  0  0  0  0  0  0  0  0  0  0
  139.4330   81.1310  222.8910 C   0  0  0  0  0  0  0  0  0  0  0  0
  140.7230   80.8770  223.3620 C   0  0  0  0  0  0  0  0  0  0  0  0
  141.2530   79.5870  223.2900 C   0  0  0  0  0  0  0  0  0  0  0  0
  140.5020   78.5410  222.7310 C   0  0  0  0  0  0  0  0  0  0  0  0
  141.0770   77.1440  222.7050 C   0  0  0  0  0  0  0  0  0  0  0  0
  140.4350   73.8690  222.3390 N   0  0  0  0  0  0  0  0  0  0  0  0
  141.0650   71.2280  224.2630 C   0  0  0  0  0  0  0  0  0  0  0  0
  138.7556   67.2470  227.1209 H   0  0  0  0  0  0  0  0  0  0  0  0
  140.3017   68.8576  228.2315 H   0  0  0  0  0  0  0  0  0  0  0  0
  141.3600   70.6897  226.9125 H   0  0  0  0  0  0  0  0  0  0  0  0
  138.2484   67.4736  224.6881 H   0  0  0  0  0  0  0  0  0  0  0  0
  140.0118   68.8493  222.3977 H   0  0  0  0  0  0  0  0  0  0  0  0
  138.2449   68.8999  222.7416 H   0  0  0  0  0  0  0  0  0  0  0  0
  139.0708   70.9039  221.4709 H   0  0  0  0  0  0  0  0  0  0  0  0
  138.3278   71.3105  223.0669 H   0  0  0  0  0  0  0  0  0  0  0  0
  143.3661   73.9483  218.7125 H   0  0  0  0  0  0  0  0  0  0  0  0
  142.8666   71.0916  219.5619 H   0  0  0  0  0  0  0  0  0  0  0  0
  142.5687   71.9272  217.9739 H   0  0  0  0  0  0  0  0  0  0  0  0
  145.0331   70.5601  219.0015 H   0  0  0  0  0  0  0  0  0  0  0  0
  144.3465   70.6654  217.3299 H   0  0  0  0  0  0  0  0  0  0  0  0
  146.4785   71.8875  217.4800 H   0  0  0  0  0  0  0  0  0  0  0  0
  145.0831   73.0103  217.1796 H   0  0  0  0  0  0  0  0  0  0  0  0
  146.2210   74.0920  218.7560 H   0  0  0  0  0  0  0  0  0  0  0  0
  144.9924   72.4947  220.8537 H   0  0  0  0  0  0  0  0  0  0  0  0
  144.9646   74.2867  220.5397 H   0  0  0  0  0  0  0  0  0  0  0  0
  139.6819   77.2135  220.0494 H   0  0  0  0  0  0  0  0  0  0  0  0
  138.6655   75.8372  220.6277 H   0  0  0  0  0  0  0  0  0  0  0  0
  137.6162   78.0848  221.0220 H   0  0  0  0  0  0  0  0  0  0  0  0
  137.8931   77.1411  222.5304 H   0  0  0  0  0  0  0  0  0  0  0  0
  137.6499   80.2955  221.9865 H   0  0  0  0  0  0  0  0  0  0  0  0
  139.0172   82.1477  222.9491 H   0  0  0  0  0  0  0  0  0  0  0  0
  141.3223   81.6940  223.7902 H   0  0  0  0  0  0  0  0  0  0  0  0
  142.2649   79.3894  223.6735 H   0  0  0  0  0  0  0  0  0  0  0  0
  142.1318   77.2083  222.3996 H   0  0  0  0  0  0  0  0  0  0  0  0
  140.9572   76.7284  223.7164 H   0  0  0  0  0  0  0  0  0  0  0  0
  142.1012   70.9142  224.0686 H   0  0  0  0  0  0  0  0  0  0  0  0
  141.0118   72.1473  224.8647 H   0  0  0  0  0  0  0  0  0  0  0  0
  1  2  2  0
  2  3  1  0
  3  4  2  0
  4  5  1  0
  5  6  2  0
  5  7  1  0
  7  8  1  0
  8  9  1  0
  9 10  1  0
 10 11  2  0
 11 12  1  0
 12 13  1  0
 13 14  1  0
 14 15  1  0
 15 16  1  0
 16 17  1  0
 17 18  1  0
 12 19  2  0
 19 20  1  0
 20 21  1  0
 21 22  1  0
 22 23  1  0
 23 24  1  0
 24 25  2  0
 25 26  1  0
 26 27  2  0
 27 28  1  0
 28 29  2  0
 29 30  1  0
 20 31  2  0
  9 32  1  0
  6  1  1  0
 31 10  1  0
 32  4  1  0
 18 13  1  0
 30 21  1  0
 29 24  1  0
  1 33  1  0
  2 34  1  0
  3 35  1  0
  6 36  1  0
  7 37  1  0
  7 38  1  0
  8 39  1  0
  8 40  1  0
 13 41  1  6
 14 42  1  0
 14 43  1  0
 15 44  1  0
 15 45  1  0
 16 46  1  0
 16 47  1  0
 17 48  1  0
 18 49  1  0
 18 50  1  0
 22 51  1  0
 22 52  1  0
 23 53  1  0
 23 54  1  0
 25 55  1  0
 26 56  1  0
 27 57  1  0
 28 58  1  0
 30 59  1  0
 30 60  1  0
 32 61  1  0
 32 62  1  0
M  END
>  <UniqueID>  (80) 
679

>  <SMILES>  (80) 
c1ccc2c(c1)CCN(c1nc([C@@H]3CCCNC3)nc(N3CCc4ccccc4C3)n1)C2

>  <Energy>  (80) 
77.55306268174873

>  <Genealogy>  (80) 
c1ccc2c(c1)CCN(c1nc([C@@H]3CCCNC3)nc(N3CCc4ccccc4C3)n1)C2 (chirality)
c1ccc2c(c1)CCN(c1nc([C@@H]3CCCNC3)nc(N3CCc4ccccc4C3)n1)C2 (3D coordinates assigned)
c1ccc2c(c1)CCN(c1nc([C@@H]3CCCNC3)nc(N3CCc4ccccc4C3)n1)C2 (nonaromatic ring conformer: 77.55306268174873 kcal/mol)

>  <smiles>  (80) 
c1ccc2c(c1)CCN(c1nc(C3CCCNC3)nc(N3CCc4ccccc4C3)n1)C2

>  <score_type>  (80) 
oracle

>  <origin>  (80) 
autodockgpu

>  <m_score__min__energy>  (80) 
-9.6400000000000006

>  <m_primary>  (80) 
energy

>  <meeko>  (80) 
{"free_energy": -9.63, "intermolecular_energy": -10.53, "internal_energy": -0.78, "cluster_size": 20, "cluster_id": 1, "rank_in_cluster": 2}

>  <energy>  (80) 
-9.56

>  <cluster_rmsd>  (80) 
0.2

>  <rmsd>  (80) 
272.09

>  <cluster>  (80) 
1

$$$$
