
     RDKit          3D

 48 51  0  0  0  0  0  0  0  0999 V2000
  139.2230   72.4930  219.3840 O   0  0  0  0  0  0  0  0  0  0  0  0
  140.0800   72.3200  220.6380 S   0  0  0  0  0  0  0  0  0  0  0  0
  141.4480   71.9900  220.1210 O   0  0  0  0  0  0  0  0  0  0  0  0
  139.3660   71.0380  221.5660 C   0  0  0  0  0  0  0  0  0  0  0  0
  139.6750   70.9590  222.9820 C   0  0  0  0  0  0  0  0  0  0  0  0
  140.6760   71.6420  223.6380 C   0  0  0  0  0  0  0  0  0  0  0  0
  140.9160   71.5200  224.9940 C   0  0  0  0  0  0  0  0  0  0  0  0
  140.1300   70.6780  225.7590 C   0  0  0  0  0  0  0  0  0  0  0  0
  140.4160   70.5060  227.4780 Cl  0  0  0  0  0  0  0  0  0  0  0  0
  139.1150   69.9790  225.1210 C   0  0  0  0  0  0  0  0  0  0  0  0
  138.8970   70.1170  223.7820 C   0  0  0  0  0  0  0  0  0  0  0  0
  140.0420   73.7810  221.4660 N   0  0  0  0  0  0  0  0  0  0  0  0
  141.1890   74.5620  221.5780 C   0  0  0  0  0  0  0  0  0  0  0  0
  140.8370   76.0230  221.2660 C   0  0  0  0  0  0  0  0  0  0  0  0
  139.8850   76.4320  222.3690 C   0  0  0  0  0  0  0  0  0  0  0  0
  139.5570   77.8740  222.3500 C   0  0  0  0  0  0  0  0  0  0  0  0
  138.3480   78.5140  222.1920 C   0  0  0  0  0  0  0  0  0  0  0  0
  138.4890   79.8410  222.2360 N   0  0  0  0  0  0  0  0  0  0  0  0
  139.7950   80.1160  222.4240 C   0  0  0  0  0  0  0  0  0  0  0  0
  140.4460   81.3320  222.5380 C   0  0  0  0  0  0  0  0  0  0  0  0
  141.8190   81.3850  222.7310 C   0  0  0  0  0  0  0  0  0  0  0  0
  142.4780   80.1710  222.8000 C   0  0  0  0  0  0  0  0  0  0  0  0
  143.8580   80.1870  222.9950 O   0  0  0  0  0  0  0  0  0  0  0  0
  141.8510   78.9570  222.6900 C   0  0  0  0  0  0  0  0  0  0  0  0
  140.4830   78.9130  222.4980 C   0  0  0  0  0  0  0  0  0  0  0  0
  138.6180   75.6530  222.2110 C   0  0  0  0  0  0  0  0  0  0  0  0
  138.8160   74.1900  221.9910 C   0  0  0  0  0  0  0  0  0  0  0  0
  138.2744   71.1398  221.4760 H   0  0  0  0  0  0  0  0  0  0  0  0
  139.8008   70.1210  221.1417 H   0  0  0  0  0  0  0  0  0  0  0  0
  141.3165   72.3185  223.0531 H   0  0  0  0  0  0  0  0  0  0  0  0
  141.7304   72.0914  225.4633 H   0  0  0  0  0  0  0  0  0  0  0  0
  138.4751   69.3017  225.7057 H   0  0  0  0  0  0  0  0  0  0  0  0
  138.0808   69.5461  223.3153 H   0  0  0  0  0  0  0  0  0  0  0  0
  141.5850   74.4895  222.6017 H   0  0  0  0  0  0  0  0  0  0  0  0
  141.9498   74.2054  220.8681 H   0  0  0  0  0  0  0  0  0  0  0  0
  141.7399   76.6512  221.2800 H   0  0  0  0  0  0  0  0  0  0  0  0
  140.3918   76.1399  220.2670 H   0  0  0  0  0  0  0  0  0  0  0  0
  140.3826   76.2239  223.3277 H   0  0  0  0  0  0  0  0  0  0  0  0
  137.3876   77.9974  222.0478 H   0  0  0  0  0  0  0  0  0  0  0  0
  137.7060   80.5390  222.1390 H   0  0  0  0  0  0  0  0  0  0  0  0
  139.8688   82.2663  222.4749 H   0  0  0  0  0  0  0  0  0  0  0  0
  142.3546   82.3413  222.8241 H   0  0  0  0  0  0  0  0  0  0  0  0
  144.5040   79.7490  222.3530 H   0  0  0  0  0  0  0  0  0  0  0  0
  142.4320   78.0252  222.7540 H   0  0  0  0  0  0  0  0  0  0  0  0
  138.0170   75.7854  223.1227 H   0  0  0  0  0  0  0  0  0  0  0  0
  138.1216   76.0413  221.3094 H   0  0  0  0  0  0  0  0  0  0  0  0
  138.6895   73.6899  222.9626 H   0  0  0  0  0  0  0  0  0  0  0  0
  138.0760   73.9177  221.2240 H   0  0  0  0  0  0  0  0  0  0  0  0
  1  2  2  0
  2  3  2  0
  2  4  1  0
  4  5  1  0
  5  6  2  0
  6  7  1  0
  7  8  2  0
  8  9  1  0
  8 10  1  0
 10 11  2  0
  2 12  1  0
 12 13  1  0
 13 14  1  0
 14 15  1  0
 15 16  1  0
 16 17  2  0
 17 18  1  0
 18 19  1  0
 19 20  2  0
 20 21  1  0
 21 22  2  0
 22 23  1  0
 22 24  1  0
 24 25  2  0
 15 26  1  0
 26 27  1  0
 11  5  1  0
 27 12  1  0
 25 16  1  0
 25 19  1  0
  4 28  1  0
  4 29  1  0
  6 30  1  0
  7 31  1  0
 10 32  1  0
 11 33  1  0
 13 34  1  0
 13 35  1  0
 14 36  1  0
 14 37  1  0
 15 38  1  0
 17 39  1  0
 18 40  1  0
 20 41  1  0
 21 42  1  0
 23 43  1  0
 24 44  1  0
 26 45  1  0
 26 46  1  0
 27 47  1  0
 27 48  1  0
M  END
>  <smiles>  (1) 
O=S(=O)(Cc1ccc(Cl)cc1)N1CCC(c2c[nH]c3ccc(O)cc23)CC1

>  <score_type>  (1) 
oracle

>  <origin>  (1) 
autodockgpu

>  <m_score__min__energy>  (1) 
-8.3599999999999994

>  <m_primary>  (1) 
energy

>  <meeko>  (1) 
{"free_energy": -7.22, "intermolecular_energy": -8.71, "internal_energy": -1.09, "cluster_size": 3, "cluster_id": 1, "rank_in_cluster": 3}

>  <energy>  (1) 
-8.36

>  <cluster_rmsd>  (1) 
0.0

>  <rmsd>  (1) 
272.51

>  <cluster>  (1) 
1

$$$$

     RDKit          3D

 48 51  0  0  0  0  0  0  0  0999 V2000
  139.9530   73.4580  222.7130 O   0  0  0  0  0  0  0  0  0  0  0  0
  139.4810   74.3740  221.5840 S   0  0  0  0  0  0  0  0  0  0  0  0
  138.0180   74.0790  221.4410 O   0  0  0  0  0  0  0  0  0  0  0  0
  140.4090   73.9610  220.1760 C   0  0  0  0  0  0  0  0  0  0  0  0
  141.8480   73.8330  220.3130 C   0  0  0  0  0  0  0  0  0  0  0  0
  142.5310   72.7110  220.7300 C   0  0  0  0  0  0  0  0  0  0  0  0
  143.9080   72.6580  220.8390 C   0  0  0  0  0  0  0  0  0  0  0  0
  144.6680   73.7690  220.5220 C   0  0  0  0  0  0  0  0  0  0  0  0
  146.4130   73.7250  220.6520 Cl  0  0  0  0  0  0  0  0  0  0  0  0
  144.0020   74.9120  220.0990 C   0  0  0  0  0  0  0  0  0  0  0  0
  142.6420   74.9390  219.9990 C   0  0  0  0  0  0  0  0  0  0  0  0
  139.7720   75.9530  222.0770 N   0  0  0  0  0  0  0  0  0  0  0  0
  141.0700   76.3880  222.3320 C   0  0  0  0  0  0  0  0  0  0  0  0
  141.2860   77.7530  221.6650 C   0  0  0  0  0  0  0  0  0  0  0  0
  140.3330   78.6860  222.3810 C   0  0  0  0  0  0  0  0  0  0  0  0
  140.5100   80.1040  222.0010 C   0  0  0  0  0  0  0  0  0  0  0  0
  140.2330   81.2580  222.7000 C   0  0  0  0  0  0  0  0  0  0  0  0
  140.5440   82.3440  221.9890 N   0  0  0  0  0  0  0  0  0  0  0  0
  141.0340   81.9390  220.8010 C   0  0  0  0  0  0  0  0  0  0  0  0
  141.4930   82.6780  219.7240 C   0  0  0  0  0  0  0  0  0  0  0  0
  141.9620   82.0470  218.5800 C   0  0  0  0  0  0  0  0  0  0  0  0
  141.9410   80.6640  218.5880 C   0  0  0  0  0  0  0  0  0  0  0  0
  142.4050   79.9970  217.4560 O   0  0  0  0  0  0  0  0  0  0  0  0
  141.4900   79.9150  219.6450 C   0  0  0  0  0  0  0  0  0  0  0  0
  141.0240   80.5520  220.7800 C   0  0  0  0  0  0  0  0  0  0  0  0
  138.9340   78.2740  222.0500 C   0  0  0  0  0  0  0  0  0  0  0  0
  138.6750   76.8090  222.1750 C   0  0  0  0  0  0  0  0  0  0  0  0
  140.0299   72.9963  219.8077 H   0  0  0  0  0  0  0  0  0  0  0  0
  140.2761   74.8201  219.5020 H   0  0  0  0  0  0  0  0  0  0  0  0
  141.9514   71.8127  220.9890 H   0  0  0  0  0  0  0  0  0  0  0  0
  144.3985   71.7334  221.1774 H   0  0  0  0  0  0  0  0  0  0  0  0
  144.5811   75.8107  219.8403 H   0  0  0  0  0  0  0  0  0  0  0  0
  142.1531   75.8640  219.6592 H   0  0  0  0  0  0  0  0  0  0  0  0
  141.2199   76.4814  223.4177 H   0  0  0  0  0  0  0  0  0  0  0  0
  141.7893   75.6611  221.9266 H   0  0  0  0  0  0  0  0  0  0  0  0
  142.3260   78.0873  221.7936 H   0  0  0  0  0  0  0  0  0  0  0  0
  141.1007   77.7205  220.5812 H   0  0  0  0  0  0  0  0  0  0  0  0
  140.5438   78.6100  223.4579 H   0  0  0  0  0  0  0  0  0  0  0  0
  139.8094   81.2817  223.7149 H   0  0  0  0  0  0  0  0  0  0  0  0
  140.4210   83.3390  222.3140 H   0  0  0  0  0  0  0  0  0  0  0  0
  141.4860   83.7768  219.7754 H   0  0  0  0  0  0  0  0  0  0  0  0
  142.3305   82.6161  217.7138 H   0  0  0  0  0  0  0  0  0  0  0  0
  143.3510   80.0950  217.1140 H   0  0  0  0  0  0  0  0  0  0  0  0
  141.4991   78.8164  219.5900 H   0  0  0  0  0  0  0  0  0  0  0  0
  138.2499   78.8032  222.7296 H   0  0  0  0  0  0  0  0  0  0  0  0
  138.7735   78.5314  220.9926 H   0  0  0  0  0  0  0  0  0  0  0  0
  138.2102   76.6386  223.1573 H   0  0  0  0  0  0  0  0  0  0  0  0
  138.0450   76.5595  221.3085 H   0  0  0  0  0  0  0  0  0  0  0  0
  1  2  2  0
  2  3  2  0
  2  4  1  0
  4  5  1  0
  5  6  2  0
  6  7  1  0
  7  8  2  0
  8  9  1  0
  8 10  1  0
 10 11  2  0
  2 12  1  0
 12 13  1  0
 13 14  1  0
 14 15  1  0
 15 16  1  0
 16 17  2  0
 17 18  1  0
 18 19  1  0
 19 20  2  0
 20 21  1  0
 21 22  2  0
 22 23  1  0
 22 24  1  0
 24 25  2  0
 15 26  1  0
 26 27  1  0
 11  5  1  0
 27 12  1  0
 25 16  1  0
 25 19  1  0
  4 28  1  0
  4 29  1  0
  6 30  1  0
  7 31  1  0
 10 32  1  0
 11 33  1  0
 13 34  1  0
 13 35  1  0
 14 36  1  0
 14 37  1  0
 15 38  1  0
 17 39  1  0
 18 40  1  0
 20 41  1  0
 21 42  1  0
 23 43  1  0
 24 44  1  0
 26 45  1  0
 26 46  1  0
 27 47  1  0
 27 48  1  0
M  END
>  <smiles>  (2) 
O=S(=O)(Cc1ccc(Cl)cc1)N1CCC(c2c[nH]c3ccc(O)cc23)CC1

>  <score_type>  (2) 
oracle

>  <origin>  (2) 
autodockgpu

>  <m_score__min__energy>  (2) 
-8.3599999999999994

>  <m_primary>  (2) 
energy

>  <meeko>  (2) 
{"free_energy": -7.27, "intermolecular_energy": -8.76, "internal_energy": -1.02, "cluster_size": 3, "cluster_id": 5, "rank_in_cluster": 1}

>  <energy>  (2) 
-8.29

>  <cluster_rmsd>  (2) 
0.18

>  <rmsd>  (2) 
272.49

>  <cluster>  (2) 
1

$$$$

     RDKit          3D

 48 51  0  0  0  0  0  0  0  0999 V2000
  138.3070   73.4420  219.1160 O   0  0  0  0  0  0  0  0  0  0  0  0
  139.5660   73.7020  219.9420 S   0  0  0  0  0  0  0  0  0  0  0  0
  139.6380   75.1940  220.0700 O   0  0  0  0  0  0  0  0  0  0  0  0
  140.8990   73.0210  219.0610 C   0  0  0  0  0  0  0  0  0  0  0  0
  142.2120   73.0360  219.6790 C   0  0  0  0  0  0  0  0  0  0  0  0
  142.8860   71.9490  220.1900 C   0  0  0  0  0  0  0  0  0  0  0  0
  144.1390   72.0370  220.7670 C   0  0  0  0  0  0  0  0  0  0  0  0
  144.7750   73.2610  220.8520 C   0  0  0  0  0  0  0  0  0  0  0  0
  146.3620   73.3950  221.5790 Cl  0  0  0  0  0  0  0  0  0  0  0  0
  144.1160   74.3720  220.3430 C   0  0  0  0  0  0  0  0  0  0  0  0
  142.8800   74.2600  219.7770 C   0  0  0  0  0  0  0  0  0  0  0  0
  139.3490   72.9410  221.4230 N   0  0  0  0  0  0  0  0  0  0  0  0
  138.1600   72.2770  221.7110 C   0  0  0  0  0  0  0  0  0  0  0  0
  138.4820   70.9100  222.3320 C   0  0  0  0  0  0  0  0  0  0  0  0
  139.1630   71.2350  223.6440 C   0  0  0  0  0  0  0  0  0  0  0  0
  139.4030   70.0440  224.4860 C   0  0  0  0  0  0  0  0  0  0  0  0
  139.1920   68.7080  224.2250 C   0  0  0  0  0  0  0  0  0  0  0  0
  139.5430   67.9470  225.2640 N   0  0  0  0  0  0  0  0  0  0  0  0
  139.9960   68.7580  226.2410 C   0  0  0  0  0  0  0  0  0  0  0  0
  140.4740   68.4550  227.5040 C   0  0  0  0  0  0  0  0  0  0  0  0
  140.8960   69.4630  228.3620 C   0  0  0  0  0  0  0  0  0  0  0  0
  140.8080   70.7560  227.8810 C   0  0  0  0  0  0  0  0  0  0  0  0
  141.2240   71.7930  228.7150 O   0  0  0  0  0  0  0  0  0  0  0  0
  140.3380   71.0750  226.6330 C   0  0  0  0  0  0  0  0  0  0  0  0
  139.9200   70.0660  225.7860 C   0  0  0  0  0  0  0  0  0  0  0  0
  140.4790   71.8800  223.3430 C   0  0  0  0  0  0  0  0  0  0  0  0
  140.4160   72.9670  222.3220 C   0  0  0  0  0  0  0  0  0  0  0  0
  140.6490   71.9702  218.8531 H   0  0  0  0  0  0  0  0  0  0  0  0
  141.0053   73.6740  218.1822 H   0  0  0  0  0  0  0  0  0  0  0  0
  142.4033   70.9620  220.1363 H   0  0  0  0  0  0  0  0  0  0  0  0
  144.6295   71.1335  221.1582 H   0  0  0  0  0  0  0  0  0  0  0  0
  144.5987   75.3590  220.3971 H   0  0  0  0  0  0  0  0  0  0  0  0
  142.3920   75.1642  219.3841 H   0  0  0  0  0  0  0  0  0  0  0  0
  137.5684   72.8734  222.4211 H   0  0  0  0  0  0  0  0  0  0  0  0
  137.5826   72.1354  220.7855 H   0  0  0  0  0  0  0  0  0  0  0  0
  137.5599   70.3358  222.5053 H   0  0  0  0  0  0  0  0  0  0  0  0
  139.1144   70.2935  221.6763 H   0  0  0  0  0  0  0  0  0  0  0  0
  138.4935   71.9014  224.2076 H   0  0  0  0  0  0  0  0  0  0  0  0
  138.7858   68.3177  223.2802 H   0  0  0  0  0  0  0  0  0  0  0  0
  139.4730   66.8970  225.3000 H   0  0  0  0  0  0  0  0  0  0  0  0
  140.5202   67.4060  227.8317 H   0  0  0  0  0  0  0  0  0  0  0  0
  141.2794   69.2440  229.3695 H   0  0  0  0  0  0  0  0  0  0  0  0
  140.7420   72.6800  228.7650 H   0  0  0  0  0  0  0  0  0  0  0  0
  140.2940   72.1252  226.3087 H   0  0  0  0  0  0  0  0  0  0  0  0
  140.8735   72.3078  224.2765 H   0  0  0  0  0  0  0  0  0  0  0  0
  141.1243   71.0939  222.9239 H   0  0  0  0  0  0  0  0  0  0  0  0
  140.3699   73.9245  222.8615 H   0  0  0  0  0  0  0  0  0  0  0  0
  141.3119   72.8221  221.7004 H   0  0  0  0  0  0  0  0  0  0  0  0
  1  2  2  0
  2  3  2  0
  2  4  1  0
  4  5  1  0
  5  6  2  0
  6  7  1  0
  7  8  2  0
  8  9  1  0
  8 10  1  0
 10 11  2  0
  2 12  1  0
 12 13  1  0
 13 14  1  0
 14 15  1  0
 15 16  1  0
 16 17  2  0
 17 18  1  0
 18 19  1  0
 19 20  2  0
 20 21  1  0
 21 22  2  0
 22 23  1  0
 22 24  1  0
 24 25  2  0
 15 26  1  0
 26 27  1  0
 11  5  1  0
 27 12  1  0
 25 16  1  0
 25 19  1  0
  4 28  1  0
  4 29  1  0
  6 30  1  0
  7 31  1  0
 10 32  1  0
 11 33  1  0
 13 34  1  0
 13 35  1  0
 14 36  1  0
 14 37  1  0
 15 38  1  0
 17 39  1  0
 18 40  1  0
 20 41  1  0
 21 42  1  0
 23 43  1  0
 24 44  1  0
 26 45  1  0
 26 46  1  0
 27 47  1  0
 27 48  1  0
M  END
>  <smiles>  (3) 
O=S(=O)(Cc1ccc(Cl)cc1)N1CCC(c2c[nH]c3ccc(O)cc23)CC1

>  <score_type>  (3) 
oracle

>  <origin>  (3) 
autodockgpu

>  <m_score__min__energy>  (3) 
-8.3599999999999994

>  <m_primary>  (3) 
energy

>  <meeko>  (3) 
{"free_energy": -7.09, "intermolecular_energy": -8.58, "internal_energy": -1.15, "cluster_size": 5, "cluster_id": 3, "rank_in_cluster": 5}

>  <energy>  (3) 
-7.22

>  <cluster_rmsd>  (3) 
1.07

>  <rmsd>  (3) 
271.97

>  <cluster>  (3) 
1

$$$$

     RDKit          3D

 48 51  0  0  0  0  0  0  0  0999 V2000
  139.1370   73.8290  220.2980 O   0  0  0  0  0  0  0  0  0  0  0  0
  137.8830   73.5040  221.1090 S   0  0  0  0  0  0  0  0  0  0  0  0
  136.8020   73.3300  220.0850 O   0  0  0  0  0  0  0  0  0  0  0  0
  137.6100   74.8460  222.1770 C   0  0  0  0  0  0  0  0  0  0  0  0
  138.6630   75.8340  222.3230 C   0  0  0  0  0  0  0  0  0  0  0  0
  140.0160   75.6100  222.1940 C   0  0  0  0  0  0  0  0  0  0  0  0
  140.9670   76.6010  222.3460 C   0  0  0  0  0  0  0  0  0  0  0  0
  140.5750   77.8930  222.6430 C   0  0  0  0  0  0  0  0  0  0  0  0
  141.7620   79.1640  222.8410 Cl  0  0  0  0  0  0  0  0  0  0  0  0
  139.2160   78.1450  222.7770 C   0  0  0  0  0  0  0  0  0  0  0  0
  138.2960   77.1500  222.6220 C   0  0  0  0  0  0  0  0  0  0  0  0
  138.1970   72.0900  221.9580 N   0  0  0  0  0  0  0  0  0  0  0  0
  139.4140   71.4300  221.8100 C   0  0  0  0  0  0  0  0  0  0  0  0
  139.9520   71.0450  223.1950 C   0  0  0  0  0  0  0  0  0  0  0  0
  138.9460   70.0520  223.7350 C   0  0  0  0  0  0  0  0  0  0  0  0
  139.3730   69.4210  225.0020 C   0  0  0  0  0  0  0  0  0  0  0  0
  139.2180   68.1290  225.4550 C   0  0  0  0  0  0  0  0  0  0  0  0
  139.7540   67.9690  226.6660 N   0  0  0  0  0  0  0  0  0  0  0  0
  140.2800   69.1500  227.0490 C   0  0  0  0  0  0  0  0  0  0  0  0
  140.9420   69.4980  228.2140 C   0  0  0  0  0  0  0  0  0  0  0  0
  141.4070   70.7920  228.4040 C   0  0  0  0  0  0  0  0  0  0  0  0
  141.1710   71.6880  227.3760 C   0  0  0  0  0  0  0  0  0  0  0  0
  141.6250   72.9960  227.5330 O   0  0  0  0  0  0  0  0  0  0  0  0
  140.5180   71.3610  226.2160 C   0  0  0  0  0  0  0  0  0  0  0  0
  140.0570   70.0700  226.0350 C   0  0  0  0  0  0  0  0  0  0  0  0
  137.6550   70.7700  223.9710 C   0  0  0  0  0  0  0  0  0  0  0  0
  137.2150   71.6370  222.8380 C   0  0  0  0  0  0  0  0  0  0  0  0
  136.7158   75.3741  221.8145 H   0  0  0  0  0  0  0  0  0  0  0  0
  137.5276   74.3876  223.1735 H   0  0  0  0  0  0  0  0  0  0  0  0
  140.3566   74.5910  221.9581 H   0  0  0  0  0  0  0  0  0  0  0  0
  142.0345   76.3621  222.2308 H   0  0  0  0  0  0  0  0  0  0  0  0
  138.8757   79.1643  223.0121 H   0  0  0  0  0  0  0  0  0  0  0  0
  137.2288   77.3909  222.7361 H   0  0  0  0  0  0  0  0  0  0  0  0
  139.2689   70.5219  221.2064 H   0  0  0  0  0  0  0  0  0  0  0  0
  140.1336   72.0912  221.3051 H   0  0  0  0  0  0  0  0  0  0  0  0
  140.9465   70.5826  223.1101 H   0  0  0  0  0  0  0  0  0  0  0  0
  140.0697   71.9183  223.8534 H   0  0  0  0  0  0  0  0  0  0  0  0
  138.8434   69.2490  222.9903 H   0  0  0  0  0  0  0  0  0  0  0  0
  138.7157   67.3303  224.8895 H   0  0  0  0  0  0  0  0  0  0  0  0
  139.7590   67.0700  227.2150 H   0  0  0  0  0  0  0  0  0  0  0  0
  141.1011   68.7417  228.9967 H   0  0  0  0  0  0  0  0  0  0  0  0
  141.9347   71.0893  229.3223 H   0  0  0  0  0  0  0  0  0  0  0  0
  141.0040   73.7710  227.7210 H   0  0  0  0  0  0  0  0  0  0  0  0
  140.3619   72.1198  225.4351 H   0  0  0  0  0  0  0  0  0  0  0  0
  136.8722   70.0191  224.1536 H   0  0  0  0  0  0  0  0  0  0  0  0
  137.8192   71.4364  224.8306 H   0  0  0  0  0  0  0  0  0  0  0  0
  136.4831   71.0645  222.2493 H   0  0  0  0  0  0  0  0  0  0  0  0
  136.8237   72.5473  223.3158 H   0  0  0  0  0  0  0  0  0  0  0  0
  1  2  2  0
  2  3  2  0
  2  4  1  0
  4  5  1  0
  5  6  2  0
  6  7  1  0
  7  8  2  0
  8  9  1  0
  8 10  1  0
 10 11  2  0
  2 12  1  0
 12 13  1  0
 13 14  1  0
 14 15  1  0
 15 16  1  0
 16 17  2  0
 17 18  1  0
 18 19  1  0
 19 20  2  0
 20 21  1  0
 21 22  2  0
 22 23  1  0
 22 24  1  0
 24 25  2  0
 15 26  1  0
 26 27  1  0
 11  5  1  0
 27 12  1  0
 25 16  1  0
 25 19  1  0
  4 28  1  0
  4 29  1  0
  6 30  1  0
  7 31  1  0
 10 32  1  0
 11 33  1  0
 13 34  1  0
 13 35  1  0
 14 36  1  0
 14 37  1  0
 15 38  1  0
 17 39  1  0
 18 40  1  0
 20 41  1  0
 21 42  1  0
 23 43  1  0
 24 44  1  0
 26 45  1  0
 26 46  1  0
 27 47  1  0
 27 48  1  0
M  END
>  <smiles>  (4) 
O=S(=O)(Cc1ccc(Cl)cc1)N1CCC(c2c[nH]c3ccc(O)cc23)CC1

>  <score_type>  (4) 
oracle

>  <origin>  (4) 
autodockgpu

>  <m_score__min__energy>  (4) 
-8.3599999999999994

>  <m_primary>  (4) 
energy

>  <meeko>  (4) 
{"free_energy": -7.88, "intermolecular_energy": -9.37, "internal_energy": -0.87, "cluster_size": 6, "cluster_id": 2, "rank_in_cluster": 5}

>  <energy>  (4) 
-8.24

>  <cluster_rmsd>  (4) 
0.0

>  <rmsd>  (4) 
272.38

>  <cluster>  (4) 
2

$$$$

     RDKit          3D

 48 51  0  0  0  0  0  0  0  0999 V2000
  139.9550   73.5670  222.7180 O   0  0  0  0  0  0  0  0  0  0  0  0
  139.4890   74.4420  221.5550 S   0  0  0  0  0  0  0  0  0  0  0  0
  138.0250   74.1480  221.4200 O   0  0  0  0  0  0  0  0  0  0  0  0
  140.4180   73.9710  220.1650 C   0  0  0  0  0  0  0  0  0  0  0  0
  141.8560   73.8470  220.3090 C   0  0  0  0  0  0  0  0  0  0  0  0
  142.5410   72.7280  220.7300 C   0  0  0  0  0  0  0  0  0  0  0  0
  143.9180   72.6800  220.8450 C   0  0  0  0  0  0  0  0  0  0  0  0
  144.6750   73.7920  220.5290 C   0  0  0  0  0  0  0  0  0  0  0  0
  146.4200   73.7530  220.6670 Cl  0  0  0  0  0  0  0  0  0  0  0  0
  144.0080   74.9320  220.1010 C   0  0  0  0  0  0  0  0  0  0  0  0
  142.6490   74.9560  219.9950 C   0  0  0  0  0  0  0  0  0  0  0  0
  139.7870   76.0370  221.9890 N   0  0  0  0  0  0  0  0  0  0  0  0
  141.0600   76.4380  222.3820 C   0  0  0  0  0  0  0  0  0  0  0  0
  141.4200   77.7490  221.6700 C   0  0  0  0  0  0  0  0  0  0  0  0
  140.4260   78.7600  222.2030 C   0  0  0  0  0  0  0  0  0  0  0  0
  140.7140   80.1440  221.7670 C   0  0  0  0  0  0  0  0  0  0  0  0
  140.5720   81.3390  222.4360 C   0  0  0  0  0  0  0  0  0  0  0  0
  140.9480   82.3700  221.6760 N   0  0  0  0  0  0  0  0  0  0  0  0
  141.3480   81.8860  220.4830 C   0  0  0  0  0  0  0  0  0  0  0  0
  141.8240   82.5460  219.3640 C   0  0  0  0  0  0  0  0  0  0  0  0
  142.1850   81.8400  218.2250 C   0  0  0  0  0  0  0  0  0  0  0  0
  142.0400   80.4660  218.2810 C   0  0  0  0  0  0  0  0  0  0  0  0
  142.3930   79.7240  217.1550 O   0  0  0  0  0  0  0  0  0  0  0  0
  141.5700   79.7940  219.3810 C   0  0  0  0  0  0  0  0  0  0  0  0
  141.2130   80.5050  220.5110 C   0  0  0  0  0  0  0  0  0  0  0  0
  139.0630   78.3800  221.7200 C   0  0  0  0  0  0  0  0  0  0  0  0
  138.7250   76.9370  221.8950 C   0  0  0  0  0  0  0  0  0  0  0  0
  140.0381   72.9927  219.8356 H   0  0  0  0  0  0  0  0  0  0  0  0
  140.2867   74.8020  219.4564 H   0  0  0  0  0  0  0  0  0  0  0  0
  141.9635   71.8279  220.9874 H   0  0  0  0  0  0  0  0  0  0  0  0
  144.4102   71.7579  221.1876 H   0  0  0  0  0  0  0  0  0  0  0  0
  144.5861   75.8315  219.8429 H   0  0  0  0  0  0  0  0  0  0  0  0
  142.1593   75.8789  219.6508 H   0  0  0  0  0  0  0  0  0  0  0  0
  141.0764   76.5944  223.4707 H   0  0  0  0  0  0  0  0  0  0  0  0
  141.7907   75.6604  222.1148 H   0  0  0  0  0  0  0  0  0  0  0  0
  142.4494   78.0521  221.9119 H   0  0  0  0  0  0  0  0  0  0  0  0
  141.3724   77.6552  220.5750 H   0  0  0  0  0  0  0  0  0  0  0  0
  140.4947   78.7443  223.3007 H   0  0  0  0  0  0  0  0  0  0  0  0
  140.1965   81.4323  223.4657 H   0  0  0  0  0  0  0  0  0  0  0  0
  140.9290   83.3810  221.9700 H   0  0  0  0  0  0  0  0  0  0  0  0
  141.9173   83.6420  219.3773 H   0  0  0  0  0  0  0  0  0  0  0  0
  142.5661   82.3463  217.3259 H   0  0  0  0  0  0  0  0  0  0  0  0
  143.3080   79.7770  216.7320 H   0  0  0  0  0  0  0  0  0  0  0  0
  141.4781   78.6980  219.3636 H   0  0  0  0  0  0  0  0  0  0  0  0
  138.3233   78.9760  222.2747 H   0  0  0  0  0  0  0  0  0  0  0  0
  139.0485   78.5759  220.6377 H   0  0  0  0  0  0  0  0  0  0  0  0
  138.1325   76.8461  222.8173 H   0  0  0  0  0  0  0  0  0  0  0  0
  138.1987   76.6566  220.9707 H   0  0  0  0  0  0  0  0  0  0  0  0
  1  2  2  0
  2  3  2  0
  2  4  1  0
  4  5  1  0
  5  6  2  0
  6  7  1  0
  7  8  2  0
  8  9  1  0
  8 10  1  0
 10 11  2  0
  2 12  1  0
 12 13  1  0
 13 14  1  0
 14 15  1  0
 15 16  1  0
 16 17  2  0
 17 18  1  0
 18 19  1  0
 19 20  2  0
 20 21  1  0
 21 22  2  0
 22 23  1  0
 22 24  1  0
 24 25  2  0
 15 26  1  0
 26 27  1  0
 11  5  1  0
 27 12  1  0
 25 16  1  0
 25 19  1  0
  4 28  1  0
  4 29  1  0
  6 30  1  0
  7 31  1  0
 10 32  1  0
 11 33  1  0
 13 34  1  0
 13 35  1  0
 14 36  1  0
 14 37  1  0
 15 38  1  0
 17 39  1  0
 18 40  1  0
 20 41  1  0
 21 42  1  0
 23 43  1  0
 24 44  1  0
 26 45  1  0
 26 46  1  0
 27 47  1  0
 27 48  1  0
M  END
>  <smiles>  (5) 
O=S(=O)(Cc1ccc(Cl)cc1)N1CCC(c2c[nH]c3ccc(O)cc23)CC1

>  <score_type>  (5) 
oracle

>  <origin>  (5) 
autodockgpu

>  <m_score__min__energy>  (5) 
-8.3599999999999994

>  <m_primary>  (5) 
energy

>  <meeko>  (5) 
{"free_energy": -7.2, "intermolecular_energy": -8.69, "internal_energy": -1.15, "cluster_size": 3, "cluster_id": 5, "rank_in_cluster": 3}

>  <energy>  (5) 
-8.18

>  <cluster_rmsd>  (5) 
0.09

>  <rmsd>  (5) 
272.36

>  <cluster>  (5) 
2

$$$$

     RDKit          3D

 48 51  0  0  0  0  0  0  0  0999 V2000
  138.9790   74.9710  219.4110 O   0  0  0  0  0  0  0  0  0  0  0  0
  139.4450   75.0210  220.8650 S   0  0  0  0  0  0  0  0  0  0  0  0
  138.4580   75.9170  221.5510 O   0  0  0  0  0  0  0  0  0  0  0  0
  141.0620   75.6560  220.8570 C   0  0  0  0  0  0  0  0  0  0  0  0
  141.2750   77.0010  221.3600 C   0  0  0  0  0  0  0  0  0  0  0  0
  141.6700   78.0950  220.6220 C   0  0  0  0  0  0  0  0  0  0  0  0
  141.8550   79.3520  221.1680 C   0  0  0  0  0  0  0  0  0  0  0  0
  141.6410   79.5550  222.5180 C   0  0  0  0  0  0  0  0  0  0  0  0
  141.8690   81.1370  223.2310 Cl  0  0  0  0  0  0  0  0  0  0  0  0
  141.2420   78.4670  223.2830 C   0  0  0  0  0  0  0  0  0  0  0  0
  141.0650   77.2370  222.7220 C   0  0  0  0  0  0  0  0  0  0  0  0
  139.4000   73.4480  221.4520 N   0  0  0  0  0  0  0  0  0  0  0  0
  140.5400   72.6510  221.4300 C   0  0  0  0  0  0  0  0  0  0  0  0
  140.6940   71.9510  222.7870 C   0  0  0  0  0  0  0  0  0  0  0  0
  139.4900   71.0390  222.8870 C   0  0  0  0  0  0  0  0  0  0  0  0
  139.5390   70.1380  224.0580 C   0  0  0  0  0  0  0  0  0  0  0  0
  139.0880   68.8450  224.2100 C   0  0  0  0  0  0  0  0  0  0  0  0
  139.3290   68.3860  225.4400 N   0  0  0  0  0  0  0  0  0  0  0  0
  139.9450   69.3620  226.1370 C   0  0  0  0  0  0  0  0  0  0  0  0
  140.3970   69.3790  227.4450 C   0  0  0  0  0  0  0  0  0  0  0  0
  141.0140   70.5080  227.9670 C   0  0  0  0  0  0  0  0  0  0  0  0
  141.1420   71.5880  227.1130 C   0  0  0  0  0  0  0  0  0  0  0  0
  141.7570   72.7390  227.6040 O   0  0  0  0  0  0  0  0  0  0  0  0
  140.7010   71.5900  225.8150 C   0  0  0  0  0  0  0  0  0  0  0  0
  140.0880   70.4620  225.3030 C   0  0  0  0  0  0  0  0  0  0  0  0
  138.2640   71.8890  222.9900 C   0  0  0  0  0  0  0  0  0  0  0  0
  138.1960   72.9990  221.9940 C   0  0  0  0  0  0  0  0  0  0  0  0
  141.6808   74.9792  221.4644 H   0  0  0  0  0  0  0  0  0  0  0  0
  141.3235   75.7201  219.7905 H   0  0  0  0  0  0  0  0  0  0  0  0
  141.8471   77.9621  219.5445 H   0  0  0  0  0  0  0  0  0  0  0  0
  142.1720   80.1890  220.5286 H   0  0  0  0  0  0  0  0  0  0  0  0
  141.0656   78.5998  224.3606 H   0  0  0  0  0  0  0  0  0  0  0  0
  140.7461   76.4018  223.3629 H   0  0  0  0  0  0  0  0  0  0  0  0
  140.4456   71.8961  220.6355 H   0  0  0  0  0  0  0  0  0  0  0  0
  141.4237   73.2762  221.2348 H   0  0  0  0  0  0  0  0  0  0  0  0
  141.6262   71.3679  222.8193 H   0  0  0  0  0  0  0  0  0  0  0  0
  140.7451   72.6663  223.6211 H   0  0  0  0  0  0  0  0  0  0  0  0
  139.4802   70.4045  221.9885 H   0  0  0  0  0  0  0  0  0  0  0  0
  138.5921   68.2645  223.4181 H   0  0  0  0  0  0  0  0  0  0  0  0
  139.0760   67.4260  225.7920 H   0  0  0  0  0  0  0  0  0  0  0  0
  140.2661   68.4887  228.0777 H   0  0  0  0  0  0  0  0  0  0  0  0
  141.3810   70.5415  229.0034 H   0  0  0  0  0  0  0  0  0  0  0  0
  141.5450   73.6630  227.2540 H   0  0  0  0  0  0  0  0  0  0  0  0
  140.8340   72.4824  225.1858 H   0  0  0  0  0  0  0  0  0  0  0  0
  137.3851   71.2435  222.8459 H   0  0  0  0  0  0  0  0  0  0  0  0
  138.2924   72.3607  223.9833 H   0  0  0  0  0  0  0  0  0  0  0  0
  137.5659   72.6562  221.1600 H   0  0  0  0  0  0  0  0  0  0  0  0
  137.8021   73.8585  222.5562 H   0  0  0  0  0  0  0  0  0  0  0  0
  1  2  2  0
  2  3  2  0
  2  4  1  0
  4  5  1  0
  5  6  2  0
  6  7  1  0
  7  8  2  0
  8  9  1  0
  8 10  1  0
 10 11  2  0
  2 12  1  0
 12 13  1  0
 13 14  1  0
 14 15  1  0
 15 16  1  0
 16 17  2  0
 17 18  1  0
 18 19  1  0
 19 20  2  0
 20 21  1  0
 21 22  2  0
 22 23  1  0
 22 24  1  0
 24 25  2  0
 15 26  1  0
 26 27  1  0
 11  5  1  0
 27 12  1  0
 25 16  1  0
 25 19  1  0
  4 28  1  0
  4 29  1  0
  6 30  1  0
  7 31  1  0
 10 32  1  0
 11 33  1  0
 13 34  1  0
 13 35  1  0
 14 36  1  0
 14 37  1  0
 15 38  1  0
 17 39  1  0
 18 40  1  0
 20 41  1  0
 21 42  1  0
 23 43  1  0
 24 44  1  0
 26 45  1  0
 26 46  1  0
 27 47  1  0
 27 48  1  0
M  END
>  <smiles>  (6) 
O=S(=O)(Cc1ccc(Cl)cc1)N1CCC(c2c[nH]c3ccc(O)cc23)CC1

>  <score_type>  (6) 
oracle

>  <origin>  (6) 
autodockgpu

>  <m_score__min__energy>  (6) 
-8.3599999999999994

>  <m_primary>  (6) 
energy

>  <meeko>  (6) 
{"free_energy": -7.94, "intermolecular_energy": -9.43, "internal_energy": -0.85, "cluster_size": 6, "cluster_id": 2, "rank_in_cluster": 3}

>  <energy>  (6) 
-7.94

>  <cluster_rmsd>  (6) 
0.7

>  <rmsd>  (6) 
272.22

>  <cluster>  (6) 
2

$$$$

     RDKit          3D

 48 51  0  0  0  0  0  0  0  0999 V2000
  141.4850   75.2780  221.4210 O   0  0  0  0  0  0  0  0  0  0  0  0
  139.9950   74.9610  221.3000 S   0  0  0  0  0  0  0  0  0  0  0  0
  139.6730   75.1910  219.8540 O   0  0  0  0  0  0  0  0  0  0  0  0
  139.1590   76.0410  222.3720 C   0  0  0  0  0  0  0  0  0  0  0  0
  139.7460   77.3430  222.6320 C   0  0  0  0  0  0  0  0  0  0  0  0
  139.1220   78.5630  222.4910 C   0  0  0  0  0  0  0  0  0  0  0  0
  139.7440   79.7690  222.7580 C   0  0  0  0  0  0  0  0  0  0  0  0
  141.0570   79.7860  223.1880 C   0  0  0  0  0  0  0  0  0  0  0  0
  141.8650   81.3010  223.5310 Cl  0  0  0  0  0  0  0  0  0  0  0  0
  141.7080   78.5690  223.3380 C   0  0  0  0  0  0  0  0  0  0  0  0
  141.0730   77.3920  223.0700 C   0  0  0  0  0  0  0  0  0  0  0  0
  139.7940   73.3570  221.7550 N   0  0  0  0  0  0  0  0  0  0  0  0
  140.8700   72.4740  221.7350 C   0  0  0  0  0  0  0  0  0  0  0  0
  140.8840   71.6650  223.0390 C   0  0  0  0  0  0  0  0  0  0  0  0
  139.6110   70.8480  222.9970 C   0  0  0  0  0  0  0  0  0  0  0  0
  139.5170   69.8590  224.0930 C   0  0  0  0  0  0  0  0  0  0  0  0
  139.1170   68.5410  224.0770 C   0  0  0  0  0  0  0  0  0  0  0  0
  139.1800   67.9980  225.2940 N   0  0  0  0  0  0  0  0  0  0  0  0
  139.6220   68.9400  226.1500 C   0  0  0  0  0  0  0  0  0  0  0  0
  139.8550   68.8730  227.5130 C   0  0  0  0  0  0  0  0  0  0  0  0
  140.3190   69.9810  228.2080 C   0  0  0  0  0  0  0  0  0  0  0  0
  140.5260   71.1300  227.4660 C   0  0  0  0  0  0  0  0  0  0  0  0
  140.9910   72.2630  228.1320 O   0  0  0  0  0  0  0  0  0  0  0  0
  140.3010   71.2160  226.1160 C   0  0  0  0  0  0  0  0  0  0  0  0
  139.8400   70.1080  225.4310 C   0  0  0  0  0  0  0  0  0  0  0  0
  138.4480   71.7830  223.0960 C   0  0  0  0  0  0  0  0  0  0  0  0
  138.5280   72.9660  222.1900 C   0  0  0  0  0  0  0  0  0  0  0  0
  138.1594   76.2134  221.9464 H   0  0  0  0  0  0  0  0  0  0  0  0
  139.1859   75.5314  223.3464 H   0  0  0  0  0  0  0  0  0  0  0  0
  138.0767   78.5787  222.1489 H   0  0  0  0  0  0  0  0  0  0  0  0
  139.1944   80.7130  222.6283 H   0  0  0  0  0  0  0  0  0  0  0  0
  142.7538   78.5537  223.6788 H   0  0  0  0  0  0  0  0  0  0  0  0
  141.6236   76.4491  223.2030 H   0  0  0  0  0  0  0  0  0  0  0  0
  140.7689   71.7904  220.8791 H   0  0  0  0  0  0  0  0  0  0  0  0
  141.8093   73.0386  221.6406 H   0  0  0  0  0  0  0  0  0  0  0  0
  141.7655   71.0082  223.0787 H   0  0  0  0  0  0  0  0  0  0  0  0
  140.9359   72.3099  223.9287 H   0  0  0  0  0  0  0  0  0  0  0  0
  139.6109   70.2857  222.0516 H   0  0  0  0  0  0  0  0  0  0  0  0
  138.7874   68.0043  223.1752 H   0  0  0  0  0  0  0  0  0  0  0  0
  138.9240   67.0040  225.5300 H   0  0  0  0  0  0  0  0  0  0  0  0
  139.6704   67.9314  228.0509 H   0  0  0  0  0  0  0  0  0  0  0  0
  140.5118   69.9474  229.2904 H   0  0  0  0  0  0  0  0  0  0  0  0
  140.3910   72.8520  228.6910 H   0  0  0  0  0  0  0  0  0  0  0  0
  140.4861   72.1599  225.5824 H   0  0  0  0  0  0  0  0  0  0  0  0
  137.5342   71.2224  222.8496 H   0  0  0  0  0  0  0  0  0  0  0  0
  138.4474   72.1748  224.1238 H   0  0  0  0  0  0  0  0  0  0  0  0
  137.9279   72.7385  221.2966 H   0  0  0  0  0  0  0  0  0  0  0  0
  138.1660   73.8095  222.7963 H   0  0  0  0  0  0  0  0  0  0  0  0
  1  2  2  0
  2  3  2  0
  2  4  1  0
  4  5  1  0
  5  6  2  0
  6  7  1  0
  7  8  2  0
  8  9  1  0
  8 10  1  0
 10 11  2  0
  2 12  1  0
 12 13  1  0
 13 14  1  0
 14 15  1  0
 15 16  1  0
 16 17  2  0
 17 18  1  0
 18 19  1  0
 19 20  2  0
 20 21  1  0
 21 22  2  0
 22 23  1  0
 22 24  1  0
 24 25  2  0
 15 26  1  0
 26 27  1  0
 11  5  1  0
 27 12  1  0
 25 16  1  0
 25 19  1  0
  4 28  1  0
  4 29  1  0
  6 30  1  0
  7 31  1  0
 10 32  1  0
 11 33  1  0
 13 34  1  0
 13 35  1  0
 14 36  1  0
 14 37  1  0
 15 38  1  0
 17 39  1  0
 18 40  1  0
 20 41  1  0
 21 42  1  0
 23 43  1  0
 24 44  1  0
 26 45  1  0
 26 46  1  0
 27 47  1  0
 27 48  1  0
M  END
>  <smiles>  (7) 
O=S(=O)(Cc1ccc(Cl)cc1)N1CCC(c2c[nH]c3ccc(O)cc23)CC1

>  <score_type>  (7) 
oracle

>  <origin>  (7) 
autodockgpu

>  <m_score__min__energy>  (7) 
-8.3599999999999994

>  <m_primary>  (7) 
energy

>  <meeko>  (7) 
{"free_energy": -7.94, "intermolecular_energy": -9.43, "internal_energy": -0.77, "cluster_size": 6, "cluster_id": 2, "rank_in_cluster": 4}

>  <energy>  (7) 
-7.94

>  <cluster_rmsd>  (7) 
1.06

>  <rmsd>  (7) 
272.4

>  <cluster>  (7) 
2

$$$$

     RDKit          3D

 48 51  0  0  0  0  0  0  0  0999 V2000
  138.4840   75.0520  220.2120 O   0  0  0  0  0  0  0  0  0  0  0  0
  139.2350   74.9600  221.5400 S   0  0  0  0  0  0  0  0  0  0  0  0
  138.4170   75.7750  222.4960 O   0  0  0  0  0  0  0  0  0  0  0  0
  140.8240   75.6060  221.2690 C   0  0  0  0  0  0  0  0  0  0  0  0
  141.1200   76.9370  221.7660 C   0  0  0  0  0  0  0  0  0  0  0  0
  141.0990   77.3400  223.0830 C   0  0  0  0  0  0  0  0  0  0  0  0
  141.3920   78.6290  223.4870 C   0  0  0  0  0  0  0  0  0  0  0  0
  141.7270   79.5860  222.5480 C   0  0  0  0  0  0  0  0  0  0  0  0
  142.1010   81.2250  223.0360 Cl  0  0  0  0  0  0  0  0  0  0  0  0
  141.7550   79.2050  221.2130 C   0  0  0  0  0  0  0  0  0  0  0  0
  141.4620   77.9260  220.8390 C   0  0  0  0  0  0  0  0  0  0  0  0
  139.2890   73.3360  221.9640 N   0  0  0  0  0  0  0  0  0  0  0  0
  140.4970   72.6460  221.9720 C   0  0  0  0  0  0  0  0  0  0  0  0
  140.6010   71.8230  223.2630 C   0  0  0  0  0  0  0  0  0  0  0  0
  139.4840   70.8070  223.1620 C   0  0  0  0  0  0  0  0  0  0  0  0
  139.5190   69.7940  224.2390 C   0  0  0  0  0  0  0  0  0  0  0  0
  139.2160   68.4510  224.2130 C   0  0  0  0  0  0  0  0  0  0  0  0
  139.3800   67.8910  225.4140 N   0  0  0  0  0  0  0  0  0  0  0  0
  139.7950   68.8480  226.2670 C   0  0  0  0  0  0  0  0  0  0  0  0
  140.1010   68.7730  227.6150 C   0  0  0  0  0  0  0  0  0  0  0  0
  140.5160   69.9000  228.3110 C   0  0  0  0  0  0  0  0  0  0  0  0
  140.6010   71.0740  227.5850 C   0  0  0  0  0  0  0  0  0  0  0  0
  141.0150   72.2260  228.2530 O   0  0  0  0  0  0  0  0  0  0  0  0
  140.3030   71.1680  226.2500 C   0  0  0  0  0  0  0  0  0  0  0  0
  139.8900   70.0410  225.5650 C   0  0  0  0  0  0  0  0  0  0  0  0
  138.1790   71.5330  223.2300 C   0  0  0  0  0  0  0  0  0  0  0  0
  138.0910   72.7310  222.3450 C   0  0  0  0  0  0  0  0  0  0  0  0
  141.5404   74.9162  221.7390 H   0  0  0  0  0  0  0  0  0  0  0  0
  140.8946   75.7028  220.1755 H   0  0  0  0  0  0  0  0  0  0  0  0
  140.8358   76.5987  223.8519 H   0  0  0  0  0  0  0  0  0  0  0  0
  141.3586   78.8927  224.5544 H   0  0  0  0  0  0  0  0  0  0  0  0
  142.0178   79.9466  220.4442 H   0  0  0  0  0  0  0  0  0  0  0  0
  141.4961   77.6640  219.7712 H   0  0  0  0  0  0  0  0  0  0  0  0
  140.5421   71.9735  221.1027 H   0  0  0  0  0  0  0  0  0  0  0  0
  141.3310   73.3615  221.9223 H   0  0  0  0  0  0  0  0  0  0  0  0
  141.5777   71.3208  223.3252 H   0  0  0  0  0  0  0  0  0  0  0  0
  140.5143   72.4487  224.1635 H   0  0  0  0  0  0  0  0  0  0  0  0
  139.6100   70.2718  222.2093 H   0  0  0  0  0  0  0  0  0  0  0  0
  138.8813   67.9084  223.3166 H   0  0  0  0  0  0  0  0  0  0  0  0
  139.2100   66.8760  225.6400 H   0  0  0  0  0  0  0  0  0  0  0  0
  140.0144   67.8103  228.1401 H   0  0  0  0  0  0  0  0  0  0  0  0
  140.7639   69.8614  229.3820 H   0  0  0  0  0  0  0  0  0  0  0  0
  140.3760   72.8250  228.7560 H   0  0  0  0  0  0  0  0  0  0  0  0
  140.3919   72.1324  225.7285 H   0  0  0  0  0  0  0  0  0  0  0  0
  137.3810   70.8331  222.9413 H   0  0  0  0  0  0  0  0  0  0  0  0
  138.0776   71.8985  224.2625 H   0  0  0  0  0  0  0  0  0  0  0  0
  137.5688   72.4252  221.4264 H   0  0  0  0  0  0  0  0  0  0  0  0
  137.5717   73.4898  222.9488 H   0  0  0  0  0  0  0  0  0  0  0  0
  1  2  2  0
  2  3  2  0
  2  4  1  0
  4  5  1  0
  5  6  2  0
  6  7  1  0
  7  8  2  0
  8  9  1  0
  8 10  1  0
 10 11  2  0
  2 12  1  0
 12 13  1  0
 13 14  1  0
 14 15  1  0
 15 16  1  0
 16 17  2  0
 17 18  1  0
 18 19  1  0
 19 20  2  0
 20 21  1  0
 21 22  2  0
 22 23  1  0
 22 24  1  0
 24 25  2  0
 15 26  1  0
 26 27  1  0
 11  5  1  0
 27 12  1  0
 25 16  1  0
 25 19  1  0
  4 28  1  0
  4 29  1  0
  6 30  1  0
  7 31  1  0
 10 32  1  0
 11 33  1  0
 13 34  1  0
 13 35  1  0
 14 36  1  0
 14 37  1  0
 15 38  1  0
 17 39  1  0
 18 40  1  0
 20 41  1  0
 21 42  1  0
 23 43  1  0
 24 44  1  0
 26 45  1  0
 26 46  1  0
 27 47  1  0
 27 48  1  0
M  END
>  <smiles>  (8) 
O=S(=O)(Cc1ccc(Cl)cc1)N1CCC(c2c[nH]c3ccc(O)cc23)CC1

>  <score_type>  (8) 
oracle

>  <origin>  (8) 
autodockgpu

>  <m_score__min__energy>  (8) 
-8.3599999999999994

>  <m_primary>  (8) 
energy

>  <meeko>  (8) 
{"free_energy": -8.18, "intermolecular_energy": -9.67, "internal_energy": -0.85, "cluster_size": 6, "cluster_id": 2, "rank_in_cluster": 2}

>  <energy>  (8) 
-7.88

>  <cluster_rmsd>  (8) 
1.53

>  <rmsd>  (8) 
272.08

>  <cluster>  (8) 
2

$$$$

     RDKit          3D

 48 51  0  0  0  0  0  0  0  0999 V2000
  139.9460   73.5230  222.6860 O   0  0  0  0  0  0  0  0  0  0  0  0
  139.4600   74.4110  221.5400 S   0  0  0  0  0  0  0  0  0  0  0  0
  137.9910   74.1300  221.4370 O   0  0  0  0  0  0  0  0  0  0  0  0
  140.3520   73.9430  220.1250 C   0  0  0  0  0  0  0  0  0  0  0  0
  141.8000   73.8830  220.2140 C   0  0  0  0  0  0  0  0  0  0  0  0
  142.6820   74.8750  219.8460 C   0  0  0  0  0  0  0  0  0  0  0  0
  144.0540   74.7490  219.9570 C   0  0  0  0  0  0  0  0  0  0  0  0
  144.6010   73.5830  220.4590 C   0  0  0  0  0  0  0  0  0  0  0  0
  146.3360   73.4020  220.6090 Cl  0  0  0  0  0  0  0  0  0  0  0  0
  143.7320   72.5690  220.8370 C   0  0  0  0  0  0  0  0  0  0  0  0
  142.3810   72.7160  220.7180 C   0  0  0  0  0  0  0  0  0  0  0  0
  139.7810   76.0000  221.9780 N   0  0  0  0  0  0  0  0  0  0  0  0
  141.0700   76.3920  222.3290 C   0  0  0  0  0  0  0  0  0  0  0  0
  141.4100   77.7080  221.6170 C   0  0  0  0  0  0  0  0  0  0  0  0
  140.4420   78.7180  222.1950 C   0  0  0  0  0  0  0  0  0  0  0  0
  140.7190   80.1050  221.7620 C   0  0  0  0  0  0  0  0  0  0  0  0
  140.5640   81.2980  222.4320 C   0  0  0  0  0  0  0  0  0  0  0  0
  140.9350   82.3330  221.6750 N   0  0  0  0  0  0  0  0  0  0  0  0
  141.3460   81.8540  220.4840 C   0  0  0  0  0  0  0  0  0  0  0  0
  141.8230   82.5200  219.3690 C   0  0  0  0  0  0  0  0  0  0  0  0
  142.1960   81.8180  218.2310 C   0  0  0  0  0  0  0  0  0  0  0  0
  142.0620   80.4430  218.2850 C   0  0  0  0  0  0  0  0  0  0  0  0
  142.4280   79.7060  217.1590 O   0  0  0  0  0  0  0  0  0  0  0  0
  141.5920   79.7660  219.3810 C   0  0  0  0  0  0  0  0  0  0  0  0
  141.2230   80.4720  220.5100 C   0  0  0  0  0  0  0  0  0  0  0  0
  139.0600   78.3490  221.7590 C   0  0  0  0  0  0  0  0  0  0  0  0
  138.7220   76.9060  221.9320 C   0  0  0  0  0  0  0  0  0  0  0  0
  140.0015   72.9414  219.8353 H   0  0  0  0  0  0  0  0  0  0  0  0
  140.1571   74.7486  219.4018 H   0  0  0  0  0  0  0  0  0  0  0  0
  142.2742   75.8141  219.4438 H   0  0  0  0  0  0  0  0  0  0  0  0
  144.7098   75.5756  219.6462 H   0  0  0  0  0  0  0  0  0  0  0  0
  144.1399   71.6301  221.2397 H   0  0  0  0  0  0  0  0  0  0  0  0
  141.7269   71.8882  221.0292 H   0  0  0  0  0  0  0  0  0  0  0  0
  141.1263   76.5378  223.4178 H   0  0  0  0  0  0  0  0  0  0  0  0
  141.7871   75.6139  222.0285 H   0  0  0  0  0  0  0  0  0  0  0  0
  142.4491   78.0039  221.8239 H   0  0  0  0  0  0  0  0  0  0  0  0
  141.3217   77.6249  220.5237 H   0  0  0  0  0  0  0  0  0  0  0  0
  140.5523   78.6912  223.2891 H   0  0  0  0  0  0  0  0  0  0  0  0
  140.1830   81.3868  223.4601 H   0  0  0  0  0  0  0  0  0  0  0  0
  140.9060   83.3440  221.9710 H   0  0  0  0  0  0  0  0  0  0  0  0
  141.9075   83.6166  219.3845 H   0  0  0  0  0  0  0  0  0  0  0  0
  142.5777   82.3283  217.3344 H   0  0  0  0  0  0  0  0  0  0  0  0
  143.3210   79.8170  216.7010 H   0  0  0  0  0  0  0  0  0  0  0  0
  141.5094   78.6693  219.3615 H   0  0  0  0  0  0  0  0  0  0  0  0
  138.3442   78.9425  222.3467 H   0  0  0  0  0  0  0  0  0  0  0  0
  139.0062   78.5561  220.6800 H   0  0  0  0  0  0  0  0  0  0  0  0
  138.1633   76.8087  222.8746 H   0  0  0  0  0  0  0  0  0  0  0  0
  138.1614   76.6376  221.0245 H   0  0  0  0  0  0  0  0  0  0  0  0
  1  2  2  0
  2  3  2  0
  2  4  1  0
  4  5  1  0
  5  6  2  0
  6  7  1  0
  7  8  2  0
  8  9  1  0
  8 10  1  0
 10 11  2  0
  2 12  1  0
 12 13  1  0
 13 14  1  0
 14 15  1  0
 15 16  1  0
 16 17  2  0
 17 18  1  0
 18 19  1  0
 19 20  2  0
 20 21  1  0
 21 22  2  0
 22 23  1  0
 22 24  1  0
 24 25  2  0
 15 26  1  0
 26 27  1  0
 11  5  1  0
 27 12  1  0
 25 16  1  0
 25 19  1  0
  4 28  1  0
  4 29  1  0
  6 30  1  0
  7 31  1  0
 10 32  1  0
 11 33  1  0
 13 34  1  0
 13 35  1  0
 14 36  1  0
 14 37  1  0
 15 38  1  0
 17 39  1  0
 18 40  1  0
 20 41  1  0
 21 42  1  0
 23 43  1  0
 24 44  1  0
 26 45  1  0
 26 46  1  0
 27 47  1  0
 27 48  1  0
M  END
>  <smiles>  (9) 
O=S(=O)(Cc1ccc(Cl)cc1)N1CCC(c2c[nH]c3ccc(O)cc23)CC1

>  <score_type>  (9) 
oracle

>  <origin>  (9) 
autodockgpu

>  <m_score__min__energy>  (9) 
-8.3599999999999994

>  <m_primary>  (9) 
energy

>  <meeko>  (9) 
{"free_energy": -7.22, "intermolecular_energy": -8.71, "internal_energy": -1.14, "cluster_size": 3, "cluster_id": 5, "rank_in_cluster": 2}

>  <energy>  (9) 
-7.77

>  <cluster_rmsd>  (9) 
1.73

>  <rmsd>  (9) 
272.07

>  <cluster>  (9) 
2

$$$$

     RDKit          3D

 48 51  0  0  0  0  0  0  0  0999 V2000
  137.5210   67.5080  222.0250 O   0  0  0  0  0  0  0  0  0  0  0  0
  138.1130   68.7160  222.7500 S   0  0  0  0  0  0  0  0  0  0  0  0
  139.0300   69.3500  221.7480 O   0  0  0  0  0  0  0  0  0  0  0  0
  138.9390   68.1100  224.1530 C   0  0  0  0  0  0  0  0  0  0  0  0
  139.4700   69.0680  225.1060 C   0  0  0  0  0  0  0  0  0  0  0  0
  139.8920   70.3490  224.8260 C   0  0  0  0  0  0  0  0  0  0  0  0
  140.3890   71.2110  225.7860 C   0  0  0  0  0  0  0  0  0  0  0  0
  140.4800   70.7970  227.1020 C   0  0  0  0  0  0  0  0  0  0  0  0
  141.1060   71.8720  228.3340 Cl  0  0  0  0  0  0  0  0  0  0  0  0
  140.0590   69.5110  227.4090 C   0  0  0  0  0  0  0  0  0  0  0  0
  139.5720   68.6790  226.4440 C   0  0  0  0  0  0  0  0  0  0  0  0
  136.8300   69.7160  223.1700 N   0  0  0  0  0  0  0  0  0  0  0  0
  135.6330   69.1760  223.6300 C   0  0  0  0  0  0  0  0  0  0  0  0
  135.1710   69.9540  224.8700 C   0  0  0  0  0  0  0  0  0  0  0  0
  134.8880   71.3520  224.3620 C   0  0  0  0  0  0  0  0  0  0  0  0
  134.2610   72.2240  225.3790 C   0  0  0  0  0  0  0  0  0  0  0  0
  133.5740   71.9040  226.5290 C   0  0  0  0  0  0  0  0  0  0  0  0
  133.1660   73.0000  227.1730 N   0  0  0  0  0  0  0  0  0  0  0  0
  133.5710   74.0740  226.4680 C   0  0  0  0  0  0  0  0  0  0  0  0
  133.3960   75.4250  226.7160 C   0  0  0  0  0  0  0  0  0  0  0  0
  133.9050   76.3770  225.8430 C   0  0  0  0  0  0  0  0  0  0  0  0
  134.5800   75.8970  224.7350 C   0  0  0  0  0  0  0  0  0  0  0  0
  135.1040   76.8250  223.8370 O   0  0  0  0  0  0  0  0  0  0  0  0
  134.7630   74.5640  224.4730 C   0  0  0  0  0  0  0  0  0  0  0  0
  134.2530   73.6220  225.3470 C   0  0  0  0  0  0  0  0  0  0  0  0
  136.1820   71.9690  223.9380 C   0  0  0  0  0  0  0  0  0  0  0  0
  137.0330   71.0930  223.0790 C   0  0  0  0  0  0  0  0  0  0  0  0
  138.2299   67.4685  224.6967 H   0  0  0  0  0  0  0  0  0  0  0  0
  139.8298   67.6076  223.7479 H   0  0  0  0  0  0  0  0  0  0  0  0
  139.8305   70.7039  223.7867 H   0  0  0  0  0  0  0  0  0  0  0  0
  140.7113   72.2240  225.5033 H   0  0  0  0  0  0  0  0  0  0  0  0
  140.1190   69.1563  228.4485 H   0  0  0  0  0  0  0  0  0  0  0  0
  139.2485   67.6670  226.7290 H   0  0  0  0  0  0  0  0  0  0  0  0
  134.8687   69.2517  222.8425 H   0  0  0  0  0  0  0  0  0  0  0  0
  135.7817   68.1181  223.8921 H   0  0  0  0  0  0  0  0  0  0  0  0
  134.2614   69.5037  225.2941 H   0  0  0  0  0  0  0  0  0  0  0  0
  135.9247   69.9465  225.6712 H   0  0  0  0  0  0  0  0  0  0  0  0
  134.1779   71.2628  223.5267 H   0  0  0  0  0  0  0  0  0  0  0  0
  133.3855   70.8763  226.8731 H   0  0  0  0  0  0  0  0  0  0  0  0
  132.6220   73.0080  228.0760 H   0  0  0  0  0  0  0  0  0  0  0  0
  132.8481   75.7472  227.6138 H   0  0  0  0  0  0  0  0  0  0  0  0
  133.7784   77.4548  226.0227 H   0  0  0  0  0  0  0  0  0  0  0  0
  134.8930   77.8120  223.8860 H   0  0  0  0  0  0  0  0  0  0  0  0
  135.3115   74.2462  223.5741 H   0  0  0  0  0  0  0  0  0  0  0  0
  135.9570   72.8874  223.3759 H   0  0  0  0  0  0  0  0  0  0  0  0
  136.7552   72.1575  224.8578 H   0  0  0  0  0  0  0  0  0  0  0  0
  136.8570   71.3845  222.0330 H   0  0  0  0  0  0  0  0  0  0  0  0
  138.0589   71.2518  223.4426 H   0  0  0  0  0  0  0  0  0  0  0  0
  1  2  2  0
  2  3  2  0
  2  4  1  0
  4  5  1  0
  5  6  2  0
  6  7  1  0
  7  8  2  0
  8  9  1  0
  8 10  1  0
 10 11  2  0
  2 12  1  0
 12 13  1  0
 13 14  1  0
 14 15  1  0
 15 16  1  0
 16 17  2  0
 17 18  1  0
 18 19  1  0
 19 20  2  0
 20 21  1  0
 21 22  2  0
 22 23  1  0
 22 24  1  0
 24 25  2  0
 15 26  1  0
 26 27  1  0
 11  5  1  0
 27 12  1  0
 25 16  1  0
 25 19  1  0
  4 28  1  0
  4 29  1  0
  6 30  1  0
  7 31  1  0
 10 32  1  0
 11 33  1  0
 13 34  1  0
 13 35  1  0
 14 36  1  0
 14 37  1  0
 15 38  1  0
 17 39  1  0
 18 40  1  0
 20 41  1  0
 21 42  1  0
 23 43  1  0
 24 44  1  0
 26 45  1  0
 26 46  1  0
 27 47  1  0
 27 48  1  0
M  END
>  <smiles>  (10) 
O=S(=O)(Cc1ccc(Cl)cc1)N1CCC(c2c[nH]c3ccc(O)cc23)CC1

>  <score_type>  (10) 
oracle

>  <origin>  (10) 
autodockgpu

>  <m_score__min__energy>  (10) 
-8.3599999999999994

>  <m_primary>  (10) 
energy

>  <meeko>  (10) 
{"free_energy": -7.03, "intermolecular_energy": -8.52, "internal_energy": -1.15, "cluster_size": 1, "cluster_id": 7, "rank_in_cluster": 1}

>  <energy>  (10) 
-7.65

>  <cluster_rmsd>  (10) 
0.0

>  <rmsd>  (10) 
271.77

>  <cluster>  (10) 
3

$$$$

     RDKit          3D

 48 51  0  0  0  0  0  0  0  0999 V2000
  139.2670   72.3100  219.2570 O   0  0  0  0  0  0  0  0  0  0  0  0
  138.6240   72.8960  220.5130 S   0  0  0  0  0  0  0  0  0  0  0  0
  137.2730   73.3670  220.0650 O   0  0  0  0  0  0  0  0  0  0  0  0
  139.6570   74.1810  221.0580 C   0  0  0  0  0  0  0  0  0  0  0  0
  141.0870   74.0510  220.8450 C   0  0  0  0  0  0  0  0  0  0  0  0
  141.9550   75.0620  220.4950 C   0  0  0  0  0  0  0  0  0  0  0  0
  143.3110   74.8670  220.3080 C   0  0  0  0  0  0  0  0  0  0  0  0
  143.8550   73.6070  220.4720 C   0  0  0  0  0  0  0  0  0  0  0  0
  145.5690   73.3360  220.2390 Cl  0  0  0  0  0  0  0  0  0  0  0  0
  143.0000   72.5710  220.8250 C   0  0  0  0  0  0  0  0  0  0  0  0
  141.6660   72.7890  221.0050 C   0  0  0  0  0  0  0  0  0  0  0  0
  138.5300   71.6560  221.6420 N   0  0  0  0  0  0  0  0  0  0  0  0
  139.1970   70.4530  221.4300 C   0  0  0  0  0  0  0  0  0  0  0  0
  139.9260   70.0450  222.7180 C   0  0  0  0  0  0  0  0  0  0  0  0
  138.8210   69.7950  223.7220 C   0  0  0  0  0  0  0  0  0  0  0  0
  139.3100   69.2200  224.9940 C   0  0  0  0  0  0  0  0  0  0  0  0
  139.2240   67.9360  225.4850 C   0  0  0  0  0  0  0  0  0  0  0  0
  139.7990   67.8340  226.6850 N   0  0  0  0  0  0  0  0  0  0  0  0
  140.2800   69.0470  227.0220 C   0  0  0  0  0  0  0  0  0  0  0  0
  140.9550   69.4570  228.1580 C   0  0  0  0  0  0  0  0  0  0  0  0
  141.3670   70.7750  228.3000 C   0  0  0  0  0  0  0  0  0  0  0  0
  141.0640   71.6300  227.2560 C   0  0  0  0  0  0  0  0  0  0  0  0
  141.4630   72.9610  227.3650 O   0  0  0  0  0  0  0  0  0  0  0  0
  140.3970   71.2420  226.1230 C   0  0  0  0  0  0  0  0  0  0  0  0
  139.9900   69.9280  225.9890 C   0  0  0  0  0  0  0  0  0  0  0  0
  138.1480   71.0980  224.0150 C   0  0  0  0  0  0  0  0  0  0  0  0
  137.7990   71.8990  222.8040 C   0  0  0  0  0  0  0  0  0  0  0  0
  139.3334   75.0988  220.5453 H   0  0  0  0  0  0  0  0  0  0  0  0
  139.5436   74.1753  222.1521 H   0  0  0  0  0  0  0  0  0  0  0  0
  141.5489   76.0750  220.3574 H   0  0  0  0  0  0  0  0  0  0  0  0
  143.9559   75.7134  220.0291 H   0  0  0  0  0  0  0  0  0  0  0  0
  143.4057   71.5577  220.9616 H   0  0  0  0  0  0  0  0  0  0  0  0
  141.0230   71.9419  221.2860 H   0  0  0  0  0  0  0  0  0  0  0  0
  138.4711   69.6734  221.1556 H   0  0  0  0  0  0  0  0  0  0  0  0
  139.9264   70.5739  220.6155 H   0  0  0  0  0  0  0  0  0  0  0  0
  140.5173   69.1316  222.5564 H   0  0  0  0  0  0  0  0  0  0  0  0
  140.6317   70.8167  223.0592 H   0  0  0  0  0  0  0  0  0  0  0  0
  138.1306   69.0627  223.2780 H   0  0  0  0  0  0  0  0  0  0  0  0
  138.7425   67.1007  224.9553 H   0  0  0  0  0  0  0  0  0  0  0  0
  139.8580   66.9520  227.2580 H   0  0  0  0  0  0  0  0  0  0  0  0
  141.1674   68.7312  228.9568 H   0  0  0  0  0  0  0  0  0  0  0  0
  141.9055   71.1208  229.1947 H   0  0  0  0  0  0  0  0  0  0  0  0
  140.8550   73.6850  227.7230 H   0  0  0  0  0  0  0  0  0  0  0  0
  140.1873   71.9710  225.3264 H   0  0  0  0  0  0  0  0  0  0  0  0
  137.2205   70.8892  224.5682 H   0  0  0  0  0  0  0  0  0  0  0  0
  138.8661   71.6990  224.5922 H   0  0  0  0  0  0  0  0  0  0  0  0
  136.7406   71.7062  222.5745 H   0  0  0  0  0  0  0  0  0  0  0  0
  138.0383   72.9379  223.0751 H   0  0  0  0  0  0  0  0  0  0  0  0
  1  2  2  0
  2  3  2  0
  2  4  1  0
  4  5  1  0
  5  6  2  0
  6  7  1  0
  7  8  2  0
  8  9  1  0
  8 10  1  0
 10 11  2  0
  2 12  1  0
 12 13  1  0
 13 14  1  0
 14 15  1  0
 15 16  1  0
 16 17  2  0
 17 18  1  0
 18 19  1  0
 19 20  2  0
 20 21  1  0
 21 22  2  0
 22 23  1  0
 22 24  1  0
 24 25  2  0
 15 26  1  0
 26 27  1  0
 11  5  1  0
 27 12  1  0
 25 16  1  0
 25 19  1  0
  4 28  1  0
  4 29  1  0
  6 30  1  0
  7 31  1  0
 10 32  1  0
 11 33  1  0
 13 34  1  0
 13 35  1  0
 14 36  1  0
 14 37  1  0
 15 38  1  0
 17 39  1  0
 18 40  1  0
 20 41  1  0
 21 42  1  0
 23 43  1  0
 24 44  1  0
 26 45  1  0
 26 46  1  0
 27 47  1  0
 27 48  1  0
M  END
>  <smiles>  (11) 
O=S(=O)(Cc1ccc(Cl)cc1)N1CCC(c2c[nH]c3ccc(O)cc23)CC1

>  <score_type>  (11) 
oracle

>  <origin>  (11) 
autodockgpu

>  <m_score__min__energy>  (11) 
-8.3599999999999994

>  <m_primary>  (11) 
energy

>  <meeko>  (11) 
{"free_energy": -7.55, "intermolecular_energy": -9.04, "internal_energy": -1.14, "cluster_size": 5, "cluster_id": 3, "rank_in_cluster": 4}

>  <energy>  (11) 
-7.63

>  <cluster_rmsd>  (11) 
1.28

>  <rmsd>  (11) 
271.91

>  <cluster>  (11) 
3

$$$$

     RDKit          3D

 48 51  0  0  0  0  0  0  0  0999 V2000
  136.7240   69.8250  223.6810 O   0  0  0  0  0  0  0  0  0  0  0  0
  137.8040   69.1030  222.8760 S   0  0  0  0  0  0  0  0  0  0  0  0
  137.0510   68.1360  222.0110 O   0  0  0  0  0  0  0  0  0  0  0  0
  138.8560   68.3290  224.0200 C   0  0  0  0  0  0  0  0  0  0  0  0
  139.3930   69.1250  225.1080 C   0  0  0  0  0  0  0  0  0  0  0  0
  139.5480   68.7210  226.4160 C   0  0  0  0  0  0  0  0  0  0  0  0
  140.0690   69.5350  227.4050 C   0  0  0  0  0  0  0  0  0  0  0  0
  140.4630   70.8240  227.1000 C   0  0  0  0  0  0  0  0  0  0  0  0
  141.1240   71.8720  228.3360 Cl  0  0  0  0  0  0  0  0  0  0  0  0
  140.3160   71.2550  225.7880 C   0  0  0  0  0  0  0  0  0  0  0  0
  139.8000   70.4330  224.8300 C   0  0  0  0  0  0  0  0  0  0  0  0
  138.6130   70.2700  221.9800 N   0  0  0  0  0  0  0  0  0  0  0  0
  138.0010   71.4840  221.6820 C   0  0  0  0  0  0  0  0  0  0  0  0
  138.9880   72.6280  221.9540 C   0  0  0  0  0  0  0  0  0  0  0  0
  140.1090   72.4140  220.9600 C   0  0  0  0  0  0  0  0  0  0  0  0
  141.0900   73.5200  220.9410 C   0  0  0  0  0  0  0  0  0  0  0  0
  140.9270   74.8630  221.2020 C   0  0  0  0  0  0  0  0  0  0  0  0
  142.0780   75.5270  221.0720 N   0  0  0  0  0  0  0  0  0  0  0  0
  143.0330   74.6430  220.7230 C   0  0  0  0  0  0  0  0  0  0  0  0
  144.3810   74.8350  220.4720 C   0  0  0  0  0  0  0  0  0  0  0  0
  145.1950   73.7670  220.1220 C   0  0  0  0  0  0  0  0  0  0  0  0
  144.5840   72.5280  220.0400 C   0  0  0  0  0  0  0  0  0  0  0  0
  145.3720   71.4330  219.6900 O   0  0  0  0  0  0  0  0  0  0  0  0
  143.2510   72.3190  220.2850 C   0  0  0  0  0  0  0  0  0  0  0  0
  142.4480   73.3880  220.6330 C   0  0  0  0  0  0  0  0  0  0  0  0
  140.8220   71.1490  221.3200 C   0  0  0  0  0  0  0  0  0  0  0  0
  139.9230   69.9890  221.5930 C   0  0  0  0  0  0  0  0  0  0  0  0
  138.2925   67.4989  224.4710 H   0  0  0  0  0  0  0  0  0  0  0  0
  139.7393   68.0460  223.4287 H   0  0  0  0  0  0  0  0  0  0  0  0
  139.2420   67.6998  226.6872 H   0  0  0  0  0  0  0  0  0  0  0  0
  140.1697   69.1570  228.4331 H   0  0  0  0  0  0  0  0  0  0  0  0
  140.6209   72.2766  225.5170 H   0  0  0  0  0  0  0  0  0  0  0  0
  139.7006   70.8126  223.8024 H   0  0  0  0  0  0  0  0  0  0  0  0
  137.7061   71.4969  220.6224 H   0  0  0  0  0  0  0  0  0  0  0  0
  137.1068   71.6107  222.3100 H   0  0  0  0  0  0  0  0  0  0  0  0
  138.5059   73.6031  221.7907 H   0  0  0  0  0  0  0  0  0  0  0  0
  139.3482   72.6281  222.9933 H   0  0  0  0  0  0  0  0  0  0  0  0
  139.6568   72.3643  219.9585 H   0  0  0  0  0  0  0  0  0  0  0  0
  139.9706   75.3288  221.4818 H   0  0  0  0  0  0  0  0  0  0  0  0
  142.2020   76.5620  221.2210 H   0  0  0  0  0  0  0  0  0  0  0  0
  144.8111   75.8444  220.5508 H   0  0  0  0  0  0  0  0  0  0  0  0
  146.2684   73.8982  219.9205 H   0  0  0  0  0  0  0  0  0  0  0  0
  146.0590   71.0340  220.3140 H   0  0  0  0  0  0  0  0  0  0  0  0
  142.8245   71.3082  220.2051 H   0  0  0  0  0  0  0  0  0  0  0  0
  141.4868   70.8798  220.4860 H   0  0  0  0  0  0  0  0  0  0  0  0
  141.3655   71.3509  222.2548 H   0  0  0  0  0  0  0  0  0  0  0  0
  139.8736   69.3863  220.6741 H   0  0  0  0  0  0  0  0  0  0  0  0
  140.3709   69.4840  222.4615 H   0  0  0  0  0  0  0  0  0  0  0  0
  1  2  2  0
  2  3  2  0
  2  4  1  0
  4  5  1  0
  5  6  2  0
  6  7  1  0
  7  8  2  0
  8  9  1  0
  8 10  1  0
 10 11  2  0
  2 12  1  0
 12 13  1  0
 13 14  1  0
 14 15  1  0
 15 16  1  0
 16 17  2  0
 17 18  1  0
 18 19  1  0
 19 20  2  0
 20 21  1  0
 21 22  2  0
 22 23  1  0
 22 24  1  0
 24 25  2  0
 15 26  1  0
 26 27  1  0
 11  5  1  0
 27 12  1  0
 25 16  1  0
 25 19  1  0
  4 28  1  0
  4 29  1  0
  6 30  1  0
  7 31  1  0
 10 32  1  0
 11 33  1  0
 13 34  1  0
 13 35  1  0
 14 36  1  0
 14 37  1  0
 15 38  1  0
 17 39  1  0
 18 40  1  0
 20 41  1  0
 21 42  1  0
 23 43  1  0
 24 44  1  0
 26 45  1  0
 26 46  1  0
 27 47  1  0
 27 48  1  0
M  END
>  <smiles>  (12) 
O=S(=O)(Cc1ccc(Cl)cc1)N1CCC(c2c[nH]c3ccc(O)cc23)CC1

>  <score_type>  (12) 
oracle

>  <origin>  (12) 
autodockgpu

>  <m_score__min__energy>  (12) 
-8.3599999999999994

>  <m_primary>  (12) 
energy

>  <meeko>  (12) 
{"free_energy": -7.23, "intermolecular_energy": -8.72, "internal_energy": -1.03, "cluster_size": 1, "cluster_id": 6, "rank_in_cluster": 1}

>  <energy>  (12) 
-7.62

>  <cluster_rmsd>  (12) 
1.3

>  <rmsd>  (12) 
271.9

>  <cluster>  (12) 
3

$$$$

     RDKit          3D

 48 51  0  0  0  0  0  0  0  0999 V2000
  139.7250   71.7470  220.6100 O   0  0  0  0  0  0  0  0  0  0  0  0
  140.0150   72.3910  221.9650 S   0  0  0  0  0  0  0  0  0  0  0  0
  141.4290   72.0010  222.2770 O   0  0  0  0  0  0  0  0  0  0  0  0
  138.8580   71.7470  223.0890 C   0  0  0  0  0  0  0  0  0  0  0  0
  139.3530   71.0830  224.2810 C   0  0  0  0  0  0  0  0  0  0  0  0
  140.3810   71.5180  225.0900 C   0  0  0  0  0  0  0  0  0  0  0  0
  140.8020   70.8330  226.2140 C   0  0  0  0  0  0  0  0  0  0  0  0
  140.1830   69.6500  226.5730 C   0  0  0  0  0  0  0  0  0  0  0  0
  140.7010   68.7660  227.9930 Cl  0  0  0  0  0  0  0  0  0  0  0  0
  139.1450   69.1920  225.7740 C   0  0  0  0  0  0  0  0  0  0  0  0
  138.7460   69.8850  224.6690 C   0  0  0  0  0  0  0  0  0  0  0  0
  139.8350   74.0490  221.7710 N   0  0  0  0  0  0  0  0  0  0  0  0
  138.5870   74.5970  221.4890 C   0  0  0  0  0  0  0  0  0  0  0  0
  138.3550   75.8170  222.3910 C   0  0  0  0  0  0  0  0  0  0  0  0
  139.4100   76.8160  221.9650 C   0  0  0  0  0  0  0  0  0  0  0  0
  139.2490   78.1410  222.6020 C   0  0  0  0  0  0  0  0  0  0  0  0
  138.1200   78.7720  223.0770 C   0  0  0  0  0  0  0  0  0  0  0  0
  138.4100   79.9730  223.5820 N   0  0  0  0  0  0  0  0  0  0  0  0
  139.7380   80.1700  223.4550 C   0  0  0  0  0  0  0  0  0  0  0  0
  140.5210   81.2500  223.8240 C   0  0  0  0  0  0  0  0  0  0  0  0
  141.8900   81.2420  223.5960 C   0  0  0  0  0  0  0  0  0  0  0  0
  142.4060   80.1110  222.9900 C   0  0  0  0  0  0  0  0  0  0  0  0
  143.7780   80.0700  222.7460 O   0  0  0  0  0  0  0  0  0  0  0  0
  141.6470   79.0320  222.6180 C   0  0  0  0  0  0  0  0  0  0  0  0
  140.2840   79.0480  222.8480 C   0  0  0  0  0  0  0  0  0  0  0  0
  140.7520   76.2690  222.3350 C   0  0  0  0  0  0  0  0  0  0  0  0
  140.9670   74.8440  221.9460 C   0  0  0  0  0  0  0  0  0  0  0  0
  138.2258   72.5837  223.4210 H   0  0  0  0  0  0  0  0  0  0  0  0
  138.3473   70.9511  222.5270 H   0  0  0  0  0  0  0  0  0  0  0  0
  140.8913   72.4566  224.8279 H   0  0  0  0  0  0  0  0  0  0  0  0
  141.6287   71.2285  226.8224 H   0  0  0  0  0  0  0  0  0  0  0  0
  138.6349   68.2534  226.0364 H   0  0  0  0  0  0  0  0  0  0  0  0
  137.9186   69.4878  224.0627 H   0  0  0  0  0  0  0  0  0  0  0  0
  138.5515   74.9074  220.4343 H   0  0  0  0  0  0  0  0  0  0  0  0
  137.8041   73.8468  221.6740 H   0  0  0  0  0  0  0  0  0  0  0  0
  137.3465   76.2279  222.2359 H   0  0  0  0  0  0  0  0  0  0  0  0
  138.4278   75.5647  223.4592 H   0  0  0  0  0  0  0  0  0  0  0  0
  139.3064   76.9626  220.8797 H   0  0  0  0  0  0  0  0  0  0  0  0
  137.1085   78.3409  223.0442 H   0  0  0  0  0  0  0  0  0  0  0  0
  137.7120   80.6400  224.0040 H   0  0  0  0  0  0  0  0  0  0  0  0
  140.0537   82.1232  224.3027 H   0  0  0  0  0  0  0  0  0  0  0  0
  142.5302   82.0896  223.8819 H   0  0  0  0  0  0  0  0  0  0  0  0
  144.2290   79.2860  222.2940 H   0  0  0  0  0  0  0  0  0  0  0  0
  142.1186   78.1605  222.1404 H   0  0  0  0  0  0  0  0  0  0  0  0
  141.5209   76.8803  221.8399 H   0  0  0  0  0  0  0  0  0  0  0  0
  140.8141   76.3070  223.4326 H   0  0  0  0  0  0  0  0  0  0  0  0
  141.5221   74.8413  220.9963 H   0  0  0  0  0  0  0  0  0  0  0  0
  141.4962   74.3960  222.8000 H   0  0  0  0  0  0  0  0  0  0  0  0
  1  2  2  0
  2  3  2  0
  2  4  1  0
  4  5  1  0
  5  6  2  0
  6  7  1  0
  7  8  2  0
  8  9  1  0
  8 10  1  0
 10 11  2  0
  2 12  1  0
 12 13  1  0
 13 14  1  0
 14 15  1  0
 15 16  1  0
 16 17  2  0
 17 18  1  0
 18 19  1  0
 19 20  2  0
 20 21  1  0
 21 22  2  0
 22 23  1  0
 22 24  1  0
 24 25  2  0
 15 26  1  0
 26 27  1  0
 11  5  1  0
 27 12  1  0
 25 16  1  0
 25 19  1  0
  4 28  1  0
  4 29  1  0
  6 30  1  0
  7 31  1  0
 10 32  1  0
 11 33  1  0
 13 34  1  0
 13 35  1  0
 14 36  1  0
 14 37  1  0
 15 38  1  0
 17 39  1  0
 18 40  1  0
 20 41  1  0
 21 42  1  0
 23 43  1  0
 24 44  1  0
 26 45  1  0
 26 46  1  0
 27 47  1  0
 27 48  1  0
M  END
>  <smiles>  (13) 
O=S(=O)(Cc1ccc(Cl)cc1)N1CCC(c2c[nH]c3ccc(O)cc23)CC1

>  <score_type>  (13) 
oracle

>  <origin>  (13) 
autodockgpu

>  <m_score__min__energy>  (13) 
-8.3599999999999994

>  <m_primary>  (13) 
energy

>  <meeko>  (13) 
{"free_energy": -8.36, "intermolecular_energy": -9.86, "internal_energy": -0.7, "cluster_size": 3, "cluster_id": 1, "rank_in_cluster": 1}

>  <energy>  (13) 
-7.55

>  <cluster_rmsd>  (13) 
0.2

>  <rmsd>  (13) 
271.73

>  <cluster>  (13) 
3

$$$$

     RDKit          3D

 48 51  0  0  0  0  0  0  0  0999 V2000
  138.0200   74.6620  220.9850 O   0  0  0  0  0  0  0  0  0  0  0  0
  139.4620   74.3120  221.3500 S   0  0  0  0  0  0  0  0  0  0  0  0
  139.8430   75.3120  222.4000 O   0  0  0  0  0  0  0  0  0  0  0  0
  140.4000   74.4510  219.8940 C   0  0  0  0  0  0  0  0  0  0  0  0
  141.8120   74.1220  219.9520 C   0  0  0  0  0  0  0  0  0  0  0  0
  142.3810   72.9080  219.6350 C   0  0  0  0  0  0  0  0  0  0  0  0
  143.7390   72.6630  219.7140 C   0  0  0  0  0  0  0  0  0  0  0  0
  144.5980   73.6640  220.1270 C   0  0  0  0  0  0  0  0  0  0  0  0
  146.3210   73.3770  220.2340 Cl  0  0  0  0  0  0  0  0  0  0  0  0
  144.0480   74.8980  220.4510 C   0  0  0  0  0  0  0  0  0  0  0  0
  142.7050   75.1160  220.3650 C   0  0  0  0  0  0  0  0  0  0  0  0
  139.4550   72.7380  221.9340 N   0  0  0  0  0  0  0  0  0  0  0  0
  140.6390   72.0130  222.0340 C   0  0  0  0  0  0  0  0  0  0  0  0
  140.6950   71.3210  223.4030 C   0  0  0  0  0  0  0  0  0  0  0  0
  139.5450   70.3360  223.3820 C   0  0  0  0  0  0  0  0  0  0  0  0
  139.5290   69.4360  224.5550 C   0  0  0  0  0  0  0  0  0  0  0  0
  139.1930   68.1040  224.6550 C   0  0  0  0  0  0  0  0  0  0  0  0
  139.3130   67.6640  225.9090 N   0  0  0  0  0  0  0  0  0  0  0  0
  139.7330   68.6920  226.6740 C   0  0  0  0  0  0  0  0  0  0  0  0
  140.0040   68.7450  228.0300 C   0  0  0  0  0  0  0  0  0  0  0  0
  140.4320   69.9260  228.6210 C   0  0  0  0  0  0  0  0  0  0  0  0
  140.5630   71.0200  227.7840 C   0  0  0  0  0  0  0  0  0  0  0  0
  140.9910   72.2230  228.3440 O   0  0  0  0  0  0  0  0  0  0  0  0
  140.2990   70.9860  226.4390 C   0  0  0  0  0  0  0  0  0  0  0  0
  139.8740   69.8060  225.8590 C   0  0  0  0  0  0  0  0  0  0  0  0
  138.2650   71.1070  223.3530 C   0  0  0  0  0  0  0  0  0  0  0  0
  138.2310   72.2130  222.3510 C   0  0  0  0  0  0  0  0  0  0  0  0
  139.9413   73.7872  219.1463 H   0  0  0  0  0  0  0  0  0  0  0  0
  140.3808   75.5256  219.6599 H   0  0  0  0  0  0  0  0  0  0  0  0
  141.7215   72.0929  219.3024 H   0  0  0  0  0  0  0  0  0  0  0  0
  144.1359   71.6721  219.4484 H   0  0  0  0  0  0  0  0  0  0  0  0
  144.7077   75.7134  220.7827 H   0  0  0  0  0  0  0  0  0  0  0  0
  142.3101   76.1080  220.6296 H   0  0  0  0  0  0  0  0  0  0  0  0
  140.6745   71.2553  221.2374 H   0  0  0  0  0  0  0  0  0  0  0  0
  141.4976   72.6925  221.9288 H   0  0  0  0  0  0  0  0  0  0  0  0
  141.6530   70.7964  223.5338 H   0  0  0  0  0  0  0  0  0  0  0  0
  140.6157   72.0363  224.2349 H   0  0  0  0  0  0  0  0  0  0  0  0
  139.6671   69.7044  222.4897 H   0  0  0  0  0  0  0  0  0  0  0  0
  138.8670   67.4818  223.8084 H   0  0  0  0  0  0  0  0  0  0  0  0
  139.1130   66.6810  226.2310 H   0  0  0  0  0  0  0  0  0  0  0  0
  139.8790   67.8422  228.6458 H   0  0  0  0  0  0  0  0  0  0  0  0
  140.6549   69.9887  229.6964 H   0  0  0  0  0  0  0  0  0  0  0  0
  140.3500   72.9140  228.7070 H   0  0  0  0  0  0  0  0  0  0  0  0
  140.4245   71.8910  225.8264 H   0  0  0  0  0  0  0  0  0  0  0  0
  137.4480   70.4079  223.1209 H   0  0  0  0  0  0  0  0  0  0  0  0
  138.1607   71.5775  224.3418 H   0  0  0  0  0  0  0  0  0  0  0  0
  137.7129   71.8336  221.4579 H   0  0  0  0  0  0  0  0  0  0  0  0
  137.7283   73.0448  222.8662 H   0  0  0  0  0  0  0  0  0  0  0  0
  1  2  2  0
  2  3  2  0
  2  4  1  0
  4  5  1  0
  5  6  2  0
  6  7  1  0
  7  8  2  0
  8  9  1  0
  8 10  1  0
 10 11  2  0
  2 12  1  0
 12 13  1  0
 13 14  1  0
 14 15  1  0
 15 16  1  0
 16 17  2  0
 17 18  1  0
 18 19  1  0
 19 20  2  0
 20 21  1  0
 21 22  2  0
 22 23  1  0
 22 24  1  0
 24 25  2  0
 15 26  1  0
 26 27  1  0
 11  5  1  0
 27 12  1  0
 25 16  1  0
 25 19  1  0
  4 28  1  0
  4 29  1  0
  6 30  1  0
  7 31  1  0
 10 32  1  0
 11 33  1  0
 13 34  1  0
 13 35  1  0
 14 36  1  0
 14 37  1  0
 15 38  1  0
 17 39  1  0
 18 40  1  0
 20 41  1  0
 21 42  1  0
 23 43  1  0
 24 44  1  0
 26 45  1  0
 26 46  1  0
 27 47  1  0
 27 48  1  0
M  END
>  <smiles>  (14) 
O=S(=O)(Cc1ccc(Cl)cc1)N1CCC(c2c[nH]c3ccc(O)cc23)CC1

>  <score_type>  (14) 
oracle

>  <origin>  (14) 
autodockgpu

>  <m_score__min__energy>  (14) 
-8.3599999999999994

>  <m_primary>  (14) 
energy

>  <meeko>  (14) 
{"free_energy": -7.63, "intermolecular_energy": -9.12, "internal_energy": -0.95, "cluster_size": 5, "cluster_id": 3, "rank_in_cluster": 2}

>  <energy>  (14) 
-7.09

>  <cluster_rmsd>  (14) 
1.41

>  <rmsd>  (14) 
271.71

>  <cluster>  (14) 
3

$$$$

     RDKit          3D

 48 51  0  0  0  0  0  0  0  0999 V2000
  137.3080   73.2580  220.4120 O   0  0  0  0  0  0  0  0  0  0  0  0
  136.5020   72.9400  221.6710 S   0  0  0  0  0  0  0  0  0  0  0  0
  135.1220   72.6350  221.1720 O   0  0  0  0  0  0  0  0  0  0  0  0
  136.5730   74.3470  222.6860 C   0  0  0  0  0  0  0  0  0  0  0  0
  135.6300   74.4500  223.7850 C   0  0  0  0  0  0  0  0  0  0  0  0
  135.0690   73.4010  224.4800 C   0  0  0  0  0  0  0  0  0  0  0  0
  134.1740   73.5720  225.5200 C   0  0  0  0  0  0  0  0  0  0  0  0
  133.8030   74.8460  225.9060 C   0  0  0  0  0  0  0  0  0  0  0  0
  132.6710   75.0870  227.2200 Cl  0  0  0  0  0  0  0  0  0  0  0  0
  134.3550   75.9200  225.2210 C   0  0  0  0  0  0  0  0  0  0  0  0
  135.2360   75.7260  224.1990 C   0  0  0  0  0  0  0  0  0  0  0  0
  137.2290   71.6120  222.3990 N   0  0  0  0  0  0  0  0  0  0  0  0
  138.5790   71.3420  222.1920 C   0  0  0  0  0  0  0  0  0  0  0  0
  139.2420   71.0200  223.5390 C   0  0  0  0  0  0  0  0  0  0  0  0
  138.5750   69.7410  223.9980 C   0  0  0  0  0  0  0  0  0  0  0  0
  139.2000   69.1620  225.2070 C   0  0  0  0  0  0  0  0  0  0  0  0
  139.2220   67.8630  225.6670 C   0  0  0  0  0  0  0  0  0  0  0  0
  139.9020   67.7630  226.8110 N   0  0  0  0  0  0  0  0  0  0  0  0
  140.3470   68.9920  227.1410 C   0  0  0  0  0  0  0  0  0  0  0  0
  141.0950   69.4100  228.2290 C   0  0  0  0  0  0  0  0  0  0  0  0
  141.4480   70.7440  228.3740 C   0  0  0  0  0  0  0  0  0  0  0  0
  141.0140   71.6070  227.3840 C   0  0  0  0  0  0  0  0  0  0  0  0
  141.3520   72.9550  227.4970 O   0  0  0  0  0  0  0  0  0  0  0  0
  140.2730   71.2110  226.3000 C   0  0  0  0  0  0  0  0  0  0  0  0
  139.9250   69.8810  226.1630 C   0  0  0  0  0  0  0  0  0  0  0  0
  137.1410   70.0390  224.2970 C   0  0  0  0  0  0  0  0  0  0  0  0
  136.4410   70.8300  223.2420 C   0  0  0  0  0  0  0  0  0  0  0  0
  137.5835   74.3858  223.1189 H   0  0  0  0  0  0  0  0  0  0  0  0
  136.3036   75.1782  222.0178 H   0  0  0  0  0  0  0  0  0  0  0  0
  135.3470   72.3761  224.1932 H   0  0  0  0  0  0  0  0  0  0  0  0
  133.7582   72.6958  226.0390 H   0  0  0  0  0  0  0  0  0  0  0  0
  134.0767   76.9449  225.5078 H   0  0  0  0  0  0  0  0  0  0  0  0
  135.6513   76.6037  223.6822 H   0  0  0  0  0  0  0  0  0  0  0  0
  138.6824   70.4806  221.5158 H   0  0  0  0  0  0  0  0  0  0  0  0
  139.0662   72.2189  221.7406 H   0  0  0  0  0  0  0  0  0  0  0  0
  140.3243   70.8696  223.4128 H   0  0  0  0  0  0  0  0  0  0  0  0
  139.1241   71.8360  224.2672 H   0  0  0  0  0  0  0  0  0  0  0  0
  138.6837   69.0025  223.1900 H   0  0  0  0  0  0  0  0  0  0  0  0
  138.7403   67.0162  225.1562 H   0  0  0  0  0  0  0  0  0  0  0  0
  140.0550   66.8720  227.3510 H   0  0  0  0  0  0  0  0  0  0  0  0
  141.4124   68.6773  228.9856 H   0  0  0  0  0  0  0  0  0  0  0  0
  142.0413   71.0965  229.2306 H   0  0  0  0  0  0  0  0  0  0  0  0
  140.7270   73.6420  227.8950 H   0  0  0  0  0  0  0  0  0  0  0  0
  139.9581   71.9468  225.5454 H   0  0  0  0  0  0  0  0  0  0  0  0
  136.6097   69.0837  224.4196 H   0  0  0  0  0  0  0  0  0  0  0  0
  137.1325   70.6554  225.2080 H   0  0  0  0  0  0  0  0  0  0  0  0
  135.8861   70.1202  222.6108 H   0  0  0  0  0  0  0  0  0  0  0  0
  135.8199   71.5499  223.7952 H   0  0  0  0  0  0  0  0  0  0  0  0
  1  2  2  0
  2  3  2  0
  2  4  1  0
  4  5  1  0
  5  6  2  0
  6  7  1  0
  7  8  2  0
  8  9  1  0
  8 10  1  0
 10 11  2  0
  2 12  1  0
 12 13  1  0
 13 14  1  0
 14 15  1  0
 15 16  1  0
 16 17  2  0
 17 18  1  0
 18 19  1  0
 19 20  2  0
 20 21  1  0
 21 22  2  0
 22 23  1  0
 22 24  1  0
 24 25  2  0
 15 26  1  0
 26 27  1  0
 11  5  1  0
 27 12  1  0
 25 16  1  0
 25 19  1  0
  4 28  1  0
  4 29  1  0
  6 30  1  0
  7 31  1  0
 10 32  1  0
 11 33  1  0
 13 34  1  0
 13 35  1  0
 14 36  1  0
 14 37  1  0
 15 38  1  0
 17 39  1  0
 18 40  1  0
 20 41  1  0
 21 42  1  0
 23 43  1  0
 24 44  1  0
 26 45  1  0
 26 46  1  0
 27 47  1  0
 27 48  1  0
M  END
>  <smiles>  (15) 
O=S(=O)(Cc1ccc(Cl)cc1)N1CCC(c2c[nH]c3ccc(O)cc23)CC1

>  <score_type>  (15) 
oracle

>  <origin>  (15) 
autodockgpu

>  <m_score__min__energy>  (15) 
-8.3599999999999994

>  <m_primary>  (15) 
energy

>  <meeko>  (15) 
{"free_energy": -7.48, "intermolecular_energy": -8.97, "internal_energy": -0.93, "cluster_size": 1, "cluster_id": 4, "rank_in_cluster": 1}

>  <energy>  (15) 
-7.48

>  <cluster_rmsd>  (15) 
0.0

>  <rmsd>  (15) 
271.71

>  <cluster>  (15) 
4

$$$$

     RDKit          3D

 48 51  0  0  0  0  0  0  0  0999 V2000
  138.3720   75.0900  220.3030 O   0  0  0  0  0  0  0  0  0  0  0  0
  139.1830   75.0000  221.5960 S   0  0  0  0  0  0  0  0  0  0  0  0
  138.4020   75.8040  222.5910 O   0  0  0  0  0  0  0  0  0  0  0  0
  140.7520   75.6600  221.2550 C   0  0  0  0  0  0  0  0  0  0  0  0
  141.0720   76.9770  221.7760 C   0  0  0  0  0  0  0  0  0  0  0  0
  141.0810   77.3500  223.1030 C   0  0  0  0  0  0  0  0  0  0  0  0
  141.3960   78.6260  223.5300 C   0  0  0  0  0  0  0  0  0  0  0  0
  141.7230   79.6010  222.6060 C   0  0  0  0  0  0  0  0  0  0  0  0
  142.1250   81.2240  223.1230 Cl  0  0  0  0  0  0  0  0  0  0  0  0
  141.7210   79.2500  221.2620 C   0  0  0  0  0  0  0  0  0  0  0  0
  141.4070   77.9830  220.8650 C   0  0  0  0  0  0  0  0  0  0  0  0
  139.2700   73.3750  222.0100 N   0  0  0  0  0  0  0  0  0  0  0  0
  140.4990   72.7220  222.0610 C   0  0  0  0  0  0  0  0  0  0  0  0
  140.5770   71.8920  223.3500 C   0  0  0  0  0  0  0  0  0  0  0  0
  139.4970   70.8430  223.1970 C   0  0  0  0  0  0  0  0  0  0  0  0
  139.5210   69.8230  224.2680 C   0  0  0  0  0  0  0  0  0  0  0  0
  139.2090   68.4820  224.2320 C   0  0  0  0  0  0  0  0  0  0  0  0
  139.3640   67.9130  225.4300 N   0  0  0  0  0  0  0  0  0  0  0  0
  139.7830   68.8620  226.2910 C   0  0  0  0  0  0  0  0  0  0  0  0
  140.0830   68.7760  227.6400 C   0  0  0  0  0  0  0  0  0  0  0  0
  140.5030   69.8950  228.3440 C   0  0  0  0  0  0  0  0  0  0  0  0
  140.5980   71.0740  227.6270 C   0  0  0  0  0  0  0  0  0  0  0  0
  141.0180   72.2180  228.3030 O   0  0  0  0  0  0  0  0  0  0  0  0
  140.3060   71.1780  226.2910 C   0  0  0  0  0  0  0  0  0  0  0  0
  139.8880   70.0590  225.5970 C   0  0  0  0  0  0  0  0  0  0  0  0
  138.1680   71.5280  223.2190 C   0  0  0  0  0  0  0  0  0  0  0  0
  138.0780   72.7300  222.3390 C   0  0  0  0  0  0  0  0  0  0  0  0
  141.4958   74.9591  221.6619 H   0  0  0  0  0  0  0  0  0  0  0  0
  140.7606   75.7903  220.1628 H   0  0  0  0  0  0  0  0  0  0  0  0
  140.8246   76.5941  223.8599 H   0  0  0  0  0  0  0  0  0  0  0  0
  141.3866   78.8656  224.6036 H   0  0  0  0  0  0  0  0  0  0  0  0
  141.9768   80.0061  220.5052 H   0  0  0  0  0  0  0  0  0  0  0  0
  141.4178   77.7449  219.7911 H   0  0  0  0  0  0  0  0  0  0  0  0
  140.5993   72.0583  221.1895 H   0  0  0  0  0  0  0  0  0  0  0  0
  141.3118   73.4631  222.0491 H   0  0  0  0  0  0  0  0  0  0  0  0
  141.5656   71.4196  223.4481 H   0  0  0  0  0  0  0  0  0  0  0  0
  140.4351   72.5074  224.2506 H   0  0  0  0  0  0  0  0  0  0  0  0
  139.6769   70.3202  222.2460 H   0  0  0  0  0  0  0  0  0  0  0  0
  138.8745   67.9475  223.3306 H   0  0  0  0  0  0  0  0  0  0  0  0
  139.1870   66.8980  225.6480 H   0  0  0  0  0  0  0  0  0  0  0  0
  139.9873   67.8107  228.1586 H   0  0  0  0  0  0  0  0  0  0  0  0
  140.7475   69.8473  229.4154 H   0  0  0  0  0  0  0  0  0  0  0  0
  140.3960   72.9860  228.5150 H   0  0  0  0  0  0  0  0  0  0  0  0
  140.4039   72.1450  225.7760 H   0  0  0  0  0  0  0  0  0  0  0  0
  137.4038   70.8064  222.8945 H   0  0  0  0  0  0  0  0  0  0  0  0
  138.0147   71.8817  224.2492 H   0  0  0  0  0  0  0  0  0  0  0  0
  137.6025   72.4154  221.3983 H   0  0  0  0  0  0  0  0  0  0  0  0
  137.5120   73.4675  222.9270 H   0  0  0  0  0  0  0  0  0  0  0  0
  1  2  2  0
  2  3  2  0
  2  4  1  0
  4  5  1  0
  5  6  2  0
  6  7  1  0
  7  8  2  0
  8  9  1  0
  8 10  1  0
 10 11  2  0
  2 12  1  0
 12 13  1  0
 13 14  1  0
 14 15  1  0
 15 16  1  0
 16 17  2  0
 17 18  1  0
 18 19  1  0
 19 20  2  0
 20 21  1  0
 21 22  2  0
 22 23  1  0
 22 24  1  0
 24 25  2  0
 15 26  1  0
 26 27  1  0
 11  5  1  0
 27 12  1  0
 25 16  1  0
 25 19  1  0
  4 28  1  0
  4 29  1  0
  6 30  1  0
  7 31  1  0
 10 32  1  0
 11 33  1  0
 13 34  1  0
 13 35  1  0
 14 36  1  0
 14 37  1  0
 15 38  1  0
 17 39  1  0
 18 40  1  0
 20 41  1  0
 21 42  1  0
 23 43  1  0
 24 44  1  0
 26 45  1  0
 26 46  1  0
 27 47  1  0
 27 48  1  0
M  END
>  <smiles>  (16) 
O=S(=O)(Cc1ccc(Cl)cc1)N1CCC(c2c[nH]c3ccc(O)cc23)CC1

>  <score_type>  (16) 
oracle

>  <origin>  (16) 
autodockgpu

>  <m_score__min__energy>  (16) 
-8.3599999999999994

>  <m_primary>  (16) 
energy

>  <meeko>  (16) 
{"free_energy": -8.24, "intermolecular_energy": -9.73, "internal_energy": -0.83, "cluster_size": 6, "cluster_id": 2, "rank_in_cluster": 1}

>  <energy>  (16) 
-7.27

>  <cluster_rmsd>  (16) 
0.0

>  <rmsd>  (16) 
271.61

>  <cluster>  (16) 
5

$$$$

     RDKit          3D

 48 51  0  0  0  0  0  0  0  0999 V2000
  138.8690   72.6050  219.3500 O   0  0  0  0  0  0  0  0  0  0  0  0
  138.4500   73.1210  220.7260 S   0  0  0  0  0  0  0  0  0  0  0  0
  137.0810   73.6960  220.5170 O   0  0  0  0  0  0  0  0  0  0  0  0
  139.6290   74.3050  221.2020 C   0  0  0  0  0  0  0  0  0  0  0  0
  141.0310   74.0080  220.9750 C   0  0  0  0  0  0  0  0  0  0  0  0
  141.6320   72.7730  221.0820 C   0  0  0  0  0  0  0  0  0  0  0  0
  142.9790   72.5620  220.8500 C   0  0  0  0  0  0  0  0  0  0  0  0
  143.7910   73.6210  220.4910 C   0  0  0  0  0  0  0  0  0  0  0  0
  145.4980   73.3770  220.1920 Cl  0  0  0  0  0  0  0  0  0  0  0  0
  143.2080   74.8760  220.3760 C   0  0  0  0  0  0  0  0  0  0  0  0
  141.8770   75.0600  220.6090 C   0  0  0  0  0  0  0  0  0  0  0  0
  138.4410   71.8020  221.7650 N   0  0  0  0  0  0  0  0  0  0  0  0
  139.2620   70.7050  221.5240 C   0  0  0  0  0  0  0  0  0  0  0  0
  139.9570   70.2960  222.8300 C   0  0  0  0  0  0  0  0  0  0  0  0
  138.8320   69.8470  223.7390 C   0  0  0  0  0  0  0  0  0  0  0  0
  139.3100   69.2450  225.0020 C   0  0  0  0  0  0  0  0  0  0  0  0
  139.2110   67.9530  225.4710 C   0  0  0  0  0  0  0  0  0  0  0  0
  139.7800   67.8250  226.6710 N   0  0  0  0  0  0  0  0  0  0  0  0
  140.2720   69.0270  227.0310 C   0  0  0  0  0  0  0  0  0  0  0  0
  140.9460   69.4110  228.1770 C   0  0  0  0  0  0  0  0  0  0  0  0
  141.3700   70.7230  228.3430 C   0  0  0  0  0  0  0  0  0  0  0  0
  141.0790   71.5990  227.3130 C   0  0  0  0  0  0  0  0  0  0  0  0
  141.4890   72.9240  227.4470 O   0  0  0  0  0  0  0  0  0  0  0  0
  140.4120   71.2370  226.1710 C   0  0  0  0  0  0  0  0  0  0  0  0
  139.9940   69.9290  226.0130 C   0  0  0  0  0  0  0  0  0  0  0  0
  137.9880   71.0370  224.0670 C   0  0  0  0  0  0  0  0  0  0  0  0
  137.6170   71.8750  222.8890 C   0  0  0  0  0  0  0  0  0  0  0  0
  139.3995   75.2315  220.6553 H   0  0  0  0  0  0  0  0  0  0  0  0
  139.5358   74.3568  222.2968 H   0  0  0  0  0  0  0  0  0  0  0  0
  141.0095   71.9118  221.3661 H   0  0  0  0  0  0  0  0  0  0  0  0
  143.4036   71.5523  220.9511 H   0  0  0  0  0  0  0  0  0  0  0  0
  143.8308   75.7370  220.0919 H   0  0  0  0  0  0  0  0  0  0  0  0
  141.4543   76.0702  220.5055 H   0  0  0  0  0  0  0  0  0  0  0  0
  138.6551   69.8663  221.1523 H   0  0  0  0  0  0  0  0  0  0  0  0
  140.0187   70.9690  220.7705 H   0  0  0  0  0  0  0  0  0  0  0  0
  140.6641   69.4724  222.6518 H   0  0  0  0  0  0  0  0  0  0  0  0
  140.5415   71.1194  223.2663 H   0  0  0  0  0  0  0  0  0  0  0  0
  138.2643   69.0718  223.2034 H   0  0  0  0  0  0  0  0  0  0  0  0
  138.7245   67.1312  224.9251 H   0  0  0  0  0  0  0  0  0  0  0  0
  139.8290   66.9320  227.2280 H   0  0  0  0  0  0  0  0  0  0  0  0
  141.1479   68.6697  228.9642 H   0  0  0  0  0  0  0  0  0  0  0  0
  141.9085   71.0481  229.2454 H   0  0  0  0  0  0  0  0  0  0  0  0
  140.8730   73.6560  227.7710 H   0  0  0  0  0  0  0  0  0  0  0  0
  140.2111   71.9817  225.3867 H   0  0  0  0  0  0  0  0  0  0  0  0
  137.0615   70.6811  224.5412 H   0  0  0  0  0  0  0  0  0  0  0  0
  138.5911   71.6761  224.7286 H   0  0  0  0  0  0  0  0  0  0  0  0
  136.6055   71.5762  222.5768 H   0  0  0  0  0  0  0  0  0  0  0  0
  137.7115   72.9130  223.2407 H   0  0  0  0  0  0  0  0  0  0  0  0
  1  2  2  0
  2  3  2  0
  2  4  1  0
  4  5  1  0
  5  6  2  0
  6  7  1  0
  7  8  2  0
  8  9  1  0
  8 10  1  0
 10 11  2  0
  2 12  1  0
 12 13  1  0
 13 14  1  0
 14 15  1  0
 15 16  1  0
 16 17  2  0
 17 18  1  0
 18 19  1  0
 19 20  2  0
 20 21  1  0
 21 22  2  0
 22 23  1  0
 22 24  1  0
 24 25  2  0
 15 26  1  0
 26 27  1  0
 11  5  1  0
 27 12  1  0
 25 16  1  0
 25 19  1  0
  4 28  1  0
  4 29  1  0
  6 30  1  0
  7 31  1  0
 10 32  1  0
 11 33  1  0
 13 34  1  0
 13 35  1  0
 14 36  1  0
 14 37  1  0
 15 38  1  0
 17 39  1  0
 18 40  1  0
 20 41  1  0
 21 42  1  0
 23 43  1  0
 24 44  1  0
 26 45  1  0
 26 46  1  0
 27 47  1  0
 27 48  1  0
M  END
>  <smiles>  (17) 
O=S(=O)(Cc1ccc(Cl)cc1)N1CCC(c2c[nH]c3ccc(O)cc23)CC1

>  <score_type>  (17) 
oracle

>  <origin>  (17) 
autodockgpu

>  <m_score__min__energy>  (17) 
-8.3599999999999994

>  <m_primary>  (17) 
energy

>  <meeko>  (17) 
{"free_energy": -7.65, "intermolecular_energy": -9.14, "internal_energy": -1.15, "cluster_size": 5, "cluster_id": 3, "rank_in_cluster": 1}

>  <energy>  (17) 
-7.22

>  <cluster_rmsd>  (17) 
0.32

>  <rmsd>  (17) 
271.49

>  <cluster>  (17) 
5

$$$$

     RDKit          3D

 48 51  0  0  0  0  0  0  0  0999 V2000
  139.7870   71.7560  220.6390 O   0  0  0  0  0  0  0  0  0  0  0  0
  140.0350   72.4150  221.9960 S   0  0  0  0  0  0  0  0  0  0  0  0
  141.4490   72.0560  222.3410 O   0  0  0  0  0  0  0  0  0  0  0  0
  138.8670   71.7550  223.0990 C   0  0  0  0  0  0  0  0  0  0  0  0
  139.3470   70.9600  224.2140 C   0  0  0  0  0  0  0  0  0  0  0  0
  138.9570   69.6760  224.5280 C   0  0  0  0  0  0  0  0  0  0  0  0
  139.4580   68.9740  225.6090 C   0  0  0  0  0  0  0  0  0  0  0  0
  140.3980   69.5610  226.4360 C   0  0  0  0  0  0  0  0  0  0  0  0
  141.0450   68.6920  227.8110 Cl  0  0  0  0  0  0  0  0  0  0  0  0
  140.8070   70.8540  226.1400 C   0  0  0  0  0  0  0  0  0  0  0  0
  140.2990   71.5260  225.0670 C   0  0  0  0  0  0  0  0  0  0  0  0
  139.8250   74.0680  221.7860 N   0  0  0  0  0  0  0  0  0  0  0  0
  138.5620   74.5940  221.5280 C   0  0  0  0  0  0  0  0  0  0  0  0
  138.3350   75.8220  222.4210 C   0  0  0  0  0  0  0  0  0  0  0  0
  139.3640   76.8300  221.9560 C   0  0  0  0  0  0  0  0  0  0  0  0
  139.1990   78.1610  222.5800 C   0  0  0  0  0  0  0  0  0  0  0  0
  138.0640   78.8070  223.0200 C   0  0  0  0  0  0  0  0  0  0  0  0
  138.3530   80.0080  223.5260 N   0  0  0  0  0  0  0  0  0  0  0  0
  139.6850   80.1900  223.4350 C   0  0  0  0  0  0  0  0  0  0  0  0
  140.4690   81.2640  223.8190 C   0  0  0  0  0  0  0  0  0  0  0  0
  141.8440   81.2410  223.6300 C   0  0  0  0  0  0  0  0  0  0  0  0
  142.3650   80.1010  223.0460 C   0  0  0  0  0  0  0  0  0  0  0  0
  143.7430   80.0430  222.8410 O   0  0  0  0  0  0  0  0  0  0  0  0
  141.6050   79.0270  222.6590 C   0  0  0  0  0  0  0  0  0  0  0  0
  140.2370   79.0590  222.8510 C   0  0  0  0  0  0  0  0  0  0  0  0
  140.7230   76.3080  222.2990 C   0  0  0  0  0  0  0  0  0  0  0  0
  140.9490   74.8810  221.9230 C   0  0  0  0  0  0  0  0  0  0  0  0
  138.3030   72.6001  223.5204 H   0  0  0  0  0  0  0  0  0  0  0  0
  138.2878   71.0460  222.4892 H   0  0  0  0  0  0  0  0  0  0  0  0
  138.2100   69.1851  223.8868 H   0  0  0  0  0  0  0  0  0  0  0  0
  139.1093   67.9504  225.8106 H   0  0  0  0  0  0  0  0  0  0  0  0
  141.5535   71.3451  226.7815 H   0  0  0  0  0  0  0  0  0  0  0  0
  140.6507   72.5487  224.8660 H   0  0  0  0  0  0  0  0  0  0  0  0
  138.4958   74.8905  220.4708 H   0  0  0  0  0  0  0  0  0  0  0  0
  137.7948   73.8350  221.7410 H   0  0  0  0  0  0  0  0  0  0  0  0
  137.3170   76.2166  222.2867 H   0  0  0  0  0  0  0  0  0  0  0  0
  138.4384   75.5843  223.4900 H   0  0  0  0  0  0  0  0  0  0  0  0
  139.2313   76.9603  220.8718 H   0  0  0  0  0  0  0  0  0  0  0  0
  137.0492   78.3865  222.9617 H   0  0  0  0  0  0  0  0  0  0  0  0
  137.6500   80.6840  223.9240 H   0  0  0  0  0  0  0  0  0  0  0  0
  139.9975   82.1451  224.2788 H   0  0  0  0  0  0  0  0  0  0  0  0
  142.4845   82.0840  223.9286 H   0  0  0  0  0  0  0  0  0  0  0  0
  144.1530   79.7000  221.9840 H   0  0  0  0  0  0  0  0  0  0  0  0
  142.0803   78.1477  222.1997 H   0  0  0  0  0  0  0  0  0  0  0  0
  141.4699   76.9238  221.7766 H   0  0  0  0  0  0  0  0  0  0  0  0
  140.8126   76.3619  223.3940 H   0  0  0  0  0  0  0  0  0  0  0  0
  141.4808   74.8737  220.9601 H   0  0  0  0  0  0  0  0  0  0  0  0
  141.5052   74.4518  222.7694 H   0  0  0  0  0  0  0  0  0  0  0  0
  1  2  2  0
  2  3  2  0
  2  4  1  0
  4  5  1  0
  5  6  2  0
  6  7  1  0
  7  8  2  0
  8  9  1  0
  8 10  1  0
 10 11  2  0
  2 12  1  0
 12 13  1  0
 13 14  1  0
 14 15  1  0
 15 16  1  0
 16 17  2  0
 17 18  1  0
 18 19  1  0
 19 20  2  0
 20 21  1  0
 21 22  2  0
 22 23  1  0
 22 24  1  0
 24 25  2  0
 15 26  1  0
 26 27  1  0
 11  5  1  0
 27 12  1  0
 25 16  1  0
 25 19  1  0
  4 28  1  0
  4 29  1  0
  6 30  1  0
  7 31  1  0
 10 32  1  0
 11 33  1  0
 13 34  1  0
 13 35  1  0
 14 36  1  0
 14 37  1  0
 15 38  1  0
 17 39  1  0
 18 40  1  0
 20 41  1  0
 21 42  1  0
 23 43  1  0
 24 44  1  0
 26 45  1  0
 26 46  1  0
 27 47  1  0
 27 48  1  0
M  END
>  <smiles>  (18) 
O=S(=O)(Cc1ccc(Cl)cc1)N1CCC(c2c[nH]c3ccc(O)cc23)CC1

>  <score_type>  (18) 
oracle

>  <origin>  (18) 
autodockgpu

>  <m_score__min__energy>  (18) 
-8.3599999999999994

>  <m_primary>  (18) 
energy

>  <meeko>  (18) 
{"free_energy": -8.29, "intermolecular_energy": -9.78, "internal_energy": -0.66, "cluster_size": 3, "cluster_id": 1, "rank_in_cluster": 2}

>  <energy>  (18) 
-7.2

>  <cluster_rmsd>  (18) 
0.31

>  <rmsd>  (18) 
271.53

>  <cluster>  (18) 
5

$$$$

     RDKit          3D

 48 51  0  0  0  0  0  0  0  0999 V2000
  135.9500   72.8670  221.1200 O   0  0  0  0  0  0  0  0  0  0  0  0
  137.1430   73.2570  221.9920 S   0  0  0  0  0  0  0  0  0  0  0  0
  136.5540   74.0800  223.0980 O   0  0  0  0  0  0  0  0  0  0  0  0
  138.2410   74.1450  220.9810 C   0  0  0  0  0  0  0  0  0  0  0  0
  138.9420   75.2780  221.5570 C   0  0  0  0  0  0  0  0  0  0  0  0
  138.3640   76.3900  222.1300 C   0  0  0  0  0  0  0  0  0  0  0  0
  139.0950   77.4360  222.6620 C   0  0  0  0  0  0  0  0  0  0  0  0
  140.4760   77.3970  222.6320 C   0  0  0  0  0  0  0  0  0  0  0  0
  141.4220   78.7100  223.2980 Cl  0  0  0  0  0  0  0  0  0  0  0  0
  141.0820   76.2860  222.0600 C   0  0  0  0  0  0  0  0  0  0  0  0
  140.3400   75.2660  221.5430 C   0  0  0  0  0  0  0  0  0  0  0  0
  137.8320   71.8300  222.5510 N   0  0  0  0  0  0  0  0  0  0  0  0
  139.2070   71.6320  222.4790 C   0  0  0  0  0  0  0  0  0  0  0  0
  139.7080   71.0730  223.8180 C   0  0  0  0  0  0  0  0  0  0  0  0
  139.0470   69.7160  223.9390 C   0  0  0  0  0  0  0  0  0  0  0  0
  139.5380   68.9300  225.0910 C   0  0  0  0  0  0  0  0  0  0  0  0
  139.5240   67.5720  225.3170 C   0  0  0  0  0  0  0  0  0  0  0  0
  140.0720   67.2680  226.4960 N   0  0  0  0  0  0  0  0  0  0  0  0
  140.4640   68.4160  227.0820 C   0  0  0  0  0  0  0  0  0  0  0  0
  141.0800   68.6330  228.3030 C   0  0  0  0  0  0  0  0  0  0  0  0
  141.4000   69.9190  228.7160 C   0  0  0  0  0  0  0  0  0  0  0  0
  141.0700   70.9440  227.8490 C   0  0  0  0  0  0  0  0  0  0  0  0
  141.3780   72.2490  228.2320 O   0  0  0  0  0  0  0  0  0  0  0  0
  140.4600   70.7490  226.6370 C   0  0  0  0  0  0  0  0  0  0  0  0
  140.1440   69.4660  226.2320 C   0  0  0  0  0  0  0  0  0  0  0  0
  137.5740   69.9230  224.0940 C   0  0  0  0  0  0  0  0  0  0  0  0
  136.9790   70.8860  223.1210 C   0  0  0  0  0  0  0  0  0  0  0  0
  139.0036   73.4359  220.6266 H   0  0  0  0  0  0  0  0  0  0  0  0
  137.5988   74.5882  220.2057 H   0  0  0  0  0  0  0  0  0  0  0  0
  137.2661   76.4483  222.1659 H   0  0  0  0  0  0  0  0  0  0  0  0
  138.5780   78.2981  223.1086 H   0  0  0  0  0  0  0  0  0  0  0  0
  142.1799   76.2281  222.0235 H   0  0  0  0  0  0  0  0  0  0  0  0
  140.8591   74.4036  221.0994 H   0  0  0  0  0  0  0  0  0  0  0  0
  139.4340   70.9174  221.6741 H   0  0  0  0  0  0  0  0  0  0  0  0
  139.7073   72.5886  222.2679 H   0  0  0  0  0  0  0  0  0  0  0  0
  140.8033   70.9718  223.8107 H   0  0  0  0  0  0  0  0  0  0  0  0
  139.4618   71.7329  224.6629 H   0  0  0  0  0  0  0  0  0  0  0  0
  139.2919   69.1467  223.0302 H   0  0  0  0  0  0  0  0  0  0  0  0
  139.1134   66.8312  224.6151 H   0  0  0  0  0  0  0  0  0  0  0  0
  140.1730   66.2950  226.8870 H   0  0  0  0  0  0  0  0  0  0  0  0
  141.3182   67.7776  228.9523 H   0  0  0  0  0  0  0  0  0  0  0  0
  141.8900   70.1122  229.6817 H   0  0  0  0  0  0  0  0  0  0  0  0
  140.6700   72.9230  228.4880 H   0  0  0  0  0  0  0  0  0  0  0  0
  140.2237   71.6076  225.9913 H   0  0  0  0  0  0  0  0  0  0  0  0
  137.0749   68.9513  223.9647 H   0  0  0  0  0  0  0  0  0  0  0  0
  137.4220   70.3545  225.0943 H   0  0  0  0  0  0  0  0  0  0  0  0
  136.5414   70.2984  222.3005 H   0  0  0  0  0  0  0  0  0  0  0  0
  136.2608   71.4748  223.7106 H   0  0  0  0  0  0  0  0  0  0  0  0
  1  2  2  0
  2  3  2  0
  2  4  1  0
  4  5  1  0
  5  6  2  0
  6  7  1  0
  7  8  2  0
  8  9  1  0
  8 10  1  0
 10 11  2  0
  2 12  1  0
 12 13  1  0
 13 14  1  0
 14 15  1  0
 15 16  1  0
 16 17  2  0
 17 18  1  0
 18 19  1  0
 19 20  2  0
 20 21  1  0
 21 22  2  0
 22 23  1  0
 22 24  1  0
 24 25  2  0
 15 26  1  0
 26 27  1  0
 11  5  1  0
 27 12  1  0
 25 16  1  0
 25 19  1  0
  4 28  1  0
  4 29  1  0
  6 30  1  0
  7 31  1  0
 10 32  1  0
 11 33  1  0
 13 34  1  0
 13 35  1  0
 14 36  1  0
 14 37  1  0
 15 38  1  0
 17 39  1  0
 18 40  1  0
 20 41  1  0
 21 42  1  0
 23 43  1  0
 24 44  1  0
 26 45  1  0
 26 46  1  0
 27 47  1  0
 27 48  1  0
M  END
>  <smiles>  (19) 
O=S(=O)(Cc1ccc(Cl)cc1)N1CCC(c2c[nH]c3ccc(O)cc23)CC1

>  <score_type>  (19) 
oracle

>  <origin>  (19) 
autodockgpu

>  <m_score__min__energy>  (19) 
-8.3599999999999994

>  <m_primary>  (19) 
energy

>  <meeko>  (19) 
{"free_energy": -7.77, "intermolecular_energy": -9.26, "internal_energy": -0.81, "cluster_size": 6, "cluster_id": 2, "rank_in_cluster": 6}

>  <energy>  (19) 
-7.23

>  <cluster_rmsd>  (19) 
0.0

>  <rmsd>  (19) 
271.2

>  <cluster>  (19) 
6

$$$$

     RDKit          3D

 48 51  0  0  0  0  0  0  0  0999 V2000
  138.0060   74.6980  221.0290 O   0  0  0  0  0  0  0  0  0  0  0  0
  139.4510   74.3500  221.3850 S   0  0  0  0  0  0  0  0  0  0  0  0
  139.8310   75.3380  222.4470 O   0  0  0  0  0  0  0  0  0  0  0  0
  140.3840   74.5110  219.9280 C   0  0  0  0  0  0  0  0  0  0  0  0
  141.7910   74.1590  219.9710 C   0  0  0  0  0  0  0  0  0  0  0  0
  142.3390   72.9420  219.6300 C   0  0  0  0  0  0  0  0  0  0  0  0
  143.6940   72.6750  219.6940 C   0  0  0  0  0  0  0  0  0  0  0  0
  144.5700   73.6570  220.1180 C   0  0  0  0  0  0  0  0  0  0  0  0
  146.2900   73.3410  220.2080 Cl  0  0  0  0  0  0  0  0  0  0  0  0
  144.0420   74.8930  220.4670 C   0  0  0  0  0  0  0  0  0  0  0  0
  142.7010   75.1320  220.3950 C   0  0  0  0  0  0  0  0  0  0  0  0
  139.4520   72.7680  221.9500 N   0  0  0  0  0  0  0  0  0  0  0  0
  140.6430   72.0540  222.0550 C   0  0  0  0  0  0  0  0  0  0  0  0
  140.6890   71.3460  223.4160 C   0  0  0  0  0  0  0  0  0  0  0  0
  139.5500   70.3490  223.3680 C   0  0  0  0  0  0  0  0  0  0  0  0
  139.5280   69.4350  224.5300 C   0  0  0  0  0  0  0  0  0  0  0  0
  139.1930   68.1010  224.6120 C   0  0  0  0  0  0  0  0  0  0  0  0
  139.3080   67.6460  225.8610 N   0  0  0  0  0  0  0  0  0  0  0  0
  139.7220   68.6640  226.6410 C   0  0  0  0  0  0  0  0  0  0  0  0
  139.9870   68.7010  227.9990 C   0  0  0  0  0  0  0  0  0  0  0  0
  140.4090   69.8750  228.6070 C   0  0  0  0  0  0  0  0  0  0  0  0
  140.5440   70.9790  227.7850 C   0  0  0  0  0  0  0  0  0  0  0  0
  140.9670   72.1750  228.3620 O   0  0  0  0  0  0  0  0  0  0  0  0
  140.2870   70.9620  226.4380 C   0  0  0  0  0  0  0  0  0  0  0  0
  139.8660   69.7890  225.8410 C   0  0  0  0  0  0  0  0  0  0  0  0
  138.2620   71.1080  223.3340 C   0  0  0  0  0  0  0  0  0  0  0  0
  138.2290   72.2260  222.3450 C   0  0  0  0  0  0  0  0  0  0  0  0
  139.9116   73.8732  219.1664 H   0  0  0  0  0  0  0  0  0  0  0  0
  140.3801   75.5913  219.7205 H   0  0  0  0  0  0  0  0  0  0  0  0
  141.6646   72.1424  219.2897 H   0  0  0  0  0  0  0  0  0  0  0  0
  144.0744   71.6832  219.4081 H   0  0  0  0  0  0  0  0  0  0  0  0
  144.7164   75.6927  220.8072 H   0  0  0  0  0  0  0  0  0  0  0  0
  142.3225   76.1246  220.6804 H   0  0  0  0  0  0  0  0  0  0  0  0
  140.6961   71.3067  221.2496 H   0  0  0  0  0  0  0  0  0  0  0  0
  141.4959   72.7433  221.9681 H   0  0  0  0  0  0  0  0  0  0  0  0
  141.6508   70.8301  223.5528 H   0  0  0  0  0  0  0  0  0  0  0  0
  140.5913   72.0501  224.2555 H   0  0  0  0  0  0  0  0  0  0  0  0
  139.6903   69.7300  222.4696 H   0  0  0  0  0  0  0  0  0  0  0  0
  138.8716   67.4889  223.7564 H   0  0  0  0  0  0  0  0  0  0  0  0
  139.1070   66.6590  226.1690 H   0  0  0  0  0  0  0  0  0  0  0  0
  139.8618   67.7901  228.6028 H   0  0  0  0  0  0  0  0  0  0  0  0
  140.6245   69.9248  229.6845 H   0  0  0  0  0  0  0  0  0  0  0  0
  140.3290   72.8290  228.7920 H   0  0  0  0  0  0  0  0  0  0  0  0
  140.4150   71.8748  225.8376 H   0  0  0  0  0  0  0  0  0  0  0  0
  137.4546   70.4040  223.0840 H   0  0  0  0  0  0  0  0  0  0  0  0
  138.1414   71.5649  224.3273 H   0  0  0  0  0  0  0  0  0  0  0  0
  137.7259   71.8524  221.4409 H   0  0  0  0  0  0  0  0  0  0  0  0
  137.7114   73.0463  222.8639 H   0  0  0  0  0  0  0  0  0  0  0  0
  1  2  2  0
  2  3  2  0
  2  4  1  0
  4  5  1  0
  5  6  2  0
  6  7  1  0
  7  8  2  0
  8  9  1  0
  8 10  1  0
 10 11  2  0
  2 12  1  0
 12 13  1  0
 13 14  1  0
 14 15  1  0
 15 16  1  0
 16 17  2  0
 17 18  1  0
 18 19  1  0
 19 20  2  0
 20 21  1  0
 21 22  2  0
 22 23  1  0
 22 24  1  0
 24 25  2  0
 15 26  1  0
 26 27  1  0
 11  5  1  0
 27 12  1  0
 25 16  1  0
 25 19  1  0
  4 28  1  0
  4 29  1  0
  6 30  1  0
  7 31  1  0
 10 32  1  0
 11 33  1  0
 13 34  1  0
 13 35  1  0
 14 36  1  0
 14 37  1  0
 15 38  1  0
 17 39  1  0
 18 40  1  0
 20 41  1  0
 21 42  1  0
 23 43  1  0
 24 44  1  0
 26 45  1  0
 26 46  1  0
 27 47  1  0
 27 48  1  0
M  END
>  <smiles>  (20) 
O=S(=O)(Cc1ccc(Cl)cc1)N1CCC(c2c[nH]c3ccc(O)cc23)CC1

>  <score_type>  (20) 
oracle

>  <origin>  (20) 
autodockgpu

>  <m_score__min__energy>  (20) 
-8.3599999999999994

>  <m_primary>  (20) 
energy

>  <meeko>  (20) 
{"free_energy": -7.62, "intermolecular_energy": -9.11, "internal_energy": -0.94, "cluster_size": 5, "cluster_id": 3, "rank_in_cluster": 3}

>  <energy>  (20) 
-7.03

>  <cluster_rmsd>  (20) 
0.0

>  <rmsd>  (20) 
271.06

>  <cluster>  (20) 
7

$$$$
