QHTAHHNEYOTCSC-LJQANCHMNA-N
     RDKit          3D

 44 47  0  0  0  0  0  0  0  0999 V2000
  141.8500   78.2680  223.8390 O   0  0  0  0  0  0  0  0  0  0  0  0
  142.0460   79.4900  222.9840 S   0  0  0  0  0  0  0  0  0  0  0  0
  143.5220   79.7430  222.8410 O   0  0  0  0  0  0  0  0  0  0  0  0
  141.2860   80.8680  223.8280 C   0  0  0  0  0  0  0  0  0  0  0  0
  139.8450   81.0140  223.4320 C   0  0  0  0  0  0  0  0  0  0  0  0
  138.8320   80.4400  224.2190 C   0  0  0  0  0  0  0  0  0  0  0  0
  137.4890   80.6100  223.8720 C   0  0  0  0  0  0  0  0  0  0  0  0
  137.1470   81.3560  222.7400 C   0  0  0  0  0  0  0  0  0  0  0  0
  138.1490   81.9350  221.9550 C   0  0  0  0  0  0  0  0  0  0  0  0
  139.4930   81.7680  222.2990 C   0  0  0  0  0  0  0  0  0  0  0  0
  141.2840   79.2570  221.4210 N   0  0  0  0  0  0  0  0  0  0  0  0
  141.8280   80.1470  220.3940 C   0  0  0  0  0  0  0  0  0  0  0  0
  141.5410   79.4810  219.0620 C   0  0  0  0  0  0  0  0  0  0  0  0
  141.4550   77.9970  219.3770 C   0  0  0  0  0  0  0  0  0  0  0  0
  141.4920   77.9000  220.9050 C   0  0  2  0  0  0  0  0  0  0  0  0
  140.4240   76.9710  221.4190 C   0  0  0  0  0  0  0  0  0  0  0  0
  140.6050   75.6880  221.9330 C   0  0  0  0  0  0  0  0  0  0  0  0
  139.4280   75.1830  222.3670 N   0  0  0  0  0  0  0  0  0  0  0  0
  138.5090   76.1400  222.1470 C   0  0  0  0  0  0  0  0  0  0  0  0
  137.1500   76.0890  222.4490 C   0  0  0  0  0  0  0  0  0  0  0  0
  136.3670   77.2200  222.1520 C   0  0  0  0  0  0  0  0  0  0  0  0
  136.9560   78.3650  221.5700 C   0  0  0  0  0  0  0  0  0  0  0  0
  138.3320   78.3880  221.2770 C   0  0  0  0  0  0  0  0  0  0  0  0
  139.0800   77.2490  221.5770 C   0  0  0  0  0  0  0  0  0  0  0  0
  141.3455   80.7018  224.9137 H   0  0  0  0  0  0  0  0  0  0  0  0
  141.8208   81.7878  223.5487 H   0  0  0  0  0  0  0  0  0  0  0  0
  139.0973   79.8546  225.1117 H   0  0  0  0  0  0  0  0  0  0  0  0
  136.7002   80.1564  224.4901 H   0  0  0  0  0  0  0  0  0  0  0  0
  136.0896   81.4875  222.4669 H   0  0  0  0  0  0  0  0  0  0  0  0
  137.8788   82.5228  221.0654 H   0  0  0  0  0  0  0  0  0  0  0  0
  140.2782   82.2281  221.6811 H   0  0  0  0  0  0  0  0  0  0  0  0
  141.3371   81.1302  220.4424 H   0  0  0  0  0  0  0  0  0  0  0  0
  142.9064   80.3112  220.5360 H   0  0  0  0  0  0  0  0  0  0  0  0
  140.5900   79.8438  218.6449 H   0  0  0  0  0  0  0  0  0  0  0  0
  142.3165   79.7011  218.3135 H   0  0  0  0  0  0  0  0  0  0  0  0
  140.5167   77.5751  218.9877 H   0  0  0  0  0  0  0  0  0  0  0  0
  142.2772   77.4330  218.9123 H   0  0  0  0  0  0  0  0  0  0  0  0
  142.4562   77.4905  221.2405 H   0  0  0  0  0  0  0  0  0  0  0  0
  141.5693   75.1607  221.9791 H   0  0  0  0  0  0  0  0  0  0  0  0
  139.2710   74.2450  222.7980 H   0  0  0  0  0  0  0  0  0  0  0  0
  136.7032   75.1933  222.9051 H   0  0  0  0  0  0  0  0  0  0  0  0
  135.2897   77.2127  222.3743 H   0  0  0  0  0  0  0  0  0  0  0  0
  136.3346   79.2442  221.3445 H   0  0  0  0  0  0  0  0  0  0  0  0
  138.8024   79.2744  220.8264 H   0  0  0  0  0  0  0  0  0  0  0  0
  1  2  2  0
  2  3  2  0
  2  4  1  0
  4  5  1  0
  5  6  2  0
  6  7  1  0
  7  8  2  0
  8  9  1  0
  9 10  2  0
  2 11  1  0
 11 12  1  0
 12 13  1  0
 13 14  1  0
 14 15  1  0
 15 16  1  0
 16 17  2  0
 17 18  1  0
 18 19  1  0
 19 20  2  0
 20 21  1  0
 21 22  2  0
 22 23  1  0
 23 24  2  0
 10  5  1  0
 15 11  1  0
 24 16  1  0
 24 19  1  0
  4 25  1  0
  4 26  1  0
  6 27  1  0
  7 28  1  0
  8 29  1  0
  9 30  1  0
 10 31  1  0
 12 32  1  0
 12 33  1  0
 13 34  1  0
 13 35  1  0
 14 36  1  0
 14 37  1  0
 15 38  1  6
 17 39  1  0
 18 40  1  0
 20 41  1  0
 21 42  1  0
 22 43  1  0
 23 44  1  0
M  END
>  <UniqueID>  (1) 
217

>  <SMILES>  (1) 
O=S(=O)(Cc1ccccc1)N1CCC[C@@H]1c1c[nH]c2ccccc12

>  <Energy>  (1) 
73.39914278350481

>  <Genealogy>  (1) 
O=S(=O)(Cc1ccccc1)N1CCC[C@@H]1c1c[nH]c2ccccc12 (chirality)
O=S(=O)(Cc1ccccc1)N1CCC[C@@H]1c1c[nH]c2ccccc12 (3D coordinates assigned)
O=S(=O)(Cc1ccccc1)N1CCC[C@@H]1c1c[nH]c2ccccc12 (nonaromatic ring conformer: 73.39914278350481 kcal/mol)

>  <smiles>  (1) 
O=S(=O)(Cc1ccccc1)N1CCCC1c1c[nH]c2ccccc12

>  <score_type>  (1) 
oracle

>  <origin>  (1) 
autodockgpu

>  <m_score__min__energy>  (1) 
-7.5499999999999998

>  <m_primary>  (1) 
energy

>  <meeko>  (1) 
{"free_energy": -5.97, "intermolecular_energy": -7.16, "internal_energy": -2.24, "cluster_size": 3, "cluster_id": 6, "rank_in_cluster": 2}

>  <energy>  (1) 
-7.55

>  <cluster_rmsd>  (1) 
0.0

>  <rmsd>  (1) 
271.01

>  <cluster>  (1) 
1

$$$$
QHTAHHNEYOTCSC-LJQANCHMNA-N
     RDKit          3D

 44 47  0  0  0  0  0  0  0  0999 V2000
  141.4210   81.0390  224.2190 O   0  0  0  0  0  0  0  0  0  0  0  0
  141.3070   79.6530  223.6460 S   0  0  0  0  0  0  0  0  0  0  0  0
  141.8210   78.6700  224.6620 O   0  0  0  0  0  0  0  0  0  0  0  0
  142.3300   79.5870  222.1840 C   0  0  0  0  0  0  0  0  0  0  0  0
  141.8760   80.5890  221.1620 C   0  0  0  0  0  0  0  0  0  0  0  0
  141.8160   80.2380  219.8030 C   0  0  0  0  0  0  0  0  0  0  0  0
  141.3550   81.1580  218.8570 C   0  0  0  0  0  0  0  0  0  0  0  0
  140.9480   82.4330  219.2620 C   0  0  0  0  0  0  0  0  0  0  0  0
  140.9980   82.7880  220.6130 C   0  0  0  0  0  0  0  0  0  0  0  0
  141.4580   81.8700  221.5620 C   0  0  0  0  0  0  0  0  0  0  0  0
  139.6390   79.3160  223.2200 N   0  0  0  0  0  0  0  0  0  0  0  0
  138.8140   80.5250  223.1790 C   0  0  0  0  0  0  0  0  0  0  0  0
  137.6380   80.2040  222.2790 C   0  0  0  0  0  0  0  0  0  0  0  0
  138.1450   79.1200  221.3420 C   0  0  0  0  0  0  0  0  0  0  0  0
  139.5220   78.7240  221.8830 C   0  0  2  0  0  0  0  0  0  0  0  0
  139.6710   77.2270  221.9550 C   0  0  0  0  0  0  0  0  0  0  0  0
  138.8030   76.3270  222.5700 C   0  0  0  0  0  0  0  0  0  0  0  0
  139.2190   75.0570  222.3690 N   0  0  0  0  0  0  0  0  0  0  0  0
  140.3320   75.1450  221.6190 C   0  0  0  0  0  0  0  0  0  0  0  0
  141.1110   74.0930  221.1380 C   0  0  0  0  0  0  0  0  0  0  0  0
  142.2300   74.4120  220.3470 C   0  0  0  0  0  0  0  0  0  0  0  0
  142.5390   75.7600  220.0550 C   0  0  0  0  0  0  0  0  0  0  0  0
  141.7340   76.8000  220.5530 C   0  0  0  0  0  0  0  0  0  0  0  0
  140.6350   76.4520  221.3390 C   0  0  0  0  0  0  0  0  0  0  0  0
  143.3712   79.8054  222.4637 H   0  0  0  0  0  0  0  0  0  0  0  0
  142.2506   78.5808  221.7467 H   0  0  0  0  0  0  0  0  0  0  0  0
  142.1332   79.2348  219.4820 H   0  0  0  0  0  0  0  0  0  0  0  0
  141.3124   80.8790  217.7938 H   0  0  0  0  0  0  0  0  0  0  0  0
  140.5881   83.1574  218.5166 H   0  0  0  0  0  0  0  0  0  0  0  0
  140.6751   83.7907  220.9299 H   0  0  0  0  0  0  0  0  0  0  0  0
  141.4929   82.1511  222.6249 H   0  0  0  0  0  0  0  0  0  0  0  0
  138.4622   80.7810  224.1893 H   0  0  0  0  0  0  0  0  0  0  0  0
  139.3841   81.3867  222.8016 H   0  0  0  0  0  0  0  0  0  0  0  0
  136.7869   79.8364  222.8711 H   0  0  0  0  0  0  0  0  0  0  0  0
  137.2819   81.0896  221.7324 H   0  0  0  0  0  0  0  0  0  0  0  0
  137.4652   78.2553  221.3507 H   0  0  0  0  0  0  0  0  0  0  0  0
  138.2009   79.4728  220.3016 H   0  0  0  0  0  0  0  0  0  0  0  0
  140.3159   79.0897  221.2151 H   0  0  0  0  0  0  0  0  0  0  0  0
  137.9053   76.6104  223.1391 H   0  0  0  0  0  0  0  0  0  0  0  0
  138.7590   74.1850  222.7140 H   0  0  0  0  0  0  0  0  0  0  0  0
  140.8587   73.0476  221.3695 H   0  0  0  0  0  0  0  0  0  0  0  0
  142.8684   73.6073  219.9534 H   0  0  0  0  0  0  0  0  0  0  0  0
  143.4153   75.9972  219.4339 H   0  0  0  0  0  0  0  0  0  0  0  0
  141.9631   77.8526  220.3303 H   0  0  0  0  0  0  0  0  0  0  0  0
  1  2  2  0
  2  3  2  0
  2  4  1  0
  4  5  1  0
  5  6  2  0
  6  7  1  0
  7  8  2  0
  8  9  1  0
  9 10  2  0
  2 11  1  0
 11 12  1  0
 12 13  1  0
 13 14  1  0
 14 15  1  0
 15 16  1  0
 16 17  2  0
 17 18  1  0
 18 19  1  0
 19 20  2  0
 20 21  1  0
 21 22  2  0
 22 23  1  0
 23 24  2  0
 10  5  1  0
 15 11  1  0
 24 16  1  0
 24 19  1  0
  4 25  1  0
  4 26  1  0
  6 27  1  0
  7 28  1  0
  8 29  1  0
  9 30  1  0
 10 31  1  0
 12 32  1  0
 12 33  1  0
 13 34  1  0
 13 35  1  0
 14 36  1  0
 14 37  1  0
 15 38  1  6
 17 39  1  0
 18 40  1  0
 20 41  1  0
 21 42  1  0
 22 43  1  0
 23 44  1  0
M  END
>  <UniqueID>  (2) 
217

>  <SMILES>  (2) 
O=S(=O)(Cc1ccccc1)N1CCC[C@@H]1c1c[nH]c2ccccc12

>  <Energy>  (2) 
73.39914278350481

>  <Genealogy>  (2) 
O=S(=O)(Cc1ccccc1)N1CCC[C@@H]1c1c[nH]c2ccccc12 (chirality)
O=S(=O)(Cc1ccccc1)N1CCC[C@@H]1c1c[nH]c2ccccc12 (3D coordinates assigned)
O=S(=O)(Cc1ccccc1)N1CCC[C@@H]1c1c[nH]c2ccccc12 (nonaromatic ring conformer: 73.39914278350481 kcal/mol)

>  <smiles>  (2) 
O=S(=O)(Cc1ccccc1)N1CCCC1c1c[nH]c2ccccc12

>  <score_type>  (2) 
oracle

>  <origin>  (2) 
autodockgpu

>  <m_score__min__energy>  (2) 
-7.5499999999999998

>  <m_primary>  (2) 
energy

>  <meeko>  (2) 
{"free_energy": -6.53, "intermolecular_energy": -7.72, "internal_energy": -1.84, "cluster_size": 8, "cluster_id": 5, "rank_in_cluster": 6}

>  <energy>  (2) 
-7.55

>  <cluster_rmsd>  (2) 
0.03

>  <rmsd>  (2) 
271.0

>  <cluster>  (2) 
1

$$$$
QHTAHHNEYOTCSC-LJQANCHMNA-N
     RDKit          3D

 44 47  0  0  0  0  0  0  0  0999 V2000
  141.0530   71.4010  223.7830 O   0  0  0  0  0  0  0  0  0  0  0  0
  139.8070   71.1670  222.9750 S   0  0  0  0  0  0  0  0  0  0  0  0
  140.0150   69.9530  222.1110 O   0  0  0  0  0  0  0  0  0  0  0  0
  139.5590   72.5990  221.9370 C   0  0  0  0  0  0  0  0  0  0  0  0
  140.8690   73.1290  221.4280 C   0  0  0  0  0  0  0  0  0  0  0  0
  141.9100   72.2450  221.0960 C   0  0  0  0  0  0  0  0  0  0  0  0
  143.1140   72.7360  220.5850 C   0  0  0  0  0  0  0  0  0  0  0  0
  143.2880   74.1110  220.3990 C   0  0  0  0  0  0  0  0  0  0  0  0
  142.2550   74.9960  220.7210 C   0  0  0  0  0  0  0  0  0  0  0  0
  141.0480   74.5090  221.2310 C   0  0  0  0  0  0  0  0  0  0  0  0
  138.4290   70.9610  224.0420 N   0  0  0  0  0  0  0  0  0  0  0  0
  137.1890   71.4830  223.4630 C   0  0  0  0  0  0  0  0  0  0  0  0
  136.0580   70.7550  224.1640 C   0  0  0  0  0  0  0  0  0  0  0  0
  136.6580   69.4320  224.6070 C   0  0  0  0  0  0  0  0  0  0  0  0
  138.1580   69.5470  224.3230 C   0  0  2  0  0  0  0  0  0  0  0  0
  138.9750   69.0790  225.4990 C   0  0  0  0  0  0  0  0  0  0  0  0
  139.1950   67.7600  225.8950 C   0  0  0  0  0  0  0  0  0  0  0  0
  140.0390   67.7180  226.9500 N   0  0  0  0  0  0  0  0  0  0  0  0
  140.3660   68.9960  227.2140 C   0  0  0  0  0  0  0  0  0  0  0  0
  141.2300   69.4570  228.2060 C   0  0  0  0  0  0  0  0  0  0  0  0
  141.4500   70.8440  228.2930 C   0  0  0  0  0  0  0  0  0  0  0  0
  140.8120   71.7280  227.3940 C   0  0  0  0  0  0  0  0  0  0  0  0
  139.9460   71.2330  226.4020 C   0  0  0  0  0  0  0  0  0  0  0  0
  139.7430   69.8540  226.3450 C   0  0  0  0  0  0  0  0  0  0  0  0
  138.9279   72.3178  221.0811 H   0  0  0  0  0  0  0  0  0  0  0  0
  139.0718   73.3841  222.5339 H   0  0  0  0  0  0  0  0  0  0  0  0
  141.7763   71.1626  221.2390 H   0  0  0  0  0  0  0  0  0  0  0  0
  143.9263   72.0400  220.3286 H   0  0  0  0  0  0  0  0  0  0  0  0
  144.2377   74.4961  219.9993 H   0  0  0  0  0  0  0  0  0  0  0  0
  142.3921   76.0773  220.5728 H   0  0  0  0  0  0  0  0  0  0  0  0
  140.2357   75.2081  221.4789 H   0  0  0  0  0  0  0  0  0  0  0  0
  137.1123   72.5662  223.6383 H   0  0  0  0  0  0  0  0  0  0  0  0
  137.1556   71.3242  222.3750 H   0  0  0  0  0  0  0  0  0  0  0  0
  135.7073   71.3309  225.0331 H   0  0  0  0  0  0  0  0  0  0  0  0
  135.1868   70.6146  223.5073 H   0  0  0  0  0  0  0  0  0  0  0  0
  136.4814   69.2702  225.6806 H   0  0  0  0  0  0  0  0  0  0  0  0
  136.2064   68.5811  224.0759 H   0  0  0  0  0  0  0  0  0  0  0  0
  138.4362   68.9104  223.4702 H   0  0  0  0  0  0  0  0  0  0  0  0
  138.7450   66.8779  225.4161 H   0  0  0  0  0  0  0  0  0  0  0  0
  140.3770   66.8650  227.4470 H   0  0  0  0  0  0  0  0  0  0  0  0
  141.7237   68.7592  228.8983 H   0  0  0  0  0  0  0  0  0  0  0  0
  142.1232   71.2429  229.0661 H   0  0  0  0  0  0  0  0  0  0  0  0
  140.9937   72.8102  227.4703 H   0  0  0  0  0  0  0  0  0  0  0  0
  139.4456   71.9108  225.6948 H   0  0  0  0  0  0  0  0  0  0  0  0
  1  2  2  0
  2  3  2  0
  2  4  1  0
  4  5  1  0
  5  6  2  0
  6  7  1  0
  7  8  2  0
  8  9  1  0
  9 10  2  0
  2 11  1  0
 11 12  1  0
 12 13  1  0
 13 14  1  0
 14 15  1  0
 15 16  1  0
 16 17  2  0
 17 18  1  0
 18 19  1  0
 19 20  2  0
 20 21  1  0
 21 22  2  0
 22 23  1  0
 23 24  2  0
 10  5  1  0
 15 11  1  0
 24 16  1  0
 24 19  1  0
  4 25  1  0
  4 26  1  0
  6 27  1  0
  7 28  1  0
  8 29  1  0
  9 30  1  0
 10 31  1  0
 12 32  1  0
 12 33  1  0
 13 34  1  0
 13 35  1  0
 14 36  1  0
 14 37  1  0
 15 38  1  6
 17 39  1  0
 18 40  1  0
 20 41  1  0
 21 42  1  0
 22 43  1  0
 23 44  1  0
M  END
>  <UniqueID>  (3) 
217

>  <SMILES>  (3) 
O=S(=O)(Cc1ccccc1)N1CCC[C@@H]1c1c[nH]c2ccccc12

>  <Energy>  (3) 
73.39914278350481

>  <Genealogy>  (3) 
O=S(=O)(Cc1ccccc1)N1CCC[C@@H]1c1c[nH]c2ccccc12 (chirality)
O=S(=O)(Cc1ccccc1)N1CCC[C@@H]1c1c[nH]c2ccccc12 (3D coordinates assigned)
O=S(=O)(Cc1ccccc1)N1CCC[C@@H]1c1c[nH]c2ccccc12 (nonaromatic ring conformer: 73.39914278350481 kcal/mol)

>  <smiles>  (3) 
O=S(=O)(Cc1ccccc1)N1CCCC1c1c[nH]c2ccccc12

>  <score_type>  (3) 
oracle

>  <origin>  (3) 
autodockgpu

>  <m_score__min__energy>  (3) 
-7.5499999999999998

>  <m_primary>  (3) 
energy

>  <meeko>  (3) 
{"free_energy": -7.48, "intermolecular_energy": -8.67, "internal_energy": -1.23, "cluster_size": 3, "cluster_id": 1, "rank_in_cluster": 3}

>  <energy>  (3) 
-7.48

>  <cluster_rmsd>  (3) 
0.13

>  <rmsd>  (3) 
270.94

>  <cluster>  (3) 
1

$$$$
QHTAHHNEYOTCSC-LJQANCHMNA-N
     RDKit          3D

 44 47  0  0  0  0  0  0  0  0999 V2000
  141.0900   71.2960  223.8590 O   0  0  0  0  0  0  0  0  0  0  0  0
  139.8370   71.1920  223.0350 S   0  0  0  0  0  0  0  0  0  0  0  0
  139.9940   70.0530  222.0640 O   0  0  0  0  0  0  0  0  0  0  0  0
  139.6570   72.7210  222.1300 C   0  0  0  0  0  0  0  0  0  0  0  0
  140.9580   73.1330  221.5040 C   0  0  0  0  0  0  0  0  0  0  0  0
  141.2350   74.4920  221.2760 C   0  0  0  0  0  0  0  0  0  0  0  0
  142.4630   74.8780  220.7300 C   0  0  0  0  0  0  0  0  0  0  0  0
  143.4220   73.9110  220.4100 C   0  0  0  0  0  0  0  0  0  0  0  0
  143.1550   72.5590  220.6390 C   0  0  0  0  0  0  0  0  0  0  0  0
  141.9300   72.1690  221.1860 C   0  0  0  0  0  0  0  0  0  0  0  0
  138.4480   70.9520  224.0800 N   0  0  0  0  0  0  0  0  0  0  0  0
  137.2040   71.4360  223.4790 C   0  0  0  0  0  0  0  0  0  0  0  0
  136.0820   70.6810  224.1650 C   0  0  0  0  0  0  0  0  0  0  0  0
  136.7120   69.3760  224.6250 C   0  0  0  0  0  0  0  0  0  0  0  0
  138.2130   69.5330  224.3640 C   0  0  2  0  0  0  0  0  0  0  0  0
  139.0230   69.0930  225.5560 C   0  0  0  0  0  0  0  0  0  0  0  0
  139.2570   67.7840  225.9740 C   0  0  0  0  0  0  0  0  0  0  0  0
  140.0900   67.7700  227.0380 N   0  0  0  0  0  0  0  0  0  0  0  0
  140.3970   69.0560  227.2870 C   0  0  0  0  0  0  0  0  0  0  0  0
  141.2440   69.5440  228.2810 C   0  0  0  0  0  0  0  0  0  0  0  0
  141.4430   70.9350  228.3500 C   0  0  0  0  0  0  0  0  0  0  0  0
  140.8030   71.7960  227.4310 C   0  0  0  0  0  0  0  0  0  0  0  0
  139.9550   71.2740  226.4370 C   0  0  0  0  0  0  0  0  0  0  0  0
  139.7720   69.8920  226.3990 C   0  0  0  0  0  0  0  0  0  0  0  0
  138.9048   72.5843  221.3391 H   0  0  0  0  0  0  0  0  0  0  0  0
  139.3411   73.5077  222.8310 H   0  0  0  0  0  0  0  0  0  0  0  0
  140.4832   75.2544  221.5280 H   0  0  0  0  0  0  0  0  0  0  0  0
  142.6751   75.9426  220.5520 H   0  0  0  0  0  0  0  0  0  0  0  0
  144.3867   74.2154  219.9779 H   0  0  0  0  0  0  0  0  0  0  0  0
  143.9107   71.8000  220.3882 H   0  0  0  0  0  0  0  0  0  0  0  0
  141.7256   71.1037  221.3684 H   0  0  0  0  0  0  0  0  0  0  0  0
  137.0946   72.5175  223.6472 H   0  0  0  0  0  0  0  0  0  0  0  0
  137.1928   71.2704  222.3916 H   0  0  0  0  0  0  0  0  0  0  0  0
  135.7013   71.2512  225.0252 H   0  0  0  0  0  0  0  0  0  0  0  0
  135.2257   70.5137  223.4952 H   0  0  0  0  0  0  0  0  0  0  0  0
  136.5228   69.2143  225.6965 H   0  0  0  0  0  0  0  0  0  0  0  0
  136.2931   68.5099  224.0917 H   0  0  0  0  0  0  0  0  0  0  0  0
  138.5237   68.9016  223.5185 H   0  0  0  0  0  0  0  0  0  0  0  0
  138.8245   66.8885  225.5039 H   0  0  0  0  0  0  0  0  0  0  0  0
  140.4350   66.9290  227.5520 H   0  0  0  0  0  0  0  0  0  0  0  0
  141.7406   68.8635  228.9884 H   0  0  0  0  0  0  0  0  0  0  0  0
  142.1013   71.3549  229.1247 H   0  0  0  0  0  0  0  0  0  0  0  0
  140.9687   72.8817  227.4929 H   0  0  0  0  0  0  0  0  0  0  0  0
  139.4532   71.9339  225.7140 H   0  0  0  0  0  0  0  0  0  0  0  0
  1  2  2  0
  2  3  2  0
  2  4  1  0
  4  5  1  0
  5  6  2  0
  6  7  1  0
  7  8  2  0
  8  9  1  0
  9 10  2  0
  2 11  1  0
 11 12  1  0
 12 13  1  0
 13 14  1  0
 14 15  1  0
 15 16  1  0
 16 17  2  0
 17 18  1  0
 18 19  1  0
 19 20  2  0
 20 21  1  0
 21 22  2  0
 22 23  1  0
 23 24  2  0
 10  5  1  0
 15 11  1  0
 24 16  1  0
 24 19  1  0
  4 25  1  0
  4 26  1  0
  6 27  1  0
  7 28  1  0
  8 29  1  0
  9 30  1  0
 10 31  1  0
 12 32  1  0
 12 33  1  0
 13 34  1  0
 13 35  1  0
 14 36  1  0
 14 37  1  0
 15 38  1  6
 17 39  1  0
 18 40  1  0
 20 41  1  0
 21 42  1  0
 22 43  1  0
 23 44  1  0
M  END
>  <UniqueID>  (4) 
217

>  <SMILES>  (4) 
O=S(=O)(Cc1ccccc1)N1CCC[C@@H]1c1c[nH]c2ccccc12

>  <Energy>  (4) 
73.39914278350481

>  <Genealogy>  (4) 
O=S(=O)(Cc1ccccc1)N1CCC[C@@H]1c1c[nH]c2ccccc12 (chirality)
O=S(=O)(Cc1ccccc1)N1CCC[C@@H]1c1c[nH]c2ccccc12 (3D coordinates assigned)
O=S(=O)(Cc1ccccc1)N1CCC[C@@H]1c1c[nH]c2ccccc12 (nonaromatic ring conformer: 73.39914278350481 kcal/mol)

>  <smiles>  (4) 
O=S(=O)(Cc1ccccc1)N1CCCC1c1c[nH]c2ccccc12

>  <score_type>  (4) 
oracle

>  <origin>  (4) 
autodockgpu

>  <m_score__min__energy>  (4) 
-7.5499999999999998

>  <m_primary>  (4) 
energy

>  <meeko>  (4) 
{"free_energy": -7.55, "intermolecular_energy": -8.75, "internal_energy": -1.21, "cluster_size": 3, "cluster_id": 1, "rank_in_cluster": 1}

>  <energy>  (4) 
-7.52

>  <cluster_rmsd>  (4) 
0.0

>  <rmsd>  (4) 
270.37

>  <cluster>  (4) 
2

$$$$
QHTAHHNEYOTCSC-LJQANCHMNA-N
     RDKit          3D

 44 47  0  0  0  0  0  0  0  0999 V2000
  137.5560   71.2040  224.5700 O   0  0  0  0  0  0  0  0  0  0  0  0
  136.9540   70.4660  223.4060 S   0  0  0  0  0  0  0  0  0  0  0  0
  137.4430   71.0990  222.1310 O   0  0  0  0  0  0  0  0  0  0  0  0
  135.1800   70.6410  223.5140 C   0  0  0  0  0  0  0  0  0  0  0  0
  134.7600   71.0200  224.9050 C   0  0  0  0  0  0  0  0  0  0  0  0
  134.3220   72.3260  225.1820 C   0  0  0  0  0  0  0  0  0  0  0  0
  133.8930   72.6660  226.4690 C   0  0  0  0  0  0  0  0  0  0  0  0
  133.8950   71.7060  227.4850 C   0  0  0  0  0  0  0  0  0  0  0  0
  134.3240   70.4030  227.2150 C   0  0  0  0  0  0  0  0  0  0  0  0
  134.7520   70.0580  225.9300 C   0  0  0  0  0  0  0  0  0  0  0  0
  137.3900   68.7680  223.4820 N   0  0  0  0  0  0  0  0  0  0  0  0
  137.0120   68.0380  222.2710 C   0  0  0  0  0  0  0  0  0  0  0  0
  137.9140   66.8200  222.2130 C   0  0  0  0  0  0  0  0  0  0  0  0
  139.1650   67.2220  222.9770 C   0  0  0  0  0  0  0  0  0  0  0  0
  138.8380   68.5770  223.6120 C   0  0  2  0  0  0  0  0  0  0  0  0
  139.2460   68.6140  225.0610 C   0  0  0  0  0  0  0  0  0  0  0  0
  139.1930   67.5610  225.9740 C   0  0  0  0  0  0  0  0  0  0  0  0
  139.7100   67.9410  227.1630 N   0  0  0  0  0  0  0  0  0  0  0  0
  140.1050   69.2170  227.0070 C   0  0  0  0  0  0  0  0  0  0  0  0
  140.7190   70.0320  227.9550 C   0  0  0  0  0  0  0  0  0  0  0  0
  141.0720   71.3390  227.5700 C   0  0  0  0  0  0  0  0  0  0  0  0
  140.8090   71.7940  226.2580 C   0  0  0  0  0  0  0  0  0  0  0  0
  140.1890   70.9470  225.3210 C   0  0  0  0  0  0  0  0  0  0  0  0
  139.8460   69.6600  225.7350 C   0  0  0  0  0  0  0  0  0  0  0  0
  134.8525   71.4235  222.8137 H   0  0  0  0  0  0  0  0  0  0  0  0
  134.7167   69.6766  223.2587 H   0  0  0  0  0  0  0  0  0  0  0  0
  134.3165   73.0833  224.3842 H   0  0  0  0  0  0  0  0  0  0  0  0
  133.5535   73.6904  226.6820 H   0  0  0  0  0  0  0  0  0  0  0  0
  133.5590   71.9757  228.4971 H   0  0  0  0  0  0  0  0  0  0  0  0
  134.3247   69.6482  228.0152 H   0  0  0  0  0  0  0  0  0  0  0  0
  135.0836   69.0304  225.7200 H   0  0  0  0  0  0  0  0  0  0  0  0
  135.9575   67.7295  222.3251 H   0  0  0  0  0  0  0  0  0  0  0  0
  137.1251   68.6640  221.3736 H   0  0  0  0  0  0  0  0  0  0  0  0
  137.4292   65.9564  222.6916 H   0  0  0  0  0  0  0  0  0  0  0  0
  138.1391   66.5207  221.1787 H   0  0  0  0  0  0  0  0  0  0  0  0
  139.3963   66.4788  223.7543 H   0  0  0  0  0  0  0  0  0  0  0  0
  140.0443   67.2810  222.3187 H   0  0  0  0  0  0  0  0  0  0  0  0
  139.3924   69.3812  223.1061 H   0  0  0  0  0  0  0  0  0  0  0  0
  138.7874   66.5619  225.7567 H   0  0  0  0  0  0  0  0  0  0  0  0
  139.7980   67.3550  228.0230 H   0  0  0  0  0  0  0  0  0  0  0  0
  140.9216   69.6658  228.9723 H   0  0  0  0  0  0  0  0  0  0  0  0
  141.5556   72.0105  228.2947 H   0  0  0  0  0  0  0  0  0  0  0  0
  141.0908   72.8168  225.9675 H   0  0  0  0  0  0  0  0  0  0  0  0
  139.9817   71.2885  224.2961 H   0  0  0  0  0  0  0  0  0  0  0  0
  1  2  2  0
  2  3  2  0
  2  4  1  0
  4  5  1  0
  5  6  2  0
  6  7  1  0
  7  8  2  0
  8  9  1  0
  9 10  2  0
  2 11  1  0
 11 12  1  0
 12 13  1  0
 13 14  1  0
 14 15  1  0
 15 16  1  0
 16 17  2  0
 17 18  1  0
 18 19  1  0
 19 20  2  0
 20 21  1  0
 21 22  2  0
 22 23  1  0
 23 24  2  0
 10  5  1  0
 15 11  1  0
 24 16  1  0
 24 19  1  0
  4 25  1  0
  4 26  1  0
  6 27  1  0
  7 28  1  0
  8 29  1  0
  9 30  1  0
 10 31  1  0
 12 32  1  0
 12 33  1  0
 13 34  1  0
 13 35  1  0
 14 36  1  0
 14 37  1  0
 15 38  1  6
 17 39  1  0
 18 40  1  0
 20 41  1  0
 21 42  1  0
 22 43  1  0
 23 44  1  0
M  END
>  <UniqueID>  (5) 
217

>  <SMILES>  (5) 
O=S(=O)(Cc1ccccc1)N1CCC[C@@H]1c1c[nH]c2ccccc12

>  <Energy>  (5) 
73.39914278350481

>  <Genealogy>  (5) 
O=S(=O)(Cc1ccccc1)N1CCC[C@@H]1c1c[nH]c2ccccc12 (chirality)
O=S(=O)(Cc1ccccc1)N1CCC[C@@H]1c1c[nH]c2ccccc12 (3D coordinates assigned)
O=S(=O)(Cc1ccccc1)N1CCC[C@@H]1c1c[nH]c2ccccc12 (nonaromatic ring conformer: 73.39914278350481 kcal/mol)

>  <smiles>  (5) 
O=S(=O)(Cc1ccccc1)N1CCCC1c1c[nH]c2ccccc12

>  <score_type>  (5) 
oracle

>  <origin>  (5) 
autodockgpu

>  <m_score__min__energy>  (5) 
-7.5499999999999998

>  <m_primary>  (5) 
energy

>  <meeko>  (5) 
{"free_energy": -6.94, "intermolecular_energy": -8.13, "internal_energy": -1.42, "cluster_size": 2, "cluster_id": 2, "rank_in_cluster": 2}

>  <energy>  (5) 
-6.94

>  <cluster_rmsd>  (5) 
1.47

>  <rmsd>  (5) 
270.29

>  <cluster>  (5) 
2

$$$$
QHTAHHNEYOTCSC-LJQANCHMNA-N
     RDKit          3D

 44 47  0  0  0  0  0  0  0  0999 V2000
  138.7960   77.5020  221.9120 O   0  0  0  0  0  0  0  0  0  0  0  0
  140.0080   76.6120  221.9090 S   0  0  0  0  0  0  0  0  0  0  0  0
  139.5910   75.2310  222.3350 O   0  0  0  0  0  0  0  0  0  0  0  0
  141.1680   77.2740  223.0940 C   0  0  0  0  0  0  0  0  0  0  0  0
  141.2470   78.7700  222.9920 C   0  0  0  0  0  0  0  0  0  0  0  0
  140.2070   79.5710  223.4960 C   0  0  0  0  0  0  0  0  0  0  0  0
  140.3000   80.9640  223.4370 C   0  0  0  0  0  0  0  0  0  0  0  0
  141.4300   81.5680  222.8780 C   0  0  0  0  0  0  0  0  0  0  0  0
  142.4710   80.7790  222.3810 C   0  0  0  0  0  0  0  0  0  0  0  0
  142.3830   79.3850  222.4390 C   0  0  0  0  0  0  0  0  0  0  0  0
  140.7350   76.5930  220.3120 N   0  0  0  0  0  0  0  0  0  0  0  0
  140.6100   77.8800  219.6240 C   0  0  0  0  0  0  0  0  0  0  0  0
  141.7200   77.9150  218.5910 C   0  0  0  0  0  0  0  0  0  0  0  0
  142.8000   77.0010  219.1440 C   0  0  0  0  0  0  0  0  0  0  0  0
  142.1750   76.3230  220.3670 C   0  0  2  0  0  0  0  0  0  0  0  0
  142.4330   74.8390  220.3600 C   0  0  0  0  0  0  0  0  0  0  0  0
  141.4880   73.8250  220.2210 C   0  0  0  0  0  0  0  0  0  0  0  0
  142.0930   72.6160  220.1860 N   0  0  0  0  0  0  0  0  0  0  0  0
  143.4120   72.8590  220.2850 C   0  0  0  0  0  0  0  0  0  0  0  0
  144.4450   71.9230  220.2740 C   0  0  0  0  0  0  0  0  0  0  0  0
  145.7660   72.4000  220.3680 C   0  0  0  0  0  0  0  0  0  0  0  0
  146.0200   73.7860  220.4660 C   0  0  0  0  0  0  0  0  0  0  0  0
  144.9580   74.7070  220.4730 C   0  0  0  0  0  0  0  0  0  0  0  0
  143.6600   74.2040  220.3850 C   0  0  0  0  0  0  0  0  0  0  0  0
  140.8424   76.9993  224.1082 H   0  0  0  0  0  0  0  0  0  0  0  0
  142.1629   76.8553  222.8819 H   0  0  0  0  0  0  0  0  0  0  0  0
  139.3171   79.0994  223.9383 H   0  0  0  0  0  0  0  0  0  0  0  0
  139.4829   81.5862  223.8310 H   0  0  0  0  0  0  0  0  0  0  0  0
  141.4998   82.6647  222.8293 H   0  0  0  0  0  0  0  0  0  0  0  0
  143.3607   81.2555  221.9436 H   0  0  0  0  0  0  0  0  0  0  0  0
  143.2060   78.7673  222.0503 H   0  0  0  0  0  0  0  0  0  0  0  0
  139.6288   77.9564  219.1326 H   0  0  0  0  0  0  0  0  0  0  0  0
  140.6900   78.7213  220.3282 H   0  0  0  0  0  0  0  0  0  0  0  0
  141.3577   77.5429  217.6213 H   0  0  0  0  0  0  0  0  0  0  0  0
  142.0913   78.9358  218.4176 H   0  0  0  0  0  0  0  0  0  0  0  0
  143.0893   76.2501  218.3940 H   0  0  0  0  0  0  0  0  0  0  0  0
  143.7111   77.5583  219.4073 H   0  0  0  0  0  0  0  0  0  0  0  0
  142.6187   76.7177  221.2929 H   0  0  0  0  0  0  0  0  0  0  0  0
  140.4021   73.9852  220.1497 H   0  0  0  0  0  0  0  0  0  0  0  0
  141.6290   71.6870  220.0870 H   0  0  0  0  0  0  0  0  0  0  0  0
  144.2346   70.8462  220.1944 H   0  0  0  0  0  0  0  0  0  0  0  0
  146.6055   71.6892  220.3651 H   0  0  0  0  0  0  0  0  0  0  0  0
  147.0565   74.1474  220.5374 H   0  0  0  0  0  0  0  0  0  0  0  0
  145.1445   75.7887  220.5455 H   0  0  0  0  0  0  0  0  0  0  0  0
  1  2  2  0
  2  3  2  0
  2  4  1  0
  4  5  1  0
  5  6  2  0
  6  7  1  0
  7  8  2  0
  8  9  1  0
  9 10  2  0
  2 11  1  0
 11 12  1  0
 12 13  1  0
 13 14  1  0
 14 15  1  0
 15 16  1  0
 16 17  2  0
 17 18  1  0
 18 19  1  0
 19 20  2  0
 20 21  1  0
 21 22  2  0
 22 23  1  0
 23 24  2  0
 10  5  1  0
 15 11  1  0
 24 16  1  0
 24 19  1  0
  4 25  1  0
  4 26  1  0
  6 27  1  0
  7 28  1  0
  8 29  1  0
  9 30  1  0
 10 31  1  0
 12 32  1  0
 12 33  1  0
 13 34  1  0
 13 35  1  0
 14 36  1  0
 14 37  1  0
 15 38  1  1
 17 39  1  0
 18 40  1  0
 20 41  1  0
 21 42  1  0
 22 43  1  0
 23 44  1  0
M  END
>  <UniqueID>  (6) 
217

>  <SMILES>  (6) 
O=S(=O)(Cc1ccccc1)N1CCC[C@@H]1c1c[nH]c2ccccc12

>  <Energy>  (6) 
73.39914278350481

>  <Genealogy>  (6) 
O=S(=O)(Cc1ccccc1)N1CCC[C@@H]1c1c[nH]c2ccccc12 (chirality)
O=S(=O)(Cc1ccccc1)N1CCC[C@@H]1c1c[nH]c2ccccc12 (3D coordinates assigned)
O=S(=O)(Cc1ccccc1)N1CCC[C@@H]1c1c[nH]c2ccccc12 (nonaromatic ring conformer: 73.39914278350481 kcal/mol)

>  <smiles>  (6) 
O=S(=O)(Cc1ccccc1)N1CCCC1c1c[nH]c2ccccc12

>  <score_type>  (6) 
oracle

>  <origin>  (6) 
autodockgpu

>  <m_score__min__energy>  (6) 
-7.5499999999999998

>  <m_primary>  (6) 
energy

>  <meeko>  (6) 
{"free_energy": -6.92, "intermolecular_energy": -8.11, "internal_energy": -1.52, "cluster_size": 3, "cluster_id": 3, "rank_in_cluster": 1}

>  <energy>  (6) 
-6.92

>  <cluster_rmsd>  (6) 
0.0

>  <rmsd>  (6) 
270.89

>  <cluster>  (6) 
3

$$$$
QHTAHHNEYOTCSC-LJQANCHMNA-N
     RDKit          3D

 44 47  0  0  0  0  0  0  0  0999 V2000
  138.7780   77.4890  221.8870 O   0  0  0  0  0  0  0  0  0  0  0  0
  140.0060   76.6200  221.8960 S   0  0  0  0  0  0  0  0  0  0  0  0
  139.6080   75.2310  222.3140 O   0  0  0  0  0  0  0  0  0  0  0  0
  141.1410   77.3000  223.0960 C   0  0  0  0  0  0  0  0  0  0  0  0
  141.2380   78.7920  222.9600 C   0  0  0  0  0  0  0  0  0  0  0  0
  140.1780   79.6130  223.3830 C   0  0  0  0  0  0  0  0  0  0  0  0
  140.2860   81.0040  223.2940 C   0  0  0  0  0  0  0  0  0  0  0  0
  141.4510   81.5850  222.7850 C   0  0  0  0  0  0  0  0  0  0  0  0
  142.5120   80.7760  222.3680 C   0  0  0  0  0  0  0  0  0  0  0  0
  142.4090   79.3850  222.4570 C   0  0  0  0  0  0  0  0  0  0  0  0
  140.7510   76.6190  220.3070 N   0  0  0  0  0  0  0  0  0  0  0  0
  140.6390   77.9140  219.6340 C   0  0  0  0  0  0  0  0  0  0  0  0
  141.7600   77.9580  218.6140 C   0  0  0  0  0  0  0  0  0  0  0  0
  142.8310   77.0330  219.1680 C   0  0  0  0  0  0  0  0  0  0  0  0
  142.1890   76.3420  220.3750 C   0  0  2  0  0  0  0  0  0  0  0  0
  142.4410   74.8570  220.3520 C   0  0  0  0  0  0  0  0  0  0  0  0
  141.4920   73.8480  220.2000 C   0  0  0  0  0  0  0  0  0  0  0  0
  142.0920   72.6380  220.1520 N   0  0  0  0  0  0  0  0  0  0  0  0
  143.4120   72.8730  220.2580 C   0  0  0  0  0  0  0  0  0  0  0  0
  144.4410   71.9340  220.2390 C   0  0  0  0  0  0  0  0  0  0  0  0
  145.7630   72.4040  220.3410 C   0  0  0  0  0  0  0  0  0  0  0  0
  146.0240   73.7880  220.4550 C   0  0  0  0  0  0  0  0  0  0  0  0
  144.9650   74.7140  220.4700 C   0  0  0  0  0  0  0  0  0  0  0  0
  143.6650   74.2160  220.3730 C   0  0  0  0  0  0  0  0  0  0  0  0
  140.7856   77.0534  224.1073 H   0  0  0  0  0  0  0  0  0  0  0  0
  142.1369   76.8668  222.9211 H   0  0  0  0  0  0  0  0  0  0  0  0
  139.2603   79.1592  223.7854 H   0  0  0  0  0  0  0  0  0  0  0  0
  139.4532   81.6420  223.6249 H   0  0  0  0  0  0  0  0  0  0  0  0
  141.5330   82.6795  222.7125 H   0  0  0  0  0  0  0  0  0  0  0  0
  143.4289   81.2346  221.9694 H   0  0  0  0  0  0  0  0  0  0  0  0
  143.2477   78.7517  222.1321 H   0  0  0  0  0  0  0  0  0  0  0  0
  139.6636   78.0004  219.1328 H   0  0  0  0  0  0  0  0  0  0  0  0
  140.7149   78.7459  220.3496 H   0  0  0  0  0  0  0  0  0  0  0  0
  141.4072   77.5992  217.6358 H   0  0  0  0  0  0  0  0  0  0  0  0
  142.1366   78.9796  218.4571 H   0  0  0  0  0  0  0  0  0  0  0  0
  143.1266   76.2906  218.4121 H   0  0  0  0  0  0  0  0  0  0  0  0
  143.7410   77.5836  219.4487 H   0  0  0  0  0  0  0  0  0  0  0  0
  142.6236   76.7229  221.3110 H   0  0  0  0  0  0  0  0  0  0  0  0
  140.4068   74.0132  220.1290 H   0  0  0  0  0  0  0  0  0  0  0  0
  141.6240   71.7110  220.0420 H   0  0  0  0  0  0  0  0  0  0  0  0
  144.2265   70.8590  220.1471 H   0  0  0  0  0  0  0  0  0  0  0  0
  146.5991   71.6893  220.3320 H   0  0  0  0  0  0  0  0  0  0  0  0
  147.0620   74.1437  220.5325 H   0  0  0  0  0  0  0  0  0  0  0  0
  145.1553   75.7941  220.5553 H   0  0  0  0  0  0  0  0  0  0  0  0
  1  2  2  0
  2  3  2  0
  2  4  1  0
  4  5  1  0
  5  6  2  0
  6  7  1  0
  7  8  2  0
  8  9  1  0
  9 10  2  0
  2 11  1  0
 11 12  1  0
 12 13  1  0
 13 14  1  0
 14 15  1  0
 15 16  1  0
 16 17  2  0
 17 18  1  0
 18 19  1  0
 19 20  2  0
 20 21  1  0
 21 22  2  0
 22 23  1  0
 23 24  2  0
 10  5  1  0
 15 11  1  0
 24 16  1  0
 24 19  1  0
  4 25  1  0
  4 26  1  0
  6 27  1  0
  7 28  1  0
  8 29  1  0
  9 30  1  0
 10 31  1  0
 12 32  1  0
 12 33  1  0
 13 34  1  0
 13 35  1  0
 14 36  1  0
 14 37  1  0
 15 38  1  1
 17 39  1  0
 18 40  1  0
 20 41  1  0
 21 42  1  0
 22 43  1  0
 23 44  1  0
M  END
>  <UniqueID>  (7) 
217

>  <SMILES>  (7) 
O=S(=O)(Cc1ccccc1)N1CCC[C@@H]1c1c[nH]c2ccccc12

>  <Energy>  (7) 
73.39914278350481

>  <Genealogy>  (7) 
O=S(=O)(Cc1ccccc1)N1CCC[C@@H]1c1c[nH]c2ccccc12 (chirality)
O=S(=O)(Cc1ccccc1)N1CCC[C@@H]1c1c[nH]c2ccccc12 (3D coordinates assigned)
O=S(=O)(Cc1ccccc1)N1CCC[C@@H]1c1c[nH]c2ccccc12 (nonaromatic ring conformer: 73.39914278350481 kcal/mol)

>  <smiles>  (7) 
O=S(=O)(Cc1ccccc1)N1CCCC1c1c[nH]c2ccccc12

>  <score_type>  (7) 
oracle

>  <origin>  (7) 
autodockgpu

>  <m_score__min__energy>  (7) 
-7.5499999999999998

>  <m_primary>  (7) 
energy

>  <meeko>  (7) 
{"free_energy": -6.9, "intermolecular_energy": -8.09, "internal_energy": -1.53, "cluster_size": 3, "cluster_id": 3, "rank_in_cluster": 3}

>  <energy>  (7) 
-6.92

>  <cluster_rmsd>  (7) 
0.02

>  <rmsd>  (7) 
270.89

>  <cluster>  (7) 
3

$$$$
QHTAHHNEYOTCSC-LJQANCHMNA-N
     RDKit          3D

 44 47  0  0  0  0  0  0  0  0999 V2000
  141.4500   81.0500  224.2210 O   0  0  0  0  0  0  0  0  0  0  0  0
  141.3410   79.6710  223.6320 S   0  0  0  0  0  0  0  0  0  0  0  0
  141.8460   78.6760  224.6420 O   0  0  0  0  0  0  0  0  0  0  0  0
  142.3790   79.6200  222.1790 C   0  0  0  0  0  0  0  0  0  0  0  0
  141.9190   80.6160  221.1540 C   0  0  0  0  0  0  0  0  0  0  0  0
  141.8610   80.2600  219.7960 C   0  0  0  0  0  0  0  0  0  0  0  0
  141.3950   81.1760  218.8480 C   0  0  0  0  0  0  0  0  0  0  0  0
  140.9830   82.4500  219.2480 C   0  0  0  0  0  0  0  0  0  0  0  0
  141.0330   82.8100  220.5980 C   0  0  0  0  0  0  0  0  0  0  0  0
  141.4960   81.8970  221.5500 C   0  0  0  0  0  0  0  0  0  0  0  0
  139.6770   79.3370  223.1870 N   0  0  0  0  0  0  0  0  0  0  0  0
  138.8580   80.5500  223.1290 C   0  0  0  0  0  0  0  0  0  0  0  0
  137.6920   80.2280  222.2150 C   0  0  0  0  0  0  0  0  0  0  0  0
  138.2060   79.1370  221.2910 C   0  0  0  0  0  0  0  0  0  0  0  0
  139.5750   78.7390  221.8510 C   0  0  2  0  0  0  0  0  0  0  0  0
  139.7170   77.2420  221.9330 C   0  0  0  0  0  0  0  0  0  0  0  0
  138.8470   76.3500  222.5570 C   0  0  0  0  0  0  0  0  0  0  0  0
  139.2560   75.0760  222.3630 N   0  0  0  0  0  0  0  0  0  0  0  0
  140.3670   75.1540  221.6090 C   0  0  0  0  0  0  0  0  0  0  0  0
  141.1390   74.0960  221.1330 C   0  0  0  0  0  0  0  0  0  0  0  0
  142.2580   74.4040  220.3360 C   0  0  0  0  0  0  0  0  0  0  0  0
  142.5720   75.7480  220.0340 C   0  0  0  0  0  0  0  0  0  0  0  0
  141.7740   76.7950  220.5280 C   0  0  0  0  0  0  0  0  0  0  0  0
  140.6760   76.4580  221.3200 C   0  0  0  0  0  0  0  0  0  0  0  0
  143.4143   79.8535  222.4681 H   0  0  0  0  0  0  0  0  0  0  0  0
  142.3191   78.6129  221.7407 H   0  0  0  0  0  0  0  0  0  0  0  0
  142.1832   79.2576  219.4777 H   0  0  0  0  0  0  0  0  0  0  0  0
  141.3526   80.8934  217.7858 H   0  0  0  0  0  0  0  0  0  0  0  0
  140.6191   83.1700  218.5002 H   0  0  0  0  0  0  0  0  0  0  0  0
  140.7076   83.8129  220.9115 H   0  0  0  0  0  0  0  0  0  0  0  0
  141.5295   82.1817  222.6120 H   0  0  0  0  0  0  0  0  0  0  0  0
  138.4943   80.8132  224.1332 H   0  0  0  0  0  0  0  0  0  0  0  0
  139.4365   81.4075  222.7548 H   0  0  0  0  0  0  0  0  0  0  0  0
  136.8319   79.8672  222.7981 H   0  0  0  0  0  0  0  0  0  0  0  0
  137.3469   81.1119  221.6586 H   0  0  0  0  0  0  0  0  0  0  0  0
  137.5228   78.2749  221.2965 H   0  0  0  0  0  0  0  0  0  0  0  0
  138.2758   79.4834  220.2493 H   0  0  0  0  0  0  0  0  0  0  0  0
  140.3784   79.0985  221.1913 H   0  0  0  0  0  0  0  0  0  0  0  0
  137.9528   76.6415  223.1275 H   0  0  0  0  0  0  0  0  0  0  0  0
  138.7930   74.2100  222.7160 H   0  0  0  0  0  0  0  0  0  0  0  0
  140.8823   73.0535  221.3723 H   0  0  0  0  0  0  0  0  0  0  0  0
  142.8914   73.5936  219.9462 H   0  0  0  0  0  0  0  0  0  0  0  0
  143.4470   75.9769  219.4079 H   0  0  0  0  0  0  0  0  0  0  0  0
  142.0077   77.8449  220.2977 H   0  0  0  0  0  0  0  0  0  0  0  0
  1  2  2  0
  2  3  2  0
  2  4  1  0
  4  5  1  0
  5  6  2  0
  6  7  1  0
  7  8  2  0
  8  9  1  0
  9 10  2  0
  2 11  1  0
 11 12  1  0
 12 13  1  0
 13 14  1  0
 14 15  1  0
 15 16  1  0
 16 17  2  0
 17 18  1  0
 18 19  1  0
 19 20  2  0
 20 21  1  0
 21 22  2  0
 22 23  1  0
 23 24  2  0
 10  5  1  0
 15 11  1  0
 24 16  1  0
 24 19  1  0
  4 25  1  0
  4 26  1  0
  6 27  1  0
  7 28  1  0
  8 29  1  0
  9 30  1  0
 10 31  1  0
 12 32  1  0
 12 33  1  0
 13 34  1  0
 13 35  1  0
 14 36  1  0
 14 37  1  0
 15 38  1  6
 17 39  1  0
 18 40  1  0
 20 41  1  0
 21 42  1  0
 22 43  1  0
 23 44  1  0
M  END
>  <UniqueID>  (8) 
217

>  <SMILES>  (8) 
O=S(=O)(Cc1ccccc1)N1CCC[C@@H]1c1c[nH]c2ccccc12

>  <Energy>  (8) 
73.39914278350481

>  <Genealogy>  (8) 
O=S(=O)(Cc1ccccc1)N1CCC[C@@H]1c1c[nH]c2ccccc12 (chirality)
O=S(=O)(Cc1ccccc1)N1CCC[C@@H]1c1c[nH]c2ccccc12 (3D coordinates assigned)
O=S(=O)(Cc1ccccc1)N1CCC[C@@H]1c1c[nH]c2ccccc12 (nonaromatic ring conformer: 73.39914278350481 kcal/mol)

>  <smiles>  (8) 
O=S(=O)(Cc1ccccc1)N1CCCC1c1c[nH]c2ccccc12

>  <score_type>  (8) 
oracle

>  <origin>  (8) 
autodockgpu

>  <m_score__min__energy>  (8) 
-7.5499999999999998

>  <m_primary>  (8) 
energy

>  <meeko>  (8) 
{"free_energy": -6.52, "intermolecular_energy": -7.71, "internal_energy": -1.85, "cluster_size": 8, "cluster_id": 5, "rank_in_cluster": 7}

>  <energy>  (8) 
-6.9

>  <cluster_rmsd>  (8) 
0.05

>  <rmsd>  (8) 
270.87

>  <cluster>  (8) 
3

$$$$
QHTAHHNEYOTCSC-LJQANCHMNA-N
     RDKit          3D

 44 47  0  0  0  0  0  0  0  0999 V2000
  138.3980   69.3970  226.1810 O   0  0  0  0  0  0  0  0  0  0  0  0
  139.2010   68.2210  225.6970 S   0  0  0  0  0  0  0  0  0  0  0  0
  138.6820   66.9770  226.3640 O   0  0  0  0  0  0  0  0  0  0  0  0
  140.8990   68.4900  226.1830 C   0  0  0  0  0  0  0  0  0  0  0  0
  141.1050   69.8980  226.6620 C   0  0  0  0  0  0  0  0  0  0  0  0
  141.3040   70.9390  225.7390 C   0  0  0  0  0  0  0  0  0  0  0  0
  141.4560   72.2560  226.1850 C   0  0  0  0  0  0  0  0  0  0  0  0
  141.4090   72.5420  227.5520 C   0  0  0  0  0  0  0  0  0  0  0  0
  141.2050   71.5130  228.4760 C   0  0  0  0  0  0  0  0  0  0  0  0
  141.0510   70.1960  228.0350 C   0  0  0  0  0  0  0  0  0  0  0  0
  139.0950   68.1000  223.9500 N   0  0  0  0  0  0  0  0  0  0  0  0
  139.2000   66.7190  223.4770 C   0  0  0  0  0  0  0  0  0  0  0  0
  138.5370   66.6880  222.1140 C   0  0  0  0  0  0  0  0  0  0  0  0
  137.5300   67.8260  222.1420 C   0  0  0  0  0  0  0  0  0  0  0  0
  137.8080   68.5850  223.4430 C   0  0  2  0  0  0  0  0  0  0  0  0
  137.8610   70.0720  223.2070 C   0  0  0  0  0  0  0  0  0  0  0  0
  136.9580   71.0270  223.6710 C   0  0  0  0  0  0  0  0  0  0  0  0
  137.3660   72.2690  223.3270 N   0  0  0  0  0  0  0  0  0  0  0  0
  138.5250   72.1090  222.6640 C   0  0  0  0  0  0  0  0  0  0  0  0
  139.3360   73.1080  222.1280 C   0  0  0  0  0  0  0  0  0  0  0  0
  140.5270   72.7170  221.4890 C   0  0  0  0  0  0  0  0  0  0  0  0
  140.8780   71.3510  221.4050 C   0  0  0  0  0  0  0  0  0  0  0  0
  140.0410   70.3640  221.9560 C   0  0  0  0  0  0  0  0  0  0  0  0
  138.8640   70.7830  222.5780 C   0  0  0  0  0  0  0  0  0  0  0  0
  141.1557   67.7929  226.9942 H   0  0  0  0  0  0  0  0  0  0  0  0
  141.5449   68.3191  225.3092 H   0  0  0  0  0  0  0  0  0  0  0  0
  141.3404   70.7173  224.6622 H   0  0  0  0  0  0  0  0  0  0  0  0
  141.6127   73.0674  225.4590 H   0  0  0  0  0  0  0  0  0  0  0  0
  141.5326   73.5777  227.9013 H   0  0  0  0  0  0  0  0  0  0  0  0
  141.1657   71.7403  229.5515 H   0  0  0  0  0  0  0  0  0  0  0  0
  140.8869   69.3894  228.7647 H   0  0  0  0  0  0  0  0  0  0  0  0
  140.2563   66.4234  223.3942 H   0  0  0  0  0  0  0  0  0  0  0  0
  138.7170   66.0184  224.1741 H   0  0  0  0  0  0  0  0  0  0  0  0
  139.2799   66.8483  221.3187 H   0  0  0  0  0  0  0  0  0  0  0  0
  138.0600   65.7185  221.9079 H   0  0  0  0  0  0  0  0  0  0  0  0
  137.6716   68.4863  221.2737 H   0  0  0  0  0  0  0  0  0  0  0  0
  136.4948   67.4567  222.0977 H   0  0  0  0  0  0  0  0  0  0  0  0
  137.0019   68.4081  224.1703 H   0  0  0  0  0  0  0  0  0  0  0  0
  136.0423   70.8018  224.2374 H   0  0  0  0  0  0  0  0  0  0  0  0
  136.8840   73.1690  223.5450 H   0  0  0  0  0  0  0  0  0  0  0  0
  139.0538   74.1686  222.2023 H   0  0  0  0  0  0  0  0  0  0  0  0
  141.1888   73.4794  221.0522 H   0  0  0  0  0  0  0  0  0  0  0  0
  141.8127   71.0572  220.9050 H   0  0  0  0  0  0  0  0  0  0  0  0
  140.3052   69.2977  221.8986 H   0  0  0  0  0  0  0  0  0  0  0  0
  1  2  2  0
  2  3  2  0
  2  4  1  0
  4  5  1  0
  5  6  2  0
  6  7  1  0
  7  8  2  0
  8  9  1  0
  9 10  2  0
  2 11  1  0
 11 12  1  0
 12 13  1  0
 13 14  1  0
 14 15  1  0
 15 16  1  0
 16 17  2  0
 17 18  1  0
 18 19  1  0
 19 20  2  0
 20 21  1  0
 21 22  2  0
 22 23  1  0
 23 24  2  0
 10  5  1  0
 15 11  1  0
 24 16  1  0
 24 19  1  0
  4 25  1  0
  4 26  1  0
  6 27  1  0
  7 28  1  0
  8 29  1  0
  9 30  1  0
 10 31  1  0
 12 32  1  0
 12 33  1  0
 13 34  1  0
 13 35  1  0
 14 36  1  0
 14 37  1  0
 15 38  1  1
 17 39  1  0
 18 40  1  0
 20 41  1  0
 21 42  1  0
 22 43  1  0
 23 44  1  0
M  END
>  <UniqueID>  (9) 
217

>  <SMILES>  (9) 
O=S(=O)(Cc1ccccc1)N1CCC[C@@H]1c1c[nH]c2ccccc12

>  <Energy>  (9) 
73.39914278350481

>  <Genealogy>  (9) 
O=S(=O)(Cc1ccccc1)N1CCC[C@@H]1c1c[nH]c2ccccc12 (chirality)
O=S(=O)(Cc1ccccc1)N1CCC[C@@H]1c1c[nH]c2ccccc12 (3D coordinates assigned)
O=S(=O)(Cc1ccccc1)N1CCC[C@@H]1c1c[nH]c2ccccc12 (nonaromatic ring conformer: 73.39914278350481 kcal/mol)

>  <smiles>  (9) 
O=S(=O)(Cc1ccccc1)N1CCCC1c1c[nH]c2ccccc12

>  <score_type>  (9) 
oracle

>  <origin>  (9) 
autodockgpu

>  <m_score__min__energy>  (9) 
-7.5499999999999998

>  <m_primary>  (9) 
energy

>  <meeko>  (9) 
{"free_energy": -6.62, "intermolecular_energy": -7.81, "internal_energy": -1.88, "cluster_size": 1, "cluster_id": 4, "rank_in_cluster": 1}

>  <energy>  (9) 
-6.62

>  <cluster_rmsd>  (9) 
0.0

>  <rmsd>  (9) 
270.44

>  <cluster>  (9) 
4

$$$$
QHTAHHNEYOTCSC-LJQANCHMNA-N
     RDKit          3D

 44 47  0  0  0  0  0  0  0  0999 V2000
  141.7460   81.2870  224.2250 O   0  0  0  0  0  0  0  0  0  0  0  0
  141.5640   79.9130  223.6420 S   0  0  0  0  0  0  0  0  0  0  0  0
  142.1590   78.9070  224.5890 O   0  0  0  0  0  0  0  0  0  0  0  0
  142.4470   79.8620  222.0900 C   0  0  0  0  0  0  0  0  0  0  0  0
  141.8770   80.8500  221.1140 C   0  0  0  0  0  0  0  0  0  0  0  0
  141.4410   82.1110  221.5550 C   0  0  0  0  0  0  0  0  0  0  0  0
  140.9470   83.0450  220.6390 C   0  0  0  0  0  0  0  0  0  0  0  0
  140.8890   82.7290  219.2780 C   0  0  0  0  0  0  0  0  0  0  0  0
  141.3270   81.4790  218.8310 C   0  0  0  0  0  0  0  0  0  0  0  0
  141.8220   80.5420  219.7430 C   0  0  0  0  0  0  0  0  0  0  0  0
  139.8600   79.5990  223.3660 N   0  0  0  0  0  0  0  0  0  0  0  0
  139.0490   80.8170  223.4260 C   0  0  0  0  0  0  0  0  0  0  0  0
  137.7900   80.5240  222.6330 C   0  0  0  0  0  0  0  0  0  0  0  0
  138.1960   79.4550  221.6330 C   0  0  0  0  0  0  0  0  0  0  0  0
  139.6130   79.0360  222.0350 C   0  0  2  0  0  0  0  0  0  0  0  0
  139.7520   77.5370  222.0630 C   0  0  0  0  0  0  0  0  0  0  0  0
  138.8880   76.6260  222.6690 C   0  0  0  0  0  0  0  0  0  0  0  0
  139.2910   75.3590  222.4260 N   0  0  0  0  0  0  0  0  0  0  0  0
  140.3910   75.4590  221.6600 C   0  0  0  0  0  0  0  0  0  0  0  0
  141.1540   74.4160  221.1370 C   0  0  0  0  0  0  0  0  0  0  0  0
  142.2610   74.7490  220.3350 C   0  0  0  0  0  0  0  0  0  0  0  0
  142.5760   76.1010  220.0740 C   0  0  0  0  0  0  0  0  0  0  0  0
  141.7870   77.1330  220.6150 C   0  0  0  0  0  0  0  0  0  0  0  0
  140.6990   76.7720  221.4100 C   0  0  0  0  0  0  0  0  0  0  0  0
  143.5050   80.1036  222.2699 H   0  0  0  0  0  0  0  0  0  0  0  0
  142.3492   78.8525  221.6642 H   0  0  0  0  0  0  0  0  0  0  0  0
  141.4884   82.3642  222.6244 H   0  0  0  0  0  0  0  0  0  0  0  0
  140.6036   84.0295  220.9895 H   0  0  0  0  0  0  0  0  0  0  0  0
  140.4986   83.4642  218.5590 H   0  0  0  0  0  0  0  0  0  0  0  0
  141.2821   81.2322  217.7600 H   0  0  0  0  0  0  0  0  0  0  0  0
  142.1695   79.5609  219.3870 H   0  0  0  0  0  0  0  0  0  0  0  0
  138.7959   81.0560  224.4695 H   0  0  0  0  0  0  0  0  0  0  0  0
  139.5910   81.6812  223.0143 H   0  0  0  0  0  0  0  0  0  0  0  0
  136.9939   80.1522  223.2947 H   0  0  0  0  0  0  0  0  0  0  0  0
  137.3939   81.4234  222.1388 H   0  0  0  0  0  0  0  0  0  0  0  0
  137.5108   78.5963  221.6887 H   0  0  0  0  0  0  0  0  0  0  0  0
  138.1586   79.8281  220.5989 H   0  0  0  0  0  0  0  0  0  0  0  0
  140.3452   79.4084  221.3035 H   0  0  0  0  0  0  0  0  0  0  0  0
  138.0027   76.8999  223.2617 H   0  0  0  0  0  0  0  0  0  0  0  0
  138.8300   74.4820  222.7560 H   0  0  0  0  0  0  0  0  0  0  0  0
  140.8987   73.3664  221.3447 H   0  0  0  0  0  0  0  0  0  0  0  0
  142.8858   73.9506  219.9081 H   0  0  0  0  0  0  0  0  0  0  0  0
  143.4432   76.3486  219.4442 H   0  0  0  0  0  0  0  0  0  0  0  0
  142.0205   78.1896  220.4175 H   0  0  0  0  0  0  0  0  0  0  0  0
  1  2  2  0
  2  3  2  0
  2  4  1  0
  4  5  1  0
  5  6  2  0
  6  7  1  0
  7  8  2  0
  8  9  1  0
  9 10  2  0
  2 11  1  0
 11 12  1  0
 12 13  1  0
 13 14  1  0
 14 15  1  0
 15 16  1  0
 16 17  2  0
 17 18  1  0
 18 19  1  0
 19 20  2  0
 20 21  1  0
 21 22  2  0
 22 23  1  0
 23 24  2  0
 10  5  1  0
 15 11  1  0
 24 16  1  0
 24 19  1  0
  4 25  1  0
  4 26  1  0
  6 27  1  0
  7 28  1  0
  8 29  1  0
  9 30  1  0
 10 31  1  0
 12 32  1  0
 12 33  1  0
 13 34  1  0
 13 35  1  0
 14 36  1  0
 14 37  1  0
 15 38  1  6
 17 39  1  0
 18 40  1  0
 20 41  1  0
 21 42  1  0
 22 43  1  0
 23 44  1  0
M  END
>  <UniqueID>  (10) 
217

>  <SMILES>  (10) 
O=S(=O)(Cc1ccccc1)N1CCC[C@@H]1c1c[nH]c2ccccc12

>  <Energy>  (10) 
73.39914278350481

>  <Genealogy>  (10) 
O=S(=O)(Cc1ccccc1)N1CCC[C@@H]1c1c[nH]c2ccccc12 (chirality)
O=S(=O)(Cc1ccccc1)N1CCC[C@@H]1c1c[nH]c2ccccc12 (3D coordinates assigned)
O=S(=O)(Cc1ccccc1)N1CCC[C@@H]1c1c[nH]c2ccccc12 (nonaromatic ring conformer: 73.39914278350481 kcal/mol)

>  <smiles>  (10) 
O=S(=O)(Cc1ccccc1)N1CCCC1c1c[nH]c2ccccc12

>  <score_type>  (10) 
oracle

>  <origin>  (10) 
autodockgpu

>  <m_score__min__energy>  (10) 
-7.5499999999999998

>  <m_primary>  (10) 
energy

>  <meeko>  (10) 
{"free_energy": -6.58, "intermolecular_energy": -7.77, "internal_energy": -1.79, "cluster_size": 8, "cluster_id": 5, "rank_in_cluster": 2}

>  <energy>  (10) 
-6.58

>  <cluster_rmsd>  (10) 
0.0

>  <rmsd>  (10) 
271.42

>  <cluster>  (10) 
5

$$$$
QHTAHHNEYOTCSC-LJQANCHMNA-N
     RDKit          3D

 44 47  0  0  0  0  0  0  0  0999 V2000
  141.4560   81.0050  224.2180 O   0  0  0  0  0  0  0  0  0  0  0  0
  141.3380   79.6190  223.6480 S   0  0  0  0  0  0  0  0  0  0  0  0
  141.8460   78.6360  224.6670 O   0  0  0  0  0  0  0  0  0  0  0  0
  142.3650   79.5450  222.1890 C   0  0  0  0  0  0  0  0  0  0  0  0
  141.9220   80.5520  221.1660 C   0  0  0  0  0  0  0  0  0  0  0  0
  141.8790   80.2070  219.8050 C   0  0  0  0  0  0  0  0  0  0  0  0
  141.4280   81.1320  218.8580 C   0  0  0  0  0  0  0  0  0  0  0  0
  141.0150   82.4050  219.2640 C   0  0  0  0  0  0  0  0  0  0  0  0
  141.0500   82.7530  220.6180 C   0  0  0  0  0  0  0  0  0  0  0  0
  141.4990   81.8310  221.5670 C   0  0  0  0  0  0  0  0  0  0  0  0
  139.6700   79.2860  223.2180 N   0  0  0  0  0  0  0  0  0  0  0  0
  138.8500   80.4980  223.1740 C   0  0  0  0  0  0  0  0  0  0  0  0
  137.6740   80.1800  222.2700 C   0  0  0  0  0  0  0  0  0  0  0  0
  138.1800   79.0930  221.3370 C   0  0  0  0  0  0  0  0  0  0  0  0
  139.5550   78.6940  221.8810 C   0  0  2  0  0  0  0  0  0  0  0  0
  139.6990   77.1960  221.9550 C   0  0  0  0  0  0  0  0  0  0  0  0
  138.8300   76.3000  222.5760 C   0  0  0  0  0  0  0  0  0  0  0  0
  139.2410   75.0280  222.3750 N   0  0  0  0  0  0  0  0  0  0  0  0
  140.3500   75.1100  221.6200 C   0  0  0  0  0  0  0  0  0  0  0  0
  141.1230   74.0560  221.1370 C   0  0  0  0  0  0  0  0  0  0  0  0
  142.2390   74.3690  220.3390 C   0  0  0  0  0  0  0  0  0  0  0  0
  142.5510   75.7140  220.0430 C   0  0  0  0  0  0  0  0  0  0  0  0
  141.7520   76.7590  220.5430 C   0  0  0  0  0  0  0  0  0  0  0  0
  140.6570   76.4170  221.3360 C   0  0  0  0  0  0  0  0  0  0  0  0
  143.4072   79.7545  222.4719 H   0  0  0  0  0  0  0  0  0  0  0  0
  142.2788   78.5397  221.7508 H   0  0  0  0  0  0  0  0  0  0  0  0
  142.2012   79.2058  219.4829 H   0  0  0  0  0  0  0  0  0  0  0  0
  141.3981   80.8581  217.7931 H   0  0  0  0  0  0  0  0  0  0  0  0
  140.6626   83.1327  218.5182 H   0  0  0  0  0  0  0  0  0  0  0  0
  140.7236   83.7540  220.9364 H   0  0  0  0  0  0  0  0  0  0  0  0
  141.5215   82.1070  222.6316 H   0  0  0  0  0  0  0  0  0  0  0  0
  138.4965   80.7562  224.1831 H   0  0  0  0  0  0  0  0  0  0  0  0
  139.4243   81.3574  222.7976 H   0  0  0  0  0  0  0  0  0  0  0  0
  136.8197   79.8167  222.8600 H   0  0  0  0  0  0  0  0  0  0  0  0
  137.3226   81.0661  221.7210 H   0  0  0  0  0  0  0  0  0  0  0  0
  137.4978   78.2302  221.3463 H   0  0  0  0  0  0  0  0  0  0  0  0
  138.2391   79.4437  220.2961 H   0  0  0  0  0  0  0  0  0  0  0  0
  140.3514   79.0572  221.2148 H   0  0  0  0  0  0  0  0  0  0  0  0
  137.9360   76.5876  223.1488 H   0  0  0  0  0  0  0  0  0  0  0  0
  138.7790   74.1590  222.7250 H   0  0  0  0  0  0  0  0  0  0  0  0
  140.8688   73.0119  221.3721 H   0  0  0  0  0  0  0  0  0  0  0  0
  142.8721   73.5611  219.9434 H   0  0  0  0  0  0  0  0  0  0  0  0
  143.4250   75.9466  219.4170 H   0  0  0  0  0  0  0  0  0  0  0  0
  141.9834   77.8102  220.3160 H   0  0  0  0  0  0  0  0  0  0  0  0
  1  2  2  0
  2  3  2  0
  2  4  1  0
  4  5  1  0
  5  6  2  0
  6  7  1  0
  7  8  2  0
  8  9  1  0
  9 10  2  0
  2 11  1  0
 11 12  1  0
 12 13  1  0
 13 14  1  0
 14 15  1  0
 15 16  1  0
 16 17  2  0
 17 18  1  0
 18 19  1  0
 19 20  2  0
 20 21  1  0
 21 22  2  0
 22 23  1  0
 23 24  2  0
 10  5  1  0
 15 11  1  0
 24 16  1  0
 24 19  1  0
  4 25  1  0
  4 26  1  0
  6 27  1  0
  7 28  1  0
  8 29  1  0
  9 30  1  0
 10 31  1  0
 12 32  1  0
 12 33  1  0
 13 34  1  0
 13 35  1  0
 14 36  1  0
 14 37  1  0
 15 38  1  6
 17 39  1  0
 18 40  1  0
 20 41  1  0
 21 42  1  0
 22 43  1  0
 23 44  1  0
M  END
>  <UniqueID>  (11) 
217

>  <SMILES>  (11) 
O=S(=O)(Cc1ccccc1)N1CCC[C@@H]1c1c[nH]c2ccccc12

>  <Energy>  (11) 
73.39914278350481

>  <Genealogy>  (11) 
O=S(=O)(Cc1ccccc1)N1CCC[C@@H]1c1c[nH]c2ccccc12 (chirality)
O=S(=O)(Cc1ccccc1)N1CCC[C@@H]1c1c[nH]c2ccccc12 (3D coordinates assigned)
O=S(=O)(Cc1ccccc1)N1CCC[C@@H]1c1c[nH]c2ccccc12 (nonaromatic ring conformer: 73.39914278350481 kcal/mol)

>  <smiles>  (11) 
O=S(=O)(Cc1ccccc1)N1CCCC1c1c[nH]c2ccccc12

>  <score_type>  (11) 
oracle

>  <origin>  (11) 
autodockgpu

>  <m_score__min__energy>  (11) 
-7.5499999999999998

>  <m_primary>  (11) 
energy

>  <meeko>  (11) 
{"free_energy": -6.54, "intermolecular_energy": -7.73, "internal_energy": -1.84, "cluster_size": 8, "cluster_id": 5, "rank_in_cluster": 4}

>  <energy>  (11) 
-6.58

>  <cluster_rmsd>  (11) 
0.04

>  <rmsd>  (11) 
271.41

>  <cluster>  (11) 
5

$$$$
QHTAHHNEYOTCSC-LJQANCHMNA-N
     RDKit          3D

 44 47  0  0  0  0  0  0  0  0999 V2000
  141.7530   81.3060  224.2390 O   0  0  0  0  0  0  0  0  0  0  0  0
  141.5680   79.9340  223.6510 S   0  0  0  0  0  0  0  0  0  0  0  0
  142.1590   78.9240  224.5960 O   0  0  0  0  0  0  0  0  0  0  0  0
  142.4530   79.8870  222.1000 C   0  0  0  0  0  0  0  0  0  0  0  0
  141.8870   80.8790  221.1260 C   0  0  0  0  0  0  0  0  0  0  0  0
  141.4520   82.1400  221.5710 C   0  0  0  0  0  0  0  0  0  0  0  0
  140.9630   83.0780  220.6580 C   0  0  0  0  0  0  0  0  0  0  0  0
  140.9060   82.7670  219.2960 C   0  0  0  0  0  0  0  0  0  0  0  0
  141.3410   81.5180  218.8460 C   0  0  0  0  0  0  0  0  0  0  0  0
  141.8330   80.5770  219.7550 C   0  0  0  0  0  0  0  0  0  0  0  0
  139.8630   79.6250  223.3730 N   0  0  0  0  0  0  0  0  0  0  0  0
  139.0540   80.8440  223.4400 C   0  0  0  0  0  0  0  0  0  0  0  0
  137.7960   80.5590  222.6440 C   0  0  0  0  0  0  0  0  0  0  0  0
  138.2000   79.4950  221.6370 C   0  0  0  0  0  0  0  0  0  0  0  0
  139.6170   79.0710  222.0370 C   0  0  2  0  0  0  0  0  0  0  0  0
  139.7530   77.5710  222.0570 C   0  0  0  0  0  0  0  0  0  0  0  0
  138.8850   76.6580  222.6550 C   0  0  0  0  0  0  0  0  0  0  0  0
  139.2870   75.3920  222.4050 N   0  0  0  0  0  0  0  0  0  0  0  0
  140.3890   75.4950  221.6410 C   0  0  0  0  0  0  0  0  0  0  0  0
  141.1500   74.4540  221.1130 C   0  0  0  0  0  0  0  0  0  0  0  0
  142.2590   74.7890  220.3150 C   0  0  0  0  0  0  0  0  0  0  0  0
  142.5770   76.1430  220.0640 C   0  0  0  0  0  0  0  0  0  0  0  0
  141.7890   77.1730  220.6090 C   0  0  0  0  0  0  0  0  0  0  0  0
  140.7000   76.8090  221.4000 C   0  0  0  0  0  0  0  0  0  0  0  0
  143.5111   80.1260  222.2825 H   0  0  0  0  0  0  0  0  0  0  0  0
  142.3534   78.8792  221.6707 H   0  0  0  0  0  0  0  0  0  0  0  0
  141.4968   82.3889  222.6415 H   0  0  0  0  0  0  0  0  0  0  0  0
  140.6224   84.0625  221.0113 H   0  0  0  0  0  0  0  0  0  0  0  0
  140.5187   83.5057  218.5789 H   0  0  0  0  0  0  0  0  0  0  0  0
  141.2962   81.2746  217.7742 H   0  0  0  0  0  0  0  0  0  0  0  0
  142.1791   79.5966  219.3957 H   0  0  0  0  0  0  0  0  0  0  0  0
  138.8000   81.0765  224.4847 H   0  0  0  0  0  0  0  0  0  0  0  0
  139.5981   81.7098  223.0346 H   0  0  0  0  0  0  0  0  0  0  0  0
  136.9983   80.1849  223.3026 H   0  0  0  0  0  0  0  0  0  0  0  0
  137.4031   81.4626  222.1550 H   0  0  0  0  0  0  0  0  0  0  0  0
  137.5132   78.6372  221.6875 H   0  0  0  0  0  0  0  0  0  0  0  0
  138.1631   79.8743  220.6051 H   0  0  0  0  0  0  0  0  0  0  0  0
  140.3503   79.4465  221.3081 H   0  0  0  0  0  0  0  0  0  0  0  0
  137.9983   76.9297  223.2466 H   0  0  0  0  0  0  0  0  0  0  0  0
  138.8240   74.5140  222.7280 H   0  0  0  0  0  0  0  0  0  0  0  0
  140.8918   73.4038  221.3138 H   0  0  0  0  0  0  0  0  0  0  0  0
  142.8826   73.9921  219.8837 H   0  0  0  0  0  0  0  0  0  0  0  0
  143.4465   76.3931  219.4383 H   0  0  0  0  0  0  0  0  0  0  0  0
  142.0241   78.2304  220.4175 H   0  0  0  0  0  0  0  0  0  0  0  0
  1  2  2  0
  2  3  2  0
  2  4  1  0
  4  5  1  0
  5  6  2  0
  6  7  1  0
  7  8  2  0
  8  9  1  0
  9 10  2  0
  2 11  1  0
 11 12  1  0
 12 13  1  0
 13 14  1  0
 14 15  1  0
 15 16  1  0
 16 17  2  0
 17 18  1  0
 18 19  1  0
 19 20  2  0
 20 21  1  0
 21 22  2  0
 22 23  1  0
 23 24  2  0
 10  5  1  0
 15 11  1  0
 24 16  1  0
 24 19  1  0
  4 25  1  0
  4 26  1  0
  6 27  1  0
  7 28  1  0
  8 29  1  0
  9 30  1  0
 10 31  1  0
 12 32  1  0
 12 33  1  0
 13 34  1  0
 13 35  1  0
 14 36  1  0
 14 37  1  0
 15 38  1  6
 17 39  1  0
 18 40  1  0
 20 41  1  0
 21 42  1  0
 22 43  1  0
 23 44  1  0
M  END
>  <UniqueID>  (12) 
217

>  <SMILES>  (12) 
O=S(=O)(Cc1ccccc1)N1CCC[C@@H]1c1c[nH]c2ccccc12

>  <Energy>  (12) 
73.39914278350481

>  <Genealogy>  (12) 
O=S(=O)(Cc1ccccc1)N1CCC[C@@H]1c1c[nH]c2ccccc12 (chirality)
O=S(=O)(Cc1ccccc1)N1CCC[C@@H]1c1c[nH]c2ccccc12 (3D coordinates assigned)
O=S(=O)(Cc1ccccc1)N1CCC[C@@H]1c1c[nH]c2ccccc12 (nonaromatic ring conformer: 73.39914278350481 kcal/mol)

>  <smiles>  (12) 
O=S(=O)(Cc1ccccc1)N1CCCC1c1c[nH]c2ccccc12

>  <score_type>  (12) 
oracle

>  <origin>  (12) 
autodockgpu

>  <m_score__min__energy>  (12) 
-7.5499999999999998

>  <m_primary>  (12) 
energy

>  <meeko>  (12) 
{"free_energy": -6.58, "intermolecular_energy": -7.77, "internal_energy": -1.79, "cluster_size": 8, "cluster_id": 5, "rank_in_cluster": 1}

>  <energy>  (12) 
-6.56

>  <cluster_rmsd>  (12) 
0.05

>  <rmsd>  (12) 
271.42

>  <cluster>  (12) 
5

$$$$
QHTAHHNEYOTCSC-LJQANCHMNA-N
     RDKit          3D

 44 47  0  0  0  0  0  0  0  0999 V2000
  141.0970   71.2580  223.8500 O   0  0  0  0  0  0  0  0  0  0  0  0
  139.8400   71.1830  223.0280 S   0  0  0  0  0  0  0  0  0  0  0  0
  139.9740   70.0510  222.0460 O   0  0  0  0  0  0  0  0  0  0  0  0
  139.6830   72.7250  222.1390 C   0  0  0  0  0  0  0  0  0  0  0  0
  141.0010   73.1460  221.5550 C   0  0  0  0  0  0  0  0  0  0  0  0
  141.9610   72.1820  221.2050 C   0  0  0  0  0  0  0  0  0  0  0  0
  143.1710   72.5730  220.6240 C   0  0  0  0  0  0  0  0  0  0  0  0
  143.4300   73.9260  220.3870 C   0  0  0  0  0  0  0  0  0  0  0  0
  142.4770   74.8910  220.7280 C   0  0  0  0  0  0  0  0  0  0  0  0
  141.2650   74.5050  221.3070 C   0  0  0  0  0  0  0  0  0  0  0  0
  138.4500   70.9570  224.0750 N   0  0  0  0  0  0  0  0  0  0  0  0
  137.2100   71.4570  223.4780 C   0  0  0  0  0  0  0  0  0  0  0  0
  136.0810   70.7130  224.1640 C   0  0  0  0  0  0  0  0  0  0  0  0
  136.6970   69.4000  224.6200 C   0  0  0  0  0  0  0  0  0  0  0  0
  138.1990   69.5400  224.3570 C   0  0  2  0  0  0  0  0  0  0  0  0
  139.0060   69.0890  225.5460 C   0  0  0  0  0  0  0  0  0  0  0  0
  139.2330   67.7750  225.9560 C   0  0  0  0  0  0  0  0  0  0  0  0
  140.0650   67.7500  227.0200 N   0  0  0  0  0  0  0  0  0  0  0  0
  140.3790   69.0320  227.2780 C   0  0  0  0  0  0  0  0  0  0  0  0
  141.2280   69.5090  228.2750 C   0  0  0  0  0  0  0  0  0  0  0  0
  141.4350   70.8990  228.3530 C   0  0  0  0  0  0  0  0  0  0  0  0
  140.8000   71.7690  227.4390 C   0  0  0  0  0  0  0  0  0  0  0  0
  139.9490   71.2590  226.4420 C   0  0  0  0  0  0  0  0  0  0  0  0
  139.7590   69.8780  226.3940 C   0  0  0  0  0  0  0  0  0  0  0  0
  138.9531   72.5987  221.3258 H   0  0  0  0  0  0  0  0  0  0  0  0
  139.3467   73.5019  222.8414 H   0  0  0  0  0  0  0  0  0  0  0  0
  141.7601   71.1162  221.3886 H   0  0  0  0  0  0  0  0  0  0  0  0
  143.9204   71.8147  220.3529 H   0  0  0  0  0  0  0  0  0  0  0  0
  144.3837   74.2318  219.9321 H   0  0  0  0  0  0  0  0  0  0  0  0
  142.6816   75.9554  220.5402 H   0  0  0  0  0  0  0  0  0  0  0  0
  140.5155   75.2661  221.5695 H   0  0  0  0  0  0  0  0  0  0  0  0
  137.1134   72.5392  223.6496 H   0  0  0  0  0  0  0  0  0  0  0  0
  137.1947   71.2947  222.3902 H   0  0  0  0  0  0  0  0  0  0  0  0
  135.7081   71.2854  225.0261 H   0  0  0  0  0  0  0  0  0  0  0  0
  135.2218   70.5567  223.4951 H   0  0  0  0  0  0  0  0  0  0  0  0
  136.5077   69.2381  225.6914 H   0  0  0  0  0  0  0  0  0  0  0  0
  136.2674   68.5401  224.0853 H   0  0  0  0  0  0  0  0  0  0  0  0
  138.5007   68.9062  223.5101 H   0  0  0  0  0  0  0  0  0  0  0  0
  138.7961   66.8848  225.4800 H   0  0  0  0  0  0  0  0  0  0  0  0
  140.4050   66.9030  227.5290 H   0  0  0  0  0  0  0  0  0  0  0  0
  141.7204   68.8213  228.9783 H   0  0  0  0  0  0  0  0  0  0  0  0
  142.0954   71.3105  229.1306 H   0  0  0  0  0  0  0  0  0  0  0  0
  140.9723   72.8533  227.5075 H   0  0  0  0  0  0  0  0  0  0  0  0
  139.4501   71.9268  225.7243 H   0  0  0  0  0  0  0  0  0  0  0  0
  1  2  2  0
  2  3  2  0
  2  4  1  0
  4  5  1  0
  5  6  2  0
  6  7  1  0
  7  8  2  0
  8  9  1  0
  9 10  2  0
  2 11  1  0
 11 12  1  0
 12 13  1  0
 13 14  1  0
 14 15  1  0
 15 16  1  0
 16 17  2  0
 17 18  1  0
 18 19  1  0
 19 20  2  0
 20 21  1  0
 21 22  2  0
 22 23  1  0
 23 24  2  0
 10  5  1  0
 15 11  1  0
 24 16  1  0
 24 19  1  0
  4 25  1  0
  4 26  1  0
  6 27  1  0
  7 28  1  0
  8 29  1  0
  9 30  1  0
 10 31  1  0
 12 32  1  0
 12 33  1  0
 13 34  1  0
 13 35  1  0
 14 36  1  0
 14 37  1  0
 15 38  1  6
 17 39  1  0
 18 40  1  0
 20 41  1  0
 21 42  1  0
 22 43  1  0
 23 44  1  0
M  END
>  <UniqueID>  (13) 
217

>  <SMILES>  (13) 
O=S(=O)(Cc1ccccc1)N1CCC[C@@H]1c1c[nH]c2ccccc12

>  <Energy>  (13) 
73.39914278350481

>  <Genealogy>  (13) 
O=S(=O)(Cc1ccccc1)N1CCC[C@@H]1c1c[nH]c2ccccc12 (chirality)
O=S(=O)(Cc1ccccc1)N1CCC[C@@H]1c1c[nH]c2ccccc12 (3D coordinates assigned)
O=S(=O)(Cc1ccccc1)N1CCC[C@@H]1c1c[nH]c2ccccc12 (nonaromatic ring conformer: 73.39914278350481 kcal/mol)

>  <smiles>  (13) 
O=S(=O)(Cc1ccccc1)N1CCCC1c1c[nH]c2ccccc12

>  <score_type>  (13) 
oracle

>  <origin>  (13) 
autodockgpu

>  <m_score__min__energy>  (13) 
-7.5499999999999998

>  <m_primary>  (13) 
energy

>  <meeko>  (13) 
{"free_energy": -7.55, "intermolecular_energy": -8.74, "internal_energy": -1.21, "cluster_size": 3, "cluster_id": 1, "rank_in_cluster": 2}

>  <energy>  (13) 
-6.54

>  <cluster_rmsd>  (13) 
0.41

>  <rmsd>  (13) 
271.24

>  <cluster>  (13) 
5

$$$$
QHTAHHNEYOTCSC-LJQANCHMNA-N
     RDKit          3D

 44 47  0  0  0  0  0  0  0  0999 V2000
  138.8110   77.5050  221.9290 O   0  0  0  0  0  0  0  0  0  0  0  0
  140.0200   76.6110  221.9150 S   0  0  0  0  0  0  0  0  0  0  0  0
  139.6010   75.2300  222.3400 O   0  0  0  0  0  0  0  0  0  0  0  0
  141.1910   77.2660  223.0930 C   0  0  0  0  0  0  0  0  0  0  0  0
  141.2720   78.7630  222.9980 C   0  0  0  0  0  0  0  0  0  0  0  0
  140.2360   79.5630  223.5110 C   0  0  0  0  0  0  0  0  0  0  0  0
  140.3310   80.9560  223.4570 C   0  0  0  0  0  0  0  0  0  0  0  0
  141.4590   81.5610  222.8940 C   0  0  0  0  0  0  0  0  0  0  0  0
  142.4960   80.7720  222.3870 C   0  0  0  0  0  0  0  0  0  0  0  0
  142.4060   79.3780  222.4400 C   0  0  0  0  0  0  0  0  0  0  0  0
  140.7350   76.5950  220.3130 N   0  0  0  0  0  0  0  0  0  0  0  0
  140.6050   77.8820  219.6270 C   0  0  0  0  0  0  0  0  0  0  0  0
  141.7070   77.9190  218.5860 C   0  0  0  0  0  0  0  0  0  0  0  0
  142.7920   77.0040  219.1300 C   0  0  0  0  0  0  0  0  0  0  0  0
  142.1760   76.3250  220.3570 C   0  0  2  0  0  0  0  0  0  0  0  0
  142.4340   74.8410  220.3460 C   0  0  0  0  0  0  0  0  0  0  0  0
  141.4890   73.8270  220.1990 C   0  0  0  0  0  0  0  0  0  0  0  0
  142.0940   72.6190  220.1630 N   0  0  0  0  0  0  0  0  0  0  0  0
  143.4130   72.8600  220.2680 C   0  0  0  0  0  0  0  0  0  0  0  0
  144.4460   71.9250  220.2580 C   0  0  0  0  0  0  0  0  0  0  0  0
  145.7660   72.4010  220.3600 C   0  0  0  0  0  0  0  0  0  0  0  0
  146.0200   73.7870  220.4630 C   0  0  0  0  0  0  0  0  0  0  0  0
  144.9580   74.7090  220.4690 C   0  0  0  0  0  0  0  0  0  0  0  0
  143.6600   74.2050  220.3740 C   0  0  0  0  0  0  0  0  0  0  0  0
  140.8736   76.9869  224.1086 H   0  0  0  0  0  0  0  0  0  0  0  0
  142.1833   76.8470  222.8699 H   0  0  0  0  0  0  0  0  0  0  0  0
  139.3478   79.0909  223.9563 H   0  0  0  0  0  0  0  0  0  0  0  0
  139.5170   81.5778  223.8581 H   0  0  0  0  0  0  0  0  0  0  0  0
  141.5305   82.6578  222.8500 H   0  0  0  0  0  0  0  0  0  0  0  0
  143.3837   81.2488  221.9459 H   0  0  0  0  0  0  0  0  0  0  0  0
  143.2254   78.7603  222.0437 H   0  0  0  0  0  0  0  0  0  0  0  0
  139.6202   77.9584  219.1429 H   0  0  0  0  0  0  0  0  0  0  0  0
  140.6903   78.7225  220.3315 H   0  0  0  0  0  0  0  0  0  0  0  0
  141.3376   77.5482  217.6185 H   0  0  0  0  0  0  0  0  0  0  0  0
  142.0766   78.9402  218.4113 H   0  0  0  0  0  0  0  0  0  0  0  0
  143.0757   76.2538  218.3772 H   0  0  0  0  0  0  0  0  0  0  0  0
  143.7052   77.5609  219.3867 H   0  0  0  0  0  0  0  0  0  0  0  0
  142.6263   76.7189  221.2801 H   0  0  0  0  0  0  0  0  0  0  0  0
  140.4034   73.9874  220.1230 H   0  0  0  0  0  0  0  0  0  0  0  0
  141.6300   71.6890  220.0590 H   0  0  0  0  0  0  0  0  0  0  0  0
  144.2361   70.8486  220.1730 H   0  0  0  0  0  0  0  0  0  0  0  0
  146.6052   71.6899  220.3596 H   0  0  0  0  0  0  0  0  0  0  0  0
  147.0564   74.1478  220.5391 H   0  0  0  0  0  0  0  0  0  0  0  0
  145.1440   75.7904  220.5459 H   0  0  0  0  0  0  0  0  0  0  0  0
  1  2  2  0
  2  3  2  0
  2  4  1  0
  4  5  1  0
  5  6  2  0
  6  7  1  0
  7  8  2  0
  8  9  1  0
  9 10  2  0
  2 11  1  0
 11 12  1  0
 12 13  1  0
 13 14  1  0
 14 15  1  0
 15 16  1  0
 16 17  2  0
 17 18  1  0
 18 19  1  0
 19 20  2  0
 20 21  1  0
 21 22  2  0
 22 23  1  0
 23 24  2  0
 10  5  1  0
 15 11  1  0
 24 16  1  0
 24 19  1  0
  4 25  1  0
  4 26  1  0
  6 27  1  0
  7 28  1  0
  8 29  1  0
  9 30  1  0
 10 31  1  0
 12 32  1  0
 12 33  1  0
 13 34  1  0
 13 35  1  0
 14 36  1  0
 14 37  1  0
 15 38  1  1
 17 39  1  0
 18 40  1  0
 20 41  1  0
 21 42  1  0
 22 43  1  0
 23 44  1  0
M  END
>  <UniqueID>  (14) 
217

>  <SMILES>  (14) 
O=S(=O)(Cc1ccccc1)N1CCC[C@@H]1c1c[nH]c2ccccc12

>  <Energy>  (14) 
73.39914278350481

>  <Genealogy>  (14) 
O=S(=O)(Cc1ccccc1)N1CCC[C@@H]1c1c[nH]c2ccccc12 (chirality)
O=S(=O)(Cc1ccccc1)N1CCC[C@@H]1c1c[nH]c2ccccc12 (3D coordinates assigned)
O=S(=O)(Cc1ccccc1)N1CCC[C@@H]1c1c[nH]c2ccccc12 (nonaromatic ring conformer: 73.39914278350481 kcal/mol)

>  <smiles>  (14) 
O=S(=O)(Cc1ccccc1)N1CCCC1c1c[nH]c2ccccc12

>  <score_type>  (14) 
oracle

>  <origin>  (14) 
autodockgpu

>  <m_score__min__energy>  (14) 
-7.5499999999999998

>  <m_primary>  (14) 
energy

>  <meeko>  (14) 
{"free_energy": -6.92, "intermolecular_energy": -8.11, "internal_energy": -1.52, "cluster_size": 3, "cluster_id": 3, "rank_in_cluster": 2}

>  <energy>  (14) 
-6.53

>  <cluster_rmsd>  (14) 
0.22

>  <rmsd>  (14) 
271.29

>  <cluster>  (14) 
5

$$$$
QHTAHHNEYOTCSC-LJQANCHMNA-N
     RDKit          3D

 44 47  0  0  0  0  0  0  0  0999 V2000
  141.7620   81.2980  224.2350 O   0  0  0  0  0  0  0  0  0  0  0  0
  141.5730   79.9280  223.6440 S   0  0  0  0  0  0  0  0  0  0  0  0
  142.1740   78.9140  224.5790 O   0  0  0  0  0  0  0  0  0  0  0  0
  142.4430   79.8880  222.0850 C   0  0  0  0  0  0  0  0  0  0  0  0
  141.8860   80.9060  221.1310 C   0  0  0  0  0  0  0  0  0  0  0  0
  141.7470   80.5970  219.7670 C   0  0  0  0  0  0  0  0  0  0  0  0
  141.1920   81.5300  218.8870 C   0  0  0  0  0  0  0  0  0  0  0  0
  140.7700   82.7760  219.3620 C   0  0  0  0  0  0  0  0  0  0  0  0
  140.8990   83.0880  220.7180 C   0  0  0  0  0  0  0  0  0  0  0  0
  141.4520   82.1570  221.6020 C   0  0  0  0  0  0  0  0  0  0  0  0
  139.8660   79.6190  223.3810 N   0  0  0  0  0  0  0  0  0  0  0  0
  139.0570   80.8380  223.4550 C   0  0  0  0  0  0  0  0  0  0  0  0
  137.7920   80.5520  222.6700 C   0  0  0  0  0  0  0  0  0  0  0  0
  138.1870   79.4880  221.6610 C   0  0  0  0  0  0  0  0  0  0  0  0
  139.6070   79.0650  222.0480 C   0  0  2  0  0  0  0  0  0  0  0  0
  139.7440   77.5650  222.0670 C   0  0  0  0  0  0  0  0  0  0  0  0
  138.8750   76.6510  222.6630 C   0  0  0  0  0  0  0  0  0  0  0  0
  139.2770   75.3850  222.4120 N   0  0  0  0  0  0  0  0  0  0  0  0
  140.3810   75.4890  221.6510 C   0  0  0  0  0  0  0  0  0  0  0  0
  141.1430   74.4480  221.1240 C   0  0  0  0  0  0  0  0  0  0  0  0
  142.2550   74.7850  220.3290 C   0  0  0  0  0  0  0  0  0  0  0  0
  142.5720   76.1380  220.0790 C   0  0  0  0  0  0  0  0  0  0  0  0
  141.7830   77.1680  220.6230 C   0  0  0  0  0  0  0  0  0  0  0  0
  140.6920   76.8030  221.4120 C   0  0  0  0  0  0  0  0  0  0  0  0
  143.5070   80.1046  222.2612 H   0  0  0  0  0  0  0  0  0  0  0  0
  142.3212   78.8888  221.6414 H   0  0  0  0  0  0  0  0  0  0  0  0
  142.0763   79.6172  219.3908 H   0  0  0  0  0  0  0  0  0  0  0  0
  141.0870   81.2843  217.8199 H   0  0  0  0  0  0  0  0  0  0  0  0
  140.3363   83.5108  218.6677 H   0  0  0  0  0  0  0  0  0  0  0  0
  140.5649   84.0677  221.0903 H   0  0  0  0  0  0  0  0  0  0  0  0
  141.5478   82.4043  222.6696 H   0  0  0  0  0  0  0  0  0  0  0  0
  138.8122   81.0706  224.5019 H   0  0  0  0  0  0  0  0  0  0  0  0
  139.5971   81.7040  223.0448 H   0  0  0  0  0  0  0  0  0  0  0  0
  137.0001   80.1783  223.3358 H   0  0  0  0  0  0  0  0  0  0  0  0
  137.3948   81.4551  222.1836 H   0  0  0  0  0  0  0  0  0  0  0  0
  137.5010   78.6300  221.7185 H   0  0  0  0  0  0  0  0  0  0  0  0
  138.1406   79.8665  220.6292 H   0  0  0  0  0  0  0  0  0  0  0  0
  140.3329   79.4411  221.3121 H   0  0  0  0  0  0  0  0  0  0  0  0
  137.9877   76.9222  223.2539 H   0  0  0  0  0  0  0  0  0  0  0  0
  138.8140   74.5060  222.7340 H   0  0  0  0  0  0  0  0  0  0  0  0
  140.8842   73.3975  221.3226 H   0  0  0  0  0  0  0  0  0  0  0  0
  142.8811   73.9889  219.8997 H   0  0  0  0  0  0  0  0  0  0  0  0
  143.4421   76.3886  219.4544 H   0  0  0  0  0  0  0  0  0  0  0  0
  142.0185   78.2255  220.4326 H   0  0  0  0  0  0  0  0  0  0  0  0
  1  2  2  0
  2  3  2  0
  2  4  1  0
  4  5  1  0
  5  6  2  0
  6  7  1  0
  7  8  2  0
  8  9  1  0
  9 10  2  0
  2 11  1  0
 11 12  1  0
 12 13  1  0
 13 14  1  0
 14 15  1  0
 15 16  1  0
 16 17  2  0
 17 18  1  0
 18 19  1  0
 19 20  2  0
 20 21  1  0
 21 22  2  0
 22 23  1  0
 23 24  2  0
 10  5  1  0
 15 11  1  0
 24 16  1  0
 24 19  1  0
  4 25  1  0
  4 26  1  0
  6 27  1  0
  7 28  1  0
  8 29  1  0
  9 30  1  0
 10 31  1  0
 12 32  1  0
 12 33  1  0
 13 34  1  0
 13 35  1  0
 14 36  1  0
 14 37  1  0
 15 38  1  6
 17 39  1  0
 18 40  1  0
 20 41  1  0
 21 42  1  0
 22 43  1  0
 23 44  1  0
M  END
>  <UniqueID>  (15) 
217

>  <SMILES>  (15) 
O=S(=O)(Cc1ccccc1)N1CCC[C@@H]1c1c[nH]c2ccccc12

>  <Energy>  (15) 
73.39914278350481

>  <Genealogy>  (15) 
O=S(=O)(Cc1ccccc1)N1CCC[C@@H]1c1c[nH]c2ccccc12 (chirality)
O=S(=O)(Cc1ccccc1)N1CCC[C@@H]1c1c[nH]c2ccccc12 (3D coordinates assigned)
O=S(=O)(Cc1ccccc1)N1CCC[C@@H]1c1c[nH]c2ccccc12 (nonaromatic ring conformer: 73.39914278350481 kcal/mol)

>  <smiles>  (15) 
O=S(=O)(Cc1ccccc1)N1CCCC1c1c[nH]c2ccccc12

>  <score_type>  (15) 
oracle

>  <origin>  (15) 
autodockgpu

>  <m_score__min__energy>  (15) 
-7.5499999999999998

>  <m_primary>  (15) 
energy

>  <meeko>  (15) 
{"free_energy": -6.56, "intermolecular_energy": -7.75, "internal_energy": -1.81, "cluster_size": 8, "cluster_id": 5, "rank_in_cluster": 3}

>  <energy>  (15) 
-6.53

>  <cluster_rmsd>  (15) 
0.38

>  <rmsd>  (15) 
271.23

>  <cluster>  (15) 
5

$$$$
QHTAHHNEYOTCSC-LJQANCHMNA-N
     RDKit          3D

 44 47  0  0  0  0  0  0  0  0999 V2000
  134.8160   68.4050  224.0810 O   0  0  0  0  0  0  0  0  0  0  0  0
  135.9080   69.4150  224.2970 S   0  0  0  0  0  0  0  0  0  0  0  0
  136.0750   69.6330  225.7770 O   0  0  0  0  0  0  0  0  0  0  0  0
  135.3930   70.9420  223.5270 C   0  0  0  0  0  0  0  0  0  0  0  0
  134.7230   71.8470  224.5210 C   0  0  0  0  0  0  0  0  0  0  0  0
  133.7920   71.3280  225.4370 C   0  0  0  0  0  0  0  0  0  0  0  0
  133.1990   72.1630  226.3870 C   0  0  0  0  0  0  0  0  0  0  0  0
  133.5310   73.5210  226.4320 C   0  0  0  0  0  0  0  0  0  0  0  0
  134.4600   74.0440  225.5280 C   0  0  0  0  0  0  0  0  0  0  0  0
  135.0570   73.2120  224.5770 C   0  0  0  0  0  0  0  0  0  0  0  0
  137.4000   68.8530  223.5630 N   0  0  0  0  0  0  0  0  0  0  0  0
  137.3590   68.9040  222.1010 C   0  0  0  0  0  0  0  0  0  0  0  0
  138.8020   68.9660  221.6400 C   0  0  0  0  0  0  0  0  0  0  0  0
  139.5560   69.6000  222.7960 C   0  0  0  0  0  0  0  0  0  0  0  0
  138.5470   69.6830  223.9460 C   0  0  2  0  0  0  0  0  0  0  0  0
  139.1480   69.1890  225.2360 C   0  0  0  0  0  0  0  0  0  0  0  0
  139.2140   67.8680  225.6780 C   0  0  0  0  0  0  0  0  0  0  0  0
  139.8890   67.7950  226.8470 N   0  0  0  0  0  0  0  0  0  0  0  0
  140.2640   69.0530  227.1390 C   0  0  0  0  0  0  0  0  0  0  0  0
  141.0040   69.4780  228.2410 C   0  0  0  0  0  0  0  0  0  0  0  0
  141.3060   70.8490  228.3410 C   0  0  0  0  0  0  0  0  0  0  0  0
  140.8700   71.7520  227.3450 C   0  0  0  0  0  0  0  0  0  0  0  0
  140.1260   71.2930  226.2430 C   0  0  0  0  0  0  0  0  0  0  0  0
  139.8370   69.9300  226.1760 C   0  0  0  0  0  0  0  0  0  0  0  0
  136.2757   71.4522  223.1140 H   0  0  0  0  0  0  0  0  0  0  0  0
  134.6748   70.7066  222.7278 H   0  0  0  0  0  0  0  0  0  0  0  0
  133.5293   70.2603  225.4057 H   0  0  0  0  0  0  0  0  0  0  0  0
  132.4699   71.7519  227.1007 H   0  0  0  0  0  0  0  0  0  0  0  0
  133.0609   74.1775  227.1790 H   0  0  0  0  0  0  0  0  0  0  0  0
  134.7215   75.1118  225.5652 H   0  0  0  0  0  0  0  0  0  0  0  0
  135.7907   73.6262  223.8698 H   0  0  0  0  0  0  0  0  0  0  0  0
  136.8693   68.0037  221.7015 H   0  0  0  0  0  0  0  0  0  0  0  0
  136.7867   69.7737  221.7459 H   0  0  0  0  0  0  0  0  0  0  0  0
  139.1863   67.9559  221.4351 H   0  0  0  0  0  0  0  0  0  0  0  0
  138.9143   69.5402  220.7085 H   0  0  0  0  0  0  0  0  0  0  0  0
  140.4154   68.9761  223.0828 H   0  0  0  0  0  0  0  0  0  0  0  0
  139.9538   70.5904  222.5297 H   0  0  0  0  0  0  0  0  0  0  0  0
  138.2438   70.7265  224.1170 H   0  0  0  0  0  0  0  0  0  0  0  0
  138.7783   67.0070  225.1500 H   0  0  0  0  0  0  0  0  0  0  0  0
  140.0900   66.9320  227.4000 H   0  0  0  0  0  0  0  0  0  0  0  0
  141.3411   68.7649  229.0078 H   0  0  0  0  0  0  0  0  0  0  0  0
  141.8849   71.2200  229.1996 H   0  0  0  0  0  0  0  0  0  0  0  0
  141.1141   72.8210  227.4322 H   0  0  0  0  0  0  0  0  0  0  0  0
  139.7835   71.9858  225.4602 H   0  0  0  0  0  0  0  0  0  0  0  0
  1  2  2  0
  2  3  2  0
  2  4  1  0
  4  5  1  0
  5  6  2  0
  6  7  1  0
  7  8  2  0
  8  9  1  0
  9 10  2  0
  2 11  1  0
 11 12  1  0
 12 13  1  0
 13 14  1  0
 14 15  1  0
 15 16  1  0
 16 17  2  0
 17 18  1  0
 18 19  1  0
 19 20  2  0
 20 21  1  0
 21 22  2  0
 22 23  1  0
 23 24  2  0
 10  5  1  0
 15 11  1  0
 24 16  1  0
 24 19  1  0
  4 25  1  0
  4 26  1  0
  6 27  1  0
  7 28  1  0
  8 29  1  0
  9 30  1  0
 10 31  1  0
 12 32  1  0
 12 33  1  0
 13 34  1  0
 13 35  1  0
 14 36  1  0
 14 37  1  0
 15 38  1  1
 17 39  1  0
 18 40  1  0
 20 41  1  0
 21 42  1  0
 22 43  1  0
 23 44  1  0
M  END
>  <UniqueID>  (16) 
217

>  <SMILES>  (16) 
O=S(=O)(Cc1ccccc1)N1CCC[C@@H]1c1c[nH]c2ccccc12

>  <Energy>  (16) 
73.39914278350481

>  <Genealogy>  (16) 
O=S(=O)(Cc1ccccc1)N1CCC[C@@H]1c1c[nH]c2ccccc12 (chirality)
O=S(=O)(Cc1ccccc1)N1CCC[C@@H]1c1c[nH]c2ccccc12 (3D coordinates assigned)
O=S(=O)(Cc1ccccc1)N1CCC[C@@H]1c1c[nH]c2ccccc12 (nonaromatic ring conformer: 73.39914278350481 kcal/mol)

>  <smiles>  (16) 
O=S(=O)(Cc1ccccc1)N1CCCC1c1c[nH]c2ccccc12

>  <score_type>  (16) 
oracle

>  <origin>  (16) 
autodockgpu

>  <m_score__min__energy>  (16) 
-7.5499999999999998

>  <m_primary>  (16) 
energy

>  <meeko>  (16) 
{"free_energy": -7.52, "intermolecular_energy": -8.72, "internal_energy": -1.28, "cluster_size": 2, "cluster_id": 2, "rank_in_cluster": 1}

>  <energy>  (16) 
-6.52

>  <cluster_rmsd>  (16) 
0.37

>  <rmsd>  (16) 
271.24

>  <cluster>  (16) 
5

$$$$
QHTAHHNEYOTCSC-LJQANCHMNA-N
     RDKit          3D

 44 47  0  0  0  0  0  0  0  0999 V2000
  141.4920   81.1970  224.2170 O   0  0  0  0  0  0  0  0  0  0  0  0
  141.3770   79.8240  223.6160 S   0  0  0  0  0  0  0  0  0  0  0  0
  141.9150   78.8210  224.6010 O   0  0  0  0  0  0  0  0  0  0  0  0
  142.3750   79.7960  222.1350 C   0  0  0  0  0  0  0  0  0  0  0  0
  141.8930   80.8120  221.1410 C   0  0  0  0  0  0  0  0  0  0  0  0
  141.8320   80.4930  219.7740 C   0  0  0  0  0  0  0  0  0  0  0  0
  141.3450   81.4260  218.8540 C   0  0  0  0  0  0  0  0  0  0  0  0
  140.9140   82.6820  219.2920 C   0  0  0  0  0  0  0  0  0  0  0  0
  140.9650   83.0050  220.6510 C   0  0  0  0  0  0  0  0  0  0  0  0
  141.4500   82.0740  221.5740 C   0  0  0  0  0  0  0  0  0  0  0  0
  139.7040   79.4840  223.2110 N   0  0  0  0  0  0  0  0  0  0  0  0
  138.8780   80.6930  223.1790 C   0  0  0  0  0  0  0  0  0  0  0  0
  137.6910   80.3700  222.2940 C   0  0  0  0  0  0  0  0  0  0  0  0
  138.1860   79.2850  221.3530 C   0  0  0  0  0  0  0  0  0  0  0  0
  139.5710   78.8910  221.8760 C   0  0  2  0  0  0  0  0  0  0  0  0
  139.7220   77.3940  221.9480 C   0  0  0  0  0  0  0  0  0  0  0  0
  138.8620   76.4940  222.5760 C   0  0  0  0  0  0  0  0  0  0  0  0
  139.2760   75.2240  222.3710 N   0  0  0  0  0  0  0  0  0  0  0  0
  140.3800   75.3110  221.6070 C   0  0  0  0  0  0  0  0  0  0  0  0
  141.1530   74.2600  221.1180 C   0  0  0  0  0  0  0  0  0  0  0  0
  142.2620   74.5790  220.3130 C   0  0  0  0  0  0  0  0  0  0  0  0
  142.5660   75.9260  220.0150 C   0  0  0  0  0  0  0  0  0  0  0  0
  141.7670   76.9660  220.5210 C   0  0  0  0  0  0  0  0  0  0  0  0
  140.6780   76.6190  221.3220 C   0  0  0  0  0  0  0  0  0  0  0  0
  143.4187   80.0198  222.4005 H   0  0  0  0  0  0  0  0  0  0  0  0
  142.2982   78.7974  221.6800 H   0  0  0  0  0  0  0  0  0  0  0  0
  142.1688   79.5052  219.4264 H   0  0  0  0  0  0  0  0  0  0  0  0
  141.3008   81.1719  217.7847 H   0  0  0  0  0  0  0  0  0  0  0  0
  140.5345   83.4165  218.5665 H   0  0  0  0  0  0  0  0  0  0  0  0
  140.6232   83.9926  220.9944 H   0  0  0  0  0  0  0  0  0  0  0  0
  141.4852   82.3298  222.6433 H   0  0  0  0  0  0  0  0  0  0  0  0
  138.5388   80.9501  224.1933 H   0  0  0  0  0  0  0  0  0  0  0  0
  139.4429   81.5546  222.7937 H   0  0  0  0  0  0  0  0  0  0  0  0
  136.8474   80.0033  222.8972 H   0  0  0  0  0  0  0  0  0  0  0  0
  137.3282   81.2547  221.7502 H   0  0  0  0  0  0  0  0  0  0  0  0
  137.5071   78.4198  221.3727 H   0  0  0  0  0  0  0  0  0  0  0  0
  138.2275   79.6358  220.3112 H   0  0  0  0  0  0  0  0  0  0  0  0
  140.3558   79.2567  221.1975 H   0  0  0  0  0  0  0  0  0  0  0  0
  137.9718   76.7777  223.1566 H   0  0  0  0  0  0  0  0  0  0  0  0
  138.8210   74.3530  222.7230 H   0  0  0  0  0  0  0  0  0  0  0  0
  140.9043   73.2147  221.3536 H   0  0  0  0  0  0  0  0  0  0  0  0
  142.8964   73.7743  219.9131 H   0  0  0  0  0  0  0  0  0  0  0  0
  143.4342   76.1628  219.3824 H   0  0  0  0  0  0  0  0  0  0  0  0
  141.9925   78.0183  220.2932 H   0  0  0  0  0  0  0  0  0  0  0  0
  1  2  2  0
  2  3  2  0
  2  4  1  0
  4  5  1  0
  5  6  2  0
  6  7  1  0
  7  8  2  0
  8  9  1  0
  9 10  2  0
  2 11  1  0
 11 12  1  0
 12 13  1  0
 13 14  1  0
 14 15  1  0
 15 16  1  0
 16 17  2  0
 17 18  1  0
 18 19  1  0
 19 20  2  0
 20 21  1  0
 21 22  2  0
 22 23  1  0
 23 24  2  0
 10  5  1  0
 15 11  1  0
 24 16  1  0
 24 19  1  0
  4 25  1  0
  4 26  1  0
  6 27  1  0
  7 28  1  0
  8 29  1  0
  9 30  1  0
 10 31  1  0
 12 32  1  0
 12 33  1  0
 13 34  1  0
 13 35  1  0
 14 36  1  0
 14 37  1  0
 15 38  1  6
 17 39  1  0
 18 40  1  0
 20 41  1  0
 21 42  1  0
 22 43  1  0
 23 44  1  0
M  END
>  <UniqueID>  (17) 
217

>  <SMILES>  (17) 
O=S(=O)(Cc1ccccc1)N1CCC[C@@H]1c1c[nH]c2ccccc12

>  <Energy>  (17) 
73.39914278350481

>  <Genealogy>  (17) 
O=S(=O)(Cc1ccccc1)N1CCC[C@@H]1c1c[nH]c2ccccc12 (chirality)
O=S(=O)(Cc1ccccc1)N1CCC[C@@H]1c1c[nH]c2ccccc12 (3D coordinates assigned)
O=S(=O)(Cc1ccccc1)N1CCC[C@@H]1c1c[nH]c2ccccc12 (nonaromatic ring conformer: 73.39914278350481 kcal/mol)

>  <smiles>  (17) 
O=S(=O)(Cc1ccccc1)N1CCCC1c1c[nH]c2ccccc12

>  <score_type>  (17) 
oracle

>  <origin>  (17) 
autodockgpu

>  <m_score__min__energy>  (17) 
-7.5499999999999998

>  <m_primary>  (17) 
energy

>  <meeko>  (17) 
{"free_energy": -6.53, "intermolecular_energy": -7.72, "internal_energy": -1.84, "cluster_size": 8, "cluster_id": 5, "rank_in_cluster": 5}

>  <energy>  (17) 
-6.52

>  <cluster_rmsd>  (17) 
0.4

>  <rmsd>  (17) 
271.22

>  <cluster>  (17) 
5

$$$$
QHTAHHNEYOTCSC-LJQANCHMNA-N
     RDKit          3D

 44 47  0  0  0  0  0  0  0  0999 V2000
  141.8570   78.2820  223.8490 O   0  0  0  0  0  0  0  0  0  0  0  0
  142.0580   79.4970  222.9860 S   0  0  0  0  0  0  0  0  0  0  0  0
  143.5350   79.7390  222.8350 O   0  0  0  0  0  0  0  0  0  0  0  0
  141.3120   80.8860  223.8250 C   0  0  0  0  0  0  0  0  0  0  0  0
  139.8720   81.0450  223.4280 C   0  0  0  0  0  0  0  0  0  0  0  0
  138.8530   80.4920  224.2220 C   0  0  0  0  0  0  0  0  0  0  0  0
  137.5110   80.6750  223.8730 C   0  0  0  0  0  0  0  0  0  0  0  0
  137.1790   81.4120  222.7320 C   0  0  0  0  0  0  0  0  0  0  0  0
  138.1870   81.9700  221.9410 C   0  0  0  0  0  0  0  0  0  0  0  0
  139.5290   81.7910  222.2870 C   0  0  0  0  0  0  0  0  0  0  0  0
  141.2880   79.2610  221.4270 N   0  0  0  0  0  0  0  0  0  0  0  0
  141.8300   80.1450  220.3940 C   0  0  0  0  0  0  0  0  0  0  0  0
  141.5340   79.4740  219.0670 C   0  0  0  0  0  0  0  0  0  0  0  0
  141.4440   77.9920  219.3880 C   0  0  0  0  0  0  0  0  0  0  0  0
  141.4890   77.9010  220.9160 C   0  0  2  0  0  0  0  0  0  0  0  0
  140.4190   76.9780  221.4390 C   0  0  0  0  0  0  0  0  0  0  0  0
  140.5970   75.6940  221.9520 C   0  0  0  0  0  0  0  0  0  0  0  0
  139.4220   75.1950  222.3950 N   0  0  0  0  0  0  0  0  0  0  0  0
  138.5060   76.1570  222.1830 C   0  0  0  0  0  0  0  0  0  0  0  0
  137.1490   76.1150  222.4970 C   0  0  0  0  0  0  0  0  0  0  0  0
  136.3710   77.2500  222.2070 C   0  0  0  0  0  0  0  0  0  0  0  0
  136.9610   78.3920  221.6200 C   0  0  0  0  0  0  0  0  0  0  0  0
  138.3350   78.4070  221.3150 C   0  0  0  0  0  0  0  0  0  0  0  0
  139.0780   77.2630  221.6090 C   0  0  0  0  0  0  0  0  0  0  0  0
  141.3697   80.7232  224.9114 H   0  0  0  0  0  0  0  0  0  0  0  0
  141.8561   81.7993  223.5425 H   0  0  0  0  0  0  0  0  0  0  0  0
  139.1116   79.9133  225.1210 H   0  0  0  0  0  0  0  0  0  0  0  0
  136.7164   80.2390  224.4963 H   0  0  0  0  0  0  0  0  0  0  0  0
  136.1233   81.5527  222.4567 H   0  0  0  0  0  0  0  0  0  0  0  0
  137.9236   82.5509  221.0448 H   0  0  0  0  0  0  0  0  0  0  0  0
  140.3196   82.2353  221.6645 H   0  0  0  0  0  0  0  0  0  0  0  0
  141.3426   81.1300  220.4406 H   0  0  0  0  0  0  0  0  0  0  0  0
  142.9095   80.3067  220.5300 H   0  0  0  0  0  0  0  0  0  0  0  0
  140.5823   79.8385  218.6531 H   0  0  0  0  0  0  0  0  0  0  0  0
  142.3070   79.6878  218.3141 H   0  0  0  0  0  0  0  0  0  0  0  0
  140.5019   77.5723  219.0054 H   0  0  0  0  0  0  0  0  0  0  0  0
  142.2613   77.4229  218.9210 H   0  0  0  0  0  0  0  0  0  0  0  0
  142.4534   77.4894  221.2486 H   0  0  0  0  0  0  0  0  0  0  0  0
  141.5589   75.1618  221.9907 H   0  0  0  0  0  0  0  0  0  0  0  0
  139.2630   74.2580  222.8280 H   0  0  0  0  0  0  0  0  0  0  0  0
  136.7005   75.2222  222.9572 H   0  0  0  0  0  0  0  0  0  0  0  0
  135.2957   77.2488  222.4387 H   0  0  0  0  0  0  0  0  0  0  0  0
  136.3426   79.2747  221.4000 H   0  0  0  0  0  0  0  0  0  0  0  0
  138.8070   79.2905  220.8604 H   0  0  0  0  0  0  0  0  0  0  0  0
  1  2  2  0
  2  3  2  0
  2  4  1  0
  4  5  1  0
  5  6  2  0
  6  7  1  0
  7  8  2  0
  8  9  1  0
  9 10  2  0
  2 11  1  0
 11 12  1  0
 12 13  1  0
 13 14  1  0
 14 15  1  0
 15 16  1  0
 16 17  2  0
 17 18  1  0
 18 19  1  0
 19 20  2  0
 20 21  1  0
 21 22  2  0
 22 23  1  0
 23 24  2  0
 10  5  1  0
 15 11  1  0
 24 16  1  0
 24 19  1  0
  4 25  1  0
  4 26  1  0
  6 27  1  0
  7 28  1  0
  8 29  1  0
  9 30  1  0
 10 31  1  0
 12 32  1  0
 12 33  1  0
 13 34  1  0
 13 35  1  0
 14 36  1  0
 14 37  1  0
 15 38  1  6
 17 39  1  0
 18 40  1  0
 20 41  1  0
 21 42  1  0
 22 43  1  0
 23 44  1  0
M  END
>  <UniqueID>  (18) 
217

>  <SMILES>  (18) 
O=S(=O)(Cc1ccccc1)N1CCC[C@@H]1c1c[nH]c2ccccc12

>  <Energy>  (18) 
73.39914278350481

>  <Genealogy>  (18) 
O=S(=O)(Cc1ccccc1)N1CCC[C@@H]1c1c[nH]c2ccccc12 (chirality)
O=S(=O)(Cc1ccccc1)N1CCC[C@@H]1c1c[nH]c2ccccc12 (3D coordinates assigned)
O=S(=O)(Cc1ccccc1)N1CCC[C@@H]1c1c[nH]c2ccccc12 (nonaromatic ring conformer: 73.39914278350481 kcal/mol)

>  <smiles>  (18) 
O=S(=O)(Cc1ccccc1)N1CCCC1c1c[nH]c2ccccc12

>  <score_type>  (18) 
oracle

>  <origin>  (18) 
autodockgpu

>  <m_score__min__energy>  (18) 
-7.5499999999999998

>  <m_primary>  (18) 
energy

>  <meeko>  (18) 
{"free_energy": -5.97, "intermolecular_energy": -7.17, "internal_energy": -2.24, "cluster_size": 3, "cluster_id": 6, "rank_in_cluster": 1}

>  <energy>  (18) 
-5.97

>  <cluster_rmsd>  (18) 
0.0

>  <rmsd>  (18) 
271.21

>  <cluster>  (18) 
6

$$$$
QHTAHHNEYOTCSC-LJQANCHMNA-N
     RDKit          3D

 44 47  0  0  0  0  0  0  0  0999 V2000
  141.8480   78.2730  223.8380 O   0  0  0  0  0  0  0  0  0  0  0  0
  142.0500   79.4910  222.9790 S   0  0  0  0  0  0  0  0  0  0  0  0
  143.5270   79.7390  222.8390 O   0  0  0  0  0  0  0  0  0  0  0  0
  141.2920   80.8740  223.8170 C   0  0  0  0  0  0  0  0  0  0  0  0
  139.8460   81.0090  223.4350 C   0  0  0  0  0  0  0  0  0  0  0  0
  138.8470   80.4100  224.2210 C   0  0  0  0  0  0  0  0  0  0  0  0
  137.4990   80.5690  223.8870 C   0  0  0  0  0  0  0  0  0  0  0  0
  137.1390   81.3280  222.7690 C   0  0  0  0  0  0  0  0  0  0  0  0
  138.1270   81.9320  221.9860 C   0  0  0  0  0  0  0  0  0  0  0  0
  139.4760   81.7760  222.3170 C   0  0  0  0  0  0  0  0  0  0  0  0
  141.2910   79.2550  221.4150 N   0  0  0  0  0  0  0  0  0  0  0  0
  141.8430   80.1370  220.3850 C   0  0  0  0  0  0  0  0  0  0  0  0
  141.5560   79.4660  219.0560 C   0  0  0  0  0  0  0  0  0  0  0  0
  141.4610   77.9840  219.3770 C   0  0  0  0  0  0  0  0  0  0  0  0
  141.4930   77.8940  220.9060 C   0  0  2  0  0  0  0  0  0  0  0  0
  140.4180   76.9740  221.4210 C   0  0  0  0  0  0  0  0  0  0  0  0
  140.5910   75.6980  221.9560 C   0  0  0  0  0  0  0  0  0  0  0  0
  139.4090   75.2010  222.3830 N   0  0  0  0  0  0  0  0  0  0  0  0
  138.4940   76.1550  222.1390 C   0  0  0  0  0  0  0  0  0  0  0  0
  137.1310   76.1110  222.4270 C   0  0  0  0  0  0  0  0  0  0  0  0
  136.3530   77.2390  222.1050 C   0  0  0  0  0  0  0  0  0  0  0  0
  136.9510   78.3740  221.5130 C   0  0  0  0  0  0  0  0  0  0  0  0
  138.3300   78.3910  221.2350 C   0  0  0  0  0  0  0  0  0  0  0  0
  139.0720   77.2560  221.5600 C   0  0  0  0  0  0  0  0  0  0  0  0
  141.3639   80.7192  224.9037 H   0  0  0  0  0  0  0  0  0  0  0  0
  141.8192   81.7934  223.5225 H   0  0  0  0  0  0  0  0  0  0  0  0
  139.1267   79.8139  225.1022 H   0  0  0  0  0  0  0  0  0  0  0  0
  136.7206   80.0966  224.5042 H   0  0  0  0  0  0  0  0  0  0  0  0
  136.0780   81.4498  222.5056 H   0  0  0  0  0  0  0  0  0  0  0  0
  137.8425   82.5308  221.1082 H   0  0  0  0  0  0  0  0  0  0  0  0
  140.2507   82.2552  221.7003 H   0  0  0  0  0  0  0  0  0  0  0  0
  141.3575   81.1231  220.4271 H   0  0  0  0  0  0  0  0  0  0  0  0
  142.9219   80.2960  220.5293 H   0  0  0  0  0  0  0  0  0  0  0  0
  140.6081   79.8320  218.6347 H   0  0  0  0  0  0  0  0  0  0  0  0
  142.3350   79.6781  218.3089 H   0  0  0  0  0  0  0  0  0  0  0  0
  140.5215   77.5655  218.9868 H   0  0  0  0  0  0  0  0  0  0  0  0
  142.2812   77.4133  218.9172 H   0  0  0  0  0  0  0  0  0  0  0  0
  142.4538   77.4805  221.2464 H   0  0  0  0  0  0  0  0  0  0  0  0
  141.5539   75.1702  222.0213 H   0  0  0  0  0  0  0  0  0  0  0  0
  139.2460   74.2690  222.8260 H   0  0  0  0  0  0  0  0  0  0  0  0
  136.6776   75.2228  222.8913 H   0  0  0  0  0  0  0  0  0  0  0  0
  135.2733   77.2368  222.3154 H   0  0  0  0  0  0  0  0  0  0  0  0
  136.3338   79.2508  221.2677 H   0  0  0  0  0  0  0  0  0  0  0  0
  138.8068   79.2700  220.7767 H   0  0  0  0  0  0  0  0  0  0  0  0
  1  2  2  0
  2  3  2  0
  2  4  1  0
  4  5  1  0
  5  6  2  0
  6  7  1  0
  7  8  2  0
  8  9  1  0
  9 10  2  0
  2 11  1  0
 11 12  1  0
 12 13  1  0
 13 14  1  0
 14 15  1  0
 15 16  1  0
 16 17  2  0
 17 18  1  0
 18 19  1  0
 19 20  2  0
 20 21  1  0
 21 22  2  0
 22 23  1  0
 23 24  2  0
 10  5  1  0
 15 11  1  0
 24 16  1  0
 24 19  1  0
  4 25  1  0
  4 26  1  0
  6 27  1  0
  7 28  1  0
  8 29  1  0
  9 30  1  0
 10 31  1  0
 12 32  1  0
 12 33  1  0
 13 34  1  0
 13 35  1  0
 14 36  1  0
 14 37  1  0
 15 38  1  6
 17 39  1  0
 18 40  1  0
 20 41  1  0
 21 42  1  0
 22 43  1  0
 23 44  1  0
M  END
>  <UniqueID>  (19) 
217

>  <SMILES>  (19) 
O=S(=O)(Cc1ccccc1)N1CCC[C@@H]1c1c[nH]c2ccccc12

>  <Energy>  (19) 
73.39914278350481

>  <Genealogy>  (19) 
O=S(=O)(Cc1ccccc1)N1CCC[C@@H]1c1c[nH]c2ccccc12 (chirality)
O=S(=O)(Cc1ccccc1)N1CCC[C@@H]1c1c[nH]c2ccccc12 (3D coordinates assigned)
O=S(=O)(Cc1ccccc1)N1CCC[C@@H]1c1c[nH]c2ccccc12 (nonaromatic ring conformer: 73.39914278350481 kcal/mol)

>  <smiles>  (19) 
O=S(=O)(Cc1ccccc1)N1CCCC1c1c[nH]c2ccccc12

>  <score_type>  (19) 
oracle

>  <origin>  (19) 
autodockgpu

>  <m_score__min__energy>  (19) 
-7.5499999999999998

>  <m_primary>  (19) 
energy

>  <meeko>  (19) 
{"free_energy": -5.96, "intermolecular_energy": -7.15, "internal_energy": -2.26, "cluster_size": 3, "cluster_id": 6, "rank_in_cluster": 3}

>  <energy>  (19) 
-5.97

>  <cluster_rmsd>  (19) 
0.04

>  <rmsd>  (19) 
271.18

>  <cluster>  (19) 
6

$$$$
QHTAHHNEYOTCSC-LJQANCHMNA-N
     RDKit          3D

 44 47  0  0  0  0  0  0  0  0999 V2000
  141.4370   81.0310  224.2160 O   0  0  0  0  0  0  0  0  0  0  0  0
  141.3390   79.6520  223.6270 S   0  0  0  0  0  0  0  0  0  0  0  0
  141.8320   78.6590  224.6440 O   0  0  0  0  0  0  0  0  0  0  0  0
  142.3960   79.6010  222.1880 C   0  0  0  0  0  0  0  0  0  0  0  0
  141.9360   80.5810  221.1470 C   0  0  0  0  0  0  0  0  0  0  0  0
  141.9050   80.2130  219.7920 C   0  0  0  0  0  0  0  0  0  0  0  0
  141.4390   81.1120  218.8280 C   0  0  0  0  0  0  0  0  0  0  0  0
  140.9980   82.3830  219.2110 C   0  0  0  0  0  0  0  0  0  0  0  0
  141.0200   82.7540  220.5580 C   0  0  0  0  0  0  0  0  0  0  0  0
  141.4840   81.8580  221.5250 C   0  0  0  0  0  0  0  0  0  0  0  0
  139.6820   79.3150  223.1590 N   0  0  0  0  0  0  0  0  0  0  0  0
  138.8610   80.5260  223.0900 C   0  0  0  0  0  0  0  0  0  0  0  0
  137.7080   80.2030  222.1610 C   0  0  0  0  0  0  0  0  0  0  0  0
  138.2370   79.1120  221.2440 C   0  0  0  0  0  0  0  0  0  0  0  0
  139.5990   78.7160  221.8230 C   0  0  2  0  0  0  0  0  0  0  0  0
  139.7420   77.2190  221.9070 C   0  0  0  0  0  0  0  0  0  0  0  0
  138.8760   76.3280  222.5390 C   0  0  0  0  0  0  0  0  0  0  0  0
  139.2850   75.0550  222.3450 N   0  0  0  0  0  0  0  0  0  0  0  0
  140.3910   75.1310  221.5840 C   0  0  0  0  0  0  0  0  0  0  0  0
  141.1610   74.0720  221.1050 C   0  0  0  0  0  0  0  0  0  0  0  0
  142.2730   74.3790  220.3000 C   0  0  0  0  0  0  0  0  0  0  0  0
  142.5850   75.7230  219.9930 C   0  0  0  0  0  0  0  0  0  0  0  0
  141.7890   76.7710  220.4890 C   0  0  0  0  0  0  0  0  0  0  0  0
  140.6970   76.4350  221.2890 C   0  0  0  0  0  0  0  0  0  0  0  0
  143.4243   79.8511  222.4880 H   0  0  0  0  0  0  0  0  0  0  0  0
  142.3550   78.5890  221.7589 H   0  0  0  0  0  0  0  0  0  0  0  0
  142.2488   79.2133  219.4879 H   0  0  0  0  0  0  0  0  0  0  0  0
  141.4191   80.8196  217.7678 H   0  0  0  0  0  0  0  0  0  0  0  0
  140.6338   83.0906  218.4516 H   0  0  0  0  0  0  0  0  0  0  0  0
  140.6714   83.7533  220.8579 H   0  0  0  0  0  0  0  0  0  0  0  0
  141.4957   82.1524  222.5848 H   0  0  0  0  0  0  0  0  0  0  0  0
  138.4835   80.7882  224.0894 H   0  0  0  0  0  0  0  0  0  0  0  0
  139.4429   81.3843  222.7231 H   0  0  0  0  0  0  0  0  0  0  0  0
  136.8405   79.8411  222.7324 H   0  0  0  0  0  0  0  0  0  0  0  0
  137.3687   81.0863  221.6001 H   0  0  0  0  0  0  0  0  0  0  0  0
  137.5552   78.2488  221.2402 H   0  0  0  0  0  0  0  0  0  0  0  0
  138.3209   79.4585  220.2034 H   0  0  0  0  0  0  0  0  0  0  0  0
  140.4112   79.0761  221.1745 H   0  0  0  0  0  0  0  0  0  0  0  0
  137.9853   76.6202  223.1145 H   0  0  0  0  0  0  0  0  0  0  0  0
  138.8250   74.1880  222.7030 H   0  0  0  0  0  0  0  0  0  0  0  0
  140.9071   73.0298  221.3487 H   0  0  0  0  0  0  0  0  0  0  0  0
  142.9037   73.5680  219.9070 H   0  0  0  0  0  0  0  0  0  0  0  0
  143.4565   75.9508  219.3617 H   0  0  0  0  0  0  0  0  0  0  0  0
  142.0199   77.8205  220.2539 H   0  0  0  0  0  0  0  0  0  0  0  0
  1  2  2  0
  2  3  2  0
  2  4  1  0
  4  5  1  0
  5  6  2  0
  6  7  1  0
  7  8  2  0
  8  9  1  0
  9 10  2  0
  2 11  1  0
 11 12  1  0
 12 13  1  0
 13 14  1  0
 14 15  1  0
 15 16  1  0
 16 17  2  0
 17 18  1  0
 18 19  1  0
 19 20  2  0
 20 21  1  0
 21 22  2  0
 22 23  1  0
 23 24  2  0
 10  5  1  0
 15 11  1  0
 24 16  1  0
 24 19  1  0
  4 25  1  0
  4 26  1  0
  6 27  1  0
  7 28  1  0
  8 29  1  0
  9 30  1  0
 10 31  1  0
 12 32  1  0
 12 33  1  0
 13 34  1  0
 13 35  1  0
 14 36  1  0
 14 37  1  0
 15 38  1  6
 17 39  1  0
 18 40  1  0
 20 41  1  0
 21 42  1  0
 22 43  1  0
 23 44  1  0
M  END
>  <UniqueID>  (20) 
217

>  <SMILES>  (20) 
O=S(=O)(Cc1ccccc1)N1CCC[C@@H]1c1c[nH]c2ccccc12

>  <Energy>  (20) 
73.39914278350481

>  <Genealogy>  (20) 
O=S(=O)(Cc1ccccc1)N1CCC[C@@H]1c1c[nH]c2ccccc12 (chirality)
O=S(=O)(Cc1ccccc1)N1CCC[C@@H]1c1c[nH]c2ccccc12 (3D coordinates assigned)
O=S(=O)(Cc1ccccc1)N1CCC[C@@H]1c1c[nH]c2ccccc12 (nonaromatic ring conformer: 73.39914278350481 kcal/mol)

>  <smiles>  (20) 
O=S(=O)(Cc1ccccc1)N1CCCC1c1c[nH]c2ccccc12

>  <score_type>  (20) 
oracle

>  <origin>  (20) 
autodockgpu

>  <m_score__min__energy>  (20) 
-7.5499999999999998

>  <m_primary>  (20) 
energy

>  <meeko>  (20) 
{"free_energy": -6.52, "intermolecular_energy": -7.71, "internal_energy": -1.86, "cluster_size": 8, "cluster_id": 5, "rank_in_cluster": 8}

>  <energy>  (20) 
-5.96

>  <cluster_rmsd>  (20) 
0.06

>  <rmsd>  (20) 
271.18

>  <cluster>  (20) 
6

$$$$
QHTAHHNEYOTCSC-IBGZPJMENA-N
     RDKit          3D

 44 47  0  0  0  0  0  0  0  0999 V2000
  142.4520   81.3640  224.1610 O   0  0  0  0  0  0  0  0  0  0  0  0
  142.5670   80.4340  222.9880 S   0  0  0  0  0  0  0  0  0  0  0  0
  144.0240   80.1310  222.7720 O   0  0  0  0  0  0  0  0  0  0  0  0
  141.7170   78.9090  223.4230 C   0  0  0  0  0  0  0  0  0  0  0  0
  140.2210   79.0440  223.3350 C   0  0  0  0  0  0  0  0  0  0  0  0
  139.4570   78.0410  222.7150 C   0  0  0  0  0  0  0  0  0  0  0  0
  138.0720   78.1860  222.5890 C   0  0  0  0  0  0  0  0  0  0  0  0
  137.4400   79.3290  223.0840 C   0  0  0  0  0  0  0  0  0  0  0  0
  138.1900   80.3270  223.7110 C   0  0  0  0  0  0  0  0  0  0  0  0
  139.5750   80.1860  223.8400 C   0  0  0  0  0  0  0  0  0  0  0  0
  141.9430   81.2640  221.5760 N   0  0  0  0  0  0  0  0  0  0  0  0
  141.2820   82.5240  221.9060 C   0  0  0  0  0  0  0  0  0  0  0  0
  140.2780   82.7870  220.8010 C   0  0  0  0  0  0  0  0  0  0  0  0
  139.9210   81.4160  220.2570 C   0  0  0  0  0  0  0  0  0  0  0  0
  140.9890   80.4610  220.8030 C   0  0  1  0  0  0  0  0  0  0  0  0
  141.7020   79.7270  219.6990 C   0  0  0  0  0  0  0  0  0  0  0  0
  142.2390   80.3020  218.5500 C   0  0  0  0  0  0  0  0  0  0  0  0
  142.8380   79.3620  217.7850 N   0  0  0  0  0  0  0  0  0  0  0  0
  142.6920   78.1990  218.4420 C   0  0  0  0  0  0  0  0  0  0  0  0
  143.1550   76.9450  218.0470 C   0  0  0  0  0  0  0  0  0  0  0  0
  142.8990   75.8520  218.8950 C   0  0  0  0  0  0  0  0  0  0  0  0
  142.1940   76.0360  220.1050 C   0  0  0  0  0  0  0  0  0  0  0  0
  141.7400   77.3130  220.4780 C   0  0  0  0  0  0  0  0  0  0  0  0
  142.0070   78.3780  219.6180 C   0  0  0  0  0  0  0  0  0  0  0  0
  142.0416   78.1145  222.7350 H   0  0  0  0  0  0  0  0  0  0  0  0
  141.9723   78.6669  224.4652 H   0  0  0  0  0  0  0  0  0  0  0  0
  139.9506   77.1378  222.3270 H   0  0  0  0  0  0  0  0  0  0  0  0
  137.4795   77.3990  222.0995 H   0  0  0  0  0  0  0  0  0  0  0  0
  136.3509   79.4434  222.9801 H   0  0  0  0  0  0  0  0  0  0  0  0
  137.6903   81.2248  224.1037 H   0  0  0  0  0  0  0  0  0  0  0  0
  140.1616   80.9717  224.3386 H   0  0  0  0  0  0  0  0  0  0  0  0
  140.7675   82.4407  222.8747 H   0  0  0  0  0  0  0  0  0  0  0  0
  142.0094   83.3453  221.9857 H   0  0  0  0  0  0  0  0  0  0  0  0
  139.3846   83.2880  221.2021 H   0  0  0  0  0  0  0  0  0  0  0  0
  140.6866   83.4464  220.0211 H   0  0  0  0  0  0  0  0  0  0  0  0
  138.9223   81.1136  220.6050 H   0  0  0  0  0  0  0  0  0  0  0  0
  139.8955   81.4100  219.1573 H   0  0  0  0  0  0  0  0  0  0  0  0
  140.5105   79.6967  221.4330 H   0  0  0  0  0  0  0  0  0  0  0  0
  142.1835   81.3717  218.2998 H   0  0  0  0  0  0  0  0  0  0  0  0
  143.3210   79.5160  216.8720 H   0  0  0  0  0  0  0  0  0  0  0  0
  143.7031   76.8141  217.1023 H   0  0  0  0  0  0  0  0  0  0  0  0
  143.2500   74.8481  218.6140 H   0  0  0  0  0  0  0  0  0  0  0  0
  141.9989   75.1741  220.7600 H   0  0  0  0  0  0  0  0  0  0  0  0
  141.1913   77.4675  221.4188 H   0  0  0  0  0  0  0  0  0  0  0  0
  1  2  2  0
  2  3  2  0
  2  4  1  0
  4  5  1  0
  5  6  2  0
  6  7  1  0
  7  8  2  0
  8  9  1  0
  9 10  2  0
  2 11  1  0
 11 12  1  0
 12 13  1  0
 13 14  1  0
 14 15  1  0
 15 16  1  0
 16 17  2  0
 17 18  1  0
 18 19  1  0
 19 20  2  0
 20 21  1  0
 21 22  2  0
 22 23  1  0
 23 24  2  0
 10  5  1  0
 15 11  1  0
 24 16  1  0
 24 19  1  0
  4 25  1  0
  4 26  1  0
  6 27  1  0
  7 28  1  0
  8 29  1  0
  9 30  1  0
 10 31  1  0
 12 32  1  0
 12 33  1  0
 13 34  1  0
 13 35  1  0
 14 36  1  0
 14 37  1  0
 15 38  1  1
 17 39  1  0
 18 40  1  0
 20 41  1  0
 21 42  1  0
 22 43  1  0
 23 44  1  0
M  END
>  <UniqueID>  (21) 
218

>  <SMILES>  (21) 
O=S(=O)(Cc1ccccc1)N1CCC[C@H]1c1c[nH]c2ccccc12

>  <Energy>  (21) 
75.0694498518157

>  <Genealogy>  (21) 
O=S(=O)(Cc1ccccc1)N1CCC[C@H]1c1c[nH]c2ccccc12 (chirality)
O=S(=O)(Cc1ccccc1)N1CCC[C@H]1c1c[nH]c2ccccc12 (3D coordinates assigned)
O=S(=O)(Cc1ccccc1)N1CCC[C@H]1c1c[nH]c2ccccc12 (nonaromatic ring conformer: 75.0694498518157 kcal/mol)

>  <smiles>  (21) 
O=S(=O)(Cc1ccccc1)N1CCCC1c1c[nH]c2ccccc12

>  <score_type>  (21) 
oracle

>  <origin>  (21) 
autodockgpu

>  <m_score__min__energy>  (21) 
-7.7699999999999996

>  <m_primary>  (21) 
energy

>  <meeko>  (21) 
{"free_energy": -7.13, "intermolecular_energy": -8.32, "internal_energy": -1.92, "cluster_size": 16, "cluster_id": 2, "rank_in_cluster": 1}

>  <energy>  (21) 
-7.77

>  <cluster_rmsd>  (21) 
0.0

>  <rmsd>  (21) 
271.66

>  <cluster>  (21) 
1

$$$$
QHTAHHNEYOTCSC-IBGZPJMENA-N
     RDKit          3D

 44 47  0  0  0  0  0  0  0  0999 V2000
  142.3270   81.4090  224.1600 O   0  0  0  0  0  0  0  0  0  0  0  0
  142.4700   80.4500  223.0130 S   0  0  0  0  0  0  0  0  0  0  0  0
  143.9310   80.1430  222.8390 O   0  0  0  0  0  0  0  0  0  0  0  0
  141.6100   78.9350  223.4660 C   0  0  0  0  0  0  0  0  0  0  0  0
  140.1150   79.0780  223.3710 C   0  0  0  0  0  0  0  0  0  0  0  0
  139.3480   78.0760  222.7510 C   0  0  0  0  0  0  0  0  0  0  0  0
  137.9650   78.2270  222.6190 C   0  0  0  0  0  0  0  0  0  0  0  0
  137.3360   79.3760  223.1070 C   0  0  0  0  0  0  0  0  0  0  0  0
  138.0890   80.3730  223.7330 C   0  0  0  0  0  0  0  0  0  0  0  0
  139.4720   80.2250  223.8690 C   0  0  0  0  0  0  0  0  0  0  0  0
  141.8800   81.2440  221.5670 N   0  0  0  0  0  0  0  0  0  0  0  0
  141.2210   82.5180  221.8500 C   0  0  0  0  0  0  0  0  0  0  0  0
  140.2400   82.7560  220.7180 C   0  0  0  0  0  0  0  0  0  0  0  0
  139.8840   81.3730  220.2040 C   0  0  0  0  0  0  0  0  0  0  0  0
  140.9350   80.4270  220.7980 C   0  0  1  0  0  0  0  0  0  0  0  0
  141.6650   79.6580  219.7280 C   0  0  0  0  0  0  0  0  0  0  0  0
  142.2270   80.1980  218.5750 C   0  0  0  0  0  0  0  0  0  0  0  0
  142.8350   79.2340  217.8480 N   0  0  0  0  0  0  0  0  0  0  0  0
  142.6690   78.0900  218.5340 C   0  0  0  0  0  0  0  0  0  0  0  0
  143.1320   76.8230  218.1820 C   0  0  0  0  0  0  0  0  0  0  0  0
  142.8520   75.7550  219.0550 C   0  0  0  0  0  0  0  0  0  0  0  0
  142.1250   75.9770  220.2450 C   0  0  0  0  0  0  0  0  0  0  0  0
  141.6720   77.2660  220.5750 C   0  0  0  0  0  0  0  0  0  0  0  0
  141.9630   78.3060  219.6900 C   0  0  0  0  0  0  0  0  0  0  0  0
  141.9322   78.1294  222.7898 H   0  0  0  0  0  0  0  0  0  0  0  0
  141.8607   78.7050  224.5121 H   0  0  0  0  0  0  0  0  0  0  0  0
  139.8388   77.1691  222.3681 H   0  0  0  0  0  0  0  0  0  0  0  0
  137.3707   77.4408  222.1305 H   0  0  0  0  0  0  0  0  0  0  0  0
  136.2479   79.4954  222.9982 H   0  0  0  0  0  0  0  0  0  0  0  0
  137.5925   81.2754  224.1192 H   0  0  0  0  0  0  0  0  0  0  0  0
  140.0602   81.0093  224.3679 H   0  0  0  0  0  0  0  0  0  0  0  0
  140.6874   82.4647  222.8104 H   0  0  0  0  0  0  0  0  0  0  0  0
  141.9520   83.3368  221.9217 H   0  0  0  0  0  0  0  0  0  0  0  0
  139.3423   83.2732  221.0876 H   0  0  0  0  0  0  0  0  0  0  0  0
  140.6687   83.3907  219.9285 H   0  0  0  0  0  0  0  0  0  0  0  0
  138.8765   81.0865  220.5398 H   0  0  0  0  0  0  0  0  0  0  0  0
  139.8799   81.3368  219.1046 H   0  0  0  0  0  0  0  0  0  0  0  0
  140.4384   79.6845  221.4399 H   0  0  0  0  0  0  0  0  0  0  0  0
  142.1827   81.2607  218.2944 H   0  0  0  0  0  0  0  0  0  0  0  0
  143.3370   79.3590  216.9400 H   0  0  0  0  0  0  0  0  0  0  0  0
  143.6977   76.6632  217.2523 H   0  0  0  0  0  0  0  0  0  0  0  0
  143.2016   74.7415  218.8088 H   0  0  0  0  0  0  0  0  0  0  0  0
  141.9115   75.1344  220.9191 H   0  0  0  0  0  0  0  0  0  0  0  0
  141.1065   77.4495  221.5005 H   0  0  0  0  0  0  0  0  0  0  0  0
  1  2  2  0
  2  3  2  0
  2  4  1  0
  4  5  1  0
  5  6  2  0
  6  7  1  0
  7  8  2  0
  8  9  1  0
  9 10  2  0
  2 11  1  0
 11 12  1  0
 12 13  1  0
 13 14  1  0
 14 15  1  0
 15 16  1  0
 16 17  2  0
 17 18  1  0
 18 19  1  0
 19 20  2  0
 20 21  1  0
 21 22  2  0
 22 23  1  0
 23 24  2  0
 10  5  1  0
 15 11  1  0
 24 16  1  0
 24 19  1  0
  4 25  1  0
  4 26  1  0
  6 27  1  0
  7 28  1  0
  8 29  1  0
  9 30  1  0
 10 31  1  0
 12 32  1  0
 12 33  1  0
 13 34  1  0
 13 35  1  0
 14 36  1  0
 14 37  1  0
 15 38  1  1
 17 39  1  0
 18 40  1  0
 20 41  1  0
 21 42  1  0
 22 43  1  0
 23 44  1  0
M  END
>  <UniqueID>  (22) 
218

>  <SMILES>  (22) 
O=S(=O)(Cc1ccccc1)N1CCC[C@H]1c1c[nH]c2ccccc12

>  <Energy>  (22) 
75.0694498518157

>  <Genealogy>  (22) 
O=S(=O)(Cc1ccccc1)N1CCC[C@H]1c1c[nH]c2ccccc12 (chirality)
O=S(=O)(Cc1ccccc1)N1CCC[C@H]1c1c[nH]c2ccccc12 (3D coordinates assigned)
O=S(=O)(Cc1ccccc1)N1CCC[C@H]1c1c[nH]c2ccccc12 (nonaromatic ring conformer: 75.0694498518157 kcal/mol)

>  <smiles>  (22) 
O=S(=O)(Cc1ccccc1)N1CCCC1c1c[nH]c2ccccc12

>  <score_type>  (22) 
oracle

>  <origin>  (22) 
autodockgpu

>  <m_score__min__energy>  (22) 
-7.7699999999999996

>  <m_primary>  (22) 
energy

>  <meeko>  (22) 
{"free_energy": -7.1, "intermolecular_energy": -8.3, "internal_energy": -1.93, "cluster_size": 16, "cluster_id": 2, "rank_in_cluster": 13}

>  <energy>  (22) 
-7.72

>  <cluster_rmsd>  (22) 
0.79

>  <rmsd>  (22) 
271.77

>  <cluster>  (22) 
1

$$$$
QHTAHHNEYOTCSC-IBGZPJMENA-N
     RDKit          3D

 44 47  0  0  0  0  0  0  0  0999 V2000
  142.2240   81.4890  224.1920 O   0  0  0  0  0  0  0  0  0  0  0  0
  142.3910   80.4990  223.0740 S   0  0  0  0  0  0  0  0  0  0  0  0
  143.8480   80.1400  222.9800 O   0  0  0  0  0  0  0  0  0  0  0  0
  141.4580   79.0250  223.5150 C   0  0  0  0  0  0  0  0  0  0  0  0
  139.9740   79.2270  223.3790 C   0  0  0  0  0  0  0  0  0  0  0  0
  139.3750   80.4070  223.8520 C   0  0  0  0  0  0  0  0  0  0  0  0
  137.9900   80.5780  223.7700 C   0  0  0  0  0  0  0  0  0  0  0  0
  137.1930   79.5750  223.2100 C   0  0  0  0  0  0  0  0  0  0  0  0
  137.7810   78.4020  222.7280 C   0  0  0  0  0  0  0  0  0  0  0  0
  139.1650   78.2280  222.8080 C   0  0  0  0  0  0  0  0  0  0  0  0
  141.9010   81.2790  221.5830 N   0  0  0  0  0  0  0  0  0  0  0  0
  141.2930   82.5900  221.8040 C   0  0  0  0  0  0  0  0  0  0  0  0
  140.3730   82.8420  220.6250 C   0  0  0  0  0  0  0  0  0  0  0  0
  139.9720   81.4630  220.1330 C   0  0  0  0  0  0  0  0  0  0  0  0
  140.9500   80.4860  220.7960 C   0  0  1  0  0  0  0  0  0  0  0  0
  141.6850   79.6530  219.7800 C   0  0  0  0  0  0  0  0  0  0  0  0
  142.3450   80.1350  218.6530 C   0  0  0  0  0  0  0  0  0  0  0  0
  142.9270   79.1210  217.9740 N   0  0  0  0  0  0  0  0  0  0  0  0
  142.6480   78.0030  218.6650 C   0  0  0  0  0  0  0  0  0  0  0  0
  143.0440   76.7020  218.3570 C   0  0  0  0  0  0  0  0  0  0  0  0
  142.6460   75.6700  219.2260 C   0  0  0  0  0  0  0  0  0  0  0  0
  141.8710   75.9580  220.3710 C   0  0  0  0  0  0  0  0  0  0  0  0
  141.4870   77.2800  220.6570 C   0  0  0  0  0  0  0  0  0  0  0  0
  141.8940   78.2840  219.7770 C   0  0  0  0  0  0  0  0  0  0  0  0
  141.7649   78.2011  222.8539 H   0  0  0  0  0  0  0  0  0  0  0  0
  141.6711   78.7948  224.5693 H   0  0  0  0  0  0  0  0  0  0  0  0
  139.9993   81.2003  224.2891 H   0  0  0  0  0  0  0  0  0  0  0  0
  137.5270   81.5022  224.1462 H   0  0  0  0  0  0  0  0  0  0  0  0
  136.1029   79.7090  223.1487 H   0  0  0  0  0  0  0  0  0  0  0  0
  137.1532   77.6148  222.2851 H   0  0  0  0  0  0  0  0  0  0  0  0
  139.6240   77.3056  222.4227 H   0  0  0  0  0  0  0  0  0  0  0  0
  140.7177   82.5889  222.7416 H   0  0  0  0  0  0  0  0  0  0  0  0
  142.0590   83.3752  221.8859 H   0  0  0  0  0  0  0  0  0  0  0  0
  139.4869   83.4116  220.9417 H   0  0  0  0  0  0  0  0  0  0  0  0
  140.8646   83.4330  219.8382 H   0  0  0  0  0  0  0  0  0  0  0  0
  138.9387   81.2342  220.4329 H   0  0  0  0  0  0  0  0  0  0  0  0
  140.0118   81.3957  219.0358 H   0  0  0  0  0  0  0  0  0  0  0  0
  140.3916   79.7866  221.4355 H   0  0  0  0  0  0  0  0  0  0  0  0
  142.3871   81.1934  218.3563 H   0  0  0  0  0  0  0  0  0  0  0  0
  143.4860   79.1980  217.0950 H   0  0  0  0  0  0  0  0  0  0  0  0
  143.6485   76.4895  217.4629 H   0  0  0  0  0  0  0  0  0  0  0  0
  142.9403   74.6319  219.0124 H   0  0  0  0  0  0  0  0  0  0  0  0
  141.5658   75.1427  221.0435 H   0  0  0  0  0  0  0  0  0  0  0  0
  140.8845   77.5157  221.5467 H   0  0  0  0  0  0  0  0  0  0  0  0
  1  2  2  0
  2  3  2  0
  2  4  1  0
  4  5  1  0
  5  6  2  0
  6  7  1  0
  7  8  2  0
  8  9  1  0
  9 10  2  0
  2 11  1  0
 11 12  1  0
 12 13  1  0
 13 14  1  0
 14 15  1  0
 15 16  1  0
 16 17  2  0
 17 18  1  0
 18 19  1  0
 19 20  2  0
 20 21  1  0
 21 22  2  0
 22 23  1  0
 23 24  2  0
 10  5  1  0
 15 11  1  0
 24 16  1  0
 24 19  1  0
  4 25  1  0
  4 26  1  0
  6 27  1  0
  7 28  1  0
  8 29  1  0
  9 30  1  0
 10 31  1  0
 12 32  1  0
 12 33  1  0
 13 34  1  0
 13 35  1  0
 14 36  1  0
 14 37  1  0
 15 38  1  1
 17 39  1  0
 18 40  1  0
 20 41  1  0
 21 42  1  0
 22 43  1  0
 23 44  1  0
M  END
>  <UniqueID>  (23) 
218

>  <SMILES>  (23) 
O=S(=O)(Cc1ccccc1)N1CCC[C@H]1c1c[nH]c2ccccc12

>  <Energy>  (23) 
75.0694498518157

>  <Genealogy>  (23) 
O=S(=O)(Cc1ccccc1)N1CCC[C@H]1c1c[nH]c2ccccc12 (chirality)
O=S(=O)(Cc1ccccc1)N1CCC[C@H]1c1c[nH]c2ccccc12 (3D coordinates assigned)
O=S(=O)(Cc1ccccc1)N1CCC[C@H]1c1c[nH]c2ccccc12 (nonaromatic ring conformer: 75.0694498518157 kcal/mol)

>  <smiles>  (23) 
O=S(=O)(Cc1ccccc1)N1CCCC1c1c[nH]c2ccccc12

>  <score_type>  (23) 
oracle

>  <origin>  (23) 
autodockgpu

>  <m_score__min__energy>  (23) 
-7.7699999999999996

>  <m_primary>  (23) 
energy

>  <meeko>  (23) 
{"free_energy": -7.1, "intermolecular_energy": -8.29, "internal_energy": -1.9, "cluster_size": 16, "cluster_id": 2, "rank_in_cluster": 14}

>  <energy>  (23) 
-7.71

>  <cluster_rmsd>  (23) 
0.78

>  <rmsd>  (23) 
271.74

>  <cluster>  (23) 
1

$$$$
QHTAHHNEYOTCSC-IBGZPJMENA-N
     RDKit          3D

 44 47  0  0  0  0  0  0  0  0999 V2000
  142.3170   81.4170  224.1460 O   0  0  0  0  0  0  0  0  0  0  0  0
  142.4600   80.4530  223.0030 S   0  0  0  0  0  0  0  0  0  0  0  0
  143.9210   80.1470  222.8280 O   0  0  0  0  0  0  0  0  0  0  0  0
  141.6030   78.9390  223.4650 C   0  0  0  0  0  0  0  0  0  0  0  0
  140.1080   79.0760  223.3640 C   0  0  0  0  0  0  0  0  0  0  0  0
  139.3460   78.0640  222.7540 C   0  0  0  0  0  0  0  0  0  0  0  0
  137.9630   78.2100  222.6150 C   0  0  0  0  0  0  0  0  0  0  0  0
  137.3290   79.3620  223.0880 C   0  0  0  0  0  0  0  0  0  0  0  0
  138.0770   80.3690  223.7050 C   0  0  0  0  0  0  0  0  0  0  0  0
  139.4600   80.2270  223.8460 C   0  0  0  0  0  0  0  0  0  0  0  0
  141.8660   81.2390  221.5540 N   0  0  0  0  0  0  0  0  0  0  0  0
  141.2040   82.5120  221.8320 C   0  0  0  0  0  0  0  0  0  0  0  0
  140.2210   82.7420  220.7000 C   0  0  0  0  0  0  0  0  0  0  0  0
  139.8680   81.3550  220.1930 C   0  0  0  0  0  0  0  0  0  0  0  0
  140.9220   80.4150  220.7900 C   0  0  1  0  0  0  0  0  0  0  0  0
  141.6530   79.6430  219.7230 C   0  0  0  0  0  0  0  0  0  0  0  0
  142.2190   80.1800  218.5700 C   0  0  0  0  0  0  0  0  0  0  0  0
  142.8260   79.2130  217.8460 N   0  0  0  0  0  0  0  0  0  0  0  0
  142.6560   78.0710  218.5340 C   0  0  0  0  0  0  0  0  0  0  0  0
  143.1180   76.8020  218.1850 C   0  0  0  0  0  0  0  0  0  0  0  0
  142.8340   75.7370  219.0590 C   0  0  0  0  0  0  0  0  0  0  0  0
  142.1050   75.9620  220.2480 C   0  0  0  0  0  0  0  0  0  0  0  0
  141.6540   77.2520  220.5740 C   0  0  0  0  0  0  0  0  0  0  0  0
  141.9480   78.2900  219.6880 C   0  0  0  0  0  0  0  0  0  0  0  0
  141.9301   78.1292  222.7963 H   0  0  0  0  0  0  0  0  0  0  0  0
  141.8508   78.7185  224.5138 H   0  0  0  0  0  0  0  0  0  0  0  0
  139.8404   77.1535  222.3846 H   0  0  0  0  0  0  0  0  0  0  0  0
  137.3727   77.4170  222.1326 H   0  0  0  0  0  0  0  0  0  0  0  0
  136.2408   79.4765  222.9748 H   0  0  0  0  0  0  0  0  0  0  0  0
  137.5765   81.2740  224.0799 H   0  0  0  0  0  0  0  0  0  0  0  0
  140.0445   81.0194  224.3364 H   0  0  0  0  0  0  0  0  0  0  0  0
  140.6717   82.4616  222.7933 H   0  0  0  0  0  0  0  0  0  0  0  0
  141.9328   83.3332  221.8992 H   0  0  0  0  0  0  0  0  0  0  0  0
  139.3224   83.2586  221.0682 H   0  0  0  0  0  0  0  0  0  0  0  0
  140.6470   83.3741  219.9069 H   0  0  0  0  0  0  0  0  0  0  0  0
  138.8617   81.0674  220.5315 H   0  0  0  0  0  0  0  0  0  0  0  0
  139.8626   81.3135  219.0938 H   0  0  0  0  0  0  0  0  0  0  0  0
  140.4283   79.6741  221.4360 H   0  0  0  0  0  0  0  0  0  0  0  0
  142.1780   81.2423  218.2876 H   0  0  0  0  0  0  0  0  0  0  0  0
  143.3300   79.3360  216.9390 H   0  0  0  0  0  0  0  0  0  0  0  0
  143.6857   76.6394  217.2569 H   0  0  0  0  0  0  0  0  0  0  0  0
  143.1818   74.7224  218.8151 H   0  0  0  0  0  0  0  0  0  0  0  0
  141.8889   75.1211  220.9234 H   0  0  0  0  0  0  0  0  0  0  0  0
  141.0872   77.4382  221.4981 H   0  0  0  0  0  0  0  0  0  0  0  0
  1  2  2  0
  2  3  2  0
  2  4  1  0
  4  5  1  0
  5  6  2  0
  6  7  1  0
  7  8  2  0
  8  9  1  0
  9 10  2  0
  2 11  1  0
 11 12  1  0
 12 13  1  0
 13 14  1  0
 14 15  1  0
 15 16  1  0
 16 17  2  0
 17 18  1  0
 18 19  1  0
 19 20  2  0
 20 21  1  0
 21 22  2  0
 22 23  1  0
 23 24  2  0
 10  5  1  0
 15 11  1  0
 24 16  1  0
 24 19  1  0
  4 25  1  0
  4 26  1  0
  6 27  1  0
  7 28  1  0
  8 29  1  0
  9 30  1  0
 10 31  1  0
 12 32  1  0
 12 33  1  0
 13 34  1  0
 13 35  1  0
 14 36  1  0
 14 37  1  0
 15 38  1  1
 17 39  1  0
 18 40  1  0
 20 41  1  0
 21 42  1  0
 22 43  1  0
 23 44  1  0
M  END
>  <UniqueID>  (24) 
218

>  <SMILES>  (24) 
O=S(=O)(Cc1ccccc1)N1CCC[C@H]1c1c[nH]c2ccccc12

>  <Energy>  (24) 
75.0694498518157

>  <Genealogy>  (24) 
O=S(=O)(Cc1ccccc1)N1CCC[C@H]1c1c[nH]c2ccccc12 (chirality)
O=S(=O)(Cc1ccccc1)N1CCC[C@H]1c1c[nH]c2ccccc12 (3D coordinates assigned)
O=S(=O)(Cc1ccccc1)N1CCC[C@H]1c1c[nH]c2ccccc12 (nonaromatic ring conformer: 75.0694498518157 kcal/mol)

>  <smiles>  (24) 
O=S(=O)(Cc1ccccc1)N1CCCC1c1c[nH]c2ccccc12

>  <score_type>  (24) 
oracle

>  <origin>  (24) 
autodockgpu

>  <m_score__min__energy>  (24) 
-7.7699999999999996

>  <m_primary>  (24) 
energy

>  <meeko>  (24) 
{"free_energy": -7.11, "intermolecular_energy": -8.3, "internal_energy": -1.92, "cluster_size": 16, "cluster_id": 2, "rank_in_cluster": 12}

>  <energy>  (24) 
-7.13

>  <cluster_rmsd>  (24) 
0.0

>  <rmsd>  (24) 
272.5

>  <cluster>  (24) 
2

$$$$
QHTAHHNEYOTCSC-IBGZPJMENA-N
     RDKit          3D

 44 47  0  0  0  0  0  0  0  0999 V2000
  142.4520   81.3800  224.1500 O   0  0  0  0  0  0  0  0  0  0  0  0
  142.5580   80.4420  222.9810 S   0  0  0  0  0  0  0  0  0  0  0  0
  144.0120   80.1380  222.7550 O   0  0  0  0  0  0  0  0  0  0  0  0
  141.7100   78.9200  223.4330 C   0  0  0  0  0  0  0  0  0  0  0  0
  140.2140   79.0520  223.3430 C   0  0  0  0  0  0  0  0  0  0  0  0
  139.4540   78.0500  222.7140 C   0  0  0  0  0  0  0  0  0  0  0  0
  138.0690   78.1920  222.5870 C   0  0  0  0  0  0  0  0  0  0  0  0
  137.4330   79.3300  223.0890 C   0  0  0  0  0  0  0  0  0  0  0  0
  138.1790   80.3260  223.7240 C   0  0  0  0  0  0  0  0  0  0  0  0
  139.5630   80.1890  223.8550 C   0  0  0  0  0  0  0  0  0  0  0  0
  141.9230   81.2640  221.5690 N   0  0  0  0  0  0  0  0  0  0  0  0
  141.2470   82.5170  221.8990 C   0  0  0  0  0  0  0  0  0  0  0  0
  140.2390   82.7670  220.7940 C   0  0  0  0  0  0  0  0  0  0  0  0
  139.8970   81.3910  220.2510 C   0  0  0  0  0  0  0  0  0  0  0  0
  140.9770   80.4490  220.7980 C   0  0  1  0  0  0  0  0  0  0  0  0
  141.6980   79.7230  219.6930 C   0  0  0  0  0  0  0  0  0  0  0  0
  142.2310   80.3040  218.5450 C   0  0  0  0  0  0  0  0  0  0  0  0
  142.8390   79.3700  217.7800 N   0  0  0  0  0  0  0  0  0  0  0  0
  142.7030   78.2050  218.4360 C   0  0  0  0  0  0  0  0  0  0  0  0
  143.1780   76.9550  218.0400 C   0  0  0  0  0  0  0  0  0  0  0  0
  142.9300   75.8590  218.8870 C   0  0  0  0  0  0  0  0  0  0  0  0
  142.2230   76.0360  220.0960 C   0  0  0  0  0  0  0  0  0  0  0  0
  141.7570   77.3080  220.4710 C   0  0  0  0  0  0  0  0  0  0  0  0
  142.0150   78.3770  219.6110 C   0  0  0  0  0  0  0  0  0  0  0  0
  142.0359   78.1183  222.7540 H   0  0  0  0  0  0  0  0  0  0  0  0
  141.9654   78.6898  224.4779 H   0  0  0  0  0  0  0  0  0  0  0  0
  139.9510   77.1511  222.3204 H   0  0  0  0  0  0  0  0  0  0  0  0
  137.4794   77.4068  222.0912 H   0  0  0  0  0  0  0  0  0  0  0  0
  136.3437   79.4420  222.9842 H   0  0  0  0  0  0  0  0  0  0  0  0
  137.6757   81.2197  224.1215 H   0  0  0  0  0  0  0  0  0  0  0  0
  140.1459   80.9731  224.3604 H   0  0  0  0  0  0  0  0  0  0  0  0
  140.7342   82.4282  222.8681 H   0  0  0  0  0  0  0  0  0  0  0  0
  141.9645   83.3470  221.9779 H   0  0  0  0  0  0  0  0  0  0  0  0
  139.3402   83.2581  221.1952 H   0  0  0  0  0  0  0  0  0  0  0  0
  140.6398   83.4300  220.0131 H   0  0  0  0  0  0  0  0  0  0  0  0
  138.9020   81.0774  220.5998 H   0  0  0  0  0  0  0  0  0  0  0  0
  139.8706   81.3834  219.1514 H   0  0  0  0  0  0  0  0  0  0  0  0
  140.5081   79.6803  221.4298 H   0  0  0  0  0  0  0  0  0  0  0  0
  142.1663   81.3734  218.2956 H   0  0  0  0  0  0  0  0  0  0  0  0
  143.3220   79.5290  216.8680 H   0  0  0  0  0  0  0  0  0  0  0  0
  143.7287   76.8299  217.0960 H   0  0  0  0  0  0  0  0  0  0  0  0
  143.2892   74.8582  218.6053 H   0  0  0  0  0  0  0  0  0  0  0  0
  142.0353   75.1716  220.7498 H   0  0  0  0  0  0  0  0  0  0  0  0
  141.2067   77.4563  221.4118 H   0  0  0  0  0  0  0  0  0  0  0  0
  1  2  2  0
  2  3  2  0
  2  4  1  0
  4  5  1  0
  5  6  2  0
  6  7  1  0
  7  8  2  0
  8  9  1  0
  9 10  2  0
  2 11  1  0
 11 12  1  0
 12 13  1  0
 13 14  1  0
 14 15  1  0
 15 16  1  0
 16 17  2  0
 17 18  1  0
 18 19  1  0
 19 20  2  0
 20 21  1  0
 21 22  2  0
 22 23  1  0
 23 24  2  0
 10  5  1  0
 15 11  1  0
 24 16  1  0
 24 19  1  0
  4 25  1  0
  4 26  1  0
  6 27  1  0
  7 28  1  0
  8 29  1  0
  9 30  1  0
 10 31  1  0
 12 32  1  0
 12 33  1  0
 13 34  1  0
 13 35  1  0
 14 36  1  0
 14 37  1  0
 15 38  1  1
 17 39  1  0
 18 40  1  0
 20 41  1  0
 21 42  1  0
 22 43  1  0
 23 44  1  0
M  END
>  <UniqueID>  (25) 
218

>  <SMILES>  (25) 
O=S(=O)(Cc1ccccc1)N1CCC[C@H]1c1c[nH]c2ccccc12

>  <Energy>  (25) 
75.0694498518157

>  <Genealogy>  (25) 
O=S(=O)(Cc1ccccc1)N1CCC[C@H]1c1c[nH]c2ccccc12 (chirality)
O=S(=O)(Cc1ccccc1)N1CCC[C@H]1c1c[nH]c2ccccc12 (3D coordinates assigned)
O=S(=O)(Cc1ccccc1)N1CCC[C@H]1c1c[nH]c2ccccc12 (nonaromatic ring conformer: 75.0694498518157 kcal/mol)

>  <smiles>  (25) 
O=S(=O)(Cc1ccccc1)N1CCCC1c1c[nH]c2ccccc12

>  <score_type>  (25) 
oracle

>  <origin>  (25) 
autodockgpu

>  <m_score__min__energy>  (25) 
-7.7699999999999996

>  <m_primary>  (25) 
energy

>  <meeko>  (25) 
{"free_energy": -7.13, "intermolecular_energy": -8.32, "internal_energy": -1.93, "cluster_size": 16, "cluster_id": 2, "rank_in_cluster": 3}

>  <energy>  (25) 
-7.13

>  <cluster_rmsd>  (25) 
0.02

>  <rmsd>  (25) 
272.5

>  <cluster>  (25) 
2

$$$$
QHTAHHNEYOTCSC-IBGZPJMENA-N
     RDKit          3D

 44 47  0  0  0  0  0  0  0  0999 V2000
  142.4340   81.3720  224.1710 O   0  0  0  0  0  0  0  0  0  0  0  0
  142.5550   80.4450  222.9950 S   0  0  0  0  0  0  0  0  0  0  0  0
  144.0120   80.1390  222.7880 O   0  0  0  0  0  0  0  0  0  0  0  0
  141.6980   78.9210  223.4200 C   0  0  0  0  0  0  0  0  0  0  0  0
  140.2030   79.0650  223.3360 C   0  0  0  0  0  0  0  0  0  0  0  0
  139.4310   78.0670  222.7160 C   0  0  0  0  0  0  0  0  0  0  0  0
  138.0470   78.2190  222.5940 C   0  0  0  0  0  0  0  0  0  0  0  0
  137.4220   79.3650  223.0940 C   0  0  0  0  0  0  0  0  0  0  0  0
  138.1800   80.3580  223.7210 C   0  0  0  0  0  0  0  0  0  0  0  0
  139.5640   80.2090  223.8460 C   0  0  0  0  0  0  0  0  0  0  0  0
  141.9430   81.2820  221.5820 N   0  0  0  0  0  0  0  0  0  0  0  0
  141.2890   82.5460  221.9130 C   0  0  0  0  0  0  0  0  0  0  0  0
  140.2910   82.8180  220.8030 C   0  0  0  0  0  0  0  0  0  0  0  0
  139.9260   81.4500  220.2550 C   0  0  0  0  0  0  0  0  0  0  0  0
  140.9860   80.4870  220.8040 C   0  0  1  0  0  0  0  0  0  0  0  0
  141.6990   79.7510  219.7010 C   0  0  0  0  0  0  0  0  0  0  0  0
  142.2320   80.3220  218.5490 C   0  0  0  0  0  0  0  0  0  0  0  0
  142.8320   79.3810  217.7870 N   0  0  0  0  0  0  0  0  0  0  0  0
  142.6900   78.2200  218.4490 C   0  0  0  0  0  0  0  0  0  0  0  0
  143.1550   76.9650  218.0580 C   0  0  0  0  0  0  0  0  0  0  0  0
  142.9020   75.8750  218.9100 C   0  0  0  0  0  0  0  0  0  0  0  0
  142.1990   76.0620  220.1210 C   0  0  0  0  0  0  0  0  0  0  0  0
  141.7440   77.3390  220.4900 C   0  0  0  0  0  0  0  0  0  0  0  0
  142.0070   78.4020  219.6250 C   0  0  0  0  0  0  0  0  0  0  0  0
  142.0169   78.1301  222.7252 H   0  0  0  0  0  0  0  0  0  0  0  0
  141.9542   78.6692  224.4597 H   0  0  0  0  0  0  0  0  0  0  0  0
  139.9187   77.1619  222.3249 H   0  0  0  0  0  0  0  0  0  0  0  0
  137.4492   77.4363  222.1042 H   0  0  0  0  0  0  0  0  0  0  0  0
  136.3332   79.4854  222.9940 H   0  0  0  0  0  0  0  0  0  0  0  0
  137.6865   81.2580  224.1166 H   0  0  0  0  0  0  0  0  0  0  0  0
  140.1560   80.9901  224.3455 H   0  0  0  0  0  0  0  0  0  0  0  0
  140.7697   82.4636  222.8792 H   0  0  0  0  0  0  0  0  0  0  0  0
  142.0212   83.3624  221.9986 H   0  0  0  0  0  0  0  0  0  0  0  0
  139.3996   83.3250  221.2009 H   0  0  0  0  0  0  0  0  0  0  0  0
  140.7081   83.4753  220.0258 H   0  0  0  0  0  0  0  0  0  0  0  0
  138.9239   81.1539  220.5988 H   0  0  0  0  0  0  0  0  0  0  0  0
  139.9041   81.4457  219.1552 H   0  0  0  0  0  0  0  0  0  0  0  0
  140.4996   79.7252  221.4310 H   0  0  0  0  0  0  0  0  0  0  0  0
  142.1730   81.3905  218.2943 H   0  0  0  0  0  0  0  0  0  0  0  0
  143.3130   79.5320  216.8720 H   0  0  0  0  0  0  0  0  0  0  0  0
  143.7023   76.8317  217.1132 H   0  0  0  0  0  0  0  0  0  0  0  0
  143.2537   74.8706  218.6317 H   0  0  0  0  0  0  0  0  0  0  0  0
  142.0066   75.2021  220.7794 H   0  0  0  0  0  0  0  0  0  0  0  0
  141.1974   77.4960  221.4316 H   0  0  0  0  0  0  0  0  0  0  0  0
  1  2  2  0
  2  3  2  0
  2  4  1  0
  4  5  1  0
  5  6  2  0
  6  7  1  0
  7  8  2  0
  8  9  1  0
  9 10  2  0
  2 11  1  0
 11 12  1  0
 12 13  1  0
 13 14  1  0
 14 15  1  0
 15 16  1  0
 16 17  2  0
 17 18  1  0
 18 19  1  0
 19 20  2  0
 20 21  1  0
 21 22  2  0
 22 23  1  0
 23 24  2  0
 10  5  1  0
 15 11  1  0
 24 16  1  0
 24 19  1  0
  4 25  1  0
  4 26  1  0
  6 27  1  0
  7 28  1  0
  8 29  1  0
  9 30  1  0
 10 31  1  0
 12 32  1  0
 12 33  1  0
 13 34  1  0
 13 35  1  0
 14 36  1  0
 14 37  1  0
 15 38  1  1
 17 39  1  0
 18 40  1  0
 20 41  1  0
 21 42  1  0
 22 43  1  0
 23 44  1  0
M  END
>  <UniqueID>  (26) 
218

>  <SMILES>  (26) 
O=S(=O)(Cc1ccccc1)N1CCC[C@H]1c1c[nH]c2ccccc12

>  <Energy>  (26) 
75.0694498518157

>  <Genealogy>  (26) 
O=S(=O)(Cc1ccccc1)N1CCC[C@H]1c1c[nH]c2ccccc12 (chirality)
O=S(=O)(Cc1ccccc1)N1CCC[C@H]1c1c[nH]c2ccccc12 (3D coordinates assigned)
O=S(=O)(Cc1ccccc1)N1CCC[C@H]1c1c[nH]c2ccccc12 (nonaromatic ring conformer: 75.0694498518157 kcal/mol)

>  <smiles>  (26) 
O=S(=O)(Cc1ccccc1)N1CCCC1c1c[nH]c2ccccc12

>  <score_type>  (26) 
oracle

>  <origin>  (26) 
autodockgpu

>  <m_score__min__energy>  (26) 
-7.7699999999999996

>  <m_primary>  (26) 
energy

>  <meeko>  (26) 
{"free_energy": -7.12, "intermolecular_energy": -8.32, "internal_energy": -1.92, "cluster_size": 16, "cluster_id": 2, "rank_in_cluster": 4}

>  <energy>  (26) 
-7.13

>  <cluster_rmsd>  (26) 
0.02

>  <rmsd>  (26) 
272.49

>  <cluster>  (26) 
2

$$$$
QHTAHHNEYOTCSC-IBGZPJMENA-N
     RDKit          3D

 44 47  0  0  0  0  0  0  0  0999 V2000
  142.2340   81.5250  224.2150 O   0  0  0  0  0  0  0  0  0  0  0  0
  142.3650   80.5240  223.1010 S   0  0  0  0  0  0  0  0  0  0  0  0
  143.8160   80.1550  222.9710 O   0  0  0  0  0  0  0  0  0  0  0  0
  141.4350   79.0600  223.5810 C   0  0  0  0  0  0  0  0  0  0  0  0
  139.9490   79.2630  223.4620 C   0  0  0  0  0  0  0  0  0  0  0  0
  139.1440   78.2650  222.8860 C   0  0  0  0  0  0  0  0  0  0  0  0
  137.7690   78.4700  222.7310 C   0  0  0  0  0  0  0  0  0  0  0  0
  137.1880   79.6690  223.1540 C   0  0  0  0  0  0  0  0  0  0  0  0
  137.9800   80.6630  223.7360 C   0  0  0  0  0  0  0  0  0  0  0  0
  139.3540   80.4620  223.8940 C   0  0  0  0  0  0  0  0  0  0  0  0
  141.8380   81.2950  221.6180 N   0  0  0  0  0  0  0  0  0  0  0  0
  141.2180   82.5990  221.8460 C   0  0  0  0  0  0  0  0  0  0  0  0
  140.2740   82.8360  220.6840 C   0  0  0  0  0  0  0  0  0  0  0  0
  139.8820   81.4510  220.2020 C   0  0  0  0  0  0  0  0  0  0  0  0
  140.8840   80.4880  220.8500 C   0  0  1  0  0  0  0  0  0  0  0  0
  141.6110   79.6620  219.8220 C   0  0  0  0  0  0  0  0  0  0  0  0
  142.2470   80.1510  218.6830 C   0  0  0  0  0  0  0  0  0  0  0  0
  142.8290   79.1420  217.9960 N   0  0  0  0  0  0  0  0  0  0  0  0
  142.5740   78.0220  218.6930 C   0  0  0  0  0  0  0  0  0  0  0  0
  142.9800   76.7250  218.3800 C   0  0  0  0  0  0  0  0  0  0  0  0
  142.6080   75.6900  219.2560 C   0  0  0  0  0  0  0  0  0  0  0  0
  141.8490   75.9710  220.4130 C   0  0  0  0  0  0  0  0  0  0  0  0
  141.4550   77.2890  220.7050 C   0  0  0  0  0  0  0  0  0  0  0  0
  141.8360   78.2960  219.8170 C   0  0  0  0  0  0  0  0  0  0  0  0
  141.7310   78.2238  222.9304 H   0  0  0  0  0  0  0  0  0  0  0  0
  141.6622   78.8480  224.6362 H   0  0  0  0  0  0  0  0  0  0  0  0
  139.5973   77.3187  222.5557 H   0  0  0  0  0  0  0  0  0  0  0  0
  137.1445   77.6872  222.2759 H   0  0  0  0  0  0  0  0  0  0  0  0
  136.1071   79.8304  223.0288 H   0  0  0  0  0  0  0  0  0  0  0  0
  137.5210   81.6051  224.0702 H   0  0  0  0  0  0  0  0  0  0  0  0
  139.9724   81.2445  224.3580 H   0  0  0  0  0  0  0  0  0  0  0  0
  140.6600   82.5939  222.7939 H   0  0  0  0  0  0  0  0  0  0  0  0
  141.9758   83.3937  221.9113 H   0  0  0  0  0  0  0  0  0  0  0  0
  139.3864   83.3947  221.0157 H   0  0  0  0  0  0  0  0  0  0  0  0
  140.7436   83.4314  219.8872 H   0  0  0  0  0  0  0  0  0  0  0  0
  138.8571   81.2098  220.5204 H   0  0  0  0  0  0  0  0  0  0  0  0
  139.9034   81.3816  219.1044 H   0  0  0  0  0  0  0  0  0  0  0  0
  140.3468   79.7829  221.5013 H   0  0  0  0  0  0  0  0  0  0  0  0
  142.2722   81.2094  218.3844 H   0  0  0  0  0  0  0  0  0  0  0  0
  143.3720   79.2250  217.1080 H   0  0  0  0  0  0  0  0  0  0  0  0
  143.5724   76.5183  217.4765 H   0  0  0  0  0  0  0  0  0  0  0  0
  142.9102   74.6549  219.0386 H   0  0  0  0  0  0  0  0  0  0  0  0
  141.5638   75.1530  221.0909 H   0  0  0  0  0  0  0  0  0  0  0  0
  140.8653   77.5189  221.6047 H   0  0  0  0  0  0  0  0  0  0  0  0
  1  2  2  0
  2  3  2  0
  2  4  1  0
  4  5  1  0
  5  6  2  0
  6  7  1  0
  7  8  2  0
  8  9  1  0
  9 10  2  0
  2 11  1  0
 11 12  1  0
 12 13  1  0
 13 14  1  0
 14 15  1  0
 15 16  1  0
 16 17  2  0
 17 18  1  0
 18 19  1  0
 19 20  2  0
 20 21  1  0
 21 22  2  0
 22 23  1  0
 23 24  2  0
 10  5  1  0
 15 11  1  0
 24 16  1  0
 24 19  1  0
  4 25  1  0
  4 26  1  0
  6 27  1  0
  7 28  1  0
  8 29  1  0
  9 30  1  0
 10 31  1  0
 12 32  1  0
 12 33  1  0
 13 34  1  0
 13 35  1  0
 14 36  1  0
 14 37  1  0
 15 38  1  1
 17 39  1  0
 18 40  1  0
 20 41  1  0
 21 42  1  0
 22 43  1  0
 23 44  1  0
M  END
>  <UniqueID>  (27) 
218

>  <SMILES>  (27) 
O=S(=O)(Cc1ccccc1)N1CCC[C@H]1c1c[nH]c2ccccc12

>  <Energy>  (27) 
75.0694498518157

>  <Genealogy>  (27) 
O=S(=O)(Cc1ccccc1)N1CCC[C@H]1c1c[nH]c2ccccc12 (chirality)
O=S(=O)(Cc1ccccc1)N1CCC[C@H]1c1c[nH]c2ccccc12 (3D coordinates assigned)
O=S(=O)(Cc1ccccc1)N1CCC[C@H]1c1c[nH]c2ccccc12 (nonaromatic ring conformer: 75.0694498518157 kcal/mol)

>  <smiles>  (27) 
O=S(=O)(Cc1ccccc1)N1CCCC1c1c[nH]c2ccccc12

>  <score_type>  (27) 
oracle

>  <origin>  (27) 
autodockgpu

>  <m_score__min__energy>  (27) 
-7.7699999999999996

>  <m_primary>  (27) 
energy

>  <meeko>  (27) 
{"free_energy": -7.09, "intermolecular_energy": -8.28, "internal_energy": -1.93, "cluster_size": 16, "cluster_id": 2, "rank_in_cluster": 15}

>  <energy>  (27) 
-7.12

>  <cluster_rmsd>  (27) 
0.03

>  <rmsd>  (27) 
272.5

>  <cluster>  (27) 
2

$$$$
QHTAHHNEYOTCSC-IBGZPJMENA-N
     RDKit          3D

 44 47  0  0  0  0  0  0  0  0999 V2000
  135.9340   68.5110  223.8610 O   0  0  0  0  0  0  0  0  0  0  0  0
  135.7830   69.9660  224.2050 S   0  0  0  0  0  0  0  0  0  0  0  0
  134.9090   70.6060  223.1630 O   0  0  0  0  0  0  0  0  0  0  0  0
  134.9490   70.0590  225.7980 C   0  0  0  0  0  0  0  0  0  0  0  0
  134.2840   71.3900  226.0160 C   0  0  0  0  0  0  0  0  0  0  0  0
  134.7070   72.5180  225.2920 C   0  0  0  0  0  0  0  0  0  0  0  0
  134.1230   73.7670  225.5270 C   0  0  0  0  0  0  0  0  0  0  0  0
  133.1110   73.8980  226.4810 C   0  0  0  0  0  0  0  0  0  0  0  0
  132.6770   72.7800  227.1990 C   0  0  0  0  0  0  0  0  0  0  0  0
  133.2570   71.5300  226.9660 C   0  0  0  0  0  0  0  0  0  0  0  0
  137.3720   70.7030  224.1470 N   0  0  0  0  0  0  0  0  0  0  0  0
  137.4720   71.7530  223.1350 C   0  0  0  0  0  0  0  0  0  0  0  0
  138.9340   71.8330  222.7400 C   0  0  0  0  0  0  0  0  0  0  0  0
  139.4940   70.4490  223.0120 C   0  0  0  0  0  0  0  0  0  0  0  0
  138.4500   69.7430  223.8860 C   0  0  1  0  0  0  0  0  0  0  0  0
  139.0400   69.2600  225.1840 C   0  0  0  0  0  0  0  0  0  0  0  0
  139.0190   67.9490  225.6530 C   0  0  0  0  0  0  0  0  0  0  0  0
  139.6680   67.8580  226.8350 N   0  0  0  0  0  0  0  0  0  0  0  0
  140.1060   69.0970  227.1160 C   0  0  0  0  0  0  0  0  0  0  0  0
  140.8390   69.4990  228.2320 C   0  0  0  0  0  0  0  0  0  0  0  0
  141.2060   70.8540  228.3250 C   0  0  0  0  0  0  0  0  0  0  0  0
  140.8370   71.7660  227.3120 C   0  0  0  0  0  0  0  0  0  0  0  0
  140.0990   71.3320  226.1970 C   0  0  0  0  0  0  0  0  0  0  0  0
  139.7470   69.9830  226.1310 C   0  0  0  0  0  0  0  0  0  0  0  0
  134.1843   69.2696  225.8438 H   0  0  0  0  0  0  0  0  0  0  0  0
  135.7077   69.9287  226.5837 H   0  0  0  0  0  0  0  0  0  0  0  0
  135.5009   72.4181  224.5372 H   0  0  0  0  0  0  0  0  0  0  0  0
  134.4609   74.6470  224.9600 H   0  0  0  0  0  0  0  0  0  0  0  0
  132.6553   74.8817  226.6673 H   0  0  0  0  0  0  0  0  0  0  0  0
  131.8782   72.8841  227.9481 H   0  0  0  0  0  0  0  0  0  0  0  0
  132.9083   70.6514  227.5286 H   0  0  0  0  0  0  0  0  0  0  0  0
  136.8556   71.4977  222.2604 H   0  0  0  0  0  0  0  0  0  0  0  0
  137.1121   72.7166  223.5248 H   0  0  0  0  0  0  0  0  0  0  0  0
  139.0326   72.0868  221.6742 H   0  0  0  0  0  0  0  0  0  0  0  0
  139.4704   72.6120  223.3017 H   0  0  0  0  0  0  0  0  0  0  0  0
  139.6381   69.9015  222.0689 H   0  0  0  0  0  0  0  0  0  0  0  0
  140.4737   70.4982  223.5097 H   0  0  0  0  0  0  0  0  0  0  0  0
  138.0719   68.8542  223.3595 H   0  0  0  0  0  0  0  0  0  0  0  0
  138.5409   67.1052  225.1339 H   0  0  0  0  0  0  0  0  0  0  0  0
  139.8040   66.9950  227.4080 H   0  0  0  0  0  0  0  0  0  0  0  0
  141.1213   68.7796  229.0148 H   0  0  0  0  0  0  0  0  0  0  0  0
  141.7841   71.2053  229.1924 H   0  0  0  0  0  0  0  0  0  0  0  0
  141.1290   72.8232  227.3959 H   0  0  0  0  0  0  0  0  0  0  0  0
  139.8080   72.0337  225.4014 H   0  0  0  0  0  0  0  0  0  0  0  0
  1  2  2  0
  2  3  2  0
  2  4  1  0
  4  5  1  0
  5  6  2  0
  6  7  1  0
  7  8  2  0
  8  9  1  0
  9 10  2  0
  2 11  1  0
 11 12  1  0
 12 13  1  0
 13 14  1  0
 14 15  1  0
 15 16  1  0
 16 17  2  0
 17 18  1  0
 18 19  1  0
 19 20  2  0
 20 21  1  0
 21 22  2  0
 22 23  1  0
 23 24  2  0
 10  5  1  0
 15 11  1  0
 24 16  1  0
 24 19  1  0
  4 25  1  0
  4 26  1  0
  6 27  1  0
  7 28  1  0
  8 29  1  0
  9 30  1  0
 10 31  1  0
 12 32  1  0
 12 33  1  0
 13 34  1  0
 13 35  1  0
 14 36  1  0
 14 37  1  0
 15 38  1  6
 17 39  1  0
 18 40  1  0
 20 41  1  0
 21 42  1  0
 22 43  1  0
 23 44  1  0
M  END
>  <UniqueID>  (28) 
218

>  <SMILES>  (28) 
O=S(=O)(Cc1ccccc1)N1CCC[C@H]1c1c[nH]c2ccccc12

>  <Energy>  (28) 
75.0694498518157

>  <Genealogy>  (28) 
O=S(=O)(Cc1ccccc1)N1CCC[C@H]1c1c[nH]c2ccccc12 (chirality)
O=S(=O)(Cc1ccccc1)N1CCC[C@H]1c1c[nH]c2ccccc12 (3D coordinates assigned)
O=S(=O)(Cc1ccccc1)N1CCC[C@H]1c1c[nH]c2ccccc12 (nonaromatic ring conformer: 75.0694498518157 kcal/mol)

>  <smiles>  (28) 
O=S(=O)(Cc1ccccc1)N1CCCC1c1c[nH]c2ccccc12

>  <score_type>  (28) 
oracle

>  <origin>  (28) 
autodockgpu

>  <m_score__min__energy>  (28) 
-7.7699999999999996

>  <m_primary>  (28) 
energy

>  <meeko>  (28) 
{"free_energy": -7.72, "intermolecular_energy": -8.91, "internal_energy": -1.36, "cluster_size": 3, "cluster_id": 1, "rank_in_cluster": 2}

>  <energy>  (28) 
-7.12

>  <cluster_rmsd>  (28) 
0.05

>  <rmsd>  (28) 
272.49

>  <cluster>  (28) 
2

$$$$
QHTAHHNEYOTCSC-IBGZPJMENA-N
     RDKit          3D

 44 47  0  0  0  0  0  0  0  0999 V2000
  135.9650   68.5080  223.8120 O   0  0  0  0  0  0  0  0  0  0  0  0
  135.7930   69.9570  224.1680 S   0  0  0  0  0  0  0  0  0  0  0  0
  134.9080   70.5920  223.1310 O   0  0  0  0  0  0  0  0  0  0  0  0
  134.9580   70.0250  225.7610 C   0  0  0  0  0  0  0  0  0  0  0  0
  134.2760   71.3460  225.9920 C   0  0  0  0  0  0  0  0  0  0  0  0
  134.6550   72.4760  225.2470 C   0  0  0  0  0  0  0  0  0  0  0  0
  134.0570   73.7150  225.4920 C   0  0  0  0  0  0  0  0  0  0  0  0
  133.0730   73.8350  226.4780 C   0  0  0  0  0  0  0  0  0  0  0  0
  132.6840   72.7150  227.2170 C   0  0  0  0  0  0  0  0  0  0  0  0
  133.2780   71.4740  226.9750 C   0  0  0  0  0  0  0  0  0  0  0  0
  137.3700   70.7190  224.1140 N   0  0  0  0  0  0  0  0  0  0  0  0
  137.4510   71.7830  223.1150 C   0  0  0  0  0  0  0  0  0  0  0  0
  138.9110   71.8900  222.7180 C   0  0  0  0  0  0  0  0  0  0  0  0
  139.4930   70.5110  222.9710 C   0  0  0  0  0  0  0  0  0  0  0  0
  138.4620   69.7790  223.8390 C   0  0  1  0  0  0  0  0  0  0  0  0
  139.0630   69.2880  225.1290 C   0  0  0  0  0  0  0  0  0  0  0  0
  139.0940   67.9660  225.5650 C   0  0  0  0  0  0  0  0  0  0  0  0
  139.7380   67.8720  226.7500 N   0  0  0  0  0  0  0  0  0  0  0  0
  140.1210   69.1210  227.0640 C   0  0  0  0  0  0  0  0  0  0  0  0
  140.8280   69.5250  228.1960 C   0  0  0  0  0  0  0  0  0  0  0  0
  141.1360   70.8910  228.3260 C   0  0  0  0  0  0  0  0  0  0  0  0
  140.7360   71.8120  227.3330 C   0  0  0  0  0  0  0  0  0  0  0  0
  140.0260   71.3760  226.2020 C   0  0  0  0  0  0  0  0  0  0  0  0
  139.7320   70.0160  226.0990 C   0  0  0  0  0  0  0  0  0  0  0  0
  134.2032   69.2257  225.7992 H   0  0  0  0  0  0  0  0  0  0  0  0
  135.7185   69.8971  226.5454 H   0  0  0  0  0  0  0  0  0  0  0  0
  135.4258   72.3846  224.4676 H   0  0  0  0  0  0  0  0  0  0  0  0
  134.3607   74.5967  224.9086 H   0  0  0  0  0  0  0  0  0  0  0  0
  132.6050   74.8114  226.6719 H   0  0  0  0  0  0  0  0  0  0  0  0
  131.9083   72.8106  227.9911 H   0  0  0  0  0  0  0  0  0  0  0  0
  132.9642   70.5937  227.5552 H   0  0  0  0  0  0  0  0  0  0  0  0
  136.8364   71.5292  222.2387 H   0  0  0  0  0  0  0  0  0  0  0  0
  137.0771   72.7360  223.5174 H   0  0  0  0  0  0  0  0  0  0  0  0
  139.0033   72.1589  221.6554 H   0  0  0  0  0  0  0  0  0  0  0  0
  139.4367   72.6697  223.2887 H   0  0  0  0  0  0  0  0  0  0  0  0
  139.6425   69.9774  222.0207 H   0  0  0  0  0  0  0  0  0  0  0  0
  140.4735   70.5685  223.4663 H   0  0  0  0  0  0  0  0  0  0  0  0
  138.0955   68.8913  223.3028 H   0  0  0  0  0  0  0  0  0  0  0  0
  138.6555   67.1164  225.0210 H   0  0  0  0  0  0  0  0  0  0  0  0
  139.9060   67.0020  227.3010 H   0  0  0  0  0  0  0  0  0  0  0  0
  141.1350   68.7985  228.9628 H   0  0  0  0  0  0  0  0  0  0  0  0
  141.6921   71.2444  229.2069 H   0  0  0  0  0  0  0  0  0  0  0  0
  140.9821   72.8782  227.4459 H   0  0  0  0  0  0  0  0  0  0  0  0
  139.7116   72.0848  225.4218 H   0  0  0  0  0  0  0  0  0  0  0  0
  1  2  2  0
  2  3  2  0
  2  4  1  0
  4  5  1  0
  5  6  2  0
  6  7  1  0
  7  8  2  0
  8  9  1  0
  9 10  2  0
  2 11  1  0
 11 12  1  0
 12 13  1  0
 13 14  1  0
 14 15  1  0
 15 16  1  0
 16 17  2  0
 17 18  1  0
 18 19  1  0
 19 20  2  0
 20 21  1  0
 21 22  2  0
 22 23  1  0
 23 24  2  0
 10  5  1  0
 15 11  1  0
 24 16  1  0
 24 19  1  0
  4 25  1  0
  4 26  1  0
  6 27  1  0
  7 28  1  0
  8 29  1  0
  9 30  1  0
 10 31  1  0
 12 32  1  0
 12 33  1  0
 13 34  1  0
 13 35  1  0
 14 36  1  0
 14 37  1  0
 15 38  1  6
 17 39  1  0
 18 40  1  0
 20 41  1  0
 21 42  1  0
 22 43  1  0
 23 44  1  0
M  END
>  <UniqueID>  (29) 
218

>  <SMILES>  (29) 
O=S(=O)(Cc1ccccc1)N1CCC[C@H]1c1c[nH]c2ccccc12

>  <Energy>  (29) 
75.0694498518157

>  <Genealogy>  (29) 
O=S(=O)(Cc1ccccc1)N1CCC[C@H]1c1c[nH]c2ccccc12 (chirality)
O=S(=O)(Cc1ccccc1)N1CCC[C@H]1c1c[nH]c2ccccc12 (3D coordinates assigned)
O=S(=O)(Cc1ccccc1)N1CCC[C@H]1c1c[nH]c2ccccc12 (nonaromatic ring conformer: 75.0694498518157 kcal/mol)

>  <smiles>  (29) 
O=S(=O)(Cc1ccccc1)N1CCCC1c1c[nH]c2ccccc12

>  <score_type>  (29) 
oracle

>  <origin>  (29) 
autodockgpu

>  <m_score__min__energy>  (29) 
-7.7699999999999996

>  <m_primary>  (29) 
energy

>  <meeko>  (29) 
{"free_energy": -7.71, "intermolecular_energy": -8.91, "internal_energy": -1.36, "cluster_size": 3, "cluster_id": 1, "rank_in_cluster": 3}

>  <energy>  (29) 
-7.12

>  <cluster_rmsd>  (29) 
0.09

>  <rmsd>  (29) 
272.5

>  <cluster>  (29) 
2

$$$$
QHTAHHNEYOTCSC-IBGZPJMENA-N
     RDKit          3D

 44 47  0  0  0  0  0  0  0  0999 V2000
  142.4030   81.3260  224.1920 O   0  0  0  0  0  0  0  0  0  0  0  0
  142.5330   80.4060  223.0110 S   0  0  0  0  0  0  0  0  0  0  0  0
  143.9940   80.1310  222.7900 O   0  0  0  0  0  0  0  0  0  0  0  0
  141.7110   78.8620  223.4380 C   0  0  0  0  0  0  0  0  0  0  0  0
  140.2140   78.9690  223.3480 C   0  0  0  0  0  0  0  0  0  0  0  0
  139.4700   77.9560  222.7180 C   0  0  0  0  0  0  0  0  0  0  0  0
  138.0830   78.0750  222.5910 C   0  0  0  0  0  0  0  0  0  0  0  0
  137.4270   79.2010  223.0950 C   0  0  0  0  0  0  0  0  0  0  0  0
  138.1570   80.2090  223.7320 C   0  0  0  0  0  0  0  0  0  0  0  0
  139.5440   80.0940  223.8620 C   0  0  0  0  0  0  0  0  0  0  0  0
  141.8900   81.2340  221.6070 N   0  0  0  0  0  0  0  0  0  0  0  0
  141.1920   82.4720  221.9500 C   0  0  0  0  0  0  0  0  0  0  0  0
  140.1840   82.7180  220.8440 C   0  0  0  0  0  0  0  0  0  0  0  0
  139.8680   81.3440  220.2820 C   0  0  0  0  0  0  0  0  0  0  0  0
  140.9620   80.4140  220.8210 C   0  0  1  0  0  0  0  0  0  0  0  0
  141.6990   79.7140  219.7110 C   0  0  0  0  0  0  0  0  0  0  0  0
  142.2130   80.3160  218.5650 C   0  0  0  0  0  0  0  0  0  0  0  0
  142.8440   79.4040  217.7930 N   0  0  0  0  0  0  0  0  0  0  0  0
  142.7420   78.2320  218.4420 C   0  0  0  0  0  0  0  0  0  0  0  0
  143.2500   76.9980  218.0380 C   0  0  0  0  0  0  0  0  0  0  0  0
  143.0340   75.8910  218.8780 C   0  0  0  0  0  0  0  0  0  0  0  0
  142.3250   76.0400  220.0910 C   0  0  0  0  0  0  0  0  0  0  0  0
  141.8260   77.2970  220.4740 C   0  0  0  0  0  0  0  0  0  0  0  0
  142.0530   78.3780  219.6200 C   0  0  0  0  0  0  0  0  0  0  0  0
  142.0518   78.0769  222.7470 H   0  0  0  0  0  0  0  0  0  0  0  0
  141.9692   78.6200  224.4795 H   0  0  0  0  0  0  0  0  0  0  0  0
  139.9816   77.0658  222.3233 H   0  0  0  0  0  0  0  0  0  0  0  0
  137.5070   77.2808  222.0934 H   0  0  0  0  0  0  0  0  0  0  0  0
  136.3360   79.2944  222.9906 H   0  0  0  0  0  0  0  0  0  0  0  0
  137.6393   81.0936  224.1313 H   0  0  0  0  0  0  0  0  0  0  0  0
  140.1141   80.8868  224.3685 H   0  0  0  0  0  0  0  0  0  0  0  0
  140.6773   82.3630  222.9160 H   0  0  0  0  0  0  0  0  0  0  0  0
  141.8951   83.3129  222.0420 H   0  0  0  0  0  0  0  0  0  0  0  0
  139.2752   83.1882  221.2477 H   0  0  0  0  0  0  0  0  0  0  0  0
  140.5765   83.3975  220.0732 H   0  0  0  0  0  0  0  0  0  0  0  0
  138.8773   81.0087  220.6228 H   0  0  0  0  0  0  0  0  0  0  0  0
  139.8457   81.3503  219.1822 H   0  0  0  0  0  0  0  0  0  0  0  0
  140.5036   79.6292  221.4407 H   0  0  0  0  0  0  0  0  0  0  0  0
  142.1185   81.3847  218.3223 H   0  0  0  0  0  0  0  0  0  0  0  0
  143.3200   79.5810  216.8800 H   0  0  0  0  0  0  0  0  0  0  0  0
  143.8021   76.8937  217.0923 H   0  0  0  0  0  0  0  0  0  0  0  0
  143.4197   74.9023  218.5887 H   0  0  0  0  0  0  0  0  0  0  0  0
  142.1625   75.1667  220.7398 H   0  0  0  0  0  0  0  0  0  0  0  0
  141.2741   77.4250  221.4168 H   0  0  0  0  0  0  0  0  0  0  0  0
  1  2  2  0
  2  3  2  0
  2  4  1  0
  4  5  1  0
  5  6  2  0
  6  7  1  0
  7  8  2  0
  8  9  1  0
  9 10  2  0
  2 11  1  0
 11 12  1  0
 12 13  1  0
 13 14  1  0
 14 15  1  0
 15 16  1  0
 16 17  2  0
 17 18  1  0
 18 19  1  0
 19 20  2  0
 20 21  1  0
 21 22  2  0
 22 23  1  0
 23 24  2  0
 10  5  1  0
 15 11  1  0
 24 16  1  0
 24 19  1  0
  4 25  1  0
  4 26  1  0
  6 27  1  0
  7 28  1  0
  8 29  1  0
  9 30  1  0
 10 31  1  0
 12 32  1  0
 12 33  1  0
 13 34  1  0
 13 35  1  0
 14 36  1  0
 14 37  1  0
 15 38  1  1
 17 39  1  0
 18 40  1  0
 20 41  1  0
 21 42  1  0
 22 43  1  0
 23 44  1  0
M  END
>  <UniqueID>  (30) 
218

>  <SMILES>  (30) 
O=S(=O)(Cc1ccccc1)N1CCC[C@H]1c1c[nH]c2ccccc12

>  <Energy>  (30) 
75.0694498518157

>  <Genealogy>  (30) 
O=S(=O)(Cc1ccccc1)N1CCC[C@H]1c1c[nH]c2ccccc12 (chirality)
O=S(=O)(Cc1ccccc1)N1CCC[C@H]1c1c[nH]c2ccccc12 (3D coordinates assigned)
O=S(=O)(Cc1ccccc1)N1CCC[C@H]1c1c[nH]c2ccccc12 (nonaromatic ring conformer: 75.0694498518157 kcal/mol)

>  <smiles>  (30) 
O=S(=O)(Cc1ccccc1)N1CCCC1c1c[nH]c2ccccc12

>  <score_type>  (30) 
oracle

>  <origin>  (30) 
autodockgpu

>  <m_score__min__energy>  (30) 
-7.7699999999999996

>  <m_primary>  (30) 
energy

>  <meeko>  (30) 
{"free_energy": -7.12, "intermolecular_energy": -8.32, "internal_energy": -1.93, "cluster_size": 16, "cluster_id": 2, "rank_in_cluster": 6}

>  <energy>  (30) 
-7.12

>  <cluster_rmsd>  (30) 
0.05

>  <rmsd>  (30) 
272.49

>  <cluster>  (30) 
2

$$$$
QHTAHHNEYOTCSC-IBGZPJMENA-N
     RDKit          3D

 44 47  0  0  0  0  0  0  0  0999 V2000
  142.2890   81.5110  224.1900 O   0  0  0  0  0  0  0  0  0  0  0  0
  142.4100   80.5100  223.0760 S   0  0  0  0  0  0  0  0  0  0  0  0
  143.8590   80.1360  222.9390 O   0  0  0  0  0  0  0  0  0  0  0  0
  141.4770   79.0490  223.5620 C   0  0  0  0  0  0  0  0  0  0  0  0
  139.9920   79.2530  223.4390 C   0  0  0  0  0  0  0  0  0  0  0  0
  139.1880   78.2530  222.8660 C   0  0  0  0  0  0  0  0  0  0  0  0
  137.8140   78.4580  222.7060 C   0  0  0  0  0  0  0  0  0  0  0  0
  137.2330   79.6590  223.1210 C   0  0  0  0  0  0  0  0  0  0  0  0
  138.0230   80.6550  223.7000 C   0  0  0  0  0  0  0  0  0  0  0  0
  139.3970   80.4540  223.8630 C   0  0  0  0  0  0  0  0  0  0  0  0
  141.8780   81.2810  221.5950 N   0  0  0  0  0  0  0  0  0  0  0  0
  141.2560   82.5830  221.8270 C   0  0  0  0  0  0  0  0  0  0  0  0
  140.3090   82.8210  220.6660 C   0  0  0  0  0  0  0  0  0  0  0  0
  139.9180   81.4350  220.1840 C   0  0  0  0  0  0  0  0  0  0  0  0
  140.9240   80.4730  220.8280 C   0  0  1  0  0  0  0  0  0  0  0  0
  141.6510   79.6500  219.7980 C   0  0  0  0  0  0  0  0  0  0  0  0
  142.2810   80.1410  218.6580 C   0  0  0  0  0  0  0  0  0  0  0  0
  142.8640   79.1350  217.9680 N   0  0  0  0  0  0  0  0  0  0  0  0
  142.6140   78.0130  218.6650 C   0  0  0  0  0  0  0  0  0  0  0  0
  143.0230   76.7170  218.3500 C   0  0  0  0  0  0  0  0  0  0  0  0
  142.6570   75.6810  219.2280 C   0  0  0  0  0  0  0  0  0  0  0  0
  141.9010   75.9590  220.3870 C   0  0  0  0  0  0  0  0  0  0  0  0
  141.5040   77.2750  220.6800 C   0  0  0  0  0  0  0  0  0  0  0  0
  141.8790   78.2840  219.7920 C   0  0  0  0  0  0  0  0  0  0  0  0
  141.7734   78.2091  222.9164 H   0  0  0  0  0  0  0  0  0  0  0  0
  141.7019   78.8423  224.6187 H   0  0  0  0  0  0  0  0  0  0  0  0
  139.6415   77.3047  222.5419 H   0  0  0  0  0  0  0  0  0  0  0  0
  137.1902   77.6733  222.2531 H   0  0  0  0  0  0  0  0  0  0  0  0
  136.1526   79.8204  222.9917 H   0  0  0  0  0  0  0  0  0  0  0  0
  137.5634   81.5989  224.0282 H   0  0  0  0  0  0  0  0  0  0  0  0
  140.0146   81.2385  224.3247 H   0  0  0  0  0  0  0  0  0  0  0  0
  140.6994   82.5746  222.7758 H   0  0  0  0  0  0  0  0  0  0  0  0
  142.0123   83.3790  221.8930 H   0  0  0  0  0  0  0  0  0  0  0  0
  139.4214   83.3785  220.9997 H   0  0  0  0  0  0  0  0  0  0  0  0
  140.7760   83.4181  219.8689 H   0  0  0  0  0  0  0  0  0  0  0  0
  138.8946   81.1916  220.5055 H   0  0  0  0  0  0  0  0  0  0  0  0
  139.9361   81.3666  219.0863 H   0  0  0  0  0  0  0  0  0  0  0  0
  140.3893   79.7656  221.4789 H   0  0  0  0  0  0  0  0  0  0  0  0
  142.3017   81.1997  218.3601 H   0  0  0  0  0  0  0  0  0  0  0  0
  143.4040   79.2190  217.0780 H   0  0  0  0  0  0  0  0  0  0  0  0
  143.6126   76.5120  217.4443 H   0  0  0  0  0  0  0  0  0  0  0  0
  142.9621   74.6469  219.0099 H   0  0  0  0  0  0  0  0  0  0  0  0
  141.6206   75.1400  221.0657 H   0  0  0  0  0  0  0  0  0  0  0  0
  140.9159   77.5025  221.5813 H   0  0  0  0  0  0  0  0  0  0  0  0
  1  2  2  0
  2  3  2  0
  2  4  1  0
  4  5  1  0
  5  6  2  0
  6  7  1  0
  7  8  2  0
  8  9  1  0
  9 10  2  0
  2 11  1  0
 11 12  1  0
 12 13  1  0
 13 14  1  0
 14 15  1  0
 15 16  1  0
 16 17  2  0
 17 18  1  0
 18 19  1  0
 19 20  2  0
 20 21  1  0
 21 22  2  0
 22 23  1  0
 23 24  2  0
 10  5  1  0
 15 11  1  0
 24 16  1  0
 24 19  1  0
  4 25  1  0
  4 26  1  0
  6 27  1  0
  7 28  1  0
  8 29  1  0
  9 30  1  0
 10 31  1  0
 12 32  1  0
 12 33  1  0
 13 34  1  0
 13 35  1  0
 14 36  1  0
 14 37  1  0
 15 38  1  1
 17 39  1  0
 18 40  1  0
 20 41  1  0
 21 42  1  0
 22 43  1  0
 23 44  1  0
M  END
>  <UniqueID>  (31) 
218

>  <SMILES>  (31) 
O=S(=O)(Cc1ccccc1)N1CCC[C@H]1c1c[nH]c2ccccc12

>  <Energy>  (31) 
75.0694498518157

>  <Genealogy>  (31) 
O=S(=O)(Cc1ccccc1)N1CCC[C@H]1c1c[nH]c2ccccc12 (chirality)
O=S(=O)(Cc1ccccc1)N1CCC[C@H]1c1c[nH]c2ccccc12 (3D coordinates assigned)
O=S(=O)(Cc1ccccc1)N1CCC[C@H]1c1c[nH]c2ccccc12 (nonaromatic ring conformer: 75.0694498518157 kcal/mol)

>  <smiles>  (31) 
O=S(=O)(Cc1ccccc1)N1CCCC1c1c[nH]c2ccccc12

>  <score_type>  (31) 
oracle

>  <origin>  (31) 
autodockgpu

>  <m_score__min__energy>  (31) 
-7.7699999999999996

>  <m_primary>  (31) 
energy

>  <meeko>  (31) 
{"free_energy": -7.09, "intermolecular_energy": -8.28, "internal_energy": -1.94, "cluster_size": 16, "cluster_id": 2, "rank_in_cluster": 16}

>  <energy>  (31) 
-7.12

>  <cluster_rmsd>  (31) 
0.04

>  <rmsd>  (31) 
272.52

>  <cluster>  (31) 
2

$$$$
QHTAHHNEYOTCSC-IBGZPJMENA-N
     RDKit          3D

 44 47  0  0  0  0  0  0  0  0999 V2000
  142.3690   81.3600  224.1850 O   0  0  0  0  0  0  0  0  0  0  0  0
  142.5070   80.4400  223.0060 S   0  0  0  0  0  0  0  0  0  0  0  0
  143.9690   80.1500  222.8070 O   0  0  0  0  0  0  0  0  0  0  0  0
  141.6630   78.9050  223.4200 C   0  0  0  0  0  0  0  0  0  0  0  0
  140.1670   79.0360  223.3360 C   0  0  0  0  0  0  0  0  0  0  0  0
  139.4040   78.0320  222.7150 C   0  0  0  0  0  0  0  0  0  0  0  0
  138.0180   78.1730  222.5940 C   0  0  0  0  0  0  0  0  0  0  0  0
  137.3840   79.3130  223.0950 C   0  0  0  0  0  0  0  0  0  0  0  0
  138.1330   80.3120  223.7220 C   0  0  0  0  0  0  0  0  0  0  0  0
  139.5190   80.1750  223.8470 C   0  0  0  0  0  0  0  0  0  0  0  0
  141.8950   81.2750  221.5930 N   0  0  0  0  0  0  0  0  0  0  0  0
  141.2270   82.5320  221.9230 C   0  0  0  0  0  0  0  0  0  0  0  0
  140.2330   82.7980  220.8100 C   0  0  0  0  0  0  0  0  0  0  0  0
  139.8840   81.4290  220.2550 C   0  0  0  0  0  0  0  0  0  0  0  0
  140.9500   80.4740  220.8070 C   0  0  1  0  0  0  0  0  0  0  0  0
  141.6760   79.7480  219.7050 C   0  0  0  0  0  0  0  0  0  0  0  0
  142.2190   80.3300  218.5630 C   0  0  0  0  0  0  0  0  0  0  0  0
  142.8290   79.3960  217.7990 N   0  0  0  0  0  0  0  0  0  0  0  0
  142.6840   78.2300  218.4510 C   0  0  0  0  0  0  0  0  0  0  0  0
  143.1580   76.9800  218.0550 C   0  0  0  0  0  0  0  0  0  0  0  0
  142.9010   75.8830  218.8970 C   0  0  0  0  0  0  0  0  0  0  0  0
  142.1850   76.0580  220.1020 C   0  0  0  0  0  0  0  0  0  0  0  0
  141.7220   77.3310  220.4770 C   0  0  0  0  0  0  0  0  0  0  0  0
  141.9890   78.4010  219.6220 C   0  0  0  0  0  0  0  0  0  0  0  0
  141.9894   78.1218  222.7200 H   0  0  0  0  0  0  0  0  0  0  0  0
  141.9207   78.6485  224.4581 H   0  0  0  0  0  0  0  0  0  0  0  0
  139.8993   77.1316  222.3226 H   0  0  0  0  0  0  0  0  0  0  0  0
  137.4263   77.3858  222.1040 H   0  0  0  0  0  0  0  0  0  0  0  0
  136.2941   79.4240  222.9957 H   0  0  0  0  0  0  0  0  0  0  0  0
  137.6317   81.2075  224.1179 H   0  0  0  0  0  0  0  0  0  0  0  0
  140.1046   80.9608  224.3467 H   0  0  0  0  0  0  0  0  0  0  0  0
  140.7035   82.4423  222.8863 H   0  0  0  0  0  0  0  0  0  0  0  0
  141.9514   83.3548  222.0137 H   0  0  0  0  0  0  0  0  0  0  0  0
  139.3347   83.2948  221.2052 H   0  0  0  0  0  0  0  0  0  0  0  0
  140.6478   83.4621  220.0374 H   0  0  0  0  0  0  0  0  0  0  0  0
  138.8828   81.1223  220.5918 H   0  0  0  0  0  0  0  0  0  0  0  0
  139.8684   81.4284  219.1551 H   0  0  0  0  0  0  0  0  0  0  0  0
  140.4674   79.7057  221.4290 H   0  0  0  0  0  0  0  0  0  0  0  0
  142.1600   81.4004  218.3165 H   0  0  0  0  0  0  0  0  0  0  0  0
  143.3190   79.5560  216.8900 H   0  0  0  0  0  0  0  0  0  0  0  0
  143.7149   76.8558  217.1146 H   0  0  0  0  0  0  0  0  0  0  0  0
  143.2600   74.8821  218.6152 H   0  0  0  0  0  0  0  0  0  0  0  0
  141.9884   75.1921  220.7513 H   0  0  0  0  0  0  0  0  0  0  0  0
  141.1667   77.4791  221.4149 H   0  0  0  0  0  0  0  0  0  0  0  0
  1  2  2  0
  2  3  2  0
  2  4  1  0
  4  5  1  0
  5  6  2  0
  6  7  1  0
  7  8  2  0
  8  9  1  0
  9 10  2  0
  2 11  1  0
 11 12  1  0
 12 13  1  0
 13 14  1  0
 14 15  1  0
 15 16  1  0
 16 17  2  0
 17 18  1  0
 18 19  1  0
 19 20  2  0
 20 21  1  0
 21 22  2  0
 22 23  1  0
 23 24  2  0
 10  5  1  0
 15 11  1  0
 24 16  1  0
 24 19  1  0
  4 25  1  0
  4 26  1  0
  6 27  1  0
  7 28  1  0
  8 29  1  0
  9 30  1  0
 10 31  1  0
 12 32  1  0
 12 33  1  0
 13 34  1  0
 13 35  1  0
 14 36  1  0
 14 37  1  0
 15 38  1  1
 17 39  1  0
 18 40  1  0
 20 41  1  0
 21 42  1  0
 22 43  1  0
 23 44  1  0
M  END
>  <UniqueID>  (32) 
218

>  <SMILES>  (32) 
O=S(=O)(Cc1ccccc1)N1CCC[C@H]1c1c[nH]c2ccccc12

>  <Energy>  (32) 
75.0694498518157

>  <Genealogy>  (32) 
O=S(=O)(Cc1ccccc1)N1CCC[C@H]1c1c[nH]c2ccccc12 (chirality)
O=S(=O)(Cc1ccccc1)N1CCC[C@H]1c1c[nH]c2ccccc12 (3D coordinates assigned)
O=S(=O)(Cc1ccccc1)N1CCC[C@H]1c1c[nH]c2ccccc12 (nonaromatic ring conformer: 75.0694498518157 kcal/mol)

>  <smiles>  (32) 
O=S(=O)(Cc1ccccc1)N1CCCC1c1c[nH]c2ccccc12

>  <score_type>  (32) 
oracle

>  <origin>  (32) 
autodockgpu

>  <m_score__min__energy>  (32) 
-7.7699999999999996

>  <m_primary>  (32) 
energy

>  <meeko>  (32) 
{"free_energy": -7.12, "intermolecular_energy": -8.31, "internal_energy": -1.92, "cluster_size": 16, "cluster_id": 2, "rank_in_cluster": 7}

>  <energy>  (32) 
-7.12

>  <cluster_rmsd>  (32) 
0.02

>  <rmsd>  (32) 
272.49

>  <cluster>  (32) 
2

$$$$
QHTAHHNEYOTCSC-IBGZPJMENA-N
     RDKit          3D

 44 47  0  0  0  0  0  0  0  0999 V2000
  142.4410   81.3740  224.1820 O   0  0  0  0  0  0  0  0  0  0  0  0
  142.5660   80.4480  223.0050 S   0  0  0  0  0  0  0  0  0  0  0  0
  144.0240   80.1440  222.8020 O   0  0  0  0  0  0  0  0  0  0  0  0
  141.7090   78.9220  223.4270 C   0  0  0  0  0  0  0  0  0  0  0  0
  140.2140   79.0680  223.3510 C   0  0  0  0  0  0  0  0  0  0  0  0
  139.4370   78.0690  222.7390 C   0  0  0  0  0  0  0  0  0  0  0  0
  138.0520   78.2230  222.6250 C   0  0  0  0  0  0  0  0  0  0  0  0
  137.4320   79.3720  223.1240 C   0  0  0  0  0  0  0  0  0  0  0  0
  138.1950   80.3660  223.7420 C   0  0  0  0  0  0  0  0  0  0  0  0
  139.5800   80.2160  223.8600 C   0  0  0  0  0  0  0  0  0  0  0  0
  141.9560   81.2850  221.5920 N   0  0  0  0  0  0  0  0  0  0  0  0
  141.3080   82.5530  221.9200 C   0  0  0  0  0  0  0  0  0  0  0  0
  140.3110   82.8260  220.8110 C   0  0  0  0  0  0  0  0  0  0  0  0
  139.9400   81.4590  220.2650 C   0  0  0  0  0  0  0  0  0  0  0  0
  140.9960   80.4930  220.8150 C   0  0  1  0  0  0  0  0  0  0  0  0
  141.7050   79.7510  219.7130 C   0  0  0  0  0  0  0  0  0  0  0  0
  142.2410   80.3190  218.5610 C   0  0  0  0  0  0  0  0  0  0  0  0
  142.8360   79.3730  217.7990 N   0  0  0  0  0  0  0  0  0  0  0  0
  142.6880   78.2140  218.4630 C   0  0  0  0  0  0  0  0  0  0  0  0
  143.1470   76.9560  218.0730 C   0  0  0  0  0  0  0  0  0  0  0  0
  142.8880   75.8690  218.9270 C   0  0  0  0  0  0  0  0  0  0  0  0
  142.1860   76.0600  220.1370 C   0  0  0  0  0  0  0  0  0  0  0  0
  141.7370   77.3400  220.5050 C   0  0  0  0  0  0  0  0  0  0  0  0
  142.0050   78.4010  219.6390 C   0  0  0  0  0  0  0  0  0  0  0  0
  142.0237   78.1342  222.7268 H   0  0  0  0  0  0  0  0  0  0  0  0
  141.9700   78.6648  224.4642 H   0  0  0  0  0  0  0  0  0  0  0  0
  139.9209   77.1619  222.3480 H   0  0  0  0  0  0  0  0  0  0  0  0
  137.4498   77.4392  222.1422 H   0  0  0  0  0  0  0  0  0  0  0  0
  136.3428   79.4938  223.0301 H   0  0  0  0  0  0  0  0  0  0  0  0
  137.7050   81.2684  224.1365 H   0  0  0  0  0  0  0  0  0  0  0  0
  140.1760   80.9984  224.3526 H   0  0  0  0  0  0  0  0  0  0  0  0
  140.7893   82.4758  222.8869 H   0  0  0  0  0  0  0  0  0  0  0  0
  142.0440   83.3663  222.0026 H   0  0  0  0  0  0  0  0  0  0  0  0
  139.4218   83.3370  221.2087 H   0  0  0  0  0  0  0  0  0  0  0  0
  140.7305   83.4800  220.0324 H   0  0  0  0  0  0  0  0  0  0  0  0
  138.9368   81.1675  220.6096 H   0  0  0  0  0  0  0  0  0  0  0  0
  139.9174   81.4531  219.1652 H   0  0  0  0  0  0  0  0  0  0  0  0
  140.5070   79.7342  221.4436 H   0  0  0  0  0  0  0  0  0  0  0  0
  142.1881   81.3877  218.3059 H   0  0  0  0  0  0  0  0  0  0  0  0
  143.3180   79.5210  216.8840 H   0  0  0  0  0  0  0  0  0  0  0  0
  143.6937   76.8185  217.1284 H   0  0  0  0  0  0  0  0  0  0  0  0
  143.2349   74.8625  218.6502 H   0  0  0  0  0  0  0  0  0  0  0  0
  141.9892   75.2015  220.7959 H   0  0  0  0  0  0  0  0  0  0  0  0
  141.1912   77.5005  221.4465 H   0  0  0  0  0  0  0  0  0  0  0  0
  1  2  2  0
  2  3  2  0
  2  4  1  0
  4  5  1  0
  5  6  2  0
  6  7  1  0
  7  8  2  0
  8  9  1  0
  9 10  2  0
  2 11  1  0
 11 12  1  0
 12 13  1  0
 13 14  1  0
 14 15  1  0
 15 16  1  0
 16 17  2  0
 17 18  1  0
 18 19  1  0
 19 20  2  0
 20 21  1  0
 21 22  2  0
 22 23  1  0
 23 24  2  0
 10  5  1  0
 15 11  1  0
 24 16  1  0
 24 19  1  0
  4 25  1  0
  4 26  1  0
  6 27  1  0
  7 28  1  0
  8 29  1  0
  9 30  1  0
 10 31  1  0
 12 32  1  0
 12 33  1  0
 13 34  1  0
 13 35  1  0
 14 36  1  0
 14 37  1  0
 15 38  1  1
 17 39  1  0
 18 40  1  0
 20 41  1  0
 21 42  1  0
 22 43  1  0
 23 44  1  0
M  END
>  <UniqueID>  (33) 
218

>  <SMILES>  (33) 
O=S(=O)(Cc1ccccc1)N1CCC[C@H]1c1c[nH]c2ccccc12

>  <Energy>  (33) 
75.0694498518157

>  <Genealogy>  (33) 
O=S(=O)(Cc1ccccc1)N1CCC[C@H]1c1c[nH]c2ccccc12 (chirality)
O=S(=O)(Cc1ccccc1)N1CCC[C@H]1c1c[nH]c2ccccc12 (3D coordinates assigned)
O=S(=O)(Cc1ccccc1)N1CCC[C@H]1c1c[nH]c2ccccc12 (nonaromatic ring conformer: 75.0694498518157 kcal/mol)

>  <smiles>  (33) 
O=S(=O)(Cc1ccccc1)N1CCCC1c1c[nH]c2ccccc12

>  <score_type>  (33) 
oracle

>  <origin>  (33) 
autodockgpu

>  <m_score__min__energy>  (33) 
-7.7699999999999996

>  <m_primary>  (33) 
energy

>  <meeko>  (33) 
{"free_energy": -7.12, "intermolecular_energy": -8.31, "internal_energy": -1.92, "cluster_size": 16, "cluster_id": 2, "rank_in_cluster": 8}

>  <energy>  (33) 
-7.12

>  <cluster_rmsd>  (33) 
0.02

>  <rmsd>  (33) 
272.49

>  <cluster>  (33) 
2

$$$$
QHTAHHNEYOTCSC-IBGZPJMENA-N
     RDKit          3D

 44 47  0  0  0  0  0  0  0  0999 V2000
  142.3890   81.4190  224.1300 O   0  0  0  0  0  0  0  0  0  0  0  0
  142.5280   80.4450  222.9940 S   0  0  0  0  0  0  0  0  0  0  0  0
  143.9890   80.1410  222.8130 O   0  0  0  0  0  0  0  0  0  0  0  0
  141.6770   78.9330  223.4740 C   0  0  0  0  0  0  0  0  0  0  0  0
  140.1830   79.0590  223.3630 C   0  0  0  0  0  0  0  0  0  0  0  0
  139.4320   78.0460  222.7420 C   0  0  0  0  0  0  0  0  0  0  0  0
  138.0490   78.1820  222.5950 C   0  0  0  0  0  0  0  0  0  0  0  0
  137.4030   79.3270  223.0700 C   0  0  0  0  0  0  0  0  0  0  0  0
  138.1400   80.3350  223.6970 C   0  0  0  0  0  0  0  0  0  0  0  0
  139.5230   80.2030  223.8480 C   0  0  0  0  0  0  0  0  0  0  0  0
  141.9230   81.2170  221.5420 N   0  0  0  0  0  0  0  0  0  0  0  0
  141.2420   82.4810  221.8160 C   0  0  0  0  0  0  0  0  0  0  0  0
  140.2560   82.6930  220.6820 C   0  0  0  0  0  0  0  0  0  0  0  0
  139.9250   81.2990  220.1800 C   0  0  0  0  0  0  0  0  0  0  0  0
  140.9930   80.3770  220.7800 C   0  0  1  0  0  0  0  0  0  0  0  0
  141.7360   79.6140  219.7160 C   0  0  0  0  0  0  0  0  0  0  0  0
  142.3180   80.1590  218.5760 C   0  0  0  0  0  0  0  0  0  0  0  0
  142.9330   79.1980  217.8510 N   0  0  0  0  0  0  0  0  0  0  0  0
  142.7510   78.0500  218.5260 C   0  0  0  0  0  0  0  0  0  0  0  0
  143.2140   76.7830  218.1720 C   0  0  0  0  0  0  0  0  0  0  0  0
  142.9160   75.7110  219.0320 C   0  0  0  0  0  0  0  0  0  0  0  0
  142.1720   75.9260  220.2130 C   0  0  0  0  0  0  0  0  0  0  0  0
  141.7200   77.2150  220.5450 C   0  0  0  0  0  0  0  0  0  0  0  0
  142.0280   78.2600  219.6730 C   0  0  0  0  0  0  0  0  0  0  0  0
  142.0126   78.1152  222.8193 H   0  0  0  0  0  0  0  0  0  0  0  0
  141.9201   78.7300  224.5274 H   0  0  0  0  0  0  0  0  0  0  0  0
  139.9355   77.1416  222.3698 H   0  0  0  0  0  0  0  0  0  0  0  0
  137.4679   77.3870  222.1048 H   0  0  0  0  0  0  0  0  0  0  0  0
  136.3148   79.4345  222.9502 H   0  0  0  0  0  0  0  0  0  0  0  0
  137.6304   81.2346  224.0726 H   0  0  0  0  0  0  0  0  0  0  0  0
  140.0978   80.9965  224.3479 H   0  0  0  0  0  0  0  0  0  0  0  0
  140.7098   82.4255  222.7771 H   0  0  0  0  0  0  0  0  0  0  0  0
  141.9584   83.3132  221.8814 H   0  0  0  0  0  0  0  0  0  0  0  0
  139.3493   83.1971  221.0478 H   0  0  0  0  0  0  0  0  0  0  0  0
  140.6725   83.3292  219.8872 H   0  0  0  0  0  0  0  0  0  0  0  0
  138.9232   80.9971  220.5194 H   0  0  0  0  0  0  0  0  0  0  0  0
  139.9209   81.2538  219.0809 H   0  0  0  0  0  0  0  0  0  0  0  0
  140.5105   79.6301  221.4276 H   0  0  0  0  0  0  0  0  0  0  0  0
  142.2827   81.2239  218.3026 H   0  0  0  0  0  0  0  0  0  0  0  0
  143.4490   79.3280  216.9520 H   0  0  0  0  0  0  0  0  0  0  0  0
  143.7935   76.6273  217.2501 H   0  0  0  0  0  0  0  0  0  0  0  0
  143.2648   74.6979  218.7831 H   0  0  0  0  0  0  0  0  0  0  0  0
  141.9447   75.0793  220.8774 H   0  0  0  0  0  0  0  0  0  0  0  0
  141.1417   77.3943  221.4634 H   0  0  0  0  0  0  0  0  0  0  0  0
  1  2  2  0
  2  3  2  0
  2  4  1  0
  4  5  1  0
  5  6  2  0
  6  7  1  0
  7  8  2  0
  8  9  1  0
  9 10  2  0
  2 11  1  0
 11 12  1  0
 12 13  1  0
 13 14  1  0
 14 15  1  0
 15 16  1  0
 16 17  2  0
 17 18  1  0
 18 19  1  0
 19 20  2  0
 20 21  1  0
 21 22  2  0
 22 23  1  0
 23 24  2  0
 10  5  1  0
 15 11  1  0
 24 16  1  0
 24 19  1  0
  4 25  1  0
  4 26  1  0
  6 27  1  0
  7 28  1  0
  8 29  1  0
  9 30  1  0
 10 31  1  0
 12 32  1  0
 12 33  1  0
 13 34  1  0
 13 35  1  0
 14 36  1  0
 14 37  1  0
 15 38  1  1
 17 39  1  0
 18 40  1  0
 20 41  1  0
 21 42  1  0
 22 43  1  0
 23 44  1  0
M  END
>  <UniqueID>  (34) 
218

>  <SMILES>  (34) 
O=S(=O)(Cc1ccccc1)N1CCC[C@H]1c1c[nH]c2ccccc12

>  <Energy>  (34) 
75.0694498518157

>  <Genealogy>  (34) 
O=S(=O)(Cc1ccccc1)N1CCC[C@H]1c1c[nH]c2ccccc12 (chirality)
O=S(=O)(Cc1ccccc1)N1CCC[C@H]1c1c[nH]c2ccccc12 (3D coordinates assigned)
O=S(=O)(Cc1ccccc1)N1CCC[C@H]1c1c[nH]c2ccccc12 (nonaromatic ring conformer: 75.0694498518157 kcal/mol)

>  <smiles>  (34) 
O=S(=O)(Cc1ccccc1)N1CCCC1c1c[nH]c2ccccc12

>  <score_type>  (34) 
oracle

>  <origin>  (34) 
autodockgpu

>  <m_score__min__energy>  (34) 
-7.7699999999999996

>  <m_primary>  (34) 
energy

>  <meeko>  (34) 
{"free_energy": -7.11, "intermolecular_energy": -8.3, "internal_energy": -1.93, "cluster_size": 16, "cluster_id": 2, "rank_in_cluster": 11}

>  <energy>  (34) 
-7.11

>  <cluster_rmsd>  (34) 
0.13

>  <rmsd>  (34) 
272.49

>  <cluster>  (34) 
2

$$$$
QHTAHHNEYOTCSC-IBGZPJMENA-N
     RDKit          3D

 44 47  0  0  0  0  0  0  0  0999 V2000
  141.1880   76.5840  223.0150 O   0  0  0  0  0  0  0  0  0  0  0  0
  140.1000   76.2550  222.0330 S   0  0  0  0  0  0  0  0  0  0  0  0
  139.9660   74.7590  221.9670 O   0  0  0  0  0  0  0  0  0  0  0  0
  138.5670   76.9450  222.6760 C   0  0  0  0  0  0  0  0  0  0  0  0
  138.5740   78.4490  222.6740 C   0  0  0  0  0  0  0  0  0  0  0  0
  138.9940   79.1550  223.8160 C   0  0  0  0  0  0  0  0  0  0  0  0
  138.9570   80.5520  223.8340 C   0  0  0  0  0  0  0  0  0  0  0  0
  138.5060   81.2560  222.7150 C   0  0  0  0  0  0  0  0  0  0  0  0
  138.0950   80.5630  221.5720 C   0  0  0  0  0  0  0  0  0  0  0  0
  138.1310   79.1660  221.5490 C   0  0  0  0  0  0  0  0  0  0  0  0
  140.5900   76.8530  220.4610 N   0  0  0  0  0  0  0  0  0  0  0  0
  140.6010   75.8100  219.4370 C   0  0  0  0  0  0  0  0  0  0  0  0
  141.6040   76.2490  218.3870 C   0  0  0  0  0  0  0  0  0  0  0  0
  142.5880   77.1380  219.1260 C   0  0  0  0  0  0  0  0  0  0  0  0
  141.9190   77.4750  220.4630 C   0  0  1  0  0  0  0  0  0  0  0  0
  141.7960   78.9610  220.6690 C   0  0  0  0  0  0  0  0  0  0  0  0
  141.4090   79.8900  219.7060 C   0  0  0  0  0  0  0  0  0  0  0  0
  141.3720   81.1330  220.2350 N   0  0  0  0  0  0  0  0  0  0  0  0
  141.7240   81.0000  221.5250 C   0  0  0  0  0  0  0  0  0  0  0  0
  141.8210   82.0110  222.4810 C   0  0  0  0  0  0  0  0  0  0  0  0
  142.2020   81.6480  223.7850 C   0  0  0  0  0  0  0  0  0  0  0  0
  142.4730   80.2990  224.1020 C   0  0  0  0  0  0  0  0  0  0  0  0
  142.3660   79.3010  223.1190 C   0  0  0  0  0  0  0  0  0  0  0  0
  141.9880   79.6890  221.8320 C   0  0  0  0  0  0  0  0  0  0  0  0
  137.7318   76.5941  222.0520 H   0  0  0  0  0  0  0  0  0  0  0  0
  138.4577   76.6100  223.7180 H   0  0  0  0  0  0  0  0  0  0  0  0
  139.3530   78.6052  224.6985 H   0  0  0  0  0  0  0  0  0  0  0  0
  139.2837   81.0982  224.7312 H   0  0  0  0  0  0  0  0  0  0  0  0
  138.4741   82.3554  222.7329 H   0  0  0  0  0  0  0  0  0  0  0  0
  137.7430   81.1181  220.6900 H   0  0  0  0  0  0  0  0  0  0  0  0
  137.8111   78.6250  220.6462 H   0  0  0  0  0  0  0  0  0  0  0  0
  140.9067   74.8490  219.8764 H   0  0  0  0  0  0  0  0  0  0  0  0
  139.6014   75.6712  218.9993 H   0  0  0  0  0  0  0  0  0  0  0  0
  142.1190   75.3774  217.9568 H   0  0  0  0  0  0  0  0  0  0  0  0
  141.1209   76.7756  217.5508 H   0  0  0  0  0  0  0  0  0  0  0  0
  143.5351   76.6045  219.2947 H   0  0  0  0  0  0  0  0  0  0  0  0
  142.8266   78.0451  218.5513 H   0  0  0  0  0  0  0  0  0  0  0  0
  142.5361   77.0903  221.2884 H   0  0  0  0  0  0  0  0  0  0  0  0
  141.1673   79.6460  218.6610 H   0  0  0  0  0  0  0  0  0  0  0  0
  141.1140   82.0150  219.7380 H   0  0  0  0  0  0  0  0  0  0  0  0
  141.6064   83.0586  222.2232 H   0  0  0  0  0  0  0  0  0  0  0  0
  142.2895   82.4203  224.5634 H   0  0  0  0  0  0  0  0  0  0  0  0
  142.7700   80.0276  225.1258 H   0  0  0  0  0  0  0  0  0  0  0  0
  142.5735   78.2470  223.3558 H   0  0  0  0  0  0  0  0  0  0  0  0
  1  2  2  0
  2  3  2  0
  2  4  1  0
  4  5  1  0
  5  6  2  0
  6  7  1  0
  7  8  2  0
  8  9  1  0
  9 10  2  0
  2 11  1  0
 11 12  1  0
 12 13  1  0
 13 14  1  0
 14 15  1  0
 15 16  1  0
 16 17  2  0
 17 18  1  0
 18 19  1  0
 19 20  2  0
 20 21  1  0
 21 22  2  0
 22 23  1  0
 23 24  2  0
 10  5  1  0
 15 11  1  0
 24 16  1  0
 24 19  1  0
  4 25  1  0
  4 26  1  0
  6 27  1  0
  7 28  1  0
  8 29  1  0
  9 30  1  0
 10 31  1  0
 12 32  1  0
 12 33  1  0
 13 34  1  0
 13 35  1  0
 14 36  1  0
 14 37  1  0
 15 38  1  1
 17 39  1  0
 18 40  1  0
 20 41  1  0
 21 42  1  0
 22 43  1  0
 23 44  1  0
M  END
>  <UniqueID>  (35) 
218

>  <SMILES>  (35) 
O=S(=O)(Cc1ccccc1)N1CCC[C@H]1c1c[nH]c2ccccc12

>  <Energy>  (35) 
75.0694498518157

>  <Genealogy>  (35) 
O=S(=O)(Cc1ccccc1)N1CCC[C@H]1c1c[nH]c2ccccc12 (chirality)
O=S(=O)(Cc1ccccc1)N1CCC[C@H]1c1c[nH]c2ccccc12 (3D coordinates assigned)
O=S(=O)(Cc1ccccc1)N1CCC[C@H]1c1c[nH]c2ccccc12 (nonaromatic ring conformer: 75.0694498518157 kcal/mol)

>  <smiles>  (35) 
O=S(=O)(Cc1ccccc1)N1CCCC1c1c[nH]c2ccccc12

>  <score_type>  (35) 
oracle

>  <origin>  (35) 
autodockgpu

>  <m_score__min__energy>  (35) 
-7.7699999999999996

>  <m_primary>  (35) 
energy

>  <meeko>  (35) 
{"free_energy": -6.29, "intermolecular_energy": -7.48, "internal_energy": -2.53, "cluster_size": 1, "cluster_id": 3, "rank_in_cluster": 1}

>  <energy>  (35) 
-7.11

>  <cluster_rmsd>  (35) 
0.14

>  <rmsd>  (35) 
272.47

>  <cluster>  (35) 
2

$$$$
QHTAHHNEYOTCSC-IBGZPJMENA-N
     RDKit          3D

 44 47  0  0  0  0  0  0  0  0999 V2000
  142.4470   81.3710  224.1510 O   0  0  0  0  0  0  0  0  0  0  0  0
  142.5590   80.4370  222.9800 S   0  0  0  0  0  0  0  0  0  0  0  0
  144.0140   80.1320  222.7610 O   0  0  0  0  0  0  0  0  0  0  0  0
  141.7080   78.9130  223.4240 C   0  0  0  0  0  0  0  0  0  0  0  0
  140.2130   79.0480  223.3350 C   0  0  0  0  0  0  0  0  0  0  0  0
  139.4490   78.0460  222.7130 C   0  0  0  0  0  0  0  0  0  0  0  0
  138.0640   78.1900  222.5860 C   0  0  0  0  0  0  0  0  0  0  0  0
  137.4310   79.3330  223.0830 C   0  0  0  0  0  0  0  0  0  0  0  0
  138.1810   80.3300  223.7120 C   0  0  0  0  0  0  0  0  0  0  0  0
  139.5660   80.1900  223.8420 C   0  0  0  0  0  0  0  0  0  0  0  0
  141.9310   81.2620  221.5680 N   0  0  0  0  0  0  0  0  0  0  0  0
  141.2610   82.5180  221.8970 C   0  0  0  0  0  0  0  0  0  0  0  0
  140.2570   82.7740  220.7900 C   0  0  0  0  0  0  0  0  0  0  0  0
  139.9100   81.4000  220.2450 C   0  0  0  0  0  0  0  0  0  0  0  0
  140.9840   80.4530  220.7940 C   0  0  1  0  0  0  0  0  0  0  0  0
  141.7030   79.7240  219.6900 C   0  0  0  0  0  0  0  0  0  0  0  0
  142.2400   80.3030  218.5430 C   0  0  0  0  0  0  0  0  0  0  0  0
  142.8460   79.3670  217.7790 N   0  0  0  0  0  0  0  0  0  0  0  0
  142.7050   78.2030  218.4350 C   0  0  0  0  0  0  0  0  0  0  0  0
  143.1760   76.9510  218.0390 C   0  0  0  0  0  0  0  0  0  0  0  0
  142.9230   75.8560  218.8850 C   0  0  0  0  0  0  0  0  0  0  0  0
  142.2150   76.0350  220.0940 C   0  0  0  0  0  0  0  0  0  0  0  0
  141.7530   77.3090  220.4680 C   0  0  0  0  0  0  0  0  0  0  0  0
  142.0160   78.3770  219.6090 C   0  0  0  0  0  0  0  0  0  0  0  0
  142.0325   78.1145  222.7405 H   0  0  0  0  0  0  0  0  0  0  0  0
  141.9632   78.6766  224.4675 H   0  0  0  0  0  0  0  0  0  0  0  0
  139.9432   77.1435  222.3239 H   0  0  0  0  0  0  0  0  0  0  0  0
  137.4723   77.4035  222.0948 H   0  0  0  0  0  0  0  0  0  0  0  0
  136.3420   79.4475  222.9788 H   0  0  0  0  0  0  0  0  0  0  0  0
  137.6807   81.2270  224.1058 H   0  0  0  0  0  0  0  0  0  0  0  0
  140.1518   80.9752  224.3423 H   0  0  0  0  0  0  0  0  0  0  0  0
  140.7455   82.4314  222.8649 H   0  0  0  0  0  0  0  0  0  0  0  0
  141.9827   83.3442  221.9780 H   0  0  0  0  0  0  0  0  0  0  0  0
  139.3595   83.2689  221.1895 H   0  0  0  0  0  0  0  0  0  0  0  0
  140.6626   83.4360  220.0108 H   0  0  0  0  0  0  0  0  0  0  0  0
  138.9127   81.0907  220.5910 H   0  0  0  0  0  0  0  0  0  0  0  0
  139.8863   81.3933  219.1453 H   0  0  0  0  0  0  0  0  0  0  0  0
  140.5105   79.6861  221.4247 H   0  0  0  0  0  0  0  0  0  0  0  0
  142.1795   81.3726  218.2936 H   0  0  0  0  0  0  0  0  0  0  0  0
  143.3310   79.5240  216.8670 H   0  0  0  0  0  0  0  0  0  0  0  0
  143.7274   76.8242  217.0957 H   0  0  0  0  0  0  0  0  0  0  0  0
  143.2788   74.8540  218.6032 H   0  0  0  0  0  0  0  0  0  0  0  0
  142.0237   75.1712  220.7477 H   0  0  0  0  0  0  0  0  0  0  0  0
  141.2017   77.4593  221.4079 H   0  0  0  0  0  0  0  0  0  0  0  0
  1  2  2  0
  2  3  2  0
  2  4  1  0
  4  5  1  0
  5  6  2  0
  6  7  1  0
  7  8  2  0
  8  9  1  0
  9 10  2  0
  2 11  1  0
 11 12  1  0
 12 13  1  0
 13 14  1  0
 14 15  1  0
 15 16  1  0
 16 17  2  0
 17 18  1  0
 18 19  1  0
 19 20  2  0
 20 21  1  0
 21 22  2  0
 22 23  1  0
 23 24  2  0
 10  5  1  0
 15 11  1  0
 24 16  1  0
 24 19  1  0
  4 25  1  0
  4 26  1  0
  6 27  1  0
  7 28  1  0
  8 29  1  0
  9 30  1  0
 10 31  1  0
 12 32  1  0
 12 33  1  0
 13 34  1  0
 13 35  1  0
 14 36  1  0
 14 37  1  0
 15 38  1  1
 17 39  1  0
 18 40  1  0
 20 41  1  0
 21 42  1  0
 22 43  1  0
 23 44  1  0
M  END
>  <UniqueID>  (36) 
218

>  <SMILES>  (36) 
O=S(=O)(Cc1ccccc1)N1CCC[C@H]1c1c[nH]c2ccccc12

>  <Energy>  (36) 
75.0694498518157

>  <Genealogy>  (36) 
O=S(=O)(Cc1ccccc1)N1CCC[C@H]1c1c[nH]c2ccccc12 (chirality)
O=S(=O)(Cc1ccccc1)N1CCC[C@H]1c1c[nH]c2ccccc12 (3D coordinates assigned)
O=S(=O)(Cc1ccccc1)N1CCC[C@H]1c1c[nH]c2ccccc12 (nonaromatic ring conformer: 75.0694498518157 kcal/mol)

>  <smiles>  (36) 
O=S(=O)(Cc1ccccc1)N1CCCC1c1c[nH]c2ccccc12

>  <score_type>  (36) 
oracle

>  <origin>  (36) 
autodockgpu

>  <m_score__min__energy>  (36) 
-7.7699999999999996

>  <m_primary>  (36) 
energy

>  <meeko>  (36) 
{"free_energy": -7.12, "intermolecular_energy": -8.31, "internal_energy": -1.92, "cluster_size": 16, "cluster_id": 2, "rank_in_cluster": 9}

>  <energy>  (36) 
-7.1

>  <cluster_rmsd>  (36) 
0.12

>  <rmsd>  (36) 
272.49

>  <cluster>  (36) 
2

$$$$
QHTAHHNEYOTCSC-IBGZPJMENA-N
     RDKit          3D

 44 47  0  0  0  0  0  0  0  0999 V2000
  142.4190   81.3460  224.1630 O   0  0  0  0  0  0  0  0  0  0  0  0
  142.5400   80.4150  222.9900 S   0  0  0  0  0  0  0  0  0  0  0  0
  143.9990   80.1280  222.7690 O   0  0  0  0  0  0  0  0  0  0  0  0
  141.7070   78.8810  223.4300 C   0  0  0  0  0  0  0  0  0  0  0  0
  140.2100   79.0000  223.3440 C   0  0  0  0  0  0  0  0  0  0  0  0
  139.4570   77.9900  222.7210 C   0  0  0  0  0  0  0  0  0  0  0  0
  138.0700   78.1190  222.5980 C   0  0  0  0  0  0  0  0  0  0  0  0
  137.4250   79.2540  223.0980 C   0  0  0  0  0  0  0  0  0  0  0  0
  138.1650   80.2580  223.7270 C   0  0  0  0  0  0  0  0  0  0  0  0
  139.5510   80.1330  223.8540 C   0  0  0  0  0  0  0  0  0  0  0  0
  141.9020   81.2370  221.5800 N   0  0  0  0  0  0  0  0  0  0  0  0
  141.2180   82.4850  221.9130 C   0  0  0  0  0  0  0  0  0  0  0  0
  140.2100   82.7320  220.8080 C   0  0  0  0  0  0  0  0  0  0  0  0
  139.8770   81.3560  220.2600 C   0  0  0  0  0  0  0  0  0  0  0  0
  140.9630   80.4190  220.8050 C   0  0  1  0  0  0  0  0  0  0  0  0
  141.6900   79.7010  219.6990 C   0  0  0  0  0  0  0  0  0  0  0  0
  142.2160   80.2880  218.5510 C   0  0  0  0  0  0  0  0  0  0  0  0
  142.8320   79.3620  217.7840 N   0  0  0  0  0  0  0  0  0  0  0  0
  142.7080   78.1950  218.4390 C   0  0  0  0  0  0  0  0  0  0  0  0
  143.1950   76.9500  218.0410 C   0  0  0  0  0  0  0  0  0  0  0  0
  142.9580   75.8510  218.8870 C   0  0  0  0  0  0  0  0  0  0  0  0
  142.2500   76.0190  220.0970 C   0  0  0  0  0  0  0  0  0  0  0  0
  141.7730   77.2860  220.4730 C   0  0  0  0  0  0  0  0  0  0  0  0
  142.0200   78.3580  219.6150 C   0  0  0  0  0  0  0  0  0  0  0  0
  142.0390   78.0885  222.7432 H   0  0  0  0  0  0  0  0  0  0  0  0
  141.9667   78.6437  224.4722 H   0  0  0  0  0  0  0  0  0  0  0  0
  139.9607   77.0943  222.3285 H   0  0  0  0  0  0  0  0  0  0  0  0
  137.4859   77.3265  222.1073 H   0  0  0  0  0  0  0  0  0  0  0  0
  136.3345   79.3565  222.9961 H   0  0  0  0  0  0  0  0  0  0  0  0
  137.6556   81.1489  224.1232 H   0  0  0  0  0  0  0  0  0  0  0  0
  140.1288   80.9238  224.3548 H   0  0  0  0  0  0  0  0  0  0  0  0
  140.7047   82.3903  222.8813 H   0  0  0  0  0  0  0  0  0  0  0  0
  141.9304   83.3192  221.9951 H   0  0  0  0  0  0  0  0  0  0  0  0
  139.3077   83.2162  221.2098 H   0  0  0  0  0  0  0  0  0  0  0  0
  140.6077   83.3999  220.0297 H   0  0  0  0  0  0  0  0  0  0  0  0
  138.8838   81.0349  220.6069 H   0  0  0  0  0  0  0  0  0  0  0  0
  139.8512   81.3519  219.1603 H   0  0  0  0  0  0  0  0  0  0  0  0
  140.4982   79.6449  221.4333 H   0  0  0  0  0  0  0  0  0  0  0  0
  142.1405   81.3570  218.3031 H   0  0  0  0  0  0  0  0  0  0  0  0
  143.3130   79.5260  216.8720 H   0  0  0  0  0  0  0  0  0  0  0  0
  143.7464   76.8312  217.0966 H   0  0  0  0  0  0  0  0  0  0  0  0
  143.3268   74.8541  218.6038 H   0  0  0  0  0  0  0  0  0  0  0  0
  142.0706   75.1520  220.7498 H   0  0  0  0  0  0  0  0  0  0  0  0
  141.2220   77.4282  221.4144 H   0  0  0  0  0  0  0  0  0  0  0  0
  1  2  2  0
  2  3  2  0
  2  4  1  0
  4  5  1  0
  5  6  2  0
  6  7  1  0
  7  8  2  0
  8  9  1  0
  9 10  2  0
  2 11  1  0
 11 12  1  0
 12 13  1  0
 13 14  1  0
 14 15  1  0
 15 16  1  0
 16 17  2  0
 17 18  1  0
 18 19  1  0
 19 20  2  0
 20 21  1  0
 21 22  2  0
 22 23  1  0
 23 24  2  0
 10  5  1  0
 15 11  1  0
 24 16  1  0
 24 19  1  0
  4 25  1  0
  4 26  1  0
  6 27  1  0
  7 28  1  0
  8 29  1  0
  9 30  1  0
 10 31  1  0
 12 32  1  0
 12 33  1  0
 13 34  1  0
 13 35  1  0
 14 36  1  0
 14 37  1  0
 15 38  1  1
 17 39  1  0
 18 40  1  0
 20 41  1  0
 21 42  1  0
 22 43  1  0
 23 44  1  0
M  END
>  <UniqueID>  (37) 
218

>  <SMILES>  (37) 
O=S(=O)(Cc1ccccc1)N1CCC[C@H]1c1c[nH]c2ccccc12

>  <Energy>  (37) 
75.0694498518157

>  <Genealogy>  (37) 
O=S(=O)(Cc1ccccc1)N1CCC[C@H]1c1c[nH]c2ccccc12 (chirality)
O=S(=O)(Cc1ccccc1)N1CCC[C@H]1c1c[nH]c2ccccc12 (3D coordinates assigned)
O=S(=O)(Cc1ccccc1)N1CCC[C@H]1c1c[nH]c2ccccc12 (nonaromatic ring conformer: 75.0694498518157 kcal/mol)

>  <smiles>  (37) 
O=S(=O)(Cc1ccccc1)N1CCCC1c1c[nH]c2ccccc12

>  <score_type>  (37) 
oracle

>  <origin>  (37) 
autodockgpu

>  <m_score__min__energy>  (37) 
-7.7699999999999996

>  <m_primary>  (37) 
energy

>  <meeko>  (37) 
{"free_energy": -7.12, "intermolecular_energy": -8.32, "internal_energy": -1.93, "cluster_size": 16, "cluster_id": 2, "rank_in_cluster": 5}

>  <energy>  (37) 
-7.1

>  <cluster_rmsd>  (37) 
0.3

>  <rmsd>  (37) 
272.52

>  <cluster>  (37) 
2

$$$$
QHTAHHNEYOTCSC-IBGZPJMENA-N
     RDKit          3D

 44 47  0  0  0  0  0  0  0  0999 V2000
  142.4510   81.3800  224.1620 O   0  0  0  0  0  0  0  0  0  0  0  0
  142.5590   80.4470  222.9890 S   0  0  0  0  0  0  0  0  0  0  0  0
  144.0130   80.1390  222.7690 O   0  0  0  0  0  0  0  0  0  0  0  0
  141.7050   78.9260  223.4310 C   0  0  0  0  0  0  0  0  0  0  0  0
  140.2100   79.0630  223.3390 C   0  0  0  0  0  0  0  0  0  0  0  0
  139.4450   78.0620  222.7150 C   0  0  0  0  0  0  0  0  0  0  0  0
  138.0610   78.2090  222.5860 C   0  0  0  0  0  0  0  0  0  0  0  0
  137.4290   79.3530  223.0830 C   0  0  0  0  0  0  0  0  0  0  0  0
  138.1800   80.3480  223.7140 C   0  0  0  0  0  0  0  0  0  0  0  0
  139.5640   80.2050  223.8460 C   0  0  0  0  0  0  0  0  0  0  0  0
  141.9320   81.2770  221.5790 N   0  0  0  0  0  0  0  0  0  0  0  0
  141.2650   82.5330  221.9110 C   0  0  0  0  0  0  0  0  0  0  0  0
  140.2610   82.7930  220.8050 C   0  0  0  0  0  0  0  0  0  0  0  0
  139.9100   81.4210  220.2570 C   0  0  0  0  0  0  0  0  0  0  0  0
  140.9830   80.4710  220.8030 C   0  0  1  0  0  0  0  0  0  0  0  0
  141.7010   79.7420  219.6980 C   0  0  0  0  0  0  0  0  0  0  0  0
  142.2380   80.3230  218.5530 C   0  0  0  0  0  0  0  0  0  0  0  0
  142.8420   79.3870  217.7860 N   0  0  0  0  0  0  0  0  0  0  0  0
  142.6980   78.2210  218.4390 C   0  0  0  0  0  0  0  0  0  0  0  0
  143.1660   76.9700  218.0410 C   0  0  0  0  0  0  0  0  0  0  0  0
  142.9100   75.8730  218.8840 C   0  0  0  0  0  0  0  0  0  0  0  0
  142.2020   76.0510  220.0930 C   0  0  0  0  0  0  0  0  0  0  0  0
  141.7440   77.3250  220.4700 C   0  0  0  0  0  0  0  0  0  0  0  0
  142.0100   78.3950  219.6140 C   0  0  0  0  0  0  0  0  0  0  0  0
  142.0296   78.1269  222.7483 H   0  0  0  0  0  0  0  0  0  0  0  0
  141.9575   78.6897  224.4752 H   0  0  0  0  0  0  0  0  0  0  0  0
  139.9380   77.1587  222.3264 H   0  0  0  0  0  0  0  0  0  0  0  0
  137.4685   77.4241  222.0931 H   0  0  0  0  0  0  0  0  0  0  0  0
  136.3403   79.4696  222.9772 H   0  0  0  0  0  0  0  0  0  0  0  0
  137.6809   81.2457  224.1077 H   0  0  0  0  0  0  0  0  0  0  0  0
  140.1503   80.9885  224.3483 H   0  0  0  0  0  0  0  0  0  0  0  0
  140.7498   82.4453  222.8789 H   0  0  0  0  0  0  0  0  0  0  0  0
  141.9883   83.3577  221.9935 H   0  0  0  0  0  0  0  0  0  0  0  0
  139.3649   83.2892  221.2060 H   0  0  0  0  0  0  0  0  0  0  0  0
  140.6682   83.4552  220.0268 H   0  0  0  0  0  0  0  0  0  0  0  0
  138.9124   81.1130  220.6035 H   0  0  0  0  0  0  0  0  0  0  0  0
  139.8845   81.4167  219.1573 H   0  0  0  0  0  0  0  0  0  0  0  0
  140.5078   79.7035  221.4316 H   0  0  0  0  0  0  0  0  0  0  0  0
  142.1794   81.3934  218.3064 H   0  0  0  0  0  0  0  0  0  0  0  0
  143.3270   79.5450  216.8740 H   0  0  0  0  0  0  0  0  0  0  0  0
  143.7179   76.8443  217.0978 H   0  0  0  0  0  0  0  0  0  0  0  0
  143.2634   74.8708  218.5998 H   0  0  0  0  0  0  0  0  0  0  0  0
  142.0076   75.1861  220.7443 H   0  0  0  0  0  0  0  0  0  0  0  0
  141.1931   77.4743  221.4103 H   0  0  0  0  0  0  0  0  0  0  0  0
  1  2  2  0
  2  3  2  0
  2  4  1  0
  4  5  1  0
  5  6  2  0
  6  7  1  0
  7  8  2  0
  8  9  1  0
  9 10  2  0
  2 11  1  0
 11 12  1  0
 12 13  1  0
 13 14  1  0
 14 15  1  0
 15 16  1  0
 16 17  2  0
 17 18  1  0
 18 19  1  0
 19 20  2  0
 20 21  1  0
 21 22  2  0
 22 23  1  0
 23 24  2  0
 10  5  1  0
 15 11  1  0
 24 16  1  0
 24 19  1  0
  4 25  1  0
  4 26  1  0
  6 27  1  0
  7 28  1  0
  8 29  1  0
  9 30  1  0
 10 31  1  0
 12 32  1  0
 12 33  1  0
 13 34  1  0
 13 35  1  0
 14 36  1  0
 14 37  1  0
 15 38  1  1
 17 39  1  0
 18 40  1  0
 20 41  1  0
 21 42  1  0
 22 43  1  0
 23 44  1  0
M  END
>  <UniqueID>  (38) 
218

>  <SMILES>  (38) 
O=S(=O)(Cc1ccccc1)N1CCC[C@H]1c1c[nH]c2ccccc12

>  <Energy>  (38) 
75.0694498518157

>  <Genealogy>  (38) 
O=S(=O)(Cc1ccccc1)N1CCC[C@H]1c1c[nH]c2ccccc12 (chirality)
O=S(=O)(Cc1ccccc1)N1CCC[C@H]1c1c[nH]c2ccccc12 (3D coordinates assigned)
O=S(=O)(Cc1ccccc1)N1CCC[C@H]1c1c[nH]c2ccccc12 (nonaromatic ring conformer: 75.0694498518157 kcal/mol)

>  <smiles>  (38) 
O=S(=O)(Cc1ccccc1)N1CCCC1c1c[nH]c2ccccc12

>  <score_type>  (38) 
oracle

>  <origin>  (38) 
autodockgpu

>  <m_score__min__energy>  (38) 
-7.7699999999999996

>  <m_primary>  (38) 
energy

>  <meeko>  (38) 
{"free_energy": -7.13, "intermolecular_energy": -8.32, "internal_energy": -1.92, "cluster_size": 16, "cluster_id": 2, "rank_in_cluster": 2}

>  <energy>  (38) 
-7.09

>  <cluster_rmsd>  (38) 
0.33

>  <rmsd>  (38) 
272.53

>  <cluster>  (38) 
2

$$$$
QHTAHHNEYOTCSC-IBGZPJMENA-N
     RDKit          3D

 44 47  0  0  0  0  0  0  0  0999 V2000
  142.4510   81.3690  224.1440 O   0  0  0  0  0  0  0  0  0  0  0  0
  142.5640   80.4320  222.9750 S   0  0  0  0  0  0  0  0  0  0  0  0
  144.0190   80.1230  222.7610 O   0  0  0  0  0  0  0  0  0  0  0  0
  141.7080   78.9110  223.4190 C   0  0  0  0  0  0  0  0  0  0  0  0
  140.2130   79.0520  223.3340 C   0  0  0  0  0  0  0  0  0  0  0  0
  139.4430   78.0500  222.7190 C   0  0  0  0  0  0  0  0  0  0  0  0
  138.0590   78.1990  222.5960 C   0  0  0  0  0  0  0  0  0  0  0  0
  137.4320   79.3470  223.0890 C   0  0  0  0  0  0  0  0  0  0  0  0
  138.1880   80.3440  223.7110 C   0  0  0  0  0  0  0  0  0  0  0  0
  139.5720   80.1980  223.8380 C   0  0  0  0  0  0  0  0  0  0  0  0
  141.9420   81.2560  221.5590 N   0  0  0  0  0  0  0  0  0  0  0  0
  141.2840   82.5200  221.8830 C   0  0  0  0  0  0  0  0  0  0  0  0
  140.2810   82.7790  220.7760 C   0  0  0  0  0  0  0  0  0  0  0  0
  139.9200   81.4060  220.2390 C   0  0  0  0  0  0  0  0  0  0  0  0
  140.9860   80.4520  220.7900 C   0  0  1  0  0  0  0  0  0  0  0  0
  141.6970   79.7100  219.6900 C   0  0  0  0  0  0  0  0  0  0  0  0
  142.2350   80.2780  218.5380 C   0  0  0  0  0  0  0  0  0  0  0  0
  142.8320   79.3330  217.7780 N   0  0  0  0  0  0  0  0  0  0  0  0
  142.6840   78.1740  218.4410 C   0  0  0  0  0  0  0  0  0  0  0  0
  143.1450   76.9160  218.0530 C   0  0  0  0  0  0  0  0  0  0  0  0
  142.8860   75.8290  218.9070 C   0  0  0  0  0  0  0  0  0  0  0  0
  142.1820   76.0200  220.1160 C   0  0  0  0  0  0  0  0  0  0  0  0
  141.7310   77.3000  220.4820 C   0  0  0  0  0  0  0  0  0  0  0  0
  141.9990   78.3610  219.6160 C   0  0  0  0  0  0  0  0  0  0  0  0
  142.0276   78.1122  222.7336 H   0  0  0  0  0  0  0  0  0  0  0  0
  141.9648   78.6722  224.4616 H   0  0  0  0  0  0  0  0  0  0  0  0
  139.9323   77.1438  222.3325 H   0  0  0  0  0  0  0  0  0  0  0  0
  137.4625   77.4123  222.1109 H   0  0  0  0  0  0  0  0  0  0  0  0
  136.3432   79.4655  222.9873 H   0  0  0  0  0  0  0  0  0  0  0  0
  137.6929   81.2454  224.1014 H   0  0  0  0  0  0  0  0  0  0  0  0
  140.1624   80.9824  224.3341 H   0  0  0  0  0  0  0  0  0  0  0  0
  140.7691   82.4430  222.8520 H   0  0  0  0  0  0  0  0  0  0  0  0
  142.0132   83.3401  221.9592 H   0  0  0  0  0  0  0  0  0  0  0  0
  139.3889   83.2846  221.1740 H   0  0  0  0  0  0  0  0  0  0  0  0
  140.6921   83.4325  219.9925 H   0  0  0  0  0  0  0  0  0  0  0  0
  138.9207   81.1078  220.5889 H   0  0  0  0  0  0  0  0  0  0  0  0
  139.8936   81.3940  219.1394 H   0  0  0  0  0  0  0  0  0  0  0  0
  140.5055   79.6926  221.4243 H   0  0  0  0  0  0  0  0  0  0  0  0
  142.1816   81.3465  218.2822 H   0  0  0  0  0  0  0  0  0  0  0  0
  143.3150   79.4800  216.8640 H   0  0  0  0  0  0  0  0  0  0  0  0
  143.6935   76.7785  217.1094 H   0  0  0  0  0  0  0  0  0  0  0  0
  143.2344   74.8228  218.6311 H   0  0  0  0  0  0  0  0  0  0  0  0
  141.9853   75.1618  220.7755 H   0  0  0  0  0  0  0  0  0  0  0  0
  141.1835   77.4605  221.4224 H   0  0  0  0  0  0  0  0  0  0  0  0
  1  2  2  0
  2  3  2  0
  2  4  1  0
  4  5  1  0
  5  6  2  0
  6  7  1  0
  7  8  2  0
  8  9  1  0
  9 10  2  0
  2 11  1  0
 11 12  1  0
 12 13  1  0
 13 14  1  0
 14 15  1  0
 15 16  1  0
 16 17  2  0
 17 18  1  0
 18 19  1  0
 19 20  2  0
 20 21  1  0
 21 22  2  0
 22 23  1  0
 23 24  2  0
 10  5  1  0
 15 11  1  0
 24 16  1  0
 24 19  1  0
  4 25  1  0
  4 26  1  0
  6 27  1  0
  7 28  1  0
  8 29  1  0
  9 30  1  0
 10 31  1  0
 12 32  1  0
 12 33  1  0
 13 34  1  0
 13 35  1  0
 14 36  1  0
 14 37  1  0
 15 38  1  1
 17 39  1  0
 18 40  1  0
 20 41  1  0
 21 42  1  0
 22 43  1  0
 23 44  1  0
M  END
>  <UniqueID>  (39) 
218

>  <SMILES>  (39) 
O=S(=O)(Cc1ccccc1)N1CCC[C@H]1c1c[nH]c2ccccc12

>  <Energy>  (39) 
75.0694498518157

>  <Genealogy>  (39) 
O=S(=O)(Cc1ccccc1)N1CCC[C@H]1c1c[nH]c2ccccc12 (chirality)
O=S(=O)(Cc1ccccc1)N1CCC[C@H]1c1c[nH]c2ccccc12 (3D coordinates assigned)
O=S(=O)(Cc1ccccc1)N1CCC[C@H]1c1c[nH]c2ccccc12 (nonaromatic ring conformer: 75.0694498518157 kcal/mol)

>  <smiles>  (39) 
O=S(=O)(Cc1ccccc1)N1CCCC1c1c[nH]c2ccccc12

>  <score_type>  (39) 
oracle

>  <origin>  (39) 
autodockgpu

>  <m_score__min__energy>  (39) 
-7.7699999999999996

>  <m_primary>  (39) 
energy

>  <meeko>  (39) 
{"free_energy": -7.12, "intermolecular_energy": -8.31, "internal_energy": -1.92, "cluster_size": 16, "cluster_id": 2, "rank_in_cluster": 10}

>  <energy>  (39) 
-7.09

>  <cluster_rmsd>  (39) 
0.29

>  <rmsd>  (39) 
272.53

>  <cluster>  (39) 
2

$$$$
QHTAHHNEYOTCSC-IBGZPJMENA-N
     RDKit          3D

 44 47  0  0  0  0  0  0  0  0999 V2000
  135.7930   68.8740  225.3310 O   0  0  0  0  0  0  0  0  0  0  0  0
  135.9710   69.5450  223.9980 S   0  0  0  0  0  0  0  0  0  0  0  0
  136.0440   68.4770  222.9420 O   0  0  0  0  0  0  0  0  0  0  0  0
  134.5100   70.5530  223.7020 C   0  0  0  0  0  0  0  0  0  0  0  0
  134.0840   71.3150  224.9280 C   0  0  0  0  0  0  0  0  0  0  0  0
  133.5390   70.6320  226.0290 C   0  0  0  0  0  0  0  0  0  0  0  0
  133.0980   71.3410  227.1510 C   0  0  0  0  0  0  0  0  0  0  0  0
  133.2040   72.7340  227.1840 C   0  0  0  0  0  0  0  0  0  0  0  0
  133.7530   73.4200  226.0980 C   0  0  0  0  0  0  0  0  0  0  0  0
  134.1960   72.7160  224.9750 C   0  0  0  0  0  0  0  0  0  0  0  0
  137.4900   70.4180  224.0310 N   0  0  0  0  0  0  0  0  0  0  0  0
  137.5570   71.4750  223.0250 C   0  0  0  0  0  0  0  0  0  0  0  0
  139.0270   71.6840  222.7160 C   0  0  0  0  0  0  0  0  0  0  0  0
  139.6890   70.3520  223.0220 C   0  0  0  0  0  0  0  0  0  0  0  0
  138.6610   69.5560  223.8350 C   0  0  1  0  0  0  0  0  0  0  0  0
  139.2150   69.1210  225.1660 C   0  0  0  0  0  0  0  0  0  0  0  0
  139.2100   67.8220  225.6680 C   0  0  0  0  0  0  0  0  0  0  0  0
  139.8160   67.7780  226.8750 N   0  0  0  0  0  0  0  0  0  0  0  0
  140.2110   69.0360  227.1390 C   0  0  0  0  0  0  0  0  0  0  0  0
  140.8910   69.4840  228.2710 C   0  0  0  0  0  0  0  0  0  0  0  0
  141.2180   70.8510  228.3430 C   0  0  0  0  0  0  0  0  0  0  0  0
  140.8630   71.7270  227.2930 C   0  0  0  0  0  0  0  0  0  0  0  0
  140.1800   71.2460  226.1630 C   0  0  0  0  0  0  0  0  0  0  0  0
  139.8660   69.8860  226.1190 C   0  0  0  0  0  0  0  0  0  0  0  0
  134.7323   71.2709  222.8988 H   0  0  0  0  0  0  0  0  0  0  0  0
  133.6871   69.8789  223.4218 H   0  0  0  0  0  0  0  0  0  0  0  0
  133.4590   69.5351  226.0081 H   0  0  0  0  0  0  0  0  0  0  0  0
  132.6676   70.8019  228.0078 H   0  0  0  0  0  0  0  0  0  0  0  0
  132.8548   73.2909  228.0660 H   0  0  0  0  0  0  0  0  0  0  0  0
  133.8368   74.5164  226.1268 H   0  0  0  0  0  0  0  0  0  0  0  0
  134.6338   73.2597  224.1249 H   0  0  0  0  0  0  0  0  0  0  0  0
  137.0176   71.1694  222.1164 H   0  0  0  0  0  0  0  0  0  0  0  0
  137.0921   72.4022  223.3912 H   0  0  0  0  0  0  0  0  0  0  0  0
  139.1651   71.9497  221.6576 H   0  0  0  0  0  0  0  0  0  0  0  0
  139.4597   72.5046  223.3070 H   0  0  0  0  0  0  0  0  0  0  0  0
  139.9342   69.8222  222.0897 H   0  0  0  0  0  0  0  0  0  0  0  0
  140.6307   70.4837  223.5751 H   0  0  0  0  0  0  0  0  0  0  0  0
  138.3919   68.6397  223.2891 H   0  0  0  0  0  0  0  0  0  0  0  0
  138.7737   66.9530  225.1537 H   0  0  0  0  0  0  0  0  0  0  0  0
  139.9540   66.9340  227.4740 H   0  0  0  0  0  0  0  0  0  0  0  0
  141.1630   68.7915  229.0813 H   0  0  0  0  0  0  0  0  0  0  0  0
  141.7531   71.2396  229.2220 H   0  0  0  0  0  0  0  0  0  0  0  0
  141.1232   72.7936  227.3605 H   0  0  0  0  0  0  0  0  0  0  0  0
  139.9015   71.9195  225.3391 H   0  0  0  0  0  0  0  0  0  0  0  0
  1  2  2  0
  2  3  2  0
  2  4  1  0
  4  5  1  0
  5  6  2  0
  6  7  1  0
  7  8  2  0
  8  9  1  0
  9 10  2  0
  2 11  1  0
 11 12  1  0
 12 13  1  0
 13 14  1  0
 14 15  1  0
 15 16  1  0
 16 17  2  0
 17 18  1  0
 18 19  1  0
 19 20  2  0
 20 21  1  0
 21 22  2  0
 22 23  1  0
 23 24  2  0
 10  5  1  0
 15 11  1  0
 24 16  1  0
 24 19  1  0
  4 25  1  0
  4 26  1  0
  6 27  1  0
  7 28  1  0
  8 29  1  0
  9 30  1  0
 10 31  1  0
 12 32  1  0
 12 33  1  0
 13 34  1  0
 13 35  1  0
 14 36  1  0
 14 37  1  0
 15 38  1  6
 17 39  1  0
 18 40  1  0
 20 41  1  0
 21 42  1  0
 22 43  1  0
 23 44  1  0
M  END
>  <UniqueID>  (40) 
218

>  <SMILES>  (40) 
O=S(=O)(Cc1ccccc1)N1CCC[C@H]1c1c[nH]c2ccccc12

>  <Energy>  (40) 
75.0694498518157

>  <Genealogy>  (40) 
O=S(=O)(Cc1ccccc1)N1CCC[C@H]1c1c[nH]c2ccccc12 (chirality)
O=S(=O)(Cc1ccccc1)N1CCC[C@H]1c1c[nH]c2ccccc12 (3D coordinates assigned)
O=S(=O)(Cc1ccccc1)N1CCC[C@H]1c1c[nH]c2ccccc12 (nonaromatic ring conformer: 75.0694498518157 kcal/mol)

>  <smiles>  (40) 
O=S(=O)(Cc1ccccc1)N1CCCC1c1c[nH]c2ccccc12

>  <score_type>  (40) 
oracle

>  <origin>  (40) 
autodockgpu

>  <m_score__min__energy>  (40) 
-7.7699999999999996

>  <m_primary>  (40) 
energy

>  <meeko>  (40) 
{"free_energy": -7.77, "intermolecular_energy": -8.96, "internal_energy": -1.34, "cluster_size": 3, "cluster_id": 1, "rank_in_cluster": 1}

>  <energy>  (40) 
-6.29

>  <cluster_rmsd>  (40) 
0.0

>  <rmsd>  (40) 
272.48

>  <cluster>  (40) 
3

$$$$
QHTAHHNEYOTCSC-IBGZPJMENA-N
     RDKit          3D

 44 47  0  0  0  0  0  0  0  0999 V2000
  142.4520   81.3640  224.1610 O   0  0  0  0  0  0  0  0  0  0  0  0
  142.5670   80.4340  222.9880 S   0  0  0  0  0  0  0  0  0  0  0  0
  144.0240   80.1310  222.7720 O   0  0  0  0  0  0  0  0  0  0  0  0
  141.7170   78.9090  223.4230 C   0  0  0  0  0  0  0  0  0  0  0  0
  140.2210   79.0440  223.3350 C   0  0  0  0  0  0  0  0  0  0  0  0
  139.4570   78.0410  222.7150 C   0  0  0  0  0  0  0  0  0  0  0  0
  138.0720   78.1860  222.5890 C   0  0  0  0  0  0  0  0  0  0  0  0
  137.4400   79.3290  223.0840 C   0  0  0  0  0  0  0  0  0  0  0  0
  138.1900   80.3270  223.7110 C   0  0  0  0  0  0  0  0  0  0  0  0
  139.5750   80.1860  223.8400 C   0  0  0  0  0  0  0  0  0  0  0  0
  141.9430   81.2640  221.5760 N   0  0  0  0  0  0  0  0  0  0  0  0
  141.2820   82.5240  221.9060 C   0  0  0  0  0  0  0  0  0  0  0  0
  140.2780   82.7870  220.8010 C   0  0  0  0  0  0  0  0  0  0  0  0
  139.9210   81.4160  220.2570 C   0  0  0  0  0  0  0  0  0  0  0  0
  140.9890   80.4610  220.8030 C   0  0  1  0  0  0  0  0  0  0  0  0
  141.7020   79.7270  219.6990 C   0  0  0  0  0  0  0  0  0  0  0  0
  142.2390   80.3020  218.5500 C   0  0  0  0  0  0  0  0  0  0  0  0
  142.8380   79.3620  217.7850 N   0  0  0  0  0  0  0  0  0  0  0  0
  142.6920   78.1990  218.4420 C   0  0  0  0  0  0  0  0  0  0  0  0
  143.1550   76.9450  218.0470 C   0  0  0  0  0  0  0  0  0  0  0  0
  142.8990   75.8520  218.8950 C   0  0  0  0  0  0  0  0  0  0  0  0
  142.1940   76.0360  220.1050 C   0  0  0  0  0  0  0  0  0  0  0  0
  141.7400   77.3130  220.4780 C   0  0  0  0  0  0  0  0  0  0  0  0
  142.0070   78.3780  219.6180 C   0  0  0  0  0  0  0  0  0  0  0  0
  142.0416   78.1145  222.7350 H   0  0  0  0  0  0  0  0  0  0  0  0
  141.9723   78.6669  224.4652 H   0  0  0  0  0  0  0  0  0  0  0  0
  139.9506   77.1378  222.3270 H   0  0  0  0  0  0  0  0  0  0  0  0
  137.4795   77.3990  222.0995 H   0  0  0  0  0  0  0  0  0  0  0  0
  136.3509   79.4434  222.9801 H   0  0  0  0  0  0  0  0  0  0  0  0
  137.6903   81.2248  224.1037 H   0  0  0  0  0  0  0  0  0  0  0  0
  140.1616   80.9717  224.3386 H   0  0  0  0  0  0  0  0  0  0  0  0
  140.7675   82.4407  222.8747 H   0  0  0  0  0  0  0  0  0  0  0  0
  142.0094   83.3453  221.9857 H   0  0  0  0  0  0  0  0  0  0  0  0
  139.3846   83.2880  221.2021 H   0  0  0  0  0  0  0  0  0  0  0  0
  140.6866   83.4464  220.0211 H   0  0  0  0  0  0  0  0  0  0  0  0
  138.9223   81.1136  220.6050 H   0  0  0  0  0  0  0  0  0  0  0  0
  139.8955   81.4100  219.1573 H   0  0  0  0  0  0  0  0  0  0  0  0
  140.5105   79.6967  221.4330 H   0  0  0  0  0  0  0  0  0  0  0  0
  142.1835   81.3717  218.2998 H   0  0  0  0  0  0  0  0  0  0  0  0
  143.3210   79.5160  216.8720 H   0  0  0  0  0  0  0  0  0  0  0  0
  143.7031   76.8141  217.1023 H   0  0  0  0  0  0  0  0  0  0  0  0
  143.2500   74.8481  218.6140 H   0  0  0  0  0  0  0  0  0  0  0  0
  141.9989   75.1741  220.7600 H   0  0  0  0  0  0  0  0  0  0  0  0
  141.1913   77.4675  221.4188 H   0  0  0  0  0  0  0  0  0  0  0  0
  1  2  2  0
  2  3  2  0
  2  4  1  0
  4  5  1  0
  5  6  2  0
  6  7  1  0
  7  8  2  0
  8  9  1  0
  9 10  2  0
  2 11  1  0
 11 12  1  0
 12 13  1  0
 13 14  1  0
 14 15  1  0
 15 16  1  0
 16 17  2  0
 17 18  1  0
 18 19  1  0
 19 20  2  0
 20 21  1  0
 21 22  2  0
 22 23  1  0
 23 24  2  0
 10  5  1  0
 15 11  1  0
 24 16  1  0
 24 19  1  0
  4 25  1  0
  4 26  1  0
  6 27  1  0
  7 28  1  0
  8 29  1  0
  9 30  1  0
 10 31  1  0
 12 32  1  0
 12 33  1  0
 13 34  1  0
 13 35  1  0
 14 36  1  0
 14 37  1  0
 15 38  1  1
 17 39  1  0
 18 40  1  0
 20 41  1  0
 21 42  1  0
 22 43  1  0
 23 44  1  0
M  END
>  <UniqueID>  (41) 
219

>  <SMILES>  (41) 
O=S(=O)(Cc1ccccc1)N1CCC[C@H]1c1c[nH]c2ccccc12

>  <Energy>  (41) 
75.68602208483318

>  <Genealogy>  (41) 
O=S(=O)(Cc1ccccc1)N1CCC[C@H]1c1c[nH]c2ccccc12 (chirality)
O=S(=O)(Cc1ccccc1)N1CCC[C@H]1c1c[nH]c2ccccc12 (3D coordinates assigned)
O=S(=O)(Cc1ccccc1)N1CCC[C@H]1c1c[nH]c2ccccc12 (nonaromatic ring conformer: 75.68602208483318 kcal/mol)

>  <smiles>  (41) 
O=S(=O)(Cc1ccccc1)N1CCCC1c1c[nH]c2ccccc12

>  <score_type>  (41) 
oracle

>  <origin>  (41) 
autodockgpu

>  <m_score__min__energy>  (41) 
-7.7699999999999996

>  <m_primary>  (41) 
energy

>  <meeko>  (41) 
{"free_energy": -7.13, "intermolecular_energy": -8.32, "internal_energy": -1.92, "cluster_size": 16, "cluster_id": 2, "rank_in_cluster": 1}

>  <energy>  (41) 
-7.77

>  <cluster_rmsd>  (41) 
0.0

>  <rmsd>  (41) 
271.66

>  <cluster>  (41) 
1

$$$$
QHTAHHNEYOTCSC-IBGZPJMENA-N
     RDKit          3D

 44 47  0  0  0  0  0  0  0  0999 V2000
  142.3270   81.4090  224.1600 O   0  0  0  0  0  0  0  0  0  0  0  0
  142.4700   80.4500  223.0130 S   0  0  0  0  0  0  0  0  0  0  0  0
  143.9310   80.1430  222.8390 O   0  0  0  0  0  0  0  0  0  0  0  0
  141.6100   78.9350  223.4660 C   0  0  0  0  0  0  0  0  0  0  0  0
  140.1150   79.0780  223.3710 C   0  0  0  0  0  0  0  0  0  0  0  0
  139.3480   78.0760  222.7510 C   0  0  0  0  0  0  0  0  0  0  0  0
  137.9650   78.2270  222.6190 C   0  0  0  0  0  0  0  0  0  0  0  0
  137.3360   79.3760  223.1070 C   0  0  0  0  0  0  0  0  0  0  0  0
  138.0890   80.3730  223.7330 C   0  0  0  0  0  0  0  0  0  0  0  0
  139.4720   80.2250  223.8690 C   0  0  0  0  0  0  0  0  0  0  0  0
  141.8800   81.2440  221.5670 N   0  0  0  0  0  0  0  0  0  0  0  0
  141.2210   82.5180  221.8500 C   0  0  0  0  0  0  0  0  0  0  0  0
  140.2400   82.7560  220.7180 C   0  0  0  0  0  0  0  0  0  0  0  0
  139.8840   81.3730  220.2040 C   0  0  0  0  0  0  0  0  0  0  0  0
  140.9350   80.4270  220.7980 C   0  0  1  0  0  0  0  0  0  0  0  0
  141.6650   79.6580  219.7280 C   0  0  0  0  0  0  0  0  0  0  0  0
  142.2270   80.1980  218.5750 C   0  0  0  0  0  0  0  0  0  0  0  0
  142.8350   79.2340  217.8480 N   0  0  0  0  0  0  0  0  0  0  0  0
  142.6690   78.0900  218.5340 C   0  0  0  0  0  0  0  0  0  0  0  0
  143.1320   76.8230  218.1820 C   0  0  0  0  0  0  0  0  0  0  0  0
  142.8520   75.7550  219.0550 C   0  0  0  0  0  0  0  0  0  0  0  0
  142.1250   75.9770  220.2450 C   0  0  0  0  0  0  0  0  0  0  0  0
  141.6720   77.2660  220.5750 C   0  0  0  0  0  0  0  0  0  0  0  0
  141.9630   78.3060  219.6900 C   0  0  0  0  0  0  0  0  0  0  0  0
  141.9322   78.1294  222.7898 H   0  0  0  0  0  0  0  0  0  0  0  0
  141.8607   78.7050  224.5121 H   0  0  0  0  0  0  0  0  0  0  0  0
  139.8388   77.1691  222.3681 H   0  0  0  0  0  0  0  0  0  0  0  0
  137.3707   77.4408  222.1305 H   0  0  0  0  0  0  0  0  0  0  0  0
  136.2479   79.4954  222.9982 H   0  0  0  0  0  0  0  0  0  0  0  0
  137.5925   81.2754  224.1192 H   0  0  0  0  0  0  0  0  0  0  0  0
  140.0602   81.0093  224.3679 H   0  0  0  0  0  0  0  0  0  0  0  0
  140.6874   82.4647  222.8104 H   0  0  0  0  0  0  0  0  0  0  0  0
  141.9520   83.3368  221.9217 H   0  0  0  0  0  0  0  0  0  0  0  0
  139.3423   83.2732  221.0876 H   0  0  0  0  0  0  0  0  0  0  0  0
  140.6687   83.3907  219.9285 H   0  0  0  0  0  0  0  0  0  0  0  0
  138.8765   81.0865  220.5398 H   0  0  0  0  0  0  0  0  0  0  0  0
  139.8799   81.3368  219.1046 H   0  0  0  0  0  0  0  0  0  0  0  0
  140.4384   79.6845  221.4399 H   0  0  0  0  0  0  0  0  0  0  0  0
  142.1827   81.2607  218.2944 H   0  0  0  0  0  0  0  0  0  0  0  0
  143.3370   79.3590  216.9400 H   0  0  0  0  0  0  0  0  0  0  0  0
  143.6977   76.6632  217.2523 H   0  0  0  0  0  0  0  0  0  0  0  0
  143.2016   74.7415  218.8088 H   0  0  0  0  0  0  0  0  0  0  0  0
  141.9115   75.1344  220.9191 H   0  0  0  0  0  0  0  0  0  0  0  0
  141.1065   77.4495  221.5005 H   0  0  0  0  0  0  0  0  0  0  0  0
  1  2  2  0
  2  3  2  0
  2  4  1  0
  4  5  1  0
  5  6  2  0
  6  7  1  0
  7  8  2  0
  8  9  1  0
  9 10  2  0
  2 11  1  0
 11 12  1  0
 12 13  1  0
 13 14  1  0
 14 15  1  0
 15 16  1  0
 16 17  2  0
 17 18  1  0
 18 19  1  0
 19 20  2  0
 20 21  1  0
 21 22  2  0
 22 23  1  0
 23 24  2  0
 10  5  1  0
 15 11  1  0
 24 16  1  0
 24 19  1  0
  4 25  1  0
  4 26  1  0
  6 27  1  0
  7 28  1  0
  8 29  1  0
  9 30  1  0
 10 31  1  0
 12 32  1  0
 12 33  1  0
 13 34  1  0
 13 35  1  0
 14 36  1  0
 14 37  1  0
 15 38  1  1
 17 39  1  0
 18 40  1  0
 20 41  1  0
 21 42  1  0
 22 43  1  0
 23 44  1  0
M  END
>  <UniqueID>  (42) 
219

>  <SMILES>  (42) 
O=S(=O)(Cc1ccccc1)N1CCC[C@H]1c1c[nH]c2ccccc12

>  <Energy>  (42) 
75.68602208483318

>  <Genealogy>  (42) 
O=S(=O)(Cc1ccccc1)N1CCC[C@H]1c1c[nH]c2ccccc12 (chirality)
O=S(=O)(Cc1ccccc1)N1CCC[C@H]1c1c[nH]c2ccccc12 (3D coordinates assigned)
O=S(=O)(Cc1ccccc1)N1CCC[C@H]1c1c[nH]c2ccccc12 (nonaromatic ring conformer: 75.68602208483318 kcal/mol)

>  <smiles>  (42) 
O=S(=O)(Cc1ccccc1)N1CCCC1c1c[nH]c2ccccc12

>  <score_type>  (42) 
oracle

>  <origin>  (42) 
autodockgpu

>  <m_score__min__energy>  (42) 
-7.7699999999999996

>  <m_primary>  (42) 
energy

>  <meeko>  (42) 
{"free_energy": -7.1, "intermolecular_energy": -8.3, "internal_energy": -1.93, "cluster_size": 16, "cluster_id": 2, "rank_in_cluster": 13}

>  <energy>  (42) 
-7.72

>  <cluster_rmsd>  (42) 
0.79

>  <rmsd>  (42) 
271.77

>  <cluster>  (42) 
1

$$$$
QHTAHHNEYOTCSC-IBGZPJMENA-N
     RDKit          3D

 44 47  0  0  0  0  0  0  0  0999 V2000
  142.2240   81.4890  224.1920 O   0  0  0  0  0  0  0  0  0  0  0  0
  142.3910   80.4990  223.0740 S   0  0  0  0  0  0  0  0  0  0  0  0
  143.8480   80.1400  222.9800 O   0  0  0  0  0  0  0  0  0  0  0  0
  141.4580   79.0250  223.5150 C   0  0  0  0  0  0  0  0  0  0  0  0
  139.9740   79.2270  223.3790 C   0  0  0  0  0  0  0  0  0  0  0  0
  139.3750   80.4070  223.8520 C   0  0  0  0  0  0  0  0  0  0  0  0
  137.9900   80.5780  223.7700 C   0  0  0  0  0  0  0  0  0  0  0  0
  137.1930   79.5750  223.2100 C   0  0  0  0  0  0  0  0  0  0  0  0
  137.7810   78.4020  222.7280 C   0  0  0  0  0  0  0  0  0  0  0  0
  139.1650   78.2280  222.8080 C   0  0  0  0  0  0  0  0  0  0  0  0
  141.9010   81.2790  221.5830 N   0  0  0  0  0  0  0  0  0  0  0  0
  141.2930   82.5900  221.8040 C   0  0  0  0  0  0  0  0  0  0  0  0
  140.3730   82.8420  220.6250 C   0  0  0  0  0  0  0  0  0  0  0  0
  139.9720   81.4630  220.1330 C   0  0  0  0  0  0  0  0  0  0  0  0
  140.9500   80.4860  220.7960 C   0  0  1  0  0  0  0  0  0  0  0  0
  141.6850   79.6530  219.7800 C   0  0  0  0  0  0  0  0  0  0  0  0
  142.3450   80.1350  218.6530 C   0  0  0  0  0  0  0  0  0  0  0  0
  142.9270   79.1210  217.9740 N   0  0  0  0  0  0  0  0  0  0  0  0
  142.6480   78.0030  218.6650 C   0  0  0  0  0  0  0  0  0  0  0  0
  143.0440   76.7020  218.3570 C   0  0  0  0  0  0  0  0  0  0  0  0
  142.6460   75.6700  219.2260 C   0  0  0  0  0  0  0  0  0  0  0  0
  141.8710   75.9580  220.3710 C   0  0  0  0  0  0  0  0  0  0  0  0
  141.4870   77.2800  220.6570 C   0  0  0  0  0  0  0  0  0  0  0  0
  141.8940   78.2840  219.7770 C   0  0  0  0  0  0  0  0  0  0  0  0
  141.7649   78.2011  222.8539 H   0  0  0  0  0  0  0  0  0  0  0  0
  141.6711   78.7948  224.5693 H   0  0  0  0  0  0  0  0  0  0  0  0
  139.9993   81.2003  224.2891 H   0  0  0  0  0  0  0  0  0  0  0  0
  137.5270   81.5022  224.1462 H   0  0  0  0  0  0  0  0  0  0  0  0
  136.1029   79.7090  223.1487 H   0  0  0  0  0  0  0  0  0  0  0  0
  137.1532   77.6148  222.2851 H   0  0  0  0  0  0  0  0  0  0  0  0
  139.6240   77.3056  222.4227 H   0  0  0  0  0  0  0  0  0  0  0  0
  140.7177   82.5889  222.7416 H   0  0  0  0  0  0  0  0  0  0  0  0
  142.0590   83.3752  221.8859 H   0  0  0  0  0  0  0  0  0  0  0  0
  139.4869   83.4116  220.9417 H   0  0  0  0  0  0  0  0  0  0  0  0
  140.8646   83.4330  219.8382 H   0  0  0  0  0  0  0  0  0  0  0  0
  138.9387   81.2342  220.4329 H   0  0  0  0  0  0  0  0  0  0  0  0
  140.0118   81.3957  219.0358 H   0  0  0  0  0  0  0  0  0  0  0  0
  140.3916   79.7866  221.4355 H   0  0  0  0  0  0  0  0  0  0  0  0
  142.3871   81.1934  218.3563 H   0  0  0  0  0  0  0  0  0  0  0  0
  143.4860   79.1980  217.0950 H   0  0  0  0  0  0  0  0  0  0  0  0
  143.6485   76.4895  217.4629 H   0  0  0  0  0  0  0  0  0  0  0  0
  142.9403   74.6319  219.0124 H   0  0  0  0  0  0  0  0  0  0  0  0
  141.5658   75.1427  221.0435 H   0  0  0  0  0  0  0  0  0  0  0  0
  140.8845   77.5157  221.5467 H   0  0  0  0  0  0  0  0  0  0  0  0
  1  2  2  0
  2  3  2  0
  2  4  1  0
  4  5  1  0
  5  6  2  0
  6  7  1  0
  7  8  2  0
  8  9  1  0
  9 10  2  0
  2 11  1  0
 11 12  1  0
 12 13  1  0
 13 14  1  0
 14 15  1  0
 15 16  1  0
 16 17  2  0
 17 18  1  0
 18 19  1  0
 19 20  2  0
 20 21  1  0
 21 22  2  0
 22 23  1  0
 23 24  2  0
 10  5  1  0
 15 11  1  0
 24 16  1  0
 24 19  1  0
  4 25  1  0
  4 26  1  0
  6 27  1  0
  7 28  1  0
  8 29  1  0
  9 30  1  0
 10 31  1  0
 12 32  1  0
 12 33  1  0
 13 34  1  0
 13 35  1  0
 14 36  1  0
 14 37  1  0
 15 38  1  1
 17 39  1  0
 18 40  1  0
 20 41  1  0
 21 42  1  0
 22 43  1  0
 23 44  1  0
M  END
>  <UniqueID>  (43) 
219

>  <SMILES>  (43) 
O=S(=O)(Cc1ccccc1)N1CCC[C@H]1c1c[nH]c2ccccc12

>  <Energy>  (43) 
75.68602208483318

>  <Genealogy>  (43) 
O=S(=O)(Cc1ccccc1)N1CCC[C@H]1c1c[nH]c2ccccc12 (chirality)
O=S(=O)(Cc1ccccc1)N1CCC[C@H]1c1c[nH]c2ccccc12 (3D coordinates assigned)
O=S(=O)(Cc1ccccc1)N1CCC[C@H]1c1c[nH]c2ccccc12 (nonaromatic ring conformer: 75.68602208483318 kcal/mol)

>  <smiles>  (43) 
O=S(=O)(Cc1ccccc1)N1CCCC1c1c[nH]c2ccccc12

>  <score_type>  (43) 
oracle

>  <origin>  (43) 
autodockgpu

>  <m_score__min__energy>  (43) 
-7.7699999999999996

>  <m_primary>  (43) 
energy

>  <meeko>  (43) 
{"free_energy": -7.1, "intermolecular_energy": -8.29, "internal_energy": -1.9, "cluster_size": 16, "cluster_id": 2, "rank_in_cluster": 14}

>  <energy>  (43) 
-7.71

>  <cluster_rmsd>  (43) 
0.78

>  <rmsd>  (43) 
271.74

>  <cluster>  (43) 
1

$$$$
QHTAHHNEYOTCSC-IBGZPJMENA-N
     RDKit          3D

 44 47  0  0  0  0  0  0  0  0999 V2000
  142.3170   81.4170  224.1460 O   0  0  0  0  0  0  0  0  0  0  0  0
  142.4600   80.4530  223.0030 S   0  0  0  0  0  0  0  0  0  0  0  0
  143.9210   80.1470  222.8280 O   0  0  0  0  0  0  0  0  0  0  0  0
  141.6030   78.9390  223.4650 C   0  0  0  0  0  0  0  0  0  0  0  0
  140.1080   79.0760  223.3640 C   0  0  0  0  0  0  0  0  0  0  0  0
  139.3460   78.0640  222.7540 C   0  0  0  0  0  0  0  0  0  0  0  0
  137.9630   78.2100  222.6150 C   0  0  0  0  0  0  0  0  0  0  0  0
  137.3290   79.3620  223.0880 C   0  0  0  0  0  0  0  0  0  0  0  0
  138.0770   80.3690  223.7050 C   0  0  0  0  0  0  0  0  0  0  0  0
  139.4600   80.2270  223.8460 C   0  0  0  0  0  0  0  0  0  0  0  0
  141.8660   81.2390  221.5540 N   0  0  0  0  0  0  0  0  0  0  0  0
  141.2040   82.5120  221.8320 C   0  0  0  0  0  0  0  0  0  0  0  0
  140.2210   82.7420  220.7000 C   0  0  0  0  0  0  0  0  0  0  0  0
  139.8680   81.3550  220.1930 C   0  0  0  0  0  0  0  0  0  0  0  0
  140.9220   80.4150  220.7900 C   0  0  1  0  0  0  0  0  0  0  0  0
  141.6530   79.6430  219.7230 C   0  0  0  0  0  0  0  0  0  0  0  0
  142.2190   80.1800  218.5700 C   0  0  0  0  0  0  0  0  0  0  0  0
  142.8260   79.2130  217.8460 N   0  0  0  0  0  0  0  0  0  0  0  0
  142.6560   78.0710  218.5340 C   0  0  0  0  0  0  0  0  0  0  0  0
  143.1180   76.8020  218.1850 C   0  0  0  0  0  0  0  0  0  0  0  0
  142.8340   75.7370  219.0590 C   0  0  0  0  0  0  0  0  0  0  0  0
  142.1050   75.9620  220.2480 C   0  0  0  0  0  0  0  0  0  0  0  0
  141.6540   77.2520  220.5740 C   0  0  0  0  0  0  0  0  0  0  0  0
  141.9480   78.2900  219.6880 C   0  0  0  0  0  0  0  0  0  0  0  0
  141.9301   78.1292  222.7963 H   0  0  0  0  0  0  0  0  0  0  0  0
  141.8508   78.7185  224.5138 H   0  0  0  0  0  0  0  0  0  0  0  0
  139.8404   77.1535  222.3846 H   0  0  0  0  0  0  0  0  0  0  0  0
  137.3727   77.4170  222.1326 H   0  0  0  0  0  0  0  0  0  0  0  0
  136.2408   79.4765  222.9748 H   0  0  0  0  0  0  0  0  0  0  0  0
  137.5765   81.2740  224.0799 H   0  0  0  0  0  0  0  0  0  0  0  0
  140.0445   81.0194  224.3364 H   0  0  0  0  0  0  0  0  0  0  0  0
  140.6717   82.4616  222.7933 H   0  0  0  0  0  0  0  0  0  0  0  0
  141.9328   83.3332  221.8992 H   0  0  0  0  0  0  0  0  0  0  0  0
  139.3224   83.2586  221.0682 H   0  0  0  0  0  0  0  0  0  0  0  0
  140.6470   83.3741  219.9069 H   0  0  0  0  0  0  0  0  0  0  0  0
  138.8617   81.0674  220.5315 H   0  0  0  0  0  0  0  0  0  0  0  0
  139.8626   81.3135  219.0938 H   0  0  0  0  0  0  0  0  0  0  0  0
  140.4283   79.6741  221.4360 H   0  0  0  0  0  0  0  0  0  0  0  0
  142.1780   81.2423  218.2876 H   0  0  0  0  0  0  0  0  0  0  0  0
  143.3300   79.3360  216.9390 H   0  0  0  0  0  0  0  0  0  0  0  0
  143.6857   76.6394  217.2569 H   0  0  0  0  0  0  0  0  0  0  0  0
  143.1818   74.7224  218.8151 H   0  0  0  0  0  0  0  0  0  0  0  0
  141.8889   75.1211  220.9234 H   0  0  0  0  0  0  0  0  0  0  0  0
  141.0872   77.4382  221.4981 H   0  0  0  0  0  0  0  0  0  0  0  0
  1  2  2  0
  2  3  2  0
  2  4  1  0
  4  5  1  0
  5  6  2  0
  6  7  1  0
  7  8  2  0
  8  9  1  0
  9 10  2  0
  2 11  1  0
 11 12  1  0
 12 13  1  0
 13 14  1  0
 14 15  1  0
 15 16  1  0
 16 17  2  0
 17 18  1  0
 18 19  1  0
 19 20  2  0
 20 21  1  0
 21 22  2  0
 22 23  1  0
 23 24  2  0
 10  5  1  0
 15 11  1  0
 24 16  1  0
 24 19  1  0
  4 25  1  0
  4 26  1  0
  6 27  1  0
  7 28  1  0
  8 29  1  0
  9 30  1  0
 10 31  1  0
 12 32  1  0
 12 33  1  0
 13 34  1  0
 13 35  1  0
 14 36  1  0
 14 37  1  0
 15 38  1  1
 17 39  1  0
 18 40  1  0
 20 41  1  0
 21 42  1  0
 22 43  1  0
 23 44  1  0
M  END
>  <UniqueID>  (44) 
219

>  <SMILES>  (44) 
O=S(=O)(Cc1ccccc1)N1CCC[C@H]1c1c[nH]c2ccccc12

>  <Energy>  (44) 
75.68602208483318

>  <Genealogy>  (44) 
O=S(=O)(Cc1ccccc1)N1CCC[C@H]1c1c[nH]c2ccccc12 (chirality)
O=S(=O)(Cc1ccccc1)N1CCC[C@H]1c1c[nH]c2ccccc12 (3D coordinates assigned)
O=S(=O)(Cc1ccccc1)N1CCC[C@H]1c1c[nH]c2ccccc12 (nonaromatic ring conformer: 75.68602208483318 kcal/mol)

>  <smiles>  (44) 
O=S(=O)(Cc1ccccc1)N1CCCC1c1c[nH]c2ccccc12

>  <score_type>  (44) 
oracle

>  <origin>  (44) 
autodockgpu

>  <m_score__min__energy>  (44) 
-7.7699999999999996

>  <m_primary>  (44) 
energy

>  <meeko>  (44) 
{"free_energy": -7.11, "intermolecular_energy": -8.3, "internal_energy": -1.92, "cluster_size": 16, "cluster_id": 2, "rank_in_cluster": 12}

>  <energy>  (44) 
-7.13

>  <cluster_rmsd>  (44) 
0.0

>  <rmsd>  (44) 
272.5

>  <cluster>  (44) 
2

$$$$
QHTAHHNEYOTCSC-IBGZPJMENA-N
     RDKit          3D

 44 47  0  0  0  0  0  0  0  0999 V2000
  142.4520   81.3800  224.1500 O   0  0  0  0  0  0  0  0  0  0  0  0
  142.5580   80.4420  222.9810 S   0  0  0  0  0  0  0  0  0  0  0  0
  144.0120   80.1380  222.7550 O   0  0  0  0  0  0  0  0  0  0  0  0
  141.7100   78.9200  223.4330 C   0  0  0  0  0  0  0  0  0  0  0  0
  140.2140   79.0520  223.3430 C   0  0  0  0  0  0  0  0  0  0  0  0
  139.4540   78.0500  222.7140 C   0  0  0  0  0  0  0  0  0  0  0  0
  138.0690   78.1920  222.5870 C   0  0  0  0  0  0  0  0  0  0  0  0
  137.4330   79.3300  223.0890 C   0  0  0  0  0  0  0  0  0  0  0  0
  138.1790   80.3260  223.7240 C   0  0  0  0  0  0  0  0  0  0  0  0
  139.5630   80.1890  223.8550 C   0  0  0  0  0  0  0  0  0  0  0  0
  141.9230   81.2640  221.5690 N   0  0  0  0  0  0  0  0  0  0  0  0
  141.2470   82.5170  221.8990 C   0  0  0  0  0  0  0  0  0  0  0  0
  140.2390   82.7670  220.7940 C   0  0  0  0  0  0  0  0  0  0  0  0
  139.8970   81.3910  220.2510 C   0  0  0  0  0  0  0  0  0  0  0  0
  140.9770   80.4490  220.7980 C   0  0  1  0  0  0  0  0  0  0  0  0
  141.6980   79.7230  219.6930 C   0  0  0  0  0  0  0  0  0  0  0  0
  142.2310   80.3040  218.5450 C   0  0  0  0  0  0  0  0  0  0  0  0
  142.8390   79.3700  217.7800 N   0  0  0  0  0  0  0  0  0  0  0  0
  142.7030   78.2050  218.4360 C   0  0  0  0  0  0  0  0  0  0  0  0
  143.1780   76.9550  218.0400 C   0  0  0  0  0  0  0  0  0  0  0  0
  142.9300   75.8590  218.8870 C   0  0  0  0  0  0  0  0  0  0  0  0
  142.2230   76.0360  220.0960 C   0  0  0  0  0  0  0  0  0  0  0  0
  141.7570   77.3080  220.4710 C   0  0  0  0  0  0  0  0  0  0  0  0
  142.0150   78.3770  219.6110 C   0  0  0  0  0  0  0  0  0  0  0  0
  142.0359   78.1183  222.7540 H   0  0  0  0  0  0  0  0  0  0  0  0
  141.9654   78.6898  224.4779 H   0  0  0  0  0  0  0  0  0  0  0  0
  139.9510   77.1511  222.3204 H   0  0  0  0  0  0  0  0  0  0  0  0
  137.4794   77.4068  222.0912 H   0  0  0  0  0  0  0  0  0  0  0  0
  136.3437   79.4420  222.9842 H   0  0  0  0  0  0  0  0  0  0  0  0
  137.6757   81.2197  224.1215 H   0  0  0  0  0  0  0  0  0  0  0  0
  140.1459   80.9731  224.3604 H   0  0  0  0  0  0  0  0  0  0  0  0
  140.7342   82.4282  222.8681 H   0  0  0  0  0  0  0  0  0  0  0  0
  141.9645   83.3470  221.9779 H   0  0  0  0  0  0  0  0  0  0  0  0
  139.3402   83.2581  221.1952 H   0  0  0  0  0  0  0  0  0  0  0  0
  140.6398   83.4300  220.0131 H   0  0  0  0  0  0  0  0  0  0  0  0
  138.9020   81.0774  220.5998 H   0  0  0  0  0  0  0  0  0  0  0  0
  139.8706   81.3834  219.1514 H   0  0  0  0  0  0  0  0  0  0  0  0
  140.5081   79.6803  221.4298 H   0  0  0  0  0  0  0  0  0  0  0  0
  142.1663   81.3734  218.2956 H   0  0  0  0  0  0  0  0  0  0  0  0
  143.3220   79.5290  216.8680 H   0  0  0  0  0  0  0  0  0  0  0  0
  143.7287   76.8299  217.0960 H   0  0  0  0  0  0  0  0  0  0  0  0
  143.2892   74.8582  218.6053 H   0  0  0  0  0  0  0  0  0  0  0  0
  142.0353   75.1716  220.7498 H   0  0  0  0  0  0  0  0  0  0  0  0
  141.2067   77.4563  221.4118 H   0  0  0  0  0  0  0  0  0  0  0  0
  1  2  2  0
  2  3  2  0
  2  4  1  0
  4  5  1  0
  5  6  2  0
  6  7  1  0
  7  8  2  0
  8  9  1  0
  9 10  2  0
  2 11  1  0
 11 12  1  0
 12 13  1  0
 13 14  1  0
 14 15  1  0
 15 16  1  0
 16 17  2  0
 17 18  1  0
 18 19  1  0
 19 20  2  0
 20 21  1  0
 21 22  2  0
 22 23  1  0
 23 24  2  0
 10  5  1  0
 15 11  1  0
 24 16  1  0
 24 19  1  0
  4 25  1  0
  4 26  1  0
  6 27  1  0
  7 28  1  0
  8 29  1  0
  9 30  1  0
 10 31  1  0
 12 32  1  0
 12 33  1  0
 13 34  1  0
 13 35  1  0
 14 36  1  0
 14 37  1  0
 15 38  1  1
 17 39  1  0
 18 40  1  0
 20 41  1  0
 21 42  1  0
 22 43  1  0
 23 44  1  0
M  END
>  <UniqueID>  (45) 
219

>  <SMILES>  (45) 
O=S(=O)(Cc1ccccc1)N1CCC[C@H]1c1c[nH]c2ccccc12

>  <Energy>  (45) 
75.68602208483318

>  <Genealogy>  (45) 
O=S(=O)(Cc1ccccc1)N1CCC[C@H]1c1c[nH]c2ccccc12 (chirality)
O=S(=O)(Cc1ccccc1)N1CCC[C@H]1c1c[nH]c2ccccc12 (3D coordinates assigned)
O=S(=O)(Cc1ccccc1)N1CCC[C@H]1c1c[nH]c2ccccc12 (nonaromatic ring conformer: 75.68602208483318 kcal/mol)

>  <smiles>  (45) 
O=S(=O)(Cc1ccccc1)N1CCCC1c1c[nH]c2ccccc12

>  <score_type>  (45) 
oracle

>  <origin>  (45) 
autodockgpu

>  <m_score__min__energy>  (45) 
-7.7699999999999996

>  <m_primary>  (45) 
energy

>  <meeko>  (45) 
{"free_energy": -7.13, "intermolecular_energy": -8.32, "internal_energy": -1.93, "cluster_size": 16, "cluster_id": 2, "rank_in_cluster": 3}

>  <energy>  (45) 
-7.13

>  <cluster_rmsd>  (45) 
0.02

>  <rmsd>  (45) 
272.5

>  <cluster>  (45) 
2

$$$$
QHTAHHNEYOTCSC-IBGZPJMENA-N
     RDKit          3D

 44 47  0  0  0  0  0  0  0  0999 V2000
  142.4340   81.3720  224.1710 O   0  0  0  0  0  0  0  0  0  0  0  0
  142.5550   80.4450  222.9950 S   0  0  0  0  0  0  0  0  0  0  0  0
  144.0120   80.1390  222.7880 O   0  0  0  0  0  0  0  0  0  0  0  0
  141.6980   78.9210  223.4200 C   0  0  0  0  0  0  0  0  0  0  0  0
  140.2030   79.0650  223.3360 C   0  0  0  0  0  0  0  0  0  0  0  0
  139.4310   78.0670  222.7160 C   0  0  0  0  0  0  0  0  0  0  0  0
  138.0470   78.2190  222.5940 C   0  0  0  0  0  0  0  0  0  0  0  0
  137.4220   79.3650  223.0940 C   0  0  0  0  0  0  0  0  0  0  0  0
  138.1800   80.3580  223.7210 C   0  0  0  0  0  0  0  0  0  0  0  0
  139.5640   80.2090  223.8460 C   0  0  0  0  0  0  0  0  0  0  0  0
  141.9430   81.2820  221.5820 N   0  0  0  0  0  0  0  0  0  0  0  0
  141.2890   82.5460  221.9130 C   0  0  0  0  0  0  0  0  0  0  0  0
  140.2910   82.8180  220.8030 C   0  0  0  0  0  0  0  0  0  0  0  0
  139.9260   81.4500  220.2550 C   0  0  0  0  0  0  0  0  0  0  0  0
  140.9860   80.4870  220.8040 C   0  0  1  0  0  0  0  0  0  0  0  0
  141.6990   79.7510  219.7010 C   0  0  0  0  0  0  0  0  0  0  0  0
  142.2320   80.3220  218.5490 C   0  0  0  0  0  0  0  0  0  0  0  0
  142.8320   79.3810  217.7870 N   0  0  0  0  0  0  0  0  0  0  0  0
  142.6900   78.2200  218.4490 C   0  0  0  0  0  0  0  0  0  0  0  0
  143.1550   76.9650  218.0580 C   0  0  0  0  0  0  0  0  0  0  0  0
  142.9020   75.8750  218.9100 C   0  0  0  0  0  0  0  0  0  0  0  0
  142.1990   76.0620  220.1210 C   0  0  0  0  0  0  0  0  0  0  0  0
  141.7440   77.3390  220.4900 C   0  0  0  0  0  0  0  0  0  0  0  0
  142.0070   78.4020  219.6250 C   0  0  0  0  0  0  0  0  0  0  0  0
  142.0169   78.1301  222.7252 H   0  0  0  0  0  0  0  0  0  0  0  0
  141.9542   78.6692  224.4597 H   0  0  0  0  0  0  0  0  0  0  0  0
  139.9187   77.1619  222.3249 H   0  0  0  0  0  0  0  0  0  0  0  0
  137.4492   77.4363  222.1042 H   0  0  0  0  0  0  0  0  0  0  0  0
  136.3332   79.4854  222.9940 H   0  0  0  0  0  0  0  0  0  0  0  0
  137.6865   81.2580  224.1166 H   0  0  0  0  0  0  0  0  0  0  0  0
  140.1560   80.9901  224.3455 H   0  0  0  0  0  0  0  0  0  0  0  0
  140.7697   82.4636  222.8792 H   0  0  0  0  0  0  0  0  0  0  0  0
  142.0212   83.3624  221.9986 H   0  0  0  0  0  0  0  0  0  0  0  0
  139.3996   83.3250  221.2009 H   0  0  0  0  0  0  0  0  0  0  0  0
  140.7081   83.4753  220.0258 H   0  0  0  0  0  0  0  0  0  0  0  0
  138.9239   81.1539  220.5988 H   0  0  0  0  0  0  0  0  0  0  0  0
  139.9041   81.4457  219.1552 H   0  0  0  0  0  0  0  0  0  0  0  0
  140.4996   79.7252  221.4310 H   0  0  0  0  0  0  0  0  0  0  0  0
  142.1730   81.3905  218.2943 H   0  0  0  0  0  0  0  0  0  0  0  0
  143.3130   79.5320  216.8720 H   0  0  0  0  0  0  0  0  0  0  0  0
  143.7023   76.8317  217.1132 H   0  0  0  0  0  0  0  0  0  0  0  0
  143.2537   74.8706  218.6317 H   0  0  0  0  0  0  0  0  0  0  0  0
  142.0066   75.2021  220.7794 H   0  0  0  0  0  0  0  0  0  0  0  0
  141.1974   77.4960  221.4316 H   0  0  0  0  0  0  0  0  0  0  0  0
  1  2  2  0
  2  3  2  0
  2  4  1  0
  4  5  1  0
  5  6  2  0
  6  7  1  0
  7  8  2  0
  8  9  1  0
  9 10  2  0
  2 11  1  0
 11 12  1  0
 12 13  1  0
 13 14  1  0
 14 15  1  0
 15 16  1  0
 16 17  2  0
 17 18  1  0
 18 19  1  0
 19 20  2  0
 20 21  1  0
 21 22  2  0
 22 23  1  0
 23 24  2  0
 10  5  1  0
 15 11  1  0
 24 16  1  0
 24 19  1  0
  4 25  1  0
  4 26  1  0
  6 27  1  0
  7 28  1  0
  8 29  1  0
  9 30  1  0
 10 31  1  0
 12 32  1  0
 12 33  1  0
 13 34  1  0
 13 35  1  0
 14 36  1  0
 14 37  1  0
 15 38  1  1
 17 39  1  0
 18 40  1  0
 20 41  1  0
 21 42  1  0
 22 43  1  0
 23 44  1  0
M  END
>  <UniqueID>  (46) 
219

>  <SMILES>  (46) 
O=S(=O)(Cc1ccccc1)N1CCC[C@H]1c1c[nH]c2ccccc12

>  <Energy>  (46) 
75.68602208483318

>  <Genealogy>  (46) 
O=S(=O)(Cc1ccccc1)N1CCC[C@H]1c1c[nH]c2ccccc12 (chirality)
O=S(=O)(Cc1ccccc1)N1CCC[C@H]1c1c[nH]c2ccccc12 (3D coordinates assigned)
O=S(=O)(Cc1ccccc1)N1CCC[C@H]1c1c[nH]c2ccccc12 (nonaromatic ring conformer: 75.68602208483318 kcal/mol)

>  <smiles>  (46) 
O=S(=O)(Cc1ccccc1)N1CCCC1c1c[nH]c2ccccc12

>  <score_type>  (46) 
oracle

>  <origin>  (46) 
autodockgpu

>  <m_score__min__energy>  (46) 
-7.7699999999999996

>  <m_primary>  (46) 
energy

>  <meeko>  (46) 
{"free_energy": -7.12, "intermolecular_energy": -8.32, "internal_energy": -1.92, "cluster_size": 16, "cluster_id": 2, "rank_in_cluster": 4}

>  <energy>  (46) 
-7.13

>  <cluster_rmsd>  (46) 
0.02

>  <rmsd>  (46) 
272.49

>  <cluster>  (46) 
2

$$$$
QHTAHHNEYOTCSC-IBGZPJMENA-N
     RDKit          3D

 44 47  0  0  0  0  0  0  0  0999 V2000
  142.2340   81.5250  224.2150 O   0  0  0  0  0  0  0  0  0  0  0  0
  142.3650   80.5240  223.1010 S   0  0  0  0  0  0  0  0  0  0  0  0
  143.8160   80.1550  222.9710 O   0  0  0  0  0  0  0  0  0  0  0  0
  141.4350   79.0600  223.5810 C   0  0  0  0  0  0  0  0  0  0  0  0
  139.9490   79.2630  223.4620 C   0  0  0  0  0  0  0  0  0  0  0  0
  139.1440   78.2650  222.8860 C   0  0  0  0  0  0  0  0  0  0  0  0
  137.7690   78.4700  222.7310 C   0  0  0  0  0  0  0  0  0  0  0  0
  137.1880   79.6690  223.1540 C   0  0  0  0  0  0  0  0  0  0  0  0
  137.9800   80.6630  223.7360 C   0  0  0  0  0  0  0  0  0  0  0  0
  139.3540   80.4620  223.8940 C   0  0  0  0  0  0  0  0  0  0  0  0
  141.8380   81.2950  221.6180 N   0  0  0  0  0  0  0  0  0  0  0  0
  141.2180   82.5990  221.8460 C   0  0  0  0  0  0  0  0  0  0  0  0
  140.2740   82.8360  220.6840 C   0  0  0  0  0  0  0  0  0  0  0  0
  139.8820   81.4510  220.2020 C   0  0  0  0  0  0  0  0  0  0  0  0
  140.8840   80.4880  220.8500 C   0  0  1  0  0  0  0  0  0  0  0  0
  141.6110   79.6620  219.8220 C   0  0  0  0  0  0  0  0  0  0  0  0
  142.2470   80.1510  218.6830 C   0  0  0  0  0  0  0  0  0  0  0  0
  142.8290   79.1420  217.9960 N   0  0  0  0  0  0  0  0  0  0  0  0
  142.5740   78.0220  218.6930 C   0  0  0  0  0  0  0  0  0  0  0  0
  142.9800   76.7250  218.3800 C   0  0  0  0  0  0  0  0  0  0  0  0
  142.6080   75.6900  219.2560 C   0  0  0  0  0  0  0  0  0  0  0  0
  141.8490   75.9710  220.4130 C   0  0  0  0  0  0  0  0  0  0  0  0
  141.4550   77.2890  220.7050 C   0  0  0  0  0  0  0  0  0  0  0  0
  141.8360   78.2960  219.8170 C   0  0  0  0  0  0  0  0  0  0  0  0
  141.7310   78.2238  222.9304 H   0  0  0  0  0  0  0  0  0  0  0  0
  141.6622   78.8480  224.6362 H   0  0  0  0  0  0  0  0  0  0  0  0
  139.5973   77.3187  222.5557 H   0  0  0  0  0  0  0  0  0  0  0  0
  137.1445   77.6872  222.2759 H   0  0  0  0  0  0  0  0  0  0  0  0
  136.1071   79.8304  223.0288 H   0  0  0  0  0  0  0  0  0  0  0  0
  137.5210   81.6051  224.0702 H   0  0  0  0  0  0  0  0  0  0  0  0
  139.9724   81.2445  224.3580 H   0  0  0  0  0  0  0  0  0  0  0  0
  140.6600   82.5939  222.7939 H   0  0  0  0  0  0  0  0  0  0  0  0
  141.9758   83.3937  221.9113 H   0  0  0  0  0  0  0  0  0  0  0  0
  139.3864   83.3947  221.0157 H   0  0  0  0  0  0  0  0  0  0  0  0
  140.7436   83.4314  219.8872 H   0  0  0  0  0  0  0  0  0  0  0  0
  138.8571   81.2098  220.5204 H   0  0  0  0  0  0  0  0  0  0  0  0
  139.9034   81.3816  219.1044 H   0  0  0  0  0  0  0  0  0  0  0  0
  140.3468   79.7829  221.5013 H   0  0  0  0  0  0  0  0  0  0  0  0
  142.2722   81.2094  218.3844 H   0  0  0  0  0  0  0  0  0  0  0  0
  143.3720   79.2250  217.1080 H   0  0  0  0  0  0  0  0  0  0  0  0
  143.5724   76.5183  217.4765 H   0  0  0  0  0  0  0  0  0  0  0  0
  142.9102   74.6549  219.0386 H   0  0  0  0  0  0  0  0  0  0  0  0
  141.5638   75.1530  221.0909 H   0  0  0  0  0  0  0  0  0  0  0  0
  140.8653   77.5189  221.6047 H   0  0  0  0  0  0  0  0  0  0  0  0
  1  2  2  0
  2  3  2  0
  2  4  1  0
  4  5  1  0
  5  6  2  0
  6  7  1  0
  7  8  2  0
  8  9  1  0
  9 10  2  0
  2 11  1  0
 11 12  1  0
 12 13  1  0
 13 14  1  0
 14 15  1  0
 15 16  1  0
 16 17  2  0
 17 18  1  0
 18 19  1  0
 19 20  2  0
 20 21  1  0
 21 22  2  0
 22 23  1  0
 23 24  2  0
 10  5  1  0
 15 11  1  0
 24 16  1  0
 24 19  1  0
  4 25  1  0
  4 26  1  0
  6 27  1  0
  7 28  1  0
  8 29  1  0
  9 30  1  0
 10 31  1  0
 12 32  1  0
 12 33  1  0
 13 34  1  0
 13 35  1  0
 14 36  1  0
 14 37  1  0
 15 38  1  1
 17 39  1  0
 18 40  1  0
 20 41  1  0
 21 42  1  0
 22 43  1  0
 23 44  1  0
M  END
>  <UniqueID>  (47) 
219

>  <SMILES>  (47) 
O=S(=O)(Cc1ccccc1)N1CCC[C@H]1c1c[nH]c2ccccc12

>  <Energy>  (47) 
75.68602208483318

>  <Genealogy>  (47) 
O=S(=O)(Cc1ccccc1)N1CCC[C@H]1c1c[nH]c2ccccc12 (chirality)
O=S(=O)(Cc1ccccc1)N1CCC[C@H]1c1c[nH]c2ccccc12 (3D coordinates assigned)
O=S(=O)(Cc1ccccc1)N1CCC[C@H]1c1c[nH]c2ccccc12 (nonaromatic ring conformer: 75.68602208483318 kcal/mol)

>  <smiles>  (47) 
O=S(=O)(Cc1ccccc1)N1CCCC1c1c[nH]c2ccccc12

>  <score_type>  (47) 
oracle

>  <origin>  (47) 
autodockgpu

>  <m_score__min__energy>  (47) 
-7.7699999999999996

>  <m_primary>  (47) 
energy

>  <meeko>  (47) 
{"free_energy": -7.09, "intermolecular_energy": -8.28, "internal_energy": -1.93, "cluster_size": 16, "cluster_id": 2, "rank_in_cluster": 15}

>  <energy>  (47) 
-7.12

>  <cluster_rmsd>  (47) 
0.03

>  <rmsd>  (47) 
272.5

>  <cluster>  (47) 
2

$$$$
QHTAHHNEYOTCSC-IBGZPJMENA-N
     RDKit          3D

 44 47  0  0  0  0  0  0  0  0999 V2000
  135.9340   68.5110  223.8610 O   0  0  0  0  0  0  0  0  0  0  0  0
  135.7830   69.9660  224.2050 S   0  0  0  0  0  0  0  0  0  0  0  0
  134.9090   70.6060  223.1630 O   0  0  0  0  0  0  0  0  0  0  0  0
  134.9490   70.0590  225.7980 C   0  0  0  0  0  0  0  0  0  0  0  0
  134.2840   71.3900  226.0160 C   0  0  0  0  0  0  0  0  0  0  0  0
  134.7070   72.5180  225.2920 C   0  0  0  0  0  0  0  0  0  0  0  0
  134.1230   73.7670  225.5270 C   0  0  0  0  0  0  0  0  0  0  0  0
  133.1110   73.8980  226.4810 C   0  0  0  0  0  0  0  0  0  0  0  0
  132.6770   72.7800  227.1990 C   0  0  0  0  0  0  0  0  0  0  0  0
  133.2570   71.5300  226.9660 C   0  0  0  0  0  0  0  0  0  0  0  0
  137.3720   70.7030  224.1470 N   0  0  0  0  0  0  0  0  0  0  0  0
  137.4720   71.7530  223.1350 C   0  0  0  0  0  0  0  0  0  0  0  0
  138.9340   71.8330  222.7400 C   0  0  0  0  0  0  0  0  0  0  0  0
  139.4940   70.4490  223.0120 C   0  0  0  0  0  0  0  0  0  0  0  0
  138.4500   69.7430  223.8860 C   0  0  1  0  0  0  0  0  0  0  0  0
  139.0400   69.2600  225.1840 C   0  0  0  0  0  0  0  0  0  0  0  0
  139.0190   67.9490  225.6530 C   0  0  0  0  0  0  0  0  0  0  0  0
  139.6680   67.8580  226.8350 N   0  0  0  0  0  0  0  0  0  0  0  0
  140.1060   69.0970  227.1160 C   0  0  0  0  0  0  0  0  0  0  0  0
  140.8390   69.4990  228.2320 C   0  0  0  0  0  0  0  0  0  0  0  0
  141.2060   70.8540  228.3250 C   0  0  0  0  0  0  0  0  0  0  0  0
  140.8370   71.7660  227.3120 C   0  0  0  0  0  0  0  0  0  0  0  0
  140.0990   71.3320  226.1970 C   0  0  0  0  0  0  0  0  0  0  0  0
  139.7470   69.9830  226.1310 C   0  0  0  0  0  0  0  0  0  0  0  0
  134.1843   69.2696  225.8438 H   0  0  0  0  0  0  0  0  0  0  0  0
  135.7077   69.9287  226.5837 H   0  0  0  0  0  0  0  0  0  0  0  0
  135.5009   72.4181  224.5372 H   0  0  0  0  0  0  0  0  0  0  0  0
  134.4609   74.6470  224.9600 H   0  0  0  0  0  0  0  0  0  0  0  0
  132.6553   74.8817  226.6673 H   0  0  0  0  0  0  0  0  0  0  0  0
  131.8782   72.8841  227.9481 H   0  0  0  0  0  0  0  0  0  0  0  0
  132.9083   70.6514  227.5286 H   0  0  0  0  0  0  0  0  0  0  0  0
  136.8556   71.4977  222.2604 H   0  0  0  0  0  0  0  0  0  0  0  0
  137.1121   72.7166  223.5248 H   0  0  0  0  0  0  0  0  0  0  0  0
  139.0326   72.0868  221.6742 H   0  0  0  0  0  0  0  0  0  0  0  0
  139.4704   72.6120  223.3017 H   0  0  0  0  0  0  0  0  0  0  0  0
  139.6381   69.9015  222.0689 H   0  0  0  0  0  0  0  0  0  0  0  0
  140.4737   70.4982  223.5097 H   0  0  0  0  0  0  0  0  0  0  0  0
  138.0719   68.8542  223.3595 H   0  0  0  0  0  0  0  0  0  0  0  0
  138.5409   67.1052  225.1339 H   0  0  0  0  0  0  0  0  0  0  0  0
  139.8040   66.9950  227.4080 H   0  0  0  0  0  0  0  0  0  0  0  0
  141.1213   68.7796  229.0148 H   0  0  0  0  0  0  0  0  0  0  0  0
  141.7841   71.2053  229.1924 H   0  0  0  0  0  0  0  0  0  0  0  0
  141.1290   72.8232  227.3959 H   0  0  0  0  0  0  0  0  0  0  0  0
  139.8080   72.0337  225.4014 H   0  0  0  0  0  0  0  0  0  0  0  0
  1  2  2  0
  2  3  2  0
  2  4  1  0
  4  5  1  0
  5  6  2  0
  6  7  1  0
  7  8  2  0
  8  9  1  0
  9 10  2  0
  2 11  1  0
 11 12  1  0
 12 13  1  0
 13 14  1  0
 14 15  1  0
 15 16  1  0
 16 17  2  0
 17 18  1  0
 18 19  1  0
 19 20  2  0
 20 21  1  0
 21 22  2  0
 22 23  1  0
 23 24  2  0
 10  5  1  0
 15 11  1  0
 24 16  1  0
 24 19  1  0
  4 25  1  0
  4 26  1  0
  6 27  1  0
  7 28  1  0
  8 29  1  0
  9 30  1  0
 10 31  1  0
 12 32  1  0
 12 33  1  0
 13 34  1  0
 13 35  1  0
 14 36  1  0
 14 37  1  0
 15 38  1  6
 17 39  1  0
 18 40  1  0
 20 41  1  0
 21 42  1  0
 22 43  1  0
 23 44  1  0
M  END
>  <UniqueID>  (48) 
219

>  <SMILES>  (48) 
O=S(=O)(Cc1ccccc1)N1CCC[C@H]1c1c[nH]c2ccccc12

>  <Energy>  (48) 
75.68602208483318

>  <Genealogy>  (48) 
O=S(=O)(Cc1ccccc1)N1CCC[C@H]1c1c[nH]c2ccccc12 (chirality)
O=S(=O)(Cc1ccccc1)N1CCC[C@H]1c1c[nH]c2ccccc12 (3D coordinates assigned)
O=S(=O)(Cc1ccccc1)N1CCC[C@H]1c1c[nH]c2ccccc12 (nonaromatic ring conformer: 75.68602208483318 kcal/mol)

>  <smiles>  (48) 
O=S(=O)(Cc1ccccc1)N1CCCC1c1c[nH]c2ccccc12

>  <score_type>  (48) 
oracle

>  <origin>  (48) 
autodockgpu

>  <m_score__min__energy>  (48) 
-7.7699999999999996

>  <m_primary>  (48) 
energy

>  <meeko>  (48) 
{"free_energy": -7.72, "intermolecular_energy": -8.91, "internal_energy": -1.36, "cluster_size": 3, "cluster_id": 1, "rank_in_cluster": 2}

>  <energy>  (48) 
-7.12

>  <cluster_rmsd>  (48) 
0.05

>  <rmsd>  (48) 
272.49

>  <cluster>  (48) 
2

$$$$
QHTAHHNEYOTCSC-IBGZPJMENA-N
     RDKit          3D

 44 47  0  0  0  0  0  0  0  0999 V2000
  135.9650   68.5080  223.8120 O   0  0  0  0  0  0  0  0  0  0  0  0
  135.7930   69.9570  224.1680 S   0  0  0  0  0  0  0  0  0  0  0  0
  134.9080   70.5920  223.1310 O   0  0  0  0  0  0  0  0  0  0  0  0
  134.9580   70.0250  225.7610 C   0  0  0  0  0  0  0  0  0  0  0  0
  134.2760   71.3460  225.9920 C   0  0  0  0  0  0  0  0  0  0  0  0
  134.6550   72.4760  225.2470 C   0  0  0  0  0  0  0  0  0  0  0  0
  134.0570   73.7150  225.4920 C   0  0  0  0  0  0  0  0  0  0  0  0
  133.0730   73.8350  226.4780 C   0  0  0  0  0  0  0  0  0  0  0  0
  132.6840   72.7150  227.2170 C   0  0  0  0  0  0  0  0  0  0  0  0
  133.2780   71.4740  226.9750 C   0  0  0  0  0  0  0  0  0  0  0  0
  137.3700   70.7190  224.1140 N   0  0  0  0  0  0  0  0  0  0  0  0
  137.4510   71.7830  223.1150 C   0  0  0  0  0  0  0  0  0  0  0  0
  138.9110   71.8900  222.7180 C   0  0  0  0  0  0  0  0  0  0  0  0
  139.4930   70.5110  222.9710 C   0  0  0  0  0  0  0  0  0  0  0  0
  138.4620   69.7790  223.8390 C   0  0  1  0  0  0  0  0  0  0  0  0
  139.0630   69.2880  225.1290 C   0  0  0  0  0  0  0  0  0  0  0  0
  139.0940   67.9660  225.5650 C   0  0  0  0  0  0  0  0  0  0  0  0
  139.7380   67.8720  226.7500 N   0  0  0  0  0  0  0  0  0  0  0  0
  140.1210   69.1210  227.0640 C   0  0  0  0  0  0  0  0  0  0  0  0
  140.8280   69.5250  228.1960 C   0  0  0  0  0  0  0  0  0  0  0  0
  141.1360   70.8910  228.3260 C   0  0  0  0  0  0  0  0  0  0  0  0
  140.7360   71.8120  227.3330 C   0  0  0  0  0  0  0  0  0  0  0  0
  140.0260   71.3760  226.2020 C   0  0  0  0  0  0  0  0  0  0  0  0
  139.7320   70.0160  226.0990 C   0  0  0  0  0  0  0  0  0  0  0  0
  134.2032   69.2257  225.7992 H   0  0  0  0  0  0  0  0  0  0  0  0
  135.7185   69.8971  226.5454 H   0  0  0  0  0  0  0  0  0  0  0  0
  135.4258   72.3846  224.4676 H   0  0  0  0  0  0  0  0  0  0  0  0
  134.3607   74.5967  224.9086 H   0  0  0  0  0  0  0  0  0  0  0  0
  132.6050   74.8114  226.6719 H   0  0  0  0  0  0  0  0  0  0  0  0
  131.9083   72.8106  227.9911 H   0  0  0  0  0  0  0  0  0  0  0  0
  132.9642   70.5937  227.5552 H   0  0  0  0  0  0  0  0  0  0  0  0
  136.8364   71.5292  222.2387 H   0  0  0  0  0  0  0  0  0  0  0  0
  137.0771   72.7360  223.5174 H   0  0  0  0  0  0  0  0  0  0  0  0
  139.0033   72.1589  221.6554 H   0  0  0  0  0  0  0  0  0  0  0  0
  139.4367   72.6697  223.2887 H   0  0  0  0  0  0  0  0  0  0  0  0
  139.6425   69.9774  222.0207 H   0  0  0  0  0  0  0  0  0  0  0  0
  140.4735   70.5685  223.4663 H   0  0  0  0  0  0  0  0  0  0  0  0
  138.0955   68.8913  223.3028 H   0  0  0  0  0  0  0  0  0  0  0  0
  138.6555   67.1164  225.0210 H   0  0  0  0  0  0  0  0  0  0  0  0
  139.9060   67.0020  227.3010 H   0  0  0  0  0  0  0  0  0  0  0  0
  141.1350   68.7985  228.9628 H   0  0  0  0  0  0  0  0  0  0  0  0
  141.6921   71.2444  229.2069 H   0  0  0  0  0  0  0  0  0  0  0  0
  140.9821   72.8782  227.4459 H   0  0  0  0  0  0  0  0  0  0  0  0
  139.7116   72.0848  225.4218 H   0  0  0  0  0  0  0  0  0  0  0  0
  1  2  2  0
  2  3  2  0
  2  4  1  0
  4  5  1  0
  5  6  2  0
  6  7  1  0
  7  8  2  0
  8  9  1  0
  9 10  2  0
  2 11  1  0
 11 12  1  0
 12 13  1  0
 13 14  1  0
 14 15  1  0
 15 16  1  0
 16 17  2  0
 17 18  1  0
 18 19  1  0
 19 20  2  0
 20 21  1  0
 21 22  2  0
 22 23  1  0
 23 24  2  0
 10  5  1  0
 15 11  1  0
 24 16  1  0
 24 19  1  0
  4 25  1  0
  4 26  1  0
  6 27  1  0
  7 28  1  0
  8 29  1  0
  9 30  1  0
 10 31  1  0
 12 32  1  0
 12 33  1  0
 13 34  1  0
 13 35  1  0
 14 36  1  0
 14 37  1  0
 15 38  1  6
 17 39  1  0
 18 40  1  0
 20 41  1  0
 21 42  1  0
 22 43  1  0
 23 44  1  0
M  END
>  <UniqueID>  (49) 
219

>  <SMILES>  (49) 
O=S(=O)(Cc1ccccc1)N1CCC[C@H]1c1c[nH]c2ccccc12

>  <Energy>  (49) 
75.68602208483318

>  <Genealogy>  (49) 
O=S(=O)(Cc1ccccc1)N1CCC[C@H]1c1c[nH]c2ccccc12 (chirality)
O=S(=O)(Cc1ccccc1)N1CCC[C@H]1c1c[nH]c2ccccc12 (3D coordinates assigned)
O=S(=O)(Cc1ccccc1)N1CCC[C@H]1c1c[nH]c2ccccc12 (nonaromatic ring conformer: 75.68602208483318 kcal/mol)

>  <smiles>  (49) 
O=S(=O)(Cc1ccccc1)N1CCCC1c1c[nH]c2ccccc12

>  <score_type>  (49) 
oracle

>  <origin>  (49) 
autodockgpu

>  <m_score__min__energy>  (49) 
-7.7699999999999996

>  <m_primary>  (49) 
energy

>  <meeko>  (49) 
{"free_energy": -7.71, "intermolecular_energy": -8.91, "internal_energy": -1.36, "cluster_size": 3, "cluster_id": 1, "rank_in_cluster": 3}

>  <energy>  (49) 
-7.12

>  <cluster_rmsd>  (49) 
0.09

>  <rmsd>  (49) 
272.5

>  <cluster>  (49) 
2

$$$$
QHTAHHNEYOTCSC-IBGZPJMENA-N
     RDKit          3D

 44 47  0  0  0  0  0  0  0  0999 V2000
  142.4030   81.3260  224.1920 O   0  0  0  0  0  0  0  0  0  0  0  0
  142.5330   80.4060  223.0110 S   0  0  0  0  0  0  0  0  0  0  0  0
  143.9940   80.1310  222.7900 O   0  0  0  0  0  0  0  0  0  0  0  0
  141.7110   78.8620  223.4380 C   0  0  0  0  0  0  0  0  0  0  0  0
  140.2140   78.9690  223.3480 C   0  0  0  0  0  0  0  0  0  0  0  0
  139.4700   77.9560  222.7180 C   0  0  0  0  0  0  0  0  0  0  0  0
  138.0830   78.0750  222.5910 C   0  0  0  0  0  0  0  0  0  0  0  0
  137.4270   79.2010  223.0950 C   0  0  0  0  0  0  0  0  0  0  0  0
  138.1570   80.2090  223.7320 C   0  0  0  0  0  0  0  0  0  0  0  0
  139.5440   80.0940  223.8620 C   0  0  0  0  0  0  0  0  0  0  0  0
  141.8900   81.2340  221.6070 N   0  0  0  0  0  0  0  0  0  0  0  0
  141.1920   82.4720  221.9500 C   0  0  0  0  0  0  0  0  0  0  0  0
  140.1840   82.7180  220.8440 C   0  0  0  0  0  0  0  0  0  0  0  0
  139.8680   81.3440  220.2820 C   0  0  0  0  0  0  0  0  0  0  0  0
  140.9620   80.4140  220.8210 C   0  0  1  0  0  0  0  0  0  0  0  0
  141.6990   79.7140  219.7110 C   0  0  0  0  0  0  0  0  0  0  0  0
  142.2130   80.3160  218.5650 C   0  0  0  0  0  0  0  0  0  0  0  0
  142.8440   79.4040  217.7930 N   0  0  0  0  0  0  0  0  0  0  0  0
  142.7420   78.2320  218.4420 C   0  0  0  0  0  0  0  0  0  0  0  0
  143.2500   76.9980  218.0380 C   0  0  0  0  0  0  0  0  0  0  0  0
  143.0340   75.8910  218.8780 C   0  0  0  0  0  0  0  0  0  0  0  0
  142.3250   76.0400  220.0910 C   0  0  0  0  0  0  0  0  0  0  0  0
  141.8260   77.2970  220.4740 C   0  0  0  0  0  0  0  0  0  0  0  0
  142.0530   78.3780  219.6200 C   0  0  0  0  0  0  0  0  0  0  0  0
  142.0518   78.0769  222.7470 H   0  0  0  0  0  0  0  0  0  0  0  0
  141.9692   78.6200  224.4795 H   0  0  0  0  0  0  0  0  0  0  0  0
  139.9816   77.0658  222.3233 H   0  0  0  0  0  0  0  0  0  0  0  0
  137.5070   77.2808  222.0934 H   0  0  0  0  0  0  0  0  0  0  0  0
  136.3360   79.2944  222.9906 H   0  0  0  0  0  0  0  0  0  0  0  0
  137.6393   81.0936  224.1313 H   0  0  0  0  0  0  0  0  0  0  0  0
  140.1141   80.8868  224.3685 H   0  0  0  0  0  0  0  0  0  0  0  0
  140.6773   82.3630  222.9160 H   0  0  0  0  0  0  0  0  0  0  0  0
  141.8951   83.3129  222.0420 H   0  0  0  0  0  0  0  0  0  0  0  0
  139.2752   83.1882  221.2477 H   0  0  0  0  0  0  0  0  0  0  0  0
  140.5765   83.3975  220.0732 H   0  0  0  0  0  0  0  0  0  0  0  0
  138.8773   81.0087  220.6228 H   0  0  0  0  0  0  0  0  0  0  0  0
  139.8457   81.3503  219.1822 H   0  0  0  0  0  0  0  0  0  0  0  0
  140.5036   79.6292  221.4407 H   0  0  0  0  0  0  0  0  0  0  0  0
  142.1185   81.3847  218.3223 H   0  0  0  0  0  0  0  0  0  0  0  0
  143.3200   79.5810  216.8800 H   0  0  0  0  0  0  0  0  0  0  0  0
  143.8021   76.8937  217.0923 H   0  0  0  0  0  0  0  0  0  0  0  0
  143.4197   74.9023  218.5887 H   0  0  0  0  0  0  0  0  0  0  0  0
  142.1625   75.1667  220.7398 H   0  0  0  0  0  0  0  0  0  0  0  0
  141.2741   77.4250  221.4168 H   0  0  0  0  0  0  0  0  0  0  0  0
  1  2  2  0
  2  3  2  0
  2  4  1  0
  4  5  1  0
  5  6  2  0
  6  7  1  0
  7  8  2  0
  8  9  1  0
  9 10  2  0
  2 11  1  0
 11 12  1  0
 12 13  1  0
 13 14  1  0
 14 15  1  0
 15 16  1  0
 16 17  2  0
 17 18  1  0
 18 19  1  0
 19 20  2  0
 20 21  1  0
 21 22  2  0
 22 23  1  0
 23 24  2  0
 10  5  1  0
 15 11  1  0
 24 16  1  0
 24 19  1  0
  4 25  1  0
  4 26  1  0
  6 27  1  0
  7 28  1  0
  8 29  1  0
  9 30  1  0
 10 31  1  0
 12 32  1  0
 12 33  1  0
 13 34  1  0
 13 35  1  0
 14 36  1  0
 14 37  1  0
 15 38  1  1
 17 39  1  0
 18 40  1  0
 20 41  1  0
 21 42  1  0
 22 43  1  0
 23 44  1  0
M  END
>  <UniqueID>  (50) 
219

>  <SMILES>  (50) 
O=S(=O)(Cc1ccccc1)N1CCC[C@H]1c1c[nH]c2ccccc12

>  <Energy>  (50) 
75.68602208483318

>  <Genealogy>  (50) 
O=S(=O)(Cc1ccccc1)N1CCC[C@H]1c1c[nH]c2ccccc12 (chirality)
O=S(=O)(Cc1ccccc1)N1CCC[C@H]1c1c[nH]c2ccccc12 (3D coordinates assigned)
O=S(=O)(Cc1ccccc1)N1CCC[C@H]1c1c[nH]c2ccccc12 (nonaromatic ring conformer: 75.68602208483318 kcal/mol)

>  <smiles>  (50) 
O=S(=O)(Cc1ccccc1)N1CCCC1c1c[nH]c2ccccc12

>  <score_type>  (50) 
oracle

>  <origin>  (50) 
autodockgpu

>  <m_score__min__energy>  (50) 
-7.7699999999999996

>  <m_primary>  (50) 
energy

>  <meeko>  (50) 
{"free_energy": -7.12, "intermolecular_energy": -8.32, "internal_energy": -1.93, "cluster_size": 16, "cluster_id": 2, "rank_in_cluster": 6}

>  <energy>  (50) 
-7.12

>  <cluster_rmsd>  (50) 
0.05

>  <rmsd>  (50) 
272.49

>  <cluster>  (50) 
2

$$$$
QHTAHHNEYOTCSC-IBGZPJMENA-N
     RDKit          3D

 44 47  0  0  0  0  0  0  0  0999 V2000
  142.2890   81.5110  224.1900 O   0  0  0  0  0  0  0  0  0  0  0  0
  142.4100   80.5100  223.0760 S   0  0  0  0  0  0  0  0  0  0  0  0
  143.8590   80.1360  222.9390 O   0  0  0  0  0  0  0  0  0  0  0  0
  141.4770   79.0490  223.5620 C   0  0  0  0  0  0  0  0  0  0  0  0
  139.9920   79.2530  223.4390 C   0  0  0  0  0  0  0  0  0  0  0  0
  139.1880   78.2530  222.8660 C   0  0  0  0  0  0  0  0  0  0  0  0
  137.8140   78.4580  222.7060 C   0  0  0  0  0  0  0  0  0  0  0  0
  137.2330   79.6590  223.1210 C   0  0  0  0  0  0  0  0  0  0  0  0
  138.0230   80.6550  223.7000 C   0  0  0  0  0  0  0  0  0  0  0  0
  139.3970   80.4540  223.8630 C   0  0  0  0  0  0  0  0  0  0  0  0
  141.8780   81.2810  221.5950 N   0  0  0  0  0  0  0  0  0  0  0  0
  141.2560   82.5830  221.8270 C   0  0  0  0  0  0  0  0  0  0  0  0
  140.3090   82.8210  220.6660 C   0  0  0  0  0  0  0  0  0  0  0  0
  139.9180   81.4350  220.1840 C   0  0  0  0  0  0  0  0  0  0  0  0
  140.9240   80.4730  220.8280 C   0  0  1  0  0  0  0  0  0  0  0  0
  141.6510   79.6500  219.7980 C   0  0  0  0  0  0  0  0  0  0  0  0
  142.2810   80.1410  218.6580 C   0  0  0  0  0  0  0  0  0  0  0  0
  142.8640   79.1350  217.9680 N   0  0  0  0  0  0  0  0  0  0  0  0
  142.6140   78.0130  218.6650 C   0  0  0  0  0  0  0  0  0  0  0  0
  143.0230   76.7170  218.3500 C   0  0  0  0  0  0  0  0  0  0  0  0
  142.6570   75.6810  219.2280 C   0  0  0  0  0  0  0  0  0  0  0  0
  141.9010   75.9590  220.3870 C   0  0  0  0  0  0  0  0  0  0  0  0
  141.5040   77.2750  220.6800 C   0  0  0  0  0  0  0  0  0  0  0  0
  141.8790   78.2840  219.7920 C   0  0  0  0  0  0  0  0  0  0  0  0
  141.7734   78.2091  222.9164 H   0  0  0  0  0  0  0  0  0  0  0  0
  141.7019   78.8423  224.6187 H   0  0  0  0  0  0  0  0  0  0  0  0
  139.6415   77.3047  222.5419 H   0  0  0  0  0  0  0  0  0  0  0  0
  137.1902   77.6733  222.2531 H   0  0  0  0  0  0  0  0  0  0  0  0
  136.1526   79.8204  222.9917 H   0  0  0  0  0  0  0  0  0  0  0  0
  137.5634   81.5989  224.0282 H   0  0  0  0  0  0  0  0  0  0  0  0
  140.0146   81.2385  224.3247 H   0  0  0  0  0  0  0  0  0  0  0  0
  140.6994   82.5746  222.7758 H   0  0  0  0  0  0  0  0  0  0  0  0
  142.0123   83.3790  221.8930 H   0  0  0  0  0  0  0  0  0  0  0  0
  139.4214   83.3785  220.9997 H   0  0  0  0  0  0  0  0  0  0  0  0
  140.7760   83.4181  219.8689 H   0  0  0  0  0  0  0  0  0  0  0  0
  138.8946   81.1916  220.5055 H   0  0  0  0  0  0  0  0  0  0  0  0
  139.9361   81.3666  219.0863 H   0  0  0  0  0  0  0  0  0  0  0  0
  140.3893   79.7656  221.4789 H   0  0  0  0  0  0  0  0  0  0  0  0
  142.3017   81.1997  218.3601 H   0  0  0  0  0  0  0  0  0  0  0  0
  143.4040   79.2190  217.0780 H   0  0  0  0  0  0  0  0  0  0  0  0
  143.6126   76.5120  217.4443 H   0  0  0  0  0  0  0  0  0  0  0  0
  142.9621   74.6469  219.0099 H   0  0  0  0  0  0  0  0  0  0  0  0
  141.6206   75.1400  221.0657 H   0  0  0  0  0  0  0  0  0  0  0  0
  140.9159   77.5025  221.5813 H   0  0  0  0  0  0  0  0  0  0  0  0
  1  2  2  0
  2  3  2  0
  2  4  1  0
  4  5  1  0
  5  6  2  0
  6  7  1  0
  7  8  2  0
  8  9  1  0
  9 10  2  0
  2 11  1  0
 11 12  1  0
 12 13  1  0
 13 14  1  0
 14 15  1  0
 15 16  1  0
 16 17  2  0
 17 18  1  0
 18 19  1  0
 19 20  2  0
 20 21  1  0
 21 22  2  0
 22 23  1  0
 23 24  2  0
 10  5  1  0
 15 11  1  0
 24 16  1  0
 24 19  1  0
  4 25  1  0
  4 26  1  0
  6 27  1  0
  7 28  1  0
  8 29  1  0
  9 30  1  0
 10 31  1  0
 12 32  1  0
 12 33  1  0
 13 34  1  0
 13 35  1  0
 14 36  1  0
 14 37  1  0
 15 38  1  1
 17 39  1  0
 18 40  1  0
 20 41  1  0
 21 42  1  0
 22 43  1  0
 23 44  1  0
M  END
>  <UniqueID>  (51) 
219

>  <SMILES>  (51) 
O=S(=O)(Cc1ccccc1)N1CCC[C@H]1c1c[nH]c2ccccc12

>  <Energy>  (51) 
75.68602208483318

>  <Genealogy>  (51) 
O=S(=O)(Cc1ccccc1)N1CCC[C@H]1c1c[nH]c2ccccc12 (chirality)
O=S(=O)(Cc1ccccc1)N1CCC[C@H]1c1c[nH]c2ccccc12 (3D coordinates assigned)
O=S(=O)(Cc1ccccc1)N1CCC[C@H]1c1c[nH]c2ccccc12 (nonaromatic ring conformer: 75.68602208483318 kcal/mol)

>  <smiles>  (51) 
O=S(=O)(Cc1ccccc1)N1CCCC1c1c[nH]c2ccccc12

>  <score_type>  (51) 
oracle

>  <origin>  (51) 
autodockgpu

>  <m_score__min__energy>  (51) 
-7.7699999999999996

>  <m_primary>  (51) 
energy

>  <meeko>  (51) 
{"free_energy": -7.09, "intermolecular_energy": -8.28, "internal_energy": -1.94, "cluster_size": 16, "cluster_id": 2, "rank_in_cluster": 16}

>  <energy>  (51) 
-7.12

>  <cluster_rmsd>  (51) 
0.04

>  <rmsd>  (51) 
272.52

>  <cluster>  (51) 
2

$$$$
QHTAHHNEYOTCSC-IBGZPJMENA-N
     RDKit          3D

 44 47  0  0  0  0  0  0  0  0999 V2000
  142.3690   81.3600  224.1850 O   0  0  0  0  0  0  0  0  0  0  0  0
  142.5070   80.4400  223.0060 S   0  0  0  0  0  0  0  0  0  0  0  0
  143.9690   80.1500  222.8070 O   0  0  0  0  0  0  0  0  0  0  0  0
  141.6630   78.9050  223.4200 C   0  0  0  0  0  0  0  0  0  0  0  0
  140.1670   79.0360  223.3360 C   0  0  0  0  0  0  0  0  0  0  0  0
  139.4040   78.0320  222.7150 C   0  0  0  0  0  0  0  0  0  0  0  0
  138.0180   78.1730  222.5940 C   0  0  0  0  0  0  0  0  0  0  0  0
  137.3840   79.3130  223.0950 C   0  0  0  0  0  0  0  0  0  0  0  0
  138.1330   80.3120  223.7220 C   0  0  0  0  0  0  0  0  0  0  0  0
  139.5190   80.1750  223.8470 C   0  0  0  0  0  0  0  0  0  0  0  0
  141.8950   81.2750  221.5930 N   0  0  0  0  0  0  0  0  0  0  0  0
  141.2270   82.5320  221.9230 C   0  0  0  0  0  0  0  0  0  0  0  0
  140.2330   82.7980  220.8100 C   0  0  0  0  0  0  0  0  0  0  0  0
  139.8840   81.4290  220.2550 C   0  0  0  0  0  0  0  0  0  0  0  0
  140.9500   80.4740  220.8070 C   0  0  1  0  0  0  0  0  0  0  0  0
  141.6760   79.7480  219.7050 C   0  0  0  0  0  0  0  0  0  0  0  0
  142.2190   80.3300  218.5630 C   0  0  0  0  0  0  0  0  0  0  0  0
  142.8290   79.3960  217.7990 N   0  0  0  0  0  0  0  0  0  0  0  0
  142.6840   78.2300  218.4510 C   0  0  0  0  0  0  0  0  0  0  0  0
  143.1580   76.9800  218.0550 C   0  0  0  0  0  0  0  0  0  0  0  0
  142.9010   75.8830  218.8970 C   0  0  0  0  0  0  0  0  0  0  0  0
  142.1850   76.0580  220.1020 C   0  0  0  0  0  0  0  0  0  0  0  0
  141.7220   77.3310  220.4770 C   0  0  0  0  0  0  0  0  0  0  0  0
  141.9890   78.4010  219.6220 C   0  0  0  0  0  0  0  0  0  0  0  0
  141.9894   78.1218  222.7200 H   0  0  0  0  0  0  0  0  0  0  0  0
  141.9207   78.6485  224.4581 H   0  0  0  0  0  0  0  0  0  0  0  0
  139.8993   77.1316  222.3226 H   0  0  0  0  0  0  0  0  0  0  0  0
  137.4263   77.3858  222.1040 H   0  0  0  0  0  0  0  0  0  0  0  0
  136.2941   79.4240  222.9957 H   0  0  0  0  0  0  0  0  0  0  0  0
  137.6317   81.2075  224.1179 H   0  0  0  0  0  0  0  0  0  0  0  0
  140.1046   80.9608  224.3467 H   0  0  0  0  0  0  0  0  0  0  0  0
  140.7035   82.4423  222.8863 H   0  0  0  0  0  0  0  0  0  0  0  0
  141.9514   83.3548  222.0137 H   0  0  0  0  0  0  0  0  0  0  0  0
  139.3347   83.2948  221.2052 H   0  0  0  0  0  0  0  0  0  0  0  0
  140.6478   83.4621  220.0374 H   0  0  0  0  0  0  0  0  0  0  0  0
  138.8828   81.1223  220.5918 H   0  0  0  0  0  0  0  0  0  0  0  0
  139.8684   81.4284  219.1551 H   0  0  0  0  0  0  0  0  0  0  0  0
  140.4674   79.7057  221.4290 H   0  0  0  0  0  0  0  0  0  0  0  0
  142.1600   81.4004  218.3165 H   0  0  0  0  0  0  0  0  0  0  0  0
  143.3190   79.5560  216.8900 H   0  0  0  0  0  0  0  0  0  0  0  0
  143.7149   76.8558  217.1146 H   0  0  0  0  0  0  0  0  0  0  0  0
  143.2600   74.8821  218.6152 H   0  0  0  0  0  0  0  0  0  0  0  0
  141.9884   75.1921  220.7513 H   0  0  0  0  0  0  0  0  0  0  0  0
  141.1667   77.4791  221.4149 H   0  0  0  0  0  0  0  0  0  0  0  0
  1  2  2  0
  2  3  2  0
  2  4  1  0
  4  5  1  0
  5  6  2  0
  6  7  1  0
  7  8  2  0
  8  9  1  0
  9 10  2  0
  2 11  1  0
 11 12  1  0
 12 13  1  0
 13 14  1  0
 14 15  1  0
 15 16  1  0
 16 17  2  0
 17 18  1  0
 18 19  1  0
 19 20  2  0
 20 21  1  0
 21 22  2  0
 22 23  1  0
 23 24  2  0
 10  5  1  0
 15 11  1  0
 24 16  1  0
 24 19  1  0
  4 25  1  0
  4 26  1  0
  6 27  1  0
  7 28  1  0
  8 29  1  0
  9 30  1  0
 10 31  1  0
 12 32  1  0
 12 33  1  0
 13 34  1  0
 13 35  1  0
 14 36  1  0
 14 37  1  0
 15 38  1  1
 17 39  1  0
 18 40  1  0
 20 41  1  0
 21 42  1  0
 22 43  1  0
 23 44  1  0
M  END
>  <UniqueID>  (52) 
219

>  <SMILES>  (52) 
O=S(=O)(Cc1ccccc1)N1CCC[C@H]1c1c[nH]c2ccccc12

>  <Energy>  (52) 
75.68602208483318

>  <Genealogy>  (52) 
O=S(=O)(Cc1ccccc1)N1CCC[C@H]1c1c[nH]c2ccccc12 (chirality)
O=S(=O)(Cc1ccccc1)N1CCC[C@H]1c1c[nH]c2ccccc12 (3D coordinates assigned)
O=S(=O)(Cc1ccccc1)N1CCC[C@H]1c1c[nH]c2ccccc12 (nonaromatic ring conformer: 75.68602208483318 kcal/mol)

>  <smiles>  (52) 
O=S(=O)(Cc1ccccc1)N1CCCC1c1c[nH]c2ccccc12

>  <score_type>  (52) 
oracle

>  <origin>  (52) 
autodockgpu

>  <m_score__min__energy>  (52) 
-7.7699999999999996

>  <m_primary>  (52) 
energy

>  <meeko>  (52) 
{"free_energy": -7.12, "intermolecular_energy": -8.31, "internal_energy": -1.92, "cluster_size": 16, "cluster_id": 2, "rank_in_cluster": 7}

>  <energy>  (52) 
-7.12

>  <cluster_rmsd>  (52) 
0.02

>  <rmsd>  (52) 
272.49

>  <cluster>  (52) 
2

$$$$
QHTAHHNEYOTCSC-IBGZPJMENA-N
     RDKit          3D

 44 47  0  0  0  0  0  0  0  0999 V2000
  142.4410   81.3740  224.1820 O   0  0  0  0  0  0  0  0  0  0  0  0
  142.5660   80.4480  223.0050 S   0  0  0  0  0  0  0  0  0  0  0  0
  144.0240   80.1440  222.8020 O   0  0  0  0  0  0  0  0  0  0  0  0
  141.7090   78.9220  223.4270 C   0  0  0  0  0  0  0  0  0  0  0  0
  140.2140   79.0680  223.3510 C   0  0  0  0  0  0  0  0  0  0  0  0
  139.4370   78.0690  222.7390 C   0  0  0  0  0  0  0  0  0  0  0  0
  138.0520   78.2230  222.6250 C   0  0  0  0  0  0  0  0  0  0  0  0
  137.4320   79.3720  223.1240 C   0  0  0  0  0  0  0  0  0  0  0  0
  138.1950   80.3660  223.7420 C   0  0  0  0  0  0  0  0  0  0  0  0
  139.5800   80.2160  223.8600 C   0  0  0  0  0  0  0  0  0  0  0  0
  141.9560   81.2850  221.5920 N   0  0  0  0  0  0  0  0  0  0  0  0
  141.3080   82.5530  221.9200 C   0  0  0  0  0  0  0  0  0  0  0  0
  140.3110   82.8260  220.8110 C   0  0  0  0  0  0  0  0  0  0  0  0
  139.9400   81.4590  220.2650 C   0  0  0  0  0  0  0  0  0  0  0  0
  140.9960   80.4930  220.8150 C   0  0  1  0  0  0  0  0  0  0  0  0
  141.7050   79.7510  219.7130 C   0  0  0  0  0  0  0  0  0  0  0  0
  142.2410   80.3190  218.5610 C   0  0  0  0  0  0  0  0  0  0  0  0
  142.8360   79.3730  217.7990 N   0  0  0  0  0  0  0  0  0  0  0  0
  142.6880   78.2140  218.4630 C   0  0  0  0  0  0  0  0  0  0  0  0
  143.1470   76.9560  218.0730 C   0  0  0  0  0  0  0  0  0  0  0  0
  142.8880   75.8690  218.9270 C   0  0  0  0  0  0  0  0  0  0  0  0
  142.1860   76.0600  220.1370 C   0  0  0  0  0  0  0  0  0  0  0  0
  141.7370   77.3400  220.5050 C   0  0  0  0  0  0  0  0  0  0  0  0
  142.0050   78.4010  219.6390 C   0  0  0  0  0  0  0  0  0  0  0  0
  142.0237   78.1342  222.7268 H   0  0  0  0  0  0  0  0  0  0  0  0
  141.9700   78.6648  224.4642 H   0  0  0  0  0  0  0  0  0  0  0  0
  139.9209   77.1619  222.3480 H   0  0  0  0  0  0  0  0  0  0  0  0
  137.4498   77.4392  222.1422 H   0  0  0  0  0  0  0  0  0  0  0  0
  136.3428   79.4938  223.0301 H   0  0  0  0  0  0  0  0  0  0  0  0
  137.7050   81.2684  224.1365 H   0  0  0  0  0  0  0  0  0  0  0  0
  140.1760   80.9984  224.3526 H   0  0  0  0  0  0  0  0  0  0  0  0
  140.7893   82.4758  222.8869 H   0  0  0  0  0  0  0  0  0  0  0  0
  142.0440   83.3663  222.0026 H   0  0  0  0  0  0  0  0  0  0  0  0
  139.4218   83.3370  221.2087 H   0  0  0  0  0  0  0  0  0  0  0  0
  140.7305   83.4800  220.0324 H   0  0  0  0  0  0  0  0  0  0  0  0
  138.9368   81.1675  220.6096 H   0  0  0  0  0  0  0  0  0  0  0  0
  139.9174   81.4531  219.1652 H   0  0  0  0  0  0  0  0  0  0  0  0
  140.5070   79.7342  221.4436 H   0  0  0  0  0  0  0  0  0  0  0  0
  142.1881   81.3877  218.3059 H   0  0  0  0  0  0  0  0  0  0  0  0
  143.3180   79.5210  216.8840 H   0  0  0  0  0  0  0  0  0  0  0  0
  143.6937   76.8185  217.1284 H   0  0  0  0  0  0  0  0  0  0  0  0
  143.2349   74.8625  218.6502 H   0  0  0  0  0  0  0  0  0  0  0  0
  141.9892   75.2015  220.7959 H   0  0  0  0  0  0  0  0  0  0  0  0
  141.1912   77.5005  221.4465 H   0  0  0  0  0  0  0  0  0  0  0  0
  1  2  2  0
  2  3  2  0
  2  4  1  0
  4  5  1  0
  5  6  2  0
  6  7  1  0
  7  8  2  0
  8  9  1  0
  9 10  2  0
  2 11  1  0
 11 12  1  0
 12 13  1  0
 13 14  1  0
 14 15  1  0
 15 16  1  0
 16 17  2  0
 17 18  1  0
 18 19  1  0
 19 20  2  0
 20 21  1  0
 21 22  2  0
 22 23  1  0
 23 24  2  0
 10  5  1  0
 15 11  1  0
 24 16  1  0
 24 19  1  0
  4 25  1  0
  4 26  1  0
  6 27  1  0
  7 28  1  0
  8 29  1  0
  9 30  1  0
 10 31  1  0
 12 32  1  0
 12 33  1  0
 13 34  1  0
 13 35  1  0
 14 36  1  0
 14 37  1  0
 15 38  1  1
 17 39  1  0
 18 40  1  0
 20 41  1  0
 21 42  1  0
 22 43  1  0
 23 44  1  0
M  END
>  <UniqueID>  (53) 
219

>  <SMILES>  (53) 
O=S(=O)(Cc1ccccc1)N1CCC[C@H]1c1c[nH]c2ccccc12

>  <Energy>  (53) 
75.68602208483318

>  <Genealogy>  (53) 
O=S(=O)(Cc1ccccc1)N1CCC[C@H]1c1c[nH]c2ccccc12 (chirality)
O=S(=O)(Cc1ccccc1)N1CCC[C@H]1c1c[nH]c2ccccc12 (3D coordinates assigned)
O=S(=O)(Cc1ccccc1)N1CCC[C@H]1c1c[nH]c2ccccc12 (nonaromatic ring conformer: 75.68602208483318 kcal/mol)

>  <smiles>  (53) 
O=S(=O)(Cc1ccccc1)N1CCCC1c1c[nH]c2ccccc12

>  <score_type>  (53) 
oracle

>  <origin>  (53) 
autodockgpu

>  <m_score__min__energy>  (53) 
-7.7699999999999996

>  <m_primary>  (53) 
energy

>  <meeko>  (53) 
{"free_energy": -7.12, "intermolecular_energy": -8.31, "internal_energy": -1.92, "cluster_size": 16, "cluster_id": 2, "rank_in_cluster": 8}

>  <energy>  (53) 
-7.12

>  <cluster_rmsd>  (53) 
0.02

>  <rmsd>  (53) 
272.49

>  <cluster>  (53) 
2

$$$$
QHTAHHNEYOTCSC-IBGZPJMENA-N
     RDKit          3D

 44 47  0  0  0  0  0  0  0  0999 V2000
  142.3890   81.4190  224.1300 O   0  0  0  0  0  0  0  0  0  0  0  0
  142.5280   80.4450  222.9940 S   0  0  0  0  0  0  0  0  0  0  0  0
  143.9890   80.1410  222.8130 O   0  0  0  0  0  0  0  0  0  0  0  0
  141.6770   78.9330  223.4740 C   0  0  0  0  0  0  0  0  0  0  0  0
  140.1830   79.0590  223.3630 C   0  0  0  0  0  0  0  0  0  0  0  0
  139.4320   78.0460  222.7420 C   0  0  0  0  0  0  0  0  0  0  0  0
  138.0490   78.1820  222.5950 C   0  0  0  0  0  0  0  0  0  0  0  0
  137.4030   79.3270  223.0700 C   0  0  0  0  0  0  0  0  0  0  0  0
  138.1400   80.3350  223.6970 C   0  0  0  0  0  0  0  0  0  0  0  0
  139.5230   80.2030  223.8480 C   0  0  0  0  0  0  0  0  0  0  0  0
  141.9230   81.2170  221.5420 N   0  0  0  0  0  0  0  0  0  0  0  0
  141.2420   82.4810  221.8160 C   0  0  0  0  0  0  0  0  0  0  0  0
  140.2560   82.6930  220.6820 C   0  0  0  0  0  0  0  0  0  0  0  0
  139.9250   81.2990  220.1800 C   0  0  0  0  0  0  0  0  0  0  0  0
  140.9930   80.3770  220.7800 C   0  0  1  0  0  0  0  0  0  0  0  0
  141.7360   79.6140  219.7160 C   0  0  0  0  0  0  0  0  0  0  0  0
  142.3180   80.1590  218.5760 C   0  0  0  0  0  0  0  0  0  0  0  0
  142.9330   79.1980  217.8510 N   0  0  0  0  0  0  0  0  0  0  0  0
  142.7510   78.0500  218.5260 C   0  0  0  0  0  0  0  0  0  0  0  0
  143.2140   76.7830  218.1720 C   0  0  0  0  0  0  0  0  0  0  0  0
  142.9160   75.7110  219.0320 C   0  0  0  0  0  0  0  0  0  0  0  0
  142.1720   75.9260  220.2130 C   0  0  0  0  0  0  0  0  0  0  0  0
  141.7200   77.2150  220.5450 C   0  0  0  0  0  0  0  0  0  0  0  0
  142.0280   78.2600  219.6730 C   0  0  0  0  0  0  0  0  0  0  0  0
  142.0126   78.1152  222.8193 H   0  0  0  0  0  0  0  0  0  0  0  0
  141.9201   78.7300  224.5274 H   0  0  0  0  0  0  0  0  0  0  0  0
  139.9355   77.1416  222.3698 H   0  0  0  0  0  0  0  0  0  0  0  0
  137.4679   77.3870  222.1048 H   0  0  0  0  0  0  0  0  0  0  0  0
  136.3148   79.4345  222.9502 H   0  0  0  0  0  0  0  0  0  0  0  0
  137.6304   81.2346  224.0726 H   0  0  0  0  0  0  0  0  0  0  0  0
  140.0978   80.9965  224.3479 H   0  0  0  0  0  0  0  0  0  0  0  0
  140.7098   82.4255  222.7771 H   0  0  0  0  0  0  0  0  0  0  0  0
  141.9584   83.3132  221.8814 H   0  0  0  0  0  0  0  0  0  0  0  0
  139.3493   83.1971  221.0478 H   0  0  0  0  0  0  0  0  0  0  0  0
  140.6725   83.3292  219.8872 H   0  0  0  0  0  0  0  0  0  0  0  0
  138.9232   80.9971  220.5194 H   0  0  0  0  0  0  0  0  0  0  0  0
  139.9209   81.2538  219.0809 H   0  0  0  0  0  0  0  0  0  0  0  0
  140.5105   79.6301  221.4276 H   0  0  0  0  0  0  0  0  0  0  0  0
  142.2827   81.2239  218.3026 H   0  0  0  0  0  0  0  0  0  0  0  0
  143.4490   79.3280  216.9520 H   0  0  0  0  0  0  0  0  0  0  0  0
  143.7935   76.6273  217.2501 H   0  0  0  0  0  0  0  0  0  0  0  0
  143.2648   74.6979  218.7831 H   0  0  0  0  0  0  0  0  0  0  0  0
  141.9447   75.0793  220.8774 H   0  0  0  0  0  0  0  0  0  0  0  0
  141.1417   77.3943  221.4634 H   0  0  0  0  0  0  0  0  0  0  0  0
  1  2  2  0
  2  3  2  0
  2  4  1  0
  4  5  1  0
  5  6  2  0
  6  7  1  0
  7  8  2  0
  8  9  1  0
  9 10  2  0
  2 11  1  0
 11 12  1  0
 12 13  1  0
 13 14  1  0
 14 15  1  0
 15 16  1  0
 16 17  2  0
 17 18  1  0
 18 19  1  0
 19 20  2  0
 20 21  1  0
 21 22  2  0
 22 23  1  0
 23 24  2  0
 10  5  1  0
 15 11  1  0
 24 16  1  0
 24 19  1  0
  4 25  1  0
  4 26  1  0
  6 27  1  0
  7 28  1  0
  8 29  1  0
  9 30  1  0
 10 31  1  0
 12 32  1  0
 12 33  1  0
 13 34  1  0
 13 35  1  0
 14 36  1  0
 14 37  1  0
 15 38  1  1
 17 39  1  0
 18 40  1  0
 20 41  1  0
 21 42  1  0
 22 43  1  0
 23 44  1  0
M  END
>  <UniqueID>  (54) 
219

>  <SMILES>  (54) 
O=S(=O)(Cc1ccccc1)N1CCC[C@H]1c1c[nH]c2ccccc12

>  <Energy>  (54) 
75.68602208483318

>  <Genealogy>  (54) 
O=S(=O)(Cc1ccccc1)N1CCC[C@H]1c1c[nH]c2ccccc12 (chirality)
O=S(=O)(Cc1ccccc1)N1CCC[C@H]1c1c[nH]c2ccccc12 (3D coordinates assigned)
O=S(=O)(Cc1ccccc1)N1CCC[C@H]1c1c[nH]c2ccccc12 (nonaromatic ring conformer: 75.68602208483318 kcal/mol)

>  <smiles>  (54) 
O=S(=O)(Cc1ccccc1)N1CCCC1c1c[nH]c2ccccc12

>  <score_type>  (54) 
oracle

>  <origin>  (54) 
autodockgpu

>  <m_score__min__energy>  (54) 
-7.7699999999999996

>  <m_primary>  (54) 
energy

>  <meeko>  (54) 
{"free_energy": -7.11, "intermolecular_energy": -8.3, "internal_energy": -1.93, "cluster_size": 16, "cluster_id": 2, "rank_in_cluster": 11}

>  <energy>  (54) 
-7.11

>  <cluster_rmsd>  (54) 
0.13

>  <rmsd>  (54) 
272.49

>  <cluster>  (54) 
2

$$$$
QHTAHHNEYOTCSC-IBGZPJMENA-N
     RDKit          3D

 44 47  0  0  0  0  0  0  0  0999 V2000
  141.1880   76.5840  223.0150 O   0  0  0  0  0  0  0  0  0  0  0  0
  140.1000   76.2550  222.0330 S   0  0  0  0  0  0  0  0  0  0  0  0
  139.9660   74.7590  221.9670 O   0  0  0  0  0  0  0  0  0  0  0  0
  138.5670   76.9450  222.6760 C   0  0  0  0  0  0  0  0  0  0  0  0
  138.5740   78.4490  222.6740 C   0  0  0  0  0  0  0  0  0  0  0  0
  138.9940   79.1550  223.8160 C   0  0  0  0  0  0  0  0  0  0  0  0
  138.9570   80.5520  223.8340 C   0  0  0  0  0  0  0  0  0  0  0  0
  138.5060   81.2560  222.7150 C   0  0  0  0  0  0  0  0  0  0  0  0
  138.0950   80.5630  221.5720 C   0  0  0  0  0  0  0  0  0  0  0  0
  138.1310   79.1660  221.5490 C   0  0  0  0  0  0  0  0  0  0  0  0
  140.5900   76.8530  220.4610 N   0  0  0  0  0  0  0  0  0  0  0  0
  140.6010   75.8100  219.4370 C   0  0  0  0  0  0  0  0  0  0  0  0
  141.6040   76.2490  218.3870 C   0  0  0  0  0  0  0  0  0  0  0  0
  142.5880   77.1380  219.1260 C   0  0  0  0  0  0  0  0  0  0  0  0
  141.9190   77.4750  220.4630 C   0  0  1  0  0  0  0  0  0  0  0  0
  141.7960   78.9610  220.6690 C   0  0  0  0  0  0  0  0  0  0  0  0
  141.4090   79.8900  219.7060 C   0  0  0  0  0  0  0  0  0  0  0  0
  141.3720   81.1330  220.2350 N   0  0  0  0  0  0  0  0  0  0  0  0
  141.7240   81.0000  221.5250 C   0  0  0  0  0  0  0  0  0  0  0  0
  141.8210   82.0110  222.4810 C   0  0  0  0  0  0  0  0  0  0  0  0
  142.2020   81.6480  223.7850 C   0  0  0  0  0  0  0  0  0  0  0  0
  142.4730   80.2990  224.1020 C   0  0  0  0  0  0  0  0  0  0  0  0
  142.3660   79.3010  223.1190 C   0  0  0  0  0  0  0  0  0  0  0  0
  141.9880   79.6890  221.8320 C   0  0  0  0  0  0  0  0  0  0  0  0
  137.7318   76.5941  222.0520 H   0  0  0  0  0  0  0  0  0  0  0  0
  138.4577   76.6100  223.7180 H   0  0  0  0  0  0  0  0  0  0  0  0
  139.3530   78.6052  224.6985 H   0  0  0  0  0  0  0  0  0  0  0  0
  139.2837   81.0982  224.7312 H   0  0  0  0  0  0  0  0  0  0  0  0
  138.4741   82.3554  222.7329 H   0  0  0  0  0  0  0  0  0  0  0  0
  137.7430   81.1181  220.6900 H   0  0  0  0  0  0  0  0  0  0  0  0
  137.8111   78.6250  220.6462 H   0  0  0  0  0  0  0  0  0  0  0  0
  140.9067   74.8490  219.8764 H   0  0  0  0  0  0  0  0  0  0  0  0
  139.6014   75.6712  218.9993 H   0  0  0  0  0  0  0  0  0  0  0  0
  142.1190   75.3774  217.9568 H   0  0  0  0  0  0  0  0  0  0  0  0
  141.1209   76.7756  217.5508 H   0  0  0  0  0  0  0  0  0  0  0  0
  143.5351   76.6045  219.2947 H   0  0  0  0  0  0  0  0  0  0  0  0
  142.8266   78.0451  218.5513 H   0  0  0  0  0  0  0  0  0  0  0  0
  142.5361   77.0903  221.2884 H   0  0  0  0  0  0  0  0  0  0  0  0
  141.1673   79.6460  218.6610 H   0  0  0  0  0  0  0  0  0  0  0  0
  141.1140   82.0150  219.7380 H   0  0  0  0  0  0  0  0  0  0  0  0
  141.6064   83.0586  222.2232 H   0  0  0  0  0  0  0  0  0  0  0  0
  142.2895   82.4203  224.5634 H   0  0  0  0  0  0  0  0  0  0  0  0
  142.7700   80.0276  225.1258 H   0  0  0  0  0  0  0  0  0  0  0  0
  142.5735   78.2470  223.3558 H   0  0  0  0  0  0  0  0  0  0  0  0
  1  2  2  0
  2  3  2  0
  2  4  1  0
  4  5  1  0
  5  6  2  0
  6  7  1  0
  7  8  2  0
  8  9  1  0
  9 10  2  0
  2 11  1  0
 11 12  1  0
 12 13  1  0
 13 14  1  0
 14 15  1  0
 15 16  1  0
 16 17  2  0
 17 18  1  0
 18 19  1  0
 19 20  2  0
 20 21  1  0
 21 22  2  0
 22 23  1  0
 23 24  2  0
 10  5  1  0
 15 11  1  0
 24 16  1  0
 24 19  1  0
  4 25  1  0
  4 26  1  0
  6 27  1  0
  7 28  1  0
  8 29  1  0
  9 30  1  0
 10 31  1  0
 12 32  1  0
 12 33  1  0
 13 34  1  0
 13 35  1  0
 14 36  1  0
 14 37  1  0
 15 38  1  1
 17 39  1  0
 18 40  1  0
 20 41  1  0
 21 42  1  0
 22 43  1  0
 23 44  1  0
M  END
>  <UniqueID>  (55) 
219

>  <SMILES>  (55) 
O=S(=O)(Cc1ccccc1)N1CCC[C@H]1c1c[nH]c2ccccc12

>  <Energy>  (55) 
75.68602208483318

>  <Genealogy>  (55) 
O=S(=O)(Cc1ccccc1)N1CCC[C@H]1c1c[nH]c2ccccc12 (chirality)
O=S(=O)(Cc1ccccc1)N1CCC[C@H]1c1c[nH]c2ccccc12 (3D coordinates assigned)
O=S(=O)(Cc1ccccc1)N1CCC[C@H]1c1c[nH]c2ccccc12 (nonaromatic ring conformer: 75.68602208483318 kcal/mol)

>  <smiles>  (55) 
O=S(=O)(Cc1ccccc1)N1CCCC1c1c[nH]c2ccccc12

>  <score_type>  (55) 
oracle

>  <origin>  (55) 
autodockgpu

>  <m_score__min__energy>  (55) 
-7.7699999999999996

>  <m_primary>  (55) 
energy

>  <meeko>  (55) 
{"free_energy": -6.29, "intermolecular_energy": -7.48, "internal_energy": -2.53, "cluster_size": 1, "cluster_id": 3, "rank_in_cluster": 1}

>  <energy>  (55) 
-7.11

>  <cluster_rmsd>  (55) 
0.14

>  <rmsd>  (55) 
272.47

>  <cluster>  (55) 
2

$$$$
QHTAHHNEYOTCSC-IBGZPJMENA-N
     RDKit          3D

 44 47  0  0  0  0  0  0  0  0999 V2000
  142.4470   81.3710  224.1510 O   0  0  0  0  0  0  0  0  0  0  0  0
  142.5590   80.4370  222.9800 S   0  0  0  0  0  0  0  0  0  0  0  0
  144.0140   80.1320  222.7610 O   0  0  0  0  0  0  0  0  0  0  0  0
  141.7080   78.9130  223.4240 C   0  0  0  0  0  0  0  0  0  0  0  0
  140.2130   79.0480  223.3350 C   0  0  0  0  0  0  0  0  0  0  0  0
  139.4490   78.0460  222.7130 C   0  0  0  0  0  0  0  0  0  0  0  0
  138.0640   78.1900  222.5860 C   0  0  0  0  0  0  0  0  0  0  0  0
  137.4310   79.3330  223.0830 C   0  0  0  0  0  0  0  0  0  0  0  0
  138.1810   80.3300  223.7120 C   0  0  0  0  0  0  0  0  0  0  0  0
  139.5660   80.1900  223.8420 C   0  0  0  0  0  0  0  0  0  0  0  0
  141.9310   81.2620  221.5680 N   0  0  0  0  0  0  0  0  0  0  0  0
  141.2610   82.5180  221.8970 C   0  0  0  0  0  0  0  0  0  0  0  0
  140.2570   82.7740  220.7900 C   0  0  0  0  0  0  0  0  0  0  0  0
  139.9100   81.4000  220.2450 C   0  0  0  0  0  0  0  0  0  0  0  0
  140.9840   80.4530  220.7940 C   0  0  1  0  0  0  0  0  0  0  0  0
  141.7030   79.7240  219.6900 C   0  0  0  0  0  0  0  0  0  0  0  0
  142.2400   80.3030  218.5430 C   0  0  0  0  0  0  0  0  0  0  0  0
  142.8460   79.3670  217.7790 N   0  0  0  0  0  0  0  0  0  0  0  0
  142.7050   78.2030  218.4350 C   0  0  0  0  0  0  0  0  0  0  0  0
  143.1760   76.9510  218.0390 C   0  0  0  0  0  0  0  0  0  0  0  0
  142.9230   75.8560  218.8850 C   0  0  0  0  0  0  0  0  0  0  0  0
  142.2150   76.0350  220.0940 C   0  0  0  0  0  0  0  0  0  0  0  0
  141.7530   77.3090  220.4680 C   0  0  0  0  0  0  0  0  0  0  0  0
  142.0160   78.3770  219.6090 C   0  0  0  0  0  0  0  0  0  0  0  0
  142.0325   78.1145  222.7405 H   0  0  0  0  0  0  0  0  0  0  0  0
  141.9632   78.6766  224.4675 H   0  0  0  0  0  0  0  0  0  0  0  0
  139.9432   77.1435  222.3239 H   0  0  0  0  0  0  0  0  0  0  0  0
  137.4723   77.4035  222.0948 H   0  0  0  0  0  0  0  0  0  0  0  0
  136.3420   79.4475  222.9788 H   0  0  0  0  0  0  0  0  0  0  0  0
  137.6807   81.2270  224.1058 H   0  0  0  0  0  0  0  0  0  0  0  0
  140.1518   80.9752  224.3423 H   0  0  0  0  0  0  0  0  0  0  0  0
  140.7455   82.4314  222.8649 H   0  0  0  0  0  0  0  0  0  0  0  0
  141.9827   83.3442  221.9780 H   0  0  0  0  0  0  0  0  0  0  0  0
  139.3595   83.2689  221.1895 H   0  0  0  0  0  0  0  0  0  0  0  0
  140.6626   83.4360  220.0108 H   0  0  0  0  0  0  0  0  0  0  0  0
  138.9127   81.0907  220.5910 H   0  0  0  0  0  0  0  0  0  0  0  0
  139.8863   81.3933  219.1453 H   0  0  0  0  0  0  0  0  0  0  0  0
  140.5105   79.6861  221.4247 H   0  0  0  0  0  0  0  0  0  0  0  0
  142.1795   81.3726  218.2936 H   0  0  0  0  0  0  0  0  0  0  0  0
  143.3310   79.5240  216.8670 H   0  0  0  0  0  0  0  0  0  0  0  0
  143.7274   76.8242  217.0957 H   0  0  0  0  0  0  0  0  0  0  0  0
  143.2788   74.8540  218.6032 H   0  0  0  0  0  0  0  0  0  0  0  0
  142.0237   75.1712  220.7477 H   0  0  0  0  0  0  0  0  0  0  0  0
  141.2017   77.4593  221.4079 H   0  0  0  0  0  0  0  0  0  0  0  0
  1  2  2  0
  2  3  2  0
  2  4  1  0
  4  5  1  0
  5  6  2  0
  6  7  1  0
  7  8  2  0
  8  9  1  0
  9 10  2  0
  2 11  1  0
 11 12  1  0
 12 13  1  0
 13 14  1  0
 14 15  1  0
 15 16  1  0
 16 17  2  0
 17 18  1  0
 18 19  1  0
 19 20  2  0
 20 21  1  0
 21 22  2  0
 22 23  1  0
 23 24  2  0
 10  5  1  0
 15 11  1  0
 24 16  1  0
 24 19  1  0
  4 25  1  0
  4 26  1  0
  6 27  1  0
  7 28  1  0
  8 29  1  0
  9 30  1  0
 10 31  1  0
 12 32  1  0
 12 33  1  0
 13 34  1  0
 13 35  1  0
 14 36  1  0
 14 37  1  0
 15 38  1  1
 17 39  1  0
 18 40  1  0
 20 41  1  0
 21 42  1  0
 22 43  1  0
 23 44  1  0
M  END
>  <UniqueID>  (56) 
219

>  <SMILES>  (56) 
O=S(=O)(Cc1ccccc1)N1CCC[C@H]1c1c[nH]c2ccccc12

>  <Energy>  (56) 
75.68602208483318

>  <Genealogy>  (56) 
O=S(=O)(Cc1ccccc1)N1CCC[C@H]1c1c[nH]c2ccccc12 (chirality)
O=S(=O)(Cc1ccccc1)N1CCC[C@H]1c1c[nH]c2ccccc12 (3D coordinates assigned)
O=S(=O)(Cc1ccccc1)N1CCC[C@H]1c1c[nH]c2ccccc12 (nonaromatic ring conformer: 75.68602208483318 kcal/mol)

>  <smiles>  (56) 
O=S(=O)(Cc1ccccc1)N1CCCC1c1c[nH]c2ccccc12

>  <score_type>  (56) 
oracle

>  <origin>  (56) 
autodockgpu

>  <m_score__min__energy>  (56) 
-7.7699999999999996

>  <m_primary>  (56) 
energy

>  <meeko>  (56) 
{"free_energy": -7.12, "intermolecular_energy": -8.31, "internal_energy": -1.92, "cluster_size": 16, "cluster_id": 2, "rank_in_cluster": 9}

>  <energy>  (56) 
-7.1

>  <cluster_rmsd>  (56) 
0.12

>  <rmsd>  (56) 
272.49

>  <cluster>  (56) 
2

$$$$
QHTAHHNEYOTCSC-IBGZPJMENA-N
     RDKit          3D

 44 47  0  0  0  0  0  0  0  0999 V2000
  142.4190   81.3460  224.1630 O   0  0  0  0  0  0  0  0  0  0  0  0
  142.5400   80.4150  222.9900 S   0  0  0  0  0  0  0  0  0  0  0  0
  143.9990   80.1280  222.7690 O   0  0  0  0  0  0  0  0  0  0  0  0
  141.7070   78.8810  223.4300 C   0  0  0  0  0  0  0  0  0  0  0  0
  140.2100   79.0000  223.3440 C   0  0  0  0  0  0  0  0  0  0  0  0
  139.4570   77.9900  222.7210 C   0  0  0  0  0  0  0  0  0  0  0  0
  138.0700   78.1190  222.5980 C   0  0  0  0  0  0  0  0  0  0  0  0
  137.4250   79.2540  223.0980 C   0  0  0  0  0  0  0  0  0  0  0  0
  138.1650   80.2580  223.7270 C   0  0  0  0  0  0  0  0  0  0  0  0
  139.5510   80.1330  223.8540 C   0  0  0  0  0  0  0  0  0  0  0  0
  141.9020   81.2370  221.5800 N   0  0  0  0  0  0  0  0  0  0  0  0
  141.2180   82.4850  221.9130 C   0  0  0  0  0  0  0  0  0  0  0  0
  140.2100   82.7320  220.8080 C   0  0  0  0  0  0  0  0  0  0  0  0
  139.8770   81.3560  220.2600 C   0  0  0  0  0  0  0  0  0  0  0  0
  140.9630   80.4190  220.8050 C   0  0  1  0  0  0  0  0  0  0  0  0
  141.6900   79.7010  219.6990 C   0  0  0  0  0  0  0  0  0  0  0  0
  142.2160   80.2880  218.5510 C   0  0  0  0  0  0  0  0  0  0  0  0
  142.8320   79.3620  217.7840 N   0  0  0  0  0  0  0  0  0  0  0  0
  142.7080   78.1950  218.4390 C   0  0  0  0  0  0  0  0  0  0  0  0
  143.1950   76.9500  218.0410 C   0  0  0  0  0  0  0  0  0  0  0  0
  142.9580   75.8510  218.8870 C   0  0  0  0  0  0  0  0  0  0  0  0
  142.2500   76.0190  220.0970 C   0  0  0  0  0  0  0  0  0  0  0  0
  141.7730   77.2860  220.4730 C   0  0  0  0  0  0  0  0  0  0  0  0
  142.0200   78.3580  219.6150 C   0  0  0  0  0  0  0  0  0  0  0  0
  142.0390   78.0885  222.7432 H   0  0  0  0  0  0  0  0  0  0  0  0
  141.9667   78.6437  224.4722 H   0  0  0  0  0  0  0  0  0  0  0  0
  139.9607   77.0943  222.3285 H   0  0  0  0  0  0  0  0  0  0  0  0
  137.4859   77.3265  222.1073 H   0  0  0  0  0  0  0  0  0  0  0  0
  136.3345   79.3565  222.9961 H   0  0  0  0  0  0  0  0  0  0  0  0
  137.6556   81.1489  224.1232 H   0  0  0  0  0  0  0  0  0  0  0  0
  140.1288   80.9238  224.3548 H   0  0  0  0  0  0  0  0  0  0  0  0
  140.7047   82.3903  222.8813 H   0  0  0  0  0  0  0  0  0  0  0  0
  141.9304   83.3192  221.9951 H   0  0  0  0  0  0  0  0  0  0  0  0
  139.3077   83.2162  221.2098 H   0  0  0  0  0  0  0  0  0  0  0  0
  140.6077   83.3999  220.0297 H   0  0  0  0  0  0  0  0  0  0  0  0
  138.8838   81.0349  220.6069 H   0  0  0  0  0  0  0  0  0  0  0  0
  139.8512   81.3519  219.1603 H   0  0  0  0  0  0  0  0  0  0  0  0
  140.4982   79.6449  221.4333 H   0  0  0  0  0  0  0  0  0  0  0  0
  142.1405   81.3570  218.3031 H   0  0  0  0  0  0  0  0  0  0  0  0
  143.3130   79.5260  216.8720 H   0  0  0  0  0  0  0  0  0  0  0  0
  143.7464   76.8312  217.0966 H   0  0  0  0  0  0  0  0  0  0  0  0
  143.3268   74.8541  218.6038 H   0  0  0  0  0  0  0  0  0  0  0  0
  142.0706   75.1520  220.7498 H   0  0  0  0  0  0  0  0  0  0  0  0
  141.2220   77.4282  221.4144 H   0  0  0  0  0  0  0  0  0  0  0  0
  1  2  2  0
  2  3  2  0
  2  4  1  0
  4  5  1  0
  5  6  2  0
  6  7  1  0
  7  8  2  0
  8  9  1  0
  9 10  2  0
  2 11  1  0
 11 12  1  0
 12 13  1  0
 13 14  1  0
 14 15  1  0
 15 16  1  0
 16 17  2  0
 17 18  1  0
 18 19  1  0
 19 20  2  0
 20 21  1  0
 21 22  2  0
 22 23  1  0
 23 24  2  0
 10  5  1  0
 15 11  1  0
 24 16  1  0
 24 19  1  0
  4 25  1  0
  4 26  1  0
  6 27  1  0
  7 28  1  0
  8 29  1  0
  9 30  1  0
 10 31  1  0
 12 32  1  0
 12 33  1  0
 13 34  1  0
 13 35  1  0
 14 36  1  0
 14 37  1  0
 15 38  1  1
 17 39  1  0
 18 40  1  0
 20 41  1  0
 21 42  1  0
 22 43  1  0
 23 44  1  0
M  END
>  <UniqueID>  (57) 
219

>  <SMILES>  (57) 
O=S(=O)(Cc1ccccc1)N1CCC[C@H]1c1c[nH]c2ccccc12

>  <Energy>  (57) 
75.68602208483318

>  <Genealogy>  (57) 
O=S(=O)(Cc1ccccc1)N1CCC[C@H]1c1c[nH]c2ccccc12 (chirality)
O=S(=O)(Cc1ccccc1)N1CCC[C@H]1c1c[nH]c2ccccc12 (3D coordinates assigned)
O=S(=O)(Cc1ccccc1)N1CCC[C@H]1c1c[nH]c2ccccc12 (nonaromatic ring conformer: 75.68602208483318 kcal/mol)

>  <smiles>  (57) 
O=S(=O)(Cc1ccccc1)N1CCCC1c1c[nH]c2ccccc12

>  <score_type>  (57) 
oracle

>  <origin>  (57) 
autodockgpu

>  <m_score__min__energy>  (57) 
-7.7699999999999996

>  <m_primary>  (57) 
energy

>  <meeko>  (57) 
{"free_energy": -7.12, "intermolecular_energy": -8.32, "internal_energy": -1.93, "cluster_size": 16, "cluster_id": 2, "rank_in_cluster": 5}

>  <energy>  (57) 
-7.1

>  <cluster_rmsd>  (57) 
0.3

>  <rmsd>  (57) 
272.52

>  <cluster>  (57) 
2

$$$$
QHTAHHNEYOTCSC-IBGZPJMENA-N
     RDKit          3D

 44 47  0  0  0  0  0  0  0  0999 V2000
  142.4510   81.3800  224.1620 O   0  0  0  0  0  0  0  0  0  0  0  0
  142.5590   80.4470  222.9890 S   0  0  0  0  0  0  0  0  0  0  0  0
  144.0130   80.1390  222.7690 O   0  0  0  0  0  0  0  0  0  0  0  0
  141.7050   78.9260  223.4310 C   0  0  0  0  0  0  0  0  0  0  0  0
  140.2100   79.0630  223.3390 C   0  0  0  0  0  0  0  0  0  0  0  0
  139.4450   78.0620  222.7150 C   0  0  0  0  0  0  0  0  0  0  0  0
  138.0610   78.2090  222.5860 C   0  0  0  0  0  0  0  0  0  0  0  0
  137.4290   79.3530  223.0830 C   0  0  0  0  0  0  0  0  0  0  0  0
  138.1800   80.3480  223.7140 C   0  0  0  0  0  0  0  0  0  0  0  0
  139.5640   80.2050  223.8460 C   0  0  0  0  0  0  0  0  0  0  0  0
  141.9320   81.2770  221.5790 N   0  0  0  0  0  0  0  0  0  0  0  0
  141.2650   82.5330  221.9110 C   0  0  0  0  0  0  0  0  0  0  0  0
  140.2610   82.7930  220.8050 C   0  0  0  0  0  0  0  0  0  0  0  0
  139.9100   81.4210  220.2570 C   0  0  0  0  0  0  0  0  0  0  0  0
  140.9830   80.4710  220.8030 C   0  0  1  0  0  0  0  0  0  0  0  0
  141.7010   79.7420  219.6980 C   0  0  0  0  0  0  0  0  0  0  0  0
  142.2380   80.3230  218.5530 C   0  0  0  0  0  0  0  0  0  0  0  0
  142.8420   79.3870  217.7860 N   0  0  0  0  0  0  0  0  0  0  0  0
  142.6980   78.2210  218.4390 C   0  0  0  0  0  0  0  0  0  0  0  0
  143.1660   76.9700  218.0410 C   0  0  0  0  0  0  0  0  0  0  0  0
  142.9100   75.8730  218.8840 C   0  0  0  0  0  0  0  0  0  0  0  0
  142.2020   76.0510  220.0930 C   0  0  0  0  0  0  0  0  0  0  0  0
  141.7440   77.3250  220.4700 C   0  0  0  0  0  0  0  0  0  0  0  0
  142.0100   78.3950  219.6140 C   0  0  0  0  0  0  0  0  0  0  0  0
  142.0296   78.1269  222.7483 H   0  0  0  0  0  0  0  0  0  0  0  0
  141.9575   78.6897  224.4752 H   0  0  0  0  0  0  0  0  0  0  0  0
  139.9380   77.1587  222.3264 H   0  0  0  0  0  0  0  0  0  0  0  0
  137.4685   77.4241  222.0931 H   0  0  0  0  0  0  0  0  0  0  0  0
  136.3403   79.4696  222.9772 H   0  0  0  0  0  0  0  0  0  0  0  0
  137.6809   81.2457  224.1077 H   0  0  0  0  0  0  0  0  0  0  0  0
  140.1503   80.9885  224.3483 H   0  0  0  0  0  0  0  0  0  0  0  0
  140.7498   82.4453  222.8789 H   0  0  0  0  0  0  0  0  0  0  0  0
  141.9883   83.3577  221.9935 H   0  0  0  0  0  0  0  0  0  0  0  0
  139.3649   83.2892  221.2060 H   0  0  0  0  0  0  0  0  0  0  0  0
  140.6682   83.4552  220.0268 H   0  0  0  0  0  0  0  0  0  0  0  0
  138.9124   81.1130  220.6035 H   0  0  0  0  0  0  0  0  0  0  0  0
  139.8845   81.4167  219.1573 H   0  0  0  0  0  0  0  0  0  0  0  0
  140.5078   79.7035  221.4316 H   0  0  0  0  0  0  0  0  0  0  0  0
  142.1794   81.3934  218.3064 H   0  0  0  0  0  0  0  0  0  0  0  0
  143.3270   79.5450  216.8740 H   0  0  0  0  0  0  0  0  0  0  0  0
  143.7179   76.8443  217.0978 H   0  0  0  0  0  0  0  0  0  0  0  0
  143.2634   74.8708  218.5998 H   0  0  0  0  0  0  0  0  0  0  0  0
  142.0076   75.1861  220.7443 H   0  0  0  0  0  0  0  0  0  0  0  0
  141.1931   77.4743  221.4103 H   0  0  0  0  0  0  0  0  0  0  0  0
  1  2  2  0
  2  3  2  0
  2  4  1  0
  4  5  1  0
  5  6  2  0
  6  7  1  0
  7  8  2  0
  8  9  1  0
  9 10  2  0
  2 11  1  0
 11 12  1  0
 12 13  1  0
 13 14  1  0
 14 15  1  0
 15 16  1  0
 16 17  2  0
 17 18  1  0
 18 19  1  0
 19 20  2  0
 20 21  1  0
 21 22  2  0
 22 23  1  0
 23 24  2  0
 10  5  1  0
 15 11  1  0
 24 16  1  0
 24 19  1  0
  4 25  1  0
  4 26  1  0
  6 27  1  0
  7 28  1  0
  8 29  1  0
  9 30  1  0
 10 31  1  0
 12 32  1  0
 12 33  1  0
 13 34  1  0
 13 35  1  0
 14 36  1  0
 14 37  1  0
 15 38  1  1
 17 39  1  0
 18 40  1  0
 20 41  1  0
 21 42  1  0
 22 43  1  0
 23 44  1  0
M  END
>  <UniqueID>  (58) 
219

>  <SMILES>  (58) 
O=S(=O)(Cc1ccccc1)N1CCC[C@H]1c1c[nH]c2ccccc12

>  <Energy>  (58) 
75.68602208483318

>  <Genealogy>  (58) 
O=S(=O)(Cc1ccccc1)N1CCC[C@H]1c1c[nH]c2ccccc12 (chirality)
O=S(=O)(Cc1ccccc1)N1CCC[C@H]1c1c[nH]c2ccccc12 (3D coordinates assigned)
O=S(=O)(Cc1ccccc1)N1CCC[C@H]1c1c[nH]c2ccccc12 (nonaromatic ring conformer: 75.68602208483318 kcal/mol)

>  <smiles>  (58) 
O=S(=O)(Cc1ccccc1)N1CCCC1c1c[nH]c2ccccc12

>  <score_type>  (58) 
oracle

>  <origin>  (58) 
autodockgpu

>  <m_score__min__energy>  (58) 
-7.7699999999999996

>  <m_primary>  (58) 
energy

>  <meeko>  (58) 
{"free_energy": -7.13, "intermolecular_energy": -8.32, "internal_energy": -1.92, "cluster_size": 16, "cluster_id": 2, "rank_in_cluster": 2}

>  <energy>  (58) 
-7.09

>  <cluster_rmsd>  (58) 
0.33

>  <rmsd>  (58) 
272.53

>  <cluster>  (58) 
2

$$$$
QHTAHHNEYOTCSC-IBGZPJMENA-N
     RDKit          3D

 44 47  0  0  0  0  0  0  0  0999 V2000
  142.4510   81.3690  224.1440 O   0  0  0  0  0  0  0  0  0  0  0  0
  142.5640   80.4320  222.9750 S   0  0  0  0  0  0  0  0  0  0  0  0
  144.0190   80.1230  222.7610 O   0  0  0  0  0  0  0  0  0  0  0  0
  141.7080   78.9110  223.4190 C   0  0  0  0  0  0  0  0  0  0  0  0
  140.2130   79.0520  223.3340 C   0  0  0  0  0  0  0  0  0  0  0  0
  139.4430   78.0500  222.7190 C   0  0  0  0  0  0  0  0  0  0  0  0
  138.0590   78.1990  222.5960 C   0  0  0  0  0  0  0  0  0  0  0  0
  137.4320   79.3470  223.0890 C   0  0  0  0  0  0  0  0  0  0  0  0
  138.1880   80.3440  223.7110 C   0  0  0  0  0  0  0  0  0  0  0  0
  139.5720   80.1980  223.8380 C   0  0  0  0  0  0  0  0  0  0  0  0
  141.9420   81.2560  221.5590 N   0  0  0  0  0  0  0  0  0  0  0  0
  141.2840   82.5200  221.8830 C   0  0  0  0  0  0  0  0  0  0  0  0
  140.2810   82.7790  220.7760 C   0  0  0  0  0  0  0  0  0  0  0  0
  139.9200   81.4060  220.2390 C   0  0  0  0  0  0  0  0  0  0  0  0
  140.9860   80.4520  220.7900 C   0  0  1  0  0  0  0  0  0  0  0  0
  141.6970   79.7100  219.6900 C   0  0  0  0  0  0  0  0  0  0  0  0
  142.2350   80.2780  218.5380 C   0  0  0  0  0  0  0  0  0  0  0  0
  142.8320   79.3330  217.7780 N   0  0  0  0  0  0  0  0  0  0  0  0
  142.6840   78.1740  218.4410 C   0  0  0  0  0  0  0  0  0  0  0  0
  143.1450   76.9160  218.0530 C   0  0  0  0  0  0  0  0  0  0  0  0
  142.8860   75.8290  218.9070 C   0  0  0  0  0  0  0  0  0  0  0  0
  142.1820   76.0200  220.1160 C   0  0  0  0  0  0  0  0  0  0  0  0
  141.7310   77.3000  220.4820 C   0  0  0  0  0  0  0  0  0  0  0  0
  141.9990   78.3610  219.6160 C   0  0  0  0  0  0  0  0  0  0  0  0
  142.0276   78.1122  222.7336 H   0  0  0  0  0  0  0  0  0  0  0  0
  141.9648   78.6722  224.4616 H   0  0  0  0  0  0  0  0  0  0  0  0
  139.9323   77.1438  222.3325 H   0  0  0  0  0  0  0  0  0  0  0  0
  137.4625   77.4123  222.1109 H   0  0  0  0  0  0  0  0  0  0  0  0
  136.3432   79.4655  222.9873 H   0  0  0  0  0  0  0  0  0  0  0  0
  137.6929   81.2454  224.1014 H   0  0  0  0  0  0  0  0  0  0  0  0
  140.1624   80.9824  224.3341 H   0  0  0  0  0  0  0  0  0  0  0  0
  140.7691   82.4430  222.8520 H   0  0  0  0  0  0  0  0  0  0  0  0
  142.0132   83.3401  221.9592 H   0  0  0  0  0  0  0  0  0  0  0  0
  139.3889   83.2846  221.1740 H   0  0  0  0  0  0  0  0  0  0  0  0
  140.6921   83.4325  219.9925 H   0  0  0  0  0  0  0  0  0  0  0  0
  138.9207   81.1078  220.5889 H   0  0  0  0  0  0  0  0  0  0  0  0
  139.8936   81.3940  219.1394 H   0  0  0  0  0  0  0  0  0  0  0  0
  140.5055   79.6926  221.4243 H   0  0  0  0  0  0  0  0  0  0  0  0
  142.1816   81.3465  218.2822 H   0  0  0  0  0  0  0  0  0  0  0  0
  143.3150   79.4800  216.8640 H   0  0  0  0  0  0  0  0  0  0  0  0
  143.6935   76.7785  217.1094 H   0  0  0  0  0  0  0  0  0  0  0  0
  143.2344   74.8228  218.6311 H   0  0  0  0  0  0  0  0  0  0  0  0
  141.9853   75.1618  220.7755 H   0  0  0  0  0  0  0  0  0  0  0  0
  141.1835   77.4605  221.4224 H   0  0  0  0  0  0  0  0  0  0  0  0
  1  2  2  0
  2  3  2  0
  2  4  1  0
  4  5  1  0
  5  6  2  0
  6  7  1  0
  7  8  2  0
  8  9  1  0
  9 10  2  0
  2 11  1  0
 11 12  1  0
 12 13  1  0
 13 14  1  0
 14 15  1  0
 15 16  1  0
 16 17  2  0
 17 18  1  0
 18 19  1  0
 19 20  2  0
 20 21  1  0
 21 22  2  0
 22 23  1  0
 23 24  2  0
 10  5  1  0
 15 11  1  0
 24 16  1  0
 24 19  1  0
  4 25  1  0
  4 26  1  0
  6 27  1  0
  7 28  1  0
  8 29  1  0
  9 30  1  0
 10 31  1  0
 12 32  1  0
 12 33  1  0
 13 34  1  0
 13 35  1  0
 14 36  1  0
 14 37  1  0
 15 38  1  1
 17 39  1  0
 18 40  1  0
 20 41  1  0
 21 42  1  0
 22 43  1  0
 23 44  1  0
M  END
>  <UniqueID>  (59) 
219

>  <SMILES>  (59) 
O=S(=O)(Cc1ccccc1)N1CCC[C@H]1c1c[nH]c2ccccc12

>  <Energy>  (59) 
75.68602208483318

>  <Genealogy>  (59) 
O=S(=O)(Cc1ccccc1)N1CCC[C@H]1c1c[nH]c2ccccc12 (chirality)
O=S(=O)(Cc1ccccc1)N1CCC[C@H]1c1c[nH]c2ccccc12 (3D coordinates assigned)
O=S(=O)(Cc1ccccc1)N1CCC[C@H]1c1c[nH]c2ccccc12 (nonaromatic ring conformer: 75.68602208483318 kcal/mol)

>  <smiles>  (59) 
O=S(=O)(Cc1ccccc1)N1CCCC1c1c[nH]c2ccccc12

>  <score_type>  (59) 
oracle

>  <origin>  (59) 
autodockgpu

>  <m_score__min__energy>  (59) 
-7.7699999999999996

>  <m_primary>  (59) 
energy

>  <meeko>  (59) 
{"free_energy": -7.12, "intermolecular_energy": -8.31, "internal_energy": -1.92, "cluster_size": 16, "cluster_id": 2, "rank_in_cluster": 10}

>  <energy>  (59) 
-7.09

>  <cluster_rmsd>  (59) 
0.29

>  <rmsd>  (59) 
272.53

>  <cluster>  (59) 
2

$$$$
QHTAHHNEYOTCSC-IBGZPJMENA-N
     RDKit          3D

 44 47  0  0  0  0  0  0  0  0999 V2000
  135.7930   68.8740  225.3310 O   0  0  0  0  0  0  0  0  0  0  0  0
  135.9710   69.5450  223.9980 S   0  0  0  0  0  0  0  0  0  0  0  0
  136.0440   68.4770  222.9420 O   0  0  0  0  0  0  0  0  0  0  0  0
  134.5100   70.5530  223.7020 C   0  0  0  0  0  0  0  0  0  0  0  0
  134.0840   71.3150  224.9280 C   0  0  0  0  0  0  0  0  0  0  0  0
  133.5390   70.6320  226.0290 C   0  0  0  0  0  0  0  0  0  0  0  0
  133.0980   71.3410  227.1510 C   0  0  0  0  0  0  0  0  0  0  0  0
  133.2040   72.7340  227.1840 C   0  0  0  0  0  0  0  0  0  0  0  0
  133.7530   73.4200  226.0980 C   0  0  0  0  0  0  0  0  0  0  0  0
  134.1960   72.7160  224.9750 C   0  0  0  0  0  0  0  0  0  0  0  0
  137.4900   70.4180  224.0310 N   0  0  0  0  0  0  0  0  0  0  0  0
  137.5570   71.4750  223.0250 C   0  0  0  0  0  0  0  0  0  0  0  0
  139.0270   71.6840  222.7160 C   0  0  0  0  0  0  0  0  0  0  0  0
  139.6890   70.3520  223.0220 C   0  0  0  0  0  0  0  0  0  0  0  0
  138.6610   69.5560  223.8350 C   0  0  1  0  0  0  0  0  0  0  0  0
  139.2150   69.1210  225.1660 C   0  0  0  0  0  0  0  0  0  0  0  0
  139.2100   67.8220  225.6680 C   0  0  0  0  0  0  0  0  0  0  0  0
  139.8160   67.7780  226.8750 N   0  0  0  0  0  0  0  0  0  0  0  0
  140.2110   69.0360  227.1390 C   0  0  0  0  0  0  0  0  0  0  0  0
  140.8910   69.4840  228.2710 C   0  0  0  0  0  0  0  0  0  0  0  0
  141.2180   70.8510  228.3430 C   0  0  0  0  0  0  0  0  0  0  0  0
  140.8630   71.7270  227.2930 C   0  0  0  0  0  0  0  0  0  0  0  0
  140.1800   71.2460  226.1630 C   0  0  0  0  0  0  0  0  0  0  0  0
  139.8660   69.8860  226.1190 C   0  0  0  0  0  0  0  0  0  0  0  0
  134.7323   71.2709  222.8988 H   0  0  0  0  0  0  0  0  0  0  0  0
  133.6871   69.8789  223.4218 H   0  0  0  0  0  0  0  0  0  0  0  0
  133.4590   69.5351  226.0081 H   0  0  0  0  0  0  0  0  0  0  0  0
  132.6676   70.8019  228.0078 H   0  0  0  0  0  0  0  0  0  0  0  0
  132.8548   73.2909  228.0660 H   0  0  0  0  0  0  0  0  0  0  0  0
  133.8368   74.5164  226.1268 H   0  0  0  0  0  0  0  0  0  0  0  0
  134.6338   73.2597  224.1249 H   0  0  0  0  0  0  0  0  0  0  0  0
  137.0176   71.1694  222.1164 H   0  0  0  0  0  0  0  0  0  0  0  0
  137.0921   72.4022  223.3912 H   0  0  0  0  0  0  0  0  0  0  0  0
  139.1651   71.9497  221.6576 H   0  0  0  0  0  0  0  0  0  0  0  0
  139.4597   72.5046  223.3070 H   0  0  0  0  0  0  0  0  0  0  0  0
  139.9342   69.8222  222.0897 H   0  0  0  0  0  0  0  0  0  0  0  0
  140.6307   70.4837  223.5751 H   0  0  0  0  0  0  0  0  0  0  0  0
  138.3919   68.6397  223.2891 H   0  0  0  0  0  0  0  0  0  0  0  0
  138.7737   66.9530  225.1537 H   0  0  0  0  0  0  0  0  0  0  0  0
  139.9540   66.9340  227.4740 H   0  0  0  0  0  0  0  0  0  0  0  0
  141.1630   68.7915  229.0813 H   0  0  0  0  0  0  0  0  0  0  0  0
  141.7531   71.2396  229.2220 H   0  0  0  0  0  0  0  0  0  0  0  0
  141.1232   72.7936  227.3605 H   0  0  0  0  0  0  0  0  0  0  0  0
  139.9015   71.9195  225.3391 H   0  0  0  0  0  0  0  0  0  0  0  0
  1  2  2  0
  2  3  2  0
  2  4  1  0
  4  5  1  0
  5  6  2  0
  6  7  1  0
  7  8  2  0
  8  9  1  0
  9 10  2  0
  2 11  1  0
 11 12  1  0
 12 13  1  0
 13 14  1  0
 14 15  1  0
 15 16  1  0
 16 17  2  0
 17 18  1  0
 18 19  1  0
 19 20  2  0
 20 21  1  0
 21 22  2  0
 22 23  1  0
 23 24  2  0
 10  5  1  0
 15 11  1  0
 24 16  1  0
 24 19  1  0
  4 25  1  0
  4 26  1  0
  6 27  1  0
  7 28  1  0
  8 29  1  0
  9 30  1  0
 10 31  1  0
 12 32  1  0
 12 33  1  0
 13 34  1  0
 13 35  1  0
 14 36  1  0
 14 37  1  0
 15 38  1  6
 17 39  1  0
 18 40  1  0
 20 41  1  0
 21 42  1  0
 22 43  1  0
 23 44  1  0
M  END
>  <UniqueID>  (60) 
219

>  <SMILES>  (60) 
O=S(=O)(Cc1ccccc1)N1CCC[C@H]1c1c[nH]c2ccccc12

>  <Energy>  (60) 
75.68602208483318

>  <Genealogy>  (60) 
O=S(=O)(Cc1ccccc1)N1CCC[C@H]1c1c[nH]c2ccccc12 (chirality)
O=S(=O)(Cc1ccccc1)N1CCC[C@H]1c1c[nH]c2ccccc12 (3D coordinates assigned)
O=S(=O)(Cc1ccccc1)N1CCC[C@H]1c1c[nH]c2ccccc12 (nonaromatic ring conformer: 75.68602208483318 kcal/mol)

>  <smiles>  (60) 
O=S(=O)(Cc1ccccc1)N1CCCC1c1c[nH]c2ccccc12

>  <score_type>  (60) 
oracle

>  <origin>  (60) 
autodockgpu

>  <m_score__min__energy>  (60) 
-7.7699999999999996

>  <m_primary>  (60) 
energy

>  <meeko>  (60) 
{"free_energy": -7.77, "intermolecular_energy": -8.96, "internal_energy": -1.34, "cluster_size": 3, "cluster_id": 1, "rank_in_cluster": 1}

>  <energy>  (60) 
-6.29

>  <cluster_rmsd>  (60) 
0.0

>  <rmsd>  (60) 
272.48

>  <cluster>  (60) 
3

$$$$
QHTAHHNEYOTCSC-LJQANCHMNA-N
     RDKit          3D

 44 47  0  0  0  0  0  0  0  0999 V2000
  141.8500   78.2680  223.8390 O   0  0  0  0  0  0  0  0  0  0  0  0
  142.0460   79.4900  222.9840 S   0  0  0  0  0  0  0  0  0  0  0  0
  143.5220   79.7430  222.8410 O   0  0  0  0  0  0  0  0  0  0  0  0
  141.2860   80.8680  223.8280 C   0  0  0  0  0  0  0  0  0  0  0  0
  139.8450   81.0140  223.4320 C   0  0  0  0  0  0  0  0  0  0  0  0
  138.8320   80.4400  224.2190 C   0  0  0  0  0  0  0  0  0  0  0  0
  137.4890   80.6100  223.8720 C   0  0  0  0  0  0  0  0  0  0  0  0
  137.1470   81.3560  222.7400 C   0  0  0  0  0  0  0  0  0  0  0  0
  138.1490   81.9350  221.9550 C   0  0  0  0  0  0  0  0  0  0  0  0
  139.4930   81.7680  222.2990 C   0  0  0  0  0  0  0  0  0  0  0  0
  141.2840   79.2570  221.4210 N   0  0  0  0  0  0  0  0  0  0  0  0
  141.8280   80.1470  220.3940 C   0  0  0  0  0  0  0  0  0  0  0  0
  141.5410   79.4810  219.0620 C   0  0  0  0  0  0  0  0  0  0  0  0
  141.4550   77.9970  219.3770 C   0  0  0  0  0  0  0  0  0  0  0  0
  141.4920   77.9000  220.9050 C   0  0  2  0  0  0  0  0  0  0  0  0
  140.4240   76.9710  221.4190 C   0  0  0  0  0  0  0  0  0  0  0  0
  140.6050   75.6880  221.9330 C   0  0  0  0  0  0  0  0  0  0  0  0
  139.4280   75.1830  222.3670 N   0  0  0  0  0  0  0  0  0  0  0  0
  138.5090   76.1400  222.1470 C   0  0  0  0  0  0  0  0  0  0  0  0
  137.1500   76.0890  222.4490 C   0  0  0  0  0  0  0  0  0  0  0  0
  136.3670   77.2200  222.1520 C   0  0  0  0  0  0  0  0  0  0  0  0
  136.9560   78.3650  221.5700 C   0  0  0  0  0  0  0  0  0  0  0  0
  138.3320   78.3880  221.2770 C   0  0  0  0  0  0  0  0  0  0  0  0
  139.0800   77.2490  221.5770 C   0  0  0  0  0  0  0  0  0  0  0  0
  141.3455   80.7018  224.9137 H   0  0  0  0  0  0  0  0  0  0  0  0
  141.8208   81.7878  223.5487 H   0  0  0  0  0  0  0  0  0  0  0  0
  139.0973   79.8546  225.1117 H   0  0  0  0  0  0  0  0  0  0  0  0
  136.7002   80.1564  224.4901 H   0  0  0  0  0  0  0  0  0  0  0  0
  136.0896   81.4875  222.4669 H   0  0  0  0  0  0  0  0  0  0  0  0
  137.8788   82.5228  221.0654 H   0  0  0  0  0  0  0  0  0  0  0  0
  140.2782   82.2281  221.6811 H   0  0  0  0  0  0  0  0  0  0  0  0
  141.3371   81.1302  220.4424 H   0  0  0  0  0  0  0  0  0  0  0  0
  142.9064   80.3112  220.5360 H   0  0  0  0  0  0  0  0  0  0  0  0
  140.5900   79.8438  218.6449 H   0  0  0  0  0  0  0  0  0  0  0  0
  142.3165   79.7011  218.3135 H   0  0  0  0  0  0  0  0  0  0  0  0
  140.5167   77.5751  218.9877 H   0  0  0  0  0  0  0  0  0  0  0  0
  142.2772   77.4330  218.9123 H   0  0  0  0  0  0  0  0  0  0  0  0
  142.4562   77.4905  221.2405 H   0  0  0  0  0  0  0  0  0  0  0  0
  141.5693   75.1607  221.9791 H   0  0  0  0  0  0  0  0  0  0  0  0
  139.2710   74.2450  222.7980 H   0  0  0  0  0  0  0  0  0  0  0  0
  136.7032   75.1933  222.9051 H   0  0  0  0  0  0  0  0  0  0  0  0
  135.2897   77.2127  222.3743 H   0  0  0  0  0  0  0  0  0  0  0  0
  136.3346   79.2442  221.3445 H   0  0  0  0  0  0  0  0  0  0  0  0
  138.8024   79.2744  220.8264 H   0  0  0  0  0  0  0  0  0  0  0  0
  1  2  2  0
  2  3  2  0
  2  4  1  0
  4  5  1  0
  5  6  2  0
  6  7  1  0
  7  8  2  0
  8  9  1  0
  9 10  2  0
  2 11  1  0
 11 12  1  0
 12 13  1  0
 13 14  1  0
 14 15  1  0
 15 16  1  0
 16 17  2  0
 17 18  1  0
 18 19  1  0
 19 20  2  0
 20 21  1  0
 21 22  2  0
 22 23  1  0
 23 24  2  0
 10  5  1  0
 15 11  1  0
 24 16  1  0
 24 19  1  0
  4 25  1  0
  4 26  1  0
  6 27  1  0
  7 28  1  0
  8 29  1  0
  9 30  1  0
 10 31  1  0
 12 32  1  0
 12 33  1  0
 13 34  1  0
 13 35  1  0
 14 36  1  0
 14 37  1  0
 15 38  1  6
 17 39  1  0
 18 40  1  0
 20 41  1  0
 21 42  1  0
 22 43  1  0
 23 44  1  0
M  END
>  <UniqueID>  (61) 
220

>  <SMILES>  (61) 
O=S(=O)(Cc1ccccc1)N1CCC[C@@H]1c1c[nH]c2ccccc12

>  <Energy>  (61) 
75.73670100260922

>  <Genealogy>  (61) 
O=S(=O)(Cc1ccccc1)N1CCC[C@@H]1c1c[nH]c2ccccc12 (chirality)
O=S(=O)(Cc1ccccc1)N1CCC[C@@H]1c1c[nH]c2ccccc12 (3D coordinates assigned)
O=S(=O)(Cc1ccccc1)N1CCC[C@@H]1c1c[nH]c2ccccc12 (nonaromatic ring conformer: 75.73670100260922 kcal/mol)

>  <smiles>  (61) 
O=S(=O)(Cc1ccccc1)N1CCCC1c1c[nH]c2ccccc12

>  <score_type>  (61) 
oracle

>  <origin>  (61) 
autodockgpu

>  <m_score__min__energy>  (61) 
-7.5499999999999998

>  <m_primary>  (61) 
energy

>  <meeko>  (61) 
{"free_energy": -5.97, "intermolecular_energy": -7.16, "internal_energy": -2.24, "cluster_size": 3, "cluster_id": 6, "rank_in_cluster": 2}

>  <energy>  (61) 
-7.55

>  <cluster_rmsd>  (61) 
0.0

>  <rmsd>  (61) 
271.01

>  <cluster>  (61) 
1

$$$$
QHTAHHNEYOTCSC-LJQANCHMNA-N
     RDKit          3D

 44 47  0  0  0  0  0  0  0  0999 V2000
  141.4210   81.0390  224.2190 O   0  0  0  0  0  0  0  0  0  0  0  0
  141.3070   79.6530  223.6460 S   0  0  0  0  0  0  0  0  0  0  0  0
  141.8210   78.6700  224.6620 O   0  0  0  0  0  0  0  0  0  0  0  0
  142.3300   79.5870  222.1840 C   0  0  0  0  0  0  0  0  0  0  0  0
  141.8760   80.5890  221.1620 C   0  0  0  0  0  0  0  0  0  0  0  0
  141.8160   80.2380  219.8030 C   0  0  0  0  0  0  0  0  0  0  0  0
  141.3550   81.1580  218.8570 C   0  0  0  0  0  0  0  0  0  0  0  0
  140.9480   82.4330  219.2620 C   0  0  0  0  0  0  0  0  0  0  0  0
  140.9980   82.7880  220.6130 C   0  0  0  0  0  0  0  0  0  0  0  0
  141.4580   81.8700  221.5620 C   0  0  0  0  0  0  0  0  0  0  0  0
  139.6390   79.3160  223.2200 N   0  0  0  0  0  0  0  0  0  0  0  0
  138.8140   80.5250  223.1790 C   0  0  0  0  0  0  0  0  0  0  0  0
  137.6380   80.2040  222.2790 C   0  0  0  0  0  0  0  0  0  0  0  0
  138.1450   79.1200  221.3420 C   0  0  0  0  0  0  0  0  0  0  0  0
  139.5220   78.7240  221.8830 C   0  0  2  0  0  0  0  0  0  0  0  0
  139.6710   77.2270  221.9550 C   0  0  0  0  0  0  0  0  0  0  0  0
  138.8030   76.3270  222.5700 C   0  0  0  0  0  0  0  0  0  0  0  0
  139.2190   75.0570  222.3690 N   0  0  0  0  0  0  0  0  0  0  0  0
  140.3320   75.1450  221.6190 C   0  0  0  0  0  0  0  0  0  0  0  0
  141.1110   74.0930  221.1380 C   0  0  0  0  0  0  0  0  0  0  0  0
  142.2300   74.4120  220.3470 C   0  0  0  0  0  0  0  0  0  0  0  0
  142.5390   75.7600  220.0550 C   0  0  0  0  0  0  0  0  0  0  0  0
  141.7340   76.8000  220.5530 C   0  0  0  0  0  0  0  0  0  0  0  0
  140.6350   76.4520  221.3390 C   0  0  0  0  0  0  0  0  0  0  0  0
  143.3712   79.8054  222.4637 H   0  0  0  0  0  0  0  0  0  0  0  0
  142.2506   78.5808  221.7467 H   0  0  0  0  0  0  0  0  0  0  0  0
  142.1332   79.2348  219.4820 H   0  0  0  0  0  0  0  0  0  0  0  0
  141.3124   80.8790  217.7938 H   0  0  0  0  0  0  0  0  0  0  0  0
  140.5881   83.1574  218.5166 H   0  0  0  0  0  0  0  0  0  0  0  0
  140.6751   83.7907  220.9299 H   0  0  0  0  0  0  0  0  0  0  0  0
  141.4929   82.1511  222.6249 H   0  0  0  0  0  0  0  0  0  0  0  0
  138.4622   80.7810  224.1893 H   0  0  0  0  0  0  0  0  0  0  0  0
  139.3841   81.3867  222.8016 H   0  0  0  0  0  0  0  0  0  0  0  0
  136.7869   79.8364  222.8711 H   0  0  0  0  0  0  0  0  0  0  0  0
  137.2819   81.0896  221.7324 H   0  0  0  0  0  0  0  0  0  0  0  0
  137.4652   78.2553  221.3507 H   0  0  0  0  0  0  0  0  0  0  0  0
  138.2009   79.4728  220.3016 H   0  0  0  0  0  0  0  0  0  0  0  0
  140.3159   79.0897  221.2151 H   0  0  0  0  0  0  0  0  0  0  0  0
  137.9053   76.6104  223.1391 H   0  0  0  0  0  0  0  0  0  0  0  0
  138.7590   74.1850  222.7140 H   0  0  0  0  0  0  0  0  0  0  0  0
  140.8587   73.0476  221.3695 H   0  0  0  0  0  0  0  0  0  0  0  0
  142.8684   73.6073  219.9534 H   0  0  0  0  0  0  0  0  0  0  0  0
  143.4153   75.9972  219.4339 H   0  0  0  0  0  0  0  0  0  0  0  0
  141.9631   77.8526  220.3303 H   0  0  0  0  0  0  0  0  0  0  0  0
  1  2  2  0
  2  3  2  0
  2  4  1  0
  4  5  1  0
  5  6  2  0
  6  7  1  0
  7  8  2  0
  8  9  1  0
  9 10  2  0
  2 11  1  0
 11 12  1  0
 12 13  1  0
 13 14  1  0
 14 15  1  0
 15 16  1  0
 16 17  2  0
 17 18  1  0
 18 19  1  0
 19 20  2  0
 20 21  1  0
 21 22  2  0
 22 23  1  0
 23 24  2  0
 10  5  1  0
 15 11  1  0
 24 16  1  0
 24 19  1  0
  4 25  1  0
  4 26  1  0
  6 27  1  0
  7 28  1  0
  8 29  1  0
  9 30  1  0
 10 31  1  0
 12 32  1  0
 12 33  1  0
 13 34  1  0
 13 35  1  0
 14 36  1  0
 14 37  1  0
 15 38  1  6
 17 39  1  0
 18 40  1  0
 20 41  1  0
 21 42  1  0
 22 43  1  0
 23 44  1  0
M  END
>  <UniqueID>  (62) 
220

>  <SMILES>  (62) 
O=S(=O)(Cc1ccccc1)N1CCC[C@@H]1c1c[nH]c2ccccc12

>  <Energy>  (62) 
75.73670100260922

>  <Genealogy>  (62) 
O=S(=O)(Cc1ccccc1)N1CCC[C@@H]1c1c[nH]c2ccccc12 (chirality)
O=S(=O)(Cc1ccccc1)N1CCC[C@@H]1c1c[nH]c2ccccc12 (3D coordinates assigned)
O=S(=O)(Cc1ccccc1)N1CCC[C@@H]1c1c[nH]c2ccccc12 (nonaromatic ring conformer: 75.73670100260922 kcal/mol)

>  <smiles>  (62) 
O=S(=O)(Cc1ccccc1)N1CCCC1c1c[nH]c2ccccc12

>  <score_type>  (62) 
oracle

>  <origin>  (62) 
autodockgpu

>  <m_score__min__energy>  (62) 
-7.5499999999999998

>  <m_primary>  (62) 
energy

>  <meeko>  (62) 
{"free_energy": -6.53, "intermolecular_energy": -7.72, "internal_energy": -1.84, "cluster_size": 8, "cluster_id": 5, "rank_in_cluster": 6}

>  <energy>  (62) 
-7.55

>  <cluster_rmsd>  (62) 
0.03

>  <rmsd>  (62) 
271.0

>  <cluster>  (62) 
1

$$$$
QHTAHHNEYOTCSC-LJQANCHMNA-N
     RDKit          3D

 44 47  0  0  0  0  0  0  0  0999 V2000
  141.0530   71.4010  223.7830 O   0  0  0  0  0  0  0  0  0  0  0  0
  139.8070   71.1670  222.9750 S   0  0  0  0  0  0  0  0  0  0  0  0
  140.0150   69.9530  222.1110 O   0  0  0  0  0  0  0  0  0  0  0  0
  139.5590   72.5990  221.9370 C   0  0  0  0  0  0  0  0  0  0  0  0
  140.8690   73.1290  221.4280 C   0  0  0  0  0  0  0  0  0  0  0  0
  141.9100   72.2450  221.0960 C   0  0  0  0  0  0  0  0  0  0  0  0
  143.1140   72.7360  220.5850 C   0  0  0  0  0  0  0  0  0  0  0  0
  143.2880   74.1110  220.3990 C   0  0  0  0  0  0  0  0  0  0  0  0
  142.2550   74.9960  220.7210 C   0  0  0  0  0  0  0  0  0  0  0  0
  141.0480   74.5090  221.2310 C   0  0  0  0  0  0  0  0  0  0  0  0
  138.4290   70.9610  224.0420 N   0  0  0  0  0  0  0  0  0  0  0  0
  137.1890   71.4830  223.4630 C   0  0  0  0  0  0  0  0  0  0  0  0
  136.0580   70.7550  224.1640 C   0  0  0  0  0  0  0  0  0  0  0  0
  136.6580   69.4320  224.6070 C   0  0  0  0  0  0  0  0  0  0  0  0
  138.1580   69.5470  224.3230 C   0  0  2  0  0  0  0  0  0  0  0  0
  138.9750   69.0790  225.4990 C   0  0  0  0  0  0  0  0  0  0  0  0
  139.1950   67.7600  225.8950 C   0  0  0  0  0  0  0  0  0  0  0  0
  140.0390   67.7180  226.9500 N   0  0  0  0  0  0  0  0  0  0  0  0
  140.3660   68.9960  227.2140 C   0  0  0  0  0  0  0  0  0  0  0  0
  141.2300   69.4570  228.2060 C   0  0  0  0  0  0  0  0  0  0  0  0
  141.4500   70.8440  228.2930 C   0  0  0  0  0  0  0  0  0  0  0  0
  140.8120   71.7280  227.3940 C   0  0  0  0  0  0  0  0  0  0  0  0
  139.9460   71.2330  226.4020 C   0  0  0  0  0  0  0  0  0  0  0  0
  139.7430   69.8540  226.3450 C   0  0  0  0  0  0  0  0  0  0  0  0
  138.9279   72.3178  221.0811 H   0  0  0  0  0  0  0  0  0  0  0  0
  139.0718   73.3841  222.5339 H   0  0  0  0  0  0  0  0  0  0  0  0
  141.7763   71.1626  221.2390 H   0  0  0  0  0  0  0  0  0  0  0  0
  143.9263   72.0400  220.3286 H   0  0  0  0  0  0  0  0  0  0  0  0
  144.2377   74.4961  219.9993 H   0  0  0  0  0  0  0  0  0  0  0  0
  142.3921   76.0773  220.5728 H   0  0  0  0  0  0  0  0  0  0  0  0
  140.2357   75.2081  221.4789 H   0  0  0  0  0  0  0  0  0  0  0  0
  137.1123   72.5662  223.6383 H   0  0  0  0  0  0  0  0  0  0  0  0
  137.1556   71.3242  222.3750 H   0  0  0  0  0  0  0  0  0  0  0  0
  135.7073   71.3309  225.0331 H   0  0  0  0  0  0  0  0  0  0  0  0
  135.1868   70.6146  223.5073 H   0  0  0  0  0  0  0  0  0  0  0  0
  136.4814   69.2702  225.6806 H   0  0  0  0  0  0  0  0  0  0  0  0
  136.2064   68.5811  224.0759 H   0  0  0  0  0  0  0  0  0  0  0  0
  138.4362   68.9104  223.4702 H   0  0  0  0  0  0  0  0  0  0  0  0
  138.7450   66.8779  225.4161 H   0  0  0  0  0  0  0  0  0  0  0  0
  140.3770   66.8650  227.4470 H   0  0  0  0  0  0  0  0  0  0  0  0
  141.7237   68.7592  228.8983 H   0  0  0  0  0  0  0  0  0  0  0  0
  142.1232   71.2429  229.0661 H   0  0  0  0  0  0  0  0  0  0  0  0
  140.9937   72.8102  227.4703 H   0  0  0  0  0  0  0  0  0  0  0  0
  139.4456   71.9108  225.6948 H   0  0  0  0  0  0  0  0  0  0  0  0
  1  2  2  0
  2  3  2  0
  2  4  1  0
  4  5  1  0
  5  6  2  0
  6  7  1  0
  7  8  2  0
  8  9  1  0
  9 10  2  0
  2 11  1  0
 11 12  1  0
 12 13  1  0
 13 14  1  0
 14 15  1  0
 15 16  1  0
 16 17  2  0
 17 18  1  0
 18 19  1  0
 19 20  2  0
 20 21  1  0
 21 22  2  0
 22 23  1  0
 23 24  2  0
 10  5  1  0
 15 11  1  0
 24 16  1  0
 24 19  1  0
  4 25  1  0
  4 26  1  0
  6 27  1  0
  7 28  1  0
  8 29  1  0
  9 30  1  0
 10 31  1  0
 12 32  1  0
 12 33  1  0
 13 34  1  0
 13 35  1  0
 14 36  1  0
 14 37  1  0
 15 38  1  6
 17 39  1  0
 18 40  1  0
 20 41  1  0
 21 42  1  0
 22 43  1  0
 23 44  1  0
M  END
>  <UniqueID>  (63) 
220

>  <SMILES>  (63) 
O=S(=O)(Cc1ccccc1)N1CCC[C@@H]1c1c[nH]c2ccccc12

>  <Energy>  (63) 
75.73670100260922

>  <Genealogy>  (63) 
O=S(=O)(Cc1ccccc1)N1CCC[C@@H]1c1c[nH]c2ccccc12 (chirality)
O=S(=O)(Cc1ccccc1)N1CCC[C@@H]1c1c[nH]c2ccccc12 (3D coordinates assigned)
O=S(=O)(Cc1ccccc1)N1CCC[C@@H]1c1c[nH]c2ccccc12 (nonaromatic ring conformer: 75.73670100260922 kcal/mol)

>  <smiles>  (63) 
O=S(=O)(Cc1ccccc1)N1CCCC1c1c[nH]c2ccccc12

>  <score_type>  (63) 
oracle

>  <origin>  (63) 
autodockgpu

>  <m_score__min__energy>  (63) 
-7.5499999999999998

>  <m_primary>  (63) 
energy

>  <meeko>  (63) 
{"free_energy": -7.48, "intermolecular_energy": -8.67, "internal_energy": -1.23, "cluster_size": 3, "cluster_id": 1, "rank_in_cluster": 3}

>  <energy>  (63) 
-7.48

>  <cluster_rmsd>  (63) 
0.13

>  <rmsd>  (63) 
270.94

>  <cluster>  (63) 
1

$$$$
QHTAHHNEYOTCSC-LJQANCHMNA-N
     RDKit          3D

 44 47  0  0  0  0  0  0  0  0999 V2000
  141.0900   71.2960  223.8590 O   0  0  0  0  0  0  0  0  0  0  0  0
  139.8370   71.1920  223.0350 S   0  0  0  0  0  0  0  0  0  0  0  0
  139.9940   70.0530  222.0640 O   0  0  0  0  0  0  0  0  0  0  0  0
  139.6570   72.7210  222.1300 C   0  0  0  0  0  0  0  0  0  0  0  0
  140.9580   73.1330  221.5040 C   0  0  0  0  0  0  0  0  0  0  0  0
  141.2350   74.4920  221.2760 C   0  0  0  0  0  0  0  0  0  0  0  0
  142.4630   74.8780  220.7300 C   0  0  0  0  0  0  0  0  0  0  0  0
  143.4220   73.9110  220.4100 C   0  0  0  0  0  0  0  0  0  0  0  0
  143.1550   72.5590  220.6390 C   0  0  0  0  0  0  0  0  0  0  0  0
  141.9300   72.1690  221.1860 C   0  0  0  0  0  0  0  0  0  0  0  0
  138.4480   70.9520  224.0800 N   0  0  0  0  0  0  0  0  0  0  0  0
  137.2040   71.4360  223.4790 C   0  0  0  0  0  0  0  0  0  0  0  0
  136.0820   70.6810  224.1650 C   0  0  0  0  0  0  0  0  0  0  0  0
  136.7120   69.3760  224.6250 C   0  0  0  0  0  0  0  0  0  0  0  0
  138.2130   69.5330  224.3640 C   0  0  2  0  0  0  0  0  0  0  0  0
  139.0230   69.0930  225.5560 C   0  0  0  0  0  0  0  0  0  0  0  0
  139.2570   67.7840  225.9740 C   0  0  0  0  0  0  0  0  0  0  0  0
  140.0900   67.7700  227.0380 N   0  0  0  0  0  0  0  0  0  0  0  0
  140.3970   69.0560  227.2870 C   0  0  0  0  0  0  0  0  0  0  0  0
  141.2440   69.5440  228.2810 C   0  0  0  0  0  0  0  0  0  0  0  0
  141.4430   70.9350  228.3500 C   0  0  0  0  0  0  0  0  0  0  0  0
  140.8030   71.7960  227.4310 C   0  0  0  0  0  0  0  0  0  0  0  0
  139.9550   71.2740  226.4370 C   0  0  0  0  0  0  0  0  0  0  0  0
  139.7720   69.8920  226.3990 C   0  0  0  0  0  0  0  0  0  0  0  0
  138.9048   72.5843  221.3391 H   0  0  0  0  0  0  0  0  0  0  0  0
  139.3411   73.5077  222.8310 H   0  0  0  0  0  0  0  0  0  0  0  0
  140.4832   75.2544  221.5280 H   0  0  0  0  0  0  0  0  0  0  0  0
  142.6751   75.9426  220.5520 H   0  0  0  0  0  0  0  0  0  0  0  0
  144.3867   74.2154  219.9779 H   0  0  0  0  0  0  0  0  0  0  0  0
  143.9107   71.8000  220.3882 H   0  0  0  0  0  0  0  0  0  0  0  0
  141.7256   71.1037  221.3684 H   0  0  0  0  0  0  0  0  0  0  0  0
  137.0946   72.5175  223.6472 H   0  0  0  0  0  0  0  0  0  0  0  0
  137.1928   71.2704  222.3916 H   0  0  0  0  0  0  0  0  0  0  0  0
  135.7013   71.2512  225.0252 H   0  0  0  0  0  0  0  0  0  0  0  0
  135.2257   70.5137  223.4952 H   0  0  0  0  0  0  0  0  0  0  0  0
  136.5228   69.2143  225.6965 H   0  0  0  0  0  0  0  0  0  0  0  0
  136.2931   68.5099  224.0917 H   0  0  0  0  0  0  0  0  0  0  0  0
  138.5237   68.9016  223.5185 H   0  0  0  0  0  0  0  0  0  0  0  0
  138.8245   66.8885  225.5039 H   0  0  0  0  0  0  0  0  0  0  0  0
  140.4350   66.9290  227.5520 H   0  0  0  0  0  0  0  0  0  0  0  0
  141.7406   68.8635  228.9884 H   0  0  0  0  0  0  0  0  0  0  0  0
  142.1013   71.3549  229.1247 H   0  0  0  0  0  0  0  0  0  0  0  0
  140.9687   72.8817  227.4929 H   0  0  0  0  0  0  0  0  0  0  0  0
  139.4532   71.9339  225.7140 H   0  0  0  0  0  0  0  0  0  0  0  0
  1  2  2  0
  2  3  2  0
  2  4  1  0
  4  5  1  0
  5  6  2  0
  6  7  1  0
  7  8  2  0
  8  9  1  0
  9 10  2  0
  2 11  1  0
 11 12  1  0
 12 13  1  0
 13 14  1  0
 14 15  1  0
 15 16  1  0
 16 17  2  0
 17 18  1  0
 18 19  1  0
 19 20  2  0
 20 21  1  0
 21 22  2  0
 22 23  1  0
 23 24  2  0
 10  5  1  0
 15 11  1  0
 24 16  1  0
 24 19  1  0
  4 25  1  0
  4 26  1  0
  6 27  1  0
  7 28  1  0
  8 29  1  0
  9 30  1  0
 10 31  1  0
 12 32  1  0
 12 33  1  0
 13 34  1  0
 13 35  1  0
 14 36  1  0
 14 37  1  0
 15 38  1  6
 17 39  1  0
 18 40  1  0
 20 41  1  0
 21 42  1  0
 22 43  1  0
 23 44  1  0
M  END
>  <UniqueID>  (64) 
220

>  <SMILES>  (64) 
O=S(=O)(Cc1ccccc1)N1CCC[C@@H]1c1c[nH]c2ccccc12

>  <Energy>  (64) 
75.73670100260922

>  <Genealogy>  (64) 
O=S(=O)(Cc1ccccc1)N1CCC[C@@H]1c1c[nH]c2ccccc12 (chirality)
O=S(=O)(Cc1ccccc1)N1CCC[C@@H]1c1c[nH]c2ccccc12 (3D coordinates assigned)
O=S(=O)(Cc1ccccc1)N1CCC[C@@H]1c1c[nH]c2ccccc12 (nonaromatic ring conformer: 75.73670100260922 kcal/mol)

>  <smiles>  (64) 
O=S(=O)(Cc1ccccc1)N1CCCC1c1c[nH]c2ccccc12

>  <score_type>  (64) 
oracle

>  <origin>  (64) 
autodockgpu

>  <m_score__min__energy>  (64) 
-7.5499999999999998

>  <m_primary>  (64) 
energy

>  <meeko>  (64) 
{"free_energy": -7.55, "intermolecular_energy": -8.75, "internal_energy": -1.21, "cluster_size": 3, "cluster_id": 1, "rank_in_cluster": 1}

>  <energy>  (64) 
-7.52

>  <cluster_rmsd>  (64) 
0.0

>  <rmsd>  (64) 
270.37

>  <cluster>  (64) 
2

$$$$
QHTAHHNEYOTCSC-LJQANCHMNA-N
     RDKit          3D

 44 47  0  0  0  0  0  0  0  0999 V2000
  137.5560   71.2040  224.5700 O   0  0  0  0  0  0  0  0  0  0  0  0
  136.9540   70.4660  223.4060 S   0  0  0  0  0  0  0  0  0  0  0  0
  137.4430   71.0990  222.1310 O   0  0  0  0  0  0  0  0  0  0  0  0
  135.1800   70.6410  223.5140 C   0  0  0  0  0  0  0  0  0  0  0  0
  134.7600   71.0200  224.9050 C   0  0  0  0  0  0  0  0  0  0  0  0
  134.3220   72.3260  225.1820 C   0  0  0  0  0  0  0  0  0  0  0  0
  133.8930   72.6660  226.4690 C   0  0  0  0  0  0  0  0  0  0  0  0
  133.8950   71.7060  227.4850 C   0  0  0  0  0  0  0  0  0  0  0  0
  134.3240   70.4030  227.2150 C   0  0  0  0  0  0  0  0  0  0  0  0
  134.7520   70.0580  225.9300 C   0  0  0  0  0  0  0  0  0  0  0  0
  137.3900   68.7680  223.4820 N   0  0  0  0  0  0  0  0  0  0  0  0
  137.0120   68.0380  222.2710 C   0  0  0  0  0  0  0  0  0  0  0  0
  137.9140   66.8200  222.2130 C   0  0  0  0  0  0  0  0  0  0  0  0
  139.1650   67.2220  222.9770 C   0  0  0  0  0  0  0  0  0  0  0  0
  138.8380   68.5770  223.6120 C   0  0  2  0  0  0  0  0  0  0  0  0
  139.2460   68.6140  225.0610 C   0  0  0  0  0  0  0  0  0  0  0  0
  139.1930   67.5610  225.9740 C   0  0  0  0  0  0  0  0  0  0  0  0
  139.7100   67.9410  227.1630 N   0  0  0  0  0  0  0  0  0  0  0  0
  140.1050   69.2170  227.0070 C   0  0  0  0  0  0  0  0  0  0  0  0
  140.7190   70.0320  227.9550 C   0  0  0  0  0  0  0  0  0  0  0  0
  141.0720   71.3390  227.5700 C   0  0  0  0  0  0  0  0  0  0  0  0
  140.8090   71.7940  226.2580 C   0  0  0  0  0  0  0  0  0  0  0  0
  140.1890   70.9470  225.3210 C   0  0  0  0  0  0  0  0  0  0  0  0
  139.8460   69.6600  225.7350 C   0  0  0  0  0  0  0  0  0  0  0  0
  134.8525   71.4235  222.8137 H   0  0  0  0  0  0  0  0  0  0  0  0
  134.7167   69.6766  223.2587 H   0  0  0  0  0  0  0  0  0  0  0  0
  134.3165   73.0833  224.3842 H   0  0  0  0  0  0  0  0  0  0  0  0
  133.5535   73.6904  226.6820 H   0  0  0  0  0  0  0  0  0  0  0  0
  133.5590   71.9757  228.4971 H   0  0  0  0  0  0  0  0  0  0  0  0
  134.3247   69.6482  228.0152 H   0  0  0  0  0  0  0  0  0  0  0  0
  135.0836   69.0304  225.7200 H   0  0  0  0  0  0  0  0  0  0  0  0
  135.9575   67.7295  222.3251 H   0  0  0  0  0  0  0  0  0  0  0  0
  137.1251   68.6640  221.3736 H   0  0  0  0  0  0  0  0  0  0  0  0
  137.4292   65.9564  222.6916 H   0  0  0  0  0  0  0  0  0  0  0  0
  138.1391   66.5207  221.1787 H   0  0  0  0  0  0  0  0  0  0  0  0
  139.3963   66.4788  223.7543 H   0  0  0  0  0  0  0  0  0  0  0  0
  140.0443   67.2810  222.3187 H   0  0  0  0  0  0  0  0  0  0  0  0
  139.3924   69.3812  223.1061 H   0  0  0  0  0  0  0  0  0  0  0  0
  138.7874   66.5619  225.7567 H   0  0  0  0  0  0  0  0  0  0  0  0
  139.7980   67.3550  228.0230 H   0  0  0  0  0  0  0  0  0  0  0  0
  140.9216   69.6658  228.9723 H   0  0  0  0  0  0  0  0  0  0  0  0
  141.5556   72.0105  228.2947 H   0  0  0  0  0  0  0  0  0  0  0  0
  141.0908   72.8168  225.9675 H   0  0  0  0  0  0  0  0  0  0  0  0
  139.9817   71.2885  224.2961 H   0  0  0  0  0  0  0  0  0  0  0  0
  1  2  2  0
  2  3  2  0
  2  4  1  0
  4  5  1  0
  5  6  2  0
  6  7  1  0
  7  8  2  0
  8  9  1  0
  9 10  2  0
  2 11  1  0
 11 12  1  0
 12 13  1  0
 13 14  1  0
 14 15  1  0
 15 16  1  0
 16 17  2  0
 17 18  1  0
 18 19  1  0
 19 20  2  0
 20 21  1  0
 21 22  2  0
 22 23  1  0
 23 24  2  0
 10  5  1  0
 15 11  1  0
 24 16  1  0
 24 19  1  0
  4 25  1  0
  4 26  1  0
  6 27  1  0
  7 28  1  0
  8 29  1  0
  9 30  1  0
 10 31  1  0
 12 32  1  0
 12 33  1  0
 13 34  1  0
 13 35  1  0
 14 36  1  0
 14 37  1  0
 15 38  1  6
 17 39  1  0
 18 40  1  0
 20 41  1  0
 21 42  1  0
 22 43  1  0
 23 44  1  0
M  END
>  <UniqueID>  (65) 
220

>  <SMILES>  (65) 
O=S(=O)(Cc1ccccc1)N1CCC[C@@H]1c1c[nH]c2ccccc12

>  <Energy>  (65) 
75.73670100260922

>  <Genealogy>  (65) 
O=S(=O)(Cc1ccccc1)N1CCC[C@@H]1c1c[nH]c2ccccc12 (chirality)
O=S(=O)(Cc1ccccc1)N1CCC[C@@H]1c1c[nH]c2ccccc12 (3D coordinates assigned)
O=S(=O)(Cc1ccccc1)N1CCC[C@@H]1c1c[nH]c2ccccc12 (nonaromatic ring conformer: 75.73670100260922 kcal/mol)

>  <smiles>  (65) 
O=S(=O)(Cc1ccccc1)N1CCCC1c1c[nH]c2ccccc12

>  <score_type>  (65) 
oracle

>  <origin>  (65) 
autodockgpu

>  <m_score__min__energy>  (65) 
-7.5499999999999998

>  <m_primary>  (65) 
energy

>  <meeko>  (65) 
{"free_energy": -6.94, "intermolecular_energy": -8.13, "internal_energy": -1.42, "cluster_size": 2, "cluster_id": 2, "rank_in_cluster": 2}

>  <energy>  (65) 
-6.94

>  <cluster_rmsd>  (65) 
1.47

>  <rmsd>  (65) 
270.29

>  <cluster>  (65) 
2

$$$$
QHTAHHNEYOTCSC-LJQANCHMNA-N
     RDKit          3D

 44 47  0  0  0  0  0  0  0  0999 V2000
  138.7960   77.5020  221.9120 O   0  0  0  0  0  0  0  0  0  0  0  0
  140.0080   76.6120  221.9090 S   0  0  0  0  0  0  0  0  0  0  0  0
  139.5910   75.2310  222.3350 O   0  0  0  0  0  0  0  0  0  0  0  0
  141.1680   77.2740  223.0940 C   0  0  0  0  0  0  0  0  0  0  0  0
  141.2470   78.7700  222.9920 C   0  0  0  0  0  0  0  0  0  0  0  0
  140.2070   79.5710  223.4960 C   0  0  0  0  0  0  0  0  0  0  0  0
  140.3000   80.9640  223.4370 C   0  0  0  0  0  0  0  0  0  0  0  0
  141.4300   81.5680  222.8780 C   0  0  0  0  0  0  0  0  0  0  0  0
  142.4710   80.7790  222.3810 C   0  0  0  0  0  0  0  0  0  0  0  0
  142.3830   79.3850  222.4390 C   0  0  0  0  0  0  0  0  0  0  0  0
  140.7350   76.5930  220.3120 N   0  0  0  0  0  0  0  0  0  0  0  0
  140.6100   77.8800  219.6240 C   0  0  0  0  0  0  0  0  0  0  0  0
  141.7200   77.9150  218.5910 C   0  0  0  0  0  0  0  0  0  0  0  0
  142.8000   77.0010  219.1440 C   0  0  0  0  0  0  0  0  0  0  0  0
  142.1750   76.3230  220.3670 C   0  0  2  0  0  0  0  0  0  0  0  0
  142.4330   74.8390  220.3600 C   0  0  0  0  0  0  0  0  0  0  0  0
  141.4880   73.8250  220.2210 C   0  0  0  0  0  0  0  0  0  0  0  0
  142.0930   72.6160  220.1860 N   0  0  0  0  0  0  0  0  0  0  0  0
  143.4120   72.8590  220.2850 C   0  0  0  0  0  0  0  0  0  0  0  0
  144.4450   71.9230  220.2740 C   0  0  0  0  0  0  0  0  0  0  0  0
  145.7660   72.4000  220.3680 C   0  0  0  0  0  0  0  0  0  0  0  0
  146.0200   73.7860  220.4660 C   0  0  0  0  0  0  0  0  0  0  0  0
  144.9580   74.7070  220.4730 C   0  0  0  0  0  0  0  0  0  0  0  0
  143.6600   74.2040  220.3850 C   0  0  0  0  0  0  0  0  0  0  0  0
  140.8424   76.9993  224.1082 H   0  0  0  0  0  0  0  0  0  0  0  0
  142.1629   76.8553  222.8819 H   0  0  0  0  0  0  0  0  0  0  0  0
  139.3171   79.0994  223.9383 H   0  0  0  0  0  0  0  0  0  0  0  0
  139.4829   81.5862  223.8310 H   0  0  0  0  0  0  0  0  0  0  0  0
  141.4998   82.6647  222.8293 H   0  0  0  0  0  0  0  0  0  0  0  0
  143.3607   81.2555  221.9436 H   0  0  0  0  0  0  0  0  0  0  0  0
  143.2060   78.7673  222.0503 H   0  0  0  0  0  0  0  0  0  0  0  0
  139.6288   77.9564  219.1326 H   0  0  0  0  0  0  0  0  0  0  0  0
  140.6900   78.7213  220.3282 H   0  0  0  0  0  0  0  0  0  0  0  0
  141.3577   77.5429  217.6213 H   0  0  0  0  0  0  0  0  0  0  0  0
  142.0913   78.9358  218.4176 H   0  0  0  0  0  0  0  0  0  0  0  0
  143.0893   76.2501  218.3940 H   0  0  0  0  0  0  0  0  0  0  0  0
  143.7111   77.5583  219.4073 H   0  0  0  0  0  0  0  0  0  0  0  0
  142.6187   76.7177  221.2929 H   0  0  0  0  0  0  0  0  0  0  0  0
  140.4021   73.9852  220.1497 H   0  0  0  0  0  0  0  0  0  0  0  0
  141.6290   71.6870  220.0870 H   0  0  0  0  0  0  0  0  0  0  0  0
  144.2346   70.8462  220.1944 H   0  0  0  0  0  0  0  0  0  0  0  0
  146.6055   71.6892  220.3651 H   0  0  0  0  0  0  0  0  0  0  0  0
  147.0565   74.1474  220.5374 H   0  0  0  0  0  0  0  0  0  0  0  0
  145.1445   75.7887  220.5455 H   0  0  0  0  0  0  0  0  0  0  0  0
  1  2  2  0
  2  3  2  0
  2  4  1  0
  4  5  1  0
  5  6  2  0
  6  7  1  0
  7  8  2  0
  8  9  1  0
  9 10  2  0
  2 11  1  0
 11 12  1  0
 12 13  1  0
 13 14  1  0
 14 15  1  0
 15 16  1  0
 16 17  2  0
 17 18  1  0
 18 19  1  0
 19 20  2  0
 20 21  1  0
 21 22  2  0
 22 23  1  0
 23 24  2  0
 10  5  1  0
 15 11  1  0
 24 16  1  0
 24 19  1  0
  4 25  1  0
  4 26  1  0
  6 27  1  0
  7 28  1  0
  8 29  1  0
  9 30  1  0
 10 31  1  0
 12 32  1  0
 12 33  1  0
 13 34  1  0
 13 35  1  0
 14 36  1  0
 14 37  1  0
 15 38  1  1
 17 39  1  0
 18 40  1  0
 20 41  1  0
 21 42  1  0
 22 43  1  0
 23 44  1  0
M  END
>  <UniqueID>  (66) 
220

>  <SMILES>  (66) 
O=S(=O)(Cc1ccccc1)N1CCC[C@@H]1c1c[nH]c2ccccc12

>  <Energy>  (66) 
75.73670100260922

>  <Genealogy>  (66) 
O=S(=O)(Cc1ccccc1)N1CCC[C@@H]1c1c[nH]c2ccccc12 (chirality)
O=S(=O)(Cc1ccccc1)N1CCC[C@@H]1c1c[nH]c2ccccc12 (3D coordinates assigned)
O=S(=O)(Cc1ccccc1)N1CCC[C@@H]1c1c[nH]c2ccccc12 (nonaromatic ring conformer: 75.73670100260922 kcal/mol)

>  <smiles>  (66) 
O=S(=O)(Cc1ccccc1)N1CCCC1c1c[nH]c2ccccc12

>  <score_type>  (66) 
oracle

>  <origin>  (66) 
autodockgpu

>  <m_score__min__energy>  (66) 
-7.5499999999999998

>  <m_primary>  (66) 
energy

>  <meeko>  (66) 
{"free_energy": -6.92, "intermolecular_energy": -8.11, "internal_energy": -1.52, "cluster_size": 3, "cluster_id": 3, "rank_in_cluster": 1}

>  <energy>  (66) 
-6.92

>  <cluster_rmsd>  (66) 
0.0

>  <rmsd>  (66) 
270.89

>  <cluster>  (66) 
3

$$$$
QHTAHHNEYOTCSC-LJQANCHMNA-N
     RDKit          3D

 44 47  0  0  0  0  0  0  0  0999 V2000
  138.7780   77.4890  221.8870 O   0  0  0  0  0  0  0  0  0  0  0  0
  140.0060   76.6200  221.8960 S   0  0  0  0  0  0  0  0  0  0  0  0
  139.6080   75.2310  222.3140 O   0  0  0  0  0  0  0  0  0  0  0  0
  141.1410   77.3000  223.0960 C   0  0  0  0  0  0  0  0  0  0  0  0
  141.2380   78.7920  222.9600 C   0  0  0  0  0  0  0  0  0  0  0  0
  140.1780   79.6130  223.3830 C   0  0  0  0  0  0  0  0  0  0  0  0
  140.2860   81.0040  223.2940 C   0  0  0  0  0  0  0  0  0  0  0  0
  141.4510   81.5850  222.7850 C   0  0  0  0  0  0  0  0  0  0  0  0
  142.5120   80.7760  222.3680 C   0  0  0  0  0  0  0  0  0  0  0  0
  142.4090   79.3850  222.4570 C   0  0  0  0  0  0  0  0  0  0  0  0
  140.7510   76.6190  220.3070 N   0  0  0  0  0  0  0  0  0  0  0  0
  140.6390   77.9140  219.6340 C   0  0  0  0  0  0  0  0  0  0  0  0
  141.7600   77.9580  218.6140 C   0  0  0  0  0  0  0  0  0  0  0  0
  142.8310   77.0330  219.1680 C   0  0  0  0  0  0  0  0  0  0  0  0
  142.1890   76.3420  220.3750 C   0  0  2  0  0  0  0  0  0  0  0  0
  142.4410   74.8570  220.3520 C   0  0  0  0  0  0  0  0  0  0  0  0
  141.4920   73.8480  220.2000 C   0  0  0  0  0  0  0  0  0  0  0  0
  142.0920   72.6380  220.1520 N   0  0  0  0  0  0  0  0  0  0  0  0
  143.4120   72.8730  220.2580 C   0  0  0  0  0  0  0  0  0  0  0  0
  144.4410   71.9340  220.2390 C   0  0  0  0  0  0  0  0  0  0  0  0
  145.7630   72.4040  220.3410 C   0  0  0  0  0  0  0  0  0  0  0  0
  146.0240   73.7880  220.4550 C   0  0  0  0  0  0  0  0  0  0  0  0
  144.9650   74.7140  220.4700 C   0  0  0  0  0  0  0  0  0  0  0  0
  143.6650   74.2160  220.3730 C   0  0  0  0  0  0  0  0  0  0  0  0
  140.7856   77.0534  224.1073 H   0  0  0  0  0  0  0  0  0  0  0  0
  142.1369   76.8668  222.9211 H   0  0  0  0  0  0  0  0  0  0  0  0
  139.2603   79.1592  223.7854 H   0  0  0  0  0  0  0  0  0  0  0  0
  139.4532   81.6420  223.6249 H   0  0  0  0  0  0  0  0  0  0  0  0
  141.5330   82.6795  222.7125 H   0  0  0  0  0  0  0  0  0  0  0  0
  143.4289   81.2346  221.9694 H   0  0  0  0  0  0  0  0  0  0  0  0
  143.2477   78.7517  222.1321 H   0  0  0  0  0  0  0  0  0  0  0  0
  139.6636   78.0004  219.1328 H   0  0  0  0  0  0  0  0  0  0  0  0
  140.7149   78.7459  220.3496 H   0  0  0  0  0  0  0  0  0  0  0  0
  141.4072   77.5992  217.6358 H   0  0  0  0  0  0  0  0  0  0  0  0
  142.1366   78.9796  218.4571 H   0  0  0  0  0  0  0  0  0  0  0  0
  143.1266   76.2906  218.4121 H   0  0  0  0  0  0  0  0  0  0  0  0
  143.7410   77.5836  219.4487 H   0  0  0  0  0  0  0  0  0  0  0  0
  142.6236   76.7229  221.3110 H   0  0  0  0  0  0  0  0  0  0  0  0
  140.4068   74.0132  220.1290 H   0  0  0  0  0  0  0  0  0  0  0  0
  141.6240   71.7110  220.0420 H   0  0  0  0  0  0  0  0  0  0  0  0
  144.2265   70.8590  220.1471 H   0  0  0  0  0  0  0  0  0  0  0  0
  146.5991   71.6893  220.3320 H   0  0  0  0  0  0  0  0  0  0  0  0
  147.0620   74.1437  220.5325 H   0  0  0  0  0  0  0  0  0  0  0  0
  145.1553   75.7941  220.5553 H   0  0  0  0  0  0  0  0  0  0  0  0
  1  2  2  0
  2  3  2  0
  2  4  1  0
  4  5  1  0
  5  6  2  0
  6  7  1  0
  7  8  2  0
  8  9  1  0
  9 10  2  0
  2 11  1  0
 11 12  1  0
 12 13  1  0
 13 14  1  0
 14 15  1  0
 15 16  1  0
 16 17  2  0
 17 18  1  0
 18 19  1  0
 19 20  2  0
 20 21  1  0
 21 22  2  0
 22 23  1  0
 23 24  2  0
 10  5  1  0
 15 11  1  0
 24 16  1  0
 24 19  1  0
  4 25  1  0
  4 26  1  0
  6 27  1  0
  7 28  1  0
  8 29  1  0
  9 30  1  0
 10 31  1  0
 12 32  1  0
 12 33  1  0
 13 34  1  0
 13 35  1  0
 14 36  1  0
 14 37  1  0
 15 38  1  1
 17 39  1  0
 18 40  1  0
 20 41  1  0
 21 42  1  0
 22 43  1  0
 23 44  1  0
M  END
>  <UniqueID>  (67) 
220

>  <SMILES>  (67) 
O=S(=O)(Cc1ccccc1)N1CCC[C@@H]1c1c[nH]c2ccccc12

>  <Energy>  (67) 
75.73670100260922

>  <Genealogy>  (67) 
O=S(=O)(Cc1ccccc1)N1CCC[C@@H]1c1c[nH]c2ccccc12 (chirality)
O=S(=O)(Cc1ccccc1)N1CCC[C@@H]1c1c[nH]c2ccccc12 (3D coordinates assigned)
O=S(=O)(Cc1ccccc1)N1CCC[C@@H]1c1c[nH]c2ccccc12 (nonaromatic ring conformer: 75.73670100260922 kcal/mol)

>  <smiles>  (67) 
O=S(=O)(Cc1ccccc1)N1CCCC1c1c[nH]c2ccccc12

>  <score_type>  (67) 
oracle

>  <origin>  (67) 
autodockgpu

>  <m_score__min__energy>  (67) 
-7.5499999999999998

>  <m_primary>  (67) 
energy

>  <meeko>  (67) 
{"free_energy": -6.9, "intermolecular_energy": -8.09, "internal_energy": -1.53, "cluster_size": 3, "cluster_id": 3, "rank_in_cluster": 3}

>  <energy>  (67) 
-6.92

>  <cluster_rmsd>  (67) 
0.02

>  <rmsd>  (67) 
270.89

>  <cluster>  (67) 
3

$$$$
QHTAHHNEYOTCSC-LJQANCHMNA-N
     RDKit          3D

 44 47  0  0  0  0  0  0  0  0999 V2000
  141.4500   81.0500  224.2210 O   0  0  0  0  0  0  0  0  0  0  0  0
  141.3410   79.6710  223.6320 S   0  0  0  0  0  0  0  0  0  0  0  0
  141.8460   78.6760  224.6420 O   0  0  0  0  0  0  0  0  0  0  0  0
  142.3790   79.6200  222.1790 C   0  0  0  0  0  0  0  0  0  0  0  0
  141.9190   80.6160  221.1540 C   0  0  0  0  0  0  0  0  0  0  0  0
  141.8610   80.2600  219.7960 C   0  0  0  0  0  0  0  0  0  0  0  0
  141.3950   81.1760  218.8480 C   0  0  0  0  0  0  0  0  0  0  0  0
  140.9830   82.4500  219.2480 C   0  0  0  0  0  0  0  0  0  0  0  0
  141.0330   82.8100  220.5980 C   0  0  0  0  0  0  0  0  0  0  0  0
  141.4960   81.8970  221.5500 C   0  0  0  0  0  0  0  0  0  0  0  0
  139.6770   79.3370  223.1870 N   0  0  0  0  0  0  0  0  0  0  0  0
  138.8580   80.5500  223.1290 C   0  0  0  0  0  0  0  0  0  0  0  0
  137.6920   80.2280  222.2150 C   0  0  0  0  0  0  0  0  0  0  0  0
  138.2060   79.1370  221.2910 C   0  0  0  0  0  0  0  0  0  0  0  0
  139.5750   78.7390  221.8510 C   0  0  2  0  0  0  0  0  0  0  0  0
  139.7170   77.2420  221.9330 C   0  0  0  0  0  0  0  0  0  0  0  0
  138.8470   76.3500  222.5570 C   0  0  0  0  0  0  0  0  0  0  0  0
  139.2560   75.0760  222.3630 N   0  0  0  0  0  0  0  0  0  0  0  0
  140.3670   75.1540  221.6090 C   0  0  0  0  0  0  0  0  0  0  0  0
  141.1390   74.0960  221.1330 C   0  0  0  0  0  0  0  0  0  0  0  0
  142.2580   74.4040  220.3360 C   0  0  0  0  0  0  0  0  0  0  0  0
  142.5720   75.7480  220.0340 C   0  0  0  0  0  0  0  0  0  0  0  0
  141.7740   76.7950  220.5280 C   0  0  0  0  0  0  0  0  0  0  0  0
  140.6760   76.4580  221.3200 C   0  0  0  0  0  0  0  0  0  0  0  0
  143.4143   79.8535  222.4681 H   0  0  0  0  0  0  0  0  0  0  0  0
  142.3191   78.6129  221.7407 H   0  0  0  0  0  0  0  0  0  0  0  0
  142.1832   79.2576  219.4777 H   0  0  0  0  0  0  0  0  0  0  0  0
  141.3526   80.8934  217.7858 H   0  0  0  0  0  0  0  0  0  0  0  0
  140.6191   83.1700  218.5002 H   0  0  0  0  0  0  0  0  0  0  0  0
  140.7076   83.8129  220.9115 H   0  0  0  0  0  0  0  0  0  0  0  0
  141.5295   82.1817  222.6120 H   0  0  0  0  0  0  0  0  0  0  0  0
  138.4943   80.8132  224.1332 H   0  0  0  0  0  0  0  0  0  0  0  0
  139.4365   81.4075  222.7548 H   0  0  0  0  0  0  0  0  0  0  0  0
  136.8319   79.8672  222.7981 H   0  0  0  0  0  0  0  0  0  0  0  0
  137.3469   81.1119  221.6586 H   0  0  0  0  0  0  0  0  0  0  0  0
  137.5228   78.2749  221.2965 H   0  0  0  0  0  0  0  0  0  0  0  0
  138.2758   79.4834  220.2493 H   0  0  0  0  0  0  0  0  0  0  0  0
  140.3784   79.0985  221.1913 H   0  0  0  0  0  0  0  0  0  0  0  0
  137.9528   76.6415  223.1275 H   0  0  0  0  0  0  0  0  0  0  0  0
  138.7930   74.2100  222.7160 H   0  0  0  0  0  0  0  0  0  0  0  0
  140.8823   73.0535  221.3723 H   0  0  0  0  0  0  0  0  0  0  0  0
  142.8914   73.5936  219.9462 H   0  0  0  0  0  0  0  0  0  0  0  0
  143.4470   75.9769  219.4079 H   0  0  0  0  0  0  0  0  0  0  0  0
  142.0077   77.8449  220.2977 H   0  0  0  0  0  0  0  0  0  0  0  0
  1  2  2  0
  2  3  2  0
  2  4  1  0
  4  5  1  0
  5  6  2  0
  6  7  1  0
  7  8  2  0
  8  9  1  0
  9 10  2  0
  2 11  1  0
 11 12  1  0
 12 13  1  0
 13 14  1  0
 14 15  1  0
 15 16  1  0
 16 17  2  0
 17 18  1  0
 18 19  1  0
 19 20  2  0
 20 21  1  0
 21 22  2  0
 22 23  1  0
 23 24  2  0
 10  5  1  0
 15 11  1  0
 24 16  1  0
 24 19  1  0
  4 25  1  0
  4 26  1  0
  6 27  1  0
  7 28  1  0
  8 29  1  0
  9 30  1  0
 10 31  1  0
 12 32  1  0
 12 33  1  0
 13 34  1  0
 13 35  1  0
 14 36  1  0
 14 37  1  0
 15 38  1  6
 17 39  1  0
 18 40  1  0
 20 41  1  0
 21 42  1  0
 22 43  1  0
 23 44  1  0
M  END
>  <UniqueID>  (68) 
220

>  <SMILES>  (68) 
O=S(=O)(Cc1ccccc1)N1CCC[C@@H]1c1c[nH]c2ccccc12

>  <Energy>  (68) 
75.73670100260922

>  <Genealogy>  (68) 
O=S(=O)(Cc1ccccc1)N1CCC[C@@H]1c1c[nH]c2ccccc12 (chirality)
O=S(=O)(Cc1ccccc1)N1CCC[C@@H]1c1c[nH]c2ccccc12 (3D coordinates assigned)
O=S(=O)(Cc1ccccc1)N1CCC[C@@H]1c1c[nH]c2ccccc12 (nonaromatic ring conformer: 75.73670100260922 kcal/mol)

>  <smiles>  (68) 
O=S(=O)(Cc1ccccc1)N1CCCC1c1c[nH]c2ccccc12

>  <score_type>  (68) 
oracle

>  <origin>  (68) 
autodockgpu

>  <m_score__min__energy>  (68) 
-7.5499999999999998

>  <m_primary>  (68) 
energy

>  <meeko>  (68) 
{"free_energy": -6.52, "intermolecular_energy": -7.71, "internal_energy": -1.85, "cluster_size": 8, "cluster_id": 5, "rank_in_cluster": 7}

>  <energy>  (68) 
-6.9

>  <cluster_rmsd>  (68) 
0.05

>  <rmsd>  (68) 
270.87

>  <cluster>  (68) 
3

$$$$
QHTAHHNEYOTCSC-LJQANCHMNA-N
     RDKit          3D

 44 47  0  0  0  0  0  0  0  0999 V2000
  138.3980   69.3970  226.1810 O   0  0  0  0  0  0  0  0  0  0  0  0
  139.2010   68.2210  225.6970 S   0  0  0  0  0  0  0  0  0  0  0  0
  138.6820   66.9770  226.3640 O   0  0  0  0  0  0  0  0  0  0  0  0
  140.8990   68.4900  226.1830 C   0  0  0  0  0  0  0  0  0  0  0  0
  141.1050   69.8980  226.6620 C   0  0  0  0  0  0  0  0  0  0  0  0
  141.3040   70.9390  225.7390 C   0  0  0  0  0  0  0  0  0  0  0  0
  141.4560   72.2560  226.1850 C   0  0  0  0  0  0  0  0  0  0  0  0
  141.4090   72.5420  227.5520 C   0  0  0  0  0  0  0  0  0  0  0  0
  141.2050   71.5130  228.4760 C   0  0  0  0  0  0  0  0  0  0  0  0
  141.0510   70.1960  228.0350 C   0  0  0  0  0  0  0  0  0  0  0  0
  139.0950   68.1000  223.9500 N   0  0  0  0  0  0  0  0  0  0  0  0
  139.2000   66.7190  223.4770 C   0  0  0  0  0  0  0  0  0  0  0  0
  138.5370   66.6880  222.1140 C   0  0  0  0  0  0  0  0  0  0  0  0
  137.5300   67.8260  222.1420 C   0  0  0  0  0  0  0  0  0  0  0  0
  137.8080   68.5850  223.4430 C   0  0  2  0  0  0  0  0  0  0  0  0
  137.8610   70.0720  223.2070 C   0  0  0  0  0  0  0  0  0  0  0  0
  136.9580   71.0270  223.6710 C   0  0  0  0  0  0  0  0  0  0  0  0
  137.3660   72.2690  223.3270 N   0  0  0  0  0  0  0  0  0  0  0  0
  138.5250   72.1090  222.6640 C   0  0  0  0  0  0  0  0  0  0  0  0
  139.3360   73.1080  222.1280 C   0  0  0  0  0  0  0  0  0  0  0  0
  140.5270   72.7170  221.4890 C   0  0  0  0  0  0  0  0  0  0  0  0
  140.8780   71.3510  221.4050 C   0  0  0  0  0  0  0  0  0  0  0  0
  140.0410   70.3640  221.9560 C   0  0  0  0  0  0  0  0  0  0  0  0
  138.8640   70.7830  222.5780 C   0  0  0  0  0  0  0  0  0  0  0  0
  141.1557   67.7929  226.9942 H   0  0  0  0  0  0  0  0  0  0  0  0
  141.5449   68.3191  225.3092 H   0  0  0  0  0  0  0  0  0  0  0  0
  141.3404   70.7173  224.6622 H   0  0  0  0  0  0  0  0  0  0  0  0
  141.6127   73.0674  225.4590 H   0  0  0  0  0  0  0  0  0  0  0  0
  141.5326   73.5777  227.9013 H   0  0  0  0  0  0  0  0  0  0  0  0
  141.1657   71.7403  229.5515 H   0  0  0  0  0  0  0  0  0  0  0  0
  140.8869   69.3894  228.7647 H   0  0  0  0  0  0  0  0  0  0  0  0
  140.2563   66.4234  223.3942 H   0  0  0  0  0  0  0  0  0  0  0  0
  138.7170   66.0184  224.1741 H   0  0  0  0  0  0  0  0  0  0  0  0
  139.2799   66.8483  221.3187 H   0  0  0  0  0  0  0  0  0  0  0  0
  138.0600   65.7185  221.9079 H   0  0  0  0  0  0  0  0  0  0  0  0
  137.6716   68.4863  221.2737 H   0  0  0  0  0  0  0  0  0  0  0  0
  136.4948   67.4567  222.0977 H   0  0  0  0  0  0  0  0  0  0  0  0
  137.0019   68.4081  224.1703 H   0  0  0  0  0  0  0  0  0  0  0  0
  136.0423   70.8018  224.2374 H   0  0  0  0  0  0  0  0  0  0  0  0
  136.8840   73.1690  223.5450 H   0  0  0  0  0  0  0  0  0  0  0  0
  139.0538   74.1686  222.2023 H   0  0  0  0  0  0  0  0  0  0  0  0
  141.1888   73.4794  221.0522 H   0  0  0  0  0  0  0  0  0  0  0  0
  141.8127   71.0572  220.9050 H   0  0  0  0  0  0  0  0  0  0  0  0
  140.3052   69.2977  221.8986 H   0  0  0  0  0  0  0  0  0  0  0  0
  1  2  2  0
  2  3  2  0
  2  4  1  0
  4  5  1  0
  5  6  2  0
  6  7  1  0
  7  8  2  0
  8  9  1  0
  9 10  2  0
  2 11  1  0
 11 12  1  0
 12 13  1  0
 13 14  1  0
 14 15  1  0
 15 16  1  0
 16 17  2  0
 17 18  1  0
 18 19  1  0
 19 20  2  0
 20 21  1  0
 21 22  2  0
 22 23  1  0
 23 24  2  0
 10  5  1  0
 15 11  1  0
 24 16  1  0
 24 19  1  0
  4 25  1  0
  4 26  1  0
  6 27  1  0
  7 28  1  0
  8 29  1  0
  9 30  1  0
 10 31  1  0
 12 32  1  0
 12 33  1  0
 13 34  1  0
 13 35  1  0
 14 36  1  0
 14 37  1  0
 15 38  1  1
 17 39  1  0
 18 40  1  0
 20 41  1  0
 21 42  1  0
 22 43  1  0
 23 44  1  0
M  END
>  <UniqueID>  (69) 
220

>  <SMILES>  (69) 
O=S(=O)(Cc1ccccc1)N1CCC[C@@H]1c1c[nH]c2ccccc12

>  <Energy>  (69) 
75.73670100260922

>  <Genealogy>  (69) 
O=S(=O)(Cc1ccccc1)N1CCC[C@@H]1c1c[nH]c2ccccc12 (chirality)
O=S(=O)(Cc1ccccc1)N1CCC[C@@H]1c1c[nH]c2ccccc12 (3D coordinates assigned)
O=S(=O)(Cc1ccccc1)N1CCC[C@@H]1c1c[nH]c2ccccc12 (nonaromatic ring conformer: 75.73670100260922 kcal/mol)

>  <smiles>  (69) 
O=S(=O)(Cc1ccccc1)N1CCCC1c1c[nH]c2ccccc12

>  <score_type>  (69) 
oracle

>  <origin>  (69) 
autodockgpu

>  <m_score__min__energy>  (69) 
-7.5499999999999998

>  <m_primary>  (69) 
energy

>  <meeko>  (69) 
{"free_energy": -6.62, "intermolecular_energy": -7.81, "internal_energy": -1.88, "cluster_size": 1, "cluster_id": 4, "rank_in_cluster": 1}

>  <energy>  (69) 
-6.62

>  <cluster_rmsd>  (69) 
0.0

>  <rmsd>  (69) 
270.44

>  <cluster>  (69) 
4

$$$$
QHTAHHNEYOTCSC-LJQANCHMNA-N
     RDKit          3D

 44 47  0  0  0  0  0  0  0  0999 V2000
  141.7460   81.2870  224.2250 O   0  0  0  0  0  0  0  0  0  0  0  0
  141.5640   79.9130  223.6420 S   0  0  0  0  0  0  0  0  0  0  0  0
  142.1590   78.9070  224.5890 O   0  0  0  0  0  0  0  0  0  0  0  0
  142.4470   79.8620  222.0900 C   0  0  0  0  0  0  0  0  0  0  0  0
  141.8770   80.8500  221.1140 C   0  0  0  0  0  0  0  0  0  0  0  0
  141.4410   82.1110  221.5550 C   0  0  0  0  0  0  0  0  0  0  0  0
  140.9470   83.0450  220.6390 C   0  0  0  0  0  0  0  0  0  0  0  0
  140.8890   82.7290  219.2780 C   0  0  0  0  0  0  0  0  0  0  0  0
  141.3270   81.4790  218.8310 C   0  0  0  0  0  0  0  0  0  0  0  0
  141.8220   80.5420  219.7430 C   0  0  0  0  0  0  0  0  0  0  0  0
  139.8600   79.5990  223.3660 N   0  0  0  0  0  0  0  0  0  0  0  0
  139.0490   80.8170  223.4260 C   0  0  0  0  0  0  0  0  0  0  0  0
  137.7900   80.5240  222.6330 C   0  0  0  0  0  0  0  0  0  0  0  0
  138.1960   79.4550  221.6330 C   0  0  0  0  0  0  0  0  0  0  0  0
  139.6130   79.0360  222.0350 C   0  0  2  0  0  0  0  0  0  0  0  0
  139.7520   77.5370  222.0630 C   0  0  0  0  0  0  0  0  0  0  0  0
  138.8880   76.6260  222.6690 C   0  0  0  0  0  0  0  0  0  0  0  0
  139.2910   75.3590  222.4260 N   0  0  0  0  0  0  0  0  0  0  0  0
  140.3910   75.4590  221.6600 C   0  0  0  0  0  0  0  0  0  0  0  0
  141.1540   74.4160  221.1370 C   0  0  0  0  0  0  0  0  0  0  0  0
  142.2610   74.7490  220.3350 C   0  0  0  0  0  0  0  0  0  0  0  0
  142.5760   76.1010  220.0740 C   0  0  0  0  0  0  0  0  0  0  0  0
  141.7870   77.1330  220.6150 C   0  0  0  0  0  0  0  0  0  0  0  0
  140.6990   76.7720  221.4100 C   0  0  0  0  0  0  0  0  0  0  0  0
  143.5050   80.1036  222.2699 H   0  0  0  0  0  0  0  0  0  0  0  0
  142.3492   78.8525  221.6642 H   0  0  0  0  0  0  0  0  0  0  0  0
  141.4884   82.3642  222.6244 H   0  0  0  0  0  0  0  0  0  0  0  0
  140.6036   84.0295  220.9895 H   0  0  0  0  0  0  0  0  0  0  0  0
  140.4986   83.4642  218.5590 H   0  0  0  0  0  0  0  0  0  0  0  0
  141.2821   81.2322  217.7600 H   0  0  0  0  0  0  0  0  0  0  0  0
  142.1695   79.5609  219.3870 H   0  0  0  0  0  0  0  0  0  0  0  0
  138.7959   81.0560  224.4695 H   0  0  0  0  0  0  0  0  0  0  0  0
  139.5910   81.6812  223.0143 H   0  0  0  0  0  0  0  0  0  0  0  0
  136.9939   80.1522  223.2947 H   0  0  0  0  0  0  0  0  0  0  0  0
  137.3939   81.4234  222.1388 H   0  0  0  0  0  0  0  0  0  0  0  0
  137.5108   78.5963  221.6887 H   0  0  0  0  0  0  0  0  0  0  0  0
  138.1586   79.8281  220.5989 H   0  0  0  0  0  0  0  0  0  0  0  0
  140.3452   79.4084  221.3035 H   0  0  0  0  0  0  0  0  0  0  0  0
  138.0027   76.8999  223.2617 H   0  0  0  0  0  0  0  0  0  0  0  0
  138.8300   74.4820  222.7560 H   0  0  0  0  0  0  0  0  0  0  0  0
  140.8987   73.3664  221.3447 H   0  0  0  0  0  0  0  0  0  0  0  0
  142.8858   73.9506  219.9081 H   0  0  0  0  0  0  0  0  0  0  0  0
  143.4432   76.3486  219.4442 H   0  0  0  0  0  0  0  0  0  0  0  0
  142.0205   78.1896  220.4175 H   0  0  0  0  0  0  0  0  0  0  0  0
  1  2  2  0
  2  3  2  0
  2  4  1  0
  4  5  1  0
  5  6  2  0
  6  7  1  0
  7  8  2  0
  8  9  1  0
  9 10  2  0
  2 11  1  0
 11 12  1  0
 12 13  1  0
 13 14  1  0
 14 15  1  0
 15 16  1  0
 16 17  2  0
 17 18  1  0
 18 19  1  0
 19 20  2  0
 20 21  1  0
 21 22  2  0
 22 23  1  0
 23 24  2  0
 10  5  1  0
 15 11  1  0
 24 16  1  0
 24 19  1  0
  4 25  1  0
  4 26  1  0
  6 27  1  0
  7 28  1  0
  8 29  1  0
  9 30  1  0
 10 31  1  0
 12 32  1  0
 12 33  1  0
 13 34  1  0
 13 35  1  0
 14 36  1  0
 14 37  1  0
 15 38  1  6
 17 39  1  0
 18 40  1  0
 20 41  1  0
 21 42  1  0
 22 43  1  0
 23 44  1  0
M  END
>  <UniqueID>  (70) 
220

>  <SMILES>  (70) 
O=S(=O)(Cc1ccccc1)N1CCC[C@@H]1c1c[nH]c2ccccc12

>  <Energy>  (70) 
75.73670100260922

>  <Genealogy>  (70) 
O=S(=O)(Cc1ccccc1)N1CCC[C@@H]1c1c[nH]c2ccccc12 (chirality)
O=S(=O)(Cc1ccccc1)N1CCC[C@@H]1c1c[nH]c2ccccc12 (3D coordinates assigned)
O=S(=O)(Cc1ccccc1)N1CCC[C@@H]1c1c[nH]c2ccccc12 (nonaromatic ring conformer: 75.73670100260922 kcal/mol)

>  <smiles>  (70) 
O=S(=O)(Cc1ccccc1)N1CCCC1c1c[nH]c2ccccc12

>  <score_type>  (70) 
oracle

>  <origin>  (70) 
autodockgpu

>  <m_score__min__energy>  (70) 
-7.5499999999999998

>  <m_primary>  (70) 
energy

>  <meeko>  (70) 
{"free_energy": -6.58, "intermolecular_energy": -7.77, "internal_energy": -1.79, "cluster_size": 8, "cluster_id": 5, "rank_in_cluster": 2}

>  <energy>  (70) 
-6.58

>  <cluster_rmsd>  (70) 
0.0

>  <rmsd>  (70) 
271.42

>  <cluster>  (70) 
5

$$$$
QHTAHHNEYOTCSC-LJQANCHMNA-N
     RDKit          3D

 44 47  0  0  0  0  0  0  0  0999 V2000
  141.4560   81.0050  224.2180 O   0  0  0  0  0  0  0  0  0  0  0  0
  141.3380   79.6190  223.6480 S   0  0  0  0  0  0  0  0  0  0  0  0
  141.8460   78.6360  224.6670 O   0  0  0  0  0  0  0  0  0  0  0  0
  142.3650   79.5450  222.1890 C   0  0  0  0  0  0  0  0  0  0  0  0
  141.9220   80.5520  221.1660 C   0  0  0  0  0  0  0  0  0  0  0  0
  141.8790   80.2070  219.8050 C   0  0  0  0  0  0  0  0  0  0  0  0
  141.4280   81.1320  218.8580 C   0  0  0  0  0  0  0  0  0  0  0  0
  141.0150   82.4050  219.2640 C   0  0  0  0  0  0  0  0  0  0  0  0
  141.0500   82.7530  220.6180 C   0  0  0  0  0  0  0  0  0  0  0  0
  141.4990   81.8310  221.5670 C   0  0  0  0  0  0  0  0  0  0  0  0
  139.6700   79.2860  223.2180 N   0  0  0  0  0  0  0  0  0  0  0  0
  138.8500   80.4980  223.1740 C   0  0  0  0  0  0  0  0  0  0  0  0
  137.6740   80.1800  222.2700 C   0  0  0  0  0  0  0  0  0  0  0  0
  138.1800   79.0930  221.3370 C   0  0  0  0  0  0  0  0  0  0  0  0
  139.5550   78.6940  221.8810 C   0  0  2  0  0  0  0  0  0  0  0  0
  139.6990   77.1960  221.9550 C   0  0  0  0  0  0  0  0  0  0  0  0
  138.8300   76.3000  222.5760 C   0  0  0  0  0  0  0  0  0  0  0  0
  139.2410   75.0280  222.3750 N   0  0  0  0  0  0  0  0  0  0  0  0
  140.3500   75.1100  221.6200 C   0  0  0  0  0  0  0  0  0  0  0  0
  141.1230   74.0560  221.1370 C   0  0  0  0  0  0  0  0  0  0  0  0
  142.2390   74.3690  220.3390 C   0  0  0  0  0  0  0  0  0  0  0  0
  142.5510   75.7140  220.0430 C   0  0  0  0  0  0  0  0  0  0  0  0
  141.7520   76.7590  220.5430 C   0  0  0  0  0  0  0  0  0  0  0  0
  140.6570   76.4170  221.3360 C   0  0  0  0  0  0  0  0  0  0  0  0
  143.4072   79.7545  222.4719 H   0  0  0  0  0  0  0  0  0  0  0  0
  142.2788   78.5397  221.7508 H   0  0  0  0  0  0  0  0  0  0  0  0
  142.2012   79.2058  219.4829 H   0  0  0  0  0  0  0  0  0  0  0  0
  141.3981   80.8581  217.7931 H   0  0  0  0  0  0  0  0  0  0  0  0
  140.6626   83.1327  218.5182 H   0  0  0  0  0  0  0  0  0  0  0  0
  140.7236   83.7540  220.9364 H   0  0  0  0  0  0  0  0  0  0  0  0
  141.5215   82.1070  222.6316 H   0  0  0  0  0  0  0  0  0  0  0  0
  138.4965   80.7562  224.1831 H   0  0  0  0  0  0  0  0  0  0  0  0
  139.4243   81.3574  222.7976 H   0  0  0  0  0  0  0  0  0  0  0  0
  136.8197   79.8167  222.8600 H   0  0  0  0  0  0  0  0  0  0  0  0
  137.3226   81.0661  221.7210 H   0  0  0  0  0  0  0  0  0  0  0  0
  137.4978   78.2302  221.3463 H   0  0  0  0  0  0  0  0  0  0  0  0
  138.2391   79.4437  220.2961 H   0  0  0  0  0  0  0  0  0  0  0  0
  140.3514   79.0572  221.2148 H   0  0  0  0  0  0  0  0  0  0  0  0
  137.9360   76.5876  223.1488 H   0  0  0  0  0  0  0  0  0  0  0  0
  138.7790   74.1590  222.7250 H   0  0  0  0  0  0  0  0  0  0  0  0
  140.8688   73.0119  221.3721 H   0  0  0  0  0  0  0  0  0  0  0  0
  142.8721   73.5611  219.9434 H   0  0  0  0  0  0  0  0  0  0  0  0
  143.4250   75.9466  219.4170 H   0  0  0  0  0  0  0  0  0  0  0  0
  141.9834   77.8102  220.3160 H   0  0  0  0  0  0  0  0  0  0  0  0
  1  2  2  0
  2  3  2  0
  2  4  1  0
  4  5  1  0
  5  6  2  0
  6  7  1  0
  7  8  2  0
  8  9  1  0
  9 10  2  0
  2 11  1  0
 11 12  1  0
 12 13  1  0
 13 14  1  0
 14 15  1  0
 15 16  1  0
 16 17  2  0
 17 18  1  0
 18 19  1  0
 19 20  2  0
 20 21  1  0
 21 22  2  0
 22 23  1  0
 23 24  2  0
 10  5  1  0
 15 11  1  0
 24 16  1  0
 24 19  1  0
  4 25  1  0
  4 26  1  0
  6 27  1  0
  7 28  1  0
  8 29  1  0
  9 30  1  0
 10 31  1  0
 12 32  1  0
 12 33  1  0
 13 34  1  0
 13 35  1  0
 14 36  1  0
 14 37  1  0
 15 38  1  6
 17 39  1  0
 18 40  1  0
 20 41  1  0
 21 42  1  0
 22 43  1  0
 23 44  1  0
M  END
>  <UniqueID>  (71) 
220

>  <SMILES>  (71) 
O=S(=O)(Cc1ccccc1)N1CCC[C@@H]1c1c[nH]c2ccccc12

>  <Energy>  (71) 
75.73670100260922

>  <Genealogy>  (71) 
O=S(=O)(Cc1ccccc1)N1CCC[C@@H]1c1c[nH]c2ccccc12 (chirality)
O=S(=O)(Cc1ccccc1)N1CCC[C@@H]1c1c[nH]c2ccccc12 (3D coordinates assigned)
O=S(=O)(Cc1ccccc1)N1CCC[C@@H]1c1c[nH]c2ccccc12 (nonaromatic ring conformer: 75.73670100260922 kcal/mol)

>  <smiles>  (71) 
O=S(=O)(Cc1ccccc1)N1CCCC1c1c[nH]c2ccccc12

>  <score_type>  (71) 
oracle

>  <origin>  (71) 
autodockgpu

>  <m_score__min__energy>  (71) 
-7.5499999999999998

>  <m_primary>  (71) 
energy

>  <meeko>  (71) 
{"free_energy": -6.54, "intermolecular_energy": -7.73, "internal_energy": -1.84, "cluster_size": 8, "cluster_id": 5, "rank_in_cluster": 4}

>  <energy>  (71) 
-6.58

>  <cluster_rmsd>  (71) 
0.04

>  <rmsd>  (71) 
271.41

>  <cluster>  (71) 
5

$$$$
QHTAHHNEYOTCSC-LJQANCHMNA-N
     RDKit          3D

 44 47  0  0  0  0  0  0  0  0999 V2000
  141.7530   81.3060  224.2390 O   0  0  0  0  0  0  0  0  0  0  0  0
  141.5680   79.9340  223.6510 S   0  0  0  0  0  0  0  0  0  0  0  0
  142.1590   78.9240  224.5960 O   0  0  0  0  0  0  0  0  0  0  0  0
  142.4530   79.8870  222.1000 C   0  0  0  0  0  0  0  0  0  0  0  0
  141.8870   80.8790  221.1260 C   0  0  0  0  0  0  0  0  0  0  0  0
  141.4520   82.1400  221.5710 C   0  0  0  0  0  0  0  0  0  0  0  0
  140.9630   83.0780  220.6580 C   0  0  0  0  0  0  0  0  0  0  0  0
  140.9060   82.7670  219.2960 C   0  0  0  0  0  0  0  0  0  0  0  0
  141.3410   81.5180  218.8460 C   0  0  0  0  0  0  0  0  0  0  0  0
  141.8330   80.5770  219.7550 C   0  0  0  0  0  0  0  0  0  0  0  0
  139.8630   79.6250  223.3730 N   0  0  0  0  0  0  0  0  0  0  0  0
  139.0540   80.8440  223.4400 C   0  0  0  0  0  0  0  0  0  0  0  0
  137.7960   80.5590  222.6440 C   0  0  0  0  0  0  0  0  0  0  0  0
  138.2000   79.4950  221.6370 C   0  0  0  0  0  0  0  0  0  0  0  0
  139.6170   79.0710  222.0370 C   0  0  2  0  0  0  0  0  0  0  0  0
  139.7530   77.5710  222.0570 C   0  0  0  0  0  0  0  0  0  0  0  0
  138.8850   76.6580  222.6550 C   0  0  0  0  0  0  0  0  0  0  0  0
  139.2870   75.3920  222.4050 N   0  0  0  0  0  0  0  0  0  0  0  0
  140.3890   75.4950  221.6410 C   0  0  0  0  0  0  0  0  0  0  0  0
  141.1500   74.4540  221.1130 C   0  0  0  0  0  0  0  0  0  0  0  0
  142.2590   74.7890  220.3150 C   0  0  0  0  0  0  0  0  0  0  0  0
  142.5770   76.1430  220.0640 C   0  0  0  0  0  0  0  0  0  0  0  0
  141.7890   77.1730  220.6090 C   0  0  0  0  0  0  0  0  0  0  0  0
  140.7000   76.8090  221.4000 C   0  0  0  0  0  0  0  0  0  0  0  0
  143.5111   80.1260  222.2825 H   0  0  0  0  0  0  0  0  0  0  0  0
  142.3534   78.8792  221.6707 H   0  0  0  0  0  0  0  0  0  0  0  0
  141.4968   82.3889  222.6415 H   0  0  0  0  0  0  0  0  0  0  0  0
  140.6224   84.0625  221.0113 H   0  0  0  0  0  0  0  0  0  0  0  0
  140.5187   83.5057  218.5789 H   0  0  0  0  0  0  0  0  0  0  0  0
  141.2962   81.2746  217.7742 H   0  0  0  0  0  0  0  0  0  0  0  0
  142.1791   79.5966  219.3957 H   0  0  0  0  0  0  0  0  0  0  0  0
  138.8000   81.0765  224.4847 H   0  0  0  0  0  0  0  0  0  0  0  0
  139.5981   81.7098  223.0346 H   0  0  0  0  0  0  0  0  0  0  0  0
  136.9983   80.1849  223.3026 H   0  0  0  0  0  0  0  0  0  0  0  0
  137.4031   81.4626  222.1550 H   0  0  0  0  0  0  0  0  0  0  0  0
  137.5132   78.6372  221.6875 H   0  0  0  0  0  0  0  0  0  0  0  0
  138.1631   79.8743  220.6051 H   0  0  0  0  0  0  0  0  0  0  0  0
  140.3503   79.4465  221.3081 H   0  0  0  0  0  0  0  0  0  0  0  0
  137.9983   76.9297  223.2466 H   0  0  0  0  0  0  0  0  0  0  0  0
  138.8240   74.5140  222.7280 H   0  0  0  0  0  0  0  0  0  0  0  0
  140.8918   73.4038  221.3138 H   0  0  0  0  0  0  0  0  0  0  0  0
  142.8826   73.9921  219.8837 H   0  0  0  0  0  0  0  0  0  0  0  0
  143.4465   76.3931  219.4383 H   0  0  0  0  0  0  0  0  0  0  0  0
  142.0241   78.2304  220.4175 H   0  0  0  0  0  0  0  0  0  0  0  0
  1  2  2  0
  2  3  2  0
  2  4  1  0
  4  5  1  0
  5  6  2  0
  6  7  1  0
  7  8  2  0
  8  9  1  0
  9 10  2  0
  2 11  1  0
 11 12  1  0
 12 13  1  0
 13 14  1  0
 14 15  1  0
 15 16  1  0
 16 17  2  0
 17 18  1  0
 18 19  1  0
 19 20  2  0
 20 21  1  0
 21 22  2  0
 22 23  1  0
 23 24  2  0
 10  5  1  0
 15 11  1  0
 24 16  1  0
 24 19  1  0
  4 25  1  0
  4 26  1  0
  6 27  1  0
  7 28  1  0
  8 29  1  0
  9 30  1  0
 10 31  1  0
 12 32  1  0
 12 33  1  0
 13 34  1  0
 13 35  1  0
 14 36  1  0
 14 37  1  0
 15 38  1  6
 17 39  1  0
 18 40  1  0
 20 41  1  0
 21 42  1  0
 22 43  1  0
 23 44  1  0
M  END
>  <UniqueID>  (72) 
220

>  <SMILES>  (72) 
O=S(=O)(Cc1ccccc1)N1CCC[C@@H]1c1c[nH]c2ccccc12

>  <Energy>  (72) 
75.73670100260922

>  <Genealogy>  (72) 
O=S(=O)(Cc1ccccc1)N1CCC[C@@H]1c1c[nH]c2ccccc12 (chirality)
O=S(=O)(Cc1ccccc1)N1CCC[C@@H]1c1c[nH]c2ccccc12 (3D coordinates assigned)
O=S(=O)(Cc1ccccc1)N1CCC[C@@H]1c1c[nH]c2ccccc12 (nonaromatic ring conformer: 75.73670100260922 kcal/mol)

>  <smiles>  (72) 
O=S(=O)(Cc1ccccc1)N1CCCC1c1c[nH]c2ccccc12

>  <score_type>  (72) 
oracle

>  <origin>  (72) 
autodockgpu

>  <m_score__min__energy>  (72) 
-7.5499999999999998

>  <m_primary>  (72) 
energy

>  <meeko>  (72) 
{"free_energy": -6.58, "intermolecular_energy": -7.77, "internal_energy": -1.79, "cluster_size": 8, "cluster_id": 5, "rank_in_cluster": 1}

>  <energy>  (72) 
-6.56

>  <cluster_rmsd>  (72) 
0.05

>  <rmsd>  (72) 
271.42

>  <cluster>  (72) 
5

$$$$
QHTAHHNEYOTCSC-LJQANCHMNA-N
     RDKit          3D

 44 47  0  0  0  0  0  0  0  0999 V2000
  141.0970   71.2580  223.8500 O   0  0  0  0  0  0  0  0  0  0  0  0
  139.8400   71.1830  223.0280 S   0  0  0  0  0  0  0  0  0  0  0  0
  139.9740   70.0510  222.0460 O   0  0  0  0  0  0  0  0  0  0  0  0
  139.6830   72.7250  222.1390 C   0  0  0  0  0  0  0  0  0  0  0  0
  141.0010   73.1460  221.5550 C   0  0  0  0  0  0  0  0  0  0  0  0
  141.9610   72.1820  221.2050 C   0  0  0  0  0  0  0  0  0  0  0  0
  143.1710   72.5730  220.6240 C   0  0  0  0  0  0  0  0  0  0  0  0
  143.4300   73.9260  220.3870 C   0  0  0  0  0  0  0  0  0  0  0  0
  142.4770   74.8910  220.7280 C   0  0  0  0  0  0  0  0  0  0  0  0
  141.2650   74.5050  221.3070 C   0  0  0  0  0  0  0  0  0  0  0  0
  138.4500   70.9570  224.0750 N   0  0  0  0  0  0  0  0  0  0  0  0
  137.2100   71.4570  223.4780 C   0  0  0  0  0  0  0  0  0  0  0  0
  136.0810   70.7130  224.1640 C   0  0  0  0  0  0  0  0  0  0  0  0
  136.6970   69.4000  224.6200 C   0  0  0  0  0  0  0  0  0  0  0  0
  138.1990   69.5400  224.3570 C   0  0  2  0  0  0  0  0  0  0  0  0
  139.0060   69.0890  225.5460 C   0  0  0  0  0  0  0  0  0  0  0  0
  139.2330   67.7750  225.9560 C   0  0  0  0  0  0  0  0  0  0  0  0
  140.0650   67.7500  227.0200 N   0  0  0  0  0  0  0  0  0  0  0  0
  140.3790   69.0320  227.2780 C   0  0  0  0  0  0  0  0  0  0  0  0
  141.2280   69.5090  228.2750 C   0  0  0  0  0  0  0  0  0  0  0  0
  141.4350   70.8990  228.3530 C   0  0  0  0  0  0  0  0  0  0  0  0
  140.8000   71.7690  227.4390 C   0  0  0  0  0  0  0  0  0  0  0  0
  139.9490   71.2590  226.4420 C   0  0  0  0  0  0  0  0  0  0  0  0
  139.7590   69.8780  226.3940 C   0  0  0  0  0  0  0  0  0  0  0  0
  138.9531   72.5987  221.3258 H   0  0  0  0  0  0  0  0  0  0  0  0
  139.3467   73.5019  222.8414 H   0  0  0  0  0  0  0  0  0  0  0  0
  141.7601   71.1162  221.3886 H   0  0  0  0  0  0  0  0  0  0  0  0
  143.9204   71.8147  220.3529 H   0  0  0  0  0  0  0  0  0  0  0  0
  144.3837   74.2318  219.9321 H   0  0  0  0  0  0  0  0  0  0  0  0
  142.6816   75.9554  220.5402 H   0  0  0  0  0  0  0  0  0  0  0  0
  140.5155   75.2661  221.5695 H   0  0  0  0  0  0  0  0  0  0  0  0
  137.1134   72.5392  223.6496 H   0  0  0  0  0  0  0  0  0  0  0  0
  137.1947   71.2947  222.3902 H   0  0  0  0  0  0  0  0  0  0  0  0
  135.7081   71.2854  225.0261 H   0  0  0  0  0  0  0  0  0  0  0  0
  135.2218   70.5567  223.4951 H   0  0  0  0  0  0  0  0  0  0  0  0
  136.5077   69.2381  225.6914 H   0  0  0  0  0  0  0  0  0  0  0  0
  136.2674   68.5401  224.0853 H   0  0  0  0  0  0  0  0  0  0  0  0
  138.5007   68.9062  223.5101 H   0  0  0  0  0  0  0  0  0  0  0  0
  138.7961   66.8848  225.4800 H   0  0  0  0  0  0  0  0  0  0  0  0
  140.4050   66.9030  227.5290 H   0  0  0  0  0  0  0  0  0  0  0  0
  141.7204   68.8213  228.9783 H   0  0  0  0  0  0  0  0  0  0  0  0
  142.0954   71.3105  229.1306 H   0  0  0  0  0  0  0  0  0  0  0  0
  140.9723   72.8533  227.5075 H   0  0  0  0  0  0  0  0  0  0  0  0
  139.4501   71.9268  225.7243 H   0  0  0  0  0  0  0  0  0  0  0  0
  1  2  2  0
  2  3  2  0
  2  4  1  0
  4  5  1  0
  5  6  2  0
  6  7  1  0
  7  8  2  0
  8  9  1  0
  9 10  2  0
  2 11  1  0
 11 12  1  0
 12 13  1  0
 13 14  1  0
 14 15  1  0
 15 16  1  0
 16 17  2  0
 17 18  1  0
 18 19  1  0
 19 20  2  0
 20 21  1  0
 21 22  2  0
 22 23  1  0
 23 24  2  0
 10  5  1  0
 15 11  1  0
 24 16  1  0
 24 19  1  0
  4 25  1  0
  4 26  1  0
  6 27  1  0
  7 28  1  0
  8 29  1  0
  9 30  1  0
 10 31  1  0
 12 32  1  0
 12 33  1  0
 13 34  1  0
 13 35  1  0
 14 36  1  0
 14 37  1  0
 15 38  1  6
 17 39  1  0
 18 40  1  0
 20 41  1  0
 21 42  1  0
 22 43  1  0
 23 44  1  0
M  END
>  <UniqueID>  (73) 
220

>  <SMILES>  (73) 
O=S(=O)(Cc1ccccc1)N1CCC[C@@H]1c1c[nH]c2ccccc12

>  <Energy>  (73) 
75.73670100260922

>  <Genealogy>  (73) 
O=S(=O)(Cc1ccccc1)N1CCC[C@@H]1c1c[nH]c2ccccc12 (chirality)
O=S(=O)(Cc1ccccc1)N1CCC[C@@H]1c1c[nH]c2ccccc12 (3D coordinates assigned)
O=S(=O)(Cc1ccccc1)N1CCC[C@@H]1c1c[nH]c2ccccc12 (nonaromatic ring conformer: 75.73670100260922 kcal/mol)

>  <smiles>  (73) 
O=S(=O)(Cc1ccccc1)N1CCCC1c1c[nH]c2ccccc12

>  <score_type>  (73) 
oracle

>  <origin>  (73) 
autodockgpu

>  <m_score__min__energy>  (73) 
-7.5499999999999998

>  <m_primary>  (73) 
energy

>  <meeko>  (73) 
{"free_energy": -7.55, "intermolecular_energy": -8.74, "internal_energy": -1.21, "cluster_size": 3, "cluster_id": 1, "rank_in_cluster": 2}

>  <energy>  (73) 
-6.54

>  <cluster_rmsd>  (73) 
0.41

>  <rmsd>  (73) 
271.24

>  <cluster>  (73) 
5

$$$$
QHTAHHNEYOTCSC-LJQANCHMNA-N
     RDKit          3D

 44 47  0  0  0  0  0  0  0  0999 V2000
  138.8110   77.5050  221.9290 O   0  0  0  0  0  0  0  0  0  0  0  0
  140.0200   76.6110  221.9150 S   0  0  0  0  0  0  0  0  0  0  0  0
  139.6010   75.2300  222.3400 O   0  0  0  0  0  0  0  0  0  0  0  0
  141.1910   77.2660  223.0930 C   0  0  0  0  0  0  0  0  0  0  0  0
  141.2720   78.7630  222.9980 C   0  0  0  0  0  0  0  0  0  0  0  0
  140.2360   79.5630  223.5110 C   0  0  0  0  0  0  0  0  0  0  0  0
  140.3310   80.9560  223.4570 C   0  0  0  0  0  0  0  0  0  0  0  0
  141.4590   81.5610  222.8940 C   0  0  0  0  0  0  0  0  0  0  0  0
  142.4960   80.7720  222.3870 C   0  0  0  0  0  0  0  0  0  0  0  0
  142.4060   79.3780  222.4400 C   0  0  0  0  0  0  0  0  0  0  0  0
  140.7350   76.5950  220.3130 N   0  0  0  0  0  0  0  0  0  0  0  0
  140.6050   77.8820  219.6270 C   0  0  0  0  0  0  0  0  0  0  0  0
  141.7070   77.9190  218.5860 C   0  0  0  0  0  0  0  0  0  0  0  0
  142.7920   77.0040  219.1300 C   0  0  0  0  0  0  0  0  0  0  0  0
  142.1760   76.3250  220.3570 C   0  0  2  0  0  0  0  0  0  0  0  0
  142.4340   74.8410  220.3460 C   0  0  0  0  0  0  0  0  0  0  0  0
  141.4890   73.8270  220.1990 C   0  0  0  0  0  0  0  0  0  0  0  0
  142.0940   72.6190  220.1630 N   0  0  0  0  0  0  0  0  0  0  0  0
  143.4130   72.8600  220.2680 C   0  0  0  0  0  0  0  0  0  0  0  0
  144.4460   71.9250  220.2580 C   0  0  0  0  0  0  0  0  0  0  0  0
  145.7660   72.4010  220.3600 C   0  0  0  0  0  0  0  0  0  0  0  0
  146.0200   73.7870  220.4630 C   0  0  0  0  0  0  0  0  0  0  0  0
  144.9580   74.7090  220.4690 C   0  0  0  0  0  0  0  0  0  0  0  0
  143.6600   74.2050  220.3740 C   0  0  0  0  0  0  0  0  0  0  0  0
  140.8736   76.9869  224.1086 H   0  0  0  0  0  0  0  0  0  0  0  0
  142.1833   76.8470  222.8699 H   0  0  0  0  0  0  0  0  0  0  0  0
  139.3478   79.0909  223.9563 H   0  0  0  0  0  0  0  0  0  0  0  0
  139.5170   81.5778  223.8581 H   0  0  0  0  0  0  0  0  0  0  0  0
  141.5305   82.6578  222.8500 H   0  0  0  0  0  0  0  0  0  0  0  0
  143.3837   81.2488  221.9459 H   0  0  0  0  0  0  0  0  0  0  0  0
  143.2254   78.7603  222.0437 H   0  0  0  0  0  0  0  0  0  0  0  0
  139.6202   77.9584  219.1429 H   0  0  0  0  0  0  0  0  0  0  0  0
  140.6903   78.7225  220.3315 H   0  0  0  0  0  0  0  0  0  0  0  0
  141.3376   77.5482  217.6185 H   0  0  0  0  0  0  0  0  0  0  0  0
  142.0766   78.9402  218.4113 H   0  0  0  0  0  0  0  0  0  0  0  0
  143.0757   76.2538  218.3772 H   0  0  0  0  0  0  0  0  0  0  0  0
  143.7052   77.5609  219.3867 H   0  0  0  0  0  0  0  0  0  0  0  0
  142.6263   76.7189  221.2801 H   0  0  0  0  0  0  0  0  0  0  0  0
  140.4034   73.9874  220.1230 H   0  0  0  0  0  0  0  0  0  0  0  0
  141.6300   71.6890  220.0590 H   0  0  0  0  0  0  0  0  0  0  0  0
  144.2361   70.8486  220.1730 H   0  0  0  0  0  0  0  0  0  0  0  0
  146.6052   71.6899  220.3596 H   0  0  0  0  0  0  0  0  0  0  0  0
  147.0564   74.1478  220.5391 H   0  0  0  0  0  0  0  0  0  0  0  0
  145.1440   75.7904  220.5459 H   0  0  0  0  0  0  0  0  0  0  0  0
  1  2  2  0
  2  3  2  0
  2  4  1  0
  4  5  1  0
  5  6  2  0
  6  7  1  0
  7  8  2  0
  8  9  1  0
  9 10  2  0
  2 11  1  0
 11 12  1  0
 12 13  1  0
 13 14  1  0
 14 15  1  0
 15 16  1  0
 16 17  2  0
 17 18  1  0
 18 19  1  0
 19 20  2  0
 20 21  1  0
 21 22  2  0
 22 23  1  0
 23 24  2  0
 10  5  1  0
 15 11  1  0
 24 16  1  0
 24 19  1  0
  4 25  1  0
  4 26  1  0
  6 27  1  0
  7 28  1  0
  8 29  1  0
  9 30  1  0
 10 31  1  0
 12 32  1  0
 12 33  1  0
 13 34  1  0
 13 35  1  0
 14 36  1  0
 14 37  1  0
 15 38  1  1
 17 39  1  0
 18 40  1  0
 20 41  1  0
 21 42  1  0
 22 43  1  0
 23 44  1  0
M  END
>  <UniqueID>  (74) 
220

>  <SMILES>  (74) 
O=S(=O)(Cc1ccccc1)N1CCC[C@@H]1c1c[nH]c2ccccc12

>  <Energy>  (74) 
75.73670100260922

>  <Genealogy>  (74) 
O=S(=O)(Cc1ccccc1)N1CCC[C@@H]1c1c[nH]c2ccccc12 (chirality)
O=S(=O)(Cc1ccccc1)N1CCC[C@@H]1c1c[nH]c2ccccc12 (3D coordinates assigned)
O=S(=O)(Cc1ccccc1)N1CCC[C@@H]1c1c[nH]c2ccccc12 (nonaromatic ring conformer: 75.73670100260922 kcal/mol)

>  <smiles>  (74) 
O=S(=O)(Cc1ccccc1)N1CCCC1c1c[nH]c2ccccc12

>  <score_type>  (74) 
oracle

>  <origin>  (74) 
autodockgpu

>  <m_score__min__energy>  (74) 
-7.5499999999999998

>  <m_primary>  (74) 
energy

>  <meeko>  (74) 
{"free_energy": -6.92, "intermolecular_energy": -8.11, "internal_energy": -1.52, "cluster_size": 3, "cluster_id": 3, "rank_in_cluster": 2}

>  <energy>  (74) 
-6.53

>  <cluster_rmsd>  (74) 
0.22

>  <rmsd>  (74) 
271.29

>  <cluster>  (74) 
5

$$$$
QHTAHHNEYOTCSC-LJQANCHMNA-N
     RDKit          3D

 44 47  0  0  0  0  0  0  0  0999 V2000
  141.7620   81.2980  224.2350 O   0  0  0  0  0  0  0  0  0  0  0  0
  141.5730   79.9280  223.6440 S   0  0  0  0  0  0  0  0  0  0  0  0
  142.1740   78.9140  224.5790 O   0  0  0  0  0  0  0  0  0  0  0  0
  142.4430   79.8880  222.0850 C   0  0  0  0  0  0  0  0  0  0  0  0
  141.8860   80.9060  221.1310 C   0  0  0  0  0  0  0  0  0  0  0  0
  141.7470   80.5970  219.7670 C   0  0  0  0  0  0  0  0  0  0  0  0
  141.1920   81.5300  218.8870 C   0  0  0  0  0  0  0  0  0  0  0  0
  140.7700   82.7760  219.3620 C   0  0  0  0  0  0  0  0  0  0  0  0
  140.8990   83.0880  220.7180 C   0  0  0  0  0  0  0  0  0  0  0  0
  141.4520   82.1570  221.6020 C   0  0  0  0  0  0  0  0  0  0  0  0
  139.8660   79.6190  223.3810 N   0  0  0  0  0  0  0  0  0  0  0  0
  139.0570   80.8380  223.4550 C   0  0  0  0  0  0  0  0  0  0  0  0
  137.7920   80.5520  222.6700 C   0  0  0  0  0  0  0  0  0  0  0  0
  138.1870   79.4880  221.6610 C   0  0  0  0  0  0  0  0  0  0  0  0
  139.6070   79.0650  222.0480 C   0  0  2  0  0  0  0  0  0  0  0  0
  139.7440   77.5650  222.0670 C   0  0  0  0  0  0  0  0  0  0  0  0
  138.8750   76.6510  222.6630 C   0  0  0  0  0  0  0  0  0  0  0  0
  139.2770   75.3850  222.4120 N   0  0  0  0  0  0  0  0  0  0  0  0
  140.3810   75.4890  221.6510 C   0  0  0  0  0  0  0  0  0  0  0  0
  141.1430   74.4480  221.1240 C   0  0  0  0  0  0  0  0  0  0  0  0
  142.2550   74.7850  220.3290 C   0  0  0  0  0  0  0  0  0  0  0  0
  142.5720   76.1380  220.0790 C   0  0  0  0  0  0  0  0  0  0  0  0
  141.7830   77.1680  220.6230 C   0  0  0  0  0  0  0  0  0  0  0  0
  140.6920   76.8030  221.4120 C   0  0  0  0  0  0  0  0  0  0  0  0
  143.5070   80.1046  222.2612 H   0  0  0  0  0  0  0  0  0  0  0  0
  142.3212   78.8888  221.6414 H   0  0  0  0  0  0  0  0  0  0  0  0
  142.0763   79.6172  219.3908 H   0  0  0  0  0  0  0  0  0  0  0  0
  141.0870   81.2843  217.8199 H   0  0  0  0  0  0  0  0  0  0  0  0
  140.3363   83.5108  218.6677 H   0  0  0  0  0  0  0  0  0  0  0  0
  140.5649   84.0677  221.0903 H   0  0  0  0  0  0  0  0  0  0  0  0
  141.5478   82.4043  222.6696 H   0  0  0  0  0  0  0  0  0  0  0  0
  138.8122   81.0706  224.5019 H   0  0  0  0  0  0  0  0  0  0  0  0
  139.5971   81.7040  223.0448 H   0  0  0  0  0  0  0  0  0  0  0  0
  137.0001   80.1783  223.3358 H   0  0  0  0  0  0  0  0  0  0  0  0
  137.3948   81.4551  222.1836 H   0  0  0  0  0  0  0  0  0  0  0  0
  137.5010   78.6300  221.7185 H   0  0  0  0  0  0  0  0  0  0  0  0
  138.1406   79.8665  220.6292 H   0  0  0  0  0  0  0  0  0  0  0  0
  140.3329   79.4411  221.3121 H   0  0  0  0  0  0  0  0  0  0  0  0
  137.9877   76.9222  223.2539 H   0  0  0  0  0  0  0  0  0  0  0  0
  138.8140   74.5060  222.7340 H   0  0  0  0  0  0  0  0  0  0  0  0
  140.8842   73.3975  221.3226 H   0  0  0  0  0  0  0  0  0  0  0  0
  142.8811   73.9889  219.8997 H   0  0  0  0  0  0  0  0  0  0  0  0
  143.4421   76.3886  219.4544 H   0  0  0  0  0  0  0  0  0  0  0  0
  142.0185   78.2255  220.4326 H   0  0  0  0  0  0  0  0  0  0  0  0
  1  2  2  0
  2  3  2  0
  2  4  1  0
  4  5  1  0
  5  6  2  0
  6  7  1  0
  7  8  2  0
  8  9  1  0
  9 10  2  0
  2 11  1  0
 11 12  1  0
 12 13  1  0
 13 14  1  0
 14 15  1  0
 15 16  1  0
 16 17  2  0
 17 18  1  0
 18 19  1  0
 19 20  2  0
 20 21  1  0
 21 22  2  0
 22 23  1  0
 23 24  2  0
 10  5  1  0
 15 11  1  0
 24 16  1  0
 24 19  1  0
  4 25  1  0
  4 26  1  0
  6 27  1  0
  7 28  1  0
  8 29  1  0
  9 30  1  0
 10 31  1  0
 12 32  1  0
 12 33  1  0
 13 34  1  0
 13 35  1  0
 14 36  1  0
 14 37  1  0
 15 38  1  6
 17 39  1  0
 18 40  1  0
 20 41  1  0
 21 42  1  0
 22 43  1  0
 23 44  1  0
M  END
>  <UniqueID>  (75) 
220

>  <SMILES>  (75) 
O=S(=O)(Cc1ccccc1)N1CCC[C@@H]1c1c[nH]c2ccccc12

>  <Energy>  (75) 
75.73670100260922

>  <Genealogy>  (75) 
O=S(=O)(Cc1ccccc1)N1CCC[C@@H]1c1c[nH]c2ccccc12 (chirality)
O=S(=O)(Cc1ccccc1)N1CCC[C@@H]1c1c[nH]c2ccccc12 (3D coordinates assigned)
O=S(=O)(Cc1ccccc1)N1CCC[C@@H]1c1c[nH]c2ccccc12 (nonaromatic ring conformer: 75.73670100260922 kcal/mol)

>  <smiles>  (75) 
O=S(=O)(Cc1ccccc1)N1CCCC1c1c[nH]c2ccccc12

>  <score_type>  (75) 
oracle

>  <origin>  (75) 
autodockgpu

>  <m_score__min__energy>  (75) 
-7.5499999999999998

>  <m_primary>  (75) 
energy

>  <meeko>  (75) 
{"free_energy": -6.56, "intermolecular_energy": -7.75, "internal_energy": -1.81, "cluster_size": 8, "cluster_id": 5, "rank_in_cluster": 3}

>  <energy>  (75) 
-6.53

>  <cluster_rmsd>  (75) 
0.38

>  <rmsd>  (75) 
271.23

>  <cluster>  (75) 
5

$$$$
QHTAHHNEYOTCSC-LJQANCHMNA-N
     RDKit          3D

 44 47  0  0  0  0  0  0  0  0999 V2000
  134.8160   68.4050  224.0810 O   0  0  0  0  0  0  0  0  0  0  0  0
  135.9080   69.4150  224.2970 S   0  0  0  0  0  0  0  0  0  0  0  0
  136.0750   69.6330  225.7770 O   0  0  0  0  0  0  0  0  0  0  0  0
  135.3930   70.9420  223.5270 C   0  0  0  0  0  0  0  0  0  0  0  0
  134.7230   71.8470  224.5210 C   0  0  0  0  0  0  0  0  0  0  0  0
  133.7920   71.3280  225.4370 C   0  0  0  0  0  0  0  0  0  0  0  0
  133.1990   72.1630  226.3870 C   0  0  0  0  0  0  0  0  0  0  0  0
  133.5310   73.5210  226.4320 C   0  0  0  0  0  0  0  0  0  0  0  0
  134.4600   74.0440  225.5280 C   0  0  0  0  0  0  0  0  0  0  0  0
  135.0570   73.2120  224.5770 C   0  0  0  0  0  0  0  0  0  0  0  0
  137.4000   68.8530  223.5630 N   0  0  0  0  0  0  0  0  0  0  0  0
  137.3590   68.9040  222.1010 C   0  0  0  0  0  0  0  0  0  0  0  0
  138.8020   68.9660  221.6400 C   0  0  0  0  0  0  0  0  0  0  0  0
  139.5560   69.6000  222.7960 C   0  0  0  0  0  0  0  0  0  0  0  0
  138.5470   69.6830  223.9460 C   0  0  2  0  0  0  0  0  0  0  0  0
  139.1480   69.1890  225.2360 C   0  0  0  0  0  0  0  0  0  0  0  0
  139.2140   67.8680  225.6780 C   0  0  0  0  0  0  0  0  0  0  0  0
  139.8890   67.7950  226.8470 N   0  0  0  0  0  0  0  0  0  0  0  0
  140.2640   69.0530  227.1390 C   0  0  0  0  0  0  0  0  0  0  0  0
  141.0040   69.4780  228.2410 C   0  0  0  0  0  0  0  0  0  0  0  0
  141.3060   70.8490  228.3410 C   0  0  0  0  0  0  0  0  0  0  0  0
  140.8700   71.7520  227.3450 C   0  0  0  0  0  0  0  0  0  0  0  0
  140.1260   71.2930  226.2430 C   0  0  0  0  0  0  0  0  0  0  0  0
  139.8370   69.9300  226.1760 C   0  0  0  0  0  0  0  0  0  0  0  0
  136.2757   71.4522  223.1140 H   0  0  0  0  0  0  0  0  0  0  0  0
  134.6748   70.7066  222.7278 H   0  0  0  0  0  0  0  0  0  0  0  0
  133.5293   70.2603  225.4057 H   0  0  0  0  0  0  0  0  0  0  0  0
  132.4699   71.7519  227.1007 H   0  0  0  0  0  0  0  0  0  0  0  0
  133.0609   74.1775  227.1790 H   0  0  0  0  0  0  0  0  0  0  0  0
  134.7215   75.1118  225.5652 H   0  0  0  0  0  0  0  0  0  0  0  0
  135.7907   73.6262  223.8698 H   0  0  0  0  0  0  0  0  0  0  0  0
  136.8693   68.0037  221.7015 H   0  0  0  0  0  0  0  0  0  0  0  0
  136.7867   69.7737  221.7459 H   0  0  0  0  0  0  0  0  0  0  0  0
  139.1863   67.9559  221.4351 H   0  0  0  0  0  0  0  0  0  0  0  0
  138.9143   69.5402  220.7085 H   0  0  0  0  0  0  0  0  0  0  0  0
  140.4154   68.9761  223.0828 H   0  0  0  0  0  0  0  0  0  0  0  0
  139.9538   70.5904  222.5297 H   0  0  0  0  0  0  0  0  0  0  0  0
  138.2438   70.7265  224.1170 H   0  0  0  0  0  0  0  0  0  0  0  0
  138.7783   67.0070  225.1500 H   0  0  0  0  0  0  0  0  0  0  0  0
  140.0900   66.9320  227.4000 H   0  0  0  0  0  0  0  0  0  0  0  0
  141.3411   68.7649  229.0078 H   0  0  0  0  0  0  0  0  0  0  0  0
  141.8849   71.2200  229.1996 H   0  0  0  0  0  0  0  0  0  0  0  0
  141.1141   72.8210  227.4322 H   0  0  0  0  0  0  0  0  0  0  0  0
  139.7835   71.9858  225.4602 H   0  0  0  0  0  0  0  0  0  0  0  0
  1  2  2  0
  2  3  2  0
  2  4  1  0
  4  5  1  0
  5  6  2  0
  6  7  1  0
  7  8  2  0
  8  9  1  0
  9 10  2  0
  2 11  1  0
 11 12  1  0
 12 13  1  0
 13 14  1  0
 14 15  1  0
 15 16  1  0
 16 17  2  0
 17 18  1  0
 18 19  1  0
 19 20  2  0
 20 21  1  0
 21 22  2  0
 22 23  1  0
 23 24  2  0
 10  5  1  0
 15 11  1  0
 24 16  1  0
 24 19  1  0
  4 25  1  0
  4 26  1  0
  6 27  1  0
  7 28  1  0
  8 29  1  0
  9 30  1  0
 10 31  1  0
 12 32  1  0
 12 33  1  0
 13 34  1  0
 13 35  1  0
 14 36  1  0
 14 37  1  0
 15 38  1  1
 17 39  1  0
 18 40  1  0
 20 41  1  0
 21 42  1  0
 22 43  1  0
 23 44  1  0
M  END
>  <UniqueID>  (76) 
220

>  <SMILES>  (76) 
O=S(=O)(Cc1ccccc1)N1CCC[C@@H]1c1c[nH]c2ccccc12

>  <Energy>  (76) 
75.73670100260922

>  <Genealogy>  (76) 
O=S(=O)(Cc1ccccc1)N1CCC[C@@H]1c1c[nH]c2ccccc12 (chirality)
O=S(=O)(Cc1ccccc1)N1CCC[C@@H]1c1c[nH]c2ccccc12 (3D coordinates assigned)
O=S(=O)(Cc1ccccc1)N1CCC[C@@H]1c1c[nH]c2ccccc12 (nonaromatic ring conformer: 75.73670100260922 kcal/mol)

>  <smiles>  (76) 
O=S(=O)(Cc1ccccc1)N1CCCC1c1c[nH]c2ccccc12

>  <score_type>  (76) 
oracle

>  <origin>  (76) 
autodockgpu

>  <m_score__min__energy>  (76) 
-7.5499999999999998

>  <m_primary>  (76) 
energy

>  <meeko>  (76) 
{"free_energy": -7.52, "intermolecular_energy": -8.72, "internal_energy": -1.28, "cluster_size": 2, "cluster_id": 2, "rank_in_cluster": 1}

>  <energy>  (76) 
-6.52

>  <cluster_rmsd>  (76) 
0.37

>  <rmsd>  (76) 
271.24

>  <cluster>  (76) 
5

$$$$
QHTAHHNEYOTCSC-LJQANCHMNA-N
     RDKit          3D

 44 47  0  0  0  0  0  0  0  0999 V2000
  141.4920   81.1970  224.2170 O   0  0  0  0  0  0  0  0  0  0  0  0
  141.3770   79.8240  223.6160 S   0  0  0  0  0  0  0  0  0  0  0  0
  141.9150   78.8210  224.6010 O   0  0  0  0  0  0  0  0  0  0  0  0
  142.3750   79.7960  222.1350 C   0  0  0  0  0  0  0  0  0  0  0  0
  141.8930   80.8120  221.1410 C   0  0  0  0  0  0  0  0  0  0  0  0
  141.8320   80.4930  219.7740 C   0  0  0  0  0  0  0  0  0  0  0  0
  141.3450   81.4260  218.8540 C   0  0  0  0  0  0  0  0  0  0  0  0
  140.9140   82.6820  219.2920 C   0  0  0  0  0  0  0  0  0  0  0  0
  140.9650   83.0050  220.6510 C   0  0  0  0  0  0  0  0  0  0  0  0
  141.4500   82.0740  221.5740 C   0  0  0  0  0  0  0  0  0  0  0  0
  139.7040   79.4840  223.2110 N   0  0  0  0  0  0  0  0  0  0  0  0
  138.8780   80.6930  223.1790 C   0  0  0  0  0  0  0  0  0  0  0  0
  137.6910   80.3700  222.2940 C   0  0  0  0  0  0  0  0  0  0  0  0
  138.1860   79.2850  221.3530 C   0  0  0  0  0  0  0  0  0  0  0  0
  139.5710   78.8910  221.8760 C   0  0  2  0  0  0  0  0  0  0  0  0
  139.7220   77.3940  221.9480 C   0  0  0  0  0  0  0  0  0  0  0  0
  138.8620   76.4940  222.5760 C   0  0  0  0  0  0  0  0  0  0  0  0
  139.2760   75.2240  222.3710 N   0  0  0  0  0  0  0  0  0  0  0  0
  140.3800   75.3110  221.6070 C   0  0  0  0  0  0  0  0  0  0  0  0
  141.1530   74.2600  221.1180 C   0  0  0  0  0  0  0  0  0  0  0  0
  142.2620   74.5790  220.3130 C   0  0  0  0  0  0  0  0  0  0  0  0
  142.5660   75.9260  220.0150 C   0  0  0  0  0  0  0  0  0  0  0  0
  141.7670   76.9660  220.5210 C   0  0  0  0  0  0  0  0  0  0  0  0
  140.6780   76.6190  221.3220 C   0  0  0  0  0  0  0  0  0  0  0  0
  143.4187   80.0198  222.4005 H   0  0  0  0  0  0  0  0  0  0  0  0
  142.2982   78.7974  221.6800 H   0  0  0  0  0  0  0  0  0  0  0  0
  142.1688   79.5052  219.4264 H   0  0  0  0  0  0  0  0  0  0  0  0
  141.3008   81.1719  217.7847 H   0  0  0  0  0  0  0  0  0  0  0  0
  140.5345   83.4165  218.5665 H   0  0  0  0  0  0  0  0  0  0  0  0
  140.6232   83.9926  220.9944 H   0  0  0  0  0  0  0  0  0  0  0  0
  141.4852   82.3298  222.6433 H   0  0  0  0  0  0  0  0  0  0  0  0
  138.5388   80.9501  224.1933 H   0  0  0  0  0  0  0  0  0  0  0  0
  139.4429   81.5546  222.7937 H   0  0  0  0  0  0  0  0  0  0  0  0
  136.8474   80.0033  222.8972 H   0  0  0  0  0  0  0  0  0  0  0  0
  137.3282   81.2547  221.7502 H   0  0  0  0  0  0  0  0  0  0  0  0
  137.5071   78.4198  221.3727 H   0  0  0  0  0  0  0  0  0  0  0  0
  138.2275   79.6358  220.3112 H   0  0  0  0  0  0  0  0  0  0  0  0
  140.3558   79.2567  221.1975 H   0  0  0  0  0  0  0  0  0  0  0  0
  137.9718   76.7777  223.1566 H   0  0  0  0  0  0  0  0  0  0  0  0
  138.8210   74.3530  222.7230 H   0  0  0  0  0  0  0  0  0  0  0  0
  140.9043   73.2147  221.3536 H   0  0  0  0  0  0  0  0  0  0  0  0
  142.8964   73.7743  219.9131 H   0  0  0  0  0  0  0  0  0  0  0  0
  143.4342   76.1628  219.3824 H   0  0  0  0  0  0  0  0  0  0  0  0
  141.9925   78.0183  220.2932 H   0  0  0  0  0  0  0  0  0  0  0  0
  1  2  2  0
  2  3  2  0
  2  4  1  0
  4  5  1  0
  5  6  2  0
  6  7  1  0
  7  8  2  0
  8  9  1  0
  9 10  2  0
  2 11  1  0
 11 12  1  0
 12 13  1  0
 13 14  1  0
 14 15  1  0
 15 16  1  0
 16 17  2  0
 17 18  1  0
 18 19  1  0
 19 20  2  0
 20 21  1  0
 21 22  2  0
 22 23  1  0
 23 24  2  0
 10  5  1  0
 15 11  1  0
 24 16  1  0
 24 19  1  0
  4 25  1  0
  4 26  1  0
  6 27  1  0
  7 28  1  0
  8 29  1  0
  9 30  1  0
 10 31  1  0
 12 32  1  0
 12 33  1  0
 13 34  1  0
 13 35  1  0
 14 36  1  0
 14 37  1  0
 15 38  1  6
 17 39  1  0
 18 40  1  0
 20 41  1  0
 21 42  1  0
 22 43  1  0
 23 44  1  0
M  END
>  <UniqueID>  (77) 
220

>  <SMILES>  (77) 
O=S(=O)(Cc1ccccc1)N1CCC[C@@H]1c1c[nH]c2ccccc12

>  <Energy>  (77) 
75.73670100260922

>  <Genealogy>  (77) 
O=S(=O)(Cc1ccccc1)N1CCC[C@@H]1c1c[nH]c2ccccc12 (chirality)
O=S(=O)(Cc1ccccc1)N1CCC[C@@H]1c1c[nH]c2ccccc12 (3D coordinates assigned)
O=S(=O)(Cc1ccccc1)N1CCC[C@@H]1c1c[nH]c2ccccc12 (nonaromatic ring conformer: 75.73670100260922 kcal/mol)

>  <smiles>  (77) 
O=S(=O)(Cc1ccccc1)N1CCCC1c1c[nH]c2ccccc12

>  <score_type>  (77) 
oracle

>  <origin>  (77) 
autodockgpu

>  <m_score__min__energy>  (77) 
-7.5499999999999998

>  <m_primary>  (77) 
energy

>  <meeko>  (77) 
{"free_energy": -6.53, "intermolecular_energy": -7.72, "internal_energy": -1.84, "cluster_size": 8, "cluster_id": 5, "rank_in_cluster": 5}

>  <energy>  (77) 
-6.52

>  <cluster_rmsd>  (77) 
0.4

>  <rmsd>  (77) 
271.22

>  <cluster>  (77) 
5

$$$$
QHTAHHNEYOTCSC-LJQANCHMNA-N
     RDKit          3D

 44 47  0  0  0  0  0  0  0  0999 V2000
  141.8570   78.2820  223.8490 O   0  0  0  0  0  0  0  0  0  0  0  0
  142.0580   79.4970  222.9860 S   0  0  0  0  0  0  0  0  0  0  0  0
  143.5350   79.7390  222.8350 O   0  0  0  0  0  0  0  0  0  0  0  0
  141.3120   80.8860  223.8250 C   0  0  0  0  0  0  0  0  0  0  0  0
  139.8720   81.0450  223.4280 C   0  0  0  0  0  0  0  0  0  0  0  0
  138.8530   80.4920  224.2220 C   0  0  0  0  0  0  0  0  0  0  0  0
  137.5110   80.6750  223.8730 C   0  0  0  0  0  0  0  0  0  0  0  0
  137.1790   81.4120  222.7320 C   0  0  0  0  0  0  0  0  0  0  0  0
  138.1870   81.9700  221.9410 C   0  0  0  0  0  0  0  0  0  0  0  0
  139.5290   81.7910  222.2870 C   0  0  0  0  0  0  0  0  0  0  0  0
  141.2880   79.2610  221.4270 N   0  0  0  0  0  0  0  0  0  0  0  0
  141.8300   80.1450  220.3940 C   0  0  0  0  0  0  0  0  0  0  0  0
  141.5340   79.4740  219.0670 C   0  0  0  0  0  0  0  0  0  0  0  0
  141.4440   77.9920  219.3880 C   0  0  0  0  0  0  0  0  0  0  0  0
  141.4890   77.9010  220.9160 C   0  0  2  0  0  0  0  0  0  0  0  0
  140.4190   76.9780  221.4390 C   0  0  0  0  0  0  0  0  0  0  0  0
  140.5970   75.6940  221.9520 C   0  0  0  0  0  0  0  0  0  0  0  0
  139.4220   75.1950  222.3950 N   0  0  0  0  0  0  0  0  0  0  0  0
  138.5060   76.1570  222.1830 C   0  0  0  0  0  0  0  0  0  0  0  0
  137.1490   76.1150  222.4970 C   0  0  0  0  0  0  0  0  0  0  0  0
  136.3710   77.2500  222.2070 C   0  0  0  0  0  0  0  0  0  0  0  0
  136.9610   78.3920  221.6200 C   0  0  0  0  0  0  0  0  0  0  0  0
  138.3350   78.4070  221.3150 C   0  0  0  0  0  0  0  0  0  0  0  0
  139.0780   77.2630  221.6090 C   0  0  0  0  0  0  0  0  0  0  0  0
  141.3697   80.7232  224.9114 H   0  0  0  0  0  0  0  0  0  0  0  0
  141.8561   81.7993  223.5425 H   0  0  0  0  0  0  0  0  0  0  0  0
  139.1116   79.9133  225.1210 H   0  0  0  0  0  0  0  0  0  0  0  0
  136.7164   80.2390  224.4963 H   0  0  0  0  0  0  0  0  0  0  0  0
  136.1233   81.5527  222.4567 H   0  0  0  0  0  0  0  0  0  0  0  0
  137.9236   82.5509  221.0448 H   0  0  0  0  0  0  0  0  0  0  0  0
  140.3196   82.2353  221.6645 H   0  0  0  0  0  0  0  0  0  0  0  0
  141.3426   81.1300  220.4406 H   0  0  0  0  0  0  0  0  0  0  0  0
  142.9095   80.3067  220.5300 H   0  0  0  0  0  0  0  0  0  0  0  0
  140.5823   79.8385  218.6531 H   0  0  0  0  0  0  0  0  0  0  0  0
  142.3070   79.6878  218.3141 H   0  0  0  0  0  0  0  0  0  0  0  0
  140.5019   77.5723  219.0054 H   0  0  0  0  0  0  0  0  0  0  0  0
  142.2613   77.4229  218.9210 H   0  0  0  0  0  0  0  0  0  0  0  0
  142.4534   77.4894  221.2486 H   0  0  0  0  0  0  0  0  0  0  0  0
  141.5589   75.1618  221.9907 H   0  0  0  0  0  0  0  0  0  0  0  0
  139.2630   74.2580  222.8280 H   0  0  0  0  0  0  0  0  0  0  0  0
  136.7005   75.2222  222.9572 H   0  0  0  0  0  0  0  0  0  0  0  0
  135.2957   77.2488  222.4387 H   0  0  0  0  0  0  0  0  0  0  0  0
  136.3426   79.2747  221.4000 H   0  0  0  0  0  0  0  0  0  0  0  0
  138.8070   79.2905  220.8604 H   0  0  0  0  0  0  0  0  0  0  0  0
  1  2  2  0
  2  3  2  0
  2  4  1  0
  4  5  1  0
  5  6  2  0
  6  7  1  0
  7  8  2  0
  8  9  1  0
  9 10  2  0
  2 11  1  0
 11 12  1  0
 12 13  1  0
 13 14  1  0
 14 15  1  0
 15 16  1  0
 16 17  2  0
 17 18  1  0
 18 19  1  0
 19 20  2  0
 20 21  1  0
 21 22  2  0
 22 23  1  0
 23 24  2  0
 10  5  1  0
 15 11  1  0
 24 16  1  0
 24 19  1  0
  4 25  1  0
  4 26  1  0
  6 27  1  0
  7 28  1  0
  8 29  1  0
  9 30  1  0
 10 31  1  0
 12 32  1  0
 12 33  1  0
 13 34  1  0
 13 35  1  0
 14 36  1  0
 14 37  1  0
 15 38  1  6
 17 39  1  0
 18 40  1  0
 20 41  1  0
 21 42  1  0
 22 43  1  0
 23 44  1  0
M  END
>  <UniqueID>  (78) 
220

>  <SMILES>  (78) 
O=S(=O)(Cc1ccccc1)N1CCC[C@@H]1c1c[nH]c2ccccc12

>  <Energy>  (78) 
75.73670100260922

>  <Genealogy>  (78) 
O=S(=O)(Cc1ccccc1)N1CCC[C@@H]1c1c[nH]c2ccccc12 (chirality)
O=S(=O)(Cc1ccccc1)N1CCC[C@@H]1c1c[nH]c2ccccc12 (3D coordinates assigned)
O=S(=O)(Cc1ccccc1)N1CCC[C@@H]1c1c[nH]c2ccccc12 (nonaromatic ring conformer: 75.73670100260922 kcal/mol)

>  <smiles>  (78) 
O=S(=O)(Cc1ccccc1)N1CCCC1c1c[nH]c2ccccc12

>  <score_type>  (78) 
oracle

>  <origin>  (78) 
autodockgpu

>  <m_score__min__energy>  (78) 
-7.5499999999999998

>  <m_primary>  (78) 
energy

>  <meeko>  (78) 
{"free_energy": -5.97, "intermolecular_energy": -7.17, "internal_energy": -2.24, "cluster_size": 3, "cluster_id": 6, "rank_in_cluster": 1}

>  <energy>  (78) 
-5.97

>  <cluster_rmsd>  (78) 
0.0

>  <rmsd>  (78) 
271.21

>  <cluster>  (78) 
6

$$$$
QHTAHHNEYOTCSC-LJQANCHMNA-N
     RDKit          3D

 44 47  0  0  0  0  0  0  0  0999 V2000
  141.8480   78.2730  223.8380 O   0  0  0  0  0  0  0  0  0  0  0  0
  142.0500   79.4910  222.9790 S   0  0  0  0  0  0  0  0  0  0  0  0
  143.5270   79.7390  222.8390 O   0  0  0  0  0  0  0  0  0  0  0  0
  141.2920   80.8740  223.8170 C   0  0  0  0  0  0  0  0  0  0  0  0
  139.8460   81.0090  223.4350 C   0  0  0  0  0  0  0  0  0  0  0  0
  138.8470   80.4100  224.2210 C   0  0  0  0  0  0  0  0  0  0  0  0
  137.4990   80.5690  223.8870 C   0  0  0  0  0  0  0  0  0  0  0  0
  137.1390   81.3280  222.7690 C   0  0  0  0  0  0  0  0  0  0  0  0
  138.1270   81.9320  221.9860 C   0  0  0  0  0  0  0  0  0  0  0  0
  139.4760   81.7760  222.3170 C   0  0  0  0  0  0  0  0  0  0  0  0
  141.2910   79.2550  221.4150 N   0  0  0  0  0  0  0  0  0  0  0  0
  141.8430   80.1370  220.3850 C   0  0  0  0  0  0  0  0  0  0  0  0
  141.5560   79.4660  219.0560 C   0  0  0  0  0  0  0  0  0  0  0  0
  141.4610   77.9840  219.3770 C   0  0  0  0  0  0  0  0  0  0  0  0
  141.4930   77.8940  220.9060 C   0  0  2  0  0  0  0  0  0  0  0  0
  140.4180   76.9740  221.4210 C   0  0  0  0  0  0  0  0  0  0  0  0
  140.5910   75.6980  221.9560 C   0  0  0  0  0  0  0  0  0  0  0  0
  139.4090   75.2010  222.3830 N   0  0  0  0  0  0  0  0  0  0  0  0
  138.4940   76.1550  222.1390 C   0  0  0  0  0  0  0  0  0  0  0  0
  137.1310   76.1110  222.4270 C   0  0  0  0  0  0  0  0  0  0  0  0
  136.3530   77.2390  222.1050 C   0  0  0  0  0  0  0  0  0  0  0  0
  136.9510   78.3740  221.5130 C   0  0  0  0  0  0  0  0  0  0  0  0
  138.3300   78.3910  221.2350 C   0  0  0  0  0  0  0  0  0  0  0  0
  139.0720   77.2560  221.5600 C   0  0  0  0  0  0  0  0  0  0  0  0
  141.3639   80.7192  224.9037 H   0  0  0  0  0  0  0  0  0  0  0  0
  141.8192   81.7934  223.5225 H   0  0  0  0  0  0  0  0  0  0  0  0
  139.1267   79.8139  225.1022 H   0  0  0  0  0  0  0  0  0  0  0  0
  136.7206   80.0966  224.5042 H   0  0  0  0  0  0  0  0  0  0  0  0
  136.0780   81.4498  222.5056 H   0  0  0  0  0  0  0  0  0  0  0  0
  137.8425   82.5308  221.1082 H   0  0  0  0  0  0  0  0  0  0  0  0
  140.2507   82.2552  221.7003 H   0  0  0  0  0  0  0  0  0  0  0  0
  141.3575   81.1231  220.4271 H   0  0  0  0  0  0  0  0  0  0  0  0
  142.9219   80.2960  220.5293 H   0  0  0  0  0  0  0  0  0  0  0  0
  140.6081   79.8320  218.6347 H   0  0  0  0  0  0  0  0  0  0  0  0
  142.3350   79.6781  218.3089 H   0  0  0  0  0  0  0  0  0  0  0  0
  140.5215   77.5655  218.9868 H   0  0  0  0  0  0  0  0  0  0  0  0
  142.2812   77.4133  218.9172 H   0  0  0  0  0  0  0  0  0  0  0  0
  142.4538   77.4805  221.2464 H   0  0  0  0  0  0  0  0  0  0  0  0
  141.5539   75.1702  222.0213 H   0  0  0  0  0  0  0  0  0  0  0  0
  139.2460   74.2690  222.8260 H   0  0  0  0  0  0  0  0  0  0  0  0
  136.6776   75.2228  222.8913 H   0  0  0  0  0  0  0  0  0  0  0  0
  135.2733   77.2368  222.3154 H   0  0  0  0  0  0  0  0  0  0  0  0
  136.3338   79.2508  221.2677 H   0  0  0  0  0  0  0  0  0  0  0  0
  138.8068   79.2700  220.7767 H   0  0  0  0  0  0  0  0  0  0  0  0
  1  2  2  0
  2  3  2  0
  2  4  1  0
  4  5  1  0
  5  6  2  0
  6  7  1  0
  7  8  2  0
  8  9  1  0
  9 10  2  0
  2 11  1  0
 11 12  1  0
 12 13  1  0
 13 14  1  0
 14 15  1  0
 15 16  1  0
 16 17  2  0
 17 18  1  0
 18 19  1  0
 19 20  2  0
 20 21  1  0
 21 22  2  0
 22 23  1  0
 23 24  2  0
 10  5  1  0
 15 11  1  0
 24 16  1  0
 24 19  1  0
  4 25  1  0
  4 26  1  0
  6 27  1  0
  7 28  1  0
  8 29  1  0
  9 30  1  0
 10 31  1  0
 12 32  1  0
 12 33  1  0
 13 34  1  0
 13 35  1  0
 14 36  1  0
 14 37  1  0
 15 38  1  6
 17 39  1  0
 18 40  1  0
 20 41  1  0
 21 42  1  0
 22 43  1  0
 23 44  1  0
M  END
>  <UniqueID>  (79) 
220

>  <SMILES>  (79) 
O=S(=O)(Cc1ccccc1)N1CCC[C@@H]1c1c[nH]c2ccccc12

>  <Energy>  (79) 
75.73670100260922

>  <Genealogy>  (79) 
O=S(=O)(Cc1ccccc1)N1CCC[C@@H]1c1c[nH]c2ccccc12 (chirality)
O=S(=O)(Cc1ccccc1)N1CCC[C@@H]1c1c[nH]c2ccccc12 (3D coordinates assigned)
O=S(=O)(Cc1ccccc1)N1CCC[C@@H]1c1c[nH]c2ccccc12 (nonaromatic ring conformer: 75.73670100260922 kcal/mol)

>  <smiles>  (79) 
O=S(=O)(Cc1ccccc1)N1CCCC1c1c[nH]c2ccccc12

>  <score_type>  (79) 
oracle

>  <origin>  (79) 
autodockgpu

>  <m_score__min__energy>  (79) 
-7.5499999999999998

>  <m_primary>  (79) 
energy

>  <meeko>  (79) 
{"free_energy": -5.96, "intermolecular_energy": -7.15, "internal_energy": -2.26, "cluster_size": 3, "cluster_id": 6, "rank_in_cluster": 3}

>  <energy>  (79) 
-5.97

>  <cluster_rmsd>  (79) 
0.04

>  <rmsd>  (79) 
271.18

>  <cluster>  (79) 
6

$$$$
QHTAHHNEYOTCSC-LJQANCHMNA-N
     RDKit          3D

 44 47  0  0  0  0  0  0  0  0999 V2000
  141.4370   81.0310  224.2160 O   0  0  0  0  0  0  0  0  0  0  0  0
  141.3390   79.6520  223.6270 S   0  0  0  0  0  0  0  0  0  0  0  0
  141.8320   78.6590  224.6440 O   0  0  0  0  0  0  0  0  0  0  0  0
  142.3960   79.6010  222.1880 C   0  0  0  0  0  0  0  0  0  0  0  0
  141.9360   80.5810  221.1470 C   0  0  0  0  0  0  0  0  0  0  0  0
  141.9050   80.2130  219.7920 C   0  0  0  0  0  0  0  0  0  0  0  0
  141.4390   81.1120  218.8280 C   0  0  0  0  0  0  0  0  0  0  0  0
  140.9980   82.3830  219.2110 C   0  0  0  0  0  0  0  0  0  0  0  0
  141.0200   82.7540  220.5580 C   0  0  0  0  0  0  0  0  0  0  0  0
  141.4840   81.8580  221.5250 C   0  0  0  0  0  0  0  0  0  0  0  0
  139.6820   79.3150  223.1590 N   0  0  0  0  0  0  0  0  0  0  0  0
  138.8610   80.5260  223.0900 C   0  0  0  0  0  0  0  0  0  0  0  0
  137.7080   80.2030  222.1610 C   0  0  0  0  0  0  0  0  0  0  0  0
  138.2370   79.1120  221.2440 C   0  0  0  0  0  0  0  0  0  0  0  0
  139.5990   78.7160  221.8230 C   0  0  2  0  0  0  0  0  0  0  0  0
  139.7420   77.2190  221.9070 C   0  0  0  0  0  0  0  0  0  0  0  0
  138.8760   76.3280  222.5390 C   0  0  0  0  0  0  0  0  0  0  0  0
  139.2850   75.0550  222.3450 N   0  0  0  0  0  0  0  0  0  0  0  0
  140.3910   75.1310  221.5840 C   0  0  0  0  0  0  0  0  0  0  0  0
  141.1610   74.0720  221.1050 C   0  0  0  0  0  0  0  0  0  0  0  0
  142.2730   74.3790  220.3000 C   0  0  0  0  0  0  0  0  0  0  0  0
  142.5850   75.7230  219.9930 C   0  0  0  0  0  0  0  0  0  0  0  0
  141.7890   76.7710  220.4890 C   0  0  0  0  0  0  0  0  0  0  0  0
  140.6970   76.4350  221.2890 C   0  0  0  0  0  0  0  0  0  0  0  0
  143.4243   79.8511  222.4880 H   0  0  0  0  0  0  0  0  0  0  0  0
  142.3550   78.5890  221.7589 H   0  0  0  0  0  0  0  0  0  0  0  0
  142.2488   79.2133  219.4879 H   0  0  0  0  0  0  0  0  0  0  0  0
  141.4191   80.8196  217.7678 H   0  0  0  0  0  0  0  0  0  0  0  0
  140.6338   83.0906  218.4516 H   0  0  0  0  0  0  0  0  0  0  0  0
  140.6714   83.7533  220.8579 H   0  0  0  0  0  0  0  0  0  0  0  0
  141.4957   82.1524  222.5848 H   0  0  0  0  0  0  0  0  0  0  0  0
  138.4835   80.7882  224.0894 H   0  0  0  0  0  0  0  0  0  0  0  0
  139.4429   81.3843  222.7231 H   0  0  0  0  0  0  0  0  0  0  0  0
  136.8405   79.8411  222.7324 H   0  0  0  0  0  0  0  0  0  0  0  0
  137.3687   81.0863  221.6001 H   0  0  0  0  0  0  0  0  0  0  0  0
  137.5552   78.2488  221.2402 H   0  0  0  0  0  0  0  0  0  0  0  0
  138.3209   79.4585  220.2034 H   0  0  0  0  0  0  0  0  0  0  0  0
  140.4112   79.0761  221.1745 H   0  0  0  0  0  0  0  0  0  0  0  0
  137.9853   76.6202  223.1145 H   0  0  0  0  0  0  0  0  0  0  0  0
  138.8250   74.1880  222.7030 H   0  0  0  0  0  0  0  0  0  0  0  0
  140.9071   73.0298  221.3487 H   0  0  0  0  0  0  0  0  0  0  0  0
  142.9037   73.5680  219.9070 H   0  0  0  0  0  0  0  0  0  0  0  0
  143.4565   75.9508  219.3617 H   0  0  0  0  0  0  0  0  0  0  0  0
  142.0199   77.8205  220.2539 H   0  0  0  0  0  0  0  0  0  0  0  0
  1  2  2  0
  2  3  2  0
  2  4  1  0
  4  5  1  0
  5  6  2  0
  6  7  1  0
  7  8  2  0
  8  9  1  0
  9 10  2  0
  2 11  1  0
 11 12  1  0
 12 13  1  0
 13 14  1  0
 14 15  1  0
 15 16  1  0
 16 17  2  0
 17 18  1  0
 18 19  1  0
 19 20  2  0
 20 21  1  0
 21 22  2  0
 22 23  1  0
 23 24  2  0
 10  5  1  0
 15 11  1  0
 24 16  1  0
 24 19  1  0
  4 25  1  0
  4 26  1  0
  6 27  1  0
  7 28  1  0
  8 29  1  0
  9 30  1  0
 10 31  1  0
 12 32  1  0
 12 33  1  0
 13 34  1  0
 13 35  1  0
 14 36  1  0
 14 37  1  0
 15 38  1  6
 17 39  1  0
 18 40  1  0
 20 41  1  0
 21 42  1  0
 22 43  1  0
 23 44  1  0
M  END
>  <UniqueID>  (80) 
220

>  <SMILES>  (80) 
O=S(=O)(Cc1ccccc1)N1CCC[C@@H]1c1c[nH]c2ccccc12

>  <Energy>  (80) 
75.73670100260922

>  <Genealogy>  (80) 
O=S(=O)(Cc1ccccc1)N1CCC[C@@H]1c1c[nH]c2ccccc12 (chirality)
O=S(=O)(Cc1ccccc1)N1CCC[C@@H]1c1c[nH]c2ccccc12 (3D coordinates assigned)
O=S(=O)(Cc1ccccc1)N1CCC[C@@H]1c1c[nH]c2ccccc12 (nonaromatic ring conformer: 75.73670100260922 kcal/mol)

>  <smiles>  (80) 
O=S(=O)(Cc1ccccc1)N1CCCC1c1c[nH]c2ccccc12

>  <score_type>  (80) 
oracle

>  <origin>  (80) 
autodockgpu

>  <m_score__min__energy>  (80) 
-7.5499999999999998

>  <m_primary>  (80) 
energy

>  <meeko>  (80) 
{"free_energy": -6.52, "intermolecular_energy": -7.71, "internal_energy": -1.86, "cluster_size": 8, "cluster_id": 5, "rank_in_cluster": 8}

>  <energy>  (80) 
-5.96

>  <cluster_rmsd>  (80) 
0.06

>  <rmsd>  (80) 
271.18

>  <cluster>  (80) 
6

$$$$
