
     RDKit          3D

 49 52  0  0  0  0  0  0  0  0999 V2000
  141.8270   75.9930  220.1940 O   0  0  0  0  0  0  0  0  0  0  0  0
  141.7730   74.7910  220.5650 C   0  0  0  0  0  0  0  0  0  0  0  0
  142.9570   74.0720  220.4910 C   0  0  0  0  0  0  0  0  0  0  0  0
  144.1350   74.6340  220.0370 C   0  0  0  0  0  0  0  0  0  0  0  0
  145.2810   73.8660  219.9880 C   0  0  0  0  0  0  0  0  0  0  0  0
  145.2530   72.5450  220.3890 C   0  0  0  0  0  0  0  0  0  0  0  0
  144.0640   71.9900  220.8440 C   0  0  0  0  0  0  0  0  0  0  0  0
  142.9480   72.7640  220.8840 C   0  0  0  0  0  0  0  0  0  0  0  0
  141.7780   72.2550  221.3210 N   0  0  0  0  0  0  0  0  0  0  0  0
  140.6320   72.9600  221.3890 C   0  0  0  0  0  0  0  0  0  0  0  0
  139.4170   72.3170  221.8780 C   0  0  0  0  0  0  0  0  0  0  0  0
  139.4990   71.1540  222.4980 C   0  0  0  0  0  0  0  0  0  0  0  0
  139.8450   71.0040  223.9040 C   0  0  0  0  0  0  0  0  0  0  0  0
  139.3510   70.0010  224.7100 C   0  0  0  0  0  0  0  0  0  0  0  0
  139.6920   69.8780  226.0410 C   0  0  0  0  0  0  0  0  0  0  0  0
  140.5760   70.7990  226.6130 C   0  0  0  0  0  0  0  0  0  0  0  0
  141.0490   71.7860  225.7770 C   0  0  0  0  0  0  0  0  0  0  0  0
  140.6940   71.8770  224.4810 N   0  0  0  0  0  0  0  0  0  0  0  0
  140.6250   74.2500  221.0060 N   0  0  0  0  0  0  0  0  0  0  0  0
  139.4500   75.0700  221.0450 C   0  0  0  0  0  0  0  0  0  0  0  0
  139.4120   75.7710  222.4020 C   0  0  0  0  0  0  0  0  0  0  0  0
  139.7000   77.2330  222.1570 C   0  0  0  0  0  0  0  0  0  0  0  0
  141.0900   77.5610  222.3420 N   0  0  0  0  0  0  0  0  0  0  0  0
  141.4580   78.8580  222.8370 C   0  0  0  0  0  0  0  0  0  0  0  0
  142.7330   79.2820  222.8480 N   0  0  0  0  0  0  0  0  0  0  0  0
  143.0790   80.5070  223.3160 C   0  0  0  0  0  0  0  0  0  0  0  0
  142.0620   81.3110  223.7860 C   0  0  0  0  0  0  0  0  0  0  0  0
  140.7310   80.8940  223.7850 C   0  0  0  0  0  0  0  0  0  0  0  0
  140.4650   79.6520  223.2990 N   0  0  0  0  0  0  0  0  0  0  0  0
  144.1593   75.6861  219.7169 H   0  0  0  0  0  0  0  0  0  0  0  0
  146.2213   74.3086  219.6277 H   0  0  0  0  0  0  0  0  0  0  0  0
  146.1677   71.9354  220.3483 H   0  0  0  0  0  0  0  0  0  0  0  0
  144.0263   70.9392  221.1672 H   0  0  0  0  0  0  0  0  0  0  0  0
  138.4387   72.7981  221.7311 H   0  0  0  0  0  0  0  0  0  0  0  0
  139.2933   70.2431  221.9166 H   0  0  0  0  0  0  0  0  0  0  0  0
  138.6561   69.2683  224.2739 H   0  0  0  0  0  0  0  0  0  0  0  0
  139.2721   69.0622  226.6477 H   0  0  0  0  0  0  0  0  0  0  0  0
  140.8760   70.7384  227.6696 H   0  0  0  0  0  0  0  0  0  0  0  0
  141.7467   72.5320  226.1853 H   0  0  0  0  0  0  0  0  0  0  0  0
  139.4889   75.8176  220.2390 H   0  0  0  0  0  0  0  0  0  0  0  0
  138.5486   74.4551  220.9058 H   0  0  0  0  0  0  0  0  0  0  0  0
  138.4183   75.6540  222.8591 H   0  0  0  0  0  0  0  0  0  0  0  0
  140.1544   75.3361  223.0873 H   0  0  0  0  0  0  0  0  0  0  0  0
  139.4138   77.4804  221.1241 H   0  0  0  0  0  0  0  0  0  0  0  0
  139.1197   77.8146  222.8884 H   0  0  0  0  0  0  0  0  0  0  0  0
  141.8810   76.9180  222.1420 H   0  0  0  0  0  0  0  0  0  0  0  0
  144.1259   80.8447  223.3205 H   0  0  0  0  0  0  0  0  0  0  0  0
  142.3077   82.3109  224.1732 H   0  0  0  0  0  0  0  0  0  0  0  0
  139.9280   81.5442  224.1625 H   0  0  0  0  0  0  0  0  0  0  0  0
  1  2  2  0
  2  3  1  0
  3  4  2  0
  4  5  1  0
  5  6  2  0
  6  7  1  0
  7  8  2  0
  8  9  1  0
  9 10  2  0
 10 11  1  0
 11 12  2  0
 12 13  1  0
 13 14  2  0
 14 15  1  0
 15 16  2  0
 16 17  1  0
 17 18  2  0
 10 19  1  0
 19 20  1  0
 20 21  1  0
 21 22  1  0
 22 23  1  0
 23 24  1  0
 24 25  2  0
 25 26  1  0
 26 27  2  0
 27 28  1  0
 28 29  2  0
 19  2  1  0
 29 24  1  0
  8  3  1  0
 18 13  1  0
  4 30  1  0
  5 31  1  0
  6 32  1  0
  7 33  1  0
 11 34  1  0
 12 35  1  0
 14 36  1  0
 15 37  1  0
 16 38  1  0
 17 39  1  0
 20 40  1  0
 20 41  1  0
 21 42  1  0
 21 43  1  0
 22 44  1  0
 22 45  1  0
 23 46  1  0
 26 47  1  0
 27 48  1  0
 28 49  1  0
M  END
>  <smiles>  (1) 
O=c1c2ccccc2nc(/C=C/c2ccccn2)n1CCCNc1ncccn1

>  <score_type>  (1) 
oracle

>  <origin>  (1) 
autodockgpu

>  <m_score__min__energy>  (1) 
-7.6900000000000004

>  <m_primary>  (1) 
energy

>  <meeko>  (1) 
{"free_energy": -7.53, "intermolecular_energy": -9.91, "internal_energy": -1.76, "cluster_size": 5, "cluster_id": 2, "rank_in_cluster": 3}

>  <energy>  (1) 
-7.69

>  <cluster_rmsd>  (1) 
0.0

>  <rmsd>  (1) 
269.27

>  <cluster>  (1) 
1

$$$$

     RDKit          3D

 49 52  0  0  0  0  0  0  0  0999 V2000
  139.6320   74.2050  222.3630 O   0  0  0  0  0  0  0  0  0  0  0  0
  139.8110   75.3910  221.9820 C   0  0  0  0  0  0  0  0  0  0  0  0
  140.9420   75.6250  221.2140 C   0  0  0  0  0  0  0  0  0  0  0  0
  141.8290   74.6200  220.8810 C   0  0  0  0  0  0  0  0  0  0  0  0
  142.9370   74.9160  220.1130 C   0  0  0  0  0  0  0  0  0  0  0  0
  143.1600   76.2090  219.6800 C   0  0  0  0  0  0  0  0  0  0  0  0
  142.2630   77.2120  220.0200 C   0  0  0  0  0  0  0  0  0  0  0  0
  141.1780   76.8970  220.7770 C   0  0  0  0  0  0  0  0  0  0  0  0
  140.2880   77.8490  221.1250 N   0  0  0  0  0  0  0  0  0  0  0  0
  139.1920   77.6140  221.8710 C   0  0  0  0  0  0  0  0  0  0  0  0
  138.2870   78.7130  222.1920 C   0  0  0  0  0  0  0  0  0  0  0  0
  138.6610   79.6310  223.0650 C   0  0  0  0  0  0  0  0  0  0  0  0
  140.0430   80.0300  223.2830 C   0  0  0  0  0  0  0  0  0  0  0  0
  140.5540   81.2530  222.9040 C   0  0  0  0  0  0  0  0  0  0  0  0
  141.8680   81.6110  223.1200 C   0  0  0  0  0  0  0  0  0  0  0  0
  142.7330   80.7100  223.7500 C   0  0  0  0  0  0  0  0  0  0  0  0
  142.1870   79.5000  224.1150 C   0  0  0  0  0  0  0  0  0  0  0  0
  140.8980   79.1830  223.8880 N   0  0  0  0  0  0  0  0  0  0  0  0
  138.9450   76.3660  222.3090 N   0  0  0  0  0  0  0  0  0  0  0  0
  137.8040   76.0290  223.1090 C   0  0  0  0  0  0  0  0  0  0  0  0
  136.7140   75.5070  222.1750 C   0  0  0  0  0  0  0  0  0  0  0  0
  135.4560   75.3600  222.9970 C   0  0  0  0  0  0  0  0  0  0  0  0
  135.7040   74.7620  224.2840 N   0  0  0  0  0  0  0  0  0  0  0  0
  134.7150   74.8630  225.3200 C   0  0  0  0  0  0  0  0  0  0  0  0
  134.1190   73.7790  225.8460 N   0  0  0  0  0  0  0  0  0  0  0  0
  133.1850   73.8760  226.8250 C   0  0  0  0  0  0  0  0  0  0  0  0
  132.8650   75.1430  227.2660 C   0  0  0  0  0  0  0  0  0  0  0  0
  133.4700   76.2830  226.7380 C   0  0  0  0  0  0  0  0  0  0  0  0
  134.3960   76.1030  225.7590 N   0  0  0  0  0  0  0  0  0  0  0  0
  141.6535   73.5902  221.2257 H   0  0  0  0  0  0  0  0  0  0  0  0
  143.6458   74.1188  219.8444 H   0  0  0  0  0  0  0  0  0  0  0  0
  144.0442   76.4423  219.0687 H   0  0  0  0  0  0  0  0  0  0  0  0
  142.4272   78.2459  219.6824 H   0  0  0  0  0  0  0  0  0  0  0  0
  137.3002   78.7764  221.7102 H   0  0  0  0  0  0  0  0  0  0  0  0
  137.8804   80.1236  223.6633 H   0  0  0  0  0  0  0  0  0  0  0  0
  139.8859   81.9730  222.4088 H   0  0  0  0  0  0  0  0  0  0  0  0
  142.2333   82.5978  222.7993 H   0  0  0  0  0  0  0  0  0  0  0  0
  143.7881   80.9541  223.9426 H   0  0  0  0  0  0  0  0  0  0  0  0
  142.8311   78.7606  224.6133 H   0  0  0  0  0  0  0  0  0  0  0  0
  138.0753   75.2515  223.8383 H   0  0  0  0  0  0  0  0  0  0  0  0
  137.4470   76.9123  223.6589 H   0  0  0  0  0  0  0  0  0  0  0  0
  136.5471   76.2204  221.3545 H   0  0  0  0  0  0  0  0  0  0  0  0
  137.0068   74.5434  221.7326 H   0  0  0  0  0  0  0  0  0  0  0  0
  135.0163   76.3566  223.1500 H   0  0  0  0  0  0  0  0  0  0  0  0
  134.7729   74.6964  222.4464 H   0  0  0  0  0  0  0  0  0  0  0  0
  136.5670   74.2440  224.5390 H   0  0  0  0  0  0  0  0  0  0  0  0
  132.7035   72.9825  227.2489 H   0  0  0  0  0  0  0  0  0  0  0  0
  132.1101   75.2576  228.0578 H   0  0  0  0  0  0  0  0  0  0  0  0
  133.2083   77.2884  227.0994 H   0  0  0  0  0  0  0  0  0  0  0  0
  1  2  2  0
  2  3  1  0
  3  4  2  0
  4  5  1  0
  5  6  2  0
  6  7  1  0
  7  8  2  0
  8  9  1  0
  9 10  2  0
 10 11  1  0
 11 12  2  0
 12 13  1  0
 13 14  2  0
 14 15  1  0
 15 16  2  0
 16 17  1  0
 17 18  2  0
 10 19  1  0
 19 20  1  0
 20 21  1  0
 21 22  1  0
 22 23  1  0
 23 24  1  0
 24 25  2  0
 25 26  1  0
 26 27  2  0
 27 28  1  0
 28 29  2  0
 19  2  1  0
 29 24  1  0
  8  3  1  0
 18 13  1  0
  4 30  1  0
  5 31  1  0
  6 32  1  0
  7 33  1  0
 11 34  1  0
 12 35  1  0
 14 36  1  0
 15 37  1  0
 16 38  1  0
 17 39  1  0
 20 40  1  0
 20 41  1  0
 21 42  1  0
 21 43  1  0
 22 44  1  0
 22 45  1  0
 23 46  1  0
 26 47  1  0
 27 48  1  0
 28 49  1  0
M  END
>  <smiles>  (2) 
O=c1c2ccccc2nc(/C=C/c2ccccn2)n1CCCNc1ncccn1

>  <score_type>  (2) 
oracle

>  <origin>  (2) 
autodockgpu

>  <m_score__min__energy>  (2) 
-7.6900000000000004

>  <m_primary>  (2) 
energy

>  <meeko>  (2) 
{"free_energy": -7.2, "intermolecular_energy": -9.58, "internal_energy": -1.26, "cluster_size": 1, "cluster_id": 3, "rank_in_cluster": 1}

>  <energy>  (2) 
-7.66

>  <cluster_rmsd>  (2) 
0.17

>  <rmsd>  (2) 
269.22

>  <cluster>  (2) 
1

$$$$

     RDKit          3D

 49 52  0  0  0  0  0  0  0  0999 V2000
  141.9760   76.1150  220.2030 O   0  0  0  0  0  0  0  0  0  0  0  0
  141.8900   74.9070  220.5470 C   0  0  0  0  0  0  0  0  0  0  0  0
  143.0640   74.1700  220.5000 C   0  0  0  0  0  0  0  0  0  0  0  0
  144.2650   74.7210  220.0990 C   0  0  0  0  0  0  0  0  0  0  0  0
  145.4000   73.9360  220.0740 C   0  0  0  0  0  0  0  0  0  0  0  0
  145.3370   72.6070  220.4460 C   0  0  0  0  0  0  0  0  0  0  0  0
  144.1250   72.0630  220.8470 C   0  0  0  0  0  0  0  0  0  0  0  0
  143.0200   72.8550  220.8650 C   0  0  0  0  0  0  0  0  0  0  0  0
  141.8270   72.3570  221.2500 N   0  0  0  0  0  0  0  0  0  0  0  0
  140.6920   73.0790  221.2930 C   0  0  0  0  0  0  0  0  0  0  0  0
  139.4500   72.4470  221.7270 C   0  0  0  0  0  0  0  0  0  0  0  0
  139.4850   71.2420  222.2670 C   0  0  0  0  0  0  0  0  0  0  0  0
  139.8250   70.9860  223.6590 C   0  0  0  0  0  0  0  0  0  0  0  0
  140.7030   71.7600  224.3870 C   0  0  0  0  0  0  0  0  0  0  0  0
  141.0110   71.4980  225.7050 C   0  0  0  0  0  0  0  0  0  0  0  0
  140.4170   70.4070  226.3480 C   0  0  0  0  0  0  0  0  0  0  0  0
  139.5450   69.6580  225.5900 C   0  0  0  0  0  0  0  0  0  0  0  0
  139.2680   69.9420  224.3020 N   0  0  0  0  0  0  0  0  0  0  0  0
  140.7180   74.3760  220.9370 N   0  0  0  0  0  0  0  0  0  0  0  0
  139.5560   75.2150  220.9520 C   0  0  0  0  0  0  0  0  0  0  0  0
  139.3870   75.7570  222.3710 C   0  0  0  0  0  0  0  0  0  0  0  0
  139.6620   77.2400  222.3170 C   0  0  0  0  0  0  0  0  0  0  0  0
  141.0650   77.5460  222.4350 N   0  0  0  0  0  0  0  0  0  0  0  0
  141.4770   78.8430  222.8950 C   0  0  0  0  0  0  0  0  0  0  0  0
  142.7620   79.2350  222.8650 N   0  0  0  0  0  0  0  0  0  0  0  0
  143.1490   80.4600  223.3000 C   0  0  0  0  0  0  0  0  0  0  0  0
  142.1650   81.2980  223.7790 C   0  0  0  0  0  0  0  0  0  0  0  0
  140.8250   80.9150  223.8190 C   0  0  0  0  0  0  0  0  0  0  0  0
  140.5160   79.6710  223.3660 N   0  0  0  0  0  0  0  0  0  0  0  0
  144.3168   75.7787  219.8014 H   0  0  0  0  0  0  0  0  0  0  0  0
  146.3593   74.3706  219.7564 H   0  0  0  0  0  0  0  0  0  0  0  0
  146.2428   71.9833  220.4244 H   0  0  0  0  0  0  0  0  0  0  0  0
  144.0592   71.0064  221.1459 H   0  0  0  0  0  0  0  0  0  0  0  0
  138.4905   72.9710  221.6051 H   0  0  0  0  0  0  0  0  0  0  0  0
  139.2429   70.3809  221.6268 H   0  0  0  0  0  0  0  0  0  0  0  0
  141.1776   72.6224  223.8960 H   0  0  0  0  0  0  0  0  0  0  0  0
  141.7188   72.1423  226.2471 H   0  0  0  0  0  0  0  0  0  0  0  0
  140.6339   70.1617  227.3981 H   0  0  0  0  0  0  0  0  0  0  0  0
  139.0535   68.7909  226.0555 H   0  0  0  0  0  0  0  0  0  0  0  0
  139.6877   76.0487  220.2466 H   0  0  0  0  0  0  0  0  0  0  0  0
  138.6659   74.6427  220.6516 H   0  0  0  0  0  0  0  0  0  0  0  0
  138.3609   75.5764  222.7239 H   0  0  0  0  0  0  0  0  0  0  0  0
  140.0778   75.2564  223.0655 H   0  0  0  0  0  0  0  0  0  0  0  0
  139.2950   77.6320  221.3570 H   0  0  0  0  0  0  0  0  0  0  0  0
  139.1455   77.7068  223.1687 H   0  0  0  0  0  0  0  0  0  0  0  0
  141.8350   76.8860  222.2100 H   0  0  0  0  0  0  0  0  0  0  0  0
  144.2036   80.7716  223.2717 H   0  0  0  0  0  0  0  0  0  0  0  0
  142.4452   82.2984  224.1404 H   0  0  0  0  0  0  0  0  0  0  0  0
  140.0481   81.5929  224.2021 H   0  0  0  0  0  0  0  0  0  0  0  0
  1  2  2  0
  2  3  1  0
  3  4  2  0
  4  5  1  0
  5  6  2  0
  6  7  1  0
  7  8  2  0
  8  9  1  0
  9 10  2  0
 10 11  1  0
 11 12  2  0
 12 13  1  0
 13 14  2  0
 14 15  1  0
 15 16  2  0
 16 17  1  0
 17 18  2  0
 10 19  1  0
 19 20  1  0
 20 21  1  0
 21 22  1  0
 22 23  1  0
 23 24  1  0
 24 25  2  0
 25 26  1  0
 26 27  2  0
 27 28  1  0
 28 29  2  0
 19  2  1  0
 29 24  1  0
  8  3  1  0
 18 13  1  0
  4 30  1  0
  5 31  1  0
  6 32  1  0
  7 33  1  0
 11 34  1  0
 12 35  1  0
 14 36  1  0
 15 37  1  0
 16 38  1  0
 17 39  1  0
 20 40  1  0
 20 41  1  0
 21 42  1  0
 21 43  1  0
 22 44  1  0
 22 45  1  0
 23 46  1  0
 26 47  1  0
 27 48  1  0
 28 49  1  0
M  END
>  <smiles>  (3) 
O=c1c2ccccc2nc(/C=C/c2ccccn2)n1CCCNc1ncccn1

>  <score_type>  (3) 
oracle

>  <origin>  (3) 
autodockgpu

>  <m_score__min__energy>  (3) 
-7.6900000000000004

>  <m_primary>  (3) 
energy

>  <meeko>  (3) 
{"free_energy": -7.48, "intermolecular_energy": -9.86, "internal_energy": -1.8, "cluster_size": 5, "cluster_id": 2, "rank_in_cluster": 4}

>  <energy>  (3) 
-7.53

>  <cluster_rmsd>  (3) 
0.4

>  <rmsd>  (3) 
269.24

>  <cluster>  (3) 
1

$$$$

     RDKit          3D

 49 52  0  0  0  0  0  0  0  0999 V2000
  138.3320   79.7180  223.6110 O   0  0  0  0  0  0  0  0  0  0  0  0
  139.3120   79.0170  223.2480 C   0  0  0  0  0  0  0  0  0  0  0  0
  140.5620   79.6070  223.3560 C   0  0  0  0  0  0  0  0  0  0  0  0
  140.7330   80.8910  223.8360 C   0  0  0  0  0  0  0  0  0  0  0  0
  142.0040   81.4230  223.9210 C   0  0  0  0  0  0  0  0  0  0  0  0
  143.0990   80.6780  223.5290 C   0  0  0  0  0  0  0  0  0  0  0  0
  142.9170   79.3880  223.0490 C   0  0  0  0  0  0  0  0  0  0  0  0
  141.6560   78.8850  222.9740 C   0  0  0  0  0  0  0  0  0  0  0  0
  141.4460   77.6360  222.5120 N   0  0  0  0  0  0  0  0  0  0  0  0
  140.2280   77.0700  222.4090 C   0  0  0  0  0  0  0  0  0  0  0  0
  140.1050   75.7090  221.8970 C   0  0  0  0  0  0  0  0  0  0  0  0
  141.0220   75.2370  221.0720 C   0  0  0  0  0  0  0  0  0  0  0  0
  141.5340   75.9680  219.9230 C   0  0  0  0  0  0  0  0  0  0  0  0
  142.8540   76.3370  219.7770 C   0  0  0  0  0  0  0  0  0  0  0  0
  143.3180   77.0300  218.6790 C   0  0  0  0  0  0  0  0  0  0  0  0
  142.4280   77.3810  217.6590 C   0  0  0  0  0  0  0  0  0  0  0  0
  141.1180   76.9950  217.8390 C   0  0  0  0  0  0  0  0  0  0  0  0
  140.6980   76.3190  218.9260 N   0  0  0  0  0  0  0  0  0  0  0  0
  139.1400   77.7680  222.7820 N   0  0  0  0  0  0  0  0  0  0  0  0
  137.8080   77.2430  222.7030 C   0  0  0  0  0  0  0  0  0  0  0  0
  137.4310   77.1410  221.2260 C   0  0  0  0  0  0  0  0  0  0  0  0
  137.6780   78.4970  220.6090 C   0  0  0  0  0  0  0  0  0  0  0  0
  138.8890   78.5370  219.8300 N   0  0  0  0  0  0  0  0  0  0  0  0
  139.8090   79.6270  219.9960 C   0  0  0  0  0  0  0  0  0  0  0  0
  141.1220   79.4970  219.7400 N   0  0  0  0  0  0  0  0  0  0  0  0
  141.9900   80.5280  219.8970 C   0  0  0  0  0  0  0  0  0  0  0  0
  141.4700   81.7270  220.3340 C   0  0  0  0  0  0  0  0  0  0  0  0
  140.1110   81.8880  220.6050 C   0  0  0  0  0  0  0  0  0  0  0  0
  139.3050   80.8080  220.4240 N   0  0  0  0  0  0  0  0  0  0  0  0
  139.8620   81.4857  224.1485 H   0  0  0  0  0  0  0  0  0  0  0  0
  142.1453   82.4449  224.3027 H   0  0  0  0  0  0  0  0  0  0  0  0
  144.1106   81.1048  223.5968 H   0  0  0  0  0  0  0  0  0  0  0  0
  143.7796   78.7823  222.7343 H   0  0  0  0  0  0  0  0  0  0  0  0
  139.2537   75.0800  222.1964 H   0  0  0  0  0  0  0  0  0  0  0  0
  141.4227   74.2309  221.2652 H   0  0  0  0  0  0  0  0  0  0  0  0
  143.5673   76.0673  220.5698 H   0  0  0  0  0  0  0  0  0  0  0  0
  144.3806   77.3048  218.6059 H   0  0  0  0  0  0  0  0  0  0  0  0
  142.7549   77.9329  216.7654 H   0  0  0  0  0  0  0  0  0  0  0  0
  140.3829   77.2498  217.0614 H   0  0  0  0  0  0  0  0  0  0  0  0
  137.7706   76.2468  223.1681 H   0  0  0  0  0  0  0  0  0  0  0  0
  137.1043   77.9011  223.2338 H   0  0  0  0  0  0  0  0  0  0  0  0
  138.0532   76.3818  220.7295 H   0  0  0  0  0  0  0  0  0  0  0  0
  136.3779   76.8448  221.1107 H   0  0  0  0  0  0  0  0  0  0  0  0
  136.8296   78.7466  219.9549 H   0  0  0  0  0  0  0  0  0  0  0  0
  137.7842   79.2226  221.4289 H   0  0  0  0  0  0  0  0  0  0  0  0
  139.1670   77.8190  219.1320 H   0  0  0  0  0  0  0  0  0  0  0  0
  143.0630   80.4117  219.6845 H   0  0  0  0  0  0  0  0  0  0  0  0
  142.1468   82.5829  220.4733 H   0  0  0  0  0  0  0  0  0  0  0  0
  139.7074   82.8508  220.9515 H   0  0  0  0  0  0  0  0  0  0  0  0
  1  2  2  0
  2  3  1  0
  3  4  2  0
  4  5  1  0
  5  6  2  0
  6  7  1  0
  7  8  2  0
  8  9  1  0
  9 10  2  0
 10 11  1  0
 11 12  2  0
 12 13  1  0
 13 14  2  0
 14 15  1  0
 15 16  2  0
 16 17  1  0
 17 18  2  0
 10 19  1  0
 19 20  1  0
 20 21  1  0
 21 22  1  0
 22 23  1  0
 23 24  1  0
 24 25  2  0
 25 26  1  0
 26 27  2  0
 27 28  1  0
 28 29  2  0
 19  2  1  0
 29 24  1  0
  8  3  1  0
 18 13  1  0
  4 30  1  0
  5 31  1  0
  6 32  1  0
  7 33  1  0
 11 34  1  0
 12 35  1  0
 14 36  1  0
 15 37  1  0
 16 38  1  0
 17 39  1  0
 20 40  1  0
 20 41  1  0
 21 42  1  0
 21 43  1  0
 22 44  1  0
 22 45  1  0
 23 46  1  0
 26 47  1  0
 27 48  1  0
 28 49  1  0
M  END
>  <smiles>  (4) 
O=c1c2ccccc2nc(/C=C/c2ccccn2)n1CCCNc1ncccn1

>  <score_type>  (4) 
oracle

>  <origin>  (4) 
autodockgpu

>  <m_score__min__energy>  (4) 
-7.6900000000000004

>  <m_primary>  (4) 
energy

>  <meeko>  (4) 
{"free_energy": -4.92, "intermolecular_energy": -7.31, "internal_energy": -3.84, "cluster_size": 3, "cluster_id": 6, "rank_in_cluster": 2}

>  <energy>  (4) 
-7.26

>  <cluster_rmsd>  (4) 
0.95

>  <rmsd>  (4) 
269.26

>  <cluster>  (4) 
1

$$$$

     RDKit          3D

 49 52  0  0  0  0  0  0  0  0999 V2000
  138.8290   68.0490  225.3670 O   0  0  0  0  0  0  0  0  0  0  0  0
  139.3410   69.1470  225.0270 C   0  0  0  0  0  0  0  0  0  0  0  0
  139.9020   69.9040  226.0450 C   0  0  0  0  0  0  0  0  0  0  0  0
  139.9040   69.4840  227.3620 C   0  0  0  0  0  0  0  0  0  0  0  0
  140.4790   70.2820  228.3300 C   0  0  0  0  0  0  0  0  0  0  0  0
  141.0490   71.4930  227.9880 C   0  0  0  0  0  0  0  0  0  0  0  0
  141.0420   71.9060  226.6620 C   0  0  0  0  0  0  0  0  0  0  0  0
  140.4710   71.1030  225.7250 C   0  0  0  0  0  0  0  0  0  0  0  0
  140.4480   71.4760  224.4290 N   0  0  0  0  0  0  0  0  0  0  0  0
  139.9010   70.7360  223.4460 C   0  0  0  0  0  0  0  0  0  0  0  0
  139.9280   71.2260  222.0720 C   0  0  0  0  0  0  0  0  0  0  0  0
  140.3500   72.4530  221.8260 C   0  0  0  0  0  0  0  0  0  0  0  0
  139.5260   73.6430  221.9800 C   0  0  0  0  0  0  0  0  0  0  0  0
  138.1470   73.6260  221.9570 C   0  0  0  0  0  0  0  0  0  0  0  0
  137.3850   74.7650  222.1040 C   0  0  0  0  0  0  0  0  0  0  0  0
  138.0190   75.9990  222.2880 C   0  0  0  0  0  0  0  0  0  0  0  0
  139.3960   75.9770  222.3060 C   0  0  0  0  0  0  0  0  0  0  0  0
  140.1100   74.8440  222.1570 N   0  0  0  0  0  0  0  0  0  0  0  0
  139.3370   69.5510  223.7450 N   0  0  0  0  0  0  0  0  0  0  0  0
  138.7310   68.7030  222.7610 C   0  0  0  0  0  0  0  0  0  0  0  0
  137.4350   69.3690  222.3000 C   0  0  0  0  0  0  0  0  0  0  0  0
  136.3130   68.7660  223.1090 C   0  0  0  0  0  0  0  0  0  0  0  0
  136.3160   69.2130  224.4790 N   0  0  0  0  0  0  0  0  0  0  0  0
  135.6340   70.4250  224.8350 C   0  0  0  0  0  0  0  0  0  0  0  0
  135.8970   71.5960  224.2300 N   0  0  0  0  0  0  0  0  0  0  0  0
  135.2520   72.7410  224.5690 C   0  0  0  0  0  0  0  0  0  0  0  0
  134.3050   72.6570  225.5670 C   0  0  0  0  0  0  0  0  0  0  0  0
  134.0140   71.4540  226.2100 C   0  0  0  0  0  0  0  0  0  0  0  0
  134.7030   70.3510  225.8150 N   0  0  0  0  0  0  0  0  0  0  0  0
  139.4504   68.5202  227.6366 H   0  0  0  0  0  0  0  0  0  0  0  0
  140.4835   69.9521  229.3794 H   0  0  0  0  0  0  0  0  0  0  0  0
  141.5061   72.1270  228.7620 H   0  0  0  0  0  0  0  0  0  0  0  0
  141.4915   72.8679  226.3742 H   0  0  0  0  0  0  0  0  0  0  0  0
  139.5990   70.5777  221.2465 H   0  0  0  0  0  0  0  0  0  0  0  0
  141.3873   72.5837  221.4839 H   0  0  0  0  0  0  0  0  0  0  0  0
  137.6340   72.6633  221.8154 H   0  0  0  0  0  0  0  0  0  0  0  0
  136.2870   74.7046  222.0769 H   0  0  0  0  0  0  0  0  0  0  0  0
  137.4504   76.9326  222.4111 H   0  0  0  0  0  0  0  0  0  0  0  0
  139.9359   76.9248  222.4481 H   0  0  0  0  0  0  0  0  0  0  0  0
  139.4114   68.5776  221.9058 H   0  0  0  0  0  0  0  0  0  0  0  0
  138.5211   67.7110  223.1874 H   0  0  0  0  0  0  0  0  0  0  0  0
  137.4854   70.4538  222.4751 H   0  0  0  0  0  0  0  0  0  0  0  0
  137.2728   69.2063  221.2243 H   0  0  0  0  0  0  0  0  0  0  0  0
  135.3550   69.0485  222.6482 H   0  0  0  0  0  0  0  0  0  0  0  0
  136.4544   67.6751  223.1139 H   0  0  0  0  0  0  0  0  0  0  0  0
  136.7860   68.7170  225.2620 H   0  0  0  0  0  0  0  0  0  0  0  0
  135.4754   73.6949  224.0689 H   0  0  0  0  0  0  0  0  0  0  0  0
  133.7624   73.5661  225.8653 H   0  0  0  0  0  0  0  0  0  0  0  0
  133.2565   71.4000  227.0058 H   0  0  0  0  0  0  0  0  0  0  0  0
  1  2  2  0
  2  3  1  0
  3  4  2  0
  4  5  1  0
  5  6  2  0
  6  7  1  0
  7  8  2  0
  8  9  1  0
  9 10  2  0
 10 11  1  0
 11 12  2  0
 12 13  1  0
 13 14  2  0
 14 15  1  0
 15 16  2  0
 16 17  1  0
 17 18  2  0
 10 19  1  0
 19 20  1  0
 20 21  1  0
 21 22  1  0
 22 23  1  0
 23 24  1  0
 24 25  2  0
 25 26  1  0
 26 27  2  0
 27 28  1  0
 28 29  2  0
 19  2  1  0
 29 24  1  0
  8  3  1  0
 18 13  1  0
  4 30  1  0
  5 31  1  0
  6 32  1  0
  7 33  1  0
 11 34  1  0
 12 35  1  0
 14 36  1  0
 15 37  1  0
 16 38  1  0
 17 39  1  0
 20 40  1  0
 20 41  1  0
 21 42  1  0
 21 43  1  0
 22 44  1  0
 22 45  1  0
 23 46  1  0
 26 47  1  0
 27 48  1  0
 28 49  1  0
M  END
>  <smiles>  (5) 
O=c1c2ccccc2nc(/C=C/c2ccccn2)n1CCCNc1ncccn1

>  <score_type>  (5) 
oracle

>  <origin>  (5) 
autodockgpu

>  <m_score__min__energy>  (5) 
-7.6900000000000004

>  <m_primary>  (5) 
energy

>  <meeko>  (5) 
{"free_energy": -6.88, "intermolecular_energy": -9.27, "internal_energy": -2.41, "cluster_size": 3, "cluster_id": 4, "rank_in_cluster": 2}

>  <energy>  (5) 
-7.17

>  <cluster_rmsd>  (5) 
0.71

>  <rmsd>  (5) 
269.2

>  <cluster>  (5) 
1

$$$$

     RDKit          3D

 49 52  0  0  0  0  0  0  0  0999 V2000
  140.1500   71.8090  224.8650 O   0  0  0  0  0  0  0  0  0  0  0  0
  139.7090   70.6300  224.8830 C   0  0  0  0  0  0  0  0  0  0  0  0
  140.0150   69.8770  226.0060 C   0  0  0  0  0  0  0  0  0  0  0  0
  140.7620   70.3840  227.0530 C   0  0  0  0  0  0  0  0  0  0  0  0
  141.0330   69.5840  228.1450 C   0  0  0  0  0  0  0  0  0  0  0  0
  140.5630   68.2860  228.1930 C   0  0  0  0  0  0  0  0  0  0  0  0
  139.8130   67.7870  227.1370 C   0  0  0  0  0  0  0  0  0  0  0  0
  139.5580   68.5920  226.0710 C   0  0  0  0  0  0  0  0  0  0  0  0
  138.8330   68.1370  225.0290 N   0  0  0  0  0  0  0  0  0  0  0  0
  138.5400   68.8740  223.9410 C   0  0  0  0  0  0  0  0  0  0  0  0
  137.7460   68.2910  222.8650 C   0  0  0  0  0  0  0  0  0  0  0  0
  136.4620   68.5880  222.7680 C   0  0  0  0  0  0  0  0  0  0  0  0
  135.6150   68.9160  223.9050 C   0  0  0  0  0  0  0  0  0  0  0  0
  135.7090   70.0950  224.6130 C   0  0  0  0  0  0  0  0  0  0  0  0
  134.8950   70.3850  225.6880 C   0  0  0  0  0  0  0  0  0  0  0  0
  133.9280   69.4580  226.0910 C   0  0  0  0  0  0  0  0  0  0  0  0
  133.8640   68.2920  225.3590 C   0  0  0  0  0  0  0  0  0  0  0  0
  134.6760   68.0410  224.3140 N   0  0  0  0  0  0  0  0  0  0  0  0
  138.9830   70.1430  223.8620 N   0  0  0  0  0  0  0  0  0  0  0  0
  138.7180   70.9950  222.7400 C   0  0  0  0  0  0  0  0  0  0  0  0
  139.7910   70.7280  221.6850 C   0  0  0  0  0  0  0  0  0  0  0  0
  140.7700   71.8750  221.7460 C   0  0  0  0  0  0  0  0  0  0  0  0
  140.2100   73.0470  222.3690 N   0  0  0  0  0  0  0  0  0  0  0  0
  140.5340   74.3510  221.8590 C   0  0  0  0  0  0  0  0  0  0  0  0
  141.5050   74.5390  220.9490 N   0  0  0  0  0  0  0  0  0  0  0  0
  141.8100   75.7710  220.4690 C   0  0  0  0  0  0  0  0  0  0  0  0
  141.0790   76.8340  220.9540 C   0  0  0  0  0  0  0  0  0  0  0  0
  140.0660   76.6640  221.8980 C   0  0  0  0  0  0  0  0  0  0  0  0
  139.8200   75.3990  222.3310 N   0  0  0  0  0  0  0  0  0  0  0  0
  141.1376   71.4172  227.0162 H   0  0  0  0  0  0  0  0  0  0  0  0
  141.6263   69.9823  228.9813 H   0  0  0  0  0  0  0  0  0  0  0  0
  140.7820   67.6508  229.0639 H   0  0  0  0  0  0  0  0  0  0  0  0
  139.4306   66.7559  227.1620 H   0  0  0  0  0  0  0  0  0  0  0  0
  138.2129   67.6088  222.1393 H   0  0  0  0  0  0  0  0  0  0  0  0
  136.0057   68.5872  221.7671 H   0  0  0  0  0  0  0  0  0  0  0  0
  136.4640   70.8347  224.3082 H   0  0  0  0  0  0  0  0  0  0  0  0
  135.0055   71.3388  226.2248 H   0  0  0  0  0  0  0  0  0  0  0  0
  133.2579   69.6485  226.9423 H   0  0  0  0  0  0  0  0  0  0  0  0
  133.1180   67.5341  225.6401 H   0  0  0  0  0  0  0  0  0  0  0  0
  137.7235   70.7708  222.3269 H   0  0  0  0  0  0  0  0  0  0  0  0
  138.7366   72.0510  223.0474 H   0  0  0  0  0  0  0  0  0  0  0  0
  140.3060   69.7806  221.9023 H   0  0  0  0  0  0  0  0  0  0  0  0
  139.3434   70.6487  220.6833 H   0  0  0  0  0  0  0  0  0  0  0  0
  141.6511   71.5563  222.3223 H   0  0  0  0  0  0  0  0  0  0  0  0
  141.0368   72.1415  220.7126 H   0  0  0  0  0  0  0  0  0  0  0  0
  139.5660   73.0340  223.1840 H   0  0  0  0  0  0  0  0  0  0  0  0
  142.6068   75.9152  219.7245 H   0  0  0  0  0  0  0  0  0  0  0  0
  141.3009   77.8465  220.5858 H   0  0  0  0  0  0  0  0  0  0  0  0
  139.4888   77.5202  222.2772 H   0  0  0  0  0  0  0  0  0  0  0  0
  1  2  2  0
  2  3  1  0
  3  4  2  0
  4  5  1  0
  5  6  2  0
  6  7  1  0
  7  8  2  0
  8  9  1  0
  9 10  2  0
 10 11  1  0
 11 12  2  0
 12 13  1  0
 13 14  2  0
 14 15  1  0
 15 16  2  0
 16 17  1  0
 17 18  2  0
 10 19  1  0
 19 20  1  0
 20 21  1  0
 21 22  1  0
 22 23  1  0
 23 24  1  0
 24 25  2  0
 25 26  1  0
 26 27  2  0
 27 28  1  0
 28 29  2  0
 19  2  1  0
 29 24  1  0
  8  3  1  0
 18 13  1  0
  4 30  1  0
  5 31  1  0
  6 32  1  0
  7 33  1  0
 11 34  1  0
 12 35  1  0
 14 36  1  0
 15 37  1  0
 16 38  1  0
 17 39  1  0
 20 40  1  0
 20 41  1  0
 21 42  1  0
 21 43  1  0
 22 44  1  0
 22 45  1  0
 23 46  1  0
 26 47  1  0
 27 48  1  0
 28 49  1  0
M  END
>  <smiles>  (6) 
O=c1c2ccccc2nc(/C=C/c2ccccn2)n1CCCNc1ncccn1

>  <score_type>  (6) 
oracle

>  <origin>  (6) 
autodockgpu

>  <m_score__min__energy>  (6) 
-7.6900000000000004

>  <m_primary>  (6) 
energy

>  <meeko>  (6) 
{"free_energy": -7.66, "intermolecular_energy": -10.05, "internal_energy": -1.87, "cluster_size": 6, "cluster_id": 1, "rank_in_cluster": 2}

>  <energy>  (6) 
-7.12

>  <cluster_rmsd>  (6) 
1.01

>  <rmsd>  (6) 
269.19

>  <cluster>  (6) 
1

$$$$

     RDKit          3D

 49 52  0  0  0  0  0  0  0  0999 V2000
  141.5730   75.8620  220.1630 O   0  0  0  0  0  0  0  0  0  0  0  0
  141.6120   74.6940  220.6320 C   0  0  0  0  0  0  0  0  0  0  0  0
  142.8170   74.0200  220.4990 C   0  0  0  0  0  0  0  0  0  0  0  0
  143.9180   74.5900  219.8890 C   0  0  0  0  0  0  0  0  0  0  0  0
  145.0900   73.8680  219.7880 C   0  0  0  0  0  0  0  0  0  0  0  0
  145.1650   72.5850  220.2930 C   0  0  0  0  0  0  0  0  0  0  0  0
  144.0530   72.0210  220.9040 C   0  0  0  0  0  0  0  0  0  0  0  0
  142.9090   72.7510  220.9930 C   0  0  0  0  0  0  0  0  0  0  0  0
  141.8120   72.2320  221.5810 N   0  0  0  0  0  0  0  0  0  0  0  0
  140.6450   72.8920  221.7060 C   0  0  0  0  0  0  0  0  0  0  0  0
  139.5140   72.2440  222.3610 C   0  0  0  0  0  0  0  0  0  0  0  0
  139.6940   71.0920  222.9830 C   0  0  0  0  0  0  0  0  0  0  0  0
  140.0010   70.9730  224.4000 C   0  0  0  0  0  0  0  0  0  0  0  0
  139.5230   69.9590  225.2040 C   0  0  0  0  0  0  0  0  0  0  0  0
  139.8260   69.8660  226.5460 C   0  0  0  0  0  0  0  0  0  0  0  0
  140.6530   70.8300  227.1340 C   0  0  0  0  0  0  0  0  0  0  0  0
  141.1110   71.8270  226.3010 C   0  0  0  0  0  0  0  0  0  0  0  0
  140.7930   71.8870  224.9930 N   0  0  0  0  0  0  0  0  0  0  0  0
  140.5380   74.1450  221.2250 N   0  0  0  0  0  0  0  0  0  0  0  0
  139.3340   74.9170  221.3140 C   0  0  0  0  0  0  0  0  0  0  0  0
  139.4350   75.8010  222.5560 C   0  0  0  0  0  0  0  0  0  0  0  0
  139.7140   77.2060  222.0800 C   0  0  0  0  0  0  0  0  0  0  0  0
  141.0960   77.5800  222.2420 N   0  0  0  0  0  0  0  0  0  0  0  0
  141.4290   78.8620  222.7950 C   0  0  0  0  0  0  0  0  0  0  0  0
  140.4970   79.6750  223.3230 N   0  0  0  0  0  0  0  0  0  0  0  0
  140.8140   80.8860  223.8460 C   0  0  0  0  0  0  0  0  0  0  0  0
  142.1410   81.2570  223.8160 C   0  0  0  0  0  0  0  0  0  0  0  0
  143.1260   80.4320  223.2750 C   0  0  0  0  0  0  0  0  0  0  0  0
  142.7300   79.2330  222.7700 N   0  0  0  0  0  0  0  0  0  0  0  0
  143.8609   75.6122  219.4867 H   0  0  0  0  0  0  0  0  0  0  0  0
  145.9690   74.3171  219.3026 H   0  0  0  0  0  0  0  0  0  0  0  0
  146.1009   72.0127  220.2117 H   0  0  0  0  0  0  0  0  0  0  0  0
  144.0967   70.9995  221.3098 H   0  0  0  0  0  0  0  0  0  0  0  0
  138.5183   72.7110  222.3373 H   0  0  0  0  0  0  0  0  0  0  0  0
  139.6064   70.1673  222.3937 H   0  0  0  0  0  0  0  0  0  0  0  0
  138.8732   69.1929  224.7559 H   0  0  0  0  0  0  0  0  0  0  0  0
  139.4209   69.0406  227.1498 H   0  0  0  0  0  0  0  0  0  0  0  0
  140.9218   70.7936  228.2000 H   0  0  0  0  0  0  0  0  0  0  0  0
  141.7635   72.6066  226.7211 H   0  0  0  0  0  0  0  0  0  0  0  0
  139.2246   75.5439  220.4167 H   0  0  0  0  0  0  0  0  0  0  0  0
  138.4582   74.2551  221.3844 H   0  0  0  0  0  0  0  0  0  0  0  0
  138.4889   75.7735  223.1165 H   0  0  0  0  0  0  0  0  0  0  0  0
  140.2348   75.4480  223.2235 H   0  0  0  0  0  0  0  0  0  0  0  0
  139.4525   77.2755  221.0138 H   0  0  0  0  0  0  0  0  0  0  0  0
  139.1087   77.8919  222.6908 H   0  0  0  0  0  0  0  0  0  0  0  0
  141.9050   76.9800  221.9840 H   0  0  0  0  0  0  0  0  0  0  0  0
  140.0444   81.5440  224.2758 H   0  0  0  0  0  0  0  0  0  0  0  0
  142.4316   82.2332  224.2313 H   0  0  0  0  0  0  0  0  0  0  0  0
  144.1822   80.7389  223.2573 H   0  0  0  0  0  0  0  0  0  0  0  0
  1  2  2  0
  2  3  1  0
  3  4  2  0
  4  5  1  0
  5  6  2  0
  6  7  1  0
  7  8  2  0
  8  9  1  0
  9 10  2  0
 10 11  1  0
 11 12  2  0
 12 13  1  0
 13 14  2  0
 14 15  1  0
 15 16  2  0
 16 17  1  0
 17 18  2  0
 10 19  1  0
 19 20  1  0
 20 21  1  0
 21 22  1  0
 22 23  1  0
 23 24  1  0
 24 25  2  0
 25 26  1  0
 26 27  2  0
 27 28  1  0
 28 29  2  0
 19  2  1  0
 29 24  1  0
  8  3  1  0
 18 13  1  0
  4 30  1  0
  5 31  1  0
  6 32  1  0
  7 33  1  0
 11 34  1  0
 12 35  1  0
 14 36  1  0
 15 37  1  0
 16 38  1  0
 17 39  1  0
 20 40  1  0
 20 41  1  0
 21 42  1  0
 21 43  1  0
 22 44  1  0
 22 45  1  0
 23 46  1  0
 26 47  1  0
 27 48  1  0
 28 49  1  0
M  END
>  <smiles>  (7) 
O=c1c2ccccc2nc(/C=C/c2ccccn2)n1CCCNc1ncccn1

>  <score_type>  (7) 
oracle

>  <origin>  (7) 
autodockgpu

>  <m_score__min__energy>  (7) 
-7.6900000000000004

>  <m_primary>  (7) 
energy

>  <meeko>  (7) 
{"free_energy": -7.64, "intermolecular_energy": -10.02, "internal_energy": -1.67, "cluster_size": 5, "cluster_id": 2, "rank_in_cluster": 1}

>  <energy>  (7) 
-7.64

>  <cluster_rmsd>  (7) 
0.0

>  <rmsd>  (7) 
270.37

>  <cluster>  (7) 
2

$$$$

     RDKit          3D

 49 52  0  0  0  0  0  0  0  0999 V2000
  138.4520   80.5150  223.5720 O   0  0  0  0  0  0  0  0  0  0  0  0
  139.3030   79.6400  223.2670 C   0  0  0  0  0  0  0  0  0  0  0  0
  140.6340   80.0060  223.4010 C   0  0  0  0  0  0  0  0  0  0  0  0
  141.0140   81.2590  223.8430 C   0  0  0  0  0  0  0  0  0  0  0  0
  142.3560   81.5630  223.9560 C   0  0  0  0  0  0  0  0  0  0  0  0
  143.3140   80.6240  223.6280 C   0  0  0  0  0  0  0  0  0  0  0  0
  142.9220   79.3680  223.1850 C   0  0  0  0  0  0  0  0  0  0  0  0
  141.5950   79.0890  223.0820 C   0  0  0  0  0  0  0  0  0  0  0  0
  141.1820   77.8790  222.6550 N   0  0  0  0  0  0  0  0  0  0  0  0
  139.8880   77.5310  222.5270 C   0  0  0  0  0  0  0  0  0  0  0  0
  139.5420   76.1940  222.0570 C   0  0  0  0  0  0  0  0  0  0  0  0
  140.4870   75.4100  221.5670 C   0  0  0  0  0  0  0  0  0  0  0  0
  141.4760   75.8430  220.5920 C   0  0  0  0  0  0  0  0  0  0  0  0
  142.7150   75.2560  220.4490 C   0  0  0  0  0  0  0  0  0  0  0  0
  143.6390   75.6830  219.5180 C   0  0  0  0  0  0  0  0  0  0  0  0
  143.3220   76.7520  218.6730 C   0  0  0  0  0  0  0  0  0  0  0  0
  142.0760   77.3130  218.8450 C   0  0  0  0  0  0  0  0  0  0  0  0
  141.1980   76.8710  219.7670 N   0  0  0  0  0  0  0  0  0  0  0  0
  138.9280   78.4220  222.8370 N   0  0  0  0  0  0  0  0  0  0  0  0
  137.5280   78.1350  222.7290 C   0  0  0  0  0  0  0  0  0  0  0  0
  136.9420   79.0560  221.6600 C   0  0  0  0  0  0  0  0  0  0  0  0
  137.2420   78.4300  220.3190 C   0  0  0  0  0  0  0  0  0  0  0  0
  138.6330   78.5350  219.9600 N   0  0  0  0  0  0  0  0  0  0  0  0
  139.3000   79.8040  220.0490 C   0  0  0  0  0  0  0  0  0  0  0  0
  138.6220   80.9630  220.1060 N   0  0  0  0  0  0  0  0  0  0  0  0
  139.2530   82.1610  220.1900 C   0  0  0  0  0  0  0  0  0  0  0  0
  140.6310   82.1460  220.2150 C   0  0  0  0  0  0  0  0  0  0  0  0
  141.3570   80.9570  220.1580 C   0  0  0  0  0  0  0  0  0  0  0  0
  140.6530   79.7970  220.0740 N   0  0  0  0  0  0  0  0  0  0  0  0
  140.2525   82.0090  224.1030 H   0  0  0  0  0  0  0  0  0  0  0  0
  142.6637   82.5583  224.3091 H   0  0  0  0  0  0  0  0  0  0  0  0
  144.3824   80.8700  223.7173 H   0  0  0  0  0  0  0  0  0  0  0  0
  143.6738   78.6096  222.9212 H   0  0  0  0  0  0  0  0  0  0  0  0
  138.5017   75.8405  222.1100 H   0  0  0  0  0  0  0  0  0  0  0  0
  140.5279   74.3681  221.9174 H   0  0  0  0  0  0  0  0  0  0  0  0
  142.9777   74.4124  221.1042 H   0  0  0  0  0  0  0  0  0  0  0  0
  144.6177   75.1868  219.4406 H   0  0  0  0  0  0  0  0  0  0  0  0
  144.0273   77.1231  217.9149 H   0  0  0  0  0  0  0  0  0  0  0  0
  141.7852   78.1574  218.2028 H   0  0  0  0  0  0  0  0  0  0  0  0
  137.3831   77.0842  222.4376 H   0  0  0  0  0  0  0  0  0  0  0  0
  137.0270   78.3002  223.6942 H   0  0  0  0  0  0  0  0  0  0  0  0
  135.8547   79.1494  221.7977 H   0  0  0  0  0  0  0  0  0  0  0  0
  137.3805   80.0625  221.7283 H   0  0  0  0  0  0  0  0  0  0  0  0
  136.9669   77.3656  220.3571 H   0  0  0  0  0  0  0  0  0  0  0  0
  136.6590   78.9715  219.5595 H   0  0  0  0  0  0  0  0  0  0  0  0
  139.2210   77.7440  219.6310 H   0  0  0  0  0  0  0  0  0  0  0  0
  138.6889   83.1042  220.2362 H   0  0  0  0  0  0  0  0  0  0  0  0
  141.1740   83.1003  220.2819 H   0  0  0  0  0  0  0  0  0  0  0  0
  142.4568   80.9575  220.1801 H   0  0  0  0  0  0  0  0  0  0  0  0
  1  2  2  0
  2  3  1  0
  3  4  2  0
  4  5  1  0
  5  6  2  0
  6  7  1  0
  7  8  2  0
  8  9  1  0
  9 10  2  0
 10 11  1  0
 11 12  2  0
 12 13  1  0
 13 14  2  0
 14 15  1  0
 15 16  2  0
 16 17  1  0
 17 18  2  0
 10 19  1  0
 19 20  1  0
 20 21  1  0
 21 22  1  0
 22 23  1  0
 23 24  1  0
 24 25  2  0
 25 26  1  0
 26 27  2  0
 27 28  1  0
 28 29  2  0
 19  2  1  0
 29 24  1  0
  8  3  1  0
 18 13  1  0
  4 30  1  0
  5 31  1  0
  6 32  1  0
  7 33  1  0
 11 34  1  0
 12 35  1  0
 14 36  1  0
 15 37  1  0
 16 38  1  0
 17 39  1  0
 20 40  1  0
 20 41  1  0
 21 42  1  0
 21 43  1  0
 22 44  1  0
 22 45  1  0
 23 46  1  0
 26 47  1  0
 27 48  1  0
 28 49  1  0
M  END
>  <smiles>  (8) 
O=c1c2ccccc2nc(/C=C/c2ccccn2)n1CCCNc1ncccn1

>  <score_type>  (8) 
oracle

>  <origin>  (8) 
autodockgpu

>  <m_score__min__energy>  (8) 
-7.6900000000000004

>  <m_primary>  (8) 
energy

>  <meeko>  (8) 
{"free_energy": -4.98, "intermolecular_energy": -7.37, "internal_energy": -3.41, "cluster_size": 3, "cluster_id": 6, "rank_in_cluster": 1}

>  <energy>  (8) 
-7.53

>  <cluster_rmsd>  (8) 
0.35

>  <rmsd>  (8) 
270.26

>  <cluster>  (8) 
2

$$$$

     RDKit          3D

 49 52  0  0  0  0  0  0  0  0999 V2000
  140.0910   71.8220  224.9950 O   0  0  0  0  0  0  0  0  0  0  0  0
  139.6690   70.6360  225.0160 C   0  0  0  0  0  0  0  0  0  0  0  0
  140.0250   69.8770  226.1210 C   0  0  0  0  0  0  0  0  0  0  0  0
  140.8000   70.3850  227.1460 C   0  0  0  0  0  0  0  0  0  0  0  0
  141.1200   69.5790  228.2200 C   0  0  0  0  0  0  0  0  0  0  0  0
  140.6720   68.2740  228.2720 C   0  0  0  0  0  0  0  0  0  0  0  0
  139.8940   67.7730  227.2360 C   0  0  0  0  0  0  0  0  0  0  0  0
  139.5900   68.5850  226.1880 C   0  0  0  0  0  0  0  0  0  0  0  0
  138.8370   68.1280  225.1670 N   0  0  0  0  0  0  0  0  0  0  0  0
  138.4950   68.8710  224.0970 C   0  0  0  0  0  0  0  0  0  0  0  0
  137.6730   68.2860  223.0440 C   0  0  0  0  0  0  0  0  0  0  0  0
  136.4260   68.6910  222.8890 C   0  0  0  0  0  0  0  0  0  0  0  0
  135.5460   69.0550  223.9900 C   0  0  0  0  0  0  0  0  0  0  0  0
  135.5170   70.3080  224.5630 C   0  0  0  0  0  0  0  0  0  0  0  0
  134.6760   70.6310  225.6070 C   0  0  0  0  0  0  0  0  0  0  0  0
  133.8070   69.6600  226.1170 C   0  0  0  0  0  0  0  0  0  0  0  0
  133.8630   68.4210  225.5180 C   0  0  0  0  0  0  0  0  0  0  0  0
  134.7000   68.1400  224.5000 N   0  0  0  0  0  0  0  0  0  0  0  0
  138.9150   70.1470  224.0160 N   0  0  0  0  0  0  0  0  0  0  0  0
  138.5990   71.0060  222.9120 C   0  0  0  0  0  0  0  0  0  0  0  0
  139.5940   70.7120  221.7900 C   0  0  0  0  0  0  0  0  0  0  0  0
  140.6240   71.8150  221.8080 C   0  0  0  0  0  0  0  0  0  0  0  0
  140.1430   73.0090  222.4560 N   0  0  0  0  0  0  0  0  0  0  0  0
  140.4890   74.2980  221.9250 C   0  0  0  0  0  0  0  0  0  0  0  0
  141.5010   74.4630  221.0550 N   0  0  0  0  0  0  0  0  0  0  0  0
  141.8260   75.6820  220.5550 C   0  0  0  0  0  0  0  0  0  0  0  0
  141.0710   76.7560  220.9760 C   0  0  0  0  0  0  0  0  0  0  0  0
  140.0160   76.6110  221.8760 C   0  0  0  0  0  0  0  0  0  0  0  0
  139.7530   75.3580  222.3330 N   0  0  0  0  0  0  0  0  0  0  0  0
  141.1593   71.4239  227.1064 H   0  0  0  0  0  0  0  0  0  0  0  0
  141.7356   69.9788  229.0393 H   0  0  0  0  0  0  0  0  0  0  0  0
  140.9298   67.6346  229.1291 H   0  0  0  0  0  0  0  0  0  0  0  0
  139.5294   66.7355  227.2627 H   0  0  0  0  0  0  0  0  0  0  0  0
  138.0895   67.5119  222.3828 H   0  0  0  0  0  0  0  0  0  0  0  0
  136.0278   68.7574  221.8658 H   0  0  0  0  0  0  0  0  0  0  0  0
  136.1927   71.0826  224.1713 H   0  0  0  0  0  0  0  0  0  0  0  0
  134.6881   71.6440  226.0355 H   0  0  0  0  0  0  0  0  0  0  0  0
  133.1190   69.8739  226.9482 H   0  0  0  0  0  0  0  0  0  0  0  0
  133.1963   67.6273  225.8862 H   0  0  0  0  0  0  0  0  0  0  0  0
  137.5743   70.8072  222.5648 H   0  0  0  0  0  0  0  0  0  0  0  0
  138.6642   72.0612  223.2159 H   0  0  0  0  0  0  0  0  0  0  0  0
  140.0794   69.7399  221.9616 H   0  0  0  0  0  0  0  0  0  0  0  0
  139.0839   70.6693  220.8164 H   0  0  0  0  0  0  0  0  0  0  0  0
  141.5149   71.4569  222.3447 H   0  0  0  0  0  0  0  0  0  0  0  0
  140.8566   72.0720  220.7640 H   0  0  0  0  0  0  0  0  0  0  0  0
  139.5450   73.0210  223.3050 H   0  0  0  0  0  0  0  0  0  0  0  0
  142.6562   75.8078  219.8443 H   0  0  0  0  0  0  0  0  0  0  0  0
  141.3083   77.7583  220.5899 H   0  0  0  0  0  0  0  0  0  0  0  0
  139.4203   77.4759  222.2032 H   0  0  0  0  0  0  0  0  0  0  0  0
  1  2  2  0
  2  3  1  0
  3  4  2  0
  4  5  1  0
  5  6  2  0
  6  7  1  0
  7  8  2  0
  8  9  1  0
  9 10  2  0
 10 11  1  0
 11 12  2  0
 12 13  1  0
 13 14  2  0
 14 15  1  0
 15 16  2  0
 16 17  1  0
 17 18  2  0
 10 19  1  0
 19 20  1  0
 20 21  1  0
 21 22  1  0
 22 23  1  0
 23 24  1  0
 24 25  2  0
 25 26  1  0
 26 27  2  0
 27 28  1  0
 28 29  2  0
 19  2  1  0
 29 24  1  0
  8  3  1  0
 18 13  1  0
  4 30  1  0
  5 31  1  0
  6 32  1  0
  7 33  1  0
 11 34  1  0
 12 35  1  0
 14 36  1  0
 15 37  1  0
 16 38  1  0
 17 39  1  0
 20 40  1  0
 20 41  1  0
 21 42  1  0
 21 43  1  0
 22 44  1  0
 22 45  1  0
 23 46  1  0
 26 47  1  0
 27 48  1  0
 28 49  1  0
M  END
>  <smiles>  (9) 
O=c1c2ccccc2nc(/C=C/c2ccccn2)n1CCCNc1ncccn1

>  <score_type>  (9) 
oracle

>  <origin>  (9) 
autodockgpu

>  <m_score__min__energy>  (9) 
-7.6900000000000004

>  <m_primary>  (9) 
energy

>  <meeko>  (9) 
{"free_energy": -7.69, "intermolecular_energy": -10.08, "internal_energy": -1.85, "cluster_size": 6, "cluster_id": 1, "rank_in_cluster": 1}

>  <energy>  (9) 
-7.53

>  <cluster_rmsd>  (9) 
0.31

>  <rmsd>  (9) 
270.25

>  <cluster>  (9) 
2

$$$$

     RDKit          3D

 49 52  0  0  0  0  0  0  0  0999 V2000
  140.5110   72.2240  224.0700 O   0  0  0  0  0  0  0  0  0  0  0  0
  139.9350   71.1610  224.4180 C   0  0  0  0  0  0  0  0  0  0  0  0
  140.1100   70.7720  225.7380 C   0  0  0  0  0  0  0  0  0  0  0  0
  140.8710   71.5040  226.6290 C   0  0  0  0  0  0  0  0  0  0  0  0
  141.0060   71.0650  227.9300 C   0  0  0  0  0  0  0  0  0  0  0  0
  140.3860   69.9020  228.3420 C   0  0  0  0  0  0  0  0  0  0  0  0
  139.6240   69.1730  227.4400 C   0  0  0  0  0  0  0  0  0  0  0  0
  139.5030   69.6240  226.1630 C   0  0  0  0  0  0  0  0  0  0  0  0
  138.7700   68.9400  225.2620 N   0  0  0  0  0  0  0  0  0  0  0  0
  138.6050   69.3230  223.9820 C   0  0  0  0  0  0  0  0  0  0  0  0
  137.7890   68.5130  223.0840 C   0  0  0  0  0  0  0  0  0  0  0  0
  136.5120   68.8100  222.9180 C   0  0  0  0  0  0  0  0  0  0  0  0
  135.6020   69.1250  224.0090 C   0  0  0  0  0  0  0  0  0  0  0  0
  135.5570   70.3510  224.6370 C   0  0  0  0  0  0  0  0  0  0  0  0
  134.6870   70.6280  225.6700 C   0  0  0  0  0  0  0  0  0  0  0  0
  133.8030   69.6370  226.1110 C   0  0  0  0  0  0  0  0  0  0  0  0
  133.8770   68.4260  225.4590 C   0  0  0  0  0  0  0  0  0  0  0  0
  134.7410   68.1890  224.4540 N   0  0  0  0  0  0  0  0  0  0  0  0
  139.1950   70.4520  223.5480 N   0  0  0  0  0  0  0  0  0  0  0  0
  139.0740   70.9310  222.2020 C   0  0  0  0  0  0  0  0  0  0  0  0
  137.9250   71.9370  222.1650 C   0  0  0  0  0  0  0  0  0  0  0  0
  138.4440   73.1800  221.4830 C   0  0  0  0  0  0  0  0  0  0  0  0
  139.5390   73.7850  222.1970 N   0  0  0  0  0  0  0  0  0  0  0  0
  140.7150   74.1980  221.4830 C   0  0  0  0  0  0  0  0  0  0  0  0
  141.7010   73.3370  221.1740 N   0  0  0  0  0  0  0  0  0  0  0  0
  142.8110   73.7280  220.5010 C   0  0  0  0  0  0  0  0  0  0  0  0
  142.8920   75.0560  220.1400 C   0  0  0  0  0  0  0  0  0  0  0  0
  141.8830   75.9680  220.4470 C   0  0  0  0  0  0  0  0  0  0  0  0
  140.8020   75.4990  221.1250 N   0  0  0  0  0  0  0  0  0  0  0  0
  141.3660   72.4307  226.3033 H   0  0  0  0  0  0  0  0  0  0  0  0
  141.6108   71.6446  228.6429 H   0  0  0  0  0  0  0  0  0  0  0  0
  140.4956   69.5551  229.3801 H   0  0  0  0  0  0  0  0  0  0  0  0
  139.1252   68.2440  227.7535 H   0  0  0  0  0  0  0  0  0  0  0  0
  138.2336   67.6610  222.5488 H   0  0  0  0  0  0  0  0  0  0  0  0
  136.1128   68.8197  221.8930 H   0  0  0  0  0  0  0  0  0  0  0  0
  136.2438   71.1414  224.3000 H   0  0  0  0  0  0  0  0  0  0  0  0
  134.6878   71.6206  226.1440 H   0  0  0  0  0  0  0  0  0  0  0  0
  133.0908   69.8147  226.9303 H   0  0  0  0  0  0  0  0  0  0  0  0
  133.2008   67.6173  225.7731 H   0  0  0  0  0  0  0  0  0  0  0  0
  140.0097   71.4203  221.8936 H   0  0  0  0  0  0  0  0  0  0  0  0
  138.8756   70.0961  221.5138 H   0  0  0  0  0  0  0  0  0  0  0  0
  137.0782   71.5218  221.5988 H   0  0  0  0  0  0  0  0  0  0  0  0
  137.5731   72.1665  223.1816 H   0  0  0  0  0  0  0  0  0  0  0  0
  138.7872   72.9110  220.4731 H   0  0  0  0  0  0  0  0  0  0  0  0
  137.6224   73.9107  221.4499 H   0  0  0  0  0  0  0  0  0  0  0  0
  139.5540   73.9570  223.2210 H   0  0  0  0  0  0  0  0  0  0  0  0
  143.6125   73.0163  220.2537 H   0  0  0  0  0  0  0  0  0  0  0  0
  143.7796   75.4068  219.5931 H   0  0  0  0  0  0  0  0  0  0  0  0
  141.9586   77.0251  220.1523 H   0  0  0  0  0  0  0  0  0  0  0  0
  1  2  2  0
  2  3  1  0
  3  4  2  0
  4  5  1  0
  5  6  2  0
  6  7  1  0
  7  8  2  0
  8  9  1  0
  9 10  2  0
 10 11  1  0
 11 12  2  0
 12 13  1  0
 13 14  2  0
 14 15  1  0
 15 16  2  0
 16 17  1  0
 17 18  2  0
 10 19  1  0
 19 20  1  0
 20 21  1  0
 21 22  1  0
 22 23  1  0
 23 24  1  0
 24 25  2  0
 25 26  1  0
 26 27  2  0
 27 28  1  0
 28 29  2  0
 19  2  1  0
 29 24  1  0
  8  3  1  0
 18 13  1  0
  4 30  1  0
  5 31  1  0
  6 32  1  0
  7 33  1  0
 11 34  1  0
 12 35  1  0
 14 36  1  0
 15 37  1  0
 16 38  1  0
 17 39  1  0
 20 40  1  0
 20 41  1  0
 21 42  1  0
 21 43  1  0
 22 44  1  0
 22 45  1  0
 23 46  1  0
 26 47  1  0
 27 48  1  0
 28 49  1  0
M  END
>  <smiles>  (10) 
O=c1c2ccccc2nc(/C=C/c2ccccn2)n1CCCNc1ncccn1

>  <score_type>  (10) 
oracle

>  <origin>  (10) 
autodockgpu

>  <m_score__min__energy>  (10) 
-7.6900000000000004

>  <m_primary>  (10) 
energy

>  <meeko>  (10) 
{"free_energy": -7.12, "intermolecular_energy": -9.51, "internal_energy": -2.06, "cluster_size": 6, "cluster_id": 1, "rank_in_cluster": 6}

>  <energy>  (10) 
-7.48

>  <cluster_rmsd>  (10) 
0.65

>  <rmsd>  (10) 
270.22

>  <cluster>  (10) 
2

$$$$

     RDKit          3D

 49 52  0  0  0  0  0  0  0  0999 V2000
  141.8160   75.9920  220.2450 O   0  0  0  0  0  0  0  0  0  0  0  0
  141.7730   74.7830  220.5910 C   0  0  0  0  0  0  0  0  0  0  0  0
  142.9670   74.0800  220.5180 C   0  0  0  0  0  0  0  0  0  0  0  0
  144.1430   74.6670  220.0910 C   0  0  0  0  0  0  0  0  0  0  0  0
  145.2990   73.9150  220.0400 C   0  0  0  0  0  0  0  0  0  0  0  0
  145.2830   72.5850  220.4130 C   0  0  0  0  0  0  0  0  0  0  0  0
  144.0960   72.0050  220.8400 C   0  0  0  0  0  0  0  0  0  0  0  0
  142.9690   72.7650  220.8830 C   0  0  0  0  0  0  0  0  0  0  0  0
  141.8010   72.2310  221.2930 N   0  0  0  0  0  0  0  0  0  0  0  0
  140.6450   72.9200  221.3610 C   0  0  0  0  0  0  0  0  0  0  0  0
  139.4320   72.2520  221.8220 C   0  0  0  0  0  0  0  0  0  0  0  0
  139.5230   71.0820  222.4280 C   0  0  0  0  0  0  0  0  0  0  0  0
  139.8640   70.9180  223.8330 C   0  0  0  0  0  0  0  0  0  0  0  0
  140.7020   71.7710  224.5200 C   0  0  0  0  0  0  0  0  0  0  0  0
  141.0130   71.5970  225.8520 C   0  0  0  0  0  0  0  0  0  0  0  0
  140.4640   70.5180  226.5530 C   0  0  0  0  0  0  0  0  0  0  0  0
  139.6320   69.6880  225.8330 C   0  0  0  0  0  0  0  0  0  0  0  0
  139.3500   69.8880  224.5310 N   0  0  0  0  0  0  0  0  0  0  0  0
  140.6260   74.2170  221.0060 N   0  0  0  0  0  0  0  0  0  0  0  0
  139.4400   75.0220  221.0460 C   0  0  0  0  0  0  0  0  0  0  0  0
  139.3930   75.7190  222.4050 C   0  0  0  0  0  0  0  0  0  0  0  0
  139.6950   77.1790  222.1680 C   0  0  0  0  0  0  0  0  0  0  0  0
  141.0830   77.4980  222.3850 N   0  0  0  0  0  0  0  0  0  0  0  0
  141.4510   78.8080  222.8440 C   0  0  0  0  0  0  0  0  0  0  0  0
  140.5520   79.6580  223.3700 N   0  0  0  0  0  0  0  0  0  0  0  0
  140.9010   80.8960  223.8020 C   0  0  0  0  0  0  0  0  0  0  0  0
  142.2270   81.2530  223.6810 C   0  0  0  0  0  0  0  0  0  0  0  0
  143.1780   80.3890  223.1400 C   0  0  0  0  0  0  0  0  0  0  0  0
  142.7500   79.1660  222.7290 N   0  0  0  0  0  0  0  0  0  0  0  0
  144.1575   75.7260  219.7939 H   0  0  0  0  0  0  0  0  0  0  0  0
  146.2378   74.3770  219.7006 H   0  0  0  0  0  0  0  0  0  0  0  0
  146.2062   71.9883  220.3719 H   0  0  0  0  0  0  0  0  0  0  0  0
  144.0675   70.9468  221.1390 H   0  0  0  0  0  0  0  0  0  0  0  0
  138.4487   72.7198  221.6658 H   0  0  0  0  0  0  0  0  0  0  0  0
  139.3292   70.1764  221.8344 H   0  0  0  0  0  0  0  0  0  0  0  0
  141.1403   72.6253  223.9833 H   0  0  0  0  0  0  0  0  0  0  0  0
  141.6880   72.3016  226.3598 H   0  0  0  0  0  0  0  0  0  0  0  0
  140.6835   70.3423  227.6165 H   0  0  0  0  0  0  0  0  0  0  0  0
  139.1788   68.8253  226.3433 H   0  0  0  0  0  0  0  0  0  0  0  0
  139.4697   75.7720  220.2418 H   0  0  0  0  0  0  0  0  0  0  0  0
  138.5465   74.3963  220.9045 H   0  0  0  0  0  0  0  0  0  0  0  0
  138.3936   75.6084  222.8510 H   0  0  0  0  0  0  0  0  0  0  0  0
  140.1246   75.2760  223.0968 H   0  0  0  0  0  0  0  0  0  0  0  0
  139.4339   77.4290  221.1291 H   0  0  0  0  0  0  0  0  0  0  0  0
  139.1016   77.7637  222.8863 H   0  0  0  0  0  0  0  0  0  0  0  0
  141.8720   76.8390  222.2340 H   0  0  0  0  0  0  0  0  0  0  0  0
  140.1580   81.5849  224.2302 H   0  0  0  0  0  0  0  0  0  0  0  0
  142.5443   82.2497  224.0216 H   0  0  0  0  0  0  0  0  0  0  0  0
  144.2334   80.6854  223.0493 H   0  0  0  0  0  0  0  0  0  0  0  0
  1  2  2  0
  2  3  1  0
  3  4  2  0
  4  5  1  0
  5  6  2  0
  6  7  1  0
  7  8  2  0
  8  9  1  0
  9 10  2  0
 10 11  1  0
 11 12  2  0
 12 13  1  0
 13 14  2  0
 14 15  1  0
 15 16  2  0
 16 17  1  0
 17 18  2  0
 10 19  1  0
 19 20  1  0
 20 21  1  0
 21 22  1  0
 22 23  1  0
 23 24  1  0
 24 25  2  0
 25 26  1  0
 26 27  2  0
 27 28  1  0
 28 29  2  0
 19  2  1  0
 29 24  1  0
  8  3  1  0
 18 13  1  0
  4 30  1  0
  5 31  1  0
  6 32  1  0
  7 33  1  0
 11 34  1  0
 12 35  1  0
 14 36  1  0
 15 37  1  0
 16 38  1  0
 17 39  1  0
 20 40  1  0
 20 41  1  0
 21 42  1  0
 21 43  1  0
 22 44  1  0
 22 45  1  0
 23 46  1  0
 26 47  1  0
 27 48  1  0
 28 49  1  0
M  END
>  <smiles>  (11) 
O=c1c2ccccc2nc(/C=C/c2ccccn2)n1CCCNc1ncccn1

>  <score_type>  (11) 
oracle

>  <origin>  (11) 
autodockgpu

>  <m_score__min__energy>  (11) 
-7.6900000000000004

>  <m_primary>  (11) 
energy

>  <meeko>  (11) 
{"free_energy": -7.47, "intermolecular_energy": -9.85, "internal_energy": -1.78, "cluster_size": 5, "cluster_id": 2, "rank_in_cluster": 5}

>  <energy>  (11) 
-7.47

>  <cluster_rmsd>  (11) 
0.59

>  <rmsd>  (11) 
270.23

>  <cluster>  (11) 
2

$$$$

     RDKit          3D

 49 52  0  0  0  0  0  0  0  0999 V2000
  140.0780   71.8290  224.7440 O   0  0  0  0  0  0  0  0  0  0  0  0
  139.6590   70.6450  224.8210 C   0  0  0  0  0  0  0  0  0  0  0  0
  139.9820   69.9530  225.9790 C   0  0  0  0  0  0  0  0  0  0  0  0
  140.7230   70.5240  226.9970 C   0  0  0  0  0  0  0  0  0  0  0  0
  141.0120   69.7840  228.1260 C   0  0  0  0  0  0  0  0  0  0  0  0
  140.5660   68.4820  228.2400 C   0  0  0  0  0  0  0  0  0  0  0  0
  139.8220   67.9180  227.2120 C   0  0  0  0  0  0  0  0  0  0  0  0
  139.5490   68.6650  226.1090 C   0  0  0  0  0  0  0  0  0  0  0  0
  138.8290   68.1460  225.0940 N   0  0  0  0  0  0  0  0  0  0  0  0
  138.5190   68.8240  223.9720 C   0  0  0  0  0  0  0  0  0  0  0  0
  137.7320   68.1730  222.9300 C   0  0  0  0  0  0  0  0  0  0  0  0
  136.4540   68.4800  222.7910 C   0  0  0  0  0  0  0  0  0  0  0  0
  135.6180   68.9870  223.8680 C   0  0  0  0  0  0  0  0  0  0  0  0
  135.6530   70.2910  224.3140 C   0  0  0  0  0  0  0  0  0  0  0  0
  134.8520   70.7510  225.3380 C   0  0  0  0  0  0  0  0  0  0  0  0
  133.9590   69.8730  225.9610 C   0  0  0  0  0  0  0  0  0  0  0  0
  133.9510   68.5790  225.4890 C   0  0  0  0  0  0  0  0  0  0  0  0
  134.7500   68.1640  224.4860 N   0  0  0  0  0  0  0  0  0  0  0  0
  138.9380   70.0940  223.8290 N   0  0  0  0  0  0  0  0  0  0  0  0
  138.6540   70.8850  222.6680 C   0  0  0  0  0  0  0  0  0  0  0  0
  139.9380   70.9900  221.8460 C   0  0  0  0  0  0  0  0  0  0  0  0
  139.9770   72.3780  221.2560 C   0  0  0  0  0  0  0  0  0  0  0  0
  139.8480   73.4070  222.2560 N   0  0  0  0  0  0  0  0  0  0  0  0
  140.2290   74.7570  221.9450 C   0  0  0  0  0  0  0  0  0  0  0  0
  141.1990   75.0380  221.0580 N   0  0  0  0  0  0  0  0  0  0  0  0
  141.5580   76.3130  220.7660 C   0  0  0  0  0  0  0  0  0  0  0  0
  140.8820   77.3220  221.4200 C   0  0  0  0  0  0  0  0  0  0  0  0
  139.8720   77.0560  222.3430 C   0  0  0  0  0  0  0  0  0  0  0  0
  139.5700   75.7520  222.5820 N   0  0  0  0  0  0  0  0  0  0  0  0
  141.0798   71.5607  226.9080 H   0  0  0  0  0  0  0  0  0  0  0  0
  141.6006   70.2338  228.9391 H   0  0  0  0  0  0  0  0  0  0  0  0
  140.7989   67.8947  229.1405 H   0  0  0  0  0  0  0  0  0  0  0  0
  139.4590   66.8825  227.2888 H   0  0  0  0  0  0  0  0  0  0  0  0
  138.1991   67.4319  222.2647 H   0  0  0  0  0  0  0  0  0  0  0  0
  135.9947   68.3439  221.8008 H   0  0  0  0  0  0  0  0  0  0  0  0
  136.3490   70.9940  223.8329 H   0  0  0  0  0  0  0  0  0  0  0  0
  134.9149   71.8002  225.6623 H   0  0  0  0  0  0  0  0  0  0  0  0
  133.3010   70.1972  226.7807 H   0  0  0  0  0  0  0  0  0  0  0  0
  133.2639   67.8541  225.9499 H   0  0  0  0  0  0  0  0  0  0  0  0
  137.8662   70.4028  222.0707 H   0  0  0  0  0  0  0  0  0  0  0  0
  138.3042   71.8856  222.9621 H   0  0  0  0  0  0  0  0  0  0  0  0
  140.8136   70.8304  222.4924 H   0  0  0  0  0  0  0  0  0  0  0  0
  139.9578   70.2277  221.0532 H   0  0  0  0  0  0  0  0  0  0  0  0
  140.9356   72.5123  220.7335 H   0  0  0  0  0  0  0  0  0  0  0  0
  139.1241   72.4724  220.5677 H   0  0  0  0  0  0  0  0  0  0  0  0
  139.4890   73.2540  223.2190 H   0  0  0  0  0  0  0  0  0  0  0  0
  142.3538   76.5329  220.0391 H   0  0  0  0  0  0  0  0  0  0  0  0
  141.1480   78.3678  221.2067 H   0  0  0  0  0  0  0  0  0  0  0  0
  139.3399   77.8694  222.8580 H   0  0  0  0  0  0  0  0  0  0  0  0
  1  2  2  0
  2  3  1  0
  3  4  2  0
  4  5  1  0
  5  6  2  0
  6  7  1  0
  7  8  2  0
  8  9  1  0
  9 10  2  0
 10 11  1  0
 11 12  2  0
 12 13  1  0
 13 14  2  0
 14 15  1  0
 15 16  2  0
 16 17  1  0
 17 18  2  0
 10 19  1  0
 19 20  1  0
 20 21  1  0
 21 22  1  0
 22 23  1  0
 23 24  1  0
 24 25  2  0
 25 26  1  0
 26 27  2  0
 27 28  1  0
 28 29  2  0
 19  2  1  0
 29 24  1  0
  8  3  1  0
 18 13  1  0
  4 30  1  0
  5 31  1  0
  6 32  1  0
  7 33  1  0
 11 34  1  0
 12 35  1  0
 14 36  1  0
 15 37  1  0
 16 38  1  0
 17 39  1  0
 20 40  1  0
 20 41  1  0
 21 42  1  0
 21 43  1  0
 22 44  1  0
 22 45  1  0
 23 46  1  0
 26 47  1  0
 27 48  1  0
 28 49  1  0
M  END
>  <smiles>  (12) 
O=c1c2ccccc2nc(/C=C/c2ccccn2)n1CCCNc1ncccn1

>  <score_type>  (12) 
oracle

>  <origin>  (12) 
autodockgpu

>  <m_score__min__energy>  (12) 
-7.6900000000000004

>  <m_primary>  (12) 
energy

>  <meeko>  (12) 
{"free_energy": -7.53, "intermolecular_energy": -9.92, "internal_energy": -1.9, "cluster_size": 6, "cluster_id": 1, "rank_in_cluster": 3}

>  <energy>  (12) 
-7.2

>  <cluster_rmsd>  (12) 
0.0

>  <rmsd>  (12) 
270.01

>  <cluster>  (12) 
3

$$$$

     RDKit          3D

 49 52  0  0  0  0  0  0  0  0999 V2000
  138.4180   68.5540  225.2340 O   0  0  0  0  0  0  0  0  0  0  0  0
  139.1430   69.5430  224.9510 C   0  0  0  0  0  0  0  0  0  0  0  0
  139.7710   70.1700  226.0170 C   0  0  0  0  0  0  0  0  0  0  0  0
  139.6160   69.7410  227.3210 C   0  0  0  0  0  0  0  0  0  0  0  0
  140.2680   70.4070  228.3390 C   0  0  0  0  0  0  0  0  0  0  0  0
  141.0700   71.4950  228.0580 C   0  0  0  0  0  0  0  0  0  0  0  0
  141.2200   71.9190  226.7450 C   0  0  0  0  0  0  0  0  0  0  0  0
  140.5680   71.2480  225.7580 C   0  0  0  0  0  0  0  0  0  0  0  0
  140.6930   71.6340  224.4720 N   0  0  0  0  0  0  0  0  0  0  0  0
  140.0790   71.0210  223.4420 C   0  0  0  0  0  0  0  0  0  0  0  0
  140.2800   71.5140  222.0830 C   0  0  0  0  0  0  0  0  0  0  0  0
  141.0220   72.5880  221.8830 C   0  0  0  0  0  0  0  0  0  0  0  0
  140.5110   73.9500  221.9300 C   0  0  0  0  0  0  0  0  0  0  0  0
  141.2610   75.0600  221.6020 C   0  0  0  0  0  0  0  0  0  0  0  0
  140.7570   76.3420  221.6540 C   0  0  0  0  0  0  0  0  0  0  0  0
  139.4310   76.5450  222.0520 C   0  0  0  0  0  0  0  0  0  0  0  0
  138.7130   75.4140  222.3710 C   0  0  0  0  0  0  0  0  0  0  0  0
  139.2390   74.1750  222.3100 N   0  0  0  0  0  0  0  0  0  0  0  0
  139.2910   69.9570  223.6800 N   0  0  0  0  0  0  0  0  0  0  0  0
  138.6000   69.2470  222.6430 C   0  0  0  0  0  0  0  0  0  0  0  0
  137.1180   69.6100  222.7330 C   0  0  0  0  0  0  0  0  0  0  0  0
  136.9530   70.9680  222.0960 C   0  0  0  0  0  0  0  0  0  0  0  0
  137.1070   72.0440  223.0410 N   0  0  0  0  0  0  0  0  0  0  0  0
  136.0370   72.3600  223.9450 C   0  0  0  0  0  0  0  0  0  0  0  0
  135.3480   71.4060  224.5950 N   0  0  0  0  0  0  0  0  0  0  0  0
  134.3370   71.7050  225.4490 C   0  0  0  0  0  0  0  0  0  0  0  0
  134.0390   73.0390  225.6270 C   0  0  0  0  0  0  0  0  0  0  0  0
  134.7390   74.0470  224.9650 C   0  0  0  0  0  0  0  0  0  0  0  0
  135.7380   73.6670  224.1250 N   0  0  0  0  0  0  0  0  0  0  0  0
  138.9772   68.8744  227.5465 H   0  0  0  0  0  0  0  0  0  0  0  0
  140.1481   70.0693  229.3790 H   0  0  0  0  0  0  0  0  0  0  0  0
  141.5881   72.0238  228.8716 H   0  0  0  0  0  0  0  0  0  0  0  0
  141.8562   72.7841  226.5065 H   0  0  0  0  0  0  0  0  0  0  0  0
  139.8166   70.9946  221.2312 H   0  0  0  0  0  0  0  0  0  0  0  0
  142.0912   72.4445  221.6678 H   0  0  0  0  0  0  0  0  0  0  0  0
  142.3047   74.9163  221.2858 H   0  0  0  0  0  0  0  0  0  0  0  0
  141.3923   77.1987  221.3847 H   0  0  0  0  0  0  0  0  0  0  0  0
  138.9876   77.5502  222.1069 H   0  0  0  0  0  0  0  0  0  0  0  0
  137.6660   75.5268  222.6890 H   0  0  0  0  0  0  0  0  0  0  0  0
  138.9977   69.5402  221.6602 H   0  0  0  0  0  0  0  0  0  0  0  0
  138.7371   68.1623  222.7641 H   0  0  0  0  0  0  0  0  0  0  0  0
  136.5139   68.8650  222.1945 H   0  0  0  0  0  0  0  0  0  0  0  0
  136.7823   69.6261  223.7804 H   0  0  0  0  0  0  0  0  0  0  0  0
  137.7102   71.0813  221.3062 H   0  0  0  0  0  0  0  0  0  0  0  0
  135.9324   71.0242  221.6896 H   0  0  0  0  0  0  0  0  0  0  0  0
  137.9570   72.6350  223.1310 H   0  0  0  0  0  0  0  0  0  0  0  0
  133.7794   70.9171  225.9764 H   0  0  0  0  0  0  0  0  0  0  0  0
  133.2244   73.3168  226.3120 H   0  0  0  0  0  0  0  0  0  0  0  0
  134.4925   75.1082  225.1165 H   0  0  0  0  0  0  0  0  0  0  0  0
  1  2  2  0
  2  3  1  0
  3  4  2  0
  4  5  1  0
  5  6  2  0
  6  7  1  0
  7  8  2  0
  8  9  1  0
  9 10  2  0
 10 11  1  0
 11 12  2  0
 12 13  1  0
 13 14  2  0
 14 15  1  0
 15 16  2  0
 16 17  1  0
 17 18  2  0
 10 19  1  0
 19 20  1  0
 20 21  1  0
 21 22  1  0
 22 23  1  0
 23 24  1  0
 24 25  2  0
 25 26  1  0
 26 27  2  0
 27 28  1  0
 28 29  2  0
 19  2  1  0
 29 24  1  0
  8  3  1  0
 18 13  1  0
  4 30  1  0
  5 31  1  0
  6 32  1  0
  7 33  1  0
 11 34  1  0
 12 35  1  0
 14 36  1  0
 15 37  1  0
 16 38  1  0
 17 39  1  0
 20 40  1  0
 20 41  1  0
 21 42  1  0
 21 43  1  0
 22 44  1  0
 22 45  1  0
 23 46  1  0
 26 47  1  0
 27 48  1  0
 28 49  1  0
M  END
>  <smiles>  (13) 
O=c1c2ccccc2nc(/C=C/c2ccccn2)n1CCCNc1ncccn1

>  <score_type>  (13) 
oracle

>  <origin>  (13) 
autodockgpu

>  <m_score__min__energy>  (13) 
-7.6900000000000004

>  <m_primary>  (13) 
energy

>  <meeko>  (13) 
{"free_energy": -7.11, "intermolecular_energy": -9.5, "internal_energy": -2.42, "cluster_size": 3, "cluster_id": 4, "rank_in_cluster": 1}

>  <energy>  (13) 
-7.11

>  <cluster_rmsd>  (13) 
0.0

>  <rmsd>  (13) 
269.45

>  <cluster>  (13) 
4

$$$$

     RDKit          3D

 49 52  0  0  0  0  0  0  0  0999 V2000
  139.7140   74.7970  222.4180 O   0  0  0  0  0  0  0  0  0  0  0  0
  140.4380   75.2980  221.5190 C   0  0  0  0  0  0  0  0  0  0  0  0
  140.7400   76.6450  221.6540 C   0  0  0  0  0  0  0  0  0  0  0  0
  140.2780   77.4030  222.7120 C   0  0  0  0  0  0  0  0  0  0  0  0
  140.6140   78.7390  222.7910 C   0  0  0  0  0  0  0  0  0  0  0  0
  141.4070   79.3170  221.8190 C   0  0  0  0  0  0  0  0  0  0  0  0
  141.8670   78.5470  220.7600 C   0  0  0  0  0  0  0  0  0  0  0  0
  141.5240   77.2330  220.7020 C   0  0  0  0  0  0  0  0  0  0  0  0
  141.9550   76.4580  219.6860 N   0  0  0  0  0  0  0  0  0  0  0  0
  141.6560   75.1510  219.5620 C   0  0  0  0  0  0  0  0  0  0  0  0
  142.1730   74.3970  218.4250 C   0  0  0  0  0  0  0  0  0  0  0  0
  143.4780   74.3320  218.2240 C   0  0  0  0  0  0  0  0  0  0  0  0
  144.4260   73.8180  219.2000 C   0  0  0  0  0  0  0  0  0  0  0  0
  145.0580   72.5980  219.0840 C   0  0  0  0  0  0  0  0  0  0  0  0
  145.9530   72.1300  220.0230 C   0  0  0  0  0  0  0  0  0  0  0  0
  146.2480   72.9130  221.1450 C   0  0  0  0  0  0  0  0  0  0  0  0
  145.5980   74.1250  221.2260 C   0  0  0  0  0  0  0  0  0  0  0  0
  144.7270   74.5500  220.2900 N   0  0  0  0  0  0  0  0  0  0  0  0
  140.8860   74.5560  220.4910 N   0  0  0  0  0  0  0  0  0  0  0  0
  140.5190   73.1720  220.4340 C   0  0  0  0  0  0  0  0  0  0  0  0
  141.4360   72.4040  221.3860 C   0  0  0  0  0  0  0  0  0  0  0  0
  140.5580   71.4980  222.2150 C   0  0  0  0  0  0  0  0  0  0  0  0
  140.2020   72.0830  223.4820 N   0  0  0  0  0  0  0  0  0  0  0  0
  140.3240   71.3080  224.6850 C   0  0  0  0  0  0  0  0  0  0  0  0
  139.8960   70.0360  224.7610 N   0  0  0  0  0  0  0  0  0  0  0  0
  140.0110   69.3060  225.8980 C   0  0  0  0  0  0  0  0  0  0  0  0
  140.5920   69.9230  226.9860 C   0  0  0  0  0  0  0  0  0  0  0  0
  141.0450   71.2400  226.9330 C   0  0  0  0  0  0  0  0  0  0  0  0
  140.8930   71.9070  225.7570 N   0  0  0  0  0  0  0  0  0  0  0  0
  139.6461   76.9445  223.4869 H   0  0  0  0  0  0  0  0  0  0  0  0
  140.2486   79.3466  223.6320 H   0  0  0  0  0  0  0  0  0  0  0  0
  141.6726   80.3825  221.8840 H   0  0  0  0  0  0  0  0  0  0  0  0
  142.4999   78.9935  219.9790 H   0  0  0  0  0  0  0  0  0  0  0  0
  141.4813   73.8858  217.7393 H   0  0  0  0  0  0  0  0  0  0  0  0
  143.8707   74.6882  217.2602 H   0  0  0  0  0  0  0  0  0  0  0  0
  144.8392   71.9722  218.2062 H   0  0  0  0  0  0  0  0  0  0  0  0
  146.4316   71.1484  219.8911 H   0  0  0  0  0  0  0  0  0  0  0  0
  146.9574   72.5801  221.9170 H   0  0  0  0  0  0  0  0  0  0  0  0
  145.7987   74.7733  222.0917 H   0  0  0  0  0  0  0  0  0  0  0  0
  139.4709   73.0500  220.7448 H   0  0  0  0  0  0  0  0  0  0  0  0
  140.6241   72.7893  219.4081 H   0  0  0  0  0  0  0  0  0  0  0  0
  142.1597   71.8063  220.8124 H   0  0  0  0  0  0  0  0  0  0  0  0
  142.0009   73.0958  222.0281 H   0  0  0  0  0  0  0  0  0  0  0  0
  139.6366   71.2881  221.6520 H   0  0  0  0  0  0  0  0  0  0  0  0
  141.1256   70.5782  222.4194 H   0  0  0  0  0  0  0  0  0  0  0  0
  139.8520   73.0530  223.6090 H   0  0  0  0  0  0  0  0  0  0  0  0
  139.6561   68.2662  225.9503 H   0  0  0  0  0  0  0  0  0  0  0  0
  140.7012   69.3587  227.9239 H   0  0  0  0  0  0  0  0  0  0  0  0
  141.5072   71.7212  227.8075 H   0  0  0  0  0  0  0  0  0  0  0  0
  1  2  2  0
  2  3  1  0
  3  4  2  0
  4  5  1  0
  5  6  2  0
  6  7  1  0
  7  8  2  0
  8  9  1  0
  9 10  2  0
 10 11  1  0
 11 12  2  0
 12 13  1  0
 13 14  2  0
 14 15  1  0
 15 16  2  0
 16 17  1  0
 17 18  2  0
 10 19  1  0
 19 20  1  0
 20 21  1  0
 21 22  1  0
 22 23  1  0
 23 24  1  0
 24 25  2  0
 25 26  1  0
 26 27  2  0
 27 28  1  0
 28 29  2  0
 19  2  1  0
 29 24  1  0
  8  3  1  0
 18 13  1  0
  4 30  1  0
  5 31  1  0
  6 32  1  0
  7 33  1  0
 11 34  1  0
 12 35  1  0
 14 36  1  0
 15 37  1  0
 16 38  1  0
 17 39  1  0
 20 40  1  0
 20 41  1  0
 21 42  1  0
 21 43  1  0
 22 44  1  0
 22 45  1  0
 23 46  1  0
 26 47  1  0
 27 48  1  0
 28 49  1  0
M  END
>  <smiles>  (14) 
O=c1c2ccccc2nc(/C=C/c2ccccn2)n1CCCNc1ncccn1

>  <score_type>  (14) 
oracle

>  <origin>  (14) 
autodockgpu

>  <m_score__min__energy>  (14) 
-7.6900000000000004

>  <m_primary>  (14) 
energy

>  <meeko>  (14) 
{"free_energy": -7.02, "intermolecular_energy": -9.4, "internal_energy": -1.99, "cluster_size": 2, "cluster_id": 5, "rank_in_cluster": 2}

>  <energy>  (14) 
-6.88

>  <cluster_rmsd>  (14) 
1.35

>  <rmsd>  (14) 
269.29

>  <cluster>  (14) 
4

$$$$

     RDKit          3D

 49 52  0  0  0  0  0  0  0  0999 V2000
  139.6010   75.2440  222.5840 O   0  0  0  0  0  0  0  0  0  0  0  0
  140.3430   75.7670  221.7120 C   0  0  0  0  0  0  0  0  0  0  0  0
  140.6740   77.0990  221.9070 C   0  0  0  0  0  0  0  0  0  0  0  0
  140.2200   77.8210  222.9940 C   0  0  0  0  0  0  0  0  0  0  0  0
  140.5860   79.1450  223.1330 C   0  0  0  0  0  0  0  0  0  0  0  0
  141.3990   79.7460  222.1920 C   0  0  0  0  0  0  0  0  0  0  0  0
  141.8500   79.0120  221.1030 C   0  0  0  0  0  0  0  0  0  0  0  0
  141.4780   77.7100  220.9870 C   0  0  0  0  0  0  0  0  0  0  0  0
  141.8990   76.9700  219.9410 N   0  0  0  0  0  0  0  0  0  0  0  0
  141.5720   75.6770  219.7580 C   0  0  0  0  0  0  0  0  0  0  0  0
  142.0810   74.9610  218.5930 C   0  0  0  0  0  0  0  0  0  0  0  0
  143.3850   74.8810  218.3950 C   0  0  0  0  0  0  0  0  0  0  0  0
  144.2940   74.1430  219.2580 C   0  0  0  0  0  0  0  0  0  0  0  0
  144.7850   74.6340  220.4490 C   0  0  0  0  0  0  0  0  0  0  0  0
  145.6470   73.9180  221.2520 C   0  0  0  0  0  0  0  0  0  0  0  0
  146.0500   72.6360  220.8600 C   0  0  0  0  0  0  0  0  0  0  0  0
  145.5380   72.1790  219.6660 C   0  0  0  0  0  0  0  0  0  0  0  0
  144.6980   72.9070  218.9050 N   0  0  0  0  0  0  0  0  0  0  0  0
  140.7820   75.0600  220.6550 N   0  0  0  0  0  0  0  0  0  0  0  0
  140.3850   73.6880  220.5360 C   0  0  0  0  0  0  0  0  0  0  0  0
  141.4190   72.8350  221.2700 C   0  0  0  0  0  0  0  0  0  0  0  0
  140.6630   71.7630  222.0160 C   0  0  0  0  0  0  0  0  0  0  0  0
  140.0030   72.2690  223.1920 N   0  0  0  0  0  0  0  0  0  0  0  0
  140.0330   71.5090  224.4110 C   0  0  0  0  0  0  0  0  0  0  0  0
  139.1920   70.4850  224.6330 N   0  0  0  0  0  0  0  0  0  0  0  0
  139.2210   69.7680  225.7850 C   0  0  0  0  0  0  0  0  0  0  0  0
  140.1570   70.1330  226.7290 C   0  0  0  0  0  0  0  0  0  0  0  0
  141.0410   71.1910  226.5220 C   0  0  0  0  0  0  0  0  0  0  0  0
  140.9490   71.8620  225.3420 N   0  0  0  0  0  0  0  0  0  0  0  0
  139.5713   77.3442  223.7436 H   0  0  0  0  0  0  0  0  0  0  0  0
  140.2284   79.7239  223.9973 H   0  0  0  0  0  0  0  0  0  0  0  0
  141.6879   80.8014  222.3048 H   0  0  0  0  0  0  0  0  0  0  0  0
  142.4984   79.4772  220.3459 H   0  0  0  0  0  0  0  0  0  0  0  0
  141.3836   74.4908  217.8841 H   0  0  0  0  0  0  0  0  0  0  0  0
  143.8087   75.4041  217.5250 H   0  0  0  0  0  0  0  0  0  0  0  0
  144.4760   75.6391  220.7721 H   0  0  0  0  0  0  0  0  0  0  0  0
  146.0154   74.3509  222.1938 H   0  0  0  0  0  0  0  0  0  0  0  0
  146.7354   72.0292  221.4699 H   0  0  0  0  0  0  0  0  0  0  0  0
  145.8275   71.1762  219.3187 H   0  0  0  0  0  0  0  0  0  0  0  0
  139.3929   73.5452  220.9893 H   0  0  0  0  0  0  0  0  0  0  0  0
  140.3288   73.3956  219.4771 H   0  0  0  0  0  0  0  0  0  0  0  0
  142.1102   72.3758  220.5479 H   0  0  0  0  0  0  0  0  0  0  0  0
  142.0118   73.4498  221.9633 H   0  0  0  0  0  0  0  0  0  0  0  0
  139.9055   71.3332  221.3440 H   0  0  0  0  0  0  0  0  0  0  0  0
  141.3916   71.0060  222.3418 H   0  0  0  0  0  0  0  0  0  0  0  0
  139.4880   73.1700  223.2400 H   0  0  0  0  0  0  0  0  0  0  0  0
  138.5276   68.9318  225.9580 H   0  0  0  0  0  0  0  0  0  0  0  0
  140.2079   69.5725  227.6741 H   0  0  0  0  0  0  0  0  0  0  0  0
  141.7838   71.4723  227.2830 H   0  0  0  0  0  0  0  0  0  0  0  0
  1  2  2  0
  2  3  1  0
  3  4  2  0
  4  5  1  0
  5  6  2  0
  6  7  1  0
  7  8  2  0
  8  9  1  0
  9 10  2  0
 10 11  1  0
 11 12  2  0
 12 13  1  0
 13 14  2  0
 14 15  1  0
 15 16  2  0
 16 17  1  0
 17 18  2  0
 10 19  1  0
 19 20  1  0
 20 21  1  0
 21 22  1  0
 22 23  1  0
 23 24  1  0
 24 25  2  0
 25 26  1  0
 26 27  2  0
 27 28  1  0
 28 29  2  0
 19  2  1  0
 29 24  1  0
  8  3  1  0
 18 13  1  0
  4 30  1  0
  5 31  1  0
  6 32  1  0
  7 33  1  0
 11 34  1  0
 12 35  1  0
 14 36  1  0
 15 37  1  0
 16 38  1  0
 17 39  1  0
 20 40  1  0
 20 41  1  0
 21 42  1  0
 21 43  1  0
 22 44  1  0
 22 45  1  0
 23 46  1  0
 26 47  1  0
 27 48  1  0
 28 49  1  0
M  END
>  <smiles>  (15) 
O=c1c2ccccc2nc(/C=C/c2ccccn2)n1CCCNc1ncccn1

>  <score_type>  (15) 
oracle

>  <origin>  (15) 
autodockgpu

>  <m_score__min__energy>  (15) 
-7.6900000000000004

>  <m_primary>  (15) 
energy

>  <meeko>  (15) 
{"free_energy": -7.09, "intermolecular_energy": -9.48, "internal_energy": -1.98, "cluster_size": 2, "cluster_id": 5, "rank_in_cluster": 1}

>  <energy>  (15) 
-6.62

>  <cluster_rmsd>  (15) 
0.77

>  <rmsd>  (15) 
269.3

>  <cluster>  (15) 
4

$$$$

     RDKit          3D

 49 52  0  0  0  0  0  0  0  0999 V2000
  141.9320   75.9890  220.1120 O   0  0  0  0  0  0  0  0  0  0  0  0
  141.8500   74.7980  220.5120 C   0  0  0  0  0  0  0  0  0  0  0  0
  143.0150   74.0480  220.4490 C   0  0  0  0  0  0  0  0  0  0  0  0
  144.2030   74.5690  219.9740 C   0  0  0  0  0  0  0  0  0  0  0  0
  145.3290   73.7710  219.9370 C   0  0  0  0  0  0  0  0  0  0  0  0
  145.2700   72.4610  220.3690 C   0  0  0  0  0  0  0  0  0  0  0  0
  144.0710   71.9470  220.8440 C   0  0  0  0  0  0  0  0  0  0  0  0
  142.9750   72.7510  220.8730 C   0  0  0  0  0  0  0  0  0  0  0  0
  141.7960   72.2820  221.3290 N   0  0  0  0  0  0  0  0  0  0  0  0
  140.6690   73.0160  221.3870 C   0  0  0  0  0  0  0  0  0  0  0  0
  139.4410   72.4170  221.8990 C   0  0  0  0  0  0  0  0  0  0  0  0
  139.4880   71.2320  222.4810 C   0  0  0  0  0  0  0  0  0  0  0  0
  139.8560   71.0240  223.8730 C   0  0  0  0  0  0  0  0  0  0  0  0
  139.3800   69.9840  224.6430 C   0  0  0  0  0  0  0  0  0  0  0  0
  139.7430   69.8050  225.9610 C   0  0  0  0  0  0  0  0  0  0  0  0
  140.6310   70.7060  226.5600 C   0  0  0  0  0  0  0  0  0  0  0  0
  141.0850   71.7310  225.7600 C   0  0  0  0  0  0  0  0  0  0  0  0
  140.7090   71.8760  224.4740 N   0  0  0  0  0  0  0  0  0  0  0  0
  140.6910   74.2970  220.9730 N   0  0  0  0  0  0  0  0  0  0  0  0
  139.5380   75.1470  220.9990 C   0  0  0  0  0  0  0  0  0  0  0  0
  139.4870   75.8270  222.3670 C   0  0  0  0  0  0  0  0  0  0  0  0
  139.7700   77.2930  222.1470 C   0  0  0  0  0  0  0  0  0  0  0  0
  141.1700   77.6100  222.2690 N   0  0  0  0  0  0  0  0  0  0  0  0
  141.5700   78.8860  222.7910 C   0  0  0  0  0  0  0  0  0  0  0  0
  142.8570   79.2730  222.8210 N   0  0  0  0  0  0  0  0  0  0  0  0
  143.2330   80.4790  223.3150 C   0  0  0  0  0  0  0  0  0  0  0  0
  142.2350   81.3030  223.7910 C   0  0  0  0  0  0  0  0  0  0  0  0
  140.8930   80.9260  223.7700 C   0  0  0  0  0  0  0  0  0  0  0  0
  140.5960   79.7010  223.2590 N   0  0  0  0  0  0  0  0  0  0  0  0
  144.2515   75.6120  219.6278 H   0  0  0  0  0  0  0  0  0  0  0  0
  146.2781   74.1810  219.5614 H   0  0  0  0  0  0  0  0  0  0  0  0
  146.1687   71.8276  220.3370 H   0  0  0  0  0  0  0  0  0  0  0  0
  144.0087   70.9052  221.1915 H   0  0  0  0  0  0  0  0  0  0  0  0
  138.4828   72.9484  221.8011 H   0  0  0  0  0  0  0  0  0  0  0  0
  139.2335   70.3490  221.8764 H   0  0  0  0  0  0  0  0  0  0  0  0
  138.6815   69.2672  224.1867 H   0  0  0  0  0  0  0  0  0  0  0  0
  139.3377   68.9604  226.5375 H   0  0  0  0  0  0  0  0  0  0  0  0
  140.9477   70.6015  227.6082 H   0  0  0  0  0  0  0  0  0  0  0  0
  141.7849   72.4631  226.1893 H   0  0  0  0  0  0  0  0  0  0  0  0
  139.6153   75.9062  220.2068 H   0  0  0  0  0  0  0  0  0  0  0  0
  138.6242   74.5588  220.8289 H   0  0  0  0  0  0  0  0  0  0  0  0
  138.4906   75.6985  222.8149 H   0  0  0  0  0  0  0  0  0  0  0  0
  140.2264   75.3847  223.0509 H   0  0  0  0  0  0  0  0  0  0  0  0
  139.4326   77.5695  221.1372 H   0  0  0  0  0  0  0  0  0  0  0  0
  139.2313   77.8570  222.9227 H   0  0  0  0  0  0  0  0  0  0  0  0
  141.9460   76.9730  222.0030 H   0  0  0  0  0  0  0  0  0  0  0  0
  144.2889   80.7866  223.3351 H   0  0  0  0  0  0  0  0  0  0  0  0
  142.5060   82.2877  224.1997 H   0  0  0  0  0  0  0  0  0  0  0  0
  140.1057   81.5927  224.1515 H   0  0  0  0  0  0  0  0  0  0  0  0
  1  2  2  0
  2  3  1  0
  3  4  2  0
  4  5  1  0
  5  6  2  0
  6  7  1  0
  7  8  2  0
  8  9  1  0
  9 10  2  0
 10 11  1  0
 11 12  2  0
 12 13  1  0
 13 14  2  0
 14 15  1  0
 15 16  2  0
 16 17  1  0
 17 18  2  0
 10 19  1  0
 19 20  1  0
 20 21  1  0
 21 22  1  0
 22 23  1  0
 23 24  1  0
 24 25  2  0
 25 26  1  0
 26 27  2  0
 27 28  1  0
 28 29  2  0
 19  2  1  0
 29 24  1  0
  8  3  1  0
 18 13  1  0
  4 30  1  0
  5 31  1  0
  6 32  1  0
  7 33  1  0
 11 34  1  0
 12 35  1  0
 14 36  1  0
 15 37  1  0
 16 38  1  0
 17 39  1  0
 20 40  1  0
 20 41  1  0
 21 42  1  0
 21 43  1  0
 22 44  1  0
 22 45  1  0
 23 46  1  0
 26 47  1  0
 27 48  1  0
 28 49  1  0
M  END
>  <smiles>  (16) 
O=c1c2ccccc2nc(/C=C/c2ccccn2)n1CCCNc1ncccn1

>  <score_type>  (16) 
oracle

>  <origin>  (16) 
autodockgpu

>  <m_score__min__energy>  (16) 
-7.6900000000000004

>  <m_primary>  (16) 
energy

>  <meeko>  (16) 
{"free_energy": -7.53, "intermolecular_energy": -9.92, "internal_energy": -1.76, "cluster_size": 5, "cluster_id": 2, "rank_in_cluster": 2}

>  <energy>  (16) 
-7.09

>  <cluster_rmsd>  (16) 
0.0

>  <rmsd>  (16) 
269.82

>  <cluster>  (16) 
5

$$$$

     RDKit          3D

 49 52  0  0  0  0  0  0  0  0999 V2000
  140.2510   71.7990  224.7340 O   0  0  0  0  0  0  0  0  0  0  0  0
  139.7760   70.6360  224.8110 C   0  0  0  0  0  0  0  0  0  0  0  0
  140.0380   69.9420  225.9830 C   0  0  0  0  0  0  0  0  0  0  0  0
  140.7780   70.4880  227.0140 C   0  0  0  0  0  0  0  0  0  0  0  0
  141.0040   69.7480  228.1560 C   0  0  0  0  0  0  0  0  0  0  0  0
  140.4960   68.4690  228.2700 C   0  0  0  0  0  0  0  0  0  0  0  0
  139.7530   67.9290  227.2290 C   0  0  0  0  0  0  0  0  0  0  0  0
  139.5420   68.6770  226.1130 C   0  0  0  0  0  0  0  0  0  0  0  0
  138.8250   68.1820  225.0840 N   0  0  0  0  0  0  0  0  0  0  0  0
  138.5750   68.8610  223.9490 C   0  0  0  0  0  0  0  0  0  0  0  0
  137.7850   68.2370  222.8920 C   0  0  0  0  0  0  0  0  0  0  0  0
  136.4990   68.5190  222.7880 C   0  0  0  0  0  0  0  0  0  0  0  0
  135.7300   69.2040  223.8160 C   0  0  0  0  0  0  0  0  0  0  0  0
  135.7310   70.5720  223.9870 C   0  0  0  0  0  0  0  0  0  0  0  0
  134.9950   71.2000  224.9700 C   0  0  0  0  0  0  0  0  0  0  0  0
  134.2070   70.4350  225.8360 C   0  0  0  0  0  0  0  0  0  0  0  0
  134.2310   69.0730  225.6340 C   0  0  0  0  0  0  0  0  0  0  0  0
  134.9630   68.4920  224.6640 N   0  0  0  0  0  0  0  0  0  0  0  0
  139.0560   70.1100  223.8050 N   0  0  0  0  0  0  0  0  0  0  0  0
  138.8380   70.9010  222.6300 C   0  0  0  0  0  0  0  0  0  0  0  0
  139.6170   70.2600  221.4820 C   0  0  0  0  0  0  0  0  0  0  0  0
  140.6850   71.2420  221.0660 C   0  0  0  0  0  0  0  0  0  0  0  0
  140.9910   72.1960  222.1010 N   0  0  0  0  0  0  0  0  0  0  0  0
  140.7190   73.5910  221.8900 C   0  0  0  0  0  0  0  0  0  0  0  0
  139.5930   74.1730  222.3370 N   0  0  0  0  0  0  0  0  0  0  0  0
  139.3370   75.4900  222.1370 C   0  0  0  0  0  0  0  0  0  0  0  0
  140.2860   76.2180  221.4510 C   0  0  0  0  0  0  0  0  0  0  0  0
  141.4620   75.6380  220.9780 C   0  0  0  0  0  0  0  0  0  0  0  0
  141.6450   74.3120  221.2180 N   0  0  0  0  0  0  0  0  0  0  0  0
  141.1844   71.5063  226.9248 H   0  0  0  0  0  0  0  0  0  0  0  0
  141.5918   70.1789  228.9799 H   0  0  0  0  0  0  0  0  0  0  0  0
  140.6792   67.8808  229.1813 H   0  0  0  0  0  0  0  0  0  0  0  0
  139.3413   66.9118  227.3057 H   0  0  0  0  0  0  0  0  0  0  0  0
  138.2574   67.5369  222.1872 H   0  0  0  0  0  0  0  0  0  0  0  0
  135.9772   68.2175  221.8678 H   0  0  0  0  0  0  0  0  0  0  0  0
  136.3437   71.1877  223.3120 H   0  0  0  0  0  0  0  0  0  0  0  0
  135.0275   72.2948  225.0721 H   0  0  0  0  0  0  0  0  0  0  0  0
  133.6031   70.8946  226.6323 H   0  0  0  0  0  0  0  0  0  0  0  0
  133.6266   68.4322  226.2929 H   0  0  0  0  0  0  0  0  0  0  0  0
  137.7652   70.9227  222.3877 H   0  0  0  0  0  0  0  0  0  0  0  0
  139.1782   71.9340  222.7946 H   0  0  0  0  0  0  0  0  0  0  0  0
  140.0792   69.3202  221.8184 H   0  0  0  0  0  0  0  0  0  0  0  0
  138.9500   70.0272  220.6388 H   0  0  0  0  0  0  0  0  0  0  0  0
  141.6002   70.6840  220.8188 H   0  0  0  0  0  0  0  0  0  0  0  0
  140.3051   71.8010  220.1981 H   0  0  0  0  0  0  0  0  0  0  0  0
  141.4070   71.9570  223.0230 H   0  0  0  0  0  0  0  0  0  0  0  0
  138.4121   75.9571  222.5062 H   0  0  0  0  0  0  0  0  0  0  0  0
  140.1097   77.2889  221.2716 H   0  0  0  0  0  0  0  0  0  0  0  0
  142.2121   76.2293  220.4324 H   0  0  0  0  0  0  0  0  0  0  0  0
  1  2  2  0
  2  3  1  0
  3  4  2  0
  4  5  1  0
  5  6  2  0
  6  7  1  0
  7  8  2  0
  8  9  1  0
  9 10  2  0
 10 11  1  0
 11 12  2  0
 12 13  1  0
 13 14  2  0
 14 15  1  0
 15 16  2  0
 16 17  1  0
 17 18  2  0
 10 19  1  0
 19 20  1  0
 20 21  1  0
 21 22  1  0
 22 23  1  0
 23 24  1  0
 24 25  2  0
 25 26  1  0
 26 27  2  0
 27 28  1  0
 28 29  2  0
 19  2  1  0
 29 24  1  0
  8  3  1  0
 18 13  1  0
  4 30  1  0
  5 31  1  0
  6 32  1  0
  7 33  1  0
 11 34  1  0
 12 35  1  0
 14 36  1  0
 15 37  1  0
 16 38  1  0
 17 39  1  0
 20 40  1  0
 20 41  1  0
 21 42  1  0
 21 43  1  0
 22 44  1  0
 22 45  1  0
 23 46  1  0
 26 47  1  0
 27 48  1  0
 28 49  1  0
M  END
>  <smiles>  (17) 
O=c1c2ccccc2nc(/C=C/c2ccccn2)n1CCCNc1ncccn1

>  <score_type>  (17) 
oracle

>  <origin>  (17) 
autodockgpu

>  <m_score__min__energy>  (17) 
-7.6900000000000004

>  <m_primary>  (17) 
energy

>  <meeko>  (17) 
{"free_energy": -7.17, "intermolecular_energy": -9.55, "internal_energy": -2.1, "cluster_size": 6, "cluster_id": 1, "rank_in_cluster": 5}

>  <energy>  (17) 
-7.02

>  <cluster_rmsd>  (17) 
0.67

>  <rmsd>  (17) 
269.81

>  <cluster>  (17) 
5

$$$$

     RDKit          3D

 49 52  0  0  0  0  0  0  0  0999 V2000
  138.3680   79.7680  223.6000 O   0  0  0  0  0  0  0  0  0  0  0  0
  139.3370   79.0500  223.2400 C   0  0  0  0  0  0  0  0  0  0  0  0
  140.5970   79.6220  223.3440 C   0  0  0  0  0  0  0  0  0  0  0  0
  140.7870   80.9070  223.8170 C   0  0  0  0  0  0  0  0  0  0  0  0
  142.0660   81.4200  223.8980 C   0  0  0  0  0  0  0  0  0  0  0  0
  143.1490   80.6570  223.5090 C   0  0  0  0  0  0  0  0  0  0  0  0
  142.9480   79.3670  223.0360 C   0  0  0  0  0  0  0  0  0  0  0  0
  141.6800   78.8820  222.9650 C   0  0  0  0  0  0  0  0  0  0  0  0
  141.4500   77.6340  222.5100 N   0  0  0  0  0  0  0  0  0  0  0  0
  140.2240   77.0850  222.4110 C   0  0  0  0  0  0  0  0  0  0  0  0
  140.0810   75.7230  221.9060 C   0  0  0  0  0  0  0  0  0  0  0  0
  140.9660   75.2490  221.0490 C   0  0  0  0  0  0  0  0  0  0  0  0
  141.4960   76.0060  219.9250 C   0  0  0  0  0  0  0  0  0  0  0  0
  142.8250   76.3480  219.7910 C   0  0  0  0  0  0  0  0  0  0  0  0
  143.3050   77.0670  218.7170 C   0  0  0  0  0  0  0  0  0  0  0  0
  142.4230   77.4740  217.7100 C   0  0  0  0  0  0  0  0  0  0  0  0
  141.1040   77.1130  217.8770 C   0  0  0  0  0  0  0  0  0  0  0  0
  140.6690   76.4100  218.9410 N   0  0  0  0  0  0  0  0  0  0  0  0
  139.1470   77.8010  222.7800 N   0  0  0  0  0  0  0  0  0  0  0  0
  137.8080   77.2950  222.7060 C   0  0  0  0  0  0  0  0  0  0  0  0
  137.4330   77.1770  221.2290 C   0  0  0  0  0  0  0  0  0  0  0  0
  137.6300   78.5400  220.6100 C   0  0  0  0  0  0  0  0  0  0  0  0
  138.8460   78.6270  219.8420 N   0  0  0  0  0  0  0  0  0  0  0  0
  139.7320   79.7420  220.0330 C   0  0  0  0  0  0  0  0  0  0  0  0
  139.2890   80.9420  220.4440 N   0  0  0  0  0  0  0  0  0  0  0  0
  140.1270   81.9940  220.6220 C   0  0  0  0  0  0  0  0  0  0  0  0
  141.4640   81.7840  220.3650 C   0  0  0  0  0  0  0  0  0  0  0  0
  141.9490   80.5470  219.9390 C   0  0  0  0  0  0  0  0  0  0  0  0
  141.0460   79.5420  219.7820 N   0  0  0  0  0  0  0  0  0  0  0  0
  139.9251   81.5164  224.1266 H   0  0  0  0  0  0  0  0  0  0  0  0
  142.2231   82.4416  224.2743 H   0  0  0  0  0  0  0  0  0  0  0  0
  144.1668   81.0693  223.5735 H   0  0  0  0  0  0  0  0  0  0  0  0
  143.8014   78.7472  222.7236 H   0  0  0  0  0  0  0  0  0  0  0  0
  139.2407   75.0953  222.2376 H   0  0  0  0  0  0  0  0  0  0  0  0
  141.3246   74.2192  221.1933 H   0  0  0  0  0  0  0  0  0  0  0  0
  143.5316   76.0342  220.5734 H   0  0  0  0  0  0  0  0  0  0  0  0
  144.3738   77.3189  218.6523 H   0  0  0  0  0  0  0  0  0  0  0  0
  142.7629   78.0488  216.8359 H   0  0  0  0  0  0  0  0  0  0  0  0
  140.3750   77.4113  217.1091 H   0  0  0  0  0  0  0  0  0  0  0  0
  137.7547   76.3065  223.1855 H   0  0  0  0  0  0  0  0  0  0  0  0
  137.1130   77.9710  223.2256 H   0  0  0  0  0  0  0  0  0  0  0  0
  138.0817   76.4401  220.7329 H   0  0  0  0  0  0  0  0  0  0  0  0
  136.3913   76.8426  221.1153 H   0  0  0  0  0  0  0  0  0  0  0  0
  136.7783   78.7528  219.9472 H   0  0  0  0  0  0  0  0  0  0  0  0
  137.6986   79.2718  221.4284 H   0  0  0  0  0  0  0  0  0  0  0  0
  139.1520   77.9280  219.1370 H   0  0  0  0  0  0  0  0  0  0  0  0
  139.7546   82.9732  220.9573 H   0  0  0  0  0  0  0  0  0  0  0  0
  142.1704   82.6164  220.4997 H   0  0  0  0  0  0  0  0  0  0  0  0
  143.0192   80.3908  219.7381 H   0  0  0  0  0  0  0  0  0  0  0  0
  1  2  2  0
  2  3  1  0
  3  4  2  0
  4  5  1  0
  5  6  2  0
  6  7  1  0
  7  8  2  0
  8  9  1  0
  9 10  2  0
 10 11  1  0
 11 12  2  0
 12 13  1  0
 13 14  2  0
 14 15  1  0
 15 16  2  0
 16 17  1  0
 17 18  2  0
 10 19  1  0
 19 20  1  0
 20 21  1  0
 21 22  1  0
 22 23  1  0
 23 24  1  0
 24 25  2  0
 25 26  1  0
 26 27  2  0
 27 28  1  0
 28 29  2  0
 19  2  1  0
 29 24  1  0
  8  3  1  0
 18 13  1  0
  4 30  1  0
  5 31  1  0
  6 32  1  0
  7 33  1  0
 11 34  1  0
 12 35  1  0
 14 36  1  0
 15 37  1  0
 16 38  1  0
 17 39  1  0
 20 40  1  0
 20 41  1  0
 21 42  1  0
 21 43  1  0
 22 44  1  0
 22 45  1  0
 23 46  1  0
 26 47  1  0
 27 48  1  0
 28 49  1  0
M  END
>  <smiles>  (18) 
O=c1c2ccccc2nc(/C=C/c2ccccn2)n1CCCNc1ncccn1

>  <score_type>  (18) 
oracle

>  <origin>  (18) 
autodockgpu

>  <m_score__min__energy>  (18) 
-7.6900000000000004

>  <m_primary>  (18) 
energy

>  <meeko>  (18) 
{"free_energy": -4.92, "intermolecular_energy": -7.31, "internal_energy": -3.84, "cluster_size": 3, "cluster_id": 6, "rank_in_cluster": 3}

>  <energy>  (18) 
-4.98

>  <cluster_rmsd>  (18) 
0.0

>  <rmsd>  (18) 
270.07

>  <cluster>  (18) 
6

$$$$

     RDKit          3D

 49 52  0  0  0  0  0  0  0  0999 V2000
  138.8050   68.3580  225.0460 O   0  0  0  0  0  0  0  0  0  0  0  0
  139.4030   69.4440  224.8260 C   0  0  0  0  0  0  0  0  0  0  0  0
  139.9380   70.0860  225.9330 C   0  0  0  0  0  0  0  0  0  0  0  0
  139.8240   69.5710  227.2100 C   0  0  0  0  0  0  0  0  0  0  0  0
  140.3790   70.2570  228.2720 C   0  0  0  0  0  0  0  0  0  0  0  0
  141.0410   71.4510  228.0620 C   0  0  0  0  0  0  0  0  0  0  0  0
  141.1490   71.9590  226.7750 C   0  0  0  0  0  0  0  0  0  0  0  0
  140.5970   71.2670  225.7430 C   0  0  0  0  0  0  0  0  0  0  0  0
  140.6840   71.7340  224.4820 N   0  0  0  0  0  0  0  0  0  0  0  0
  140.1630   71.1050  223.4110 C   0  0  0  0  0  0  0  0  0  0  0  0
  140.3130   71.6920  222.0840 C   0  0  0  0  0  0  0  0  0  0  0  0
  140.5980   72.9760  221.9680 C   0  0  0  0  0  0  0  0  0  0  0  0
  139.5980   74.0340  221.9710 C   0  0  0  0  0  0  0  0  0  0  0  0
  139.9070   75.3780  221.9800 C   0  0  0  0  0  0  0  0  0  0  0  0
  138.9430   76.3640  221.9840 C   0  0  0  0  0  0  0  0  0  0  0  0
  137.5910   76.0060  221.9770 C   0  0  0  0  0  0  0  0  0  0  0  0
  137.3210   74.6550  221.9680 C   0  0  0  0  0  0  0  0  0  0  0  0
  138.2890   73.7180  221.9650 N   0  0  0  0  0  0  0  0  0  0  0  0
  139.5110   69.9400  223.5810 N   0  0  0  0  0  0  0  0  0  0  0  0
  138.9240   69.2070  222.4980 C   0  0  0  0  0  0  0  0  0  0  0  0
  137.4080   69.2250  222.6850 C   0  0  0  0  0  0  0  0  0  0  0  0
  136.9240   70.5920  222.2640 C   0  0  0  0  0  0  0  0  0  0  0  0
  136.9420   71.5420  223.3470 N   0  0  0  0  0  0  0  0  0  0  0  0
  135.9050   71.5100  224.3400 C   0  0  0  0  0  0  0  0  0  0  0  0
  135.1970   72.6050  224.6670 N   0  0  0  0  0  0  0  0  0  0  0  0
  134.2180   72.5740  225.6060 C   0  0  0  0  0  0  0  0  0  0  0  0
  133.9740   71.3640  226.2200 C   0  0  0  0  0  0  0  0  0  0  0  0
  134.6940   70.2140  225.8980 C   0  0  0  0  0  0  0  0  0  0  0  0
  135.6590   70.3260  224.9470 N   0  0  0  0  0  0  0  0  0  0  0  0
  139.2950   68.6215  227.3794 H   0  0  0  0  0  0  0  0  0  0  0  0
  140.2935   69.8506  229.2906 H   0  0  0  0  0  0  0  0  0  0  0  0
  141.4803   71.9963  228.9103 H   0  0  0  0  0  0  0  0  0  0  0  0
  141.6739   72.9083  226.5924 H   0  0  0  0  0  0  0  0  0  0  0  0
  140.1895   71.0690  221.1859 H   0  0  0  0  0  0  0  0  0  0  0  0
  141.6545   73.2636  221.8628 H   0  0  0  0  0  0  0  0  0  0  0  0
  140.9659   75.6757  221.9842 H   0  0  0  0  0  0  0  0  0  0  0  0
  139.2352   77.4244  221.9926 H   0  0  0  0  0  0  0  0  0  0  0  0
  136.7896   76.7595  221.9786 H   0  0  0  0  0  0  0  0  0  0  0  0
  136.2709   74.3276  221.9631 H   0  0  0  0  0  0  0  0  0  0  0  0
  139.1880   69.6797  221.5405 H   0  0  0  0  0  0  0  0  0  0  0  0
  139.2965   68.1720  222.4899 H   0  0  0  0  0  0  0  0  0  0  0  0
  136.9415   68.4503  222.0587 H   0  0  0  0  0  0  0  0  0  0  0  0
  137.1406   69.0208  223.7323 H   0  0  0  0  0  0  0  0  0  0  0  0
  137.5741   70.9635  221.4582 H   0  0  0  0  0  0  0  0  0  0  0  0
  135.8817   70.4884  221.9280 H   0  0  0  0  0  0  0  0  0  0  0  0
  137.6650   72.2750  223.4790 H   0  0  0  0  0  0  0  0  0  0  0  0
  133.6438   73.4754  225.8661 H   0  0  0  0  0  0  0  0  0  0  0  0
  133.1877   71.3039  226.9869 H   0  0  0  0  0  0  0  0  0  0  0  0
  134.4892   69.2538  226.3941 H   0  0  0  0  0  0  0  0  0  0  0  0
  1  2  2  0
  2  3  1  0
  3  4  2  0
  4  5  1  0
  5  6  2  0
  6  7  1  0
  7  8  2  0
  8  9  1  0
  9 10  2  0
 10 11  1  0
 11 12  2  0
 12 13  1  0
 13 14  2  0
 14 15  1  0
 15 16  2  0
 16 17  1  0
 17 18  2  0
 10 19  1  0
 19 20  1  0
 20 21  1  0
 21 22  1  0
 22 23  1  0
 23 24  1  0
 24 25  2  0
 25 26  1  0
 26 27  2  0
 27 28  1  0
 28 29  2  0
 19  2  1  0
 29 24  1  0
  8  3  1  0
 18 13  1  0
  4 30  1  0
  5 31  1  0
  6 32  1  0
  7 33  1  0
 11 34  1  0
 12 35  1  0
 14 36  1  0
 15 37  1  0
 16 38  1  0
 17 39  1  0
 20 40  1  0
 20 41  1  0
 21 42  1  0
 21 43  1  0
 22 44  1  0
 22 45  1  0
 23 46  1  0
 26 47  1  0
 27 48  1  0
 28 49  1  0
M  END
>  <smiles>  (19) 
O=c1c2ccccc2nc(/C=C/c2ccccn2)n1CCCNc1ncccn1

>  <score_type>  (19) 
oracle

>  <origin>  (19) 
autodockgpu

>  <m_score__min__energy>  (19) 
-7.6900000000000004

>  <m_primary>  (19) 
energy

>  <meeko>  (19) 
{"free_energy": -6.62, "intermolecular_energy": -9.0, "internal_energy": -2.52, "cluster_size": 3, "cluster_id": 4, "rank_in_cluster": 3}

>  <energy>  (19) 
-4.92

>  <cluster_rmsd>  (19) 
0.76

>  <rmsd>  (19) 
269.88

>  <cluster>  (19) 
6

$$$$

     RDKit          3D

 49 52  0  0  0  0  0  0  0  0999 V2000
  140.6970   72.2340  223.7820 O   0  0  0  0  0  0  0  0  0  0  0  0
  140.0800   71.2410  224.2480 C   0  0  0  0  0  0  0  0  0  0  0  0
  140.2170   71.0160  225.6090 C   0  0  0  0  0  0  0  0  0  0  0  0
  140.9870   71.8300  226.4170 C   0  0  0  0  0  0  0  0  0  0  0  0
  141.0840   71.5540  227.7670 C   0  0  0  0  0  0  0  0  0  0  0  0
  140.4180   70.4710  228.3070 C   0  0  0  0  0  0  0  0  0  0  0  0
  139.6470   69.6600  227.4860 C   0  0  0  0  0  0  0  0  0  0  0  0
  139.5650   69.9500  226.1600 C   0  0  0  0  0  0  0  0  0  0  0  0
  138.8250   69.1810  225.3370 N   0  0  0  0  0  0  0  0  0  0  0  0
  138.6960   69.4060  224.0150 C   0  0  0  0  0  0  0  0  0  0  0  0
  137.8690   68.5150  223.2080 C   0  0  0  0  0  0  0  0  0  0  0  0
  136.5980   68.8140  223.0030 C   0  0  0  0  0  0  0  0  0  0  0  0
  135.6550   69.1290  224.0650 C   0  0  0  0  0  0  0  0  0  0  0  0
  135.5790   70.3610  224.6790 C   0  0  0  0  0  0  0  0  0  0  0  0
  134.6780   70.6390  225.6850 C   0  0  0  0  0  0  0  0  0  0  0  0
  133.7940   69.6410  226.1130 C   0  0  0  0  0  0  0  0  0  0  0  0
  133.9000   68.4240  225.4760 C   0  0  0  0  0  0  0  0  0  0  0  0
  134.7940   68.1880  224.4970 N   0  0  0  0  0  0  0  0  0  0  0  0
  139.3320   70.4520  223.4560 N   0  0  0  0  0  0  0  0  0  0  0  0
  139.2500   70.7610  222.0590 C   0  0  0  0  0  0  0  0  0  0  0  0
  138.1260   71.7790  221.8690 C   0  0  0  0  0  0  0  0  0  0  0  0
  138.7310   72.9910  221.2020 C   0  0  0  0  0  0  0  0  0  0  0  0
  139.3720   73.8750  222.1420 N   0  0  0  0  0  0  0  0  0  0  0  0
  140.1460   74.9860  221.6620 C   0  0  0  0  0  0  0  0  0  0  0  0
  140.9820   74.8740  220.6150 N   0  0  0  0  0  0  0  0  0  0  0  0
  141.7120   75.9250  220.1640 C   0  0  0  0  0  0  0  0  0  0  0  0
  141.5630   77.1250  220.8250 C   0  0  0  0  0  0  0  0  0  0  0  0
  140.7010   77.2670  221.9120 C   0  0  0  0  0  0  0  0  0  0  0  0
  140.0040   76.1680  222.3060 N   0  0  0  0  0  0  0  0  0  0  0  0
  141.5192   72.6920  225.9883 H   0  0  0  0  0  0  0  0  0  0  0  0
  141.6946   72.1998  228.4152 H   0  0  0  0  0  0  0  0  0  0  0  0
  140.4983   70.2525  229.3821 H   0  0  0  0  0  0  0  0  0  0  0  0
  139.1099   68.7949  227.9020 H   0  0  0  0  0  0  0  0  0  0  0  0
  138.3002   67.6011  222.7734 H   0  0  0  0  0  0  0  0  0  0  0  0
  136.2308   68.8254  221.9662 H   0  0  0  0  0  0  0  0  0  0  0  0
  136.2660   71.1556  224.3526 H   0  0  0  0  0  0  0  0  0  0  0  0
  134.6538   71.6367  226.1476 H   0  0  0  0  0  0  0  0  0  0  0  0
  133.0580   69.8183  226.9111 H   0  0  0  0  0  0  0  0  0  0  0  0
  133.2254   67.6101  225.7802 H   0  0  0  0  0  0  0  0  0  0  0  0
  140.2033   71.1878  221.7139 H   0  0  0  0  0  0  0  0  0  0  0  0
  139.0455   69.8507  221.4763 H   0  0  0  0  0  0  0  0  0  0  0  0
  137.3356   71.3538  221.2330 H   0  0  0  0  0  0  0  0  0  0  0  0
  137.6753   72.0488  222.8355 H   0  0  0  0  0  0  0  0  0  0  0  0
  139.4783   72.6539  220.4685 H   0  0  0  0  0  0  0  0  0  0  0  0
  137.9152   73.5498  220.7201 H   0  0  0  0  0  0  0  0  0  0  0  0
  139.3230   73.7780  223.1750 H   0  0  0  0  0  0  0  0  0  0  0  0
  142.3940   75.8235  219.3069 H   0  0  0  0  0  0  0  0  0  0  0  0
  142.1412   77.9968  220.4851 H   0  0  0  0  0  0  0  0  0  0  0  0
  140.5893   78.2307  222.4305 H   0  0  0  0  0  0  0  0  0  0  0  0
  1  2  2  0
  2  3  1  0
  3  4  2  0
  4  5  1  0
  5  6  2  0
  6  7  1  0
  7  8  2  0
  8  9  1  0
  9 10  2  0
 10 11  1  0
 11 12  2  0
 12 13  1  0
 13 14  2  0
 14 15  1  0
 15 16  2  0
 16 17  1  0
 17 18  2  0
 10 19  1  0
 19 20  1  0
 20 21  1  0
 21 22  1  0
 22 23  1  0
 23 24  1  0
 24 25  2  0
 25 26  1  0
 26 27  2  0
 27 28  1  0
 28 29  2  0
 19  2  1  0
 29 24  1  0
  8  3  1  0
 18 13  1  0
  4 30  1  0
  5 31  1  0
  6 32  1  0
  7 33  1  0
 11 34  1  0
 12 35  1  0
 14 36  1  0
 15 37  1  0
 16 38  1  0
 17 39  1  0
 20 40  1  0
 20 41  1  0
 21 42  1  0
 21 43  1  0
 22 44  1  0
 22 45  1  0
 23 46  1  0
 26 47  1  0
 27 48  1  0
 28 49  1  0
M  END
>  <smiles>  (20) 
O=c1c2ccccc2nc(/C=C/c2ccccn2)n1CCCNc1ncccn1

>  <score_type>  (20) 
oracle

>  <origin>  (20) 
autodockgpu

>  <m_score__min__energy>  (20) 
-7.6900000000000004

>  <m_primary>  (20) 
energy

>  <meeko>  (20) 
{"free_energy": -7.26, "intermolecular_energy": -9.64, "internal_energy": -1.96, "cluster_size": 6, "cluster_id": 1, "rank_in_cluster": 4}

>  <energy>  (20) 
-4.92

>  <cluster_rmsd>  (20) 
0.73

>  <rmsd>  (20) 
269.89

>  <cluster>  (20) 
6

$$$$
