VFWNAPSESRSYPS-CMDGGOBGNA-N
     RDKit          3D

 48 51  0  0  0  0  0  0  0  0999 V2000
  141.2088   76.0404  223.0641 H   0  0  0  0  0  0  0  0  0  0  0  0
  141.0760   76.7910  222.2710 C   0  0  0  0  0  0  0  0  0  0  0  0
  140.8950   76.3580  221.0130 C   0  0  0  0  0  0  0  0  0  0  0  0
  139.9013   76.4594  220.5522 H   0  0  0  0  0  0  0  0  0  0  0  0
  142.0010   75.7430  220.2200 C   0  0  0  0  0  0  0  0  0  0  0  0
  142.7900   74.8430  220.8620 N   0  0  0  0  0  0  0  0  0  0  0  0
  143.8160   74.2120  220.2580 C   0  0  0  0  0  0  0  0  0  0  0  0
  144.5960   73.3110  220.9850 C   0  0  0  0  0  0  0  0  0  0  0  0
  144.3843   73.1255  222.0484 H   0  0  0  0  0  0  0  0  0  0  0  0
  145.6450   72.6490  220.3510 C   0  0  0  0  0  0  0  0  0  0  0  0
  146.2663   71.9365  220.9134 H   0  0  0  0  0  0  0  0  0  0  0  0
  145.9000   72.8840  219.0380 N   0  0  0  0  0  0  0  0  0  0  0  0
  145.1550   73.7540  218.3060 C   0  0  0  0  0  0  0  0  0  0  0  0
  145.3908   73.9164  217.2439 H   0  0  0  0  0  0  0  0  0  0  0  0
  144.0780   74.4520  218.9020 C   0  0  0  0  0  0  0  0  0  0  0  0
  143.2480   75.3710  218.2110 C   0  0  0  0  0  0  0  0  0  0  0  0
  143.4390   75.5310  216.5730 S   0  0  0  0  0  0  0  0  0  0  0  0
  142.2510   76.0600  218.8920 N   0  0  0  0  0  0  0  0  0  0  0  0
  141.4290   77.0920  218.1950 C   0  0  0  0  0  0  0  0  0  0  0  0
  141.7213   77.1066  217.1346 H   0  0  0  0  0  0  0  0  0  0  0  0
  140.3764   76.8099  218.3448 H   0  0  0  0  0  0  0  0  0  0  0  0
  141.5900   78.5350  218.7660 C   0  0  0  0  0  0  0  0  0  0  0  0
  142.0707   78.3742  219.7423 H   0  0  0  0  0  0  0  0  0  0  0  0
  142.5440   79.4470  217.9490 C   0  0  0  0  0  0  0  0  0  0  0  0
  143.5809   79.1673  218.1868 H   0  0  0  0  0  0  0  0  0  0  0  0
  142.3033   79.2960  216.8863 H   0  0  0  0  0  0  0  0  0  0  0  0
  142.3640   80.9530  218.2450 C   0  0  0  0  0  0  0  0  0  0  0  0
  143.3428   81.4489  218.1678 H   0  0  0  0  0  0  0  0  0  0  0  0
  141.6513   81.3589  217.5120 H   0  0  0  0  0  0  0  0  0  0  0  0
  141.7940   81.2020  219.6430 C   0  0  0  0  0  0  0  0  0  0  0  0
  142.4833   80.7819  220.3902 H   0  0  0  0  0  0  0  0  0  0  0  0
  141.6809   82.2874  219.7816 H   0  0  0  0  0  0  0  0  0  0  0  0
  140.4110   80.5460  219.8130 C   0  0  0  0  0  0  0  0  0  0  0  0
  140.2641   80.3152  220.8784 H   0  0  0  0  0  0  0  0  0  0  0  0
  139.6659   81.2606  219.4334 H   0  0  0  0  0  0  0  0  0  0  0  0
  140.2420   79.2420  219.0030 C   0  0  0  0  0  0  0  0  0  0  0  0
  139.5767   78.5631  219.5565 H   0  0  0  0  0  0  0  0  0  0  0  0
  139.8161   79.5020  218.0227 H   0  0  0  0  0  0  0  0  0  0  0  0
  141.1070   78.2250  222.6520 C   0  0  0  0  0  0  0  0  0  0  0  0
  139.9210   78.8390  223.0850 C   0  0  0  0  0  0  0  0  0  0  0  0
  138.9927   78.2518  223.1446 H   0  0  0  0  0  0  0  0  0  0  0  0
  139.9110   80.1530  223.4310 N   0  0  0  0  0  0  0  0  0  0  0  0
  141.0310   80.9180  223.3650 C   0  0  0  0  0  0  0  0  0  0  0  0
  140.9910   81.9773  223.6589 H   0  0  0  0  0  0  0  0  0  0  0  0
  142.2320   80.3620  222.9250 C   0  0  0  0  0  0  0  0  0  0  0  0
  143.1401   80.9797  222.8637 H   0  0  0  0  0  0  0  0  0  0  0  0
  142.2710   79.0140  222.5630 C   0  0  0  0  0  0  0  0  0  0  0  0
  143.2115   78.5675  222.2079 H   0  0  0  0  0  0  0  0  0  0  0  0
  1  2  1  0
  2  3  2  0
  3  4  1  0
  3  5  1  0
  5  6  2  0
  6  7  1  0
  7  8  2  0
  8  9  1  0
  8 10  1  0
 10 11  1  0
 10 12  2  0
 12 13  1  0
 13 14  1  0
 13 15  2  0
 15 16  1  0
 16 17  2  0
 16 18  1  0
 18 19  1  0
 19 20  1  0
 19 21  1  0
 19 22  1  0
 22 23  1  0
 22 24  1  0
 24 25  1  0
 24 26  1  0
 24 27  1  0
 27 28  1  0
 27 29  1  0
 27 30  1  0
 30 31  1  0
 30 32  1  0
 30 33  1  0
 33 34  1  0
 33 35  1  0
 33 36  1  0
 36 37  1  0
 36 38  1  0
  2 39  1  0
 39 40  2  0
 40 41  1  0
 40 42  1  0
 42 43  2  0
 43 44  1  0
 43 45  1  0
 45 46  1  0
 45 47  2  0
 47 48  1  0
 18  5  1  0
 36 22  1  0
 47 39  1  0
 15  7  1  0
M  END
>  <UniqueID>  (1) 
461

>  <SMILES>  (1) 
S=c1c2cnccc2nc(/C=C/c2cccnc2)n1CC1CCCCC1

>  <Energy>  (1) 
75.6784312079686

>  <Genealogy>  (1) 
S=c1c2cnccc2nc(/C=C/c2cccnc2)n1CC1CCCCC1 (cis-trans isomerization)
S=c1c2cnccc2nc(/C=C/c2cccnc2)n1CC1CCCCC1 (3D coordinates assigned)
S=c1c2cnccc2nc(/C=C/c2cccnc2)n1CC1CCCCC1 (nonaromatic ring conformer: 75.6784312079686 kcal/mol)

>  <smiles>  (1) 
S=c1c2cnccc2nc(/C=C/c2cccnc2)n1CC1CCCCC1

>  <score_type>  (1) 
oracle

>  <origin>  (1) 
autodockgpu

>  <m_score__min__energy>  (1) 
-7.1799999999999997

>  <m_primary>  (1) 
energy

>  <meeko>  (1) 
{"free_energy": -6.45, "intermolecular_energy": -7.94, "internal_energy": -1.83, "cluster_size": 9, "cluster_id": 4, "rank_in_cluster": 3}

>  <energy>  (1) 
-7.18

>  <cluster_rmsd>  (1) 
0.0

>  <rmsd>  (1) 
270.2

>  <cluster>  (1) 
1

$$$$
VFWNAPSESRSYPS-CMDGGOBGNA-N
     RDKit          3D

 48 51  0  0  0  0  0  0  0  0999 V2000
  143.5684   75.9610  218.1700 H   0  0  0  0  0  0  0  0  0  0  0  0
  143.5430   75.5730  219.1990 C   0  0  0  0  0  0  0  0  0  0  0  0
  142.6960   76.1430  220.0700 C   0  0  0  0  0  0  0  0  0  0  0  0
  142.8679   77.1858  220.3751 H   0  0  0  0  0  0  0  0  0  0  0  0
  141.5280   75.4070  220.6380 C   0  0  0  0  0  0  0  0  0  0  0  0
  141.7100   74.0910  220.9190 N   0  0  0  0  0  0  0  0  0  0  0  0
  140.7390   73.3170  221.4410 C   0  0  0  0  0  0  0  0  0  0  0  0
  140.9920   71.9660  221.6900 C   0  0  0  0  0  0  0  0  0  0  0  0
  141.9737   71.5315  221.4502 H   0  0  0  0  0  0  0  0  0  0  0  0
  139.9890   71.1740  222.2450 C   0  0  0  0  0  0  0  0  0  0  0  0
  140.1765   70.1088  222.4456 H   0  0  0  0  0  0  0  0  0  0  0  0
  138.7800   71.7180  222.5380 N   0  0  0  0  0  0  0  0  0  0  0  0
  138.5070   73.0300  222.3100 C   0  0  0  0  0  0  0  0  0  0  0  0
  137.5165   73.4354  222.5640 H   0  0  0  0  0  0  0  0  0  0  0  0
  139.4920   73.8770  221.7470 C   0  0  0  0  0  0  0  0  0  0  0  0
  139.2930   75.2560  221.4820 C   0  0  0  0  0  0  0  0  0  0  0  0
  137.8870   75.9660  221.9970 S   0  0  0  0  0  0  0  0  0  0  0  0
  140.2950   76.0010  220.8690 N   0  0  0  0  0  0  0  0  0  0  0  0
  140.0660   77.4290  220.5060 C   0  0  0  0  0  0  0  0  0  0  0  0
  140.5752   77.6273  219.5513 H   0  0  0  0  0  0  0  0  0  0  0  0
  138.9763   77.5674  220.4473 H   0  0  0  0  0  0  0  0  0  0  0  0
  140.5890   78.4530  221.5600 C   0  0  0  0  0  0  0  0  0  0  0  0
  139.7285   79.1189  221.7215 H   0  0  0  0  0  0  0  0  0  0  0  0
  140.9340   77.8350  222.9410 C   0  0  0  0  0  0  0  0  0  0  0  0
  139.9955   77.6553  223.4858 H   0  0  0  0  0  0  0  0  0  0  0  0
  141.4906   76.9059  222.7487 H   0  0  0  0  0  0  0  0  0  0  0  0
  141.8400   78.7340  223.8120 C   0  0  0  0  0  0  0  0  0  0  0  0
  141.5657   78.5962  224.8683 H   0  0  0  0  0  0  0  0  0  0  0  0
  142.8841   78.4406  223.6284 H   0  0  0  0  0  0  0  0  0  0  0  0
  141.6980   80.2150  223.4550 C   0  0  0  0  0  0  0  0  0  0  0  0
  140.6532   80.5219  223.6105 H   0  0  0  0  0  0  0  0  0  0  0  0
  142.3753   80.7929  224.1010 H   0  0  0  0  0  0  0  0  0  0  0  0
  142.0850   80.4800  221.9870 C   0  0  0  0  0  0  0  0  0  0  0  0
  141.5353   81.3661  221.6368 H   0  0  0  0  0  0  0  0  0  0  0  0
  143.1748   80.6273  221.9619 H   0  0  0  0  0  0  0  0  0  0  0  0
  141.7650   79.3020  221.0420 C   0  0  0  0  0  0  0  0  0  0  0  0
  141.5054   79.7018  220.0507 H   0  0  0  0  0  0  0  0  0  0  0  0
  142.6540   78.6564  220.9890 H   0  0  0  0  0  0  0  0  0  0  0  0
  144.4470   74.4490  219.5460 C   0  0  0  0  0  0  0  0  0  0  0  0
  144.7990   73.5260  218.5470 C   0  0  0  0  0  0  0  0  0  0  0  0
  144.4105   73.6524  217.5257 H   0  0  0  0  0  0  0  0  0  0  0  0
  145.6160   72.4780  218.8330 N   0  0  0  0  0  0  0  0  0  0  0  0
  146.1120   72.2780  220.0820 C   0  0  0  0  0  0  0  0  0  0  0  0
  146.7760   71.4235  220.2793 H   0  0  0  0  0  0  0  0  0  0  0  0
  145.7800   73.1550  221.1140 C   0  0  0  0  0  0  0  0  0  0  0  0
  146.1745   72.9937  222.1281 H   0  0  0  0  0  0  0  0  0  0  0  0
  144.9420   74.2400  220.8480 C   0  0  0  0  0  0  0  0  0  0  0  0
  144.6679   74.9330  221.6571 H   0  0  0  0  0  0  0  0  0  0  0  0
  1  2  1  0
  2  3  2  0
  3  4  1  0
  3  5  1  0
  5  6  2  0
  6  7  1  0
  7  8  2  0
  8  9  1  0
  8 10  1  0
 10 11  1  0
 10 12  2  0
 12 13  1  0
 13 14  1  0
 13 15  2  0
 15 16  1  0
 16 17  2  0
 16 18  1  0
 18 19  1  0
 19 20  1  0
 19 21  1  0
 19 22  1  0
 22 23  1  0
 22 24  1  0
 24 25  1  0
 24 26  1  0
 24 27  1  0
 27 28  1  0
 27 29  1  0
 27 30  1  0
 30 31  1  0
 30 32  1  0
 30 33  1  0
 33 34  1  0
 33 35  1  0
 33 36  1  0
 36 37  1  0
 36 38  1  0
  2 39  1  0
 39 40  2  0
 40 41  1  0
 40 42  1  0
 42 43  2  0
 43 44  1  0
 43 45  1  0
 45 46  1  0
 45 47  2  0
 47 48  1  0
 18  5  1  0
 36 22  1  0
 47 39  1  0
 15  7  1  0
M  END
>  <UniqueID>  (2) 
461

>  <SMILES>  (2) 
S=c1c2cnccc2nc(/C=C/c2cccnc2)n1CC1CCCCC1

>  <Energy>  (2) 
75.6784312079686

>  <Genealogy>  (2) 
S=c1c2cnccc2nc(/C=C/c2cccnc2)n1CC1CCCCC1 (cis-trans isomerization)
S=c1c2cnccc2nc(/C=C/c2cccnc2)n1CC1CCCCC1 (3D coordinates assigned)
S=c1c2cnccc2nc(/C=C/c2cccnc2)n1CC1CCCCC1 (nonaromatic ring conformer: 75.6784312079686 kcal/mol)

>  <smiles>  (2) 
S=c1c2cnccc2nc(/C=C/c2cccnc2)n1CC1CCCCC1

>  <score_type>  (2) 
oracle

>  <origin>  (2) 
autodockgpu

>  <m_score__min__energy>  (2) 
-7.1799999999999997

>  <m_primary>  (2) 
energy

>  <meeko>  (2) 
{"free_energy": -6.92, "intermolecular_energy": -8.42, "internal_energy": -1.47, "cluster_size": 7, "cluster_id": 2, "rank_in_cluster": 6}

>  <energy>  (2) 
-7.14

>  <cluster_rmsd>  (2) 
0.0

>  <rmsd>  (2) 
270.14

>  <cluster>  (2) 
2

$$$$
VFWNAPSESRSYPS-CMDGGOBGNA-N
     RDKit          3D

 48 51  0  0  0  0  0  0  0  0999 V2000
  138.9087   71.7944  221.4174 H   0  0  0  0  0  0  0  0  0  0  0  0
  139.5010   72.2700  222.2130 C   0  0  0  0  0  0  0  0  0  0  0  0
  140.0280   73.4810  221.9730 C   0  0  0  0  0  0  0  0  0  0  0  0
  139.5182   74.3717  222.3688 H   0  0  0  0  0  0  0  0  0  0  0  0
  141.2840   73.6570  221.1860 C   0  0  0  0  0  0  0  0  0  0  0  0
  142.1190   72.5880  221.1150 N   0  0  0  0  0  0  0  0  0  0  0  0
  143.2800   72.6140  220.4320 C   0  0  0  0  0  0  0  0  0  0  0  0
  144.0970   71.4820  220.4170 C   0  0  0  0  0  0  0  0  0  0  0  0
  143.8033   70.5777  220.9701 H   0  0  0  0  0  0  0  0  0  0  0  0
  145.2890   71.5090  219.6940 C   0  0  0  0  0  0  0  0  0  0  0  0
  145.9416   70.6237  219.6748 H   0  0  0  0  0  0  0  0  0  0  0  0
  145.6430   72.6290  219.0140 N   0  0  0  0  0  0  0  0  0  0  0  0
  144.8650   73.7440  219.0090 C   0  0  0  0  0  0  0  0  0  0  0  0
  145.1848   74.6319  218.4439 H   0  0  0  0  0  0  0  0  0  0  0  0
  143.6460   73.7680  219.7270 C   0  0  0  0  0  0  0  0  0  0  0  0
  142.7740   74.8850  219.7700 C   0  0  0  0  0  0  0  0  0  0  0  0
  143.1100   76.1900  218.8040 S   0  0  0  0  0  0  0  0  0  0  0  0
  141.6250   74.8440  220.5520 N   0  0  0  0  0  0  0  0  0  0  0  0
  140.7450   76.0430  220.6740 C   0  0  0  0  0  0  0  0  0  0  0  0
  140.4452   76.3543  219.6625 H   0  0  0  0  0  0  0  0  0  0  0  0
  139.8918   75.7443  221.3007 H   0  0  0  0  0  0  0  0  0  0  0  0
  141.4130   77.2620  221.3820 C   0  0  0  0  0  0  0  0  0  0  0  0
  142.4343   76.9107  221.5904 H   0  0  0  0  0  0  0  0  0  0  0  0
  141.5530   78.5260  220.4910 C   0  0  0  0  0  0  0  0  0  0  0  0
  142.4002   78.3764  219.8056 H   0  0  0  0  0  0  0  0  0  0  0  0
  140.6000   78.6514  219.9562 H   0  0  0  0  0  0  0  0  0  0  0  0
  141.7970   79.8240  221.2940 C   0  0  0  0  0  0  0  0  0  0  0  0
  142.4522   80.4854  220.7081 H   0  0  0  0  0  0  0  0  0  0  0  0
  140.8203   80.2936  221.4825 H   0  0  0  0  0  0  0  0  0  0  0  0
  142.4560   79.5500  222.6470 C   0  0  0  0  0  0  0  0  0  0  0  0
  143.4253   79.0577  222.4796 H   0  0  0  0  0  0  0  0  0  0  0  0
  142.5898   80.5100  223.1671 H   0  0  0  0  0  0  0  0  0  0  0  0
  141.5780   78.6410  223.5270 C   0  0  0  0  0  0  0  0  0  0  0  0
  142.2321   78.0880  224.2172 H   0  0  0  0  0  0  0  0  0  0  0  0
  140.8675   79.2929  224.0563 H   0  0  0  0  0  0  0  0  0  0  0  0
  140.7440   77.6210  222.7220 C   0  0  0  0  0  0  0  0  0  0  0  0
  140.6301   76.7044  223.3194 H   0  0  0  0  0  0  0  0  0  0  0  0
  139.7667   78.0763  222.5039 H   0  0  0  0  0  0  0  0  0  0  0  0
  139.6730   71.5370  223.4920 C   0  0  0  0  0  0  0  0  0  0  0  0
  138.7550   70.5290  223.8260 C   0  0  0  0  0  0  0  0  0  0  0  0
  137.9310   70.2914  223.1371 H   0  0  0  0  0  0  0  0  0  0  0  0
  138.8760   69.8440  224.9940 N   0  0  0  0  0  0  0  0  0  0  0  0
  139.8730   70.1100  225.8780 C   0  0  0  0  0  0  0  0  0  0  0  0
  139.9475   69.5338  226.8121 H   0  0  0  0  0  0  0  0  0  0  0  0
  140.8020   71.1130  225.6020 C   0  0  0  0  0  0  0  0  0  0  0  0
  141.6071   71.3358  226.3177 H   0  0  0  0  0  0  0  0  0  0  0  0
  140.7010   71.8320  224.4090 C   0  0  0  0  0  0  0  0  0  0  0  0
  141.4249   72.6294  224.1851 H   0  0  0  0  0  0  0  0  0  0  0  0
  1  2  1  0
  2  3  2  0
  3  4  1  0
  3  5  1  0
  5  6  2  0
  6  7  1  0
  7  8  2  0
  8  9  1  0
  8 10  1  0
 10 11  1  0
 10 12  2  0
 12 13  1  0
 13 14  1  0
 13 15  2  0
 15 16  1  0
 16 17  2  0
 16 18  1  0
 18 19  1  0
 19 20  1  0
 19 21  1  0
 19 22  1  0
 22 23  1  0
 22 24  1  0
 24 25  1  0
 24 26  1  0
 24 27  1  0
 27 28  1  0
 27 29  1  0
 27 30  1  0
 30 31  1  0
 30 32  1  0
 30 33  1  0
 33 34  1  0
 33 35  1  0
 33 36  1  0
 36 37  1  0
 36 38  1  0
  2 39  1  0
 39 40  2  0
 40 41  1  0
 40 42  1  0
 42 43  2  0
 43 44  1  0
 43 45  1  0
 45 46  1  0
 45 47  2  0
 47 48  1  0
 18  5  1  0
 36 22  1  0
 47 39  1  0
 15  7  1  0
M  END
>  <UniqueID>  (3) 
461

>  <SMILES>  (3) 
S=c1c2cnccc2nc(/C=C/c2cccnc2)n1CC1CCCCC1

>  <Energy>  (3) 
75.6784312079686

>  <Genealogy>  (3) 
S=c1c2cnccc2nc(/C=C/c2cccnc2)n1CC1CCCCC1 (cis-trans isomerization)
S=c1c2cnccc2nc(/C=C/c2cccnc2)n1CC1CCCCC1 (3D coordinates assigned)
S=c1c2cnccc2nc(/C=C/c2cccnc2)n1CC1CCCCC1 (nonaromatic ring conformer: 75.6784312079686 kcal/mol)

>  <smiles>  (3) 
S=c1c2cnccc2nc(/C=C/c2cccnc2)n1CC1CCCCC1

>  <score_type>  (3) 
oracle

>  <origin>  (3) 
autodockgpu

>  <m_score__min__energy>  (3) 
-7.1799999999999997

>  <m_primary>  (3) 
energy

>  <meeko>  (3) 
{"free_energy": -7.18, "intermolecular_energy": -8.67, "internal_energy": -1.07, "cluster_size": 1, "cluster_id": 1, "rank_in_cluster": 1}

>  <energy>  (3) 
-7.14

>  <cluster_rmsd>  (3) 
0.04

>  <rmsd>  (3) 
270.15

>  <cluster>  (3) 
2

$$$$
VFWNAPSESRSYPS-CMDGGOBGNA-N
     RDKit          3D

 48 51  0  0  0  0  0  0  0  0999 V2000
  141.2252   76.0288  223.0861 H   0  0  0  0  0  0  0  0  0  0  0  0
  141.0750   76.7750  222.2920 C   0  0  0  0  0  0  0  0  0  0  0  0
  140.8900   76.3360  221.0360 C   0  0  0  0  0  0  0  0  0  0  0  0
  139.8921   76.4261  220.5820 H   0  0  0  0  0  0  0  0  0  0  0  0
  141.9950   75.7300  220.2370 C   0  0  0  0  0  0  0  0  0  0  0  0
  142.7890   74.8290  220.8720 N   0  0  0  0  0  0  0  0  0  0  0  0
  143.8150   74.2050  220.2620 C   0  0  0  0  0  0  0  0  0  0  0  0
  144.6000   73.3010  220.9820 C   0  0  0  0  0  0  0  0  0  0  0  0
  144.3911   73.1075  222.0445 H   0  0  0  0  0  0  0  0  0  0  0  0
  145.6500   72.6470  220.3410 C   0  0  0  0  0  0  0  0  0  0  0  0
  146.2753   71.9334  220.8975 H   0  0  0  0  0  0  0  0  0  0  0  0
  145.9010   72.8910  219.0290 N   0  0  0  0  0  0  0  0  0  0  0  0
  145.1520   73.7630  218.3040 C   0  0  0  0  0  0  0  0  0  0  0  0
  145.3851   73.9333  217.2426 H   0  0  0  0  0  0  0  0  0  0  0  0
  144.0740   74.4530  218.9070 C   0  0  0  0  0  0  0  0  0  0  0  0
  143.2400   75.3740  218.2230 C   0  0  0  0  0  0  0  0  0  0  0  0
  143.4270   75.5450  216.5850 S   0  0  0  0  0  0  0  0  0  0  0  0
  142.2410   76.0550  218.9100 N   0  0  0  0  0  0  0  0  0  0  0  0
  141.4150   77.0900  218.2220 C   0  0  0  0  0  0  0  0  0  0  0  0
  141.6956   77.1030  217.1585 H   0  0  0  0  0  0  0  0  0  0  0  0
  140.3634   76.8114  218.3847 H   0  0  0  0  0  0  0  0  0  0  0  0
  141.5860   78.5320  218.7890 C   0  0  0  0  0  0  0  0  0  0  0  0
  142.0591   78.3685  219.7685 H   0  0  0  0  0  0  0  0  0  0  0  0
  142.5540   79.4330  217.9760 C   0  0  0  0  0  0  0  0  0  0  0  0
  143.5866   79.1441  218.2215 H   0  0  0  0  0  0  0  0  0  0  0  0
  142.3184   79.2814  216.9123 H   0  0  0  0  0  0  0  0  0  0  0  0
  142.3870   80.9410  218.2660 C   0  0  0  0  0  0  0  0  0  0  0  0
  143.3711   81.4271  218.1931 H   0  0  0  0  0  0  0  0  0  0  0  0
  141.6827   81.3515  217.5274 H   0  0  0  0  0  0  0  0  0  0  0  0
  141.8110   81.2000  219.6600 C   0  0  0  0  0  0  0  0  0  0  0  0
  142.4914   80.7752  220.4127 H   0  0  0  0  0  0  0  0  0  0  0  0
  141.7081   82.2868  219.7950 H   0  0  0  0  0  0  0  0  0  0  0  0
  140.4200   80.5580  219.8230 C   0  0  0  0  0  0  0  0  0  0  0  0
  140.2637   80.3322  220.8882 H   0  0  0  0  0  0  0  0  0  0  0  0
  139.6844   81.2786  219.4363 H   0  0  0  0  0  0  0  0  0  0  0  0
  140.2440   79.2530  219.0160 C   0  0  0  0  0  0  0  0  0  0  0  0
  139.5689   78.5822  219.5676 H   0  0  0  0  0  0  0  0  0  0  0  0
  139.8271   79.5144  218.0322 H   0  0  0  0  0  0  0  0  0  0  0  0
  141.0880   78.2100  222.6680 C   0  0  0  0  0  0  0  0  0  0  0  0
  139.8900   78.8150  223.0840 C   0  0  0  0  0  0  0  0  0  0  0  0
  138.9663   78.2198  223.1332 H   0  0  0  0  0  0  0  0  0  0  0  0
  139.8640   80.1300  223.4260 N   0  0  0  0  0  0  0  0  0  0  0  0
  140.9780   80.9050  223.3720 C   0  0  0  0  0  0  0  0  0  0  0  0
  140.9247   81.9647  223.6623 H   0  0  0  0  0  0  0  0  0  0  0  0
  142.1890   80.3590  222.9490 C   0  0  0  0  0  0  0  0  0  0  0  0
  143.0922   80.9848  222.8977 H   0  0  0  0  0  0  0  0  0  0  0  0
  142.2450   79.0100  222.5910 C   0  0  0  0  0  0  0  0  0  0  0  0
  143.1939   78.5717  222.2484 H   0  0  0  0  0  0  0  0  0  0  0  0
  1  2  1  0
  2  3  2  0
  3  4  1  0
  3  5  1  0
  5  6  2  0
  6  7  1  0
  7  8  2  0
  8  9  1  0
  8 10  1  0
 10 11  1  0
 10 12  2  0
 12 13  1  0
 13 14  1  0
 13 15  2  0
 15 16  1  0
 16 17  2  0
 16 18  1  0
 18 19  1  0
 19 20  1  0
 19 21  1  0
 19 22  1  0
 22 23  1  0
 22 24  1  0
 24 25  1  0
 24 26  1  0
 24 27  1  0
 27 28  1  0
 27 29  1  0
 27 30  1  0
 30 31  1  0
 30 32  1  0
 30 33  1  0
 33 34  1  0
 33 35  1  0
 33 36  1  0
 36 37  1  0
 36 38  1  0
  2 39  1  0
 39 40  2  0
 40 41  1  0
 40 42  1  0
 42 43  2  0
 43 44  1  0
 43 45  1  0
 45 46  1  0
 45 47  2  0
 47 48  1  0
 18  5  1  0
 36 22  1  0
 47 39  1  0
 15  7  1  0
M  END
>  <UniqueID>  (4) 
461

>  <SMILES>  (4) 
S=c1c2cnccc2nc(/C=C/c2cccnc2)n1CC1CCCCC1

>  <Energy>  (4) 
75.6784312079686

>  <Genealogy>  (4) 
S=c1c2cnccc2nc(/C=C/c2cccnc2)n1CC1CCCCC1 (cis-trans isomerization)
S=c1c2cnccc2nc(/C=C/c2cccnc2)n1CC1CCCCC1 (3D coordinates assigned)
S=c1c2cnccc2nc(/C=C/c2cccnc2)n1CC1CCCCC1 (nonaromatic ring conformer: 75.6784312079686 kcal/mol)

>  <smiles>  (4) 
S=c1c2cnccc2nc(/C=C/c2cccnc2)n1CC1CCCCC1

>  <score_type>  (4) 
oracle

>  <origin>  (4) 
autodockgpu

>  <m_score__min__energy>  (4) 
-7.1799999999999997

>  <m_primary>  (4) 
energy

>  <meeko>  (4) 
{"free_energy": -6.45, "intermolecular_energy": -7.94, "internal_energy": -1.84, "cluster_size": 9, "cluster_id": 4, "rank_in_cluster": 4}

>  <energy>  (4) 
-7.1

>  <cluster_rmsd>  (4) 
0.14

>  <rmsd>  (4) 
270.17

>  <cluster>  (4) 
2

$$$$
VFWNAPSESRSYPS-CMDGGOBGNA-N
     RDKit          3D

 48 51  0  0  0  0  0  0  0  0999 V2000
  143.6843   76.0504  218.1172 H   0  0  0  0  0  0  0  0  0  0  0  0
  143.5950   75.6480  219.1370 C   0  0  0  0  0  0  0  0  0  0  0  0
  142.7220   76.2310  219.9730 C   0  0  0  0  0  0  0  0  0  0  0  0
  142.8516   77.2946  220.2219 H   0  0  0  0  0  0  0  0  0  0  0  0
  141.5800   75.4810  220.5760 C   0  0  0  0  0  0  0  0  0  0  0  0
  141.7780   74.1620  220.8320 N   0  0  0  0  0  0  0  0  0  0  0  0
  140.8320   73.3760  221.3810 C   0  0  0  0  0  0  0  0  0  0  0  0
  141.1000   72.0240  221.6010 C   0  0  0  0  0  0  0  0  0  0  0  0
  142.0737   71.5979  221.3175 H   0  0  0  0  0  0  0  0  0  0  0  0
  140.1230   71.2190  222.1830 C   0  0  0  0  0  0  0  0  0  0  0  0
  140.3227   70.1521  222.3613 H   0  0  0  0  0  0  0  0  0  0  0  0
  138.9230   71.7540  222.5300 N   0  0  0  0  0  0  0  0  0  0  0  0
  138.6370   73.0670  222.3300 C   0  0  0  0  0  0  0  0  0  0  0  0
  137.6550   73.4640  222.6268 H   0  0  0  0  0  0  0  0  0  0  0  0
  139.5950   73.9270  221.7420 C   0  0  0  0  0  0  0  0  0  0  0  0
  139.3800   75.3080  221.5030 C   0  0  0  0  0  0  0  0  0  0  0  0
  137.9920   76.0040  222.0820 S   0  0  0  0  0  0  0  0  0  0  0  0
  140.3540   76.0650  220.8630 N   0  0  0  0  0  0  0  0  0  0  0  0
  140.1050   77.4980  220.5280 C   0  0  0  0  0  0  0  0  0  0  0  0
  140.6049   77.7203  219.5737 H   0  0  0  0  0  0  0  0  0  0  0  0
  139.0133   77.6243  220.4793 H   0  0  0  0  0  0  0  0  0  0  0  0
  140.6230   78.5080  221.5970 C   0  0  0  0  0  0  0  0  0  0  0  0
  139.7703   79.1874  221.7432 H   0  0  0  0  0  0  0  0  0  0  0  0
  140.9290   77.8780  222.9830 C   0  0  0  0  0  0  0  0  0  0  0  0
  139.9764   77.7114  223.5072 H   0  0  0  0  0  0  0  0  0  0  0  0
  141.4743   76.9408  222.7980 H   0  0  0  0  0  0  0  0  0  0  0  0
  141.8310   78.7580  223.8770 C   0  0  0  0  0  0  0  0  0  0  0  0
  141.5319   78.6207  224.9266 H   0  0  0  0  0  0  0  0  0  0  0  0
  142.8738   78.4479  223.7148 H   0  0  0  0  0  0  0  0  0  0  0  0
  141.7210   80.2430  223.5230 C   0  0  0  0  0  0  0  0  0  0  0  0
  140.6781   80.5662  223.6570 H   0  0  0  0  0  0  0  0  0  0  0  0
  142.3936   80.8069  224.1860 H   0  0  0  0  0  0  0  0  0  0  0  0
  142.1440   80.5080  222.0660 C   0  0  0  0  0  0  0  0  0  0  0  0
  141.6175   81.4053  221.7086 H   0  0  0  0  0  0  0  0  0  0  0  0
  143.2365   80.6363  222.0652 H   0  0  0  0  0  0  0  0  0  0  0  0
  141.8240   79.3400  221.1080 C   0  0  0  0  0  0  0  0  0  0  0  0
  141.5919   79.7491  220.1136 H   0  0  0  0  0  0  0  0  0  0  0  0
  142.7030   78.6798  221.0700 H   0  0  0  0  0  0  0  0  0  0  0  0
  144.4470   74.4910  219.5100 C   0  0  0  0  0  0  0  0  0  0  0  0
  144.8240   73.5750  218.5150 C   0  0  0  0  0  0  0  0  0  0  0  0
  144.4935   73.7296  217.4773 H   0  0  0  0  0  0  0  0  0  0  0  0
  145.5940   72.4990  218.8240 N   0  0  0  0  0  0  0  0  0  0  0  0
  146.0180   72.2640  220.0930 C   0  0  0  0  0  0  0  0  0  0  0  0
  146.6461   71.3871  220.3089 H   0  0  0  0  0  0  0  0  0  0  0  0
  145.6580   73.1330  221.1220 C   0  0  0  0  0  0  0  0  0  0  0  0
  145.9939   72.9429  222.1521 H   0  0  0  0  0  0  0  0  0  0  0  0
  144.8670   74.2470  220.8330 C   0  0  0  0  0  0  0  0  0  0  0  0
  144.5714   74.9349  221.6389 H   0  0  0  0  0  0  0  0  0  0  0  0
  1  2  1  0
  2  3  2  0
  3  4  1  0
  3  5  1  0
  5  6  2  0
  6  7  1  0
  7  8  2  0
  8  9  1  0
  8 10  1  0
 10 11  1  0
 10 12  2  0
 12 13  1  0
 13 14  1  0
 13 15  2  0
 15 16  1  0
 16 17  2  0
 16 18  1  0
 18 19  1  0
 19 20  1  0
 19 21  1  0
 19 22  1  0
 22 23  1  0
 22 24  1  0
 24 25  1  0
 24 26  1  0
 24 27  1  0
 27 28  1  0
 27 29  1  0
 27 30  1  0
 30 31  1  0
 30 32  1  0
 30 33  1  0
 33 34  1  0
 33 35  1  0
 33 36  1  0
 36 37  1  0
 36 38  1  0
  2 39  1  0
 39 40  2  0
 40 41  1  0
 40 42  1  0
 42 43  2  0
 43 44  1  0
 43 45  1  0
 45 46  1  0
 45 47  2  0
 47 48  1  0
 18  5  1  0
 36 22  1  0
 47 39  1  0
 15  7  1  0
M  END
>  <UniqueID>  (5) 
461

>  <SMILES>  (5) 
S=c1c2cnccc2nc(/C=C/c2cccnc2)n1CC1CCCCC1

>  <Energy>  (5) 
75.6784312079686

>  <Genealogy>  (5) 
S=c1c2cnccc2nc(/C=C/c2cccnc2)n1CC1CCCCC1 (cis-trans isomerization)
S=c1c2cnccc2nc(/C=C/c2cccnc2)n1CC1CCCCC1 (3D coordinates assigned)
S=c1c2cnccc2nc(/C=C/c2cccnc2)n1CC1CCCCC1 (nonaromatic ring conformer: 75.6784312079686 kcal/mol)

>  <smiles>  (5) 
S=c1c2cnccc2nc(/C=C/c2cccnc2)n1CC1CCCCC1

>  <score_type>  (5) 
oracle

>  <origin>  (5) 
autodockgpu

>  <m_score__min__energy>  (5) 
-7.1799999999999997

>  <m_primary>  (5) 
energy

>  <meeko>  (5) 
{"free_energy": -6.95, "intermolecular_energy": -8.44, "internal_energy": -1.48, "cluster_size": 7, "cluster_id": 2, "rank_in_cluster": 5}

>  <energy>  (5) 
-7.06

>  <cluster_rmsd>  (5) 
0.82

>  <rmsd>  (5) 
270.19

>  <cluster>  (5) 
2

$$$$
VFWNAPSESRSYPS-CMDGGOBGNA-N
     RDKit          3D

 48 51  0  0  0  0  0  0  0  0999 V2000
  143.6816   75.8425  218.1615 H   0  0  0  0  0  0  0  0  0  0  0  0
  143.6570   75.4640  219.1940 C   0  0  0  0  0  0  0  0  0  0  0  0
  142.8220   76.0540  220.0650 C   0  0  0  0  0  0  0  0  0  0  0  0
  143.0070   77.0985  220.3563 H   0  0  0  0  0  0  0  0  0  0  0  0
  141.6510   75.3370  220.6500 C   0  0  0  0  0  0  0  0  0  0  0  0
  141.7850   74.0000  220.8470 N   0  0  0  0  0  0  0  0  0  0  0  0
  140.8060   73.2390  221.3730 C   0  0  0  0  0  0  0  0  0  0  0  0
  141.0080   71.8660  221.5320 C   0  0  0  0  0  0  0  0  0  0  0  0
  141.9557   71.4043  221.2180 H   0  0  0  0  0  0  0  0  0  0  0  0
  139.9980   71.0870  222.0920 C   0  0  0  0  0  0  0  0  0  0  0  0
  140.1454   70.0046  222.2215 H   0  0  0  0  0  0  0  0  0  0  0  0
  138.8310   71.6650  222.4780 N   0  0  0  0  0  0  0  0  0  0  0  0
  138.6090   72.9980  222.3380 C   0  0  0  0  0  0  0  0  0  0  0  0
  137.6514   73.4301  222.6640 H   0  0  0  0  0  0  0  0  0  0  0  0
  139.6030   73.8340  221.7750 C   0  0  0  0  0  0  0  0  0  0  0  0
  139.4550   75.2330  221.5990 C   0  0  0  0  0  0  0  0  0  0  0  0
  138.1110   75.9720  222.2250 S   0  0  0  0  0  0  0  0  0  0  0  0
  140.4590   75.9680  220.9780 N   0  0  0  0  0  0  0  0  0  0  0  0
  140.2790   77.4250  220.7090 C   0  0  0  0  0  0  0  0  0  0  0  0
  140.5191   77.6119  219.6519 H   0  0  0  0  0  0  0  0  0  0  0  0
  139.2352   77.6640  220.9605 H   0  0  0  0  0  0  0  0  0  0  0  0
  141.1720   78.3570  221.5840 C   0  0  0  0  0  0  0  0  0  0  0  0
  142.1727   77.9081  221.5003 H   0  0  0  0  0  0  0  0  0  0  0  0
  141.2960   79.8110  221.0560 C   0  0  0  0  0  0  0  0  0  0  0  0
  142.0036   79.8159  220.2138 H   0  0  0  0  0  0  0  0  0  0  0  0
  140.2874   80.1326  220.7571 H   0  0  0  0  0  0  0  0  0  0  0  0
  141.7950   80.8150  222.1190 C   0  0  0  0  0  0  0  0  0  0  0  0
  142.4116   81.5791  221.6231 H   0  0  0  0  0  0  0  0  0  0  0  0
  140.9137   81.2635  222.6008 H   0  0  0  0  0  0  0  0  0  0  0  0
  142.6310   80.1360  223.2060 C   0  0  0  0  0  0  0  0  0  0  0  0
  143.5066   79.6612  222.7393 H   0  0  0  0  0  0  0  0  0  0  0  0
  142.9418   80.9019  223.9318 H   0  0  0  0  0  0  0  0  0  0  0  0
  141.8180   79.0620  223.9540 C   0  0  0  0  0  0  0  0  0  0  0  0
  142.5151   78.3026  224.3379 H   0  0  0  0  0  0  0  0  0  0  0  0
  141.2718   79.5736  224.7602 H   0  0  0  0  0  0  0  0  0  0  0  0
  140.7660   78.3570  223.0700 C   0  0  0  0  0  0  0  0  0  0  0  0
  140.6566   77.3162  223.4088 H   0  0  0  0  0  0  0  0  0  0  0  0
  139.8177   78.9064  223.1645 H   0  0  0  0  0  0  0  0  0  0  0  0
  144.5480   74.3310  219.5450 C   0  0  0  0  0  0  0  0  0  0  0  0
  144.8460   73.3710  218.5650 C   0  0  0  0  0  0  0  0  0  0  0  0
  144.4257   73.4748  217.5538 H   0  0  0  0  0  0  0  0  0  0  0  0
  145.6500   72.3140  218.8560 N   0  0  0  0  0  0  0  0  0  0  0  0
  146.1840   72.1420  220.0930 C   0  0  0  0  0  0  0  0  0  0  0  0
  146.8374   71.2803  220.2945 H   0  0  0  0  0  0  0  0  0  0  0  0
  145.9050   73.0560  221.1070 C   0  0  0  0  0  0  0  0  0  0  0  0
  146.3294   72.9157  222.1121 H   0  0  0  0  0  0  0  0  0  0  0  0
  145.0820   74.1520  220.8370 C   0  0  0  0  0  0  0  0  0  0  0  0
  144.8507   74.8753  221.6328 H   0  0  0  0  0  0  0  0  0  0  0  0
  1  2  1  0
  2  3  2  0
  3  4  1  0
  3  5  1  0
  5  6  2  0
  6  7  1  0
  7  8  2  0
  8  9  1  0
  8 10  1  0
 10 11  1  0
 10 12  2  0
 12 13  1  0
 13 14  1  0
 13 15  2  0
 15 16  1  0
 16 17  2  0
 16 18  1  0
 18 19  1  0
 19 20  1  0
 19 21  1  0
 19 22  1  0
 22 23  1  0
 22 24  1  0
 24 25  1  0
 24 26  1  0
 24 27  1  0
 27 28  1  0
 27 29  1  0
 27 30  1  0
 30 31  1  0
 30 32  1  0
 30 33  1  0
 33 34  1  0
 33 35  1  0
 33 36  1  0
 36 37  1  0
 36 38  1  0
  2 39  1  0
 39 40  2  0
 40 41  1  0
 40 42  1  0
 42 43  2  0
 43 44  1  0
 43 45  1  0
 45 46  1  0
 45 47  2  0
 47 48  1  0
 18  5  1  0
 36 22  1  0
 47 39  1  0
 15  7  1  0
M  END
>  <UniqueID>  (6) 
461

>  <SMILES>  (6) 
S=c1c2cnccc2nc(/C=C/c2cccnc2)n1CC1CCCCC1

>  <Energy>  (6) 
75.6784312079686

>  <Genealogy>  (6) 
S=c1c2cnccc2nc(/C=C/c2cccnc2)n1CC1CCCCC1 (cis-trans isomerization)
S=c1c2cnccc2nc(/C=C/c2cccnc2)n1CC1CCCCC1 (3D coordinates assigned)
S=c1c2cnccc2nc(/C=C/c2cccnc2)n1CC1CCCCC1 (nonaromatic ring conformer: 75.6784312079686 kcal/mol)

>  <smiles>  (6) 
S=c1c2cnccc2nc(/C=C/c2cccnc2)n1CC1CCCCC1

>  <score_type>  (6) 
oracle

>  <origin>  (6) 
autodockgpu

>  <m_score__min__energy>  (6) 
-7.1799999999999997

>  <m_primary>  (6) 
energy

>  <meeko>  (6) 
{"free_energy": -7.1, "intermolecular_energy": -8.59, "internal_energy": -1.34, "cluster_size": 7, "cluster_id": 2, "rank_in_cluster": 3}

>  <energy>  (6) 
-6.95

>  <cluster_rmsd>  (6) 
0.36

>  <rmsd>  (6) 
270.13

>  <cluster>  (6) 
2

$$$$
VFWNAPSESRSYPS-CMDGGOBGNA-N
     RDKit          3D

 48 51  0  0  0  0  0  0  0  0999 V2000
  143.6301   75.9010  218.1635 H   0  0  0  0  0  0  0  0  0  0  0  0
  143.5940   75.5100  219.1910 C   0  0  0  0  0  0  0  0  0  0  0  0
  142.7500   76.0890  220.0600 C   0  0  0  0  0  0  0  0  0  0  0  0
  142.9168   77.1381  220.3457 H   0  0  0  0  0  0  0  0  0  0  0  0
  141.5920   75.3540  220.6510 C   0  0  0  0  0  0  0  0  0  0  0  0
  141.7330   74.0130  220.8110 N   0  0  0  0  0  0  0  0  0  0  0  0
  140.7670   73.2370  221.3380 C   0  0  0  0  0  0  0  0  0  0  0  0
  140.9750   71.8610  221.4570 C   0  0  0  0  0  0  0  0  0  0  0  0
  141.9168   71.4099  221.1112 H   0  0  0  0  0  0  0  0  0  0  0  0
  139.9780   71.0650  222.0180 C   0  0  0  0  0  0  0  0  0  0  0  0
  140.1303   69.9801  222.1166 H   0  0  0  0  0  0  0  0  0  0  0  0
  138.8180   71.6300  222.4430 N   0  0  0  0  0  0  0  0  0  0  0  0
  138.5910   72.9670  222.3420 C   0  0  0  0  0  0  0  0  0  0  0  0
  137.6399   73.3886  222.6993 H   0  0  0  0  0  0  0  0  0  0  0  0
  139.5710   73.8190  221.7800 C   0  0  0  0  0  0  0  0  0  0  0  0
  139.4170   75.2220  221.6430 C   0  0  0  0  0  0  0  0  0  0  0  0
  138.0850   75.9410  222.3160 S   0  0  0  0  0  0  0  0  0  0  0  0
  140.4070   75.9750  221.0200 N   0  0  0  0  0  0  0  0  0  0  0  0
  140.2180   77.4370  220.7920 C   0  0  0  0  0  0  0  0  0  0  0  0
  140.3870   77.6436  219.7249 H   0  0  0  0  0  0  0  0  0  0  0  0
  139.1950   77.6763  221.1179 H   0  0  0  0  0  0  0  0  0  0  0  0
  141.1750   78.3470  221.6230 C   0  0  0  0  0  0  0  0  0  0  0  0
  142.1290   77.7996  221.6071 H   0  0  0  0  0  0  0  0  0  0  0  0
  141.4530   79.7370  220.9890 C   0  0  0  0  0  0  0  0  0  0  0  0
  142.1787   79.6081  220.1725 H   0  0  0  0  0  0  0  0  0  0  0  0
  140.4885   80.1283  220.6330 H   0  0  0  0  0  0  0  0  0  0  0  0
  142.0200   80.7690  221.9880 C   0  0  0  0  0  0  0  0  0  0  0  0
  142.7198   81.4300  221.4557 H   0  0  0  0  0  0  0  0  0  0  0  0
  141.1743   81.3350  222.4057 H   0  0  0  0  0  0  0  0  0  0  0  0
  142.7590   80.1020  223.1500 C   0  0  0  0  0  0  0  0  0  0  0  0
  143.5956   79.5106  222.7495 H   0  0  0  0  0  0  0  0  0  0  0  0
  143.1251   80.8899  223.8247 H   0  0  0  0  0  0  0  0  0  0  0  0
  141.8270   79.1730  223.9510 C   0  0  0  0  0  0  0  0  0  0  0  0
  142.4371   78.3840  224.4150 H   0  0  0  0  0  0  0  0  0  0  0  0
  141.3127   79.7966  224.6971 H   0  0  0  0  0  0  0  0  0  0  0  0
  140.7350   78.5030  223.0900 C   0  0  0  0  0  0  0  0  0  0  0  0
  140.5173   77.5073  223.5036 H   0  0  0  0  0  0  0  0  0  0  0  0
  139.8424   79.1455  223.1114 H   0  0  0  0  0  0  0  0  0  0  0  0
  144.4810   74.3720  219.5390 C   0  0  0  0  0  0  0  0  0  0  0  0
  144.8110   73.4380  218.5440 C   0  0  0  0  0  0  0  0  0  0  0  0
  144.4177   73.5649  217.5246 H   0  0  0  0  0  0  0  0  0  0  0  0
  145.6120   72.3790  218.8300 N   0  0  0  0  0  0  0  0  0  0  0  0
  146.1140   72.1780  220.0770 C   0  0  0  0  0  0  0  0  0  0  0  0
  146.7660   71.3143  220.2745 H   0  0  0  0  0  0  0  0  0  0  0  0
  145.8030   73.0660  221.1060 C   0  0  0  0  0  0  0  0  0  0  0  0
  146.2013   72.9035  222.1184 H   0  0  0  0  0  0  0  0  0  0  0  0
  144.9810   74.1640  220.8400 C   0  0  0  0  0  0  0  0  0  0  0  0
  144.7240   74.8665  221.6465 H   0  0  0  0  0  0  0  0  0  0  0  0
  1  2  1  0
  2  3  2  0
  3  4  1  0
  3  5  1  0
  5  6  2  0
  6  7  1  0
  7  8  2  0
  8  9  1  0
  8 10  1  0
 10 11  1  0
 10 12  2  0
 12 13  1  0
 13 14  1  0
 13 15  2  0
 15 16  1  0
 16 17  2  0
 16 18  1  0
 18 19  1  0
 19 20  1  0
 19 21  1  0
 19 22  1  0
 22 23  1  0
 22 24  1  0
 24 25  1  0
 24 26  1  0
 24 27  1  0
 27 28  1  0
 27 29  1  0
 27 30  1  0
 30 31  1  0
 30 32  1  0
 30 33  1  0
 33 34  1  0
 33 35  1  0
 33 36  1  0
 36 37  1  0
 36 38  1  0
  2 39  1  0
 39 40  2  0
 40 41  1  0
 40 42  1  0
 42 43  2  0
 43 44  1  0
 43 45  1  0
 45 46  1  0
 45 47  2  0
 47 48  1  0
 18  5  1  0
 36 22  1  0
 47 39  1  0
 15  7  1  0
M  END
>  <UniqueID>  (7) 
461

>  <SMILES>  (7) 
S=c1c2cnccc2nc(/C=C/c2cccnc2)n1CC1CCCCC1

>  <Energy>  (7) 
75.6784312079686

>  <Genealogy>  (7) 
S=c1c2cnccc2nc(/C=C/c2cccnc2)n1CC1CCCCC1 (cis-trans isomerization)
S=c1c2cnccc2nc(/C=C/c2cccnc2)n1CC1CCCCC1 (3D coordinates assigned)
S=c1c2cnccc2nc(/C=C/c2cccnc2)n1CC1CCCCC1 (nonaromatic ring conformer: 75.6784312079686 kcal/mol)

>  <smiles>  (7) 
S=c1c2cnccc2nc(/C=C/c2cccnc2)n1CC1CCCCC1

>  <score_type>  (7) 
oracle

>  <origin>  (7) 
autodockgpu

>  <m_score__min__energy>  (7) 
-7.1799999999999997

>  <m_primary>  (7) 
energy

>  <meeko>  (7) 
{"free_energy": -7.14, "intermolecular_energy": -8.63, "internal_energy": -1.33, "cluster_size": 7, "cluster_id": 2, "rank_in_cluster": 2}

>  <energy>  (7) 
-6.92

>  <cluster_rmsd>  (7) 
0.37

>  <rmsd>  (7) 
270.1

>  <cluster>  (7) 
2

$$$$
VFWNAPSESRSYPS-CMDGGOBGNA-N
     RDKit          3D

 48 51  0  0  0  0  0  0  0  0999 V2000
  143.6409   75.9130  218.1484 H   0  0  0  0  0  0  0  0  0  0  0  0
  143.5870   75.5190  219.1740 C   0  0  0  0  0  0  0  0  0  0  0  0
  142.7370   76.1030  220.0330 C   0  0  0  0  0  0  0  0  0  0  0  0
  142.8970   77.1560  220.3080 H   0  0  0  0  0  0  0  0  0  0  0  0
  141.5810   75.3680  220.6270 C   0  0  0  0  0  0  0  0  0  0  0  0
  141.7160   74.0250  220.7730 N   0  0  0  0  0  0  0  0  0  0  0  0
  140.7510   73.2480  221.3020 C   0  0  0  0  0  0  0  0  0  0  0  0
  140.9530   71.8710  221.4070 C   0  0  0  0  0  0  0  0  0  0  0  0
  141.8893   71.4184  221.0485 H   0  0  0  0  0  0  0  0  0  0  0  0
  139.9580   71.0750  221.9700 C   0  0  0  0  0  0  0  0  0  0  0  0
  140.1064   69.9886  222.0580 H   0  0  0  0  0  0  0  0  0  0  0  0
  138.8050   71.6410  222.4100 N   0  0  0  0  0  0  0  0  0  0  0  0
  138.5830   72.9790  222.3240 C   0  0  0  0  0  0  0  0  0  0  0  0
  137.6374   73.4015  222.6947 H   0  0  0  0  0  0  0  0  0  0  0  0
  139.5620   73.8320  221.7600 C   0  0  0  0  0  0  0  0  0  0  0  0
  139.4140   75.2370  221.6370 C   0  0  0  0  0  0  0  0  0  0  0  0
  138.0910   75.9570  222.3290 S   0  0  0  0  0  0  0  0  0  0  0  0
  140.4010   75.9910  221.0130 N   0  0  0  0  0  0  0  0  0  0  0  0
  140.2180   77.4560  220.8000 C   0  0  0  0  0  0  0  0  0  0  0  0
  140.3774   77.6712  219.7331 H   0  0  0  0  0  0  0  0  0  0  0  0
  139.1997   77.6980  221.1384 H   0  0  0  0  0  0  0  0  0  0  0  0
  141.1880   78.3530  221.6290 C   0  0  0  0  0  0  0  0  0  0  0  0
  142.1222   77.7725  221.6471 H   0  0  0  0  0  0  0  0  0  0  0  0
  141.5270   79.7170  220.9680 C   0  0  0  0  0  0  0  0  0  0  0  0
  142.2651   79.5433  220.1711 H   0  0  0  0  0  0  0  0  0  0  0  0
  140.5840   80.1315  220.5820 H   0  0  0  0  0  0  0  0  0  0  0  0
  142.1080   80.7550  221.9540 C   0  0  0  0  0  0  0  0  0  0  0  0
  142.8417   81.3780  221.4215 H   0  0  0  0  0  0  0  0  0  0  0  0
  141.2740   81.3606  222.3384 H   0  0  0  0  0  0  0  0  0  0  0  0
  142.7980   80.0920  223.1480 C   0  0  0  0  0  0  0  0  0  0  0  0
  143.6216   79.4623  222.7805 H   0  0  0  0  0  0  0  0  0  0  0  0
  143.1765   80.8837  223.8113 H   0  0  0  0  0  0  0  0  0  0  0  0
  141.8180   79.2160  223.9510 C   0  0  0  0  0  0  0  0  0  0  0  0
  142.3904   78.4187  224.4476 H   0  0  0  0  0  0  0  0  0  0  0  0
  141.3099   79.8751  224.6704 H   0  0  0  0  0  0  0  0  0  0  0  0
  140.7220   78.5620  223.0820 C   0  0  0  0  0  0  0  0  0  0  0  0
  140.4605   77.5853  223.5153 H   0  0  0  0  0  0  0  0  0  0  0  0
  139.8524   79.2355  223.0670 H   0  0  0  0  0  0  0  0  0  0  0  0
  144.4580   74.3720  219.5300 C   0  0  0  0  0  0  0  0  0  0  0  0
  144.8020   73.4440  218.5330 C   0  0  0  0  0  0  0  0  0  0  0  0
  144.4315   73.5830  217.5066 H   0  0  0  0  0  0  0  0  0  0  0  0
  145.5890   72.3760  218.8270 N   0  0  0  0  0  0  0  0  0  0  0  0
  146.0630   72.1600  220.0820 C   0  0  0  0  0  0  0  0  0  0  0  0
  146.7042   71.2896  220.2853 H   0  0  0  0  0  0  0  0  0  0  0  0
  145.7370   73.0410  221.1120 C   0  0  0  0  0  0  0  0  0  0  0  0
  146.1126   72.8668  222.1311 H   0  0  0  0  0  0  0  0  0  0  0  0
  144.9290   74.1470  220.8380 C   0  0  0  0  0  0  0  0  0  0  0  0
  144.6600   74.8437  221.6456 H   0  0  0  0  0  0  0  0  0  0  0  0
  1  2  1  0
  2  3  2  0
  3  4  1  0
  3  5  1  0
  5  6  2  0
  6  7  1  0
  7  8  2  0
  8  9  1  0
  8 10  1  0
 10 11  1  0
 10 12  2  0
 12 13  1  0
 13 14  1  0
 13 15  2  0
 15 16  1  0
 16 17  2  0
 16 18  1  0
 18 19  1  0
 19 20  1  0
 19 21  1  0
 19 22  1  0
 22 23  1  0
 22 24  1  0
 24 25  1  0
 24 26  1  0
 24 27  1  0
 27 28  1  0
 27 29  1  0
 27 30  1  0
 30 31  1  0
 30 32  1  0
 30 33  1  0
 33 34  1  0
 33 35  1  0
 33 36  1  0
 36 37  1  0
 36 38  1  0
  2 39  1  0
 39 40  2  0
 40 41  1  0
 40 42  1  0
 42 43  2  0
 43 44  1  0
 43 45  1  0
 45 46  1  0
 45 47  2  0
 47 48  1  0
 18  5  1  0
 36 22  1  0
 47 39  1  0
 15  7  1  0
M  END
>  <UniqueID>  (8) 
461

>  <SMILES>  (8) 
S=c1c2cnccc2nc(/C=C/c2cccnc2)n1CC1CCCCC1

>  <Energy>  (8) 
75.6784312079686

>  <Genealogy>  (8) 
S=c1c2cnccc2nc(/C=C/c2cccnc2)n1CC1CCCCC1 (cis-trans isomerization)
S=c1c2cnccc2nc(/C=C/c2cccnc2)n1CC1CCCCC1 (3D coordinates assigned)
S=c1c2cnccc2nc(/C=C/c2cccnc2)n1CC1CCCCC1 (nonaromatic ring conformer: 75.6784312079686 kcal/mol)

>  <smiles>  (8) 
S=c1c2cnccc2nc(/C=C/c2cccnc2)n1CC1CCCCC1

>  <score_type>  (8) 
oracle

>  <origin>  (8) 
autodockgpu

>  <m_score__min__energy>  (8) 
-7.1799999999999997

>  <m_primary>  (8) 
energy

>  <meeko>  (8) 
{"free_energy": -7.14, "intermolecular_energy": -8.63, "internal_energy": -1.32, "cluster_size": 7, "cluster_id": 2, "rank_in_cluster": 1}

>  <energy>  (8) 
-6.74

>  <cluster_rmsd>  (8) 
0.64

>  <rmsd>  (8) 
270.09

>  <cluster>  (8) 
2

$$$$
VFWNAPSESRSYPS-CMDGGOBGNA-N
     RDKit          3D

 48 51  0  0  0  0  0  0  0  0999 V2000
  141.2346   76.0331  223.0805 H   0  0  0  0  0  0  0  0  0  0  0  0
  141.0760   76.7620  222.2720 C   0  0  0  0  0  0  0  0  0  0  0  0
  140.8780   76.2960  221.0290 C   0  0  0  0  0  0  0  0  0  0  0  0
  139.8704   76.3557  220.5918 H   0  0  0  0  0  0  0  0  0  0  0  0
  141.9830   75.6990  220.2210 C   0  0  0  0  0  0  0  0  0  0  0  0
  142.7910   74.8070  220.8490 N   0  0  0  0  0  0  0  0  0  0  0  0
  143.8180   74.1930  220.2300 C   0  0  0  0  0  0  0  0  0  0  0  0
  144.6180   73.2980  220.9440 C   0  0  0  0  0  0  0  0  0  0  0  0
  144.4201   73.1036  222.0084 H   0  0  0  0  0  0  0  0  0  0  0  0
  145.6690   72.6540  220.2950 C   0  0  0  0  0  0  0  0  0  0  0  0
  146.3065   71.9476  220.8469 H   0  0  0  0  0  0  0  0  0  0  0  0
  145.9060   72.8990  218.9800 N   0  0  0  0  0  0  0  0  0  0  0  0
  145.1410   73.7620  218.2610 C   0  0  0  0  0  0  0  0  0  0  0  0
  145.3619   73.9322  217.1969 H   0  0  0  0  0  0  0  0  0  0  0  0
  144.0620   74.4430  218.8730 C   0  0  0  0  0  0  0  0  0  0  0  0
  143.2130   75.3540  218.1960 C   0  0  0  0  0  0  0  0  0  0  0  0
  143.3830   75.5250  216.5560 S   0  0  0  0  0  0  0  0  0  0  0  0
  142.2130   76.0260  218.8910 N   0  0  0  0  0  0  0  0  0  0  0  0
  141.3710   77.0510  218.2090 C   0  0  0  0  0  0  0  0  0  0  0  0
  141.6236   77.0469  217.1384 H   0  0  0  0  0  0  0  0  0  0  0  0
  140.3236   76.7769  218.4034 H   0  0  0  0  0  0  0  0  0  0  0  0
  141.5590   78.5020  218.7490 C   0  0  0  0  0  0  0  0  0  0  0  0
  141.9991   78.3495  219.7455 H   0  0  0  0  0  0  0  0  0  0  0  0
  142.5710   79.3620  217.9450 C   0  0  0  0  0  0  0  0  0  0  0  0
  143.5890   79.0552  218.2269 H   0  0  0  0  0  0  0  0  0  0  0  0
  142.3628   79.1918  216.8784 H   0  0  0  0  0  0  0  0  0  0  0  0
  142.4310   80.8790  218.1970 C   0  0  0  0  0  0  0  0  0  0  0  0
  143.4279   81.3408  218.1420 H   0  0  0  0  0  0  0  0  0  0  0  0
  141.7575   81.2882  217.4296 H   0  0  0  0  0  0  0  0  0  0  0  0
  141.8220   81.1830  219.5670 C   0  0  0  0  0  0  0  0  0  0  0  0
  142.4705   80.7601  220.3484 H   0  0  0  0  0  0  0  0  0  0  0  0
  141.7409   82.2747  219.6746 H   0  0  0  0  0  0  0  0  0  0  0  0
  140.4120   80.5770  219.7040 C   0  0  0  0  0  0  0  0  0  0  0  0
  140.2202   80.3788  220.7689 H   0  0  0  0  0  0  0  0  0  0  0  0
  139.7045   81.3054  219.2810 H   0  0  0  0  0  0  0  0  0  0  0  0
  140.2290   79.2590  218.9210 C   0  0  0  0  0  0  0  0  0  0  0  0
  139.5225   78.6165  219.4670 H   0  0  0  0  0  0  0  0  0  0  0  0
  139.8474   79.5082  217.9199 H   0  0  0  0  0  0  0  0  0  0  0  0
  141.0930   78.2050  222.6170 C   0  0  0  0  0  0  0  0  0  0  0  0
  139.9030   78.8160  223.0450 C   0  0  0  0  0  0  0  0  0  0  0  0
  138.9824   78.2196  223.1274 H   0  0  0  0  0  0  0  0  0  0  0  0
  139.8800   80.1380  223.3580 N   0  0  0  0  0  0  0  0  0  0  0  0
  140.9900   80.9150  223.2630 C   0  0  0  0  0  0  0  0  0  0  0  0
  140.9396   81.9809  223.5302 H   0  0  0  0  0  0  0  0  0  0  0  0
  142.1930   80.3620  222.8270 C   0  0  0  0  0  0  0  0  0  0  0  0
  143.0931   80.9887  222.7428 H   0  0  0  0  0  0  0  0  0  0  0  0
  142.2460   79.0060  222.4980 C   0  0  0  0  0  0  0  0  0  0  0  0
  143.1890   78.5626  222.1455 H   0  0  0  0  0  0  0  0  0  0  0  0
  1  2  1  0
  2  3  2  0
  3  4  1  0
  3  5  1  0
  5  6  2  0
  6  7  1  0
  7  8  2  0
  8  9  1  0
  8 10  1  0
 10 11  1  0
 10 12  2  0
 12 13  1  0
 13 14  1  0
 13 15  2  0
 15 16  1  0
 16 17  2  0
 16 18  1  0
 18 19  1  0
 19 20  1  0
 19 21  1  0
 19 22  1  0
 22 23  1  0
 22 24  1  0
 24 25  1  0
 24 26  1  0
 24 27  1  0
 27 28  1  0
 27 29  1  0
 27 30  1  0
 30 31  1  0
 30 32  1  0
 30 33  1  0
 33 34  1  0
 33 35  1  0
 33 36  1  0
 36 37  1  0
 36 38  1  0
  2 39  1  0
 39 40  2  0
 40 41  1  0
 40 42  1  0
 42 43  2  0
 43 44  1  0
 43 45  1  0
 45 46  1  0
 45 47  2  0
 47 48  1  0
 18  5  1  0
 36 22  1  0
 47 39  1  0
 15  7  1  0
M  END
>  <UniqueID>  (9) 
461

>  <SMILES>  (9) 
S=c1c2cnccc2nc(/C=C/c2cccnc2)n1CC1CCCCC1

>  <Energy>  (9) 
75.6784312079686

>  <Genealogy>  (9) 
S=c1c2cnccc2nc(/C=C/c2cccnc2)n1CC1CCCCC1 (cis-trans isomerization)
S=c1c2cnccc2nc(/C=C/c2cccnc2)n1CC1CCCCC1 (3D coordinates assigned)
S=c1c2cnccc2nc(/C=C/c2cccnc2)n1CC1CCCCC1 (nonaromatic ring conformer: 75.6784312079686 kcal/mol)

>  <smiles>  (9) 
S=c1c2cnccc2nc(/C=C/c2cccnc2)n1CC1CCCCC1

>  <score_type>  (9) 
oracle

>  <origin>  (9) 
autodockgpu

>  <m_score__min__energy>  (9) 
-7.1799999999999997

>  <m_primary>  (9) 
energy

>  <meeko>  (9) 
{"free_energy": -6.43, "intermolecular_energy": -7.92, "internal_energy": -1.85, "cluster_size": 9, "cluster_id": 4, "rank_in_cluster": 5}

>  <energy>  (9) 
-6.81

>  <cluster_rmsd>  (9) 
0.0

>  <rmsd>  (9) 
269.91

>  <cluster>  (9) 
3

$$$$
VFWNAPSESRSYPS-CMDGGOBGNA-N
     RDKit          3D

 48 51  0  0  0  0  0  0  0  0999 V2000
  141.2202   76.1249  223.0583 H   0  0  0  0  0  0  0  0  0  0  0  0
  141.0750   76.8500  222.2440 C   0  0  0  0  0  0  0  0  0  0  0  0
  140.8750   76.3780  221.0030 C   0  0  0  0  0  0  0  0  0  0  0  0
  139.8697   76.4482  220.5620 H   0  0  0  0  0  0  0  0  0  0  0  0
  141.9740   75.7610  220.2030 C   0  0  0  0  0  0  0  0  0  0  0  0
  142.7620   74.8560  220.8380 N   0  0  0  0  0  0  0  0  0  0  0  0
  143.7820   74.2230  220.2270 C   0  0  0  0  0  0  0  0  0  0  0  0
  144.5620   73.3150  220.9480 C   0  0  0  0  0  0  0  0  0  0  0  0
  144.3542   73.1261  222.0116 H   0  0  0  0  0  0  0  0  0  0  0  0
  145.6060   72.6510  220.3060 C   0  0  0  0  0  0  0  0  0  0  0  0
  146.2275   71.9341  220.8626 H   0  0  0  0  0  0  0  0  0  0  0  0
  145.8550   72.8900  218.9930 N   0  0  0  0  0  0  0  0  0  0  0  0
  145.1100   73.7650  218.2670 C   0  0  0  0  0  0  0  0  0  0  0  0
  145.3410   73.9297  217.2042 H   0  0  0  0  0  0  0  0  0  0  0  0
  144.0390   74.4650  218.8710 C   0  0  0  0  0  0  0  0  0  0  0  0
  143.2100   75.3900  218.1860 C   0  0  0  0  0  0  0  0  0  0  0  0
  143.3940   75.5540  216.5480 S   0  0  0  0  0  0  0  0  0  0  0  0
  142.2190   76.0810  218.8740 N   0  0  0  0  0  0  0  0  0  0  0  0
  141.3980   77.1190  218.1850 C   0  0  0  0  0  0  0  0  0  0  0  0
  141.6783   77.1295  217.1214 H   0  0  0  0  0  0  0  0  0  0  0  0
  140.3449   76.8459  218.3478 H   0  0  0  0  0  0  0  0  0  0  0  0
  141.5770   78.5610  218.7510 C   0  0  0  0  0  0  0  0  0  0  0  0
  142.0408   78.3955  219.7346 H   0  0  0  0  0  0  0  0  0  0  0  0
  142.5590   79.4520  217.9430 C   0  0  0  0  0  0  0  0  0  0  0  0
  143.5873   79.1550  218.1969 H   0  0  0  0  0  0  0  0  0  0  0  0
  142.3306   79.2999  216.8778 H   0  0  0  0  0  0  0  0  0  0  0  0
  142.4020   80.9620  218.2290 C   0  0  0  0  0  0  0  0  0  0  0  0
  143.3903   81.4402  218.1618 H   0  0  0  0  0  0  0  0  0  0  0  0
  141.7060   81.3767  217.4849 H   0  0  0  0  0  0  0  0  0  0  0  0
  141.8190   81.2280  219.6180 C   0  0  0  0  0  0  0  0  0  0  0  0
  142.4904   80.7985  220.3761 H   0  0  0  0  0  0  0  0  0  0  0  0
  141.7247   82.3158  219.7510 H   0  0  0  0  0  0  0  0  0  0  0  0
  140.4210   80.5980  219.7720 C   0  0  0  0  0  0  0  0  0  0  0  0
  140.2551   80.3751  220.8363 H   0  0  0  0  0  0  0  0  0  0  0  0
  139.6942   81.3242  219.3791 H   0  0  0  0  0  0  0  0  0  0  0  0
  140.2400   79.2940  218.9660 C   0  0  0  0  0  0  0  0  0  0  0  0
  139.5545   78.6301  219.5131 H   0  0  0  0  0  0  0  0  0  0  0  0
  139.8333   79.5575  217.9785 H   0  0  0  0  0  0  0  0  0  0  0  0
  141.1110   78.2950  222.5780 C   0  0  0  0  0  0  0  0  0  0  0  0
  142.3020   79.0110  222.3720 C   0  0  0  0  0  0  0  0  0  0  0  0
  143.1833   78.4972  221.9606 H   0  0  0  0  0  0  0  0  0  0  0  0
  142.3740   80.3340  222.6770 N   0  0  0  0  0  0  0  0  0  0  0  0
  141.3140   81.0060  223.1960 C   0  0  0  0  0  0  0  0  0  0  0  0
  141.4022   82.0780  223.4264 H   0  0  0  0  0  0  0  0  0  0  0  0
  140.1140   80.3380  223.4370 C   0  0  0  0  0  0  0  0  0  0  0  0
  139.2550   80.8771  223.8630 H   0  0  0  0  0  0  0  0  0  0  0  0
  140.0120   78.9790  223.1330 C   0  0  0  0  0  0  0  0  0  0  0  0
  139.0719   78.4418  223.3272 H   0  0  0  0  0  0  0  0  0  0  0  0
  1  2  1  0
  2  3  2  0
  3  4  1  0
  3  5  1  0
  5  6  2  0
  6  7  1  0
  7  8  2  0
  8  9  1  0
  8 10  1  0
 10 11  1  0
 10 12  2  0
 12 13  1  0
 13 14  1  0
 13 15  2  0
 15 16  1  0
 16 17  2  0
 16 18  1  0
 18 19  1  0
 19 20  1  0
 19 21  1  0
 19 22  1  0
 22 23  1  0
 22 24  1  0
 24 25  1  0
 24 26  1  0
 24 27  1  0
 27 28  1  0
 27 29  1  0
 27 30  1  0
 30 31  1  0
 30 32  1  0
 30 33  1  0
 33 34  1  0
 33 35  1  0
 33 36  1  0
 36 37  1  0
 36 38  1  0
  2 39  1  0
 39 40  2  0
 40 41  1  0
 40 42  1  0
 42 43  2  0
 43 44  1  0
 43 45  1  0
 45 46  1  0
 45 47  2  0
 47 48  1  0
 18  5  1  0
 36 22  1  0
 47 39  1  0
 15  7  1  0
M  END
>  <UniqueID>  (10) 
461

>  <SMILES>  (10) 
S=c1c2cnccc2nc(/C=C/c2cccnc2)n1CC1CCCCC1

>  <Energy>  (10) 
75.6784312079686

>  <Genealogy>  (10) 
S=c1c2cnccc2nc(/C=C/c2cccnc2)n1CC1CCCCC1 (cis-trans isomerization)
S=c1c2cnccc2nc(/C=C/c2cccnc2)n1CC1CCCCC1 (3D coordinates assigned)
S=c1c2cnccc2nc(/C=C/c2cccnc2)n1CC1CCCCC1 (nonaromatic ring conformer: 75.6784312079686 kcal/mol)

>  <smiles>  (10) 
S=c1c2cnccc2nc(/C=C/c2cccnc2)n1CC1CCCCC1

>  <score_type>  (10) 
oracle

>  <origin>  (10) 
autodockgpu

>  <m_score__min__energy>  (10) 
-7.1799999999999997

>  <m_primary>  (10) 
energy

>  <meeko>  (10) 
{"free_energy": -6.36, "intermolecular_energy": -7.86, "internal_energy": -1.86, "cluster_size": 9, "cluster_id": 4, "rank_in_cluster": 7}

>  <energy>  (10) 
-6.47

>  <cluster_rmsd>  (10) 
0.0

>  <rmsd>  (10) 
270.14

>  <cluster>  (10) 
4

$$$$
VFWNAPSESRSYPS-CMDGGOBGNA-N
     RDKit          3D

 48 51  0  0  0  0  0  0  0  0999 V2000
  141.1650   76.0572  223.0215 H   0  0  0  0  0  0  0  0  0  0  0  0
  141.0760   76.8190  222.2330 C   0  0  0  0  0  0  0  0  0  0  0  0
  140.9100   76.4040  220.9660 C   0  0  0  0  0  0  0  0  0  0  0  0
  139.9270   76.5292  220.4885 H   0  0  0  0  0  0  0  0  0  0  0  0
  142.0190   75.7780  220.1860 C   0  0  0  0  0  0  0  0  0  0  0  0
  142.7940   74.8730  220.8380 N   0  0  0  0  0  0  0  0  0  0  0  0
  143.8200   74.2320  220.2460 C   0  0  0  0  0  0  0  0  0  0  0  0
  144.5850   73.3260  220.9830 C   0  0  0  0  0  0  0  0  0  0  0  0
  144.3605   73.1442  222.0444 H   0  0  0  0  0  0  0  0  0  0  0  0
  145.6360   72.6540  220.3610 C   0  0  0  0  0  0  0  0  0  0  0  0
  146.2459   71.9380  220.9314 H   0  0  0  0  0  0  0  0  0  0  0  0
  145.9060   72.8840  219.0510 N   0  0  0  0  0  0  0  0  0  0  0  0
  145.1760   73.7580  218.3090 C   0  0  0  0  0  0  0  0  0  0  0  0
  145.4241   73.9161  217.2491 H   0  0  0  0  0  0  0  0  0  0  0  0
  144.0980   74.4660  218.8930 C   0  0  0  0  0  0  0  0  0  0  0  0
  143.2840   75.3900  218.1910 C   0  0  0  0  0  0  0  0  0  0  0  0
  143.4930   75.5450  216.5540 S   0  0  0  0  0  0  0  0  0  0  0  0
  142.2850   76.0890  218.8600 N   0  0  0  0  0  0  0  0  0  0  0  0
  141.4790   77.1260  218.1520 C   0  0  0  0  0  0  0  0  0  0  0  0
  141.7917   77.1445  217.0975 H   0  0  0  0  0  0  0  0  0  0  0  0
  140.4231   76.8457  218.2805 H   0  0  0  0  0  0  0  0  0  0  0  0
  141.6320   78.5660  218.7320 C   0  0  0  0  0  0  0  0  0  0  0  0
  142.1149   78.4005  219.7064 H   0  0  0  0  0  0  0  0  0  0  0  0
  142.5800   79.4900  217.9200 C   0  0  0  0  0  0  0  0  0  0  0  0
  143.6189   79.2152  218.1551 H   0  0  0  0  0  0  0  0  0  0  0  0
  142.3392   79.3447  216.8566 H   0  0  0  0  0  0  0  0  0  0  0  0
  142.3910   80.9920  218.2260 C   0  0  0  0  0  0  0  0  0  0  0  0
  143.3664   81.4948  218.1496 H   0  0  0  0  0  0  0  0  0  0  0  0
  141.6739   81.3980  217.4974 H   0  0  0  0  0  0  0  0  0  0  0  0
  141.8230   81.2280  219.6270 C   0  0  0  0  0  0  0  0  0  0  0  0
  142.5160   80.8061  220.3698 H   0  0  0  0  0  0  0  0  0  0  0  0
  141.7047   82.3116  219.7744 H   0  0  0  0  0  0  0  0  0  0  0  0
  140.4440   80.5630  219.7940 C   0  0  0  0  0  0  0  0  0  0  0  0
  140.2996   80.3243  220.8580 H   0  0  0  0  0  0  0  0  0  0  0  0
  139.6947   81.2760  219.4197 H   0  0  0  0  0  0  0  0  0  0  0  0
  140.2810   79.2640  218.9760 C   0  0  0  0  0  0  0  0  0  0  0  0
  139.6204   78.5778  219.5261 H   0  0  0  0  0  0  0  0  0  0  0  0
  139.8522   79.5283  217.9981 H   0  0  0  0  0  0  0  0  0  0  0  0
  141.1460   78.2470  222.6280 C   0  0  0  0  0  0  0  0  0  0  0  0
  139.9890   78.8740  223.1180 C   0  0  0  0  0  0  0  0  0  0  0  0
  139.0550   78.3003  223.2104 H   0  0  0  0  0  0  0  0  0  0  0  0
  140.0140   80.1840  223.4790 N   0  0  0  0  0  0  0  0  0  0  0  0
  141.1430   80.9330  223.3740 C   0  0  0  0  0  0  0  0  0  0  0  0
  141.1324   81.9894  223.6804 H   0  0  0  0  0  0  0  0  0  0  0  0
  142.3150   80.3630  222.8780 C   0  0  0  0  0  0  0  0  0  0  0  0
  143.2299   80.9668  222.7861 H   0  0  0  0  0  0  0  0  0  0  0  0
  142.3170   79.0190  222.4990 C   0  0  0  0  0  0  0  0  0  0  0  0
  143.2344   78.5625  222.0991 H   0  0  0  0  0  0  0  0  0  0  0  0
  1  2  1  0
  2  3  2  0
  3  4  1  0
  3  5  1  0
  5  6  2  0
  6  7  1  0
  7  8  2  0
  8  9  1  0
  8 10  1  0
 10 11  1  0
 10 12  2  0
 12 13  1  0
 13 14  1  0
 13 15  2  0
 15 16  1  0
 16 17  2  0
 16 18  1  0
 18 19  1  0
 19 20  1  0
 19 21  1  0
 19 22  1  0
 22 23  1  0
 22 24  1  0
 24 25  1  0
 24 26  1  0
 24 27  1  0
 27 28  1  0
 27 29  1  0
 27 30  1  0
 30 31  1  0
 30 32  1  0
 30 33  1  0
 33 34  1  0
 33 35  1  0
 33 36  1  0
 36 37  1  0
 36 38  1  0
  2 39  1  0
 39 40  2  0
 40 41  1  0
 40 42  1  0
 42 43  2  0
 43 44  1  0
 43 45  1  0
 45 46  1  0
 45 47  2  0
 47 48  1  0
 18  5  1  0
 36 22  1  0
 47 39  1  0
 15  7  1  0
M  END
>  <UniqueID>  (11) 
461

>  <SMILES>  (11) 
S=c1c2cnccc2nc(/C=C/c2cccnc2)n1CC1CCCCC1

>  <Energy>  (11) 
75.6784312079686

>  <Genealogy>  (11) 
S=c1c2cnccc2nc(/C=C/c2cccnc2)n1CC1CCCCC1 (cis-trans isomerization)
S=c1c2cnccc2nc(/C=C/c2cccnc2)n1CC1CCCCC1 (3D coordinates assigned)
S=c1c2cnccc2nc(/C=C/c2cccnc2)n1CC1CCCCC1 (nonaromatic ring conformer: 75.6784312079686 kcal/mol)

>  <smiles>  (11) 
S=c1c2cnccc2nc(/C=C/c2cccnc2)n1CC1CCCCC1

>  <score_type>  (11) 
oracle

>  <origin>  (11) 
autodockgpu

>  <m_score__min__energy>  (11) 
-7.1799999999999997

>  <m_primary>  (11) 
energy

>  <meeko>  (11) 
{"free_energy": -6.47, "intermolecular_energy": -7.96, "internal_energy": -1.83, "cluster_size": 9, "cluster_id": 4, "rank_in_cluster": 1}

>  <energy>  (11) 
-6.45

>  <cluster_rmsd>  (11) 
0.09

>  <rmsd>  (11) 
270.12

>  <cluster>  (11) 
4

$$$$
VFWNAPSESRSYPS-CMDGGOBGNA-N
     RDKit          3D

 48 51  0  0  0  0  0  0  0  0999 V2000
  141.2806   75.9453  223.1315 H   0  0  0  0  0  0  0  0  0  0  0  0
  141.0460   76.6700  222.3380 C   0  0  0  0  0  0  0  0  0  0  0  0
  140.7750   76.1990  221.1100 C   0  0  0  0  0  0  0  0  0  0  0  0
  139.7405   76.2436  220.7388 H   0  0  0  0  0  0  0  0  0  0  0  0
  141.8330   75.6170  220.2330 C   0  0  0  0  0  0  0  0  0  0  0  0
  142.8020   74.8860  220.8420 N   0  0  0  0  0  0  0  0  0  0  0  0
  143.8090   74.3010  220.1640 C   0  0  0  0  0  0  0  0  0  0  0  0
  144.7800   73.5770  220.8590 C   0  0  0  0  0  0  0  0  0  0  0  0
  144.7323   73.4930  221.9547 H   0  0  0  0  0  0  0  0  0  0  0  0
  145.8100   72.9620  220.1500 C   0  0  0  0  0  0  0  0  0  0  0  0
  146.5816   72.3900  220.6860 H   0  0  0  0  0  0  0  0  0  0  0  0
  145.8610   73.0690  218.7970 N   0  0  0  0  0  0  0  0  0  0  0  0
  144.9270   73.7640  218.0960 C   0  0  0  0  0  0  0  0  0  0  0  0
  145.0001   73.8256  217.0002 H   0  0  0  0  0  0  0  0  0  0  0  0
  143.8610   74.4090  218.7670 C   0  0  0  0  0  0  0  0  0  0  0  0
  142.8430   75.1480  218.1130 C   0  0  0  0  0  0  0  0  0  0  0  0
  142.7980   75.1380  216.4570 S   0  0  0  0  0  0  0  0  0  0  0  0
  141.8670   75.8020  218.8570 N   0  0  0  0  0  0  0  0  0  0  0  0
  140.8430   76.6540  218.1860 C   0  0  0  0  0  0  0  0  0  0  0  0
  140.7917   76.3608  217.1270 H   0  0  0  0  0  0  0  0  0  0  0  0
  139.8969   76.4895  218.7225 H   0  0  0  0  0  0  0  0  0  0  0  0
  141.1340   78.1850  218.2550 C   0  0  0  0  0  0  0  0  0  0  0  0
  140.6917   78.5727  217.3254 H   0  0  0  0  0  0  0  0  0  0  0  0
  140.4260   78.9220  219.4240 C   0  0  0  0  0  0  0  0  0  0  0  0
  139.3698   79.0685  219.1538 H   0  0  0  0  0  0  0  0  0  0  0  0
  140.5458   78.2952  220.3200 H   0  0  0  0  0  0  0  0  0  0  0  0
  141.0420   80.3000  219.7500 C   0  0  0  0  0  0  0  0  0  0  0  0
  140.2401   80.9785  220.0766 H   0  0  0  0  0  0  0  0  0  0  0  0
  141.7915   80.1566  220.5422 H   0  0  0  0  0  0  0  0  0  0  0  0
  141.7480   80.9170  218.5400 C   0  0  0  0  0  0  0  0  0  0  0  0
  141.0177   81.0467  217.7277 H   0  0  0  0  0  0  0  0  0  0  0  0
  142.1713   81.8857  218.8441 H   0  0  0  0  0  0  0  0  0  0  0  0
  142.8980   80.0220  218.0410 C   0  0  0  0  0  0  0  0  0  0  0  0
  143.0425   80.2075  216.9664 H   0  0  0  0  0  0  0  0  0  0  0  0
  143.7889   80.2801  218.6323 H   0  0  0  0  0  0  0  0  0  0  0  0
  142.6380   78.5140  218.2460 C   0  0  0  0  0  0  0  0  0  0  0  0
  143.1188   77.9562  217.4289 H   0  0  0  0  0  0  0  0  0  0  0  0
  143.0549   78.2266  219.2225 H   0  0  0  0  0  0  0  0  0  0  0  0
  141.0470   78.1120  222.6850 C   0  0  0  0  0  0  0  0  0  0  0  0
  139.8280   78.7390  222.9920 C   0  0  0  0  0  0  0  0  0  0  0  0
  138.8959   78.1551  222.9797 H   0  0  0  0  0  0  0  0  0  0  0  0
  139.7910   80.0610  223.3040 N   0  0  0  0  0  0  0  0  0  0  0  0
  140.9160   80.8230  223.3210 C   0  0  0  0  0  0  0  0  0  0  0  0
  140.8537   81.8894  223.5835 H   0  0  0  0  0  0  0  0  0  0  0  0
  142.1490   80.2540  223.0060 C   0  0  0  0  0  0  0  0  0  0  0  0
  143.0612   80.8688  223.0127 H   0  0  0  0  0  0  0  0  0  0  0  0
  142.2170   78.8980  222.6820 C   0  0  0  0  0  0  0  0  0  0  0  0
  143.1844   78.4424  222.4241 H   0  0  0  0  0  0  0  0  0  0  0  0
  1  2  1  0
  2  3  2  0
  3  4  1  0
  3  5  1  0
  5  6  2  0
  6  7  1  0
  7  8  2  0
  8  9  1  0
  8 10  1  0
 10 11  1  0
 10 12  2  0
 12 13  1  0
 13 14  1  0
 13 15  2  0
 15 16  1  0
 16 17  2  0
 16 18  1  0
 18 19  1  0
 19 20  1  0
 19 21  1  0
 19 22  1  0
 22 23  1  0
 22 24  1  0
 24 25  1  0
 24 26  1  0
 24 27  1  0
 27 28  1  0
 27 29  1  0
 27 30  1  0
 30 31  1  0
 30 32  1  0
 30 33  1  0
 33 34  1  0
 33 35  1  0
 33 36  1  0
 36 37  1  0
 36 38  1  0
  2 39  1  0
 39 40  2  0
 40 41  1  0
 40 42  1  0
 42 43  2  0
 43 44  1  0
 43 45  1  0
 45 46  1  0
 45 47  2  0
 47 48  1  0
 18  5  1  0
 36 22  1  0
 47 39  1  0
 15  7  1  0
M  END
>  <UniqueID>  (12) 
461

>  <SMILES>  (12) 
S=c1c2cnccc2nc(/C=C/c2cccnc2)n1CC1CCCCC1

>  <Energy>  (12) 
75.6784312079686

>  <Genealogy>  (12) 
S=c1c2cnccc2nc(/C=C/c2cccnc2)n1CC1CCCCC1 (cis-trans isomerization)
S=c1c2cnccc2nc(/C=C/c2cccnc2)n1CC1CCCCC1 (3D coordinates assigned)
S=c1c2cnccc2nc(/C=C/c2cccnc2)n1CC1CCCCC1 (nonaromatic ring conformer: 75.6784312079686 kcal/mol)

>  <smiles>  (12) 
S=c1c2cnccc2nc(/C=C/c2cccnc2)n1CC1CCCCC1

>  <score_type>  (12) 
oracle

>  <origin>  (12) 
autodockgpu

>  <m_score__min__energy>  (12) 
-7.1799999999999997

>  <m_primary>  (12) 
energy

>  <meeko>  (12) 
{"free_energy": -6.21, "intermolecular_energy": -7.71, "internal_energy": -1.89, "cluster_size": 9, "cluster_id": 4, "rank_in_cluster": 8}

>  <energy>  (12) 
-6.45

>  <cluster_rmsd>  (12) 
0.06

>  <rmsd>  (12) 
270.13

>  <cluster>  (12) 
4

$$$$
VFWNAPSESRSYPS-CMDGGOBGNA-N
     RDKit          3D

 48 51  0  0  0  0  0  0  0  0999 V2000
  141.3038   76.0197  223.1026 H   0  0  0  0  0  0  0  0  0  0  0  0
  141.0690   76.7100  222.2790 C   0  0  0  0  0  0  0  0  0  0  0  0
  140.8050   76.1880  221.0710 C   0  0  0  0  0  0  0  0  0  0  0  0
  139.7683   76.1942  220.7033 H   0  0  0  0  0  0  0  0  0  0  0  0
  141.8740   75.5990  220.2100 C   0  0  0  0  0  0  0  0  0  0  0  0
  142.8530   74.8990  220.8400 N   0  0  0  0  0  0  0  0  0  0  0  0
  143.8690   74.3130  220.1790 C   0  0  0  0  0  0  0  0  0  0  0  0
  144.8500   73.6220  220.8930 C   0  0  0  0  0  0  0  0  0  0  0  0
  144.8018   73.5658  221.9905 H   0  0  0  0  0  0  0  0  0  0  0  0
  145.8910   73.0040  220.2020 C   0  0  0  0  0  0  0  0  0  0  0  0
  146.6699   72.4575  220.7540 H   0  0  0  0  0  0  0  0  0  0  0  0
  145.9430   73.0770  218.8480 N   0  0  0  0  0  0  0  0  0  0  0  0
  145.0000   73.7400  218.1270 C   0  0  0  0  0  0  0  0  0  0  0  0
  145.0747   73.7752  217.0301 H   0  0  0  0  0  0  0  0  0  0  0  0
  143.9230   74.3850  218.7800 C   0  0  0  0  0  0  0  0  0  0  0  0
  142.8960   75.0920  218.1050 C   0  0  0  0  0  0  0  0  0  0  0  0
  142.8540   75.0390  216.4500 S   0  0  0  0  0  0  0  0  0  0  0  0
  141.9080   75.7500  218.8310 N   0  0  0  0  0  0  0  0  0  0  0  0
  140.8730   76.5690  218.1360 C   0  0  0  0  0  0  0  0  0  0  0  0
  140.8457   76.2645  217.0794 H   0  0  0  0  0  0  0  0  0  0  0  0
  139.9233   76.3853  218.6598 H   0  0  0  0  0  0  0  0  0  0  0  0
  141.1230   78.1070  218.1940 C   0  0  0  0  0  0  0  0  0  0  0  0
  140.8300   78.4528  217.1917 H   0  0  0  0  0  0  0  0  0  0  0  0
  140.2230   78.8680  219.2050 C   0  0  0  0  0  0  0  0  0  0  0  0
  139.2223   78.9819  218.7627 H   0  0  0  0  0  0  0  0  0  0  0  0
  140.2056   78.2753  220.1315 H   0  0  0  0  0  0  0  0  0  0  0  0
  140.7570   80.2710  219.5740 C   0  0  0  0  0  0  0  0  0  0  0  0
  139.9022   80.9426  219.7421 H   0  0  0  0  0  0  0  0  0  0  0  0
  141.3714   80.1711  220.4809 H   0  0  0  0  0  0  0  0  0  0  0  0
  141.6380   80.8610  218.4720 C   0  0  0  0  0  0  0  0  0  0  0  0
  141.0465   80.9465  217.5485 H   0  0  0  0  0  0  0  0  0  0  0  0
  141.9907   81.8489  218.8030 H   0  0  0  0  0  0  0  0  0  0  0  0
  142.8680   79.9740  218.1990 C   0  0  0  0  0  0  0  0  0  0  0  0
  143.1817   80.1259  217.1557 H   0  0  0  0  0  0  0  0  0  0  0  0
  143.6463   80.2715  218.9172 H   0  0  0  0  0  0  0  0  0  0  0  0
  142.6040   78.4690  218.4150 C   0  0  0  0  0  0  0  0  0  0  0  0
  143.2197   77.8949  217.7069 H   0  0  0  0  0  0  0  0  0  0  0  0
  142.8628   78.2239  219.4556 H   0  0  0  0  0  0  0  0  0  0  0  0
  141.0620   78.1650  222.5660 C   0  0  0  0  0  0  0  0  0  0  0  0
  142.2060   78.9230  222.2680 C   0  0  0  0  0  0  0  0  0  0  0  0
  143.0835   78.4333  221.8205 H   0  0  0  0  0  0  0  0  0  0  0  0
  142.2380   80.2570  222.5280 N   0  0  0  0  0  0  0  0  0  0  0  0
  141.1820   80.9010  223.0880 C   0  0  0  0  0  0  0  0  0  0  0  0
  141.2372   81.9827  223.2799 H   0  0  0  0  0  0  0  0  0  0  0  0
  140.0280   80.1930  223.4200 C   0  0  0  0  0  0  0  0  0  0  0  0
  139.1725   80.7099  223.8793 H   0  0  0  0  0  0  0  0  0  0  0  0
  139.9680   78.8210  223.1640 C   0  0  0  0  0  0  0  0  0  0  0  0
  139.0650   78.2519  223.4298 H   0  0  0  0  0  0  0  0  0  0  0  0
  1  2  1  0
  2  3  2  0
  3  4  1  0
  3  5  1  0
  5  6  2  0
  6  7  1  0
  7  8  2  0
  8  9  1  0
  8 10  1  0
 10 11  1  0
 10 12  2  0
 12 13  1  0
 13 14  1  0
 13 15  2  0
 15 16  1  0
 16 17  2  0
 16 18  1  0
 18 19  1  0
 19 20  1  0
 19 21  1  0
 19 22  1  0
 22 23  1  0
 22 24  1  0
 24 25  1  0
 24 26  1  0
 24 27  1  0
 27 28  1  0
 27 29  1  0
 27 30  1  0
 30 31  1  0
 30 32  1  0
 30 33  1  0
 33 34  1  0
 33 35  1  0
 33 36  1  0
 36 37  1  0
 36 38  1  0
  2 39  1  0
 39 40  2  0
 40 41  1  0
 40 42  1  0
 42 43  2  0
 43 44  1  0
 43 45  1  0
 45 46  1  0
 45 47  2  0
 47 48  1  0
 18  5  1  0
 36 22  1  0
 47 39  1  0
 15  7  1  0
M  END
>  <UniqueID>  (13) 
461

>  <SMILES>  (13) 
S=c1c2cnccc2nc(/C=C/c2cccnc2)n1CC1CCCCC1

>  <Energy>  (13) 
75.6784312079686

>  <Genealogy>  (13) 
S=c1c2cnccc2nc(/C=C/c2cccnc2)n1CC1CCCCC1 (cis-trans isomerization)
S=c1c2cnccc2nc(/C=C/c2cccnc2)n1CC1CCCCC1 (3D coordinates assigned)
S=c1c2cnccc2nc(/C=C/c2cccnc2)n1CC1CCCCC1 (nonaromatic ring conformer: 75.6784312079686 kcal/mol)

>  <smiles>  (13) 
S=c1c2cnccc2nc(/C=C/c2cccnc2)n1CC1CCCCC1

>  <score_type>  (13) 
oracle

>  <origin>  (13) 
autodockgpu

>  <m_score__min__energy>  (13) 
-7.1799999999999997

>  <m_primary>  (13) 
energy

>  <meeko>  (13) 
{"free_energy": -6.06, "intermolecular_energy": -7.55, "internal_energy": -1.96, "cluster_size": 9, "cluster_id": 4, "rank_in_cluster": 9}

>  <energy>  (13) 
-6.45

>  <cluster_rmsd>  (13) 
0.09

>  <rmsd>  (13) 
270.13

>  <cluster>  (13) 
4

$$$$
VFWNAPSESRSYPS-CMDGGOBGNA-N
     RDKit          3D

 48 51  0  0  0  0  0  0  0  0999 V2000
  141.7065   81.4859  219.3206 H   0  0  0  0  0  0  0  0  0  0  0  0
  141.4010   80.6740  219.9970 C   0  0  0  0  0  0  0  0  0  0  0  0
  140.6730   79.6670  219.4890 C   0  0  0  0  0  0  0  0  0  0  0  0
  139.8977   79.8937  218.7423 H   0  0  0  0  0  0  0  0  0  0  0  0
  140.8830   78.2490  219.9060 C   0  0  0  0  0  0  0  0  0  0  0  0
  142.1100   77.7160  219.6740 N   0  0  0  0  0  0  0  0  0  0  0  0
  142.4300   76.4510  220.0080 C   0  0  0  0  0  0  0  0  0  0  0  0
  143.7080   75.9640  219.7240 C   0  0  0  0  0  0  0  0  0  0  0  0
  144.4466   76.6037  219.2187 H   0  0  0  0  0  0  0  0  0  0  0  0
  144.0380   74.6600  220.0870 C   0  0  0  0  0  0  0  0  0  0  0  0
  145.0410   74.2650  219.8682 H   0  0  0  0  0  0  0  0  0  0  0  0
  143.1210   73.8770  220.7110 N   0  0  0  0  0  0  0  0  0  0  0  0
  141.8720   74.3260  221.0030 C   0  0  0  0  0  0  0  0  0  0  0  0
  141.1573   73.6625  221.5119 H   0  0  0  0  0  0  0  0  0  0  0  0
  141.4860   75.6420  220.6560 C   0  0  0  0  0  0  0  0  0  0  0  0
  140.2070   76.1910  220.9280 C   0  0  0  0  0  0  0  0  0  0  0  0
  139.1450   75.3080  221.8430 S   0  0  0  0  0  0  0  0  0  0  0  0
  139.8920   77.4740  220.4940 N   0  0  0  0  0  0  0  0  0  0  0  0
  138.5220   78.0300  220.6980 C   0  0  0  0  0  0  0  0  0  0  0  0
  138.2673   78.6470  219.8237 H   0  0  0  0  0  0  0  0  0  0  0  0
  137.8493   77.1691  220.8256 H   0  0  0  0  0  0  0  0  0  0  0  0
  138.3680   78.9090  221.9770 C   0  0  0  0  0  0  0  0  0  0  0  0
  137.4051   78.5838  222.3978 H   0  0  0  0  0  0  0  0  0  0  0  0
  139.4390   78.6480  223.0700 C   0  0  0  0  0  0  0  0  0  0  0  0
  139.1783   77.7186  223.5975 H   0  0  0  0  0  0  0  0  0  0  0  0
  140.4111   78.5807  222.5596 H   0  0  0  0  0  0  0  0  0  0  0  0
  139.5510   79.7850  224.1100 C   0  0  0  0  0  0  0  0  0  0  0  0
  139.7993   79.3473  225.0882 H   0  0  0  0  0  0  0  0  0  0  0  0
  140.3356   80.4773  223.7707 H   0  0  0  0  0  0  0  0  0  0  0  0
  138.2490   80.5780  224.2410 C   0  0  0  0  0  0  0  0  0  0  0  0
  137.4455   79.8966  224.5575 H   0  0  0  0  0  0  0  0  0  0  0  0
  138.4024   81.3739  224.9847 H   0  0  0  0  0  0  0  0  0  0  0  0
  137.8520   81.2340  222.9050 C   0  0  0  0  0  0  0  0  0  0  0  0
  136.7587   81.3537  222.8873 H   0  0  0  0  0  0  0  0  0  0  0  0
  138.3785   82.1982  222.8492 H   0  0  0  0  0  0  0  0  0  0  0  0
  138.2740   80.4140  221.6660 C   0  0  0  0  0  0  0  0  0  0  0  0
  137.5313   80.5665  220.8690 H   0  0  0  0  0  0  0  0  0  0  0  0
  139.2700   80.7596  221.3521 H   0  0  0  0  0  0  0  0  0  0  0  0
  141.8170   80.7540  221.4190 C   0  0  0  0  0  0  0  0  0  0  0  0
  141.4830   81.8980  222.1620 C   0  0  0  0  0  0  0  0  0  0  0  0
  140.9134   82.7103  221.6869 H   0  0  0  0  0  0  0  0  0  0  0  0
  141.8580   82.0090  223.4630 N   0  0  0  0  0  0  0  0  0  0  0  0
  142.5690   81.0340  224.0880 C   0  0  0  0  0  0  0  0  0  0  0  0
  142.8504   81.1509  225.1449 H   0  0  0  0  0  0  0  0  0  0  0  0
  142.9420   79.8860  223.3910 C   0  0  0  0  0  0  0  0  0  0  0  0
  143.5242   79.0980  223.8910 H   0  0  0  0  0  0  0  0  0  0  0  0
  142.5700   79.7450  222.0520 C   0  0  0  0  0  0  0  0  0  0  0  0
  142.8650   78.8458  221.4913 H   0  0  0  0  0  0  0  0  0  0  0  0
  1  2  1  0
  2  3  2  0
  3  4  1  0
  3  5  1  0
  5  6  2  0
  6  7  1  0
  7  8  2  0
  8  9  1  0
  8 10  1  0
 10 11  1  0
 10 12  2  0
 12 13  1  0
 13 14  1  0
 13 15  2  0
 15 16  1  0
 16 17  2  0
 16 18  1  0
 18 19  1  0
 19 20  1  0
 19 21  1  0
 19 22  1  0
 22 23  1  0
 22 24  1  0
 24 25  1  0
 24 26  1  0
 24 27  1  0
 27 28  1  0
 27 29  1  0
 27 30  1  0
 30 31  1  0
 30 32  1  0
 30 33  1  0
 33 34  1  0
 33 35  1  0
 33 36  1  0
 36 37  1  0
 36 38  1  0
  2 39  1  0
 39 40  2  0
 40 41  1  0
 40 42  1  0
 42 43  2  0
 43 44  1  0
 43 45  1  0
 45 46  1  0
 45 47  2  0
 47 48  1  0
 18  5  1  0
 36 22  1  0
 47 39  1  0
 15  7  1  0
M  END
>  <UniqueID>  (14) 
461

>  <SMILES>  (14) 
S=c1c2cnccc2nc(/C=C/c2cccnc2)n1CC1CCCCC1

>  <Energy>  (14) 
75.6784312079686

>  <Genealogy>  (14) 
S=c1c2cnccc2nc(/C=C/c2cccnc2)n1CC1CCCCC1 (cis-trans isomerization)
S=c1c2cnccc2nc(/C=C/c2cccnc2)n1CC1CCCCC1 (3D coordinates assigned)
S=c1c2cnccc2nc(/C=C/c2cccnc2)n1CC1CCCCC1 (nonaromatic ring conformer: 75.6784312079686 kcal/mol)

>  <smiles>  (14) 
S=c1c2cnccc2nc(/C=C/c2cccnc2)n1CC1CCCCC1

>  <score_type>  (14) 
oracle

>  <origin>  (14) 
autodockgpu

>  <m_score__min__energy>  (14) 
-7.1799999999999997

>  <m_primary>  (14) 
energy

>  <meeko>  (14) 
{"free_energy": -5.82, "intermolecular_energy": -7.31, "internal_energy": -2.3, "cluster_size": 2, "cluster_id": 5, "rank_in_cluster": 1}

>  <energy>  (14) 
-6.43

>  <cluster_rmsd>  (14) 
0.1

>  <rmsd>  (14) 
270.09

>  <cluster>  (14) 
4

$$$$
VFWNAPSESRSYPS-CMDGGOBGNA-N
     RDKit          3D

 48 51  0  0  0  0  0  0  0  0999 V2000
  141.7413   81.4552  219.3271 H   0  0  0  0  0  0  0  0  0  0  0  0
  141.4230   80.6470  220.0020 C   0  0  0  0  0  0  0  0  0  0  0  0
  140.6890   79.6460  219.4900 C   0  0  0  0  0  0  0  0  0  0  0  0
  139.9162   79.8800  218.7430 H   0  0  0  0  0  0  0  0  0  0  0  0
  140.8890   78.2250  219.9030 C   0  0  0  0  0  0  0  0  0  0  0  0
  142.1130   77.6840  219.6710 N   0  0  0  0  0  0  0  0  0  0  0  0
  142.4240   76.4160  220.0030 C   0  0  0  0  0  0  0  0  0  0  0  0
  143.6990   75.9220  219.7190 C   0  0  0  0  0  0  0  0  0  0  0  0
  144.4423   76.5584  219.2164 H   0  0  0  0  0  0  0  0  0  0  0  0
  144.0200   74.6140  220.0790 C   0  0  0  0  0  0  0  0  0  0  0  0
  145.0207   74.2127  219.8610 H   0  0  0  0  0  0  0  0  0  0  0  0
  143.0960   73.8360  220.6990 N   0  0  0  0  0  0  0  0  0  0  0  0
  141.8500   74.2930  220.9900 C   0  0  0  0  0  0  0  0  0  0  0  0
  141.1300   73.6331  221.4960 H   0  0  0  0  0  0  0  0  0  0  0  0
  141.4730   75.6130  220.6460 C   0  0  0  0  0  0  0  0  0  0  0  0
  140.1980   76.1690  220.9170 C   0  0  0  0  0  0  0  0  0  0  0  0
  139.1280   75.2900  221.8280 S   0  0  0  0  0  0  0  0  0  0  0  0
  139.8920   77.4560  220.4870 N   0  0  0  0  0  0  0  0  0  0  0  0
  138.5250   78.0200  220.6900 C   0  0  0  0  0  0  0  0  0  0  0  0
  138.2754   78.6406  219.8167 H   0  0  0  0  0  0  0  0  0  0  0  0
  137.8465   77.1631  220.8143 H   0  0  0  0  0  0  0  0  0  0  0  0
  138.3750   78.8970  221.9710 C   0  0  0  0  0  0  0  0  0  0  0  0
  137.4079   78.5798  222.3881 H   0  0  0  0  0  0  0  0  0  0  0  0
  139.4390   78.6230  223.0670 C   0  0  0  0  0  0  0  0  0  0  0  0
  139.1668   77.6953  223.5917 H   0  0  0  0  0  0  0  0  0  0  0  0
  140.4122   78.5468  222.5599 H   0  0  0  0  0  0  0  0  0  0  0  0
  139.5590   79.7570  224.1100 C   0  0  0  0  0  0  0  0  0  0  0  0
  139.8008   79.3151  225.0879 H   0  0  0  0  0  0  0  0  0  0  0  0
  140.3509   80.4428  223.7745 H   0  0  0  0  0  0  0  0  0  0  0  0
  138.2640   80.5610  224.2390 C   0  0  0  0  0  0  0  0  0  0  0  0
  137.4535   79.8860  224.5513 H   0  0  0  0  0  0  0  0  0  0  0  0
  138.4221   81.3536  224.9852 H   0  0  0  0  0  0  0  0  0  0  0  0
  137.8770   81.2240  222.9030 C   0  0  0  0  0  0  0  0  0  0  0  0
  136.7848   81.3530  222.8821 H   0  0  0  0  0  0  0  0  0  0  0  0
  138.4120   82.1837  222.8516 H   0  0  0  0  0  0  0  0  0  0  0  0
  138.2960   80.4040  221.6630 C   0  0  0  0  0  0  0  0  0  0  0  0
  137.5576   80.5654  220.8638 H   0  0  0  0  0  0  0  0  0  0  0  0
  139.2960   80.7415  221.3530 H   0  0  0  0  0  0  0  0  0  0  0  0
  141.8290   80.7240  221.4280 C   0  0  0  0  0  0  0  0  0  0  0  0
  141.5060   81.8750  222.1650 C   0  0  0  0  0  0  0  0  0  0  0  0
  140.9529   82.6943  221.6824 H   0  0  0  0  0  0  0  0  0  0  0  0
  141.8710   81.9850  223.4690 N   0  0  0  0  0  0  0  0  0  0  0  0
  142.5620   81.0020  224.1030 C   0  0  0  0  0  0  0  0  0  0  0  0
  142.8368   81.1181  225.1618 H   0  0  0  0  0  0  0  0  0  0  0  0
  142.9230   79.8460  223.4120 C   0  0  0  0  0  0  0  0  0  0  0  0
  143.4881   79.0502  223.9193 H   0  0  0  0  0  0  0  0  0  0  0  0
  142.5610   79.7070  222.0700 C   0  0  0  0  0  0  0  0  0  0  0  0
  142.8481   78.8021  221.5143 H   0  0  0  0  0  0  0  0  0  0  0  0
  1  2  1  0
  2  3  2  0
  3  4  1  0
  3  5  1  0
  5  6  2  0
  6  7  1  0
  7  8  2  0
  8  9  1  0
  8 10  1  0
 10 11  1  0
 10 12  2  0
 12 13  1  0
 13 14  1  0
 13 15  2  0
 15 16  1  0
 16 17  2  0
 16 18  1  0
 18 19  1  0
 19 20  1  0
 19 21  1  0
 19 22  1  0
 22 23  1  0
 22 24  1  0
 24 25  1  0
 24 26  1  0
 24 27  1  0
 27 28  1  0
 27 29  1  0
 27 30  1  0
 30 31  1  0
 30 32  1  0
 30 33  1  0
 33 34  1  0
 33 35  1  0
 33 36  1  0
 36 37  1  0
 36 38  1  0
  2 39  1  0
 39 40  2  0
 40 41  1  0
 40 42  1  0
 42 43  2  0
 43 44  1  0
 43 45  1  0
 45 46  1  0
 45 47  2  0
 47 48  1  0
 18  5  1  0
 36 22  1  0
 47 39  1  0
 15  7  1  0
M  END
>  <UniqueID>  (15) 
461

>  <SMILES>  (15) 
S=c1c2cnccc2nc(/C=C/c2cccnc2)n1CC1CCCCC1

>  <Energy>  (15) 
75.6784312079686

>  <Genealogy>  (15) 
S=c1c2cnccc2nc(/C=C/c2cccnc2)n1CC1CCCCC1 (cis-trans isomerization)
S=c1c2cnccc2nc(/C=C/c2cccnc2)n1CC1CCCCC1 (3D coordinates assigned)
S=c1c2cnccc2nc(/C=C/c2cccnc2)n1CC1CCCCC1 (nonaromatic ring conformer: 75.6784312079686 kcal/mol)

>  <smiles>  (15) 
S=c1c2cnccc2nc(/C=C/c2cccnc2)n1CC1CCCCC1

>  <score_type>  (15) 
oracle

>  <origin>  (15) 
autodockgpu

>  <m_score__min__energy>  (15) 
-7.1799999999999997

>  <m_primary>  (15) 
energy

>  <meeko>  (15) 
{"free_energy": -5.81, "intermolecular_energy": -7.31, "internal_energy": -2.3, "cluster_size": 2, "cluster_id": 5, "rank_in_cluster": 2}

>  <energy>  (15) 
-6.37

>  <cluster_rmsd>  (15) 
0.55

>  <rmsd>  (15) 
270.12

>  <cluster>  (15) 
4

$$$$
VFWNAPSESRSYPS-CMDGGOBGNA-N
     RDKit          3D

 48 51  0  0  0  0  0  0  0  0999 V2000
  142.7549   71.0196  219.1920 H   0  0  0  0  0  0  0  0  0  0  0  0
  143.0120   71.5880  220.0980 C   0  0  0  0  0  0  0  0  0  0  0  0
  142.1630   71.5430  221.1370 C   0  0  0  0  0  0  0  0  0  0  0  0
  142.1934   70.6752  221.8123 H   0  0  0  0  0  0  0  0  0  0  0  0
  141.1790   72.6330  221.4050 C   0  0  0  0  0  0  0  0  0  0  0  0
  141.6020   73.9070  221.1950 N   0  0  0  0  0  0  0  0  0  0  0  0
  140.8100   74.9790  221.3920 C   0  0  0  0  0  0  0  0  0  0  0  0
  141.3180   76.2610  221.1710 C   0  0  0  0  0  0  0  0  0  0  0  0
  142.3611   76.3974  220.8494 H   0  0  0  0  0  0  0  0  0  0  0  0
  140.4900   77.3660  221.3620 C   0  0  0  0  0  0  0  0  0  0  0  0
  140.8785   78.3810  221.1922 H   0  0  0  0  0  0  0  0  0  0  0  0
  139.2030   77.1880  221.7580 N   0  0  0  0  0  0  0  0  0  0  0  0
  138.6830   75.9520  221.9770 C   0  0  0  0  0  0  0  0  0  0  0  0
  137.6352   75.8484  222.2954 H   0  0  0  0  0  0  0  0  0  0  0  0
  139.4810   74.7970  221.7980 C   0  0  0  0  0  0  0  0  0  0  0  0
  139.0170   73.4730  221.9990 C   0  0  0  0  0  0  0  0  0  0  0  0
  137.4060   73.2380  222.3100 S   0  0  0  0  0  0  0  0  0  0  0  0
  139.8890   72.3980  221.8610 N   0  0  0  0  0  0  0  0  0  0  0  0
  139.4340   71.0080  222.1540 C   0  0  0  0  0  0  0  0  0  0  0  0
  138.3379   70.9788  222.0660 H   0  0  0  0  0  0  0  0  0  0  0  0
  139.9393   70.3524  221.4295 H   0  0  0  0  0  0  0  0  0  0  0  0
  139.8240   70.4890  223.5730 C   0  0  0  0  0  0  0  0  0  0  0  0
  140.5130   69.6576  223.3630 H   0  0  0  0  0  0  0  0  0  0  0  0
  140.6130   71.5090  224.4370 C   0  0  0  0  0  0  0  0  0  0  0  0
  141.6555   71.5284  224.0866 H   0  0  0  0  0  0  0  0  0  0  0  0
  140.1144   72.4827  224.3218 H   0  0  0  0  0  0  0  0  0  0  0  0
  140.6110   71.1750  225.9450 C   0  0  0  0  0  0  0  0  0  0  0  0
  141.5739   71.4841  226.3779 H   0  0  0  0  0  0  0  0  0  0  0  0
  139.7725   71.7142  226.4099 H   0  0  0  0  0  0  0  0  0  0  0  0
  140.4110   69.6810  226.2040 C   0  0  0  0  0  0  0  0  0  0  0  0
  141.2294   69.1226  225.7261 H   0  0  0  0  0  0  0  0  0  0  0  0
  140.4079   69.5164  227.2916 H   0  0  0  0  0  0  0  0  0  0  0  0
  139.0680   69.1850  225.6360 C   0  0  0  0  0  0  0  0  0  0  0  0
  139.1654   68.1160  225.3955 H   0  0  0  0  0  0  0  0  0  0  0  0
  138.3033   69.3723  226.4043 H   0  0  0  0  0  0  0  0  0  0  0  0
  138.6230   69.9340  224.3610 C   0  0  0  0  0  0  0  0  0  0  0  0
  138.0653   69.2387  223.7164 H   0  0  0  0  0  0  0  0  0  0  0  0
  137.9936   70.7829  224.6662 H   0  0  0  0  0  0  0  0  0  0  0  0
  144.2780   72.3620  220.1040 C   0  0  0  0  0  0  0  0  0  0  0  0
  145.1060   72.3200  218.9710 C   0  0  0  0  0  0  0  0  0  0  0  0
  144.8034   71.7259  218.0961 H   0  0  0  0  0  0  0  0  0  0  0  0
  146.2780   73.0070  218.9460 N   0  0  0  0  0  0  0  0  0  0  0  0
  146.6960   73.7460  220.0070 C   0  0  0  0  0  0  0  0  0  0  0  0
  147.6474   74.2956  219.9534 H   0  0  0  0  0  0  0  0  0  0  0  0
  145.9200   73.8080  221.1630 C   0  0  0  0  0  0  0  0  0  0  0  0
  146.2569   74.4008  222.0262 H   0  0  0  0  0  0  0  0  0  0  0  0
  144.7110   73.1110  221.2160 C   0  0  0  0  0  0  0  0  0  0  0  0
  144.0959   73.1468  222.1272 H   0  0  0  0  0  0  0  0  0  0  0  0
  1  2  1  0
  2  3  2  0
  3  4  1  0
  3  5  1  0
  5  6  2  0
  6  7  1  0
  7  8  2  0
  8  9  1  0
  8 10  1  0
 10 11  1  0
 10 12  2  0
 12 13  1  0
 13 14  1  0
 13 15  2  0
 15 16  1  0
 16 17  2  0
 16 18  1  0
 18 19  1  0
 19 20  1  0
 19 21  1  0
 19 22  1  0
 22 23  1  0
 22 24  1  0
 24 25  1  0
 24 26  1  0
 24 27  1  0
 27 28  1  0
 27 29  1  0
 27 30  1  0
 30 31  1  0
 30 32  1  0
 30 33  1  0
 33 34  1  0
 33 35  1  0
 33 36  1  0
 36 37  1  0
 36 38  1  0
  2 39  1  0
 39 40  2  0
 40 41  1  0
 40 42  1  0
 42 43  2  0
 43 44  1  0
 43 45  1  0
 45 46  1  0
 45 47  2  0
 47 48  1  0
 18  5  1  0
 36 22  1  0
 47 39  1  0
 15  7  1  0
M  END
>  <UniqueID>  (16) 
461

>  <SMILES>  (16) 
S=c1c2cnccc2nc(/C=C/c2cccnc2)n1CC1CCCCC1

>  <Energy>  (16) 
75.6784312079686

>  <Genealogy>  (16) 
S=c1c2cnccc2nc(/C=C/c2cccnc2)n1CC1CCCCC1 (cis-trans isomerization)
S=c1c2cnccc2nc(/C=C/c2cccnc2)n1CC1CCCCC1 (3D coordinates assigned)
S=c1c2cnccc2nc(/C=C/c2cccnc2)n1CC1CCCCC1 (nonaromatic ring conformer: 75.6784312079686 kcal/mol)

>  <smiles>  (16) 
S=c1c2cnccc2nc(/C=C/c2cccnc2)n1CC1CCCCC1

>  <score_type>  (16) 
oracle

>  <origin>  (16) 
autodockgpu

>  <m_score__min__energy>  (16) 
-7.1799999999999997

>  <m_primary>  (16) 
energy

>  <meeko>  (16) 
{"free_energy": -6.81, "intermolecular_energy": -8.3, "internal_energy": -1.35, "cluster_size": 1, "cluster_id": 3, "rank_in_cluster": 1}

>  <energy>  (16) 
-6.36

>  <cluster_rmsd>  (16) 
0.55

>  <rmsd>  (16) 
270.11

>  <cluster>  (16) 
4

$$$$
VFWNAPSESRSYPS-CMDGGOBGNA-N
     RDKit          3D

 48 51  0  0  0  0  0  0  0  0999 V2000
  141.2147   76.1154  223.0442 H   0  0  0  0  0  0  0  0  0  0  0  0
  141.0790   76.8480  222.2350 C   0  0  0  0  0  0  0  0  0  0  0  0
  140.8910   76.3870  220.9880 C   0  0  0  0  0  0  0  0  0  0  0  0
  139.8927   76.4717  220.5339 H   0  0  0  0  0  0  0  0  0  0  0  0
  141.9940   75.7630  220.1980 C   0  0  0  0  0  0  0  0  0  0  0  0
  142.7800   74.8640  220.8450 N   0  0  0  0  0  0  0  0  0  0  0  0
  143.8030   74.2260  220.2450 C   0  0  0  0  0  0  0  0  0  0  0  0
  144.5790   73.3250  220.9770 C   0  0  0  0  0  0  0  0  0  0  0  0
  144.3662   73.1457  222.0412 H   0  0  0  0  0  0  0  0  0  0  0  0
  145.6260   72.6550  220.3460 C   0  0  0  0  0  0  0  0  0  0  0  0
  146.2444   71.9429  220.9122 H   0  0  0  0  0  0  0  0  0  0  0  0
  145.8820   72.8820  219.0320 N   0  0  0  0  0  0  0  0  0  0  0  0
  145.1400   73.7510  218.2950 C   0  0  0  0  0  0  0  0  0  0  0  0
  145.3760   73.9068  217.2320 H   0  0  0  0  0  0  0  0  0  0  0  0
  144.0660   74.4560  218.8880 C   0  0  0  0  0  0  0  0  0  0  0  0
  143.2400   75.3750  218.1910 C   0  0  0  0  0  0  0  0  0  0  0  0
  143.4310   75.5250  216.5520 S   0  0  0  0  0  0  0  0  0  0  0  0
  142.2450   76.0710  218.8680 N   0  0  0  0  0  0  0  0  0  0  0  0
  141.4270   77.1030  218.1660 C   0  0  0  0  0  0  0  0  0  0  0  0
  141.7260   77.1176  217.1075 H   0  0  0  0  0  0  0  0  0  0  0  0
  140.3737   76.8203  218.3100 H   0  0  0  0  0  0  0  0  0  0  0  0
  141.5830   78.5460  218.7370 C   0  0  0  0  0  0  0  0  0  0  0  0
  142.0546   78.3844  219.7175 H   0  0  0  0  0  0  0  0  0  0  0  0
  142.5450   79.4580  217.9280 C   0  0  0  0  0  0  0  0  0  0  0  0
  143.5797   79.1780  218.1751 H   0  0  0  0  0  0  0  0  0  0  0  0
  142.3136   79.3069  216.8633 H   0  0  0  0  0  0  0  0  0  0  0  0
  142.3630   80.9640  218.2220 C   0  0  0  0  0  0  0  0  0  0  0  0
  143.3426   81.4596  218.1532 H   0  0  0  0  0  0  0  0  0  0  0  0
  141.6570   81.3702  217.4827 H   0  0  0  0  0  0  0  0  0  0  0  0
  141.7810   81.2130  219.6150 C   0  0  0  0  0  0  0  0  0  0  0  0
  142.4635   80.7922  220.3681 H   0  0  0  0  0  0  0  0  0  0  0  0
  141.6674   82.2984  219.7528 H   0  0  0  0  0  0  0  0  0  0  0  0
  140.3960   80.5580  219.7730 C   0  0  0  0  0  0  0  0  0  0  0  0
  140.2391   80.3278  220.8371 H   0  0  0  0  0  0  0  0  0  0  0  0
  139.6543   81.2727  219.3869 H   0  0  0  0  0  0  0  0  0  0  0  0
  140.2350   79.2540  218.9620 C   0  0  0  0  0  0  0  0  0  0  0  0
  139.5643   78.5755  219.5096 H   0  0  0  0  0  0  0  0  0  0  0  0
  139.8192   79.5148  217.9776 H   0  0  0  0  0  0  0  0  0  0  0  0
  141.1140   78.2900  222.5830 C   0  0  0  0  0  0  0  0  0  0  0  0
  142.3010   79.0110  222.3760 C   0  0  0  0  0  0  0  0  0  0  0  0
  143.1809   78.5040  221.9532 H   0  0  0  0  0  0  0  0  0  0  0  0
  142.3710   80.3300  222.6940 N   0  0  0  0  0  0  0  0  0  0  0  0
  141.3130   80.9950  223.2260 C   0  0  0  0  0  0  0  0  0  0  0  0
  141.4004   82.0649  223.4661 H   0  0  0  0  0  0  0  0  0  0  0  0
  140.1160   80.3220  223.4680 C   0  0  0  0  0  0  0  0  0  0  0  0
  139.2582   80.8546  223.9045 H   0  0  0  0  0  0  0  0  0  0  0  0
  140.0160   78.9650  223.1510 C   0  0  0  0  0  0  0  0  0  0  0  0
  139.0787   78.4231  223.3452 H   0  0  0  0  0  0  0  0  0  0  0  0
  1  2  1  0
  2  3  2  0
  3  4  1  0
  3  5  1  0
  5  6  2  0
  6  7  1  0
  7  8  2  0
  8  9  1  0
  8 10  1  0
 10 11  1  0
 10 12  2  0
 12 13  1  0
 13 14  1  0
 13 15  2  0
 15 16  1  0
 16 17  2  0
 16 18  1  0
 18 19  1  0
 19 20  1  0
 19 21  1  0
 19 22  1  0
 22 23  1  0
 22 24  1  0
 24 25  1  0
 24 26  1  0
 24 27  1  0
 27 28  1  0
 27 29  1  0
 27 30  1  0
 30 31  1  0
 30 32  1  0
 30 33  1  0
 33 34  1  0
 33 35  1  0
 33 36  1  0
 36 37  1  0
 36 38  1  0
  2 39  1  0
 39 40  2  0
 40 41  1  0
 40 42  1  0
 42 43  2  0
 43 44  1  0
 43 45  1  0
 45 46  1  0
 45 47  2  0
 47 48  1  0
 18  5  1  0
 36 22  1  0
 47 39  1  0
 15  7  1  0
M  END
>  <UniqueID>  (17) 
461

>  <SMILES>  (17) 
S=c1c2cnccc2nc(/C=C/c2cccnc2)n1CC1CCCCC1

>  <Energy>  (17) 
75.6784312079686

>  <Genealogy>  (17) 
S=c1c2cnccc2nc(/C=C/c2cccnc2)n1CC1CCCCC1 (cis-trans isomerization)
S=c1c2cnccc2nc(/C=C/c2cccnc2)n1CC1CCCCC1 (3D coordinates assigned)
S=c1c2cnccc2nc(/C=C/c2cccnc2)n1CC1CCCCC1 (nonaromatic ring conformer: 75.6784312079686 kcal/mol)

>  <smiles>  (17) 
S=c1c2cnccc2nc(/C=C/c2cccnc2)n1CC1CCCCC1

>  <score_type>  (17) 
oracle

>  <origin>  (17) 
autodockgpu

>  <m_score__min__energy>  (17) 
-7.1799999999999997

>  <m_primary>  (17) 
energy

>  <meeko>  (17) 
{"free_energy": -6.37, "intermolecular_energy": -7.86, "internal_energy": -1.84, "cluster_size": 9, "cluster_id": 4, "rank_in_cluster": 6}

>  <energy>  (17) 
-6.21

>  <cluster_rmsd>  (17) 
0.49

>  <rmsd>  (17) 
269.97

>  <cluster>  (17) 
4

$$$$
VFWNAPSESRSYPS-CMDGGOBGNA-N
     RDKit          3D

 48 51  0  0  0  0  0  0  0  0999 V2000
  141.2406   76.0207  223.0684 H   0  0  0  0  0  0  0  0  0  0  0  0
  141.0810   76.7710  222.2800 C   0  0  0  0  0  0  0  0  0  0  0  0
  140.8890   76.3390  221.0240 C   0  0  0  0  0  0  0  0  0  0  0  0
  139.8897   76.4350  220.5743 H   0  0  0  0  0  0  0  0  0  0  0  0
  141.9900   75.7320  220.2180 C   0  0  0  0  0  0  0  0  0  0  0  0
  142.7840   74.8260  220.8460 N   0  0  0  0  0  0  0  0  0  0  0  0
  143.8060   74.2020  220.2300 C   0  0  0  0  0  0  0  0  0  0  0  0
  144.5910   73.2940  220.9440 C   0  0  0  0  0  0  0  0  0  0  0  0
  144.3856   73.0978  222.0067 H   0  0  0  0  0  0  0  0  0  0  0  0
  145.6370   72.6390  220.2970 C   0  0  0  0  0  0  0  0  0  0  0  0
  146.2627   71.9219  220.8486 H   0  0  0  0  0  0  0  0  0  0  0  0
  145.8830   72.8870  218.9850 N   0  0  0  0  0  0  0  0  0  0  0  0
  145.1330   73.7630  218.2650 C   0  0  0  0  0  0  0  0  0  0  0  0
  145.3617   73.9353  217.2029 H   0  0  0  0  0  0  0  0  0  0  0  0
  144.0600   74.4540  218.8750 C   0  0  0  0  0  0  0  0  0  0  0  0
  143.2250   75.3790  218.1980 C   0  0  0  0  0  0  0  0  0  0  0  0
  143.4060   75.5550  216.5600 S   0  0  0  0  0  0  0  0  0  0  0  0
  142.2310   76.0610  218.8910 N   0  0  0  0  0  0  0  0  0  0  0  0
  141.4050   77.1000  218.2100 C   0  0  0  0  0  0  0  0  0  0  0  0
  141.6846   77.1189  217.1463 H   0  0  0  0  0  0  0  0  0  0  0  0
  140.3535   76.8209  218.3723 H   0  0  0  0  0  0  0  0  0  0  0  0
  141.5770   78.5390  218.7850 C   0  0  0  0  0  0  0  0  0  0  0  0
  142.0732   78.3716  219.7524 H   0  0  0  0  0  0  0  0  0  0  0  0
  142.5190   79.4540  217.9570 C   0  0  0  0  0  0  0  0  0  0  0  0
  143.5593   79.1716  218.1762 H   0  0  0  0  0  0  0  0  0  0  0  0
  142.2608   79.3089  216.8976 H   0  0  0  0  0  0  0  0  0  0  0  0
  142.3460   80.9590  218.2640 C   0  0  0  0  0  0  0  0  0  0  0  0
  143.3239   81.4542  218.1722 H   0  0  0  0  0  0  0  0  0  0  0  0
  141.6211   81.3697  217.5457 H   0  0  0  0  0  0  0  0  0  0  0  0
  141.8010   81.2010  219.6730 C   0  0  0  0  0  0  0  0  0  0  0  0
  142.5025   80.7756  220.4058 H   0  0  0  0  0  0  0  0  0  0  0  0
  141.6922   82.2857  219.8199 H   0  0  0  0  0  0  0  0  0  0  0  0
  140.4200   80.5460  219.8630 C   0  0  0  0  0  0  0  0  0  0  0  0
  140.2908   80.3096  220.9295 H   0  0  0  0  0  0  0  0  0  0  0  0
  139.6694   81.2636  219.5002 H   0  0  0  0  0  0  0  0  0  0  0  0
  140.2360   79.2470  219.0490 C   0  0  0  0  0  0  0  0  0  0  0  0
  139.5790   78.5661  219.6100 H   0  0  0  0  0  0  0  0  0  0  0  0
  139.7948   79.5137  218.0773 H   0  0  0  0  0  0  0  0  0  0  0  0
  141.0900   78.2040  222.6650 C   0  0  0  0  0  0  0  0  0  0  0  0
  139.8890   78.8050  223.0760 C   0  0  0  0  0  0  0  0  0  0  0  0
  138.9659   78.2080  223.1157 H   0  0  0  0  0  0  0  0  0  0  0  0
  139.8580   80.1180  223.4250 N   0  0  0  0  0  0  0  0  0  0  0  0
  140.9720   80.8950  223.3830 C   0  0  0  0  0  0  0  0  0  0  0  0
  140.9156   81.9531  223.6783 H   0  0  0  0  0  0  0  0  0  0  0  0
  142.1860   80.3520  222.9660 C   0  0  0  0  0  0  0  0  0  0  0  0
  143.0888   80.9791  222.9247 H   0  0  0  0  0  0  0  0  0  0  0  0
  142.2470   79.0050  222.6010 C   0  0  0  0  0  0  0  0  0  0  0  0
  143.1990   78.5695  222.2634 H   0  0  0  0  0  0  0  0  0  0  0  0
  1  2  1  0
  2  3  2  0
  3  4  1  0
  3  5  1  0
  5  6  2  0
  6  7  1  0
  7  8  2  0
  8  9  1  0
  8 10  1  0
 10 11  1  0
 10 12  2  0
 12 13  1  0
 13 14  1  0
 13 15  2  0
 15 16  1  0
 16 17  2  0
 16 18  1  0
 18 19  1  0
 19 20  1  0
 19 21  1  0
 19 22  1  0
 22 23  1  0
 22 24  1  0
 24 25  1  0
 24 26  1  0
 24 27  1  0
 27 28  1  0
 27 29  1  0
 27 30  1  0
 30 31  1  0
 30 32  1  0
 30 33  1  0
 33 34  1  0
 33 35  1  0
 33 36  1  0
 36 37  1  0
 36 38  1  0
  2 39  1  0
 39 40  2  0
 40 41  1  0
 40 42  1  0
 42 43  2  0
 43 44  1  0
 43 45  1  0
 45 46  1  0
 45 47  2  0
 47 48  1  0
 18  5  1  0
 36 22  1  0
 47 39  1  0
 15  7  1  0
M  END
>  <UniqueID>  (18) 
461

>  <SMILES>  (18) 
S=c1c2cnccc2nc(/C=C/c2cccnc2)n1CC1CCCCC1

>  <Energy>  (18) 
75.6784312079686

>  <Genealogy>  (18) 
S=c1c2cnccc2nc(/C=C/c2cccnc2)n1CC1CCCCC1 (cis-trans isomerization)
S=c1c2cnccc2nc(/C=C/c2cccnc2)n1CC1CCCCC1 (3D coordinates assigned)
S=c1c2cnccc2nc(/C=C/c2cccnc2)n1CC1CCCCC1 (nonaromatic ring conformer: 75.6784312079686 kcal/mol)

>  <smiles>  (18) 
S=c1c2cnccc2nc(/C=C/c2cccnc2)n1CC1CCCCC1

>  <score_type>  (18) 
oracle

>  <origin>  (18) 
autodockgpu

>  <m_score__min__energy>  (18) 
-7.1799999999999997

>  <m_primary>  (18) 
energy

>  <meeko>  (18) 
{"free_energy": -6.45, "intermolecular_energy": -7.94, "internal_energy": -1.83, "cluster_size": 9, "cluster_id": 4, "rank_in_cluster": 2}

>  <energy>  (18) 
-6.06

>  <cluster_rmsd>  (18) 
0.73

>  <rmsd>  (18) 
269.95

>  <cluster>  (18) 
4

$$$$
VFWNAPSESRSYPS-CMDGGOBGNA-N
     RDKit          3D

 48 51  0  0  0  0  0  0  0  0999 V2000
  143.5758   75.9878  218.1833 H   0  0  0  0  0  0  0  0  0  0  0  0
  143.5370   75.5820  219.2050 C   0  0  0  0  0  0  0  0  0  0  0  0
  142.6900   76.1470  220.0800 C   0  0  0  0  0  0  0  0  0  0  0  0
  142.8551   77.1919  220.3817 H   0  0  0  0  0  0  0  0  0  0  0  0
  141.5310   75.4030  220.6570 C   0  0  0  0  0  0  0  0  0  0  0  0
  141.7190   74.0840  220.9210 N   0  0  0  0  0  0  0  0  0  0  0  0
  140.7580   73.3020  221.4480 C   0  0  0  0  0  0  0  0  0  0  0  0
  141.0170   71.9490  221.6780 C   0  0  0  0  0  0  0  0  0  0  0  0
  141.9958   71.5190  221.4190 H   0  0  0  0  0  0  0  0  0  0  0  0
  140.0230   71.1490  222.2390 C   0  0  0  0  0  0  0  0  0  0  0  0
  140.2147   70.0819  222.4247 H   0  0  0  0  0  0  0  0  0  0  0  0
  138.8180   71.6880  222.5560 N   0  0  0  0  0  0  0  0  0  0  0  0
  138.5400   73.0020  222.3470 C   0  0  0  0  0  0  0  0  0  0  0  0
  137.5529   73.4028  222.6208 H   0  0  0  0  0  0  0  0  0  0  0  0
  139.5140   73.8570  221.7790 C   0  0  0  0  0  0  0  0  0  0  0  0
  139.3090   75.2390  221.5320 C   0  0  0  0  0  0  0  0  0  0  0  0
  137.9100   75.9410  222.0760 S   0  0  0  0  0  0  0  0  0  0  0  0
  140.3010   75.9920  220.9130 N   0  0  0  0  0  0  0  0  0  0  0  0
  140.0640   77.4240  220.5700 C   0  0  0  0  0  0  0  0  0  0  0  0
  140.4966   77.6162  219.5770 H   0  0  0  0  0  0  0  0  0  0  0  0
  138.9753   77.5783  220.6004 H   0  0  0  0  0  0  0  0  0  0  0  0
  140.6860   78.4390  221.5780 C   0  0  0  0  0  0  0  0  0  0  0  0
  141.6145   78.7585  221.0823 H   0  0  0  0  0  0  0  0  0  0  0  0
  139.8400   79.7220  221.8030 C   0  0  0  0  0  0  0  0  0  0  0  0
  139.9844   80.3897  220.9409 H   0  0  0  0  0  0  0  0  0  0  0  0
  138.7930   79.4034  221.9137 H   0  0  0  0  0  0  0  0  0  0  0  0
  140.2180   80.4930  223.0870 C   0  0  0  0  0  0  0  0  0  0  0  0
  140.0884   81.5700  222.9045 H   0  0  0  0  0  0  0  0  0  0  0  0
  139.5616   80.1421  223.8969 H   0  0  0  0  0  0  0  0  0  0  0  0
  141.6650   80.2360  223.5110 C   0  0  0  0  0  0  0  0  0  0  0  0
  142.3374   80.5590  222.7026 H   0  0  0  0  0  0  0  0  0  0  0  0
  141.8613   80.8035  224.4326 H   0  0  0  0  0  0  0  0  0  0  0  0
  141.9100   78.7430  223.8000 C   0  0  0  0  0  0  0  0  0  0  0  0
  142.9720   78.5228  223.6164 H   0  0  0  0  0  0  0  0  0  0  0  0
  141.6211   78.5650  224.8464 H   0  0  0  0  0  0  0  0  0  0  0  0
  141.0570   77.7970  222.9270 C   0  0  0  0  0  0  0  0  0  0  0  0
  141.6283   76.8763  222.7375 H   0  0  0  0  0  0  0  0  0  0  0  0
  140.1248   77.5808  223.4694 H   0  0  0  0  0  0  0  0  0  0  0  0
  144.4240   74.4400  219.5400 C   0  0  0  0  0  0  0  0  0  0  0  0
  144.8260   73.5680  218.5140 C   0  0  0  0  0  0  0  0  0  0  0  0
  144.4880   73.7459  217.4824 H   0  0  0  0  0  0  0  0  0  0  0  0
  145.6290   72.5070  218.7870 N   0  0  0  0  0  0  0  0  0  0  0  0
  146.0630   72.2430  220.0470 C   0  0  0  0  0  0  0  0  0  0  0  0
  146.7176   71.3788  220.2333 H   0  0  0  0  0  0  0  0  0  0  0  0
  145.6790   73.0670  221.1040 C   0  0  0  0  0  0  0  0  0  0  0  0
  146.0227   72.8536  222.1269 H   0  0  0  0  0  0  0  0  0  0  0  0
  144.8540   74.1660  220.8530 C   0  0  0  0  0  0  0  0  0  0  0  0
  144.5399   74.8180  221.6814 H   0  0  0  0  0  0  0  0  0  0  0  0
  1  2  1  0
  2  3  2  0
  3  4  1  0
  3  5  1  0
  5  6  2  0
  6  7  1  0
  7  8  2  0
  8  9  1  0
  8 10  1  0
 10 11  1  0
 10 12  2  0
 12 13  1  0
 13 14  1  0
 13 15  2  0
 15 16  1  0
 16 17  2  0
 16 18  1  0
 18 19  1  0
 19 20  1  0
 19 21  1  0
 19 22  1  0
 22 23  1  0
 22 24  1  0
 24 25  1  0
 24 26  1  0
 24 27  1  0
 27 28  1  0
 27 29  1  0
 27 30  1  0
 30 31  1  0
 30 32  1  0
 30 33  1  0
 33 34  1  0
 33 35  1  0
 33 36  1  0
 36 37  1  0
 36 38  1  0
  2 39  1  0
 39 40  2  0
 40 41  1  0
 40 42  1  0
 42 43  2  0
 43 44  1  0
 43 45  1  0
 45 46  1  0
 45 47  2  0
 47 48  1  0
 18  5  1  0
 36 22  1  0
 47 39  1  0
 15  7  1  0
M  END
>  <UniqueID>  (19) 
461

>  <SMILES>  (19) 
S=c1c2cnccc2nc(/C=C/c2cccnc2)n1CC1CCCCC1

>  <Energy>  (19) 
75.6784312079686

>  <Genealogy>  (19) 
S=c1c2cnccc2nc(/C=C/c2cccnc2)n1CC1CCCCC1 (cis-trans isomerization)
S=c1c2cnccc2nc(/C=C/c2cccnc2)n1CC1CCCCC1 (3D coordinates assigned)
S=c1c2cnccc2nc(/C=C/c2cccnc2)n1CC1CCCCC1 (nonaromatic ring conformer: 75.6784312079686 kcal/mol)

>  <smiles>  (19) 
S=c1c2cnccc2nc(/C=C/c2cccnc2)n1CC1CCCCC1

>  <score_type>  (19) 
oracle

>  <origin>  (19) 
autodockgpu

>  <m_score__min__energy>  (19) 
-7.1799999999999997

>  <m_primary>  (19) 
energy

>  <meeko>  (19) 
{"free_energy": -6.74, "intermolecular_energy": -8.24, "internal_energy": -1.42, "cluster_size": 7, "cluster_id": 2, "rank_in_cluster": 7}

>  <energy>  (19) 
-5.82

>  <cluster_rmsd>  (19) 
0.0

>  <rmsd>  (19) 
270.78

>  <cluster>  (19) 
5

$$$$
VFWNAPSESRSYPS-CMDGGOBGNA-N
     RDKit          3D

 48 51  0  0  0  0  0  0  0  0999 V2000
  143.2317   75.4561  218.0952 H   0  0  0  0  0  0  0  0  0  0  0  0
  143.4600   75.3150  219.1620 C   0  0  0  0  0  0  0  0  0  0  0  0
  142.8260   76.0920  220.0540 C   0  0  0  0  0  0  0  0  0  0  0  0
  143.3233   77.0047  220.4142 H   0  0  0  0  0  0  0  0  0  0  0  0
  141.4660   75.7560  220.5730 C   0  0  0  0  0  0  0  0  0  0  0  0
  141.2010   74.4430  220.7930 N   0  0  0  0  0  0  0  0  0  0  0  0
  140.0170   74.0080  221.2660 C   0  0  0  0  0  0  0  0  0  0  0  0
  139.8080   72.6400  221.4530 C   0  0  0  0  0  0  0  0  0  0  0  0
  140.5998   71.9182  221.2040 H   0  0  0  0  0  0  0  0  0  0  0  0
  138.5870   72.1980  221.9580 C   0  0  0  0  0  0  0  0  0  0  0  0
  138.4105   71.1229  222.1095 H   0  0  0  0  0  0  0  0  0  0  0  0
  137.6150   73.0960  222.2630 N   0  0  0  0  0  0  0  0  0  0  0  0
  137.7920   74.4330  222.0950 C   0  0  0  0  0  0  0  0  0  0  0  0
  136.9820   75.1296  222.3569 H   0  0  0  0  0  0  0  0  0  0  0  0
  139.0130   74.9330  221.5850 C   0  0  0  0  0  0  0  0  0  0  0  0
  139.2830   76.3110  221.3830 C   0  0  0  0  0  0  0  0  0  0  0  0
  138.1730   77.4210  221.9160 S   0  0  0  0  0  0  0  0  0  0  0  0
  140.4890   76.7110  220.8180 N   0  0  0  0  0  0  0  0  0  0  0  0
  140.7490   78.1500  220.5210 C   0  0  0  0  0  0  0  0  0  0  0  0
  141.3738   78.2077  219.6175 H   0  0  0  0  0  0  0  0  0  0  0  0
  139.7662   78.6273  220.3930 H   0  0  0  0  0  0  0  0  0  0  0  0
  141.4740   78.9220  221.6660 C   0  0  0  0  0  0  0  0  0  0  0  0
  142.5168   78.5815  221.5851 H   0  0  0  0  0  0  0  0  0  0  0  0
  141.4960   80.4650  221.4880 C   0  0  0  0  0  0  0  0  0  0  0  0
  142.2638   80.7182  220.7421 H   0  0  0  0  0  0  0  0  0  0  0  0
  140.4876   80.7675  221.1694 H   0  0  0  0  0  0  0  0  0  0  0  0
  141.8090   81.2330  222.7910 C   0  0  0  0  0  0  0  0  0  0  0  0
  142.3848   82.1362  222.5405 H   0  0  0  0  0  0  0  0  0  0  0  0
  140.8527   81.4887  223.2708 H   0  0  0  0  0  0  0  0  0  0  0  0
  142.6190   80.3900  223.7770 C   0  0  0  0  0  0  0  0  0  0  0  0
  143.5705   80.1035  223.3052 H   0  0  0  0  0  0  0  0  0  0  0  0
  142.7963   80.9908  224.6812 H   0  0  0  0  0  0  0  0  0  0  0  0
  141.8580   79.1140  224.1850 C   0  0  0  0  0  0  0  0  0  0  0  0
  142.5931   78.3431  224.4594 H   0  0  0  0  0  0  0  0  0  0  0  0
  141.2021   79.3838  225.0258 H   0  0  0  0  0  0  0  0  0  0  0  0
  140.9540   78.5510  223.0670 C   0  0  0  0  0  0  0  0  0  0  0  0
  140.9204   77.4550  223.1551 H   0  0  0  0  0  0  0  0  0  0  0  0
  139.9522   78.9895  223.1857 H   0  0  0  0  0  0  0  0  0  0  0  0
  144.4520   74.2760  219.5350 C   0  0  0  0  0  0  0  0  0  0  0  0
  144.8740   73.3580  218.5590 C   0  0  0  0  0  0  0  0  0  0  0  0
  144.4736   73.4257  217.5367 H   0  0  0  0  0  0  0  0  0  0  0  0
  145.7730   72.3870  218.8680 N   0  0  0  0  0  0  0  0  0  0  0  0
  146.2870   72.2610  220.1200 C   0  0  0  0  0  0  0  0  0  0  0  0
  147.0184   71.4685  220.3367 H   0  0  0  0  0  0  0  0  0  0  0  0
  145.8880   73.1350  221.1290 C   0  0  0  0  0  0  0  0  0  0  0  0
  146.2961   73.0318  222.1453 H   0  0  0  0  0  0  0  0  0  0  0  0
  144.9660   74.1430  220.8400 C   0  0  0  0  0  0  0  0  0  0  0  0
  144.6407   74.8338  221.6318 H   0  0  0  0  0  0  0  0  0  0  0  0
  1  2  1  0
  2  3  2  0
  3  4  1  0
  3  5  1  0
  5  6  2  0
  6  7  1  0
  7  8  2  0
  8  9  1  0
  8 10  1  0
 10 11  1  0
 10 12  2  0
 12 13  1  0
 13 14  1  0
 13 15  2  0
 15 16  1  0
 16 17  2  0
 16 18  1  0
 18 19  1  0
 19 20  1  0
 19 21  1  0
 19 22  1  0
 22 23  1  0
 22 24  1  0
 24 25  1  0
 24 26  1  0
 24 27  1  0
 27 28  1  0
 27 29  1  0
 27 30  1  0
 30 31  1  0
 30 32  1  0
 30 33  1  0
 33 34  1  0
 33 35  1  0
 33 36  1  0
 36 37  1  0
 36 38  1  0
  2 39  1  0
 39 40  2  0
 40 41  1  0
 40 42  1  0
 42 43  2  0
 43 44  1  0
 43 45  1  0
 45 46  1  0
 45 47  2  0
 47 48  1  0
 18  5  1  0
 36 22  1  0
 47 39  1  0
 15  7  1  0
M  END
>  <UniqueID>  (20) 
461

>  <SMILES>  (20) 
S=c1c2cnccc2nc(/C=C/c2cccnc2)n1CC1CCCCC1

>  <Energy>  (20) 
75.6784312079686

>  <Genealogy>  (20) 
S=c1c2cnccc2nc(/C=C/c2cccnc2)n1CC1CCCCC1 (cis-trans isomerization)
S=c1c2cnccc2nc(/C=C/c2cccnc2)n1CC1CCCCC1 (3D coordinates assigned)
S=c1c2cnccc2nc(/C=C/c2cccnc2)n1CC1CCCCC1 (nonaromatic ring conformer: 75.6784312079686 kcal/mol)

>  <smiles>  (20) 
S=c1c2cnccc2nc(/C=C/c2cccnc2)n1CC1CCCCC1

>  <score_type>  (20) 
oracle

>  <origin>  (20) 
autodockgpu

>  <m_score__min__energy>  (20) 
-7.1799999999999997

>  <m_primary>  (20) 
energy

>  <meeko>  (20) 
{"free_energy": -7.06, "intermolecular_energy": -8.56, "internal_energy": -1.18, "cluster_size": 7, "cluster_id": 2, "rank_in_cluster": 4}

>  <energy>  (20) 
-5.81

>  <cluster_rmsd>  (20) 
0.03

>  <rmsd>  (20) 
270.78

>  <cluster>  (20) 
5

$$$$
VFWNAPSESRSYPS-CMDGGOBGNA-N
     RDKit          3D

 48 51  0  0  0  0  0  0  0  0999 V2000
  141.2088   76.0404  223.0641 H   0  0  0  0  0  0  0  0  0  0  0  0
  141.0760   76.7910  222.2710 C   0  0  0  0  0  0  0  0  0  0  0  0
  140.8950   76.3580  221.0130 C   0  0  0  0  0  0  0  0  0  0  0  0
  139.9013   76.4594  220.5522 H   0  0  0  0  0  0  0  0  0  0  0  0
  142.0010   75.7430  220.2200 C   0  0  0  0  0  0  0  0  0  0  0  0
  142.7900   74.8430  220.8620 N   0  0  0  0  0  0  0  0  0  0  0  0
  143.8160   74.2120  220.2580 C   0  0  0  0  0  0  0  0  0  0  0  0
  144.5960   73.3110  220.9850 C   0  0  0  0  0  0  0  0  0  0  0  0
  144.3843   73.1255  222.0484 H   0  0  0  0  0  0  0  0  0  0  0  0
  145.6450   72.6490  220.3510 C   0  0  0  0  0  0  0  0  0  0  0  0
  146.2663   71.9365  220.9134 H   0  0  0  0  0  0  0  0  0  0  0  0
  145.9000   72.8840  219.0380 N   0  0  0  0  0  0  0  0  0  0  0  0
  145.1550   73.7540  218.3060 C   0  0  0  0  0  0  0  0  0  0  0  0
  145.3908   73.9164  217.2439 H   0  0  0  0  0  0  0  0  0  0  0  0
  144.0780   74.4520  218.9020 C   0  0  0  0  0  0  0  0  0  0  0  0
  143.2480   75.3710  218.2110 C   0  0  0  0  0  0  0  0  0  0  0  0
  143.4390   75.5310  216.5730 S   0  0  0  0  0  0  0  0  0  0  0  0
  142.2510   76.0600  218.8920 N   0  0  0  0  0  0  0  0  0  0  0  0
  141.4290   77.0920  218.1950 C   0  0  0  0  0  0  0  0  0  0  0  0
  141.7213   77.1066  217.1346 H   0  0  0  0  0  0  0  0  0  0  0  0
  140.3764   76.8099  218.3448 H   0  0  0  0  0  0  0  0  0  0  0  0
  141.5900   78.5350  218.7660 C   0  0  0  0  0  0  0  0  0  0  0  0
  142.0707   78.3742  219.7423 H   0  0  0  0  0  0  0  0  0  0  0  0
  142.5440   79.4470  217.9490 C   0  0  0  0  0  0  0  0  0  0  0  0
  143.5809   79.1673  218.1868 H   0  0  0  0  0  0  0  0  0  0  0  0
  142.3033   79.2960  216.8863 H   0  0  0  0  0  0  0  0  0  0  0  0
  142.3640   80.9530  218.2450 C   0  0  0  0  0  0  0  0  0  0  0  0
  143.3428   81.4489  218.1678 H   0  0  0  0  0  0  0  0  0  0  0  0
  141.6513   81.3589  217.5120 H   0  0  0  0  0  0  0  0  0  0  0  0
  141.7940   81.2020  219.6430 C   0  0  0  0  0  0  0  0  0  0  0  0
  142.4833   80.7819  220.3902 H   0  0  0  0  0  0  0  0  0  0  0  0
  141.6809   82.2874  219.7816 H   0  0  0  0  0  0  0  0  0  0  0  0
  140.4110   80.5460  219.8130 C   0  0  0  0  0  0  0  0  0  0  0  0
  140.2641   80.3152  220.8784 H   0  0  0  0  0  0  0  0  0  0  0  0
  139.6659   81.2606  219.4334 H   0  0  0  0  0  0  0  0  0  0  0  0
  140.2420   79.2420  219.0030 C   0  0  0  0  0  0  0  0  0  0  0  0
  139.5767   78.5631  219.5565 H   0  0  0  0  0  0  0  0  0  0  0  0
  139.8161   79.5020  218.0227 H   0  0  0  0  0  0  0  0  0  0  0  0
  141.1070   78.2250  222.6520 C   0  0  0  0  0  0  0  0  0  0  0  0
  139.9210   78.8390  223.0850 C   0  0  0  0  0  0  0  0  0  0  0  0
  138.9927   78.2518  223.1446 H   0  0  0  0  0  0  0  0  0  0  0  0
  139.9110   80.1530  223.4310 N   0  0  0  0  0  0  0  0  0  0  0  0
  141.0310   80.9180  223.3650 C   0  0  0  0  0  0  0  0  0  0  0  0
  140.9910   81.9773  223.6589 H   0  0  0  0  0  0  0  0  0  0  0  0
  142.2320   80.3620  222.9250 C   0  0  0  0  0  0  0  0  0  0  0  0
  143.1401   80.9797  222.8637 H   0  0  0  0  0  0  0  0  0  0  0  0
  142.2710   79.0140  222.5630 C   0  0  0  0  0  0  0  0  0  0  0  0
  143.2115   78.5675  222.2079 H   0  0  0  0  0  0  0  0  0  0  0  0
  1  2  1  0
  2  3  2  0
  3  4  1  0
  3  5  1  0
  5  6  2  0
  6  7  1  0
  7  8  2  0
  8  9  1  0
  8 10  1  0
 10 11  1  0
 10 12  2  0
 12 13  1  0
 13 14  1  0
 13 15  2  0
 15 16  1  0
 16 17  2  0
 16 18  1  0
 18 19  1  0
 19 20  1  0
 19 21  1  0
 19 22  1  0
 22 23  1  0
 22 24  1  0
 24 25  1  0
 24 26  1  0
 24 27  1  0
 27 28  1  0
 27 29  1  0
 27 30  1  0
 30 31  1  0
 30 32  1  0
 30 33  1  0
 33 34  1  0
 33 35  1  0
 33 36  1  0
 36 37  1  0
 36 38  1  0
  2 39  1  0
 39 40  2  0
 40 41  1  0
 40 42  1  0
 42 43  2  0
 43 44  1  0
 43 45  1  0
 45 46  1  0
 45 47  2  0
 47 48  1  0
 18  5  1  0
 36 22  1  0
 47 39  1  0
 15  7  1  0
M  END
>  <UniqueID>  (21) 
462

>  <SMILES>  (21) 
S=c1c2cnccc2nc(/C=C/c2cccnc2)n1CC1CCCCC1

>  <Energy>  (21) 
76.6718342716116

>  <Genealogy>  (21) 
S=c1c2cnccc2nc(/C=C/c2cccnc2)n1CC1CCCCC1 (cis-trans isomerization)
S=c1c2cnccc2nc(/C=C/c2cccnc2)n1CC1CCCCC1 (3D coordinates assigned)
S=c1c2cnccc2nc(/C=C/c2cccnc2)n1CC1CCCCC1 (nonaromatic ring conformer: 76.6718342716116 kcal/mol)

>  <smiles>  (21) 
S=c1c2cnccc2nc(/C=C/c2cccnc2)n1CC1CCCCC1

>  <score_type>  (21) 
oracle

>  <origin>  (21) 
autodockgpu

>  <m_score__min__energy>  (21) 
-7.1799999999999997

>  <m_primary>  (21) 
energy

>  <meeko>  (21) 
{"free_energy": -6.45, "intermolecular_energy": -7.94, "internal_energy": -1.83, "cluster_size": 9, "cluster_id": 4, "rank_in_cluster": 3}

>  <energy>  (21) 
-7.18

>  <cluster_rmsd>  (21) 
0.0

>  <rmsd>  (21) 
270.2

>  <cluster>  (21) 
1

$$$$
VFWNAPSESRSYPS-CMDGGOBGNA-N
     RDKit          3D

 48 51  0  0  0  0  0  0  0  0999 V2000
  143.5684   75.9610  218.1700 H   0  0  0  0  0  0  0  0  0  0  0  0
  143.5430   75.5730  219.1990 C   0  0  0  0  0  0  0  0  0  0  0  0
  142.6960   76.1430  220.0700 C   0  0  0  0  0  0  0  0  0  0  0  0
  142.8679   77.1858  220.3751 H   0  0  0  0  0  0  0  0  0  0  0  0
  141.5280   75.4070  220.6380 C   0  0  0  0  0  0  0  0  0  0  0  0
  141.7100   74.0910  220.9190 N   0  0  0  0  0  0  0  0  0  0  0  0
  140.7390   73.3170  221.4410 C   0  0  0  0  0  0  0  0  0  0  0  0
  140.9920   71.9660  221.6900 C   0  0  0  0  0  0  0  0  0  0  0  0
  141.9737   71.5315  221.4502 H   0  0  0  0  0  0  0  0  0  0  0  0
  139.9890   71.1740  222.2450 C   0  0  0  0  0  0  0  0  0  0  0  0
  140.1765   70.1088  222.4456 H   0  0  0  0  0  0  0  0  0  0  0  0
  138.7800   71.7180  222.5380 N   0  0  0  0  0  0  0  0  0  0  0  0
  138.5070   73.0300  222.3100 C   0  0  0  0  0  0  0  0  0  0  0  0
  137.5165   73.4354  222.5640 H   0  0  0  0  0  0  0  0  0  0  0  0
  139.4920   73.8770  221.7470 C   0  0  0  0  0  0  0  0  0  0  0  0
  139.2930   75.2560  221.4820 C   0  0  0  0  0  0  0  0  0  0  0  0
  137.8870   75.9660  221.9970 S   0  0  0  0  0  0  0  0  0  0  0  0
  140.2950   76.0010  220.8690 N   0  0  0  0  0  0  0  0  0  0  0  0
  140.0660   77.4290  220.5060 C   0  0  0  0  0  0  0  0  0  0  0  0
  140.5752   77.6273  219.5513 H   0  0  0  0  0  0  0  0  0  0  0  0
  138.9763   77.5674  220.4473 H   0  0  0  0  0  0  0  0  0  0  0  0
  140.5890   78.4530  221.5600 C   0  0  0  0  0  0  0  0  0  0  0  0
  139.7285   79.1189  221.7215 H   0  0  0  0  0  0  0  0  0  0  0  0
  140.9340   77.8350  222.9410 C   0  0  0  0  0  0  0  0  0  0  0  0
  139.9955   77.6553  223.4858 H   0  0  0  0  0  0  0  0  0  0  0  0
  141.4906   76.9059  222.7487 H   0  0  0  0  0  0  0  0  0  0  0  0
  141.8400   78.7340  223.8120 C   0  0  0  0  0  0  0  0  0  0  0  0
  141.5657   78.5962  224.8683 H   0  0  0  0  0  0  0  0  0  0  0  0
  142.8841   78.4406  223.6284 H   0  0  0  0  0  0  0  0  0  0  0  0
  141.6980   80.2150  223.4550 C   0  0  0  0  0  0  0  0  0  0  0  0
  140.6532   80.5219  223.6105 H   0  0  0  0  0  0  0  0  0  0  0  0
  142.3753   80.7929  224.1010 H   0  0  0  0  0  0  0  0  0  0  0  0
  142.0850   80.4800  221.9870 C   0  0  0  0  0  0  0  0  0  0  0  0
  141.5353   81.3661  221.6368 H   0  0  0  0  0  0  0  0  0  0  0  0
  143.1748   80.6273  221.9619 H   0  0  0  0  0  0  0  0  0  0  0  0
  141.7650   79.3020  221.0420 C   0  0  0  0  0  0  0  0  0  0  0  0
  141.5054   79.7018  220.0507 H   0  0  0  0  0  0  0  0  0  0  0  0
  142.6540   78.6564  220.9890 H   0  0  0  0  0  0  0  0  0  0  0  0
  144.4470   74.4490  219.5460 C   0  0  0  0  0  0  0  0  0  0  0  0
  144.7990   73.5260  218.5470 C   0  0  0  0  0  0  0  0  0  0  0  0
  144.4105   73.6524  217.5257 H   0  0  0  0  0  0  0  0  0  0  0  0
  145.6160   72.4780  218.8330 N   0  0  0  0  0  0  0  0  0  0  0  0
  146.1120   72.2780  220.0820 C   0  0  0  0  0  0  0  0  0  0  0  0
  146.7760   71.4235  220.2793 H   0  0  0  0  0  0  0  0  0  0  0  0
  145.7800   73.1550  221.1140 C   0  0  0  0  0  0  0  0  0  0  0  0
  146.1745   72.9937  222.1281 H   0  0  0  0  0  0  0  0  0  0  0  0
  144.9420   74.2400  220.8480 C   0  0  0  0  0  0  0  0  0  0  0  0
  144.6679   74.9330  221.6571 H   0  0  0  0  0  0  0  0  0  0  0  0
  1  2  1  0
  2  3  2  0
  3  4  1  0
  3  5  1  0
  5  6  2  0
  6  7  1  0
  7  8  2  0
  8  9  1  0
  8 10  1  0
 10 11  1  0
 10 12  2  0
 12 13  1  0
 13 14  1  0
 13 15  2  0
 15 16  1  0
 16 17  2  0
 16 18  1  0
 18 19  1  0
 19 20  1  0
 19 21  1  0
 19 22  1  0
 22 23  1  0
 22 24  1  0
 24 25  1  0
 24 26  1  0
 24 27  1  0
 27 28  1  0
 27 29  1  0
 27 30  1  0
 30 31  1  0
 30 32  1  0
 30 33  1  0
 33 34  1  0
 33 35  1  0
 33 36  1  0
 36 37  1  0
 36 38  1  0
  2 39  1  0
 39 40  2  0
 40 41  1  0
 40 42  1  0
 42 43  2  0
 43 44  1  0
 43 45  1  0
 45 46  1  0
 45 47  2  0
 47 48  1  0
 18  5  1  0
 36 22  1  0
 47 39  1  0
 15  7  1  0
M  END
>  <UniqueID>  (22) 
462

>  <SMILES>  (22) 
S=c1c2cnccc2nc(/C=C/c2cccnc2)n1CC1CCCCC1

>  <Energy>  (22) 
76.6718342716116

>  <Genealogy>  (22) 
S=c1c2cnccc2nc(/C=C/c2cccnc2)n1CC1CCCCC1 (cis-trans isomerization)
S=c1c2cnccc2nc(/C=C/c2cccnc2)n1CC1CCCCC1 (3D coordinates assigned)
S=c1c2cnccc2nc(/C=C/c2cccnc2)n1CC1CCCCC1 (nonaromatic ring conformer: 76.6718342716116 kcal/mol)

>  <smiles>  (22) 
S=c1c2cnccc2nc(/C=C/c2cccnc2)n1CC1CCCCC1

>  <score_type>  (22) 
oracle

>  <origin>  (22) 
autodockgpu

>  <m_score__min__energy>  (22) 
-7.1799999999999997

>  <m_primary>  (22) 
energy

>  <meeko>  (22) 
{"free_energy": -6.92, "intermolecular_energy": -8.42, "internal_energy": -1.47, "cluster_size": 7, "cluster_id": 2, "rank_in_cluster": 6}

>  <energy>  (22) 
-7.14

>  <cluster_rmsd>  (22) 
0.0

>  <rmsd>  (22) 
270.14

>  <cluster>  (22) 
2

$$$$
VFWNAPSESRSYPS-CMDGGOBGNA-N
     RDKit          3D

 48 51  0  0  0  0  0  0  0  0999 V2000
  138.9087   71.7944  221.4174 H   0  0  0  0  0  0  0  0  0  0  0  0
  139.5010   72.2700  222.2130 C   0  0  0  0  0  0  0  0  0  0  0  0
  140.0280   73.4810  221.9730 C   0  0  0  0  0  0  0  0  0  0  0  0
  139.5182   74.3717  222.3688 H   0  0  0  0  0  0  0  0  0  0  0  0
  141.2840   73.6570  221.1860 C   0  0  0  0  0  0  0  0  0  0  0  0
  142.1190   72.5880  221.1150 N   0  0  0  0  0  0  0  0  0  0  0  0
  143.2800   72.6140  220.4320 C   0  0  0  0  0  0  0  0  0  0  0  0
  144.0970   71.4820  220.4170 C   0  0  0  0  0  0  0  0  0  0  0  0
  143.8033   70.5777  220.9701 H   0  0  0  0  0  0  0  0  0  0  0  0
  145.2890   71.5090  219.6940 C   0  0  0  0  0  0  0  0  0  0  0  0
  145.9416   70.6237  219.6748 H   0  0  0  0  0  0  0  0  0  0  0  0
  145.6430   72.6290  219.0140 N   0  0  0  0  0  0  0  0  0  0  0  0
  144.8650   73.7440  219.0090 C   0  0  0  0  0  0  0  0  0  0  0  0
  145.1848   74.6319  218.4439 H   0  0  0  0  0  0  0  0  0  0  0  0
  143.6460   73.7680  219.7270 C   0  0  0  0  0  0  0  0  0  0  0  0
  142.7740   74.8850  219.7700 C   0  0  0  0  0  0  0  0  0  0  0  0
  143.1100   76.1900  218.8040 S   0  0  0  0  0  0  0  0  0  0  0  0
  141.6250   74.8440  220.5520 N   0  0  0  0  0  0  0  0  0  0  0  0
  140.7450   76.0430  220.6740 C   0  0  0  0  0  0  0  0  0  0  0  0
  140.4452   76.3543  219.6625 H   0  0  0  0  0  0  0  0  0  0  0  0
  139.8918   75.7443  221.3007 H   0  0  0  0  0  0  0  0  0  0  0  0
  141.4130   77.2620  221.3820 C   0  0  0  0  0  0  0  0  0  0  0  0
  142.4343   76.9107  221.5904 H   0  0  0  0  0  0  0  0  0  0  0  0
  141.5530   78.5260  220.4910 C   0  0  0  0  0  0  0  0  0  0  0  0
  142.4002   78.3764  219.8056 H   0  0  0  0  0  0  0  0  0  0  0  0
  140.6000   78.6514  219.9562 H   0  0  0  0  0  0  0  0  0  0  0  0
  141.7970   79.8240  221.2940 C   0  0  0  0  0  0  0  0  0  0  0  0
  142.4522   80.4854  220.7081 H   0  0  0  0  0  0  0  0  0  0  0  0
  140.8203   80.2936  221.4825 H   0  0  0  0  0  0  0  0  0  0  0  0
  142.4560   79.5500  222.6470 C   0  0  0  0  0  0  0  0  0  0  0  0
  143.4253   79.0577  222.4796 H   0  0  0  0  0  0  0  0  0  0  0  0
  142.5898   80.5100  223.1671 H   0  0  0  0  0  0  0  0  0  0  0  0
  141.5780   78.6410  223.5270 C   0  0  0  0  0  0  0  0  0  0  0  0
  142.2321   78.0880  224.2172 H   0  0  0  0  0  0  0  0  0  0  0  0
  140.8675   79.2929  224.0563 H   0  0  0  0  0  0  0  0  0  0  0  0
  140.7440   77.6210  222.7220 C   0  0  0  0  0  0  0  0  0  0  0  0
  140.6301   76.7044  223.3194 H   0  0  0  0  0  0  0  0  0  0  0  0
  139.7667   78.0763  222.5039 H   0  0  0  0  0  0  0  0  0  0  0  0
  139.6730   71.5370  223.4920 C   0  0  0  0  0  0  0  0  0  0  0  0
  138.7550   70.5290  223.8260 C   0  0  0  0  0  0  0  0  0  0  0  0
  137.9310   70.2914  223.1371 H   0  0  0  0  0  0  0  0  0  0  0  0
  138.8760   69.8440  224.9940 N   0  0  0  0  0  0  0  0  0  0  0  0
  139.8730   70.1100  225.8780 C   0  0  0  0  0  0  0  0  0  0  0  0
  139.9475   69.5338  226.8121 H   0  0  0  0  0  0  0  0  0  0  0  0
  140.8020   71.1130  225.6020 C   0  0  0  0  0  0  0  0  0  0  0  0
  141.6071   71.3358  226.3177 H   0  0  0  0  0  0  0  0  0  0  0  0
  140.7010   71.8320  224.4090 C   0  0  0  0  0  0  0  0  0  0  0  0
  141.4249   72.6294  224.1851 H   0  0  0  0  0  0  0  0  0  0  0  0
  1  2  1  0
  2  3  2  0
  3  4  1  0
  3  5  1  0
  5  6  2  0
  6  7  1  0
  7  8  2  0
  8  9  1  0
  8 10  1  0
 10 11  1  0
 10 12  2  0
 12 13  1  0
 13 14  1  0
 13 15  2  0
 15 16  1  0
 16 17  2  0
 16 18  1  0
 18 19  1  0
 19 20  1  0
 19 21  1  0
 19 22  1  0
 22 23  1  0
 22 24  1  0
 24 25  1  0
 24 26  1  0
 24 27  1  0
 27 28  1  0
 27 29  1  0
 27 30  1  0
 30 31  1  0
 30 32  1  0
 30 33  1  0
 33 34  1  0
 33 35  1  0
 33 36  1  0
 36 37  1  0
 36 38  1  0
  2 39  1  0
 39 40  2  0
 40 41  1  0
 40 42  1  0
 42 43  2  0
 43 44  1  0
 43 45  1  0
 45 46  1  0
 45 47  2  0
 47 48  1  0
 18  5  1  0
 36 22  1  0
 47 39  1  0
 15  7  1  0
M  END
>  <UniqueID>  (23) 
462

>  <SMILES>  (23) 
S=c1c2cnccc2nc(/C=C/c2cccnc2)n1CC1CCCCC1

>  <Energy>  (23) 
76.6718342716116

>  <Genealogy>  (23) 
S=c1c2cnccc2nc(/C=C/c2cccnc2)n1CC1CCCCC1 (cis-trans isomerization)
S=c1c2cnccc2nc(/C=C/c2cccnc2)n1CC1CCCCC1 (3D coordinates assigned)
S=c1c2cnccc2nc(/C=C/c2cccnc2)n1CC1CCCCC1 (nonaromatic ring conformer: 76.6718342716116 kcal/mol)

>  <smiles>  (23) 
S=c1c2cnccc2nc(/C=C/c2cccnc2)n1CC1CCCCC1

>  <score_type>  (23) 
oracle

>  <origin>  (23) 
autodockgpu

>  <m_score__min__energy>  (23) 
-7.1799999999999997

>  <m_primary>  (23) 
energy

>  <meeko>  (23) 
{"free_energy": -7.18, "intermolecular_energy": -8.67, "internal_energy": -1.07, "cluster_size": 1, "cluster_id": 1, "rank_in_cluster": 1}

>  <energy>  (23) 
-7.14

>  <cluster_rmsd>  (23) 
0.04

>  <rmsd>  (23) 
270.15

>  <cluster>  (23) 
2

$$$$
VFWNAPSESRSYPS-CMDGGOBGNA-N
     RDKit          3D

 48 51  0  0  0  0  0  0  0  0999 V2000
  141.2252   76.0288  223.0861 H   0  0  0  0  0  0  0  0  0  0  0  0
  141.0750   76.7750  222.2920 C   0  0  0  0  0  0  0  0  0  0  0  0
  140.8900   76.3360  221.0360 C   0  0  0  0  0  0  0  0  0  0  0  0
  139.8921   76.4261  220.5820 H   0  0  0  0  0  0  0  0  0  0  0  0
  141.9950   75.7300  220.2370 C   0  0  0  0  0  0  0  0  0  0  0  0
  142.7890   74.8290  220.8720 N   0  0  0  0  0  0  0  0  0  0  0  0
  143.8150   74.2050  220.2620 C   0  0  0  0  0  0  0  0  0  0  0  0
  144.6000   73.3010  220.9820 C   0  0  0  0  0  0  0  0  0  0  0  0
  144.3911   73.1075  222.0445 H   0  0  0  0  0  0  0  0  0  0  0  0
  145.6500   72.6470  220.3410 C   0  0  0  0  0  0  0  0  0  0  0  0
  146.2753   71.9334  220.8975 H   0  0  0  0  0  0  0  0  0  0  0  0
  145.9010   72.8910  219.0290 N   0  0  0  0  0  0  0  0  0  0  0  0
  145.1520   73.7630  218.3040 C   0  0  0  0  0  0  0  0  0  0  0  0
  145.3851   73.9333  217.2426 H   0  0  0  0  0  0  0  0  0  0  0  0
  144.0740   74.4530  218.9070 C   0  0  0  0  0  0  0  0  0  0  0  0
  143.2400   75.3740  218.2230 C   0  0  0  0  0  0  0  0  0  0  0  0
  143.4270   75.5450  216.5850 S   0  0  0  0  0  0  0  0  0  0  0  0
  142.2410   76.0550  218.9100 N   0  0  0  0  0  0  0  0  0  0  0  0
  141.4150   77.0900  218.2220 C   0  0  0  0  0  0  0  0  0  0  0  0
  141.6956   77.1030  217.1585 H   0  0  0  0  0  0  0  0  0  0  0  0
  140.3634   76.8114  218.3847 H   0  0  0  0  0  0  0  0  0  0  0  0
  141.5860   78.5320  218.7890 C   0  0  0  0  0  0  0  0  0  0  0  0
  142.0591   78.3685  219.7685 H   0  0  0  0  0  0  0  0  0  0  0  0
  142.5540   79.4330  217.9760 C   0  0  0  0  0  0  0  0  0  0  0  0
  143.5866   79.1441  218.2215 H   0  0  0  0  0  0  0  0  0  0  0  0
  142.3184   79.2814  216.9123 H   0  0  0  0  0  0  0  0  0  0  0  0
  142.3870   80.9410  218.2660 C   0  0  0  0  0  0  0  0  0  0  0  0
  143.3711   81.4271  218.1931 H   0  0  0  0  0  0  0  0  0  0  0  0
  141.6827   81.3515  217.5274 H   0  0  0  0  0  0  0  0  0  0  0  0
  141.8110   81.2000  219.6600 C   0  0  0  0  0  0  0  0  0  0  0  0
  142.4914   80.7752  220.4127 H   0  0  0  0  0  0  0  0  0  0  0  0
  141.7081   82.2868  219.7950 H   0  0  0  0  0  0  0  0  0  0  0  0
  140.4200   80.5580  219.8230 C   0  0  0  0  0  0  0  0  0  0  0  0
  140.2637   80.3322  220.8882 H   0  0  0  0  0  0  0  0  0  0  0  0
  139.6844   81.2786  219.4363 H   0  0  0  0  0  0  0  0  0  0  0  0
  140.2440   79.2530  219.0160 C   0  0  0  0  0  0  0  0  0  0  0  0
  139.5689   78.5822  219.5676 H   0  0  0  0  0  0  0  0  0  0  0  0
  139.8271   79.5144  218.0322 H   0  0  0  0  0  0  0  0  0  0  0  0
  141.0880   78.2100  222.6680 C   0  0  0  0  0  0  0  0  0  0  0  0
  139.8900   78.8150  223.0840 C   0  0  0  0  0  0  0  0  0  0  0  0
  138.9663   78.2198  223.1332 H   0  0  0  0  0  0  0  0  0  0  0  0
  139.8640   80.1300  223.4260 N   0  0  0  0  0  0  0  0  0  0  0  0
  140.9780   80.9050  223.3720 C   0  0  0  0  0  0  0  0  0  0  0  0
  140.9247   81.9647  223.6623 H   0  0  0  0  0  0  0  0  0  0  0  0
  142.1890   80.3590  222.9490 C   0  0  0  0  0  0  0  0  0  0  0  0
  143.0922   80.9848  222.8977 H   0  0  0  0  0  0  0  0  0  0  0  0
  142.2450   79.0100  222.5910 C   0  0  0  0  0  0  0  0  0  0  0  0
  143.1939   78.5717  222.2484 H   0  0  0  0  0  0  0  0  0  0  0  0
  1  2  1  0
  2  3  2  0
  3  4  1  0
  3  5  1  0
  5  6  2  0
  6  7  1  0
  7  8  2  0
  8  9  1  0
  8 10  1  0
 10 11  1  0
 10 12  2  0
 12 13  1  0
 13 14  1  0
 13 15  2  0
 15 16  1  0
 16 17  2  0
 16 18  1  0
 18 19  1  0
 19 20  1  0
 19 21  1  0
 19 22  1  0
 22 23  1  0
 22 24  1  0
 24 25  1  0
 24 26  1  0
 24 27  1  0
 27 28  1  0
 27 29  1  0
 27 30  1  0
 30 31  1  0
 30 32  1  0
 30 33  1  0
 33 34  1  0
 33 35  1  0
 33 36  1  0
 36 37  1  0
 36 38  1  0
  2 39  1  0
 39 40  2  0
 40 41  1  0
 40 42  1  0
 42 43  2  0
 43 44  1  0
 43 45  1  0
 45 46  1  0
 45 47  2  0
 47 48  1  0
 18  5  1  0
 36 22  1  0
 47 39  1  0
 15  7  1  0
M  END
>  <UniqueID>  (24) 
462

>  <SMILES>  (24) 
S=c1c2cnccc2nc(/C=C/c2cccnc2)n1CC1CCCCC1

>  <Energy>  (24) 
76.6718342716116

>  <Genealogy>  (24) 
S=c1c2cnccc2nc(/C=C/c2cccnc2)n1CC1CCCCC1 (cis-trans isomerization)
S=c1c2cnccc2nc(/C=C/c2cccnc2)n1CC1CCCCC1 (3D coordinates assigned)
S=c1c2cnccc2nc(/C=C/c2cccnc2)n1CC1CCCCC1 (nonaromatic ring conformer: 76.6718342716116 kcal/mol)

>  <smiles>  (24) 
S=c1c2cnccc2nc(/C=C/c2cccnc2)n1CC1CCCCC1

>  <score_type>  (24) 
oracle

>  <origin>  (24) 
autodockgpu

>  <m_score__min__energy>  (24) 
-7.1799999999999997

>  <m_primary>  (24) 
energy

>  <meeko>  (24) 
{"free_energy": -6.45, "intermolecular_energy": -7.94, "internal_energy": -1.84, "cluster_size": 9, "cluster_id": 4, "rank_in_cluster": 4}

>  <energy>  (24) 
-7.1

>  <cluster_rmsd>  (24) 
0.14

>  <rmsd>  (24) 
270.17

>  <cluster>  (24) 
2

$$$$
VFWNAPSESRSYPS-CMDGGOBGNA-N
     RDKit          3D

 48 51  0  0  0  0  0  0  0  0999 V2000
  143.6843   76.0504  218.1172 H   0  0  0  0  0  0  0  0  0  0  0  0
  143.5950   75.6480  219.1370 C   0  0  0  0  0  0  0  0  0  0  0  0
  142.7220   76.2310  219.9730 C   0  0  0  0  0  0  0  0  0  0  0  0
  142.8516   77.2946  220.2219 H   0  0  0  0  0  0  0  0  0  0  0  0
  141.5800   75.4810  220.5760 C   0  0  0  0  0  0  0  0  0  0  0  0
  141.7780   74.1620  220.8320 N   0  0  0  0  0  0  0  0  0  0  0  0
  140.8320   73.3760  221.3810 C   0  0  0  0  0  0  0  0  0  0  0  0
  141.1000   72.0240  221.6010 C   0  0  0  0  0  0  0  0  0  0  0  0
  142.0737   71.5979  221.3175 H   0  0  0  0  0  0  0  0  0  0  0  0
  140.1230   71.2190  222.1830 C   0  0  0  0  0  0  0  0  0  0  0  0
  140.3227   70.1521  222.3613 H   0  0  0  0  0  0  0  0  0  0  0  0
  138.9230   71.7540  222.5300 N   0  0  0  0  0  0  0  0  0  0  0  0
  138.6370   73.0670  222.3300 C   0  0  0  0  0  0  0  0  0  0  0  0
  137.6550   73.4640  222.6268 H   0  0  0  0  0  0  0  0  0  0  0  0
  139.5950   73.9270  221.7420 C   0  0  0  0  0  0  0  0  0  0  0  0
  139.3800   75.3080  221.5030 C   0  0  0  0  0  0  0  0  0  0  0  0
  137.9920   76.0040  222.0820 S   0  0  0  0  0  0  0  0  0  0  0  0
  140.3540   76.0650  220.8630 N   0  0  0  0  0  0  0  0  0  0  0  0
  140.1050   77.4980  220.5280 C   0  0  0  0  0  0  0  0  0  0  0  0
  140.6049   77.7203  219.5737 H   0  0  0  0  0  0  0  0  0  0  0  0
  139.0133   77.6243  220.4793 H   0  0  0  0  0  0  0  0  0  0  0  0
  140.6230   78.5080  221.5970 C   0  0  0  0  0  0  0  0  0  0  0  0
  139.7703   79.1874  221.7432 H   0  0  0  0  0  0  0  0  0  0  0  0
  140.9290   77.8780  222.9830 C   0  0  0  0  0  0  0  0  0  0  0  0
  139.9764   77.7114  223.5072 H   0  0  0  0  0  0  0  0  0  0  0  0
  141.4743   76.9408  222.7980 H   0  0  0  0  0  0  0  0  0  0  0  0
  141.8310   78.7580  223.8770 C   0  0  0  0  0  0  0  0  0  0  0  0
  141.5319   78.6207  224.9266 H   0  0  0  0  0  0  0  0  0  0  0  0
  142.8738   78.4479  223.7148 H   0  0  0  0  0  0  0  0  0  0  0  0
  141.7210   80.2430  223.5230 C   0  0  0  0  0  0  0  0  0  0  0  0
  140.6781   80.5662  223.6570 H   0  0  0  0  0  0  0  0  0  0  0  0
  142.3936   80.8069  224.1860 H   0  0  0  0  0  0  0  0  0  0  0  0
  142.1440   80.5080  222.0660 C   0  0  0  0  0  0  0  0  0  0  0  0
  141.6175   81.4053  221.7086 H   0  0  0  0  0  0  0  0  0  0  0  0
  143.2365   80.6363  222.0652 H   0  0  0  0  0  0  0  0  0  0  0  0
  141.8240   79.3400  221.1080 C   0  0  0  0  0  0  0  0  0  0  0  0
  141.5919   79.7491  220.1136 H   0  0  0  0  0  0  0  0  0  0  0  0
  142.7030   78.6798  221.0700 H   0  0  0  0  0  0  0  0  0  0  0  0
  144.4470   74.4910  219.5100 C   0  0  0  0  0  0  0  0  0  0  0  0
  144.8240   73.5750  218.5150 C   0  0  0  0  0  0  0  0  0  0  0  0
  144.4935   73.7296  217.4773 H   0  0  0  0  0  0  0  0  0  0  0  0
  145.5940   72.4990  218.8240 N   0  0  0  0  0  0  0  0  0  0  0  0
  146.0180   72.2640  220.0930 C   0  0  0  0  0  0  0  0  0  0  0  0
  146.6461   71.3871  220.3089 H   0  0  0  0  0  0  0  0  0  0  0  0
  145.6580   73.1330  221.1220 C   0  0  0  0  0  0  0  0  0  0  0  0
  145.9939   72.9429  222.1521 H   0  0  0  0  0  0  0  0  0  0  0  0
  144.8670   74.2470  220.8330 C   0  0  0  0  0  0  0  0  0  0  0  0
  144.5714   74.9349  221.6389 H   0  0  0  0  0  0  0  0  0  0  0  0
  1  2  1  0
  2  3  2  0
  3  4  1  0
  3  5  1  0
  5  6  2  0
  6  7  1  0
  7  8  2  0
  8  9  1  0
  8 10  1  0
 10 11  1  0
 10 12  2  0
 12 13  1  0
 13 14  1  0
 13 15  2  0
 15 16  1  0
 16 17  2  0
 16 18  1  0
 18 19  1  0
 19 20  1  0
 19 21  1  0
 19 22  1  0
 22 23  1  0
 22 24  1  0
 24 25  1  0
 24 26  1  0
 24 27  1  0
 27 28  1  0
 27 29  1  0
 27 30  1  0
 30 31  1  0
 30 32  1  0
 30 33  1  0
 33 34  1  0
 33 35  1  0
 33 36  1  0
 36 37  1  0
 36 38  1  0
  2 39  1  0
 39 40  2  0
 40 41  1  0
 40 42  1  0
 42 43  2  0
 43 44  1  0
 43 45  1  0
 45 46  1  0
 45 47  2  0
 47 48  1  0
 18  5  1  0
 36 22  1  0
 47 39  1  0
 15  7  1  0
M  END
>  <UniqueID>  (25) 
462

>  <SMILES>  (25) 
S=c1c2cnccc2nc(/C=C/c2cccnc2)n1CC1CCCCC1

>  <Energy>  (25) 
76.6718342716116

>  <Genealogy>  (25) 
S=c1c2cnccc2nc(/C=C/c2cccnc2)n1CC1CCCCC1 (cis-trans isomerization)
S=c1c2cnccc2nc(/C=C/c2cccnc2)n1CC1CCCCC1 (3D coordinates assigned)
S=c1c2cnccc2nc(/C=C/c2cccnc2)n1CC1CCCCC1 (nonaromatic ring conformer: 76.6718342716116 kcal/mol)

>  <smiles>  (25) 
S=c1c2cnccc2nc(/C=C/c2cccnc2)n1CC1CCCCC1

>  <score_type>  (25) 
oracle

>  <origin>  (25) 
autodockgpu

>  <m_score__min__energy>  (25) 
-7.1799999999999997

>  <m_primary>  (25) 
energy

>  <meeko>  (25) 
{"free_energy": -6.95, "intermolecular_energy": -8.44, "internal_energy": -1.48, "cluster_size": 7, "cluster_id": 2, "rank_in_cluster": 5}

>  <energy>  (25) 
-7.06

>  <cluster_rmsd>  (25) 
0.82

>  <rmsd>  (25) 
270.19

>  <cluster>  (25) 
2

$$$$
VFWNAPSESRSYPS-CMDGGOBGNA-N
     RDKit          3D

 48 51  0  0  0  0  0  0  0  0999 V2000
  143.6816   75.8425  218.1615 H   0  0  0  0  0  0  0  0  0  0  0  0
  143.6570   75.4640  219.1940 C   0  0  0  0  0  0  0  0  0  0  0  0
  142.8220   76.0540  220.0650 C   0  0  0  0  0  0  0  0  0  0  0  0
  143.0070   77.0985  220.3563 H   0  0  0  0  0  0  0  0  0  0  0  0
  141.6510   75.3370  220.6500 C   0  0  0  0  0  0  0  0  0  0  0  0
  141.7850   74.0000  220.8470 N   0  0  0  0  0  0  0  0  0  0  0  0
  140.8060   73.2390  221.3730 C   0  0  0  0  0  0  0  0  0  0  0  0
  141.0080   71.8660  221.5320 C   0  0  0  0  0  0  0  0  0  0  0  0
  141.9557   71.4043  221.2180 H   0  0  0  0  0  0  0  0  0  0  0  0
  139.9980   71.0870  222.0920 C   0  0  0  0  0  0  0  0  0  0  0  0
  140.1454   70.0046  222.2215 H   0  0  0  0  0  0  0  0  0  0  0  0
  138.8310   71.6650  222.4780 N   0  0  0  0  0  0  0  0  0  0  0  0
  138.6090   72.9980  222.3380 C   0  0  0  0  0  0  0  0  0  0  0  0
  137.6514   73.4301  222.6640 H   0  0  0  0  0  0  0  0  0  0  0  0
  139.6030   73.8340  221.7750 C   0  0  0  0  0  0  0  0  0  0  0  0
  139.4550   75.2330  221.5990 C   0  0  0  0  0  0  0  0  0  0  0  0
  138.1110   75.9720  222.2250 S   0  0  0  0  0  0  0  0  0  0  0  0
  140.4590   75.9680  220.9780 N   0  0  0  0  0  0  0  0  0  0  0  0
  140.2790   77.4250  220.7090 C   0  0  0  0  0  0  0  0  0  0  0  0
  140.5191   77.6119  219.6519 H   0  0  0  0  0  0  0  0  0  0  0  0
  139.2352   77.6640  220.9605 H   0  0  0  0  0  0  0  0  0  0  0  0
  141.1720   78.3570  221.5840 C   0  0  0  0  0  0  0  0  0  0  0  0
  142.1727   77.9081  221.5003 H   0  0  0  0  0  0  0  0  0  0  0  0
  141.2960   79.8110  221.0560 C   0  0  0  0  0  0  0  0  0  0  0  0
  142.0036   79.8159  220.2138 H   0  0  0  0  0  0  0  0  0  0  0  0
  140.2874   80.1326  220.7571 H   0  0  0  0  0  0  0  0  0  0  0  0
  141.7950   80.8150  222.1190 C   0  0  0  0  0  0  0  0  0  0  0  0
  142.4116   81.5791  221.6231 H   0  0  0  0  0  0  0  0  0  0  0  0
  140.9137   81.2635  222.6008 H   0  0  0  0  0  0  0  0  0  0  0  0
  142.6310   80.1360  223.2060 C   0  0  0  0  0  0  0  0  0  0  0  0
  143.5066   79.6612  222.7393 H   0  0  0  0  0  0  0  0  0  0  0  0
  142.9418   80.9019  223.9318 H   0  0  0  0  0  0  0  0  0  0  0  0
  141.8180   79.0620  223.9540 C   0  0  0  0  0  0  0  0  0  0  0  0
  142.5151   78.3026  224.3379 H   0  0  0  0  0  0  0  0  0  0  0  0
  141.2718   79.5736  224.7602 H   0  0  0  0  0  0  0  0  0  0  0  0
  140.7660   78.3570  223.0700 C   0  0  0  0  0  0  0  0  0  0  0  0
  140.6566   77.3162  223.4088 H   0  0  0  0  0  0  0  0  0  0  0  0
  139.8177   78.9064  223.1645 H   0  0  0  0  0  0  0  0  0  0  0  0
  144.5480   74.3310  219.5450 C   0  0  0  0  0  0  0  0  0  0  0  0
  144.8460   73.3710  218.5650 C   0  0  0  0  0  0  0  0  0  0  0  0
  144.4257   73.4748  217.5538 H   0  0  0  0  0  0  0  0  0  0  0  0
  145.6500   72.3140  218.8560 N   0  0  0  0  0  0  0  0  0  0  0  0
  146.1840   72.1420  220.0930 C   0  0  0  0  0  0  0  0  0  0  0  0
  146.8374   71.2803  220.2945 H   0  0  0  0  0  0  0  0  0  0  0  0
  145.9050   73.0560  221.1070 C   0  0  0  0  0  0  0  0  0  0  0  0
  146.3294   72.9157  222.1121 H   0  0  0  0  0  0  0  0  0  0  0  0
  145.0820   74.1520  220.8370 C   0  0  0  0  0  0  0  0  0  0  0  0
  144.8507   74.8753  221.6328 H   0  0  0  0  0  0  0  0  0  0  0  0
  1  2  1  0
  2  3  2  0
  3  4  1  0
  3  5  1  0
  5  6  2  0
  6  7  1  0
  7  8  2  0
  8  9  1  0
  8 10  1  0
 10 11  1  0
 10 12  2  0
 12 13  1  0
 13 14  1  0
 13 15  2  0
 15 16  1  0
 16 17  2  0
 16 18  1  0
 18 19  1  0
 19 20  1  0
 19 21  1  0
 19 22  1  0
 22 23  1  0
 22 24  1  0
 24 25  1  0
 24 26  1  0
 24 27  1  0
 27 28  1  0
 27 29  1  0
 27 30  1  0
 30 31  1  0
 30 32  1  0
 30 33  1  0
 33 34  1  0
 33 35  1  0
 33 36  1  0
 36 37  1  0
 36 38  1  0
  2 39  1  0
 39 40  2  0
 40 41  1  0
 40 42  1  0
 42 43  2  0
 43 44  1  0
 43 45  1  0
 45 46  1  0
 45 47  2  0
 47 48  1  0
 18  5  1  0
 36 22  1  0
 47 39  1  0
 15  7  1  0
M  END
>  <UniqueID>  (26) 
462

>  <SMILES>  (26) 
S=c1c2cnccc2nc(/C=C/c2cccnc2)n1CC1CCCCC1

>  <Energy>  (26) 
76.6718342716116

>  <Genealogy>  (26) 
S=c1c2cnccc2nc(/C=C/c2cccnc2)n1CC1CCCCC1 (cis-trans isomerization)
S=c1c2cnccc2nc(/C=C/c2cccnc2)n1CC1CCCCC1 (3D coordinates assigned)
S=c1c2cnccc2nc(/C=C/c2cccnc2)n1CC1CCCCC1 (nonaromatic ring conformer: 76.6718342716116 kcal/mol)

>  <smiles>  (26) 
S=c1c2cnccc2nc(/C=C/c2cccnc2)n1CC1CCCCC1

>  <score_type>  (26) 
oracle

>  <origin>  (26) 
autodockgpu

>  <m_score__min__energy>  (26) 
-7.1799999999999997

>  <m_primary>  (26) 
energy

>  <meeko>  (26) 
{"free_energy": -7.1, "intermolecular_energy": -8.59, "internal_energy": -1.34, "cluster_size": 7, "cluster_id": 2, "rank_in_cluster": 3}

>  <energy>  (26) 
-6.95

>  <cluster_rmsd>  (26) 
0.36

>  <rmsd>  (26) 
270.13

>  <cluster>  (26) 
2

$$$$
VFWNAPSESRSYPS-CMDGGOBGNA-N
     RDKit          3D

 48 51  0  0  0  0  0  0  0  0999 V2000
  143.6301   75.9010  218.1635 H   0  0  0  0  0  0  0  0  0  0  0  0
  143.5940   75.5100  219.1910 C   0  0  0  0  0  0  0  0  0  0  0  0
  142.7500   76.0890  220.0600 C   0  0  0  0  0  0  0  0  0  0  0  0
  142.9168   77.1381  220.3457 H   0  0  0  0  0  0  0  0  0  0  0  0
  141.5920   75.3540  220.6510 C   0  0  0  0  0  0  0  0  0  0  0  0
  141.7330   74.0130  220.8110 N   0  0  0  0  0  0  0  0  0  0  0  0
  140.7670   73.2370  221.3380 C   0  0  0  0  0  0  0  0  0  0  0  0
  140.9750   71.8610  221.4570 C   0  0  0  0  0  0  0  0  0  0  0  0
  141.9168   71.4099  221.1112 H   0  0  0  0  0  0  0  0  0  0  0  0
  139.9780   71.0650  222.0180 C   0  0  0  0  0  0  0  0  0  0  0  0
  140.1303   69.9801  222.1166 H   0  0  0  0  0  0  0  0  0  0  0  0
  138.8180   71.6300  222.4430 N   0  0  0  0  0  0  0  0  0  0  0  0
  138.5910   72.9670  222.3420 C   0  0  0  0  0  0  0  0  0  0  0  0
  137.6399   73.3886  222.6993 H   0  0  0  0  0  0  0  0  0  0  0  0
  139.5710   73.8190  221.7800 C   0  0  0  0  0  0  0  0  0  0  0  0
  139.4170   75.2220  221.6430 C   0  0  0  0  0  0  0  0  0  0  0  0
  138.0850   75.9410  222.3160 S   0  0  0  0  0  0  0  0  0  0  0  0
  140.4070   75.9750  221.0200 N   0  0  0  0  0  0  0  0  0  0  0  0
  140.2180   77.4370  220.7920 C   0  0  0  0  0  0  0  0  0  0  0  0
  140.3870   77.6436  219.7249 H   0  0  0  0  0  0  0  0  0  0  0  0
  139.1950   77.6763  221.1179 H   0  0  0  0  0  0  0  0  0  0  0  0
  141.1750   78.3470  221.6230 C   0  0  0  0  0  0  0  0  0  0  0  0
  142.1290   77.7996  221.6071 H   0  0  0  0  0  0  0  0  0  0  0  0
  141.4530   79.7370  220.9890 C   0  0  0  0  0  0  0  0  0  0  0  0
  142.1787   79.6081  220.1725 H   0  0  0  0  0  0  0  0  0  0  0  0
  140.4885   80.1283  220.6330 H   0  0  0  0  0  0  0  0  0  0  0  0
  142.0200   80.7690  221.9880 C   0  0  0  0  0  0  0  0  0  0  0  0
  142.7198   81.4300  221.4557 H   0  0  0  0  0  0  0  0  0  0  0  0
  141.1743   81.3350  222.4057 H   0  0  0  0  0  0  0  0  0  0  0  0
  142.7590   80.1020  223.1500 C   0  0  0  0  0  0  0  0  0  0  0  0
  143.5956   79.5106  222.7495 H   0  0  0  0  0  0  0  0  0  0  0  0
  143.1251   80.8899  223.8247 H   0  0  0  0  0  0  0  0  0  0  0  0
  141.8270   79.1730  223.9510 C   0  0  0  0  0  0  0  0  0  0  0  0
  142.4371   78.3840  224.4150 H   0  0  0  0  0  0  0  0  0  0  0  0
  141.3127   79.7966  224.6971 H   0  0  0  0  0  0  0  0  0  0  0  0
  140.7350   78.5030  223.0900 C   0  0  0  0  0  0  0  0  0  0  0  0
  140.5173   77.5073  223.5036 H   0  0  0  0  0  0  0  0  0  0  0  0
  139.8424   79.1455  223.1114 H   0  0  0  0  0  0  0  0  0  0  0  0
  144.4810   74.3720  219.5390 C   0  0  0  0  0  0  0  0  0  0  0  0
  144.8110   73.4380  218.5440 C   0  0  0  0  0  0  0  0  0  0  0  0
  144.4177   73.5649  217.5246 H   0  0  0  0  0  0  0  0  0  0  0  0
  145.6120   72.3790  218.8300 N   0  0  0  0  0  0  0  0  0  0  0  0
  146.1140   72.1780  220.0770 C   0  0  0  0  0  0  0  0  0  0  0  0
  146.7660   71.3143  220.2745 H   0  0  0  0  0  0  0  0  0  0  0  0
  145.8030   73.0660  221.1060 C   0  0  0  0  0  0  0  0  0  0  0  0
  146.2013   72.9035  222.1184 H   0  0  0  0  0  0  0  0  0  0  0  0
  144.9810   74.1640  220.8400 C   0  0  0  0  0  0  0  0  0  0  0  0
  144.7240   74.8665  221.6465 H   0  0  0  0  0  0  0  0  0  0  0  0
  1  2  1  0
  2  3  2  0
  3  4  1  0
  3  5  1  0
  5  6  2  0
  6  7  1  0
  7  8  2  0
  8  9  1  0
  8 10  1  0
 10 11  1  0
 10 12  2  0
 12 13  1  0
 13 14  1  0
 13 15  2  0
 15 16  1  0
 16 17  2  0
 16 18  1  0
 18 19  1  0
 19 20  1  0
 19 21  1  0
 19 22  1  0
 22 23  1  0
 22 24  1  0
 24 25  1  0
 24 26  1  0
 24 27  1  0
 27 28  1  0
 27 29  1  0
 27 30  1  0
 30 31  1  0
 30 32  1  0
 30 33  1  0
 33 34  1  0
 33 35  1  0
 33 36  1  0
 36 37  1  0
 36 38  1  0
  2 39  1  0
 39 40  2  0
 40 41  1  0
 40 42  1  0
 42 43  2  0
 43 44  1  0
 43 45  1  0
 45 46  1  0
 45 47  2  0
 47 48  1  0
 18  5  1  0
 36 22  1  0
 47 39  1  0
 15  7  1  0
M  END
>  <UniqueID>  (27) 
462

>  <SMILES>  (27) 
S=c1c2cnccc2nc(/C=C/c2cccnc2)n1CC1CCCCC1

>  <Energy>  (27) 
76.6718342716116

>  <Genealogy>  (27) 
S=c1c2cnccc2nc(/C=C/c2cccnc2)n1CC1CCCCC1 (cis-trans isomerization)
S=c1c2cnccc2nc(/C=C/c2cccnc2)n1CC1CCCCC1 (3D coordinates assigned)
S=c1c2cnccc2nc(/C=C/c2cccnc2)n1CC1CCCCC1 (nonaromatic ring conformer: 76.6718342716116 kcal/mol)

>  <smiles>  (27) 
S=c1c2cnccc2nc(/C=C/c2cccnc2)n1CC1CCCCC1

>  <score_type>  (27) 
oracle

>  <origin>  (27) 
autodockgpu

>  <m_score__min__energy>  (27) 
-7.1799999999999997

>  <m_primary>  (27) 
energy

>  <meeko>  (27) 
{"free_energy": -7.14, "intermolecular_energy": -8.63, "internal_energy": -1.33, "cluster_size": 7, "cluster_id": 2, "rank_in_cluster": 2}

>  <energy>  (27) 
-6.92

>  <cluster_rmsd>  (27) 
0.37

>  <rmsd>  (27) 
270.1

>  <cluster>  (27) 
2

$$$$
VFWNAPSESRSYPS-CMDGGOBGNA-N
     RDKit          3D

 48 51  0  0  0  0  0  0  0  0999 V2000
  143.6409   75.9130  218.1484 H   0  0  0  0  0  0  0  0  0  0  0  0
  143.5870   75.5190  219.1740 C   0  0  0  0  0  0  0  0  0  0  0  0
  142.7370   76.1030  220.0330 C   0  0  0  0  0  0  0  0  0  0  0  0
  142.8970   77.1560  220.3080 H   0  0  0  0  0  0  0  0  0  0  0  0
  141.5810   75.3680  220.6270 C   0  0  0  0  0  0  0  0  0  0  0  0
  141.7160   74.0250  220.7730 N   0  0  0  0  0  0  0  0  0  0  0  0
  140.7510   73.2480  221.3020 C   0  0  0  0  0  0  0  0  0  0  0  0
  140.9530   71.8710  221.4070 C   0  0  0  0  0  0  0  0  0  0  0  0
  141.8893   71.4184  221.0485 H   0  0  0  0  0  0  0  0  0  0  0  0
  139.9580   71.0750  221.9700 C   0  0  0  0  0  0  0  0  0  0  0  0
  140.1064   69.9886  222.0580 H   0  0  0  0  0  0  0  0  0  0  0  0
  138.8050   71.6410  222.4100 N   0  0  0  0  0  0  0  0  0  0  0  0
  138.5830   72.9790  222.3240 C   0  0  0  0  0  0  0  0  0  0  0  0
  137.6374   73.4015  222.6947 H   0  0  0  0  0  0  0  0  0  0  0  0
  139.5620   73.8320  221.7600 C   0  0  0  0  0  0  0  0  0  0  0  0
  139.4140   75.2370  221.6370 C   0  0  0  0  0  0  0  0  0  0  0  0
  138.0910   75.9570  222.3290 S   0  0  0  0  0  0  0  0  0  0  0  0
  140.4010   75.9910  221.0130 N   0  0  0  0  0  0  0  0  0  0  0  0
  140.2180   77.4560  220.8000 C   0  0  0  0  0  0  0  0  0  0  0  0
  140.3774   77.6712  219.7331 H   0  0  0  0  0  0  0  0  0  0  0  0
  139.1997   77.6980  221.1384 H   0  0  0  0  0  0  0  0  0  0  0  0
  141.1880   78.3530  221.6290 C   0  0  0  0  0  0  0  0  0  0  0  0
  142.1222   77.7725  221.6471 H   0  0  0  0  0  0  0  0  0  0  0  0
  141.5270   79.7170  220.9680 C   0  0  0  0  0  0  0  0  0  0  0  0
  142.2651   79.5433  220.1711 H   0  0  0  0  0  0  0  0  0  0  0  0
  140.5840   80.1315  220.5820 H   0  0  0  0  0  0  0  0  0  0  0  0
  142.1080   80.7550  221.9540 C   0  0  0  0  0  0  0  0  0  0  0  0
  142.8417   81.3780  221.4215 H   0  0  0  0  0  0  0  0  0  0  0  0
  141.2740   81.3606  222.3384 H   0  0  0  0  0  0  0  0  0  0  0  0
  142.7980   80.0920  223.1480 C   0  0  0  0  0  0  0  0  0  0  0  0
  143.6216   79.4623  222.7805 H   0  0  0  0  0  0  0  0  0  0  0  0
  143.1765   80.8837  223.8113 H   0  0  0  0  0  0  0  0  0  0  0  0
  141.8180   79.2160  223.9510 C   0  0  0  0  0  0  0  0  0  0  0  0
  142.3904   78.4187  224.4476 H   0  0  0  0  0  0  0  0  0  0  0  0
  141.3099   79.8751  224.6704 H   0  0  0  0  0  0  0  0  0  0  0  0
  140.7220   78.5620  223.0820 C   0  0  0  0  0  0  0  0  0  0  0  0
  140.4605   77.5853  223.5153 H   0  0  0  0  0  0  0  0  0  0  0  0
  139.8524   79.2355  223.0670 H   0  0  0  0  0  0  0  0  0  0  0  0
  144.4580   74.3720  219.5300 C   0  0  0  0  0  0  0  0  0  0  0  0
  144.8020   73.4440  218.5330 C   0  0  0  0  0  0  0  0  0  0  0  0
  144.4315   73.5830  217.5066 H   0  0  0  0  0  0  0  0  0  0  0  0
  145.5890   72.3760  218.8270 N   0  0  0  0  0  0  0  0  0  0  0  0
  146.0630   72.1600  220.0820 C   0  0  0  0  0  0  0  0  0  0  0  0
  146.7042   71.2896  220.2853 H   0  0  0  0  0  0  0  0  0  0  0  0
  145.7370   73.0410  221.1120 C   0  0  0  0  0  0  0  0  0  0  0  0
  146.1126   72.8668  222.1311 H   0  0  0  0  0  0  0  0  0  0  0  0
  144.9290   74.1470  220.8380 C   0  0  0  0  0  0  0  0  0  0  0  0
  144.6600   74.8437  221.6456 H   0  0  0  0  0  0  0  0  0  0  0  0
  1  2  1  0
  2  3  2  0
  3  4  1  0
  3  5  1  0
  5  6  2  0
  6  7  1  0
  7  8  2  0
  8  9  1  0
  8 10  1  0
 10 11  1  0
 10 12  2  0
 12 13  1  0
 13 14  1  0
 13 15  2  0
 15 16  1  0
 16 17  2  0
 16 18  1  0
 18 19  1  0
 19 20  1  0
 19 21  1  0
 19 22  1  0
 22 23  1  0
 22 24  1  0
 24 25  1  0
 24 26  1  0
 24 27  1  0
 27 28  1  0
 27 29  1  0
 27 30  1  0
 30 31  1  0
 30 32  1  0
 30 33  1  0
 33 34  1  0
 33 35  1  0
 33 36  1  0
 36 37  1  0
 36 38  1  0
  2 39  1  0
 39 40  2  0
 40 41  1  0
 40 42  1  0
 42 43  2  0
 43 44  1  0
 43 45  1  0
 45 46  1  0
 45 47  2  0
 47 48  1  0
 18  5  1  0
 36 22  1  0
 47 39  1  0
 15  7  1  0
M  END
>  <UniqueID>  (28) 
462

>  <SMILES>  (28) 
S=c1c2cnccc2nc(/C=C/c2cccnc2)n1CC1CCCCC1

>  <Energy>  (28) 
76.6718342716116

>  <Genealogy>  (28) 
S=c1c2cnccc2nc(/C=C/c2cccnc2)n1CC1CCCCC1 (cis-trans isomerization)
S=c1c2cnccc2nc(/C=C/c2cccnc2)n1CC1CCCCC1 (3D coordinates assigned)
S=c1c2cnccc2nc(/C=C/c2cccnc2)n1CC1CCCCC1 (nonaromatic ring conformer: 76.6718342716116 kcal/mol)

>  <smiles>  (28) 
S=c1c2cnccc2nc(/C=C/c2cccnc2)n1CC1CCCCC1

>  <score_type>  (28) 
oracle

>  <origin>  (28) 
autodockgpu

>  <m_score__min__energy>  (28) 
-7.1799999999999997

>  <m_primary>  (28) 
energy

>  <meeko>  (28) 
{"free_energy": -7.14, "intermolecular_energy": -8.63, "internal_energy": -1.32, "cluster_size": 7, "cluster_id": 2, "rank_in_cluster": 1}

>  <energy>  (28) 
-6.74

>  <cluster_rmsd>  (28) 
0.64

>  <rmsd>  (28) 
270.09

>  <cluster>  (28) 
2

$$$$
VFWNAPSESRSYPS-CMDGGOBGNA-N
     RDKit          3D

 48 51  0  0  0  0  0  0  0  0999 V2000
  141.2346   76.0331  223.0805 H   0  0  0  0  0  0  0  0  0  0  0  0
  141.0760   76.7620  222.2720 C   0  0  0  0  0  0  0  0  0  0  0  0
  140.8780   76.2960  221.0290 C   0  0  0  0  0  0  0  0  0  0  0  0
  139.8704   76.3557  220.5918 H   0  0  0  0  0  0  0  0  0  0  0  0
  141.9830   75.6990  220.2210 C   0  0  0  0  0  0  0  0  0  0  0  0
  142.7910   74.8070  220.8490 N   0  0  0  0  0  0  0  0  0  0  0  0
  143.8180   74.1930  220.2300 C   0  0  0  0  0  0  0  0  0  0  0  0
  144.6180   73.2980  220.9440 C   0  0  0  0  0  0  0  0  0  0  0  0
  144.4201   73.1036  222.0084 H   0  0  0  0  0  0  0  0  0  0  0  0
  145.6690   72.6540  220.2950 C   0  0  0  0  0  0  0  0  0  0  0  0
  146.3065   71.9476  220.8469 H   0  0  0  0  0  0  0  0  0  0  0  0
  145.9060   72.8990  218.9800 N   0  0  0  0  0  0  0  0  0  0  0  0
  145.1410   73.7620  218.2610 C   0  0  0  0  0  0  0  0  0  0  0  0
  145.3619   73.9322  217.1969 H   0  0  0  0  0  0  0  0  0  0  0  0
  144.0620   74.4430  218.8730 C   0  0  0  0  0  0  0  0  0  0  0  0
  143.2130   75.3540  218.1960 C   0  0  0  0  0  0  0  0  0  0  0  0
  143.3830   75.5250  216.5560 S   0  0  0  0  0  0  0  0  0  0  0  0
  142.2130   76.0260  218.8910 N   0  0  0  0  0  0  0  0  0  0  0  0
  141.3710   77.0510  218.2090 C   0  0  0  0  0  0  0  0  0  0  0  0
  141.6236   77.0469  217.1384 H   0  0  0  0  0  0  0  0  0  0  0  0
  140.3236   76.7769  218.4034 H   0  0  0  0  0  0  0  0  0  0  0  0
  141.5590   78.5020  218.7490 C   0  0  0  0  0  0  0  0  0  0  0  0
  141.9991   78.3495  219.7455 H   0  0  0  0  0  0  0  0  0  0  0  0
  142.5710   79.3620  217.9450 C   0  0  0  0  0  0  0  0  0  0  0  0
  143.5890   79.0552  218.2269 H   0  0  0  0  0  0  0  0  0  0  0  0
  142.3628   79.1918  216.8784 H   0  0  0  0  0  0  0  0  0  0  0  0
  142.4310   80.8790  218.1970 C   0  0  0  0  0  0  0  0  0  0  0  0
  143.4279   81.3408  218.1420 H   0  0  0  0  0  0  0  0  0  0  0  0
  141.7575   81.2882  217.4296 H   0  0  0  0  0  0  0  0  0  0  0  0
  141.8220   81.1830  219.5670 C   0  0  0  0  0  0  0  0  0  0  0  0
  142.4705   80.7601  220.3484 H   0  0  0  0  0  0  0  0  0  0  0  0
  141.7409   82.2747  219.6746 H   0  0  0  0  0  0  0  0  0  0  0  0
  140.4120   80.5770  219.7040 C   0  0  0  0  0  0  0  0  0  0  0  0
  140.2202   80.3788  220.7689 H   0  0  0  0  0  0  0  0  0  0  0  0
  139.7045   81.3054  219.2810 H   0  0  0  0  0  0  0  0  0  0  0  0
  140.2290   79.2590  218.9210 C   0  0  0  0  0  0  0  0  0  0  0  0
  139.5225   78.6165  219.4670 H   0  0  0  0  0  0  0  0  0  0  0  0
  139.8474   79.5082  217.9199 H   0  0  0  0  0  0  0  0  0  0  0  0
  141.0930   78.2050  222.6170 C   0  0  0  0  0  0  0  0  0  0  0  0
  139.9030   78.8160  223.0450 C   0  0  0  0  0  0  0  0  0  0  0  0
  138.9824   78.2196  223.1274 H   0  0  0  0  0  0  0  0  0  0  0  0
  139.8800   80.1380  223.3580 N   0  0  0  0  0  0  0  0  0  0  0  0
  140.9900   80.9150  223.2630 C   0  0  0  0  0  0  0  0  0  0  0  0
  140.9396   81.9809  223.5302 H   0  0  0  0  0  0  0  0  0  0  0  0
  142.1930   80.3620  222.8270 C   0  0  0  0  0  0  0  0  0  0  0  0
  143.0931   80.9887  222.7428 H   0  0  0  0  0  0  0  0  0  0  0  0
  142.2460   79.0060  222.4980 C   0  0  0  0  0  0  0  0  0  0  0  0
  143.1890   78.5626  222.1455 H   0  0  0  0  0  0  0  0  0  0  0  0
  1  2  1  0
  2  3  2  0
  3  4  1  0
  3  5  1  0
  5  6  2  0
  6  7  1  0
  7  8  2  0
  8  9  1  0
  8 10  1  0
 10 11  1  0
 10 12  2  0
 12 13  1  0
 13 14  1  0
 13 15  2  0
 15 16  1  0
 16 17  2  0
 16 18  1  0
 18 19  1  0
 19 20  1  0
 19 21  1  0
 19 22  1  0
 22 23  1  0
 22 24  1  0
 24 25  1  0
 24 26  1  0
 24 27  1  0
 27 28  1  0
 27 29  1  0
 27 30  1  0
 30 31  1  0
 30 32  1  0
 30 33  1  0
 33 34  1  0
 33 35  1  0
 33 36  1  0
 36 37  1  0
 36 38  1  0
  2 39  1  0
 39 40  2  0
 40 41  1  0
 40 42  1  0
 42 43  2  0
 43 44  1  0
 43 45  1  0
 45 46  1  0
 45 47  2  0
 47 48  1  0
 18  5  1  0
 36 22  1  0
 47 39  1  0
 15  7  1  0
M  END
>  <UniqueID>  (29) 
462

>  <SMILES>  (29) 
S=c1c2cnccc2nc(/C=C/c2cccnc2)n1CC1CCCCC1

>  <Energy>  (29) 
76.6718342716116

>  <Genealogy>  (29) 
S=c1c2cnccc2nc(/C=C/c2cccnc2)n1CC1CCCCC1 (cis-trans isomerization)
S=c1c2cnccc2nc(/C=C/c2cccnc2)n1CC1CCCCC1 (3D coordinates assigned)
S=c1c2cnccc2nc(/C=C/c2cccnc2)n1CC1CCCCC1 (nonaromatic ring conformer: 76.6718342716116 kcal/mol)

>  <smiles>  (29) 
S=c1c2cnccc2nc(/C=C/c2cccnc2)n1CC1CCCCC1

>  <score_type>  (29) 
oracle

>  <origin>  (29) 
autodockgpu

>  <m_score__min__energy>  (29) 
-7.1799999999999997

>  <m_primary>  (29) 
energy

>  <meeko>  (29) 
{"free_energy": -6.43, "intermolecular_energy": -7.92, "internal_energy": -1.85, "cluster_size": 9, "cluster_id": 4, "rank_in_cluster": 5}

>  <energy>  (29) 
-6.81

>  <cluster_rmsd>  (29) 
0.0

>  <rmsd>  (29) 
269.91

>  <cluster>  (29) 
3

$$$$
VFWNAPSESRSYPS-CMDGGOBGNA-N
     RDKit          3D

 48 51  0  0  0  0  0  0  0  0999 V2000
  141.2202   76.1249  223.0583 H   0  0  0  0  0  0  0  0  0  0  0  0
  141.0750   76.8500  222.2440 C   0  0  0  0  0  0  0  0  0  0  0  0
  140.8750   76.3780  221.0030 C   0  0  0  0  0  0  0  0  0  0  0  0
  139.8697   76.4482  220.5620 H   0  0  0  0  0  0  0  0  0  0  0  0
  141.9740   75.7610  220.2030 C   0  0  0  0  0  0  0  0  0  0  0  0
  142.7620   74.8560  220.8380 N   0  0  0  0  0  0  0  0  0  0  0  0
  143.7820   74.2230  220.2270 C   0  0  0  0  0  0  0  0  0  0  0  0
  144.5620   73.3150  220.9480 C   0  0  0  0  0  0  0  0  0  0  0  0
  144.3542   73.1261  222.0116 H   0  0  0  0  0  0  0  0  0  0  0  0
  145.6060   72.6510  220.3060 C   0  0  0  0  0  0  0  0  0  0  0  0
  146.2275   71.9341  220.8626 H   0  0  0  0  0  0  0  0  0  0  0  0
  145.8550   72.8900  218.9930 N   0  0  0  0  0  0  0  0  0  0  0  0
  145.1100   73.7650  218.2670 C   0  0  0  0  0  0  0  0  0  0  0  0
  145.3410   73.9297  217.2042 H   0  0  0  0  0  0  0  0  0  0  0  0
  144.0390   74.4650  218.8710 C   0  0  0  0  0  0  0  0  0  0  0  0
  143.2100   75.3900  218.1860 C   0  0  0  0  0  0  0  0  0  0  0  0
  143.3940   75.5540  216.5480 S   0  0  0  0  0  0  0  0  0  0  0  0
  142.2190   76.0810  218.8740 N   0  0  0  0  0  0  0  0  0  0  0  0
  141.3980   77.1190  218.1850 C   0  0  0  0  0  0  0  0  0  0  0  0
  141.6783   77.1295  217.1214 H   0  0  0  0  0  0  0  0  0  0  0  0
  140.3449   76.8459  218.3478 H   0  0  0  0  0  0  0  0  0  0  0  0
  141.5770   78.5610  218.7510 C   0  0  0  0  0  0  0  0  0  0  0  0
  142.0408   78.3955  219.7346 H   0  0  0  0  0  0  0  0  0  0  0  0
  142.5590   79.4520  217.9430 C   0  0  0  0  0  0  0  0  0  0  0  0
  143.5873   79.1550  218.1969 H   0  0  0  0  0  0  0  0  0  0  0  0
  142.3306   79.2999  216.8778 H   0  0  0  0  0  0  0  0  0  0  0  0
  142.4020   80.9620  218.2290 C   0  0  0  0  0  0  0  0  0  0  0  0
  143.3903   81.4402  218.1618 H   0  0  0  0  0  0  0  0  0  0  0  0
  141.7060   81.3767  217.4849 H   0  0  0  0  0  0  0  0  0  0  0  0
  141.8190   81.2280  219.6180 C   0  0  0  0  0  0  0  0  0  0  0  0
  142.4904   80.7985  220.3761 H   0  0  0  0  0  0  0  0  0  0  0  0
  141.7247   82.3158  219.7510 H   0  0  0  0  0  0  0  0  0  0  0  0
  140.4210   80.5980  219.7720 C   0  0  0  0  0  0  0  0  0  0  0  0
  140.2551   80.3751  220.8363 H   0  0  0  0  0  0  0  0  0  0  0  0
  139.6942   81.3242  219.3791 H   0  0  0  0  0  0  0  0  0  0  0  0
  140.2400   79.2940  218.9660 C   0  0  0  0  0  0  0  0  0  0  0  0
  139.5545   78.6301  219.5131 H   0  0  0  0  0  0  0  0  0  0  0  0
  139.8333   79.5575  217.9785 H   0  0  0  0  0  0  0  0  0  0  0  0
  141.1110   78.2950  222.5780 C   0  0  0  0  0  0  0  0  0  0  0  0
  142.3020   79.0110  222.3720 C   0  0  0  0  0  0  0  0  0  0  0  0
  143.1833   78.4972  221.9606 H   0  0  0  0  0  0  0  0  0  0  0  0
  142.3740   80.3340  222.6770 N   0  0  0  0  0  0  0  0  0  0  0  0
  141.3140   81.0060  223.1960 C   0  0  0  0  0  0  0  0  0  0  0  0
  141.4022   82.0780  223.4264 H   0  0  0  0  0  0  0  0  0  0  0  0
  140.1140   80.3380  223.4370 C   0  0  0  0  0  0  0  0  0  0  0  0
  139.2550   80.8771  223.8630 H   0  0  0  0  0  0  0  0  0  0  0  0
  140.0120   78.9790  223.1330 C   0  0  0  0  0  0  0  0  0  0  0  0
  139.0719   78.4418  223.3272 H   0  0  0  0  0  0  0  0  0  0  0  0
  1  2  1  0
  2  3  2  0
  3  4  1  0
  3  5  1  0
  5  6  2  0
  6  7  1  0
  7  8  2  0
  8  9  1  0
  8 10  1  0
 10 11  1  0
 10 12  2  0
 12 13  1  0
 13 14  1  0
 13 15  2  0
 15 16  1  0
 16 17  2  0
 16 18  1  0
 18 19  1  0
 19 20  1  0
 19 21  1  0
 19 22  1  0
 22 23  1  0
 22 24  1  0
 24 25  1  0
 24 26  1  0
 24 27  1  0
 27 28  1  0
 27 29  1  0
 27 30  1  0
 30 31  1  0
 30 32  1  0
 30 33  1  0
 33 34  1  0
 33 35  1  0
 33 36  1  0
 36 37  1  0
 36 38  1  0
  2 39  1  0
 39 40  2  0
 40 41  1  0
 40 42  1  0
 42 43  2  0
 43 44  1  0
 43 45  1  0
 45 46  1  0
 45 47  2  0
 47 48  1  0
 18  5  1  0
 36 22  1  0
 47 39  1  0
 15  7  1  0
M  END
>  <UniqueID>  (30) 
462

>  <SMILES>  (30) 
S=c1c2cnccc2nc(/C=C/c2cccnc2)n1CC1CCCCC1

>  <Energy>  (30) 
76.6718342716116

>  <Genealogy>  (30) 
S=c1c2cnccc2nc(/C=C/c2cccnc2)n1CC1CCCCC1 (cis-trans isomerization)
S=c1c2cnccc2nc(/C=C/c2cccnc2)n1CC1CCCCC1 (3D coordinates assigned)
S=c1c2cnccc2nc(/C=C/c2cccnc2)n1CC1CCCCC1 (nonaromatic ring conformer: 76.6718342716116 kcal/mol)

>  <smiles>  (30) 
S=c1c2cnccc2nc(/C=C/c2cccnc2)n1CC1CCCCC1

>  <score_type>  (30) 
oracle

>  <origin>  (30) 
autodockgpu

>  <m_score__min__energy>  (30) 
-7.1799999999999997

>  <m_primary>  (30) 
energy

>  <meeko>  (30) 
{"free_energy": -6.36, "intermolecular_energy": -7.86, "internal_energy": -1.86, "cluster_size": 9, "cluster_id": 4, "rank_in_cluster": 7}

>  <energy>  (30) 
-6.47

>  <cluster_rmsd>  (30) 
0.0

>  <rmsd>  (30) 
270.14

>  <cluster>  (30) 
4

$$$$
VFWNAPSESRSYPS-CMDGGOBGNA-N
     RDKit          3D

 48 51  0  0  0  0  0  0  0  0999 V2000
  141.1650   76.0572  223.0215 H   0  0  0  0  0  0  0  0  0  0  0  0
  141.0760   76.8190  222.2330 C   0  0  0  0  0  0  0  0  0  0  0  0
  140.9100   76.4040  220.9660 C   0  0  0  0  0  0  0  0  0  0  0  0
  139.9270   76.5292  220.4885 H   0  0  0  0  0  0  0  0  0  0  0  0
  142.0190   75.7780  220.1860 C   0  0  0  0  0  0  0  0  0  0  0  0
  142.7940   74.8730  220.8380 N   0  0  0  0  0  0  0  0  0  0  0  0
  143.8200   74.2320  220.2460 C   0  0  0  0  0  0  0  0  0  0  0  0
  144.5850   73.3260  220.9830 C   0  0  0  0  0  0  0  0  0  0  0  0
  144.3605   73.1442  222.0444 H   0  0  0  0  0  0  0  0  0  0  0  0
  145.6360   72.6540  220.3610 C   0  0  0  0  0  0  0  0  0  0  0  0
  146.2459   71.9380  220.9314 H   0  0  0  0  0  0  0  0  0  0  0  0
  145.9060   72.8840  219.0510 N   0  0  0  0  0  0  0  0  0  0  0  0
  145.1760   73.7580  218.3090 C   0  0  0  0  0  0  0  0  0  0  0  0
  145.4241   73.9161  217.2491 H   0  0  0  0  0  0  0  0  0  0  0  0
  144.0980   74.4660  218.8930 C   0  0  0  0  0  0  0  0  0  0  0  0
  143.2840   75.3900  218.1910 C   0  0  0  0  0  0  0  0  0  0  0  0
  143.4930   75.5450  216.5540 S   0  0  0  0  0  0  0  0  0  0  0  0
  142.2850   76.0890  218.8600 N   0  0  0  0  0  0  0  0  0  0  0  0
  141.4790   77.1260  218.1520 C   0  0  0  0  0  0  0  0  0  0  0  0
  141.7917   77.1445  217.0975 H   0  0  0  0  0  0  0  0  0  0  0  0
  140.4231   76.8457  218.2805 H   0  0  0  0  0  0  0  0  0  0  0  0
  141.6320   78.5660  218.7320 C   0  0  0  0  0  0  0  0  0  0  0  0
  142.1149   78.4005  219.7064 H   0  0  0  0  0  0  0  0  0  0  0  0
  142.5800   79.4900  217.9200 C   0  0  0  0  0  0  0  0  0  0  0  0
  143.6189   79.2152  218.1551 H   0  0  0  0  0  0  0  0  0  0  0  0
  142.3392   79.3447  216.8566 H   0  0  0  0  0  0  0  0  0  0  0  0
  142.3910   80.9920  218.2260 C   0  0  0  0  0  0  0  0  0  0  0  0
  143.3664   81.4948  218.1496 H   0  0  0  0  0  0  0  0  0  0  0  0
  141.6739   81.3980  217.4974 H   0  0  0  0  0  0  0  0  0  0  0  0
  141.8230   81.2280  219.6270 C   0  0  0  0  0  0  0  0  0  0  0  0
  142.5160   80.8061  220.3698 H   0  0  0  0  0  0  0  0  0  0  0  0
  141.7047   82.3116  219.7744 H   0  0  0  0  0  0  0  0  0  0  0  0
  140.4440   80.5630  219.7940 C   0  0  0  0  0  0  0  0  0  0  0  0
  140.2996   80.3243  220.8580 H   0  0  0  0  0  0  0  0  0  0  0  0
  139.6947   81.2760  219.4197 H   0  0  0  0  0  0  0  0  0  0  0  0
  140.2810   79.2640  218.9760 C   0  0  0  0  0  0  0  0  0  0  0  0
  139.6204   78.5778  219.5261 H   0  0  0  0  0  0  0  0  0  0  0  0
  139.8522   79.5283  217.9981 H   0  0  0  0  0  0  0  0  0  0  0  0
  141.1460   78.2470  222.6280 C   0  0  0  0  0  0  0  0  0  0  0  0
  139.9890   78.8740  223.1180 C   0  0  0  0  0  0  0  0  0  0  0  0
  139.0550   78.3003  223.2104 H   0  0  0  0  0  0  0  0  0  0  0  0
  140.0140   80.1840  223.4790 N   0  0  0  0  0  0  0  0  0  0  0  0
  141.1430   80.9330  223.3740 C   0  0  0  0  0  0  0  0  0  0  0  0
  141.1324   81.9894  223.6804 H   0  0  0  0  0  0  0  0  0  0  0  0
  142.3150   80.3630  222.8780 C   0  0  0  0  0  0  0  0  0  0  0  0
  143.2299   80.9668  222.7861 H   0  0  0  0  0  0  0  0  0  0  0  0
  142.3170   79.0190  222.4990 C   0  0  0  0  0  0  0  0  0  0  0  0
  143.2344   78.5625  222.0991 H   0  0  0  0  0  0  0  0  0  0  0  0
  1  2  1  0
  2  3  2  0
  3  4  1  0
  3  5  1  0
  5  6  2  0
  6  7  1  0
  7  8  2  0
  8  9  1  0
  8 10  1  0
 10 11  1  0
 10 12  2  0
 12 13  1  0
 13 14  1  0
 13 15  2  0
 15 16  1  0
 16 17  2  0
 16 18  1  0
 18 19  1  0
 19 20  1  0
 19 21  1  0
 19 22  1  0
 22 23  1  0
 22 24  1  0
 24 25  1  0
 24 26  1  0
 24 27  1  0
 27 28  1  0
 27 29  1  0
 27 30  1  0
 30 31  1  0
 30 32  1  0
 30 33  1  0
 33 34  1  0
 33 35  1  0
 33 36  1  0
 36 37  1  0
 36 38  1  0
  2 39  1  0
 39 40  2  0
 40 41  1  0
 40 42  1  0
 42 43  2  0
 43 44  1  0
 43 45  1  0
 45 46  1  0
 45 47  2  0
 47 48  1  0
 18  5  1  0
 36 22  1  0
 47 39  1  0
 15  7  1  0
M  END
>  <UniqueID>  (31) 
462

>  <SMILES>  (31) 
S=c1c2cnccc2nc(/C=C/c2cccnc2)n1CC1CCCCC1

>  <Energy>  (31) 
76.6718342716116

>  <Genealogy>  (31) 
S=c1c2cnccc2nc(/C=C/c2cccnc2)n1CC1CCCCC1 (cis-trans isomerization)
S=c1c2cnccc2nc(/C=C/c2cccnc2)n1CC1CCCCC1 (3D coordinates assigned)
S=c1c2cnccc2nc(/C=C/c2cccnc2)n1CC1CCCCC1 (nonaromatic ring conformer: 76.6718342716116 kcal/mol)

>  <smiles>  (31) 
S=c1c2cnccc2nc(/C=C/c2cccnc2)n1CC1CCCCC1

>  <score_type>  (31) 
oracle

>  <origin>  (31) 
autodockgpu

>  <m_score__min__energy>  (31) 
-7.1799999999999997

>  <m_primary>  (31) 
energy

>  <meeko>  (31) 
{"free_energy": -6.47, "intermolecular_energy": -7.96, "internal_energy": -1.83, "cluster_size": 9, "cluster_id": 4, "rank_in_cluster": 1}

>  <energy>  (31) 
-6.45

>  <cluster_rmsd>  (31) 
0.09

>  <rmsd>  (31) 
270.12

>  <cluster>  (31) 
4

$$$$
VFWNAPSESRSYPS-CMDGGOBGNA-N
     RDKit          3D

 48 51  0  0  0  0  0  0  0  0999 V2000
  141.2806   75.9453  223.1315 H   0  0  0  0  0  0  0  0  0  0  0  0
  141.0460   76.6700  222.3380 C   0  0  0  0  0  0  0  0  0  0  0  0
  140.7750   76.1990  221.1100 C   0  0  0  0  0  0  0  0  0  0  0  0
  139.7405   76.2436  220.7388 H   0  0  0  0  0  0  0  0  0  0  0  0
  141.8330   75.6170  220.2330 C   0  0  0  0  0  0  0  0  0  0  0  0
  142.8020   74.8860  220.8420 N   0  0  0  0  0  0  0  0  0  0  0  0
  143.8090   74.3010  220.1640 C   0  0  0  0  0  0  0  0  0  0  0  0
  144.7800   73.5770  220.8590 C   0  0  0  0  0  0  0  0  0  0  0  0
  144.7323   73.4930  221.9547 H   0  0  0  0  0  0  0  0  0  0  0  0
  145.8100   72.9620  220.1500 C   0  0  0  0  0  0  0  0  0  0  0  0
  146.5816   72.3900  220.6860 H   0  0  0  0  0  0  0  0  0  0  0  0
  145.8610   73.0690  218.7970 N   0  0  0  0  0  0  0  0  0  0  0  0
  144.9270   73.7640  218.0960 C   0  0  0  0  0  0  0  0  0  0  0  0
  145.0001   73.8256  217.0002 H   0  0  0  0  0  0  0  0  0  0  0  0
  143.8610   74.4090  218.7670 C   0  0  0  0  0  0  0  0  0  0  0  0
  142.8430   75.1480  218.1130 C   0  0  0  0  0  0  0  0  0  0  0  0
  142.7980   75.1380  216.4570 S   0  0  0  0  0  0  0  0  0  0  0  0
  141.8670   75.8020  218.8570 N   0  0  0  0  0  0  0  0  0  0  0  0
  140.8430   76.6540  218.1860 C   0  0  0  0  0  0  0  0  0  0  0  0
  140.7917   76.3608  217.1270 H   0  0  0  0  0  0  0  0  0  0  0  0
  139.8969   76.4895  218.7225 H   0  0  0  0  0  0  0  0  0  0  0  0
  141.1340   78.1850  218.2550 C   0  0  0  0  0  0  0  0  0  0  0  0
  140.6917   78.5727  217.3254 H   0  0  0  0  0  0  0  0  0  0  0  0
  140.4260   78.9220  219.4240 C   0  0  0  0  0  0  0  0  0  0  0  0
  139.3698   79.0685  219.1538 H   0  0  0  0  0  0  0  0  0  0  0  0
  140.5458   78.2952  220.3200 H   0  0  0  0  0  0  0  0  0  0  0  0
  141.0420   80.3000  219.7500 C   0  0  0  0  0  0  0  0  0  0  0  0
  140.2401   80.9785  220.0766 H   0  0  0  0  0  0  0  0  0  0  0  0
  141.7915   80.1566  220.5422 H   0  0  0  0  0  0  0  0  0  0  0  0
  141.7480   80.9170  218.5400 C   0  0  0  0  0  0  0  0  0  0  0  0
  141.0177   81.0467  217.7277 H   0  0  0  0  0  0  0  0  0  0  0  0
  142.1713   81.8857  218.8441 H   0  0  0  0  0  0  0  0  0  0  0  0
  142.8980   80.0220  218.0410 C   0  0  0  0  0  0  0  0  0  0  0  0
  143.0425   80.2075  216.9664 H   0  0  0  0  0  0  0  0  0  0  0  0
  143.7889   80.2801  218.6323 H   0  0  0  0  0  0  0  0  0  0  0  0
  142.6380   78.5140  218.2460 C   0  0  0  0  0  0  0  0  0  0  0  0
  143.1188   77.9562  217.4289 H   0  0  0  0  0  0  0  0  0  0  0  0
  143.0549   78.2266  219.2225 H   0  0  0  0  0  0  0  0  0  0  0  0
  141.0470   78.1120  222.6850 C   0  0  0  0  0  0  0  0  0  0  0  0
  139.8280   78.7390  222.9920 C   0  0  0  0  0  0  0  0  0  0  0  0
  138.8959   78.1551  222.9797 H   0  0  0  0  0  0  0  0  0  0  0  0
  139.7910   80.0610  223.3040 N   0  0  0  0  0  0  0  0  0  0  0  0
  140.9160   80.8230  223.3210 C   0  0  0  0  0  0  0  0  0  0  0  0
  140.8537   81.8894  223.5835 H   0  0  0  0  0  0  0  0  0  0  0  0
  142.1490   80.2540  223.0060 C   0  0  0  0  0  0  0  0  0  0  0  0
  143.0612   80.8688  223.0127 H   0  0  0  0  0  0  0  0  0  0  0  0
  142.2170   78.8980  222.6820 C   0  0  0  0  0  0  0  0  0  0  0  0
  143.1844   78.4424  222.4241 H   0  0  0  0  0  0  0  0  0  0  0  0
  1  2  1  0
  2  3  2  0
  3  4  1  0
  3  5  1  0
  5  6  2  0
  6  7  1  0
  7  8  2  0
  8  9  1  0
  8 10  1  0
 10 11  1  0
 10 12  2  0
 12 13  1  0
 13 14  1  0
 13 15  2  0
 15 16  1  0
 16 17  2  0
 16 18  1  0
 18 19  1  0
 19 20  1  0
 19 21  1  0
 19 22  1  0
 22 23  1  0
 22 24  1  0
 24 25  1  0
 24 26  1  0
 24 27  1  0
 27 28  1  0
 27 29  1  0
 27 30  1  0
 30 31  1  0
 30 32  1  0
 30 33  1  0
 33 34  1  0
 33 35  1  0
 33 36  1  0
 36 37  1  0
 36 38  1  0
  2 39  1  0
 39 40  2  0
 40 41  1  0
 40 42  1  0
 42 43  2  0
 43 44  1  0
 43 45  1  0
 45 46  1  0
 45 47  2  0
 47 48  1  0
 18  5  1  0
 36 22  1  0
 47 39  1  0
 15  7  1  0
M  END
>  <UniqueID>  (32) 
462

>  <SMILES>  (32) 
S=c1c2cnccc2nc(/C=C/c2cccnc2)n1CC1CCCCC1

>  <Energy>  (32) 
76.6718342716116

>  <Genealogy>  (32) 
S=c1c2cnccc2nc(/C=C/c2cccnc2)n1CC1CCCCC1 (cis-trans isomerization)
S=c1c2cnccc2nc(/C=C/c2cccnc2)n1CC1CCCCC1 (3D coordinates assigned)
S=c1c2cnccc2nc(/C=C/c2cccnc2)n1CC1CCCCC1 (nonaromatic ring conformer: 76.6718342716116 kcal/mol)

>  <smiles>  (32) 
S=c1c2cnccc2nc(/C=C/c2cccnc2)n1CC1CCCCC1

>  <score_type>  (32) 
oracle

>  <origin>  (32) 
autodockgpu

>  <m_score__min__energy>  (32) 
-7.1799999999999997

>  <m_primary>  (32) 
energy

>  <meeko>  (32) 
{"free_energy": -6.21, "intermolecular_energy": -7.71, "internal_energy": -1.89, "cluster_size": 9, "cluster_id": 4, "rank_in_cluster": 8}

>  <energy>  (32) 
-6.45

>  <cluster_rmsd>  (32) 
0.06

>  <rmsd>  (32) 
270.13

>  <cluster>  (32) 
4

$$$$
VFWNAPSESRSYPS-CMDGGOBGNA-N
     RDKit          3D

 48 51  0  0  0  0  0  0  0  0999 V2000
  141.3038   76.0197  223.1026 H   0  0  0  0  0  0  0  0  0  0  0  0
  141.0690   76.7100  222.2790 C   0  0  0  0  0  0  0  0  0  0  0  0
  140.8050   76.1880  221.0710 C   0  0  0  0  0  0  0  0  0  0  0  0
  139.7683   76.1942  220.7033 H   0  0  0  0  0  0  0  0  0  0  0  0
  141.8740   75.5990  220.2100 C   0  0  0  0  0  0  0  0  0  0  0  0
  142.8530   74.8990  220.8400 N   0  0  0  0  0  0  0  0  0  0  0  0
  143.8690   74.3130  220.1790 C   0  0  0  0  0  0  0  0  0  0  0  0
  144.8500   73.6220  220.8930 C   0  0  0  0  0  0  0  0  0  0  0  0
  144.8018   73.5658  221.9905 H   0  0  0  0  0  0  0  0  0  0  0  0
  145.8910   73.0040  220.2020 C   0  0  0  0  0  0  0  0  0  0  0  0
  146.6699   72.4575  220.7540 H   0  0  0  0  0  0  0  0  0  0  0  0
  145.9430   73.0770  218.8480 N   0  0  0  0  0  0  0  0  0  0  0  0
  145.0000   73.7400  218.1270 C   0  0  0  0  0  0  0  0  0  0  0  0
  145.0747   73.7752  217.0301 H   0  0  0  0  0  0  0  0  0  0  0  0
  143.9230   74.3850  218.7800 C   0  0  0  0  0  0  0  0  0  0  0  0
  142.8960   75.0920  218.1050 C   0  0  0  0  0  0  0  0  0  0  0  0
  142.8540   75.0390  216.4500 S   0  0  0  0  0  0  0  0  0  0  0  0
  141.9080   75.7500  218.8310 N   0  0  0  0  0  0  0  0  0  0  0  0
  140.8730   76.5690  218.1360 C   0  0  0  0  0  0  0  0  0  0  0  0
  140.8457   76.2645  217.0794 H   0  0  0  0  0  0  0  0  0  0  0  0
  139.9233   76.3853  218.6598 H   0  0  0  0  0  0  0  0  0  0  0  0
  141.1230   78.1070  218.1940 C   0  0  0  0  0  0  0  0  0  0  0  0
  140.8300   78.4528  217.1917 H   0  0  0  0  0  0  0  0  0  0  0  0
  140.2230   78.8680  219.2050 C   0  0  0  0  0  0  0  0  0  0  0  0
  139.2223   78.9819  218.7627 H   0  0  0  0  0  0  0  0  0  0  0  0
  140.2056   78.2753  220.1315 H   0  0  0  0  0  0  0  0  0  0  0  0
  140.7570   80.2710  219.5740 C   0  0  0  0  0  0  0  0  0  0  0  0
  139.9022   80.9426  219.7421 H   0  0  0  0  0  0  0  0  0  0  0  0
  141.3714   80.1711  220.4809 H   0  0  0  0  0  0  0  0  0  0  0  0
  141.6380   80.8610  218.4720 C   0  0  0  0  0  0  0  0  0  0  0  0
  141.0465   80.9465  217.5485 H   0  0  0  0  0  0  0  0  0  0  0  0
  141.9907   81.8489  218.8030 H   0  0  0  0  0  0  0  0  0  0  0  0
  142.8680   79.9740  218.1990 C   0  0  0  0  0  0  0  0  0  0  0  0
  143.1817   80.1259  217.1557 H   0  0  0  0  0  0  0  0  0  0  0  0
  143.6463   80.2715  218.9172 H   0  0  0  0  0  0  0  0  0  0  0  0
  142.6040   78.4690  218.4150 C   0  0  0  0  0  0  0  0  0  0  0  0
  143.2197   77.8949  217.7069 H   0  0  0  0  0  0  0  0  0  0  0  0
  142.8628   78.2239  219.4556 H   0  0  0  0  0  0  0  0  0  0  0  0
  141.0620   78.1650  222.5660 C   0  0  0  0  0  0  0  0  0  0  0  0
  142.2060   78.9230  222.2680 C   0  0  0  0  0  0  0  0  0  0  0  0
  143.0835   78.4333  221.8205 H   0  0  0  0  0  0  0  0  0  0  0  0
  142.2380   80.2570  222.5280 N   0  0  0  0  0  0  0  0  0  0  0  0
  141.1820   80.9010  223.0880 C   0  0  0  0  0  0  0  0  0  0  0  0
  141.2372   81.9827  223.2799 H   0  0  0  0  0  0  0  0  0  0  0  0
  140.0280   80.1930  223.4200 C   0  0  0  0  0  0  0  0  0  0  0  0
  139.1725   80.7099  223.8793 H   0  0  0  0  0  0  0  0  0  0  0  0
  139.9680   78.8210  223.1640 C   0  0  0  0  0  0  0  0  0  0  0  0
  139.0650   78.2519  223.4298 H   0  0  0  0  0  0  0  0  0  0  0  0
  1  2  1  0
  2  3  2  0
  3  4  1  0
  3  5  1  0
  5  6  2  0
  6  7  1  0
  7  8  2  0
  8  9  1  0
  8 10  1  0
 10 11  1  0
 10 12  2  0
 12 13  1  0
 13 14  1  0
 13 15  2  0
 15 16  1  0
 16 17  2  0
 16 18  1  0
 18 19  1  0
 19 20  1  0
 19 21  1  0
 19 22  1  0
 22 23  1  0
 22 24  1  0
 24 25  1  0
 24 26  1  0
 24 27  1  0
 27 28  1  0
 27 29  1  0
 27 30  1  0
 30 31  1  0
 30 32  1  0
 30 33  1  0
 33 34  1  0
 33 35  1  0
 33 36  1  0
 36 37  1  0
 36 38  1  0
  2 39  1  0
 39 40  2  0
 40 41  1  0
 40 42  1  0
 42 43  2  0
 43 44  1  0
 43 45  1  0
 45 46  1  0
 45 47  2  0
 47 48  1  0
 18  5  1  0
 36 22  1  0
 47 39  1  0
 15  7  1  0
M  END
>  <UniqueID>  (33) 
462

>  <SMILES>  (33) 
S=c1c2cnccc2nc(/C=C/c2cccnc2)n1CC1CCCCC1

>  <Energy>  (33) 
76.6718342716116

>  <Genealogy>  (33) 
S=c1c2cnccc2nc(/C=C/c2cccnc2)n1CC1CCCCC1 (cis-trans isomerization)
S=c1c2cnccc2nc(/C=C/c2cccnc2)n1CC1CCCCC1 (3D coordinates assigned)
S=c1c2cnccc2nc(/C=C/c2cccnc2)n1CC1CCCCC1 (nonaromatic ring conformer: 76.6718342716116 kcal/mol)

>  <smiles>  (33) 
S=c1c2cnccc2nc(/C=C/c2cccnc2)n1CC1CCCCC1

>  <score_type>  (33) 
oracle

>  <origin>  (33) 
autodockgpu

>  <m_score__min__energy>  (33) 
-7.1799999999999997

>  <m_primary>  (33) 
energy

>  <meeko>  (33) 
{"free_energy": -6.06, "intermolecular_energy": -7.55, "internal_energy": -1.96, "cluster_size": 9, "cluster_id": 4, "rank_in_cluster": 9}

>  <energy>  (33) 
-6.45

>  <cluster_rmsd>  (33) 
0.09

>  <rmsd>  (33) 
270.13

>  <cluster>  (33) 
4

$$$$
VFWNAPSESRSYPS-CMDGGOBGNA-N
     RDKit          3D

 48 51  0  0  0  0  0  0  0  0999 V2000
  141.7065   81.4859  219.3206 H   0  0  0  0  0  0  0  0  0  0  0  0
  141.4010   80.6740  219.9970 C   0  0  0  0  0  0  0  0  0  0  0  0
  140.6730   79.6670  219.4890 C   0  0  0  0  0  0  0  0  0  0  0  0
  139.8977   79.8937  218.7423 H   0  0  0  0  0  0  0  0  0  0  0  0
  140.8830   78.2490  219.9060 C   0  0  0  0  0  0  0  0  0  0  0  0
  142.1100   77.7160  219.6740 N   0  0  0  0  0  0  0  0  0  0  0  0
  142.4300   76.4510  220.0080 C   0  0  0  0  0  0  0  0  0  0  0  0
  143.7080   75.9640  219.7240 C   0  0  0  0  0  0  0  0  0  0  0  0
  144.4466   76.6037  219.2187 H   0  0  0  0  0  0  0  0  0  0  0  0
  144.0380   74.6600  220.0870 C   0  0  0  0  0  0  0  0  0  0  0  0
  145.0410   74.2650  219.8682 H   0  0  0  0  0  0  0  0  0  0  0  0
  143.1210   73.8770  220.7110 N   0  0  0  0  0  0  0  0  0  0  0  0
  141.8720   74.3260  221.0030 C   0  0  0  0  0  0  0  0  0  0  0  0
  141.1573   73.6625  221.5119 H   0  0  0  0  0  0  0  0  0  0  0  0
  141.4860   75.6420  220.6560 C   0  0  0  0  0  0  0  0  0  0  0  0
  140.2070   76.1910  220.9280 C   0  0  0  0  0  0  0  0  0  0  0  0
  139.1450   75.3080  221.8430 S   0  0  0  0  0  0  0  0  0  0  0  0
  139.8920   77.4740  220.4940 N   0  0  0  0  0  0  0  0  0  0  0  0
  138.5220   78.0300  220.6980 C   0  0  0  0  0  0  0  0  0  0  0  0
  138.2673   78.6470  219.8237 H   0  0  0  0  0  0  0  0  0  0  0  0
  137.8493   77.1691  220.8256 H   0  0  0  0  0  0  0  0  0  0  0  0
  138.3680   78.9090  221.9770 C   0  0  0  0  0  0  0  0  0  0  0  0
  137.4051   78.5838  222.3978 H   0  0  0  0  0  0  0  0  0  0  0  0
  139.4390   78.6480  223.0700 C   0  0  0  0  0  0  0  0  0  0  0  0
  139.1783   77.7186  223.5975 H   0  0  0  0  0  0  0  0  0  0  0  0
  140.4111   78.5807  222.5596 H   0  0  0  0  0  0  0  0  0  0  0  0
  139.5510   79.7850  224.1100 C   0  0  0  0  0  0  0  0  0  0  0  0
  139.7993   79.3473  225.0882 H   0  0  0  0  0  0  0  0  0  0  0  0
  140.3356   80.4773  223.7707 H   0  0  0  0  0  0  0  0  0  0  0  0
  138.2490   80.5780  224.2410 C   0  0  0  0  0  0  0  0  0  0  0  0
  137.4455   79.8966  224.5575 H   0  0  0  0  0  0  0  0  0  0  0  0
  138.4024   81.3739  224.9847 H   0  0  0  0  0  0  0  0  0  0  0  0
  137.8520   81.2340  222.9050 C   0  0  0  0  0  0  0  0  0  0  0  0
  136.7587   81.3537  222.8873 H   0  0  0  0  0  0  0  0  0  0  0  0
  138.3785   82.1982  222.8492 H   0  0  0  0  0  0  0  0  0  0  0  0
  138.2740   80.4140  221.6660 C   0  0  0  0  0  0  0  0  0  0  0  0
  137.5313   80.5665  220.8690 H   0  0  0  0  0  0  0  0  0  0  0  0
  139.2700   80.7596  221.3521 H   0  0  0  0  0  0  0  0  0  0  0  0
  141.8170   80.7540  221.4190 C   0  0  0  0  0  0  0  0  0  0  0  0
  141.4830   81.8980  222.1620 C   0  0  0  0  0  0  0  0  0  0  0  0
  140.9134   82.7103  221.6869 H   0  0  0  0  0  0  0  0  0  0  0  0
  141.8580   82.0090  223.4630 N   0  0  0  0  0  0  0  0  0  0  0  0
  142.5690   81.0340  224.0880 C   0  0  0  0  0  0  0  0  0  0  0  0
  142.8504   81.1509  225.1449 H   0  0  0  0  0  0  0  0  0  0  0  0
  142.9420   79.8860  223.3910 C   0  0  0  0  0  0  0  0  0  0  0  0
  143.5242   79.0980  223.8910 H   0  0  0  0  0  0  0  0  0  0  0  0
  142.5700   79.7450  222.0520 C   0  0  0  0  0  0  0  0  0  0  0  0
  142.8650   78.8458  221.4913 H   0  0  0  0  0  0  0  0  0  0  0  0
  1  2  1  0
  2  3  2  0
  3  4  1  0
  3  5  1  0
  5  6  2  0
  6  7  1  0
  7  8  2  0
  8  9  1  0
  8 10  1  0
 10 11  1  0
 10 12  2  0
 12 13  1  0
 13 14  1  0
 13 15  2  0
 15 16  1  0
 16 17  2  0
 16 18  1  0
 18 19  1  0
 19 20  1  0
 19 21  1  0
 19 22  1  0
 22 23  1  0
 22 24  1  0
 24 25  1  0
 24 26  1  0
 24 27  1  0
 27 28  1  0
 27 29  1  0
 27 30  1  0
 30 31  1  0
 30 32  1  0
 30 33  1  0
 33 34  1  0
 33 35  1  0
 33 36  1  0
 36 37  1  0
 36 38  1  0
  2 39  1  0
 39 40  2  0
 40 41  1  0
 40 42  1  0
 42 43  2  0
 43 44  1  0
 43 45  1  0
 45 46  1  0
 45 47  2  0
 47 48  1  0
 18  5  1  0
 36 22  1  0
 47 39  1  0
 15  7  1  0
M  END
>  <UniqueID>  (34) 
462

>  <SMILES>  (34) 
S=c1c2cnccc2nc(/C=C/c2cccnc2)n1CC1CCCCC1

>  <Energy>  (34) 
76.6718342716116

>  <Genealogy>  (34) 
S=c1c2cnccc2nc(/C=C/c2cccnc2)n1CC1CCCCC1 (cis-trans isomerization)
S=c1c2cnccc2nc(/C=C/c2cccnc2)n1CC1CCCCC1 (3D coordinates assigned)
S=c1c2cnccc2nc(/C=C/c2cccnc2)n1CC1CCCCC1 (nonaromatic ring conformer: 76.6718342716116 kcal/mol)

>  <smiles>  (34) 
S=c1c2cnccc2nc(/C=C/c2cccnc2)n1CC1CCCCC1

>  <score_type>  (34) 
oracle

>  <origin>  (34) 
autodockgpu

>  <m_score__min__energy>  (34) 
-7.1799999999999997

>  <m_primary>  (34) 
energy

>  <meeko>  (34) 
{"free_energy": -5.82, "intermolecular_energy": -7.31, "internal_energy": -2.3, "cluster_size": 2, "cluster_id": 5, "rank_in_cluster": 1}

>  <energy>  (34) 
-6.43

>  <cluster_rmsd>  (34) 
0.1

>  <rmsd>  (34) 
270.09

>  <cluster>  (34) 
4

$$$$
VFWNAPSESRSYPS-CMDGGOBGNA-N
     RDKit          3D

 48 51  0  0  0  0  0  0  0  0999 V2000
  141.7413   81.4552  219.3271 H   0  0  0  0  0  0  0  0  0  0  0  0
  141.4230   80.6470  220.0020 C   0  0  0  0  0  0  0  0  0  0  0  0
  140.6890   79.6460  219.4900 C   0  0  0  0  0  0  0  0  0  0  0  0
  139.9162   79.8800  218.7430 H   0  0  0  0  0  0  0  0  0  0  0  0
  140.8890   78.2250  219.9030 C   0  0  0  0  0  0  0  0  0  0  0  0
  142.1130   77.6840  219.6710 N   0  0  0  0  0  0  0  0  0  0  0  0
  142.4240   76.4160  220.0030 C   0  0  0  0  0  0  0  0  0  0  0  0
  143.6990   75.9220  219.7190 C   0  0  0  0  0  0  0  0  0  0  0  0
  144.4423   76.5584  219.2164 H   0  0  0  0  0  0  0  0  0  0  0  0
  144.0200   74.6140  220.0790 C   0  0  0  0  0  0  0  0  0  0  0  0
  145.0207   74.2127  219.8610 H   0  0  0  0  0  0  0  0  0  0  0  0
  143.0960   73.8360  220.6990 N   0  0  0  0  0  0  0  0  0  0  0  0
  141.8500   74.2930  220.9900 C   0  0  0  0  0  0  0  0  0  0  0  0
  141.1300   73.6331  221.4960 H   0  0  0  0  0  0  0  0  0  0  0  0
  141.4730   75.6130  220.6460 C   0  0  0  0  0  0  0  0  0  0  0  0
  140.1980   76.1690  220.9170 C   0  0  0  0  0  0  0  0  0  0  0  0
  139.1280   75.2900  221.8280 S   0  0  0  0  0  0  0  0  0  0  0  0
  139.8920   77.4560  220.4870 N   0  0  0  0  0  0  0  0  0  0  0  0
  138.5250   78.0200  220.6900 C   0  0  0  0  0  0  0  0  0  0  0  0
  138.2754   78.6406  219.8167 H   0  0  0  0  0  0  0  0  0  0  0  0
  137.8465   77.1631  220.8143 H   0  0  0  0  0  0  0  0  0  0  0  0
  138.3750   78.8970  221.9710 C   0  0  0  0  0  0  0  0  0  0  0  0
  137.4079   78.5798  222.3881 H   0  0  0  0  0  0  0  0  0  0  0  0
  139.4390   78.6230  223.0670 C   0  0  0  0  0  0  0  0  0  0  0  0
  139.1668   77.6953  223.5917 H   0  0  0  0  0  0  0  0  0  0  0  0
  140.4122   78.5468  222.5599 H   0  0  0  0  0  0  0  0  0  0  0  0
  139.5590   79.7570  224.1100 C   0  0  0  0  0  0  0  0  0  0  0  0
  139.8008   79.3151  225.0879 H   0  0  0  0  0  0  0  0  0  0  0  0
  140.3509   80.4428  223.7745 H   0  0  0  0  0  0  0  0  0  0  0  0
  138.2640   80.5610  224.2390 C   0  0  0  0  0  0  0  0  0  0  0  0
  137.4535   79.8860  224.5513 H   0  0  0  0  0  0  0  0  0  0  0  0
  138.4221   81.3536  224.9852 H   0  0  0  0  0  0  0  0  0  0  0  0
  137.8770   81.2240  222.9030 C   0  0  0  0  0  0  0  0  0  0  0  0
  136.7848   81.3530  222.8821 H   0  0  0  0  0  0  0  0  0  0  0  0
  138.4120   82.1837  222.8516 H   0  0  0  0  0  0  0  0  0  0  0  0
  138.2960   80.4040  221.6630 C   0  0  0  0  0  0  0  0  0  0  0  0
  137.5576   80.5654  220.8638 H   0  0  0  0  0  0  0  0  0  0  0  0
  139.2960   80.7415  221.3530 H   0  0  0  0  0  0  0  0  0  0  0  0
  141.8290   80.7240  221.4280 C   0  0  0  0  0  0  0  0  0  0  0  0
  141.5060   81.8750  222.1650 C   0  0  0  0  0  0  0  0  0  0  0  0
  140.9529   82.6943  221.6824 H   0  0  0  0  0  0  0  0  0  0  0  0
  141.8710   81.9850  223.4690 N   0  0  0  0  0  0  0  0  0  0  0  0
  142.5620   81.0020  224.1030 C   0  0  0  0  0  0  0  0  0  0  0  0
  142.8368   81.1181  225.1618 H   0  0  0  0  0  0  0  0  0  0  0  0
  142.9230   79.8460  223.4120 C   0  0  0  0  0  0  0  0  0  0  0  0
  143.4881   79.0502  223.9193 H   0  0  0  0  0  0  0  0  0  0  0  0
  142.5610   79.7070  222.0700 C   0  0  0  0  0  0  0  0  0  0  0  0
  142.8481   78.8021  221.5143 H   0  0  0  0  0  0  0  0  0  0  0  0
  1  2  1  0
  2  3  2  0
  3  4  1  0
  3  5  1  0
  5  6  2  0
  6  7  1  0
  7  8  2  0
  8  9  1  0
  8 10  1  0
 10 11  1  0
 10 12  2  0
 12 13  1  0
 13 14  1  0
 13 15  2  0
 15 16  1  0
 16 17  2  0
 16 18  1  0
 18 19  1  0
 19 20  1  0
 19 21  1  0
 19 22  1  0
 22 23  1  0
 22 24  1  0
 24 25  1  0
 24 26  1  0
 24 27  1  0
 27 28  1  0
 27 29  1  0
 27 30  1  0
 30 31  1  0
 30 32  1  0
 30 33  1  0
 33 34  1  0
 33 35  1  0
 33 36  1  0
 36 37  1  0
 36 38  1  0
  2 39  1  0
 39 40  2  0
 40 41  1  0
 40 42  1  0
 42 43  2  0
 43 44  1  0
 43 45  1  0
 45 46  1  0
 45 47  2  0
 47 48  1  0
 18  5  1  0
 36 22  1  0
 47 39  1  0
 15  7  1  0
M  END
>  <UniqueID>  (35) 
462

>  <SMILES>  (35) 
S=c1c2cnccc2nc(/C=C/c2cccnc2)n1CC1CCCCC1

>  <Energy>  (35) 
76.6718342716116

>  <Genealogy>  (35) 
S=c1c2cnccc2nc(/C=C/c2cccnc2)n1CC1CCCCC1 (cis-trans isomerization)
S=c1c2cnccc2nc(/C=C/c2cccnc2)n1CC1CCCCC1 (3D coordinates assigned)
S=c1c2cnccc2nc(/C=C/c2cccnc2)n1CC1CCCCC1 (nonaromatic ring conformer: 76.6718342716116 kcal/mol)

>  <smiles>  (35) 
S=c1c2cnccc2nc(/C=C/c2cccnc2)n1CC1CCCCC1

>  <score_type>  (35) 
oracle

>  <origin>  (35) 
autodockgpu

>  <m_score__min__energy>  (35) 
-7.1799999999999997

>  <m_primary>  (35) 
energy

>  <meeko>  (35) 
{"free_energy": -5.81, "intermolecular_energy": -7.31, "internal_energy": -2.3, "cluster_size": 2, "cluster_id": 5, "rank_in_cluster": 2}

>  <energy>  (35) 
-6.37

>  <cluster_rmsd>  (35) 
0.55

>  <rmsd>  (35) 
270.12

>  <cluster>  (35) 
4

$$$$
VFWNAPSESRSYPS-CMDGGOBGNA-N
     RDKit          3D

 48 51  0  0  0  0  0  0  0  0999 V2000
  142.7549   71.0196  219.1920 H   0  0  0  0  0  0  0  0  0  0  0  0
  143.0120   71.5880  220.0980 C   0  0  0  0  0  0  0  0  0  0  0  0
  142.1630   71.5430  221.1370 C   0  0  0  0  0  0  0  0  0  0  0  0
  142.1934   70.6752  221.8123 H   0  0  0  0  0  0  0  0  0  0  0  0
  141.1790   72.6330  221.4050 C   0  0  0  0  0  0  0  0  0  0  0  0
  141.6020   73.9070  221.1950 N   0  0  0  0  0  0  0  0  0  0  0  0
  140.8100   74.9790  221.3920 C   0  0  0  0  0  0  0  0  0  0  0  0
  141.3180   76.2610  221.1710 C   0  0  0  0  0  0  0  0  0  0  0  0
  142.3611   76.3974  220.8494 H   0  0  0  0  0  0  0  0  0  0  0  0
  140.4900   77.3660  221.3620 C   0  0  0  0  0  0  0  0  0  0  0  0
  140.8785   78.3810  221.1922 H   0  0  0  0  0  0  0  0  0  0  0  0
  139.2030   77.1880  221.7580 N   0  0  0  0  0  0  0  0  0  0  0  0
  138.6830   75.9520  221.9770 C   0  0  0  0  0  0  0  0  0  0  0  0
  137.6352   75.8484  222.2954 H   0  0  0  0  0  0  0  0  0  0  0  0
  139.4810   74.7970  221.7980 C   0  0  0  0  0  0  0  0  0  0  0  0
  139.0170   73.4730  221.9990 C   0  0  0  0  0  0  0  0  0  0  0  0
  137.4060   73.2380  222.3100 S   0  0  0  0  0  0  0  0  0  0  0  0
  139.8890   72.3980  221.8610 N   0  0  0  0  0  0  0  0  0  0  0  0
  139.4340   71.0080  222.1540 C   0  0  0  0  0  0  0  0  0  0  0  0
  138.3379   70.9788  222.0660 H   0  0  0  0  0  0  0  0  0  0  0  0
  139.9393   70.3524  221.4295 H   0  0  0  0  0  0  0  0  0  0  0  0
  139.8240   70.4890  223.5730 C   0  0  0  0  0  0  0  0  0  0  0  0
  140.5130   69.6576  223.3630 H   0  0  0  0  0  0  0  0  0  0  0  0
  140.6130   71.5090  224.4370 C   0  0  0  0  0  0  0  0  0  0  0  0
  141.6555   71.5284  224.0866 H   0  0  0  0  0  0  0  0  0  0  0  0
  140.1144   72.4827  224.3218 H   0  0  0  0  0  0  0  0  0  0  0  0
  140.6110   71.1750  225.9450 C   0  0  0  0  0  0  0  0  0  0  0  0
  141.5739   71.4841  226.3779 H   0  0  0  0  0  0  0  0  0  0  0  0
  139.7725   71.7142  226.4099 H   0  0  0  0  0  0  0  0  0  0  0  0
  140.4110   69.6810  226.2040 C   0  0  0  0  0  0  0  0  0  0  0  0
  141.2294   69.1226  225.7261 H   0  0  0  0  0  0  0  0  0  0  0  0
  140.4079   69.5164  227.2916 H   0  0  0  0  0  0  0  0  0  0  0  0
  139.0680   69.1850  225.6360 C   0  0  0  0  0  0  0  0  0  0  0  0
  139.1654   68.1160  225.3955 H   0  0  0  0  0  0  0  0  0  0  0  0
  138.3033   69.3723  226.4043 H   0  0  0  0  0  0  0  0  0  0  0  0
  138.6230   69.9340  224.3610 C   0  0  0  0  0  0  0  0  0  0  0  0
  138.0653   69.2387  223.7164 H   0  0  0  0  0  0  0  0  0  0  0  0
  137.9936   70.7829  224.6662 H   0  0  0  0  0  0  0  0  0  0  0  0
  144.2780   72.3620  220.1040 C   0  0  0  0  0  0  0  0  0  0  0  0
  145.1060   72.3200  218.9710 C   0  0  0  0  0  0  0  0  0  0  0  0
  144.8034   71.7259  218.0961 H   0  0  0  0  0  0  0  0  0  0  0  0
  146.2780   73.0070  218.9460 N   0  0  0  0  0  0  0  0  0  0  0  0
  146.6960   73.7460  220.0070 C   0  0  0  0  0  0  0  0  0  0  0  0
  147.6474   74.2956  219.9534 H   0  0  0  0  0  0  0  0  0  0  0  0
  145.9200   73.8080  221.1630 C   0  0  0  0  0  0  0  0  0  0  0  0
  146.2569   74.4008  222.0262 H   0  0  0  0  0  0  0  0  0  0  0  0
  144.7110   73.1110  221.2160 C   0  0  0  0  0  0  0  0  0  0  0  0
  144.0959   73.1468  222.1272 H   0  0  0  0  0  0  0  0  0  0  0  0
  1  2  1  0
  2  3  2  0
  3  4  1  0
  3  5  1  0
  5  6  2  0
  6  7  1  0
  7  8  2  0
  8  9  1  0
  8 10  1  0
 10 11  1  0
 10 12  2  0
 12 13  1  0
 13 14  1  0
 13 15  2  0
 15 16  1  0
 16 17  2  0
 16 18  1  0
 18 19  1  0
 19 20  1  0
 19 21  1  0
 19 22  1  0
 22 23  1  0
 22 24  1  0
 24 25  1  0
 24 26  1  0
 24 27  1  0
 27 28  1  0
 27 29  1  0
 27 30  1  0
 30 31  1  0
 30 32  1  0
 30 33  1  0
 33 34  1  0
 33 35  1  0
 33 36  1  0
 36 37  1  0
 36 38  1  0
  2 39  1  0
 39 40  2  0
 40 41  1  0
 40 42  1  0
 42 43  2  0
 43 44  1  0
 43 45  1  0
 45 46  1  0
 45 47  2  0
 47 48  1  0
 18  5  1  0
 36 22  1  0
 47 39  1  0
 15  7  1  0
M  END
>  <UniqueID>  (36) 
462

>  <SMILES>  (36) 
S=c1c2cnccc2nc(/C=C/c2cccnc2)n1CC1CCCCC1

>  <Energy>  (36) 
76.6718342716116

>  <Genealogy>  (36) 
S=c1c2cnccc2nc(/C=C/c2cccnc2)n1CC1CCCCC1 (cis-trans isomerization)
S=c1c2cnccc2nc(/C=C/c2cccnc2)n1CC1CCCCC1 (3D coordinates assigned)
S=c1c2cnccc2nc(/C=C/c2cccnc2)n1CC1CCCCC1 (nonaromatic ring conformer: 76.6718342716116 kcal/mol)

>  <smiles>  (36) 
S=c1c2cnccc2nc(/C=C/c2cccnc2)n1CC1CCCCC1

>  <score_type>  (36) 
oracle

>  <origin>  (36) 
autodockgpu

>  <m_score__min__energy>  (36) 
-7.1799999999999997

>  <m_primary>  (36) 
energy

>  <meeko>  (36) 
{"free_energy": -6.81, "intermolecular_energy": -8.3, "internal_energy": -1.35, "cluster_size": 1, "cluster_id": 3, "rank_in_cluster": 1}

>  <energy>  (36) 
-6.36

>  <cluster_rmsd>  (36) 
0.55

>  <rmsd>  (36) 
270.11

>  <cluster>  (36) 
4

$$$$
VFWNAPSESRSYPS-CMDGGOBGNA-N
     RDKit          3D

 48 51  0  0  0  0  0  0  0  0999 V2000
  141.2147   76.1154  223.0442 H   0  0  0  0  0  0  0  0  0  0  0  0
  141.0790   76.8480  222.2350 C   0  0  0  0  0  0  0  0  0  0  0  0
  140.8910   76.3870  220.9880 C   0  0  0  0  0  0  0  0  0  0  0  0
  139.8927   76.4717  220.5339 H   0  0  0  0  0  0  0  0  0  0  0  0
  141.9940   75.7630  220.1980 C   0  0  0  0  0  0  0  0  0  0  0  0
  142.7800   74.8640  220.8450 N   0  0  0  0  0  0  0  0  0  0  0  0
  143.8030   74.2260  220.2450 C   0  0  0  0  0  0  0  0  0  0  0  0
  144.5790   73.3250  220.9770 C   0  0  0  0  0  0  0  0  0  0  0  0
  144.3662   73.1457  222.0412 H   0  0  0  0  0  0  0  0  0  0  0  0
  145.6260   72.6550  220.3460 C   0  0  0  0  0  0  0  0  0  0  0  0
  146.2444   71.9429  220.9122 H   0  0  0  0  0  0  0  0  0  0  0  0
  145.8820   72.8820  219.0320 N   0  0  0  0  0  0  0  0  0  0  0  0
  145.1400   73.7510  218.2950 C   0  0  0  0  0  0  0  0  0  0  0  0
  145.3760   73.9068  217.2320 H   0  0  0  0  0  0  0  0  0  0  0  0
  144.0660   74.4560  218.8880 C   0  0  0  0  0  0  0  0  0  0  0  0
  143.2400   75.3750  218.1910 C   0  0  0  0  0  0  0  0  0  0  0  0
  143.4310   75.5250  216.5520 S   0  0  0  0  0  0  0  0  0  0  0  0
  142.2450   76.0710  218.8680 N   0  0  0  0  0  0  0  0  0  0  0  0
  141.4270   77.1030  218.1660 C   0  0  0  0  0  0  0  0  0  0  0  0
  141.7260   77.1176  217.1075 H   0  0  0  0  0  0  0  0  0  0  0  0
  140.3737   76.8203  218.3100 H   0  0  0  0  0  0  0  0  0  0  0  0
  141.5830   78.5460  218.7370 C   0  0  0  0  0  0  0  0  0  0  0  0
  142.0546   78.3844  219.7175 H   0  0  0  0  0  0  0  0  0  0  0  0
  142.5450   79.4580  217.9280 C   0  0  0  0  0  0  0  0  0  0  0  0
  143.5797   79.1780  218.1751 H   0  0  0  0  0  0  0  0  0  0  0  0
  142.3136   79.3069  216.8633 H   0  0  0  0  0  0  0  0  0  0  0  0
  142.3630   80.9640  218.2220 C   0  0  0  0  0  0  0  0  0  0  0  0
  143.3426   81.4596  218.1532 H   0  0  0  0  0  0  0  0  0  0  0  0
  141.6570   81.3702  217.4827 H   0  0  0  0  0  0  0  0  0  0  0  0
  141.7810   81.2130  219.6150 C   0  0  0  0  0  0  0  0  0  0  0  0
  142.4635   80.7922  220.3681 H   0  0  0  0  0  0  0  0  0  0  0  0
  141.6674   82.2984  219.7528 H   0  0  0  0  0  0  0  0  0  0  0  0
  140.3960   80.5580  219.7730 C   0  0  0  0  0  0  0  0  0  0  0  0
  140.2391   80.3278  220.8371 H   0  0  0  0  0  0  0  0  0  0  0  0
  139.6543   81.2727  219.3869 H   0  0  0  0  0  0  0  0  0  0  0  0
  140.2350   79.2540  218.9620 C   0  0  0  0  0  0  0  0  0  0  0  0
  139.5643   78.5755  219.5096 H   0  0  0  0  0  0  0  0  0  0  0  0
  139.8192   79.5148  217.9776 H   0  0  0  0  0  0  0  0  0  0  0  0
  141.1140   78.2900  222.5830 C   0  0  0  0  0  0  0  0  0  0  0  0
  142.3010   79.0110  222.3760 C   0  0  0  0  0  0  0  0  0  0  0  0
  143.1809   78.5040  221.9532 H   0  0  0  0  0  0  0  0  0  0  0  0
  142.3710   80.3300  222.6940 N   0  0  0  0  0  0  0  0  0  0  0  0
  141.3130   80.9950  223.2260 C   0  0  0  0  0  0  0  0  0  0  0  0
  141.4004   82.0649  223.4661 H   0  0  0  0  0  0  0  0  0  0  0  0
  140.1160   80.3220  223.4680 C   0  0  0  0  0  0  0  0  0  0  0  0
  139.2582   80.8546  223.9045 H   0  0  0  0  0  0  0  0  0  0  0  0
  140.0160   78.9650  223.1510 C   0  0  0  0  0  0  0  0  0  0  0  0
  139.0787   78.4231  223.3452 H   0  0  0  0  0  0  0  0  0  0  0  0
  1  2  1  0
  2  3  2  0
  3  4  1  0
  3  5  1  0
  5  6  2  0
  6  7  1  0
  7  8  2  0
  8  9  1  0
  8 10  1  0
 10 11  1  0
 10 12  2  0
 12 13  1  0
 13 14  1  0
 13 15  2  0
 15 16  1  0
 16 17  2  0
 16 18  1  0
 18 19  1  0
 19 20  1  0
 19 21  1  0
 19 22  1  0
 22 23  1  0
 22 24  1  0
 24 25  1  0
 24 26  1  0
 24 27  1  0
 27 28  1  0
 27 29  1  0
 27 30  1  0
 30 31  1  0
 30 32  1  0
 30 33  1  0
 33 34  1  0
 33 35  1  0
 33 36  1  0
 36 37  1  0
 36 38  1  0
  2 39  1  0
 39 40  2  0
 40 41  1  0
 40 42  1  0
 42 43  2  0
 43 44  1  0
 43 45  1  0
 45 46  1  0
 45 47  2  0
 47 48  1  0
 18  5  1  0
 36 22  1  0
 47 39  1  0
 15  7  1  0
M  END
>  <UniqueID>  (37) 
462

>  <SMILES>  (37) 
S=c1c2cnccc2nc(/C=C/c2cccnc2)n1CC1CCCCC1

>  <Energy>  (37) 
76.6718342716116

>  <Genealogy>  (37) 
S=c1c2cnccc2nc(/C=C/c2cccnc2)n1CC1CCCCC1 (cis-trans isomerization)
S=c1c2cnccc2nc(/C=C/c2cccnc2)n1CC1CCCCC1 (3D coordinates assigned)
S=c1c2cnccc2nc(/C=C/c2cccnc2)n1CC1CCCCC1 (nonaromatic ring conformer: 76.6718342716116 kcal/mol)

>  <smiles>  (37) 
S=c1c2cnccc2nc(/C=C/c2cccnc2)n1CC1CCCCC1

>  <score_type>  (37) 
oracle

>  <origin>  (37) 
autodockgpu

>  <m_score__min__energy>  (37) 
-7.1799999999999997

>  <m_primary>  (37) 
energy

>  <meeko>  (37) 
{"free_energy": -6.37, "intermolecular_energy": -7.86, "internal_energy": -1.84, "cluster_size": 9, "cluster_id": 4, "rank_in_cluster": 6}

>  <energy>  (37) 
-6.21

>  <cluster_rmsd>  (37) 
0.49

>  <rmsd>  (37) 
269.97

>  <cluster>  (37) 
4

$$$$
VFWNAPSESRSYPS-CMDGGOBGNA-N
     RDKit          3D

 48 51  0  0  0  0  0  0  0  0999 V2000
  141.2406   76.0207  223.0684 H   0  0  0  0  0  0  0  0  0  0  0  0
  141.0810   76.7710  222.2800 C   0  0  0  0  0  0  0  0  0  0  0  0
  140.8890   76.3390  221.0240 C   0  0  0  0  0  0  0  0  0  0  0  0
  139.8897   76.4350  220.5743 H   0  0  0  0  0  0  0  0  0  0  0  0
  141.9900   75.7320  220.2180 C   0  0  0  0  0  0  0  0  0  0  0  0
  142.7840   74.8260  220.8460 N   0  0  0  0  0  0  0  0  0  0  0  0
  143.8060   74.2020  220.2300 C   0  0  0  0  0  0  0  0  0  0  0  0
  144.5910   73.2940  220.9440 C   0  0  0  0  0  0  0  0  0  0  0  0
  144.3856   73.0978  222.0067 H   0  0  0  0  0  0  0  0  0  0  0  0
  145.6370   72.6390  220.2970 C   0  0  0  0  0  0  0  0  0  0  0  0
  146.2627   71.9219  220.8486 H   0  0  0  0  0  0  0  0  0  0  0  0
  145.8830   72.8870  218.9850 N   0  0  0  0  0  0  0  0  0  0  0  0
  145.1330   73.7630  218.2650 C   0  0  0  0  0  0  0  0  0  0  0  0
  145.3617   73.9353  217.2029 H   0  0  0  0  0  0  0  0  0  0  0  0
  144.0600   74.4540  218.8750 C   0  0  0  0  0  0  0  0  0  0  0  0
  143.2250   75.3790  218.1980 C   0  0  0  0  0  0  0  0  0  0  0  0
  143.4060   75.5550  216.5600 S   0  0  0  0  0  0  0  0  0  0  0  0
  142.2310   76.0610  218.8910 N   0  0  0  0  0  0  0  0  0  0  0  0
  141.4050   77.1000  218.2100 C   0  0  0  0  0  0  0  0  0  0  0  0
  141.6846   77.1189  217.1463 H   0  0  0  0  0  0  0  0  0  0  0  0
  140.3535   76.8209  218.3723 H   0  0  0  0  0  0  0  0  0  0  0  0
  141.5770   78.5390  218.7850 C   0  0  0  0  0  0  0  0  0  0  0  0
  142.0732   78.3716  219.7524 H   0  0  0  0  0  0  0  0  0  0  0  0
  142.5190   79.4540  217.9570 C   0  0  0  0  0  0  0  0  0  0  0  0
  143.5593   79.1716  218.1762 H   0  0  0  0  0  0  0  0  0  0  0  0
  142.2608   79.3089  216.8976 H   0  0  0  0  0  0  0  0  0  0  0  0
  142.3460   80.9590  218.2640 C   0  0  0  0  0  0  0  0  0  0  0  0
  143.3239   81.4542  218.1722 H   0  0  0  0  0  0  0  0  0  0  0  0
  141.6211   81.3697  217.5457 H   0  0  0  0  0  0  0  0  0  0  0  0
  141.8010   81.2010  219.6730 C   0  0  0  0  0  0  0  0  0  0  0  0
  142.5025   80.7756  220.4058 H   0  0  0  0  0  0  0  0  0  0  0  0
  141.6922   82.2857  219.8199 H   0  0  0  0  0  0  0  0  0  0  0  0
  140.4200   80.5460  219.8630 C   0  0  0  0  0  0  0  0  0  0  0  0
  140.2908   80.3096  220.9295 H   0  0  0  0  0  0  0  0  0  0  0  0
  139.6694   81.2636  219.5002 H   0  0  0  0  0  0  0  0  0  0  0  0
  140.2360   79.2470  219.0490 C   0  0  0  0  0  0  0  0  0  0  0  0
  139.5790   78.5661  219.6100 H   0  0  0  0  0  0  0  0  0  0  0  0
  139.7948   79.5137  218.0773 H   0  0  0  0  0  0  0  0  0  0  0  0
  141.0900   78.2040  222.6650 C   0  0  0  0  0  0  0  0  0  0  0  0
  139.8890   78.8050  223.0760 C   0  0  0  0  0  0  0  0  0  0  0  0
  138.9659   78.2080  223.1157 H   0  0  0  0  0  0  0  0  0  0  0  0
  139.8580   80.1180  223.4250 N   0  0  0  0  0  0  0  0  0  0  0  0
  140.9720   80.8950  223.3830 C   0  0  0  0  0  0  0  0  0  0  0  0
  140.9156   81.9531  223.6783 H   0  0  0  0  0  0  0  0  0  0  0  0
  142.1860   80.3520  222.9660 C   0  0  0  0  0  0  0  0  0  0  0  0
  143.0888   80.9791  222.9247 H   0  0  0  0  0  0  0  0  0  0  0  0
  142.2470   79.0050  222.6010 C   0  0  0  0  0  0  0  0  0  0  0  0
  143.1990   78.5695  222.2634 H   0  0  0  0  0  0  0  0  0  0  0  0
  1  2  1  0
  2  3  2  0
  3  4  1  0
  3  5  1  0
  5  6  2  0
  6  7  1  0
  7  8  2  0
  8  9  1  0
  8 10  1  0
 10 11  1  0
 10 12  2  0
 12 13  1  0
 13 14  1  0
 13 15  2  0
 15 16  1  0
 16 17  2  0
 16 18  1  0
 18 19  1  0
 19 20  1  0
 19 21  1  0
 19 22  1  0
 22 23  1  0
 22 24  1  0
 24 25  1  0
 24 26  1  0
 24 27  1  0
 27 28  1  0
 27 29  1  0
 27 30  1  0
 30 31  1  0
 30 32  1  0
 30 33  1  0
 33 34  1  0
 33 35  1  0
 33 36  1  0
 36 37  1  0
 36 38  1  0
  2 39  1  0
 39 40  2  0
 40 41  1  0
 40 42  1  0
 42 43  2  0
 43 44  1  0
 43 45  1  0
 45 46  1  0
 45 47  2  0
 47 48  1  0
 18  5  1  0
 36 22  1  0
 47 39  1  0
 15  7  1  0
M  END
>  <UniqueID>  (38) 
462

>  <SMILES>  (38) 
S=c1c2cnccc2nc(/C=C/c2cccnc2)n1CC1CCCCC1

>  <Energy>  (38) 
76.6718342716116

>  <Genealogy>  (38) 
S=c1c2cnccc2nc(/C=C/c2cccnc2)n1CC1CCCCC1 (cis-trans isomerization)
S=c1c2cnccc2nc(/C=C/c2cccnc2)n1CC1CCCCC1 (3D coordinates assigned)
S=c1c2cnccc2nc(/C=C/c2cccnc2)n1CC1CCCCC1 (nonaromatic ring conformer: 76.6718342716116 kcal/mol)

>  <smiles>  (38) 
S=c1c2cnccc2nc(/C=C/c2cccnc2)n1CC1CCCCC1

>  <score_type>  (38) 
oracle

>  <origin>  (38) 
autodockgpu

>  <m_score__min__energy>  (38) 
-7.1799999999999997

>  <m_primary>  (38) 
energy

>  <meeko>  (38) 
{"free_energy": -6.45, "intermolecular_energy": -7.94, "internal_energy": -1.83, "cluster_size": 9, "cluster_id": 4, "rank_in_cluster": 2}

>  <energy>  (38) 
-6.06

>  <cluster_rmsd>  (38) 
0.73

>  <rmsd>  (38) 
269.95

>  <cluster>  (38) 
4

$$$$
VFWNAPSESRSYPS-CMDGGOBGNA-N
     RDKit          3D

 48 51  0  0  0  0  0  0  0  0999 V2000
  143.5758   75.9878  218.1833 H   0  0  0  0  0  0  0  0  0  0  0  0
  143.5370   75.5820  219.2050 C   0  0  0  0  0  0  0  0  0  0  0  0
  142.6900   76.1470  220.0800 C   0  0  0  0  0  0  0  0  0  0  0  0
  142.8551   77.1919  220.3817 H   0  0  0  0  0  0  0  0  0  0  0  0
  141.5310   75.4030  220.6570 C   0  0  0  0  0  0  0  0  0  0  0  0
  141.7190   74.0840  220.9210 N   0  0  0  0  0  0  0  0  0  0  0  0
  140.7580   73.3020  221.4480 C   0  0  0  0  0  0  0  0  0  0  0  0
  141.0170   71.9490  221.6780 C   0  0  0  0  0  0  0  0  0  0  0  0
  141.9958   71.5190  221.4190 H   0  0  0  0  0  0  0  0  0  0  0  0
  140.0230   71.1490  222.2390 C   0  0  0  0  0  0  0  0  0  0  0  0
  140.2147   70.0819  222.4247 H   0  0  0  0  0  0  0  0  0  0  0  0
  138.8180   71.6880  222.5560 N   0  0  0  0  0  0  0  0  0  0  0  0
  138.5400   73.0020  222.3470 C   0  0  0  0  0  0  0  0  0  0  0  0
  137.5529   73.4028  222.6208 H   0  0  0  0  0  0  0  0  0  0  0  0
  139.5140   73.8570  221.7790 C   0  0  0  0  0  0  0  0  0  0  0  0
  139.3090   75.2390  221.5320 C   0  0  0  0  0  0  0  0  0  0  0  0
  137.9100   75.9410  222.0760 S   0  0  0  0  0  0  0  0  0  0  0  0
  140.3010   75.9920  220.9130 N   0  0  0  0  0  0  0  0  0  0  0  0
  140.0640   77.4240  220.5700 C   0  0  0  0  0  0  0  0  0  0  0  0
  140.4966   77.6162  219.5770 H   0  0  0  0  0  0  0  0  0  0  0  0
  138.9753   77.5783  220.6004 H   0  0  0  0  0  0  0  0  0  0  0  0
  140.6860   78.4390  221.5780 C   0  0  0  0  0  0  0  0  0  0  0  0
  141.6145   78.7585  221.0823 H   0  0  0  0  0  0  0  0  0  0  0  0
  139.8400   79.7220  221.8030 C   0  0  0  0  0  0  0  0  0  0  0  0
  139.9844   80.3897  220.9409 H   0  0  0  0  0  0  0  0  0  0  0  0
  138.7930   79.4034  221.9137 H   0  0  0  0  0  0  0  0  0  0  0  0
  140.2180   80.4930  223.0870 C   0  0  0  0  0  0  0  0  0  0  0  0
  140.0884   81.5700  222.9045 H   0  0  0  0  0  0  0  0  0  0  0  0
  139.5616   80.1421  223.8969 H   0  0  0  0  0  0  0  0  0  0  0  0
  141.6650   80.2360  223.5110 C   0  0  0  0  0  0  0  0  0  0  0  0
  142.3374   80.5590  222.7026 H   0  0  0  0  0  0  0  0  0  0  0  0
  141.8613   80.8035  224.4326 H   0  0  0  0  0  0  0  0  0  0  0  0
  141.9100   78.7430  223.8000 C   0  0  0  0  0  0  0  0  0  0  0  0
  142.9720   78.5228  223.6164 H   0  0  0  0  0  0  0  0  0  0  0  0
  141.6211   78.5650  224.8464 H   0  0  0  0  0  0  0  0  0  0  0  0
  141.0570   77.7970  222.9270 C   0  0  0  0  0  0  0  0  0  0  0  0
  141.6283   76.8763  222.7375 H   0  0  0  0  0  0  0  0  0  0  0  0
  140.1248   77.5808  223.4694 H   0  0  0  0  0  0  0  0  0  0  0  0
  144.4240   74.4400  219.5400 C   0  0  0  0  0  0  0  0  0  0  0  0
  144.8260   73.5680  218.5140 C   0  0  0  0  0  0  0  0  0  0  0  0
  144.4880   73.7459  217.4824 H   0  0  0  0  0  0  0  0  0  0  0  0
  145.6290   72.5070  218.7870 N   0  0  0  0  0  0  0  0  0  0  0  0
  146.0630   72.2430  220.0470 C   0  0  0  0  0  0  0  0  0  0  0  0
  146.7176   71.3788  220.2333 H   0  0  0  0  0  0  0  0  0  0  0  0
  145.6790   73.0670  221.1040 C   0  0  0  0  0  0  0  0  0  0  0  0
  146.0227   72.8536  222.1269 H   0  0  0  0  0  0  0  0  0  0  0  0
  144.8540   74.1660  220.8530 C   0  0  0  0  0  0  0  0  0  0  0  0
  144.5399   74.8180  221.6814 H   0  0  0  0  0  0  0  0  0  0  0  0
  1  2  1  0
  2  3  2  0
  3  4  1  0
  3  5  1  0
  5  6  2  0
  6  7  1  0
  7  8  2  0
  8  9  1  0
  8 10  1  0
 10 11  1  0
 10 12  2  0
 12 13  1  0
 13 14  1  0
 13 15  2  0
 15 16  1  0
 16 17  2  0
 16 18  1  0
 18 19  1  0
 19 20  1  0
 19 21  1  0
 19 22  1  0
 22 23  1  0
 22 24  1  0
 24 25  1  0
 24 26  1  0
 24 27  1  0
 27 28  1  0
 27 29  1  0
 27 30  1  0
 30 31  1  0
 30 32  1  0
 30 33  1  0
 33 34  1  0
 33 35  1  0
 33 36  1  0
 36 37  1  0
 36 38  1  0
  2 39  1  0
 39 40  2  0
 40 41  1  0
 40 42  1  0
 42 43  2  0
 43 44  1  0
 43 45  1  0
 45 46  1  0
 45 47  2  0
 47 48  1  0
 18  5  1  0
 36 22  1  0
 47 39  1  0
 15  7  1  0
M  END
>  <UniqueID>  (39) 
462

>  <SMILES>  (39) 
S=c1c2cnccc2nc(/C=C/c2cccnc2)n1CC1CCCCC1

>  <Energy>  (39) 
76.6718342716116

>  <Genealogy>  (39) 
S=c1c2cnccc2nc(/C=C/c2cccnc2)n1CC1CCCCC1 (cis-trans isomerization)
S=c1c2cnccc2nc(/C=C/c2cccnc2)n1CC1CCCCC1 (3D coordinates assigned)
S=c1c2cnccc2nc(/C=C/c2cccnc2)n1CC1CCCCC1 (nonaromatic ring conformer: 76.6718342716116 kcal/mol)

>  <smiles>  (39) 
S=c1c2cnccc2nc(/C=C/c2cccnc2)n1CC1CCCCC1

>  <score_type>  (39) 
oracle

>  <origin>  (39) 
autodockgpu

>  <m_score__min__energy>  (39) 
-7.1799999999999997

>  <m_primary>  (39) 
energy

>  <meeko>  (39) 
{"free_energy": -6.74, "intermolecular_energy": -8.24, "internal_energy": -1.42, "cluster_size": 7, "cluster_id": 2, "rank_in_cluster": 7}

>  <energy>  (39) 
-5.82

>  <cluster_rmsd>  (39) 
0.0

>  <rmsd>  (39) 
270.78

>  <cluster>  (39) 
5

$$$$
VFWNAPSESRSYPS-CMDGGOBGNA-N
     RDKit          3D

 48 51  0  0  0  0  0  0  0  0999 V2000
  143.2317   75.4561  218.0952 H   0  0  0  0  0  0  0  0  0  0  0  0
  143.4600   75.3150  219.1620 C   0  0  0  0  0  0  0  0  0  0  0  0
  142.8260   76.0920  220.0540 C   0  0  0  0  0  0  0  0  0  0  0  0
  143.3233   77.0047  220.4142 H   0  0  0  0  0  0  0  0  0  0  0  0
  141.4660   75.7560  220.5730 C   0  0  0  0  0  0  0  0  0  0  0  0
  141.2010   74.4430  220.7930 N   0  0  0  0  0  0  0  0  0  0  0  0
  140.0170   74.0080  221.2660 C   0  0  0  0  0  0  0  0  0  0  0  0
  139.8080   72.6400  221.4530 C   0  0  0  0  0  0  0  0  0  0  0  0
  140.5998   71.9182  221.2040 H   0  0  0  0  0  0  0  0  0  0  0  0
  138.5870   72.1980  221.9580 C   0  0  0  0  0  0  0  0  0  0  0  0
  138.4105   71.1229  222.1095 H   0  0  0  0  0  0  0  0  0  0  0  0
  137.6150   73.0960  222.2630 N   0  0  0  0  0  0  0  0  0  0  0  0
  137.7920   74.4330  222.0950 C   0  0  0  0  0  0  0  0  0  0  0  0
  136.9820   75.1296  222.3569 H   0  0  0  0  0  0  0  0  0  0  0  0
  139.0130   74.9330  221.5850 C   0  0  0  0  0  0  0  0  0  0  0  0
  139.2830   76.3110  221.3830 C   0  0  0  0  0  0  0  0  0  0  0  0
  138.1730   77.4210  221.9160 S   0  0  0  0  0  0  0  0  0  0  0  0
  140.4890   76.7110  220.8180 N   0  0  0  0  0  0  0  0  0  0  0  0
  140.7490   78.1500  220.5210 C   0  0  0  0  0  0  0  0  0  0  0  0
  141.3738   78.2077  219.6175 H   0  0  0  0  0  0  0  0  0  0  0  0
  139.7662   78.6273  220.3930 H   0  0  0  0  0  0  0  0  0  0  0  0
  141.4740   78.9220  221.6660 C   0  0  0  0  0  0  0  0  0  0  0  0
  142.5168   78.5815  221.5851 H   0  0  0  0  0  0  0  0  0  0  0  0
  141.4960   80.4650  221.4880 C   0  0  0  0  0  0  0  0  0  0  0  0
  142.2638   80.7182  220.7421 H   0  0  0  0  0  0  0  0  0  0  0  0
  140.4876   80.7675  221.1694 H   0  0  0  0  0  0  0  0  0  0  0  0
  141.8090   81.2330  222.7910 C   0  0  0  0  0  0  0  0  0  0  0  0
  142.3848   82.1362  222.5405 H   0  0  0  0  0  0  0  0  0  0  0  0
  140.8527   81.4887  223.2708 H   0  0  0  0  0  0  0  0  0  0  0  0
  142.6190   80.3900  223.7770 C   0  0  0  0  0  0  0  0  0  0  0  0
  143.5705   80.1035  223.3052 H   0  0  0  0  0  0  0  0  0  0  0  0
  142.7963   80.9908  224.6812 H   0  0  0  0  0  0  0  0  0  0  0  0
  141.8580   79.1140  224.1850 C   0  0  0  0  0  0  0  0  0  0  0  0
  142.5931   78.3431  224.4594 H   0  0  0  0  0  0  0  0  0  0  0  0
  141.2021   79.3838  225.0258 H   0  0  0  0  0  0  0  0  0  0  0  0
  140.9540   78.5510  223.0670 C   0  0  0  0  0  0  0  0  0  0  0  0
  140.9204   77.4550  223.1551 H   0  0  0  0  0  0  0  0  0  0  0  0
  139.9522   78.9895  223.1857 H   0  0  0  0  0  0  0  0  0  0  0  0
  144.4520   74.2760  219.5350 C   0  0  0  0  0  0  0  0  0  0  0  0
  144.8740   73.3580  218.5590 C   0  0  0  0  0  0  0  0  0  0  0  0
  144.4736   73.4257  217.5367 H   0  0  0  0  0  0  0  0  0  0  0  0
  145.7730   72.3870  218.8680 N   0  0  0  0  0  0  0  0  0  0  0  0
  146.2870   72.2610  220.1200 C   0  0  0  0  0  0  0  0  0  0  0  0
  147.0184   71.4685  220.3367 H   0  0  0  0  0  0  0  0  0  0  0  0
  145.8880   73.1350  221.1290 C   0  0  0  0  0  0  0  0  0  0  0  0
  146.2961   73.0318  222.1453 H   0  0  0  0  0  0  0  0  0  0  0  0
  144.9660   74.1430  220.8400 C   0  0  0  0  0  0  0  0  0  0  0  0
  144.6407   74.8338  221.6318 H   0  0  0  0  0  0  0  0  0  0  0  0
  1  2  1  0
  2  3  2  0
  3  4  1  0
  3  5  1  0
  5  6  2  0
  6  7  1  0
  7  8  2  0
  8  9  1  0
  8 10  1  0
 10 11  1  0
 10 12  2  0
 12 13  1  0
 13 14  1  0
 13 15  2  0
 15 16  1  0
 16 17  2  0
 16 18  1  0
 18 19  1  0
 19 20  1  0
 19 21  1  0
 19 22  1  0
 22 23  1  0
 22 24  1  0
 24 25  1  0
 24 26  1  0
 24 27  1  0
 27 28  1  0
 27 29  1  0
 27 30  1  0
 30 31  1  0
 30 32  1  0
 30 33  1  0
 33 34  1  0
 33 35  1  0
 33 36  1  0
 36 37  1  0
 36 38  1  0
  2 39  1  0
 39 40  2  0
 40 41  1  0
 40 42  1  0
 42 43  2  0
 43 44  1  0
 43 45  1  0
 45 46  1  0
 45 47  2  0
 47 48  1  0
 18  5  1  0
 36 22  1  0
 47 39  1  0
 15  7  1  0
M  END
>  <UniqueID>  (40) 
462

>  <SMILES>  (40) 
S=c1c2cnccc2nc(/C=C/c2cccnc2)n1CC1CCCCC1

>  <Energy>  (40) 
76.6718342716116

>  <Genealogy>  (40) 
S=c1c2cnccc2nc(/C=C/c2cccnc2)n1CC1CCCCC1 (cis-trans isomerization)
S=c1c2cnccc2nc(/C=C/c2cccnc2)n1CC1CCCCC1 (3D coordinates assigned)
S=c1c2cnccc2nc(/C=C/c2cccnc2)n1CC1CCCCC1 (nonaromatic ring conformer: 76.6718342716116 kcal/mol)

>  <smiles>  (40) 
S=c1c2cnccc2nc(/C=C/c2cccnc2)n1CC1CCCCC1

>  <score_type>  (40) 
oracle

>  <origin>  (40) 
autodockgpu

>  <m_score__min__energy>  (40) 
-7.1799999999999997

>  <m_primary>  (40) 
energy

>  <meeko>  (40) 
{"free_energy": -7.06, "intermolecular_energy": -8.56, "internal_energy": -1.18, "cluster_size": 7, "cluster_id": 2, "rank_in_cluster": 4}

>  <energy>  (40) 
-5.81

>  <cluster_rmsd>  (40) 
0.03

>  <rmsd>  (40) 
270.78

>  <cluster>  (40) 
5

$$$$
VFWNAPSESRSYPS-CMDGGOBGNA-N
     RDKit          3D

 48 51  0  0  0  0  0  0  0  0999 V2000
  141.2088   76.0404  223.0641 H   0  0  0  0  0  0  0  0  0  0  0  0
  141.0760   76.7910  222.2710 C   0  0  0  0  0  0  0  0  0  0  0  0
  140.8950   76.3580  221.0130 C   0  0  0  0  0  0  0  0  0  0  0  0
  139.9013   76.4594  220.5522 H   0  0  0  0  0  0  0  0  0  0  0  0
  142.0010   75.7430  220.2200 C   0  0  0  0  0  0  0  0  0  0  0  0
  142.7900   74.8430  220.8620 N   0  0  0  0  0  0  0  0  0  0  0  0
  143.8160   74.2120  220.2580 C   0  0  0  0  0  0  0  0  0  0  0  0
  144.5960   73.3110  220.9850 C   0  0  0  0  0  0  0  0  0  0  0  0
  144.3843   73.1255  222.0484 H   0  0  0  0  0  0  0  0  0  0  0  0
  145.6450   72.6490  220.3510 C   0  0  0  0  0  0  0  0  0  0  0  0
  146.2663   71.9365  220.9134 H   0  0  0  0  0  0  0  0  0  0  0  0
  145.9000   72.8840  219.0380 N   0  0  0  0  0  0  0  0  0  0  0  0
  145.1550   73.7540  218.3060 C   0  0  0  0  0  0  0  0  0  0  0  0
  145.3908   73.9164  217.2439 H   0  0  0  0  0  0  0  0  0  0  0  0
  144.0780   74.4520  218.9020 C   0  0  0  0  0  0  0  0  0  0  0  0
  143.2480   75.3710  218.2110 C   0  0  0  0  0  0  0  0  0  0  0  0
  143.4390   75.5310  216.5730 S   0  0  0  0  0  0  0  0  0  0  0  0
  142.2510   76.0600  218.8920 N   0  0  0  0  0  0  0  0  0  0  0  0
  141.4290   77.0920  218.1950 C   0  0  0  0  0  0  0  0  0  0  0  0
  141.7213   77.1066  217.1346 H   0  0  0  0  0  0  0  0  0  0  0  0
  140.3764   76.8099  218.3448 H   0  0  0  0  0  0  0  0  0  0  0  0
  141.5900   78.5350  218.7660 C   0  0  0  0  0  0  0  0  0  0  0  0
  142.0707   78.3742  219.7423 H   0  0  0  0  0  0  0  0  0  0  0  0
  142.5440   79.4470  217.9490 C   0  0  0  0  0  0  0  0  0  0  0  0
  143.5809   79.1673  218.1868 H   0  0  0  0  0  0  0  0  0  0  0  0
  142.3033   79.2960  216.8863 H   0  0  0  0  0  0  0  0  0  0  0  0
  142.3640   80.9530  218.2450 C   0  0  0  0  0  0  0  0  0  0  0  0
  143.3428   81.4489  218.1678 H   0  0  0  0  0  0  0  0  0  0  0  0
  141.6513   81.3589  217.5120 H   0  0  0  0  0  0  0  0  0  0  0  0
  141.7940   81.2020  219.6430 C   0  0  0  0  0  0  0  0  0  0  0  0
  142.4833   80.7819  220.3902 H   0  0  0  0  0  0  0  0  0  0  0  0
  141.6809   82.2874  219.7816 H   0  0  0  0  0  0  0  0  0  0  0  0
  140.4110   80.5460  219.8130 C   0  0  0  0  0  0  0  0  0  0  0  0
  140.2641   80.3152  220.8784 H   0  0  0  0  0  0  0  0  0  0  0  0
  139.6659   81.2606  219.4334 H   0  0  0  0  0  0  0  0  0  0  0  0
  140.2420   79.2420  219.0030 C   0  0  0  0  0  0  0  0  0  0  0  0
  139.5767   78.5631  219.5565 H   0  0  0  0  0  0  0  0  0  0  0  0
  139.8161   79.5020  218.0227 H   0  0  0  0  0  0  0  0  0  0  0  0
  141.1070   78.2250  222.6520 C   0  0  0  0  0  0  0  0  0  0  0  0
  139.9210   78.8390  223.0850 C   0  0  0  0  0  0  0  0  0  0  0  0
  138.9927   78.2518  223.1446 H   0  0  0  0  0  0  0  0  0  0  0  0
  139.9110   80.1530  223.4310 N   0  0  0  0  0  0  0  0  0  0  0  0
  141.0310   80.9180  223.3650 C   0  0  0  0  0  0  0  0  0  0  0  0
  140.9910   81.9773  223.6589 H   0  0  0  0  0  0  0  0  0  0  0  0
  142.2320   80.3620  222.9250 C   0  0  0  0  0  0  0  0  0  0  0  0
  143.1401   80.9797  222.8637 H   0  0  0  0  0  0  0  0  0  0  0  0
  142.2710   79.0140  222.5630 C   0  0  0  0  0  0  0  0  0  0  0  0
  143.2115   78.5675  222.2079 H   0  0  0  0  0  0  0  0  0  0  0  0
  1  2  1  0
  2  3  2  0
  3  4  1  0
  3  5  1  0
  5  6  2  0
  6  7  1  0
  7  8  2  0
  8  9  1  0
  8 10  1  0
 10 11  1  0
 10 12  2  0
 12 13  1  0
 13 14  1  0
 13 15  2  0
 15 16  1  0
 16 17  2  0
 16 18  1  0
 18 19  1  0
 19 20  1  0
 19 21  1  0
 19 22  1  0
 22 23  1  0
 22 24  1  0
 24 25  1  0
 24 26  1  0
 24 27  1  0
 27 28  1  0
 27 29  1  0
 27 30  1  0
 30 31  1  0
 30 32  1  0
 30 33  1  0
 33 34  1  0
 33 35  1  0
 33 36  1  0
 36 37  1  0
 36 38  1  0
  2 39  1  0
 39 40  2  0
 40 41  1  0
 40 42  1  0
 42 43  2  0
 43 44  1  0
 43 45  1  0
 45 46  1  0
 45 47  2  0
 47 48  1  0
 18  5  1  0
 36 22  1  0
 47 39  1  0
 15  7  1  0
M  END
>  <UniqueID>  (41) 
463

>  <SMILES>  (41) 
S=c1c2cnccc2nc(/C=C/c2cccnc2)n1CC1CCCCC1

>  <Energy>  (41) 
77.36028234774595

>  <Genealogy>  (41) 
S=c1c2cnccc2nc(/C=C/c2cccnc2)n1CC1CCCCC1 (cis-trans isomerization)
S=c1c2cnccc2nc(/C=C/c2cccnc2)n1CC1CCCCC1 (3D coordinates assigned)
S=c1c2cnccc2nc(/C=C/c2cccnc2)n1CC1CCCCC1 (nonaromatic ring conformer: 77.36028234774595 kcal/mol)

>  <smiles>  (41) 
S=c1c2cnccc2nc(/C=C/c2cccnc2)n1CC1CCCCC1

>  <score_type>  (41) 
oracle

>  <origin>  (41) 
autodockgpu

>  <m_score__min__energy>  (41) 
-7.1799999999999997

>  <m_primary>  (41) 
energy

>  <meeko>  (41) 
{"free_energy": -6.45, "intermolecular_energy": -7.94, "internal_energy": -1.83, "cluster_size": 9, "cluster_id": 4, "rank_in_cluster": 3}

>  <energy>  (41) 
-7.18

>  <cluster_rmsd>  (41) 
0.0

>  <rmsd>  (41) 
270.2

>  <cluster>  (41) 
1

$$$$
VFWNAPSESRSYPS-CMDGGOBGNA-N
     RDKit          3D

 48 51  0  0  0  0  0  0  0  0999 V2000
  143.5684   75.9610  218.1700 H   0  0  0  0  0  0  0  0  0  0  0  0
  143.5430   75.5730  219.1990 C   0  0  0  0  0  0  0  0  0  0  0  0
  142.6960   76.1430  220.0700 C   0  0  0  0  0  0  0  0  0  0  0  0
  142.8679   77.1858  220.3751 H   0  0  0  0  0  0  0  0  0  0  0  0
  141.5280   75.4070  220.6380 C   0  0  0  0  0  0  0  0  0  0  0  0
  141.7100   74.0910  220.9190 N   0  0  0  0  0  0  0  0  0  0  0  0
  140.7390   73.3170  221.4410 C   0  0  0  0  0  0  0  0  0  0  0  0
  140.9920   71.9660  221.6900 C   0  0  0  0  0  0  0  0  0  0  0  0
  141.9737   71.5315  221.4502 H   0  0  0  0  0  0  0  0  0  0  0  0
  139.9890   71.1740  222.2450 C   0  0  0  0  0  0  0  0  0  0  0  0
  140.1765   70.1088  222.4456 H   0  0  0  0  0  0  0  0  0  0  0  0
  138.7800   71.7180  222.5380 N   0  0  0  0  0  0  0  0  0  0  0  0
  138.5070   73.0300  222.3100 C   0  0  0  0  0  0  0  0  0  0  0  0
  137.5165   73.4354  222.5640 H   0  0  0  0  0  0  0  0  0  0  0  0
  139.4920   73.8770  221.7470 C   0  0  0  0  0  0  0  0  0  0  0  0
  139.2930   75.2560  221.4820 C   0  0  0  0  0  0  0  0  0  0  0  0
  137.8870   75.9660  221.9970 S   0  0  0  0  0  0  0  0  0  0  0  0
  140.2950   76.0010  220.8690 N   0  0  0  0  0  0  0  0  0  0  0  0
  140.0660   77.4290  220.5060 C   0  0  0  0  0  0  0  0  0  0  0  0
  140.5752   77.6273  219.5513 H   0  0  0  0  0  0  0  0  0  0  0  0
  138.9763   77.5674  220.4473 H   0  0  0  0  0  0  0  0  0  0  0  0
  140.5890   78.4530  221.5600 C   0  0  0  0  0  0  0  0  0  0  0  0
  139.7285   79.1189  221.7215 H   0  0  0  0  0  0  0  0  0  0  0  0
  140.9340   77.8350  222.9410 C   0  0  0  0  0  0  0  0  0  0  0  0
  139.9955   77.6553  223.4858 H   0  0  0  0  0  0  0  0  0  0  0  0
  141.4906   76.9059  222.7487 H   0  0  0  0  0  0  0  0  0  0  0  0
  141.8400   78.7340  223.8120 C   0  0  0  0  0  0  0  0  0  0  0  0
  141.5657   78.5962  224.8683 H   0  0  0  0  0  0  0  0  0  0  0  0
  142.8841   78.4406  223.6284 H   0  0  0  0  0  0  0  0  0  0  0  0
  141.6980   80.2150  223.4550 C   0  0  0  0  0  0  0  0  0  0  0  0
  140.6532   80.5219  223.6105 H   0  0  0  0  0  0  0  0  0  0  0  0
  142.3753   80.7929  224.1010 H   0  0  0  0  0  0  0  0  0  0  0  0
  142.0850   80.4800  221.9870 C   0  0  0  0  0  0  0  0  0  0  0  0
  141.5353   81.3661  221.6368 H   0  0  0  0  0  0  0  0  0  0  0  0
  143.1748   80.6273  221.9619 H   0  0  0  0  0  0  0  0  0  0  0  0
  141.7650   79.3020  221.0420 C   0  0  0  0  0  0  0  0  0  0  0  0
  141.5054   79.7018  220.0507 H   0  0  0  0  0  0  0  0  0  0  0  0
  142.6540   78.6564  220.9890 H   0  0  0  0  0  0  0  0  0  0  0  0
  144.4470   74.4490  219.5460 C   0  0  0  0  0  0  0  0  0  0  0  0
  144.7990   73.5260  218.5470 C   0  0  0  0  0  0  0  0  0  0  0  0
  144.4105   73.6524  217.5257 H   0  0  0  0  0  0  0  0  0  0  0  0
  145.6160   72.4780  218.8330 N   0  0  0  0  0  0  0  0  0  0  0  0
  146.1120   72.2780  220.0820 C   0  0  0  0  0  0  0  0  0  0  0  0
  146.7760   71.4235  220.2793 H   0  0  0  0  0  0  0  0  0  0  0  0
  145.7800   73.1550  221.1140 C   0  0  0  0  0  0  0  0  0  0  0  0
  146.1745   72.9937  222.1281 H   0  0  0  0  0  0  0  0  0  0  0  0
  144.9420   74.2400  220.8480 C   0  0  0  0  0  0  0  0  0  0  0  0
  144.6679   74.9330  221.6571 H   0  0  0  0  0  0  0  0  0  0  0  0
  1  2  1  0
  2  3  2  0
  3  4  1  0
  3  5  1  0
  5  6  2  0
  6  7  1  0
  7  8  2  0
  8  9  1  0
  8 10  1  0
 10 11  1  0
 10 12  2  0
 12 13  1  0
 13 14  1  0
 13 15  2  0
 15 16  1  0
 16 17  2  0
 16 18  1  0
 18 19  1  0
 19 20  1  0
 19 21  1  0
 19 22  1  0
 22 23  1  0
 22 24  1  0
 24 25  1  0
 24 26  1  0
 24 27  1  0
 27 28  1  0
 27 29  1  0
 27 30  1  0
 30 31  1  0
 30 32  1  0
 30 33  1  0
 33 34  1  0
 33 35  1  0
 33 36  1  0
 36 37  1  0
 36 38  1  0
  2 39  1  0
 39 40  2  0
 40 41  1  0
 40 42  1  0
 42 43  2  0
 43 44  1  0
 43 45  1  0
 45 46  1  0
 45 47  2  0
 47 48  1  0
 18  5  1  0
 36 22  1  0
 47 39  1  0
 15  7  1  0
M  END
>  <UniqueID>  (42) 
463

>  <SMILES>  (42) 
S=c1c2cnccc2nc(/C=C/c2cccnc2)n1CC1CCCCC1

>  <Energy>  (42) 
77.36028234774595

>  <Genealogy>  (42) 
S=c1c2cnccc2nc(/C=C/c2cccnc2)n1CC1CCCCC1 (cis-trans isomerization)
S=c1c2cnccc2nc(/C=C/c2cccnc2)n1CC1CCCCC1 (3D coordinates assigned)
S=c1c2cnccc2nc(/C=C/c2cccnc2)n1CC1CCCCC1 (nonaromatic ring conformer: 77.36028234774595 kcal/mol)

>  <smiles>  (42) 
S=c1c2cnccc2nc(/C=C/c2cccnc2)n1CC1CCCCC1

>  <score_type>  (42) 
oracle

>  <origin>  (42) 
autodockgpu

>  <m_score__min__energy>  (42) 
-7.1799999999999997

>  <m_primary>  (42) 
energy

>  <meeko>  (42) 
{"free_energy": -6.92, "intermolecular_energy": -8.42, "internal_energy": -1.47, "cluster_size": 7, "cluster_id": 2, "rank_in_cluster": 6}

>  <energy>  (42) 
-7.14

>  <cluster_rmsd>  (42) 
0.0

>  <rmsd>  (42) 
270.14

>  <cluster>  (42) 
2

$$$$
VFWNAPSESRSYPS-CMDGGOBGNA-N
     RDKit          3D

 48 51  0  0  0  0  0  0  0  0999 V2000
  138.9087   71.7944  221.4174 H   0  0  0  0  0  0  0  0  0  0  0  0
  139.5010   72.2700  222.2130 C   0  0  0  0  0  0  0  0  0  0  0  0
  140.0280   73.4810  221.9730 C   0  0  0  0  0  0  0  0  0  0  0  0
  139.5182   74.3717  222.3688 H   0  0  0  0  0  0  0  0  0  0  0  0
  141.2840   73.6570  221.1860 C   0  0  0  0  0  0  0  0  0  0  0  0
  142.1190   72.5880  221.1150 N   0  0  0  0  0  0  0  0  0  0  0  0
  143.2800   72.6140  220.4320 C   0  0  0  0  0  0  0  0  0  0  0  0
  144.0970   71.4820  220.4170 C   0  0  0  0  0  0  0  0  0  0  0  0
  143.8033   70.5777  220.9701 H   0  0  0  0  0  0  0  0  0  0  0  0
  145.2890   71.5090  219.6940 C   0  0  0  0  0  0  0  0  0  0  0  0
  145.9416   70.6237  219.6748 H   0  0  0  0  0  0  0  0  0  0  0  0
  145.6430   72.6290  219.0140 N   0  0  0  0  0  0  0  0  0  0  0  0
  144.8650   73.7440  219.0090 C   0  0  0  0  0  0  0  0  0  0  0  0
  145.1848   74.6319  218.4439 H   0  0  0  0  0  0  0  0  0  0  0  0
  143.6460   73.7680  219.7270 C   0  0  0  0  0  0  0  0  0  0  0  0
  142.7740   74.8850  219.7700 C   0  0  0  0  0  0  0  0  0  0  0  0
  143.1100   76.1900  218.8040 S   0  0  0  0  0  0  0  0  0  0  0  0
  141.6250   74.8440  220.5520 N   0  0  0  0  0  0  0  0  0  0  0  0
  140.7450   76.0430  220.6740 C   0  0  0  0  0  0  0  0  0  0  0  0
  140.4452   76.3543  219.6625 H   0  0  0  0  0  0  0  0  0  0  0  0
  139.8918   75.7443  221.3007 H   0  0  0  0  0  0  0  0  0  0  0  0
  141.4130   77.2620  221.3820 C   0  0  0  0  0  0  0  0  0  0  0  0
  142.4343   76.9107  221.5904 H   0  0  0  0  0  0  0  0  0  0  0  0
  141.5530   78.5260  220.4910 C   0  0  0  0  0  0  0  0  0  0  0  0
  142.4002   78.3764  219.8056 H   0  0  0  0  0  0  0  0  0  0  0  0
  140.6000   78.6514  219.9562 H   0  0  0  0  0  0  0  0  0  0  0  0
  141.7970   79.8240  221.2940 C   0  0  0  0  0  0  0  0  0  0  0  0
  142.4522   80.4854  220.7081 H   0  0  0  0  0  0  0  0  0  0  0  0
  140.8203   80.2936  221.4825 H   0  0  0  0  0  0  0  0  0  0  0  0
  142.4560   79.5500  222.6470 C   0  0  0  0  0  0  0  0  0  0  0  0
  143.4253   79.0577  222.4796 H   0  0  0  0  0  0  0  0  0  0  0  0
  142.5898   80.5100  223.1671 H   0  0  0  0  0  0  0  0  0  0  0  0
  141.5780   78.6410  223.5270 C   0  0  0  0  0  0  0  0  0  0  0  0
  142.2321   78.0880  224.2172 H   0  0  0  0  0  0  0  0  0  0  0  0
  140.8675   79.2929  224.0563 H   0  0  0  0  0  0  0  0  0  0  0  0
  140.7440   77.6210  222.7220 C   0  0  0  0  0  0  0  0  0  0  0  0
  140.6301   76.7044  223.3194 H   0  0  0  0  0  0  0  0  0  0  0  0
  139.7667   78.0763  222.5039 H   0  0  0  0  0  0  0  0  0  0  0  0
  139.6730   71.5370  223.4920 C   0  0  0  0  0  0  0  0  0  0  0  0
  138.7550   70.5290  223.8260 C   0  0  0  0  0  0  0  0  0  0  0  0
  137.9310   70.2914  223.1371 H   0  0  0  0  0  0  0  0  0  0  0  0
  138.8760   69.8440  224.9940 N   0  0  0  0  0  0  0  0  0  0  0  0
  139.8730   70.1100  225.8780 C   0  0  0  0  0  0  0  0  0  0  0  0
  139.9475   69.5338  226.8121 H   0  0  0  0  0  0  0  0  0  0  0  0
  140.8020   71.1130  225.6020 C   0  0  0  0  0  0  0  0  0  0  0  0
  141.6071   71.3358  226.3177 H   0  0  0  0  0  0  0  0  0  0  0  0
  140.7010   71.8320  224.4090 C   0  0  0  0  0  0  0  0  0  0  0  0
  141.4249   72.6294  224.1851 H   0  0  0  0  0  0  0  0  0  0  0  0
  1  2  1  0
  2  3  2  0
  3  4  1  0
  3  5  1  0
  5  6  2  0
  6  7  1  0
  7  8  2  0
  8  9  1  0
  8 10  1  0
 10 11  1  0
 10 12  2  0
 12 13  1  0
 13 14  1  0
 13 15  2  0
 15 16  1  0
 16 17  2  0
 16 18  1  0
 18 19  1  0
 19 20  1  0
 19 21  1  0
 19 22  1  0
 22 23  1  0
 22 24  1  0
 24 25  1  0
 24 26  1  0
 24 27  1  0
 27 28  1  0
 27 29  1  0
 27 30  1  0
 30 31  1  0
 30 32  1  0
 30 33  1  0
 33 34  1  0
 33 35  1  0
 33 36  1  0
 36 37  1  0
 36 38  1  0
  2 39  1  0
 39 40  2  0
 40 41  1  0
 40 42  1  0
 42 43  2  0
 43 44  1  0
 43 45  1  0
 45 46  1  0
 45 47  2  0
 47 48  1  0
 18  5  1  0
 36 22  1  0
 47 39  1  0
 15  7  1  0
M  END
>  <UniqueID>  (43) 
463

>  <SMILES>  (43) 
S=c1c2cnccc2nc(/C=C/c2cccnc2)n1CC1CCCCC1

>  <Energy>  (43) 
77.36028234774595

>  <Genealogy>  (43) 
S=c1c2cnccc2nc(/C=C/c2cccnc2)n1CC1CCCCC1 (cis-trans isomerization)
S=c1c2cnccc2nc(/C=C/c2cccnc2)n1CC1CCCCC1 (3D coordinates assigned)
S=c1c2cnccc2nc(/C=C/c2cccnc2)n1CC1CCCCC1 (nonaromatic ring conformer: 77.36028234774595 kcal/mol)

>  <smiles>  (43) 
S=c1c2cnccc2nc(/C=C/c2cccnc2)n1CC1CCCCC1

>  <score_type>  (43) 
oracle

>  <origin>  (43) 
autodockgpu

>  <m_score__min__energy>  (43) 
-7.1799999999999997

>  <m_primary>  (43) 
energy

>  <meeko>  (43) 
{"free_energy": -7.18, "intermolecular_energy": -8.67, "internal_energy": -1.07, "cluster_size": 1, "cluster_id": 1, "rank_in_cluster": 1}

>  <energy>  (43) 
-7.14

>  <cluster_rmsd>  (43) 
0.04

>  <rmsd>  (43) 
270.15

>  <cluster>  (43) 
2

$$$$
VFWNAPSESRSYPS-CMDGGOBGNA-N
     RDKit          3D

 48 51  0  0  0  0  0  0  0  0999 V2000
  141.2252   76.0288  223.0861 H   0  0  0  0  0  0  0  0  0  0  0  0
  141.0750   76.7750  222.2920 C   0  0  0  0  0  0  0  0  0  0  0  0
  140.8900   76.3360  221.0360 C   0  0  0  0  0  0  0  0  0  0  0  0
  139.8921   76.4261  220.5820 H   0  0  0  0  0  0  0  0  0  0  0  0
  141.9950   75.7300  220.2370 C   0  0  0  0  0  0  0  0  0  0  0  0
  142.7890   74.8290  220.8720 N   0  0  0  0  0  0  0  0  0  0  0  0
  143.8150   74.2050  220.2620 C   0  0  0  0  0  0  0  0  0  0  0  0
  144.6000   73.3010  220.9820 C   0  0  0  0  0  0  0  0  0  0  0  0
  144.3911   73.1075  222.0445 H   0  0  0  0  0  0  0  0  0  0  0  0
  145.6500   72.6470  220.3410 C   0  0  0  0  0  0  0  0  0  0  0  0
  146.2753   71.9334  220.8975 H   0  0  0  0  0  0  0  0  0  0  0  0
  145.9010   72.8910  219.0290 N   0  0  0  0  0  0  0  0  0  0  0  0
  145.1520   73.7630  218.3040 C   0  0  0  0  0  0  0  0  0  0  0  0
  145.3851   73.9333  217.2426 H   0  0  0  0  0  0  0  0  0  0  0  0
  144.0740   74.4530  218.9070 C   0  0  0  0  0  0  0  0  0  0  0  0
  143.2400   75.3740  218.2230 C   0  0  0  0  0  0  0  0  0  0  0  0
  143.4270   75.5450  216.5850 S   0  0  0  0  0  0  0  0  0  0  0  0
  142.2410   76.0550  218.9100 N   0  0  0  0  0  0  0  0  0  0  0  0
  141.4150   77.0900  218.2220 C   0  0  0  0  0  0  0  0  0  0  0  0
  141.6956   77.1030  217.1585 H   0  0  0  0  0  0  0  0  0  0  0  0
  140.3634   76.8114  218.3847 H   0  0  0  0  0  0  0  0  0  0  0  0
  141.5860   78.5320  218.7890 C   0  0  0  0  0  0  0  0  0  0  0  0
  142.0591   78.3685  219.7685 H   0  0  0  0  0  0  0  0  0  0  0  0
  142.5540   79.4330  217.9760 C   0  0  0  0  0  0  0  0  0  0  0  0
  143.5866   79.1441  218.2215 H   0  0  0  0  0  0  0  0  0  0  0  0
  142.3184   79.2814  216.9123 H   0  0  0  0  0  0  0  0  0  0  0  0
  142.3870   80.9410  218.2660 C   0  0  0  0  0  0  0  0  0  0  0  0
  143.3711   81.4271  218.1931 H   0  0  0  0  0  0  0  0  0  0  0  0
  141.6827   81.3515  217.5274 H   0  0  0  0  0  0  0  0  0  0  0  0
  141.8110   81.2000  219.6600 C   0  0  0  0  0  0  0  0  0  0  0  0
  142.4914   80.7752  220.4127 H   0  0  0  0  0  0  0  0  0  0  0  0
  141.7081   82.2868  219.7950 H   0  0  0  0  0  0  0  0  0  0  0  0
  140.4200   80.5580  219.8230 C   0  0  0  0  0  0  0  0  0  0  0  0
  140.2637   80.3322  220.8882 H   0  0  0  0  0  0  0  0  0  0  0  0
  139.6844   81.2786  219.4363 H   0  0  0  0  0  0  0  0  0  0  0  0
  140.2440   79.2530  219.0160 C   0  0  0  0  0  0  0  0  0  0  0  0
  139.5689   78.5822  219.5676 H   0  0  0  0  0  0  0  0  0  0  0  0
  139.8271   79.5144  218.0322 H   0  0  0  0  0  0  0  0  0  0  0  0
  141.0880   78.2100  222.6680 C   0  0  0  0  0  0  0  0  0  0  0  0
  139.8900   78.8150  223.0840 C   0  0  0  0  0  0  0  0  0  0  0  0
  138.9663   78.2198  223.1332 H   0  0  0  0  0  0  0  0  0  0  0  0
  139.8640   80.1300  223.4260 N   0  0  0  0  0  0  0  0  0  0  0  0
  140.9780   80.9050  223.3720 C   0  0  0  0  0  0  0  0  0  0  0  0
  140.9247   81.9647  223.6623 H   0  0  0  0  0  0  0  0  0  0  0  0
  142.1890   80.3590  222.9490 C   0  0  0  0  0  0  0  0  0  0  0  0
  143.0922   80.9848  222.8977 H   0  0  0  0  0  0  0  0  0  0  0  0
  142.2450   79.0100  222.5910 C   0  0  0  0  0  0  0  0  0  0  0  0
  143.1939   78.5717  222.2484 H   0  0  0  0  0  0  0  0  0  0  0  0
  1  2  1  0
  2  3  2  0
  3  4  1  0
  3  5  1  0
  5  6  2  0
  6  7  1  0
  7  8  2  0
  8  9  1  0
  8 10  1  0
 10 11  1  0
 10 12  2  0
 12 13  1  0
 13 14  1  0
 13 15  2  0
 15 16  1  0
 16 17  2  0
 16 18  1  0
 18 19  1  0
 19 20  1  0
 19 21  1  0
 19 22  1  0
 22 23  1  0
 22 24  1  0
 24 25  1  0
 24 26  1  0
 24 27  1  0
 27 28  1  0
 27 29  1  0
 27 30  1  0
 30 31  1  0
 30 32  1  0
 30 33  1  0
 33 34  1  0
 33 35  1  0
 33 36  1  0
 36 37  1  0
 36 38  1  0
  2 39  1  0
 39 40  2  0
 40 41  1  0
 40 42  1  0
 42 43  2  0
 43 44  1  0
 43 45  1  0
 45 46  1  0
 45 47  2  0
 47 48  1  0
 18  5  1  0
 36 22  1  0
 47 39  1  0
 15  7  1  0
M  END
>  <UniqueID>  (44) 
463

>  <SMILES>  (44) 
S=c1c2cnccc2nc(/C=C/c2cccnc2)n1CC1CCCCC1

>  <Energy>  (44) 
77.36028234774595

>  <Genealogy>  (44) 
S=c1c2cnccc2nc(/C=C/c2cccnc2)n1CC1CCCCC1 (cis-trans isomerization)
S=c1c2cnccc2nc(/C=C/c2cccnc2)n1CC1CCCCC1 (3D coordinates assigned)
S=c1c2cnccc2nc(/C=C/c2cccnc2)n1CC1CCCCC1 (nonaromatic ring conformer: 77.36028234774595 kcal/mol)

>  <smiles>  (44) 
S=c1c2cnccc2nc(/C=C/c2cccnc2)n1CC1CCCCC1

>  <score_type>  (44) 
oracle

>  <origin>  (44) 
autodockgpu

>  <m_score__min__energy>  (44) 
-7.1799999999999997

>  <m_primary>  (44) 
energy

>  <meeko>  (44) 
{"free_energy": -6.45, "intermolecular_energy": -7.94, "internal_energy": -1.84, "cluster_size": 9, "cluster_id": 4, "rank_in_cluster": 4}

>  <energy>  (44) 
-7.1

>  <cluster_rmsd>  (44) 
0.14

>  <rmsd>  (44) 
270.17

>  <cluster>  (44) 
2

$$$$
VFWNAPSESRSYPS-CMDGGOBGNA-N
     RDKit          3D

 48 51  0  0  0  0  0  0  0  0999 V2000
  143.6843   76.0504  218.1172 H   0  0  0  0  0  0  0  0  0  0  0  0
  143.5950   75.6480  219.1370 C   0  0  0  0  0  0  0  0  0  0  0  0
  142.7220   76.2310  219.9730 C   0  0  0  0  0  0  0  0  0  0  0  0
  142.8516   77.2946  220.2219 H   0  0  0  0  0  0  0  0  0  0  0  0
  141.5800   75.4810  220.5760 C   0  0  0  0  0  0  0  0  0  0  0  0
  141.7780   74.1620  220.8320 N   0  0  0  0  0  0  0  0  0  0  0  0
  140.8320   73.3760  221.3810 C   0  0  0  0  0  0  0  0  0  0  0  0
  141.1000   72.0240  221.6010 C   0  0  0  0  0  0  0  0  0  0  0  0
  142.0737   71.5979  221.3175 H   0  0  0  0  0  0  0  0  0  0  0  0
  140.1230   71.2190  222.1830 C   0  0  0  0  0  0  0  0  0  0  0  0
  140.3227   70.1521  222.3613 H   0  0  0  0  0  0  0  0  0  0  0  0
  138.9230   71.7540  222.5300 N   0  0  0  0  0  0  0  0  0  0  0  0
  138.6370   73.0670  222.3300 C   0  0  0  0  0  0  0  0  0  0  0  0
  137.6550   73.4640  222.6268 H   0  0  0  0  0  0  0  0  0  0  0  0
  139.5950   73.9270  221.7420 C   0  0  0  0  0  0  0  0  0  0  0  0
  139.3800   75.3080  221.5030 C   0  0  0  0  0  0  0  0  0  0  0  0
  137.9920   76.0040  222.0820 S   0  0  0  0  0  0  0  0  0  0  0  0
  140.3540   76.0650  220.8630 N   0  0  0  0  0  0  0  0  0  0  0  0
  140.1050   77.4980  220.5280 C   0  0  0  0  0  0  0  0  0  0  0  0
  140.6049   77.7203  219.5737 H   0  0  0  0  0  0  0  0  0  0  0  0
  139.0133   77.6243  220.4793 H   0  0  0  0  0  0  0  0  0  0  0  0
  140.6230   78.5080  221.5970 C   0  0  0  0  0  0  0  0  0  0  0  0
  139.7703   79.1874  221.7432 H   0  0  0  0  0  0  0  0  0  0  0  0
  140.9290   77.8780  222.9830 C   0  0  0  0  0  0  0  0  0  0  0  0
  139.9764   77.7114  223.5072 H   0  0  0  0  0  0  0  0  0  0  0  0
  141.4743   76.9408  222.7980 H   0  0  0  0  0  0  0  0  0  0  0  0
  141.8310   78.7580  223.8770 C   0  0  0  0  0  0  0  0  0  0  0  0
  141.5319   78.6207  224.9266 H   0  0  0  0  0  0  0  0  0  0  0  0
  142.8738   78.4479  223.7148 H   0  0  0  0  0  0  0  0  0  0  0  0
  141.7210   80.2430  223.5230 C   0  0  0  0  0  0  0  0  0  0  0  0
  140.6781   80.5662  223.6570 H   0  0  0  0  0  0  0  0  0  0  0  0
  142.3936   80.8069  224.1860 H   0  0  0  0  0  0  0  0  0  0  0  0
  142.1440   80.5080  222.0660 C   0  0  0  0  0  0  0  0  0  0  0  0
  141.6175   81.4053  221.7086 H   0  0  0  0  0  0  0  0  0  0  0  0
  143.2365   80.6363  222.0652 H   0  0  0  0  0  0  0  0  0  0  0  0
  141.8240   79.3400  221.1080 C   0  0  0  0  0  0  0  0  0  0  0  0
  141.5919   79.7491  220.1136 H   0  0  0  0  0  0  0  0  0  0  0  0
  142.7030   78.6798  221.0700 H   0  0  0  0  0  0  0  0  0  0  0  0
  144.4470   74.4910  219.5100 C   0  0  0  0  0  0  0  0  0  0  0  0
  144.8240   73.5750  218.5150 C   0  0  0  0  0  0  0  0  0  0  0  0
  144.4935   73.7296  217.4773 H   0  0  0  0  0  0  0  0  0  0  0  0
  145.5940   72.4990  218.8240 N   0  0  0  0  0  0  0  0  0  0  0  0
  146.0180   72.2640  220.0930 C   0  0  0  0  0  0  0  0  0  0  0  0
  146.6461   71.3871  220.3089 H   0  0  0  0  0  0  0  0  0  0  0  0
  145.6580   73.1330  221.1220 C   0  0  0  0  0  0  0  0  0  0  0  0
  145.9939   72.9429  222.1521 H   0  0  0  0  0  0  0  0  0  0  0  0
  144.8670   74.2470  220.8330 C   0  0  0  0  0  0  0  0  0  0  0  0
  144.5714   74.9349  221.6389 H   0  0  0  0  0  0  0  0  0  0  0  0
  1  2  1  0
  2  3  2  0
  3  4  1  0
  3  5  1  0
  5  6  2  0
  6  7  1  0
  7  8  2  0
  8  9  1  0
  8 10  1  0
 10 11  1  0
 10 12  2  0
 12 13  1  0
 13 14  1  0
 13 15  2  0
 15 16  1  0
 16 17  2  0
 16 18  1  0
 18 19  1  0
 19 20  1  0
 19 21  1  0
 19 22  1  0
 22 23  1  0
 22 24  1  0
 24 25  1  0
 24 26  1  0
 24 27  1  0
 27 28  1  0
 27 29  1  0
 27 30  1  0
 30 31  1  0
 30 32  1  0
 30 33  1  0
 33 34  1  0
 33 35  1  0
 33 36  1  0
 36 37  1  0
 36 38  1  0
  2 39  1  0
 39 40  2  0
 40 41  1  0
 40 42  1  0
 42 43  2  0
 43 44  1  0
 43 45  1  0
 45 46  1  0
 45 47  2  0
 47 48  1  0
 18  5  1  0
 36 22  1  0
 47 39  1  0
 15  7  1  0
M  END
>  <UniqueID>  (45) 
463

>  <SMILES>  (45) 
S=c1c2cnccc2nc(/C=C/c2cccnc2)n1CC1CCCCC1

>  <Energy>  (45) 
77.36028234774595

>  <Genealogy>  (45) 
S=c1c2cnccc2nc(/C=C/c2cccnc2)n1CC1CCCCC1 (cis-trans isomerization)
S=c1c2cnccc2nc(/C=C/c2cccnc2)n1CC1CCCCC1 (3D coordinates assigned)
S=c1c2cnccc2nc(/C=C/c2cccnc2)n1CC1CCCCC1 (nonaromatic ring conformer: 77.36028234774595 kcal/mol)

>  <smiles>  (45) 
S=c1c2cnccc2nc(/C=C/c2cccnc2)n1CC1CCCCC1

>  <score_type>  (45) 
oracle

>  <origin>  (45) 
autodockgpu

>  <m_score__min__energy>  (45) 
-7.1799999999999997

>  <m_primary>  (45) 
energy

>  <meeko>  (45) 
{"free_energy": -6.95, "intermolecular_energy": -8.44, "internal_energy": -1.48, "cluster_size": 7, "cluster_id": 2, "rank_in_cluster": 5}

>  <energy>  (45) 
-7.06

>  <cluster_rmsd>  (45) 
0.82

>  <rmsd>  (45) 
270.19

>  <cluster>  (45) 
2

$$$$
VFWNAPSESRSYPS-CMDGGOBGNA-N
     RDKit          3D

 48 51  0  0  0  0  0  0  0  0999 V2000
  143.6816   75.8425  218.1615 H   0  0  0  0  0  0  0  0  0  0  0  0
  143.6570   75.4640  219.1940 C   0  0  0  0  0  0  0  0  0  0  0  0
  142.8220   76.0540  220.0650 C   0  0  0  0  0  0  0  0  0  0  0  0
  143.0070   77.0985  220.3563 H   0  0  0  0  0  0  0  0  0  0  0  0
  141.6510   75.3370  220.6500 C   0  0  0  0  0  0  0  0  0  0  0  0
  141.7850   74.0000  220.8470 N   0  0  0  0  0  0  0  0  0  0  0  0
  140.8060   73.2390  221.3730 C   0  0  0  0  0  0  0  0  0  0  0  0
  141.0080   71.8660  221.5320 C   0  0  0  0  0  0  0  0  0  0  0  0
  141.9557   71.4043  221.2180 H   0  0  0  0  0  0  0  0  0  0  0  0
  139.9980   71.0870  222.0920 C   0  0  0  0  0  0  0  0  0  0  0  0
  140.1454   70.0046  222.2215 H   0  0  0  0  0  0  0  0  0  0  0  0
  138.8310   71.6650  222.4780 N   0  0  0  0  0  0  0  0  0  0  0  0
  138.6090   72.9980  222.3380 C   0  0  0  0  0  0  0  0  0  0  0  0
  137.6514   73.4301  222.6640 H   0  0  0  0  0  0  0  0  0  0  0  0
  139.6030   73.8340  221.7750 C   0  0  0  0  0  0  0  0  0  0  0  0
  139.4550   75.2330  221.5990 C   0  0  0  0  0  0  0  0  0  0  0  0
  138.1110   75.9720  222.2250 S   0  0  0  0  0  0  0  0  0  0  0  0
  140.4590   75.9680  220.9780 N   0  0  0  0  0  0  0  0  0  0  0  0
  140.2790   77.4250  220.7090 C   0  0  0  0  0  0  0  0  0  0  0  0
  140.5191   77.6119  219.6519 H   0  0  0  0  0  0  0  0  0  0  0  0
  139.2352   77.6640  220.9605 H   0  0  0  0  0  0  0  0  0  0  0  0
  141.1720   78.3570  221.5840 C   0  0  0  0  0  0  0  0  0  0  0  0
  142.1727   77.9081  221.5003 H   0  0  0  0  0  0  0  0  0  0  0  0
  141.2960   79.8110  221.0560 C   0  0  0  0  0  0  0  0  0  0  0  0
  142.0036   79.8159  220.2138 H   0  0  0  0  0  0  0  0  0  0  0  0
  140.2874   80.1326  220.7571 H   0  0  0  0  0  0  0  0  0  0  0  0
  141.7950   80.8150  222.1190 C   0  0  0  0  0  0  0  0  0  0  0  0
  142.4116   81.5791  221.6231 H   0  0  0  0  0  0  0  0  0  0  0  0
  140.9137   81.2635  222.6008 H   0  0  0  0  0  0  0  0  0  0  0  0
  142.6310   80.1360  223.2060 C   0  0  0  0  0  0  0  0  0  0  0  0
  143.5066   79.6612  222.7393 H   0  0  0  0  0  0  0  0  0  0  0  0
  142.9418   80.9019  223.9318 H   0  0  0  0  0  0  0  0  0  0  0  0
  141.8180   79.0620  223.9540 C   0  0  0  0  0  0  0  0  0  0  0  0
  142.5151   78.3026  224.3379 H   0  0  0  0  0  0  0  0  0  0  0  0
  141.2718   79.5736  224.7602 H   0  0  0  0  0  0  0  0  0  0  0  0
  140.7660   78.3570  223.0700 C   0  0  0  0  0  0  0  0  0  0  0  0
  140.6566   77.3162  223.4088 H   0  0  0  0  0  0  0  0  0  0  0  0
  139.8177   78.9064  223.1645 H   0  0  0  0  0  0  0  0  0  0  0  0
  144.5480   74.3310  219.5450 C   0  0  0  0  0  0  0  0  0  0  0  0
  144.8460   73.3710  218.5650 C   0  0  0  0  0  0  0  0  0  0  0  0
  144.4257   73.4748  217.5538 H   0  0  0  0  0  0  0  0  0  0  0  0
  145.6500   72.3140  218.8560 N   0  0  0  0  0  0  0  0  0  0  0  0
  146.1840   72.1420  220.0930 C   0  0  0  0  0  0  0  0  0  0  0  0
  146.8374   71.2803  220.2945 H   0  0  0  0  0  0  0  0  0  0  0  0
  145.9050   73.0560  221.1070 C   0  0  0  0  0  0  0  0  0  0  0  0
  146.3294   72.9157  222.1121 H   0  0  0  0  0  0  0  0  0  0  0  0
  145.0820   74.1520  220.8370 C   0  0  0  0  0  0  0  0  0  0  0  0
  144.8507   74.8753  221.6328 H   0  0  0  0  0  0  0  0  0  0  0  0
  1  2  1  0
  2  3  2  0
  3  4  1  0
  3  5  1  0
  5  6  2  0
  6  7  1  0
  7  8  2  0
  8  9  1  0
  8 10  1  0
 10 11  1  0
 10 12  2  0
 12 13  1  0
 13 14  1  0
 13 15  2  0
 15 16  1  0
 16 17  2  0
 16 18  1  0
 18 19  1  0
 19 20  1  0
 19 21  1  0
 19 22  1  0
 22 23  1  0
 22 24  1  0
 24 25  1  0
 24 26  1  0
 24 27  1  0
 27 28  1  0
 27 29  1  0
 27 30  1  0
 30 31  1  0
 30 32  1  0
 30 33  1  0
 33 34  1  0
 33 35  1  0
 33 36  1  0
 36 37  1  0
 36 38  1  0
  2 39  1  0
 39 40  2  0
 40 41  1  0
 40 42  1  0
 42 43  2  0
 43 44  1  0
 43 45  1  0
 45 46  1  0
 45 47  2  0
 47 48  1  0
 18  5  1  0
 36 22  1  0
 47 39  1  0
 15  7  1  0
M  END
>  <UniqueID>  (46) 
463

>  <SMILES>  (46) 
S=c1c2cnccc2nc(/C=C/c2cccnc2)n1CC1CCCCC1

>  <Energy>  (46) 
77.36028234774595

>  <Genealogy>  (46) 
S=c1c2cnccc2nc(/C=C/c2cccnc2)n1CC1CCCCC1 (cis-trans isomerization)
S=c1c2cnccc2nc(/C=C/c2cccnc2)n1CC1CCCCC1 (3D coordinates assigned)
S=c1c2cnccc2nc(/C=C/c2cccnc2)n1CC1CCCCC1 (nonaromatic ring conformer: 77.36028234774595 kcal/mol)

>  <smiles>  (46) 
S=c1c2cnccc2nc(/C=C/c2cccnc2)n1CC1CCCCC1

>  <score_type>  (46) 
oracle

>  <origin>  (46) 
autodockgpu

>  <m_score__min__energy>  (46) 
-7.1799999999999997

>  <m_primary>  (46) 
energy

>  <meeko>  (46) 
{"free_energy": -7.1, "intermolecular_energy": -8.59, "internal_energy": -1.34, "cluster_size": 7, "cluster_id": 2, "rank_in_cluster": 3}

>  <energy>  (46) 
-6.95

>  <cluster_rmsd>  (46) 
0.36

>  <rmsd>  (46) 
270.13

>  <cluster>  (46) 
2

$$$$
VFWNAPSESRSYPS-CMDGGOBGNA-N
     RDKit          3D

 48 51  0  0  0  0  0  0  0  0999 V2000
  143.6301   75.9010  218.1635 H   0  0  0  0  0  0  0  0  0  0  0  0
  143.5940   75.5100  219.1910 C   0  0  0  0  0  0  0  0  0  0  0  0
  142.7500   76.0890  220.0600 C   0  0  0  0  0  0  0  0  0  0  0  0
  142.9168   77.1381  220.3457 H   0  0  0  0  0  0  0  0  0  0  0  0
  141.5920   75.3540  220.6510 C   0  0  0  0  0  0  0  0  0  0  0  0
  141.7330   74.0130  220.8110 N   0  0  0  0  0  0  0  0  0  0  0  0
  140.7670   73.2370  221.3380 C   0  0  0  0  0  0  0  0  0  0  0  0
  140.9750   71.8610  221.4570 C   0  0  0  0  0  0  0  0  0  0  0  0
  141.9168   71.4099  221.1112 H   0  0  0  0  0  0  0  0  0  0  0  0
  139.9780   71.0650  222.0180 C   0  0  0  0  0  0  0  0  0  0  0  0
  140.1303   69.9801  222.1166 H   0  0  0  0  0  0  0  0  0  0  0  0
  138.8180   71.6300  222.4430 N   0  0  0  0  0  0  0  0  0  0  0  0
  138.5910   72.9670  222.3420 C   0  0  0  0  0  0  0  0  0  0  0  0
  137.6399   73.3886  222.6993 H   0  0  0  0  0  0  0  0  0  0  0  0
  139.5710   73.8190  221.7800 C   0  0  0  0  0  0  0  0  0  0  0  0
  139.4170   75.2220  221.6430 C   0  0  0  0  0  0  0  0  0  0  0  0
  138.0850   75.9410  222.3160 S   0  0  0  0  0  0  0  0  0  0  0  0
  140.4070   75.9750  221.0200 N   0  0  0  0  0  0  0  0  0  0  0  0
  140.2180   77.4370  220.7920 C   0  0  0  0  0  0  0  0  0  0  0  0
  140.3870   77.6436  219.7249 H   0  0  0  0  0  0  0  0  0  0  0  0
  139.1950   77.6763  221.1179 H   0  0  0  0  0  0  0  0  0  0  0  0
  141.1750   78.3470  221.6230 C   0  0  0  0  0  0  0  0  0  0  0  0
  142.1290   77.7996  221.6071 H   0  0  0  0  0  0  0  0  0  0  0  0
  141.4530   79.7370  220.9890 C   0  0  0  0  0  0  0  0  0  0  0  0
  142.1787   79.6081  220.1725 H   0  0  0  0  0  0  0  0  0  0  0  0
  140.4885   80.1283  220.6330 H   0  0  0  0  0  0  0  0  0  0  0  0
  142.0200   80.7690  221.9880 C   0  0  0  0  0  0  0  0  0  0  0  0
  142.7198   81.4300  221.4557 H   0  0  0  0  0  0  0  0  0  0  0  0
  141.1743   81.3350  222.4057 H   0  0  0  0  0  0  0  0  0  0  0  0
  142.7590   80.1020  223.1500 C   0  0  0  0  0  0  0  0  0  0  0  0
  143.5956   79.5106  222.7495 H   0  0  0  0  0  0  0  0  0  0  0  0
  143.1251   80.8899  223.8247 H   0  0  0  0  0  0  0  0  0  0  0  0
  141.8270   79.1730  223.9510 C   0  0  0  0  0  0  0  0  0  0  0  0
  142.4371   78.3840  224.4150 H   0  0  0  0  0  0  0  0  0  0  0  0
  141.3127   79.7966  224.6971 H   0  0  0  0  0  0  0  0  0  0  0  0
  140.7350   78.5030  223.0900 C   0  0  0  0  0  0  0  0  0  0  0  0
  140.5173   77.5073  223.5036 H   0  0  0  0  0  0  0  0  0  0  0  0
  139.8424   79.1455  223.1114 H   0  0  0  0  0  0  0  0  0  0  0  0
  144.4810   74.3720  219.5390 C   0  0  0  0  0  0  0  0  0  0  0  0
  144.8110   73.4380  218.5440 C   0  0  0  0  0  0  0  0  0  0  0  0
  144.4177   73.5649  217.5246 H   0  0  0  0  0  0  0  0  0  0  0  0
  145.6120   72.3790  218.8300 N   0  0  0  0  0  0  0  0  0  0  0  0
  146.1140   72.1780  220.0770 C   0  0  0  0  0  0  0  0  0  0  0  0
  146.7660   71.3143  220.2745 H   0  0  0  0  0  0  0  0  0  0  0  0
  145.8030   73.0660  221.1060 C   0  0  0  0  0  0  0  0  0  0  0  0
  146.2013   72.9035  222.1184 H   0  0  0  0  0  0  0  0  0  0  0  0
  144.9810   74.1640  220.8400 C   0  0  0  0  0  0  0  0  0  0  0  0
  144.7240   74.8665  221.6465 H   0  0  0  0  0  0  0  0  0  0  0  0
  1  2  1  0
  2  3  2  0
  3  4  1  0
  3  5  1  0
  5  6  2  0
  6  7  1  0
  7  8  2  0
  8  9  1  0
  8 10  1  0
 10 11  1  0
 10 12  2  0
 12 13  1  0
 13 14  1  0
 13 15  2  0
 15 16  1  0
 16 17  2  0
 16 18  1  0
 18 19  1  0
 19 20  1  0
 19 21  1  0
 19 22  1  0
 22 23  1  0
 22 24  1  0
 24 25  1  0
 24 26  1  0
 24 27  1  0
 27 28  1  0
 27 29  1  0
 27 30  1  0
 30 31  1  0
 30 32  1  0
 30 33  1  0
 33 34  1  0
 33 35  1  0
 33 36  1  0
 36 37  1  0
 36 38  1  0
  2 39  1  0
 39 40  2  0
 40 41  1  0
 40 42  1  0
 42 43  2  0
 43 44  1  0
 43 45  1  0
 45 46  1  0
 45 47  2  0
 47 48  1  0
 18  5  1  0
 36 22  1  0
 47 39  1  0
 15  7  1  0
M  END
>  <UniqueID>  (47) 
463

>  <SMILES>  (47) 
S=c1c2cnccc2nc(/C=C/c2cccnc2)n1CC1CCCCC1

>  <Energy>  (47) 
77.36028234774595

>  <Genealogy>  (47) 
S=c1c2cnccc2nc(/C=C/c2cccnc2)n1CC1CCCCC1 (cis-trans isomerization)
S=c1c2cnccc2nc(/C=C/c2cccnc2)n1CC1CCCCC1 (3D coordinates assigned)
S=c1c2cnccc2nc(/C=C/c2cccnc2)n1CC1CCCCC1 (nonaromatic ring conformer: 77.36028234774595 kcal/mol)

>  <smiles>  (47) 
S=c1c2cnccc2nc(/C=C/c2cccnc2)n1CC1CCCCC1

>  <score_type>  (47) 
oracle

>  <origin>  (47) 
autodockgpu

>  <m_score__min__energy>  (47) 
-7.1799999999999997

>  <m_primary>  (47) 
energy

>  <meeko>  (47) 
{"free_energy": -7.14, "intermolecular_energy": -8.63, "internal_energy": -1.33, "cluster_size": 7, "cluster_id": 2, "rank_in_cluster": 2}

>  <energy>  (47) 
-6.92

>  <cluster_rmsd>  (47) 
0.37

>  <rmsd>  (47) 
270.1

>  <cluster>  (47) 
2

$$$$
VFWNAPSESRSYPS-CMDGGOBGNA-N
     RDKit          3D

 48 51  0  0  0  0  0  0  0  0999 V2000
  143.6409   75.9130  218.1484 H   0  0  0  0  0  0  0  0  0  0  0  0
  143.5870   75.5190  219.1740 C   0  0  0  0  0  0  0  0  0  0  0  0
  142.7370   76.1030  220.0330 C   0  0  0  0  0  0  0  0  0  0  0  0
  142.8970   77.1560  220.3080 H   0  0  0  0  0  0  0  0  0  0  0  0
  141.5810   75.3680  220.6270 C   0  0  0  0  0  0  0  0  0  0  0  0
  141.7160   74.0250  220.7730 N   0  0  0  0  0  0  0  0  0  0  0  0
  140.7510   73.2480  221.3020 C   0  0  0  0  0  0  0  0  0  0  0  0
  140.9530   71.8710  221.4070 C   0  0  0  0  0  0  0  0  0  0  0  0
  141.8893   71.4184  221.0485 H   0  0  0  0  0  0  0  0  0  0  0  0
  139.9580   71.0750  221.9700 C   0  0  0  0  0  0  0  0  0  0  0  0
  140.1064   69.9886  222.0580 H   0  0  0  0  0  0  0  0  0  0  0  0
  138.8050   71.6410  222.4100 N   0  0  0  0  0  0  0  0  0  0  0  0
  138.5830   72.9790  222.3240 C   0  0  0  0  0  0  0  0  0  0  0  0
  137.6374   73.4015  222.6947 H   0  0  0  0  0  0  0  0  0  0  0  0
  139.5620   73.8320  221.7600 C   0  0  0  0  0  0  0  0  0  0  0  0
  139.4140   75.2370  221.6370 C   0  0  0  0  0  0  0  0  0  0  0  0
  138.0910   75.9570  222.3290 S   0  0  0  0  0  0  0  0  0  0  0  0
  140.4010   75.9910  221.0130 N   0  0  0  0  0  0  0  0  0  0  0  0
  140.2180   77.4560  220.8000 C   0  0  0  0  0  0  0  0  0  0  0  0
  140.3774   77.6712  219.7331 H   0  0  0  0  0  0  0  0  0  0  0  0
  139.1997   77.6980  221.1384 H   0  0  0  0  0  0  0  0  0  0  0  0
  141.1880   78.3530  221.6290 C   0  0  0  0  0  0  0  0  0  0  0  0
  142.1222   77.7725  221.6471 H   0  0  0  0  0  0  0  0  0  0  0  0
  141.5270   79.7170  220.9680 C   0  0  0  0  0  0  0  0  0  0  0  0
  142.2651   79.5433  220.1711 H   0  0  0  0  0  0  0  0  0  0  0  0
  140.5840   80.1315  220.5820 H   0  0  0  0  0  0  0  0  0  0  0  0
  142.1080   80.7550  221.9540 C   0  0  0  0  0  0  0  0  0  0  0  0
  142.8417   81.3780  221.4215 H   0  0  0  0  0  0  0  0  0  0  0  0
  141.2740   81.3606  222.3384 H   0  0  0  0  0  0  0  0  0  0  0  0
  142.7980   80.0920  223.1480 C   0  0  0  0  0  0  0  0  0  0  0  0
  143.6216   79.4623  222.7805 H   0  0  0  0  0  0  0  0  0  0  0  0
  143.1765   80.8837  223.8113 H   0  0  0  0  0  0  0  0  0  0  0  0
  141.8180   79.2160  223.9510 C   0  0  0  0  0  0  0  0  0  0  0  0
  142.3904   78.4187  224.4476 H   0  0  0  0  0  0  0  0  0  0  0  0
  141.3099   79.8751  224.6704 H   0  0  0  0  0  0  0  0  0  0  0  0
  140.7220   78.5620  223.0820 C   0  0  0  0  0  0  0  0  0  0  0  0
  140.4605   77.5853  223.5153 H   0  0  0  0  0  0  0  0  0  0  0  0
  139.8524   79.2355  223.0670 H   0  0  0  0  0  0  0  0  0  0  0  0
  144.4580   74.3720  219.5300 C   0  0  0  0  0  0  0  0  0  0  0  0
  144.8020   73.4440  218.5330 C   0  0  0  0  0  0  0  0  0  0  0  0
  144.4315   73.5830  217.5066 H   0  0  0  0  0  0  0  0  0  0  0  0
  145.5890   72.3760  218.8270 N   0  0  0  0  0  0  0  0  0  0  0  0
  146.0630   72.1600  220.0820 C   0  0  0  0  0  0  0  0  0  0  0  0
  146.7042   71.2896  220.2853 H   0  0  0  0  0  0  0  0  0  0  0  0
  145.7370   73.0410  221.1120 C   0  0  0  0  0  0  0  0  0  0  0  0
  146.1126   72.8668  222.1311 H   0  0  0  0  0  0  0  0  0  0  0  0
  144.9290   74.1470  220.8380 C   0  0  0  0  0  0  0  0  0  0  0  0
  144.6600   74.8437  221.6456 H   0  0  0  0  0  0  0  0  0  0  0  0
  1  2  1  0
  2  3  2  0
  3  4  1  0
  3  5  1  0
  5  6  2  0
  6  7  1  0
  7  8  2  0
  8  9  1  0
  8 10  1  0
 10 11  1  0
 10 12  2  0
 12 13  1  0
 13 14  1  0
 13 15  2  0
 15 16  1  0
 16 17  2  0
 16 18  1  0
 18 19  1  0
 19 20  1  0
 19 21  1  0
 19 22  1  0
 22 23  1  0
 22 24  1  0
 24 25  1  0
 24 26  1  0
 24 27  1  0
 27 28  1  0
 27 29  1  0
 27 30  1  0
 30 31  1  0
 30 32  1  0
 30 33  1  0
 33 34  1  0
 33 35  1  0
 33 36  1  0
 36 37  1  0
 36 38  1  0
  2 39  1  0
 39 40  2  0
 40 41  1  0
 40 42  1  0
 42 43  2  0
 43 44  1  0
 43 45  1  0
 45 46  1  0
 45 47  2  0
 47 48  1  0
 18  5  1  0
 36 22  1  0
 47 39  1  0
 15  7  1  0
M  END
>  <UniqueID>  (48) 
463

>  <SMILES>  (48) 
S=c1c2cnccc2nc(/C=C/c2cccnc2)n1CC1CCCCC1

>  <Energy>  (48) 
77.36028234774595

>  <Genealogy>  (48) 
S=c1c2cnccc2nc(/C=C/c2cccnc2)n1CC1CCCCC1 (cis-trans isomerization)
S=c1c2cnccc2nc(/C=C/c2cccnc2)n1CC1CCCCC1 (3D coordinates assigned)
S=c1c2cnccc2nc(/C=C/c2cccnc2)n1CC1CCCCC1 (nonaromatic ring conformer: 77.36028234774595 kcal/mol)

>  <smiles>  (48) 
S=c1c2cnccc2nc(/C=C/c2cccnc2)n1CC1CCCCC1

>  <score_type>  (48) 
oracle

>  <origin>  (48) 
autodockgpu

>  <m_score__min__energy>  (48) 
-7.1799999999999997

>  <m_primary>  (48) 
energy

>  <meeko>  (48) 
{"free_energy": -7.14, "intermolecular_energy": -8.63, "internal_energy": -1.32, "cluster_size": 7, "cluster_id": 2, "rank_in_cluster": 1}

>  <energy>  (48) 
-6.74

>  <cluster_rmsd>  (48) 
0.64

>  <rmsd>  (48) 
270.09

>  <cluster>  (48) 
2

$$$$
VFWNAPSESRSYPS-CMDGGOBGNA-N
     RDKit          3D

 48 51  0  0  0  0  0  0  0  0999 V2000
  141.2346   76.0331  223.0805 H   0  0  0  0  0  0  0  0  0  0  0  0
  141.0760   76.7620  222.2720 C   0  0  0  0  0  0  0  0  0  0  0  0
  140.8780   76.2960  221.0290 C   0  0  0  0  0  0  0  0  0  0  0  0
  139.8704   76.3557  220.5918 H   0  0  0  0  0  0  0  0  0  0  0  0
  141.9830   75.6990  220.2210 C   0  0  0  0  0  0  0  0  0  0  0  0
  142.7910   74.8070  220.8490 N   0  0  0  0  0  0  0  0  0  0  0  0
  143.8180   74.1930  220.2300 C   0  0  0  0  0  0  0  0  0  0  0  0
  144.6180   73.2980  220.9440 C   0  0  0  0  0  0  0  0  0  0  0  0
  144.4201   73.1036  222.0084 H   0  0  0  0  0  0  0  0  0  0  0  0
  145.6690   72.6540  220.2950 C   0  0  0  0  0  0  0  0  0  0  0  0
  146.3065   71.9476  220.8469 H   0  0  0  0  0  0  0  0  0  0  0  0
  145.9060   72.8990  218.9800 N   0  0  0  0  0  0  0  0  0  0  0  0
  145.1410   73.7620  218.2610 C   0  0  0  0  0  0  0  0  0  0  0  0
  145.3619   73.9322  217.1969 H   0  0  0  0  0  0  0  0  0  0  0  0
  144.0620   74.4430  218.8730 C   0  0  0  0  0  0  0  0  0  0  0  0
  143.2130   75.3540  218.1960 C   0  0  0  0  0  0  0  0  0  0  0  0
  143.3830   75.5250  216.5560 S   0  0  0  0  0  0  0  0  0  0  0  0
  142.2130   76.0260  218.8910 N   0  0  0  0  0  0  0  0  0  0  0  0
  141.3710   77.0510  218.2090 C   0  0  0  0  0  0  0  0  0  0  0  0
  141.6236   77.0469  217.1384 H   0  0  0  0  0  0  0  0  0  0  0  0
  140.3236   76.7769  218.4034 H   0  0  0  0  0  0  0  0  0  0  0  0
  141.5590   78.5020  218.7490 C   0  0  0  0  0  0  0  0  0  0  0  0
  141.9991   78.3495  219.7455 H   0  0  0  0  0  0  0  0  0  0  0  0
  142.5710   79.3620  217.9450 C   0  0  0  0  0  0  0  0  0  0  0  0
  143.5890   79.0552  218.2269 H   0  0  0  0  0  0  0  0  0  0  0  0
  142.3628   79.1918  216.8784 H   0  0  0  0  0  0  0  0  0  0  0  0
  142.4310   80.8790  218.1970 C   0  0  0  0  0  0  0  0  0  0  0  0
  143.4279   81.3408  218.1420 H   0  0  0  0  0  0  0  0  0  0  0  0
  141.7575   81.2882  217.4296 H   0  0  0  0  0  0  0  0  0  0  0  0
  141.8220   81.1830  219.5670 C   0  0  0  0  0  0  0  0  0  0  0  0
  142.4705   80.7601  220.3484 H   0  0  0  0  0  0  0  0  0  0  0  0
  141.7409   82.2747  219.6746 H   0  0  0  0  0  0  0  0  0  0  0  0
  140.4120   80.5770  219.7040 C   0  0  0  0  0  0  0  0  0  0  0  0
  140.2202   80.3788  220.7689 H   0  0  0  0  0  0  0  0  0  0  0  0
  139.7045   81.3054  219.2810 H   0  0  0  0  0  0  0  0  0  0  0  0
  140.2290   79.2590  218.9210 C   0  0  0  0  0  0  0  0  0  0  0  0
  139.5225   78.6165  219.4670 H   0  0  0  0  0  0  0  0  0  0  0  0
  139.8474   79.5082  217.9199 H   0  0  0  0  0  0  0  0  0  0  0  0
  141.0930   78.2050  222.6170 C   0  0  0  0  0  0  0  0  0  0  0  0
  139.9030   78.8160  223.0450 C   0  0  0  0  0  0  0  0  0  0  0  0
  138.9824   78.2196  223.1274 H   0  0  0  0  0  0  0  0  0  0  0  0
  139.8800   80.1380  223.3580 N   0  0  0  0  0  0  0  0  0  0  0  0
  140.9900   80.9150  223.2630 C   0  0  0  0  0  0  0  0  0  0  0  0
  140.9396   81.9809  223.5302 H   0  0  0  0  0  0  0  0  0  0  0  0
  142.1930   80.3620  222.8270 C   0  0  0  0  0  0  0  0  0  0  0  0
  143.0931   80.9887  222.7428 H   0  0  0  0  0  0  0  0  0  0  0  0
  142.2460   79.0060  222.4980 C   0  0  0  0  0  0  0  0  0  0  0  0
  143.1890   78.5626  222.1455 H   0  0  0  0  0  0  0  0  0  0  0  0
  1  2  1  0
  2  3  2  0
  3  4  1  0
  3  5  1  0
  5  6  2  0
  6  7  1  0
  7  8  2  0
  8  9  1  0
  8 10  1  0
 10 11  1  0
 10 12  2  0
 12 13  1  0
 13 14  1  0
 13 15  2  0
 15 16  1  0
 16 17  2  0
 16 18  1  0
 18 19  1  0
 19 20  1  0
 19 21  1  0
 19 22  1  0
 22 23  1  0
 22 24  1  0
 24 25  1  0
 24 26  1  0
 24 27  1  0
 27 28  1  0
 27 29  1  0
 27 30  1  0
 30 31  1  0
 30 32  1  0
 30 33  1  0
 33 34  1  0
 33 35  1  0
 33 36  1  0
 36 37  1  0
 36 38  1  0
  2 39  1  0
 39 40  2  0
 40 41  1  0
 40 42  1  0
 42 43  2  0
 43 44  1  0
 43 45  1  0
 45 46  1  0
 45 47  2  0
 47 48  1  0
 18  5  1  0
 36 22  1  0
 47 39  1  0
 15  7  1  0
M  END
>  <UniqueID>  (49) 
463

>  <SMILES>  (49) 
S=c1c2cnccc2nc(/C=C/c2cccnc2)n1CC1CCCCC1

>  <Energy>  (49) 
77.36028234774595

>  <Genealogy>  (49) 
S=c1c2cnccc2nc(/C=C/c2cccnc2)n1CC1CCCCC1 (cis-trans isomerization)
S=c1c2cnccc2nc(/C=C/c2cccnc2)n1CC1CCCCC1 (3D coordinates assigned)
S=c1c2cnccc2nc(/C=C/c2cccnc2)n1CC1CCCCC1 (nonaromatic ring conformer: 77.36028234774595 kcal/mol)

>  <smiles>  (49) 
S=c1c2cnccc2nc(/C=C/c2cccnc2)n1CC1CCCCC1

>  <score_type>  (49) 
oracle

>  <origin>  (49) 
autodockgpu

>  <m_score__min__energy>  (49) 
-7.1799999999999997

>  <m_primary>  (49) 
energy

>  <meeko>  (49) 
{"free_energy": -6.43, "intermolecular_energy": -7.92, "internal_energy": -1.85, "cluster_size": 9, "cluster_id": 4, "rank_in_cluster": 5}

>  <energy>  (49) 
-6.81

>  <cluster_rmsd>  (49) 
0.0

>  <rmsd>  (49) 
269.91

>  <cluster>  (49) 
3

$$$$
VFWNAPSESRSYPS-CMDGGOBGNA-N
     RDKit          3D

 48 51  0  0  0  0  0  0  0  0999 V2000
  141.2202   76.1249  223.0583 H   0  0  0  0  0  0  0  0  0  0  0  0
  141.0750   76.8500  222.2440 C   0  0  0  0  0  0  0  0  0  0  0  0
  140.8750   76.3780  221.0030 C   0  0  0  0  0  0  0  0  0  0  0  0
  139.8697   76.4482  220.5620 H   0  0  0  0  0  0  0  0  0  0  0  0
  141.9740   75.7610  220.2030 C   0  0  0  0  0  0  0  0  0  0  0  0
  142.7620   74.8560  220.8380 N   0  0  0  0  0  0  0  0  0  0  0  0
  143.7820   74.2230  220.2270 C   0  0  0  0  0  0  0  0  0  0  0  0
  144.5620   73.3150  220.9480 C   0  0  0  0  0  0  0  0  0  0  0  0
  144.3542   73.1261  222.0116 H   0  0  0  0  0  0  0  0  0  0  0  0
  145.6060   72.6510  220.3060 C   0  0  0  0  0  0  0  0  0  0  0  0
  146.2275   71.9341  220.8626 H   0  0  0  0  0  0  0  0  0  0  0  0
  145.8550   72.8900  218.9930 N   0  0  0  0  0  0  0  0  0  0  0  0
  145.1100   73.7650  218.2670 C   0  0  0  0  0  0  0  0  0  0  0  0
  145.3410   73.9297  217.2042 H   0  0  0  0  0  0  0  0  0  0  0  0
  144.0390   74.4650  218.8710 C   0  0  0  0  0  0  0  0  0  0  0  0
  143.2100   75.3900  218.1860 C   0  0  0  0  0  0  0  0  0  0  0  0
  143.3940   75.5540  216.5480 S   0  0  0  0  0  0  0  0  0  0  0  0
  142.2190   76.0810  218.8740 N   0  0  0  0  0  0  0  0  0  0  0  0
  141.3980   77.1190  218.1850 C   0  0  0  0  0  0  0  0  0  0  0  0
  141.6783   77.1295  217.1214 H   0  0  0  0  0  0  0  0  0  0  0  0
  140.3449   76.8459  218.3478 H   0  0  0  0  0  0  0  0  0  0  0  0
  141.5770   78.5610  218.7510 C   0  0  0  0  0  0  0  0  0  0  0  0
  142.0408   78.3955  219.7346 H   0  0  0  0  0  0  0  0  0  0  0  0
  142.5590   79.4520  217.9430 C   0  0  0  0  0  0  0  0  0  0  0  0
  143.5873   79.1550  218.1969 H   0  0  0  0  0  0  0  0  0  0  0  0
  142.3306   79.2999  216.8778 H   0  0  0  0  0  0  0  0  0  0  0  0
  142.4020   80.9620  218.2290 C   0  0  0  0  0  0  0  0  0  0  0  0
  143.3903   81.4402  218.1618 H   0  0  0  0  0  0  0  0  0  0  0  0
  141.7060   81.3767  217.4849 H   0  0  0  0  0  0  0  0  0  0  0  0
  141.8190   81.2280  219.6180 C   0  0  0  0  0  0  0  0  0  0  0  0
  142.4904   80.7985  220.3761 H   0  0  0  0  0  0  0  0  0  0  0  0
  141.7247   82.3158  219.7510 H   0  0  0  0  0  0  0  0  0  0  0  0
  140.4210   80.5980  219.7720 C   0  0  0  0  0  0  0  0  0  0  0  0
  140.2551   80.3751  220.8363 H   0  0  0  0  0  0  0  0  0  0  0  0
  139.6942   81.3242  219.3791 H   0  0  0  0  0  0  0  0  0  0  0  0
  140.2400   79.2940  218.9660 C   0  0  0  0  0  0  0  0  0  0  0  0
  139.5545   78.6301  219.5131 H   0  0  0  0  0  0  0  0  0  0  0  0
  139.8333   79.5575  217.9785 H   0  0  0  0  0  0  0  0  0  0  0  0
  141.1110   78.2950  222.5780 C   0  0  0  0  0  0  0  0  0  0  0  0
  142.3020   79.0110  222.3720 C   0  0  0  0  0  0  0  0  0  0  0  0
  143.1833   78.4972  221.9606 H   0  0  0  0  0  0  0  0  0  0  0  0
  142.3740   80.3340  222.6770 N   0  0  0  0  0  0  0  0  0  0  0  0
  141.3140   81.0060  223.1960 C   0  0  0  0  0  0  0  0  0  0  0  0
  141.4022   82.0780  223.4264 H   0  0  0  0  0  0  0  0  0  0  0  0
  140.1140   80.3380  223.4370 C   0  0  0  0  0  0  0  0  0  0  0  0
  139.2550   80.8771  223.8630 H   0  0  0  0  0  0  0  0  0  0  0  0
  140.0120   78.9790  223.1330 C   0  0  0  0  0  0  0  0  0  0  0  0
  139.0719   78.4418  223.3272 H   0  0  0  0  0  0  0  0  0  0  0  0
  1  2  1  0
  2  3  2  0
  3  4  1  0
  3  5  1  0
  5  6  2  0
  6  7  1  0
  7  8  2  0
  8  9  1  0
  8 10  1  0
 10 11  1  0
 10 12  2  0
 12 13  1  0
 13 14  1  0
 13 15  2  0
 15 16  1  0
 16 17  2  0
 16 18  1  0
 18 19  1  0
 19 20  1  0
 19 21  1  0
 19 22  1  0
 22 23  1  0
 22 24  1  0
 24 25  1  0
 24 26  1  0
 24 27  1  0
 27 28  1  0
 27 29  1  0
 27 30  1  0
 30 31  1  0
 30 32  1  0
 30 33  1  0
 33 34  1  0
 33 35  1  0
 33 36  1  0
 36 37  1  0
 36 38  1  0
  2 39  1  0
 39 40  2  0
 40 41  1  0
 40 42  1  0
 42 43  2  0
 43 44  1  0
 43 45  1  0
 45 46  1  0
 45 47  2  0
 47 48  1  0
 18  5  1  0
 36 22  1  0
 47 39  1  0
 15  7  1  0
M  END
>  <UniqueID>  (50) 
463

>  <SMILES>  (50) 
S=c1c2cnccc2nc(/C=C/c2cccnc2)n1CC1CCCCC1

>  <Energy>  (50) 
77.36028234774595

>  <Genealogy>  (50) 
S=c1c2cnccc2nc(/C=C/c2cccnc2)n1CC1CCCCC1 (cis-trans isomerization)
S=c1c2cnccc2nc(/C=C/c2cccnc2)n1CC1CCCCC1 (3D coordinates assigned)
S=c1c2cnccc2nc(/C=C/c2cccnc2)n1CC1CCCCC1 (nonaromatic ring conformer: 77.36028234774595 kcal/mol)

>  <smiles>  (50) 
S=c1c2cnccc2nc(/C=C/c2cccnc2)n1CC1CCCCC1

>  <score_type>  (50) 
oracle

>  <origin>  (50) 
autodockgpu

>  <m_score__min__energy>  (50) 
-7.1799999999999997

>  <m_primary>  (50) 
energy

>  <meeko>  (50) 
{"free_energy": -6.36, "intermolecular_energy": -7.86, "internal_energy": -1.86, "cluster_size": 9, "cluster_id": 4, "rank_in_cluster": 7}

>  <energy>  (50) 
-6.47

>  <cluster_rmsd>  (50) 
0.0

>  <rmsd>  (50) 
270.14

>  <cluster>  (50) 
4

$$$$
VFWNAPSESRSYPS-CMDGGOBGNA-N
     RDKit          3D

 48 51  0  0  0  0  0  0  0  0999 V2000
  141.1650   76.0572  223.0215 H   0  0  0  0  0  0  0  0  0  0  0  0
  141.0760   76.8190  222.2330 C   0  0  0  0  0  0  0  0  0  0  0  0
  140.9100   76.4040  220.9660 C   0  0  0  0  0  0  0  0  0  0  0  0
  139.9270   76.5292  220.4885 H   0  0  0  0  0  0  0  0  0  0  0  0
  142.0190   75.7780  220.1860 C   0  0  0  0  0  0  0  0  0  0  0  0
  142.7940   74.8730  220.8380 N   0  0  0  0  0  0  0  0  0  0  0  0
  143.8200   74.2320  220.2460 C   0  0  0  0  0  0  0  0  0  0  0  0
  144.5850   73.3260  220.9830 C   0  0  0  0  0  0  0  0  0  0  0  0
  144.3605   73.1442  222.0444 H   0  0  0  0  0  0  0  0  0  0  0  0
  145.6360   72.6540  220.3610 C   0  0  0  0  0  0  0  0  0  0  0  0
  146.2459   71.9380  220.9314 H   0  0  0  0  0  0  0  0  0  0  0  0
  145.9060   72.8840  219.0510 N   0  0  0  0  0  0  0  0  0  0  0  0
  145.1760   73.7580  218.3090 C   0  0  0  0  0  0  0  0  0  0  0  0
  145.4241   73.9161  217.2491 H   0  0  0  0  0  0  0  0  0  0  0  0
  144.0980   74.4660  218.8930 C   0  0  0  0  0  0  0  0  0  0  0  0
  143.2840   75.3900  218.1910 C   0  0  0  0  0  0  0  0  0  0  0  0
  143.4930   75.5450  216.5540 S   0  0  0  0  0  0  0  0  0  0  0  0
  142.2850   76.0890  218.8600 N   0  0  0  0  0  0  0  0  0  0  0  0
  141.4790   77.1260  218.1520 C   0  0  0  0  0  0  0  0  0  0  0  0
  141.7917   77.1445  217.0975 H   0  0  0  0  0  0  0  0  0  0  0  0
  140.4231   76.8457  218.2805 H   0  0  0  0  0  0  0  0  0  0  0  0
  141.6320   78.5660  218.7320 C   0  0  0  0  0  0  0  0  0  0  0  0
  142.1149   78.4005  219.7064 H   0  0  0  0  0  0  0  0  0  0  0  0
  142.5800   79.4900  217.9200 C   0  0  0  0  0  0  0  0  0  0  0  0
  143.6189   79.2152  218.1551 H   0  0  0  0  0  0  0  0  0  0  0  0
  142.3392   79.3447  216.8566 H   0  0  0  0  0  0  0  0  0  0  0  0
  142.3910   80.9920  218.2260 C   0  0  0  0  0  0  0  0  0  0  0  0
  143.3664   81.4948  218.1496 H   0  0  0  0  0  0  0  0  0  0  0  0
  141.6739   81.3980  217.4974 H   0  0  0  0  0  0  0  0  0  0  0  0
  141.8230   81.2280  219.6270 C   0  0  0  0  0  0  0  0  0  0  0  0
  142.5160   80.8061  220.3698 H   0  0  0  0  0  0  0  0  0  0  0  0
  141.7047   82.3116  219.7744 H   0  0  0  0  0  0  0  0  0  0  0  0
  140.4440   80.5630  219.7940 C   0  0  0  0  0  0  0  0  0  0  0  0
  140.2996   80.3243  220.8580 H   0  0  0  0  0  0  0  0  0  0  0  0
  139.6947   81.2760  219.4197 H   0  0  0  0  0  0  0  0  0  0  0  0
  140.2810   79.2640  218.9760 C   0  0  0  0  0  0  0  0  0  0  0  0
  139.6204   78.5778  219.5261 H   0  0  0  0  0  0  0  0  0  0  0  0
  139.8522   79.5283  217.9981 H   0  0  0  0  0  0  0  0  0  0  0  0
  141.1460   78.2470  222.6280 C   0  0  0  0  0  0  0  0  0  0  0  0
  139.9890   78.8740  223.1180 C   0  0  0  0  0  0  0  0  0  0  0  0
  139.0550   78.3003  223.2104 H   0  0  0  0  0  0  0  0  0  0  0  0
  140.0140   80.1840  223.4790 N   0  0  0  0  0  0  0  0  0  0  0  0
  141.1430   80.9330  223.3740 C   0  0  0  0  0  0  0  0  0  0  0  0
  141.1324   81.9894  223.6804 H   0  0  0  0  0  0  0  0  0  0  0  0
  142.3150   80.3630  222.8780 C   0  0  0  0  0  0  0  0  0  0  0  0
  143.2299   80.9668  222.7861 H   0  0  0  0  0  0  0  0  0  0  0  0
  142.3170   79.0190  222.4990 C   0  0  0  0  0  0  0  0  0  0  0  0
  143.2344   78.5625  222.0991 H   0  0  0  0  0  0  0  0  0  0  0  0
  1  2  1  0
  2  3  2  0
  3  4  1  0
  3  5  1  0
  5  6  2  0
  6  7  1  0
  7  8  2  0
  8  9  1  0
  8 10  1  0
 10 11  1  0
 10 12  2  0
 12 13  1  0
 13 14  1  0
 13 15  2  0
 15 16  1  0
 16 17  2  0
 16 18  1  0
 18 19  1  0
 19 20  1  0
 19 21  1  0
 19 22  1  0
 22 23  1  0
 22 24  1  0
 24 25  1  0
 24 26  1  0
 24 27  1  0
 27 28  1  0
 27 29  1  0
 27 30  1  0
 30 31  1  0
 30 32  1  0
 30 33  1  0
 33 34  1  0
 33 35  1  0
 33 36  1  0
 36 37  1  0
 36 38  1  0
  2 39  1  0
 39 40  2  0
 40 41  1  0
 40 42  1  0
 42 43  2  0
 43 44  1  0
 43 45  1  0
 45 46  1  0
 45 47  2  0
 47 48  1  0
 18  5  1  0
 36 22  1  0
 47 39  1  0
 15  7  1  0
M  END
>  <UniqueID>  (51) 
463

>  <SMILES>  (51) 
S=c1c2cnccc2nc(/C=C/c2cccnc2)n1CC1CCCCC1

>  <Energy>  (51) 
77.36028234774595

>  <Genealogy>  (51) 
S=c1c2cnccc2nc(/C=C/c2cccnc2)n1CC1CCCCC1 (cis-trans isomerization)
S=c1c2cnccc2nc(/C=C/c2cccnc2)n1CC1CCCCC1 (3D coordinates assigned)
S=c1c2cnccc2nc(/C=C/c2cccnc2)n1CC1CCCCC1 (nonaromatic ring conformer: 77.36028234774595 kcal/mol)

>  <smiles>  (51) 
S=c1c2cnccc2nc(/C=C/c2cccnc2)n1CC1CCCCC1

>  <score_type>  (51) 
oracle

>  <origin>  (51) 
autodockgpu

>  <m_score__min__energy>  (51) 
-7.1799999999999997

>  <m_primary>  (51) 
energy

>  <meeko>  (51) 
{"free_energy": -6.47, "intermolecular_energy": -7.96, "internal_energy": -1.83, "cluster_size": 9, "cluster_id": 4, "rank_in_cluster": 1}

>  <energy>  (51) 
-6.45

>  <cluster_rmsd>  (51) 
0.09

>  <rmsd>  (51) 
270.12

>  <cluster>  (51) 
4

$$$$
VFWNAPSESRSYPS-CMDGGOBGNA-N
     RDKit          3D

 48 51  0  0  0  0  0  0  0  0999 V2000
  141.2806   75.9453  223.1315 H   0  0  0  0  0  0  0  0  0  0  0  0
  141.0460   76.6700  222.3380 C   0  0  0  0  0  0  0  0  0  0  0  0
  140.7750   76.1990  221.1100 C   0  0  0  0  0  0  0  0  0  0  0  0
  139.7405   76.2436  220.7388 H   0  0  0  0  0  0  0  0  0  0  0  0
  141.8330   75.6170  220.2330 C   0  0  0  0  0  0  0  0  0  0  0  0
  142.8020   74.8860  220.8420 N   0  0  0  0  0  0  0  0  0  0  0  0
  143.8090   74.3010  220.1640 C   0  0  0  0  0  0  0  0  0  0  0  0
  144.7800   73.5770  220.8590 C   0  0  0  0  0  0  0  0  0  0  0  0
  144.7323   73.4930  221.9547 H   0  0  0  0  0  0  0  0  0  0  0  0
  145.8100   72.9620  220.1500 C   0  0  0  0  0  0  0  0  0  0  0  0
  146.5816   72.3900  220.6860 H   0  0  0  0  0  0  0  0  0  0  0  0
  145.8610   73.0690  218.7970 N   0  0  0  0  0  0  0  0  0  0  0  0
  144.9270   73.7640  218.0960 C   0  0  0  0  0  0  0  0  0  0  0  0
  145.0001   73.8256  217.0002 H   0  0  0  0  0  0  0  0  0  0  0  0
  143.8610   74.4090  218.7670 C   0  0  0  0  0  0  0  0  0  0  0  0
  142.8430   75.1480  218.1130 C   0  0  0  0  0  0  0  0  0  0  0  0
  142.7980   75.1380  216.4570 S   0  0  0  0  0  0  0  0  0  0  0  0
  141.8670   75.8020  218.8570 N   0  0  0  0  0  0  0  0  0  0  0  0
  140.8430   76.6540  218.1860 C   0  0  0  0  0  0  0  0  0  0  0  0
  140.7917   76.3608  217.1270 H   0  0  0  0  0  0  0  0  0  0  0  0
  139.8969   76.4895  218.7225 H   0  0  0  0  0  0  0  0  0  0  0  0
  141.1340   78.1850  218.2550 C   0  0  0  0  0  0  0  0  0  0  0  0
  140.6917   78.5727  217.3254 H   0  0  0  0  0  0  0  0  0  0  0  0
  140.4260   78.9220  219.4240 C   0  0  0  0  0  0  0  0  0  0  0  0
  139.3698   79.0685  219.1538 H   0  0  0  0  0  0  0  0  0  0  0  0
  140.5458   78.2952  220.3200 H   0  0  0  0  0  0  0  0  0  0  0  0
  141.0420   80.3000  219.7500 C   0  0  0  0  0  0  0  0  0  0  0  0
  140.2401   80.9785  220.0766 H   0  0  0  0  0  0  0  0  0  0  0  0
  141.7915   80.1566  220.5422 H   0  0  0  0  0  0  0  0  0  0  0  0
  141.7480   80.9170  218.5400 C   0  0  0  0  0  0  0  0  0  0  0  0
  141.0177   81.0467  217.7277 H   0  0  0  0  0  0  0  0  0  0  0  0
  142.1713   81.8857  218.8441 H   0  0  0  0  0  0  0  0  0  0  0  0
  142.8980   80.0220  218.0410 C   0  0  0  0  0  0  0  0  0  0  0  0
  143.0425   80.2075  216.9664 H   0  0  0  0  0  0  0  0  0  0  0  0
  143.7889   80.2801  218.6323 H   0  0  0  0  0  0  0  0  0  0  0  0
  142.6380   78.5140  218.2460 C   0  0  0  0  0  0  0  0  0  0  0  0
  143.1188   77.9562  217.4289 H   0  0  0  0  0  0  0  0  0  0  0  0
  143.0549   78.2266  219.2225 H   0  0  0  0  0  0  0  0  0  0  0  0
  141.0470   78.1120  222.6850 C   0  0  0  0  0  0  0  0  0  0  0  0
  139.8280   78.7390  222.9920 C   0  0  0  0  0  0  0  0  0  0  0  0
  138.8959   78.1551  222.9797 H   0  0  0  0  0  0  0  0  0  0  0  0
  139.7910   80.0610  223.3040 N   0  0  0  0  0  0  0  0  0  0  0  0
  140.9160   80.8230  223.3210 C   0  0  0  0  0  0  0  0  0  0  0  0
  140.8537   81.8894  223.5835 H   0  0  0  0  0  0  0  0  0  0  0  0
  142.1490   80.2540  223.0060 C   0  0  0  0  0  0  0  0  0  0  0  0
  143.0612   80.8688  223.0127 H   0  0  0  0  0  0  0  0  0  0  0  0
  142.2170   78.8980  222.6820 C   0  0  0  0  0  0  0  0  0  0  0  0
  143.1844   78.4424  222.4241 H   0  0  0  0  0  0  0  0  0  0  0  0
  1  2  1  0
  2  3  2  0
  3  4  1  0
  3  5  1  0
  5  6  2  0
  6  7  1  0
  7  8  2  0
  8  9  1  0
  8 10  1  0
 10 11  1  0
 10 12  2  0
 12 13  1  0
 13 14  1  0
 13 15  2  0
 15 16  1  0
 16 17  2  0
 16 18  1  0
 18 19  1  0
 19 20  1  0
 19 21  1  0
 19 22  1  0
 22 23  1  0
 22 24  1  0
 24 25  1  0
 24 26  1  0
 24 27  1  0
 27 28  1  0
 27 29  1  0
 27 30  1  0
 30 31  1  0
 30 32  1  0
 30 33  1  0
 33 34  1  0
 33 35  1  0
 33 36  1  0
 36 37  1  0
 36 38  1  0
  2 39  1  0
 39 40  2  0
 40 41  1  0
 40 42  1  0
 42 43  2  0
 43 44  1  0
 43 45  1  0
 45 46  1  0
 45 47  2  0
 47 48  1  0
 18  5  1  0
 36 22  1  0
 47 39  1  0
 15  7  1  0
M  END
>  <UniqueID>  (52) 
463

>  <SMILES>  (52) 
S=c1c2cnccc2nc(/C=C/c2cccnc2)n1CC1CCCCC1

>  <Energy>  (52) 
77.36028234774595

>  <Genealogy>  (52) 
S=c1c2cnccc2nc(/C=C/c2cccnc2)n1CC1CCCCC1 (cis-trans isomerization)
S=c1c2cnccc2nc(/C=C/c2cccnc2)n1CC1CCCCC1 (3D coordinates assigned)
S=c1c2cnccc2nc(/C=C/c2cccnc2)n1CC1CCCCC1 (nonaromatic ring conformer: 77.36028234774595 kcal/mol)

>  <smiles>  (52) 
S=c1c2cnccc2nc(/C=C/c2cccnc2)n1CC1CCCCC1

>  <score_type>  (52) 
oracle

>  <origin>  (52) 
autodockgpu

>  <m_score__min__energy>  (52) 
-7.1799999999999997

>  <m_primary>  (52) 
energy

>  <meeko>  (52) 
{"free_energy": -6.21, "intermolecular_energy": -7.71, "internal_energy": -1.89, "cluster_size": 9, "cluster_id": 4, "rank_in_cluster": 8}

>  <energy>  (52) 
-6.45

>  <cluster_rmsd>  (52) 
0.06

>  <rmsd>  (52) 
270.13

>  <cluster>  (52) 
4

$$$$
VFWNAPSESRSYPS-CMDGGOBGNA-N
     RDKit          3D

 48 51  0  0  0  0  0  0  0  0999 V2000
  141.3038   76.0197  223.1026 H   0  0  0  0  0  0  0  0  0  0  0  0
  141.0690   76.7100  222.2790 C   0  0  0  0  0  0  0  0  0  0  0  0
  140.8050   76.1880  221.0710 C   0  0  0  0  0  0  0  0  0  0  0  0
  139.7683   76.1942  220.7033 H   0  0  0  0  0  0  0  0  0  0  0  0
  141.8740   75.5990  220.2100 C   0  0  0  0  0  0  0  0  0  0  0  0
  142.8530   74.8990  220.8400 N   0  0  0  0  0  0  0  0  0  0  0  0
  143.8690   74.3130  220.1790 C   0  0  0  0  0  0  0  0  0  0  0  0
  144.8500   73.6220  220.8930 C   0  0  0  0  0  0  0  0  0  0  0  0
  144.8018   73.5658  221.9905 H   0  0  0  0  0  0  0  0  0  0  0  0
  145.8910   73.0040  220.2020 C   0  0  0  0  0  0  0  0  0  0  0  0
  146.6699   72.4575  220.7540 H   0  0  0  0  0  0  0  0  0  0  0  0
  145.9430   73.0770  218.8480 N   0  0  0  0  0  0  0  0  0  0  0  0
  145.0000   73.7400  218.1270 C   0  0  0  0  0  0  0  0  0  0  0  0
  145.0747   73.7752  217.0301 H   0  0  0  0  0  0  0  0  0  0  0  0
  143.9230   74.3850  218.7800 C   0  0  0  0  0  0  0  0  0  0  0  0
  142.8960   75.0920  218.1050 C   0  0  0  0  0  0  0  0  0  0  0  0
  142.8540   75.0390  216.4500 S   0  0  0  0  0  0  0  0  0  0  0  0
  141.9080   75.7500  218.8310 N   0  0  0  0  0  0  0  0  0  0  0  0
  140.8730   76.5690  218.1360 C   0  0  0  0  0  0  0  0  0  0  0  0
  140.8457   76.2645  217.0794 H   0  0  0  0  0  0  0  0  0  0  0  0
  139.9233   76.3853  218.6598 H   0  0  0  0  0  0  0  0  0  0  0  0
  141.1230   78.1070  218.1940 C   0  0  0  0  0  0  0  0  0  0  0  0
  140.8300   78.4528  217.1917 H   0  0  0  0  0  0  0  0  0  0  0  0
  140.2230   78.8680  219.2050 C   0  0  0  0  0  0  0  0  0  0  0  0
  139.2223   78.9819  218.7627 H   0  0  0  0  0  0  0  0  0  0  0  0
  140.2056   78.2753  220.1315 H   0  0  0  0  0  0  0  0  0  0  0  0
  140.7570   80.2710  219.5740 C   0  0  0  0  0  0  0  0  0  0  0  0
  139.9022   80.9426  219.7421 H   0  0  0  0  0  0  0  0  0  0  0  0
  141.3714   80.1711  220.4809 H   0  0  0  0  0  0  0  0  0  0  0  0
  141.6380   80.8610  218.4720 C   0  0  0  0  0  0  0  0  0  0  0  0
  141.0465   80.9465  217.5485 H   0  0  0  0  0  0  0  0  0  0  0  0
  141.9907   81.8489  218.8030 H   0  0  0  0  0  0  0  0  0  0  0  0
  142.8680   79.9740  218.1990 C   0  0  0  0  0  0  0  0  0  0  0  0
  143.1817   80.1259  217.1557 H   0  0  0  0  0  0  0  0  0  0  0  0
  143.6463   80.2715  218.9172 H   0  0  0  0  0  0  0  0  0  0  0  0
  142.6040   78.4690  218.4150 C   0  0  0  0  0  0  0  0  0  0  0  0
  143.2197   77.8949  217.7069 H   0  0  0  0  0  0  0  0  0  0  0  0
  142.8628   78.2239  219.4556 H   0  0  0  0  0  0  0  0  0  0  0  0
  141.0620   78.1650  222.5660 C   0  0  0  0  0  0  0  0  0  0  0  0
  142.2060   78.9230  222.2680 C   0  0  0  0  0  0  0  0  0  0  0  0
  143.0835   78.4333  221.8205 H   0  0  0  0  0  0  0  0  0  0  0  0
  142.2380   80.2570  222.5280 N   0  0  0  0  0  0  0  0  0  0  0  0
  141.1820   80.9010  223.0880 C   0  0  0  0  0  0  0  0  0  0  0  0
  141.2372   81.9827  223.2799 H   0  0  0  0  0  0  0  0  0  0  0  0
  140.0280   80.1930  223.4200 C   0  0  0  0  0  0  0  0  0  0  0  0
  139.1725   80.7099  223.8793 H   0  0  0  0  0  0  0  0  0  0  0  0
  139.9680   78.8210  223.1640 C   0  0  0  0  0  0  0  0  0  0  0  0
  139.0650   78.2519  223.4298 H   0  0  0  0  0  0  0  0  0  0  0  0
  1  2  1  0
  2  3  2  0
  3  4  1  0
  3  5  1  0
  5  6  2  0
  6  7  1  0
  7  8  2  0
  8  9  1  0
  8 10  1  0
 10 11  1  0
 10 12  2  0
 12 13  1  0
 13 14  1  0
 13 15  2  0
 15 16  1  0
 16 17  2  0
 16 18  1  0
 18 19  1  0
 19 20  1  0
 19 21  1  0
 19 22  1  0
 22 23  1  0
 22 24  1  0
 24 25  1  0
 24 26  1  0
 24 27  1  0
 27 28  1  0
 27 29  1  0
 27 30  1  0
 30 31  1  0
 30 32  1  0
 30 33  1  0
 33 34  1  0
 33 35  1  0
 33 36  1  0
 36 37  1  0
 36 38  1  0
  2 39  1  0
 39 40  2  0
 40 41  1  0
 40 42  1  0
 42 43  2  0
 43 44  1  0
 43 45  1  0
 45 46  1  0
 45 47  2  0
 47 48  1  0
 18  5  1  0
 36 22  1  0
 47 39  1  0
 15  7  1  0
M  END
>  <UniqueID>  (53) 
463

>  <SMILES>  (53) 
S=c1c2cnccc2nc(/C=C/c2cccnc2)n1CC1CCCCC1

>  <Energy>  (53) 
77.36028234774595

>  <Genealogy>  (53) 
S=c1c2cnccc2nc(/C=C/c2cccnc2)n1CC1CCCCC1 (cis-trans isomerization)
S=c1c2cnccc2nc(/C=C/c2cccnc2)n1CC1CCCCC1 (3D coordinates assigned)
S=c1c2cnccc2nc(/C=C/c2cccnc2)n1CC1CCCCC1 (nonaromatic ring conformer: 77.36028234774595 kcal/mol)

>  <smiles>  (53) 
S=c1c2cnccc2nc(/C=C/c2cccnc2)n1CC1CCCCC1

>  <score_type>  (53) 
oracle

>  <origin>  (53) 
autodockgpu

>  <m_score__min__energy>  (53) 
-7.1799999999999997

>  <m_primary>  (53) 
energy

>  <meeko>  (53) 
{"free_energy": -6.06, "intermolecular_energy": -7.55, "internal_energy": -1.96, "cluster_size": 9, "cluster_id": 4, "rank_in_cluster": 9}

>  <energy>  (53) 
-6.45

>  <cluster_rmsd>  (53) 
0.09

>  <rmsd>  (53) 
270.13

>  <cluster>  (53) 
4

$$$$
VFWNAPSESRSYPS-CMDGGOBGNA-N
     RDKit          3D

 48 51  0  0  0  0  0  0  0  0999 V2000
  141.7065   81.4859  219.3206 H   0  0  0  0  0  0  0  0  0  0  0  0
  141.4010   80.6740  219.9970 C   0  0  0  0  0  0  0  0  0  0  0  0
  140.6730   79.6670  219.4890 C   0  0  0  0  0  0  0  0  0  0  0  0
  139.8977   79.8937  218.7423 H   0  0  0  0  0  0  0  0  0  0  0  0
  140.8830   78.2490  219.9060 C   0  0  0  0  0  0  0  0  0  0  0  0
  142.1100   77.7160  219.6740 N   0  0  0  0  0  0  0  0  0  0  0  0
  142.4300   76.4510  220.0080 C   0  0  0  0  0  0  0  0  0  0  0  0
  143.7080   75.9640  219.7240 C   0  0  0  0  0  0  0  0  0  0  0  0
  144.4466   76.6037  219.2187 H   0  0  0  0  0  0  0  0  0  0  0  0
  144.0380   74.6600  220.0870 C   0  0  0  0  0  0  0  0  0  0  0  0
  145.0410   74.2650  219.8682 H   0  0  0  0  0  0  0  0  0  0  0  0
  143.1210   73.8770  220.7110 N   0  0  0  0  0  0  0  0  0  0  0  0
  141.8720   74.3260  221.0030 C   0  0  0  0  0  0  0  0  0  0  0  0
  141.1573   73.6625  221.5119 H   0  0  0  0  0  0  0  0  0  0  0  0
  141.4860   75.6420  220.6560 C   0  0  0  0  0  0  0  0  0  0  0  0
  140.2070   76.1910  220.9280 C   0  0  0  0  0  0  0  0  0  0  0  0
  139.1450   75.3080  221.8430 S   0  0  0  0  0  0  0  0  0  0  0  0
  139.8920   77.4740  220.4940 N   0  0  0  0  0  0  0  0  0  0  0  0
  138.5220   78.0300  220.6980 C   0  0  0  0  0  0  0  0  0  0  0  0
  138.2673   78.6470  219.8237 H   0  0  0  0  0  0  0  0  0  0  0  0
  137.8493   77.1691  220.8256 H   0  0  0  0  0  0  0  0  0  0  0  0
  138.3680   78.9090  221.9770 C   0  0  0  0  0  0  0  0  0  0  0  0
  137.4051   78.5838  222.3978 H   0  0  0  0  0  0  0  0  0  0  0  0
  139.4390   78.6480  223.0700 C   0  0  0  0  0  0  0  0  0  0  0  0
  139.1783   77.7186  223.5975 H   0  0  0  0  0  0  0  0  0  0  0  0
  140.4111   78.5807  222.5596 H   0  0  0  0  0  0  0  0  0  0  0  0
  139.5510   79.7850  224.1100 C   0  0  0  0  0  0  0  0  0  0  0  0
  139.7993   79.3473  225.0882 H   0  0  0  0  0  0  0  0  0  0  0  0
  140.3356   80.4773  223.7707 H   0  0  0  0  0  0  0  0  0  0  0  0
  138.2490   80.5780  224.2410 C   0  0  0  0  0  0  0  0  0  0  0  0
  137.4455   79.8966  224.5575 H   0  0  0  0  0  0  0  0  0  0  0  0
  138.4024   81.3739  224.9847 H   0  0  0  0  0  0  0  0  0  0  0  0
  137.8520   81.2340  222.9050 C   0  0  0  0  0  0  0  0  0  0  0  0
  136.7587   81.3537  222.8873 H   0  0  0  0  0  0  0  0  0  0  0  0
  138.3785   82.1982  222.8492 H   0  0  0  0  0  0  0  0  0  0  0  0
  138.2740   80.4140  221.6660 C   0  0  0  0  0  0  0  0  0  0  0  0
  137.5313   80.5665  220.8690 H   0  0  0  0  0  0  0  0  0  0  0  0
  139.2700   80.7596  221.3521 H   0  0  0  0  0  0  0  0  0  0  0  0
  141.8170   80.7540  221.4190 C   0  0  0  0  0  0  0  0  0  0  0  0
  141.4830   81.8980  222.1620 C   0  0  0  0  0  0  0  0  0  0  0  0
  140.9134   82.7103  221.6869 H   0  0  0  0  0  0  0  0  0  0  0  0
  141.8580   82.0090  223.4630 N   0  0  0  0  0  0  0  0  0  0  0  0
  142.5690   81.0340  224.0880 C   0  0  0  0  0  0  0  0  0  0  0  0
  142.8504   81.1509  225.1449 H   0  0  0  0  0  0  0  0  0  0  0  0
  142.9420   79.8860  223.3910 C   0  0  0  0  0  0  0  0  0  0  0  0
  143.5242   79.0980  223.8910 H   0  0  0  0  0  0  0  0  0  0  0  0
  142.5700   79.7450  222.0520 C   0  0  0  0  0  0  0  0  0  0  0  0
  142.8650   78.8458  221.4913 H   0  0  0  0  0  0  0  0  0  0  0  0
  1  2  1  0
  2  3  2  0
  3  4  1  0
  3  5  1  0
  5  6  2  0
  6  7  1  0
  7  8  2  0
  8  9  1  0
  8 10  1  0
 10 11  1  0
 10 12  2  0
 12 13  1  0
 13 14  1  0
 13 15  2  0
 15 16  1  0
 16 17  2  0
 16 18  1  0
 18 19  1  0
 19 20  1  0
 19 21  1  0
 19 22  1  0
 22 23  1  0
 22 24  1  0
 24 25  1  0
 24 26  1  0
 24 27  1  0
 27 28  1  0
 27 29  1  0
 27 30  1  0
 30 31  1  0
 30 32  1  0
 30 33  1  0
 33 34  1  0
 33 35  1  0
 33 36  1  0
 36 37  1  0
 36 38  1  0
  2 39  1  0
 39 40  2  0
 40 41  1  0
 40 42  1  0
 42 43  2  0
 43 44  1  0
 43 45  1  0
 45 46  1  0
 45 47  2  0
 47 48  1  0
 18  5  1  0
 36 22  1  0
 47 39  1  0
 15  7  1  0
M  END
>  <UniqueID>  (54) 
463

>  <SMILES>  (54) 
S=c1c2cnccc2nc(/C=C/c2cccnc2)n1CC1CCCCC1

>  <Energy>  (54) 
77.36028234774595

>  <Genealogy>  (54) 
S=c1c2cnccc2nc(/C=C/c2cccnc2)n1CC1CCCCC1 (cis-trans isomerization)
S=c1c2cnccc2nc(/C=C/c2cccnc2)n1CC1CCCCC1 (3D coordinates assigned)
S=c1c2cnccc2nc(/C=C/c2cccnc2)n1CC1CCCCC1 (nonaromatic ring conformer: 77.36028234774595 kcal/mol)

>  <smiles>  (54) 
S=c1c2cnccc2nc(/C=C/c2cccnc2)n1CC1CCCCC1

>  <score_type>  (54) 
oracle

>  <origin>  (54) 
autodockgpu

>  <m_score__min__energy>  (54) 
-7.1799999999999997

>  <m_primary>  (54) 
energy

>  <meeko>  (54) 
{"free_energy": -5.82, "intermolecular_energy": -7.31, "internal_energy": -2.3, "cluster_size": 2, "cluster_id": 5, "rank_in_cluster": 1}

>  <energy>  (54) 
-6.43

>  <cluster_rmsd>  (54) 
0.1

>  <rmsd>  (54) 
270.09

>  <cluster>  (54) 
4

$$$$
VFWNAPSESRSYPS-CMDGGOBGNA-N
     RDKit          3D

 48 51  0  0  0  0  0  0  0  0999 V2000
  141.7413   81.4552  219.3271 H   0  0  0  0  0  0  0  0  0  0  0  0
  141.4230   80.6470  220.0020 C   0  0  0  0  0  0  0  0  0  0  0  0
  140.6890   79.6460  219.4900 C   0  0  0  0  0  0  0  0  0  0  0  0
  139.9162   79.8800  218.7430 H   0  0  0  0  0  0  0  0  0  0  0  0
  140.8890   78.2250  219.9030 C   0  0  0  0  0  0  0  0  0  0  0  0
  142.1130   77.6840  219.6710 N   0  0  0  0  0  0  0  0  0  0  0  0
  142.4240   76.4160  220.0030 C   0  0  0  0  0  0  0  0  0  0  0  0
  143.6990   75.9220  219.7190 C   0  0  0  0  0  0  0  0  0  0  0  0
  144.4423   76.5584  219.2164 H   0  0  0  0  0  0  0  0  0  0  0  0
  144.0200   74.6140  220.0790 C   0  0  0  0  0  0  0  0  0  0  0  0
  145.0207   74.2127  219.8610 H   0  0  0  0  0  0  0  0  0  0  0  0
  143.0960   73.8360  220.6990 N   0  0  0  0  0  0  0  0  0  0  0  0
  141.8500   74.2930  220.9900 C   0  0  0  0  0  0  0  0  0  0  0  0
  141.1300   73.6331  221.4960 H   0  0  0  0  0  0  0  0  0  0  0  0
  141.4730   75.6130  220.6460 C   0  0  0  0  0  0  0  0  0  0  0  0
  140.1980   76.1690  220.9170 C   0  0  0  0  0  0  0  0  0  0  0  0
  139.1280   75.2900  221.8280 S   0  0  0  0  0  0  0  0  0  0  0  0
  139.8920   77.4560  220.4870 N   0  0  0  0  0  0  0  0  0  0  0  0
  138.5250   78.0200  220.6900 C   0  0  0  0  0  0  0  0  0  0  0  0
  138.2754   78.6406  219.8167 H   0  0  0  0  0  0  0  0  0  0  0  0
  137.8465   77.1631  220.8143 H   0  0  0  0  0  0  0  0  0  0  0  0
  138.3750   78.8970  221.9710 C   0  0  0  0  0  0  0  0  0  0  0  0
  137.4079   78.5798  222.3881 H   0  0  0  0  0  0  0  0  0  0  0  0
  139.4390   78.6230  223.0670 C   0  0  0  0  0  0  0  0  0  0  0  0
  139.1668   77.6953  223.5917 H   0  0  0  0  0  0  0  0  0  0  0  0
  140.4122   78.5468  222.5599 H   0  0  0  0  0  0  0  0  0  0  0  0
  139.5590   79.7570  224.1100 C   0  0  0  0  0  0  0  0  0  0  0  0
  139.8008   79.3151  225.0879 H   0  0  0  0  0  0  0  0  0  0  0  0
  140.3509   80.4428  223.7745 H   0  0  0  0  0  0  0  0  0  0  0  0
  138.2640   80.5610  224.2390 C   0  0  0  0  0  0  0  0  0  0  0  0
  137.4535   79.8860  224.5513 H   0  0  0  0  0  0  0  0  0  0  0  0
  138.4221   81.3536  224.9852 H   0  0  0  0  0  0  0  0  0  0  0  0
  137.8770   81.2240  222.9030 C   0  0  0  0  0  0  0  0  0  0  0  0
  136.7848   81.3530  222.8821 H   0  0  0  0  0  0  0  0  0  0  0  0
  138.4120   82.1837  222.8516 H   0  0  0  0  0  0  0  0  0  0  0  0
  138.2960   80.4040  221.6630 C   0  0  0  0  0  0  0  0  0  0  0  0
  137.5576   80.5654  220.8638 H   0  0  0  0  0  0  0  0  0  0  0  0
  139.2960   80.7415  221.3530 H   0  0  0  0  0  0  0  0  0  0  0  0
  141.8290   80.7240  221.4280 C   0  0  0  0  0  0  0  0  0  0  0  0
  141.5060   81.8750  222.1650 C   0  0  0  0  0  0  0  0  0  0  0  0
  140.9529   82.6943  221.6824 H   0  0  0  0  0  0  0  0  0  0  0  0
  141.8710   81.9850  223.4690 N   0  0  0  0  0  0  0  0  0  0  0  0
  142.5620   81.0020  224.1030 C   0  0  0  0  0  0  0  0  0  0  0  0
  142.8368   81.1181  225.1618 H   0  0  0  0  0  0  0  0  0  0  0  0
  142.9230   79.8460  223.4120 C   0  0  0  0  0  0  0  0  0  0  0  0
  143.4881   79.0502  223.9193 H   0  0  0  0  0  0  0  0  0  0  0  0
  142.5610   79.7070  222.0700 C   0  0  0  0  0  0  0  0  0  0  0  0
  142.8481   78.8021  221.5143 H   0  0  0  0  0  0  0  0  0  0  0  0
  1  2  1  0
  2  3  2  0
  3  4  1  0
  3  5  1  0
  5  6  2  0
  6  7  1  0
  7  8  2  0
  8  9  1  0
  8 10  1  0
 10 11  1  0
 10 12  2  0
 12 13  1  0
 13 14  1  0
 13 15  2  0
 15 16  1  0
 16 17  2  0
 16 18  1  0
 18 19  1  0
 19 20  1  0
 19 21  1  0
 19 22  1  0
 22 23  1  0
 22 24  1  0
 24 25  1  0
 24 26  1  0
 24 27  1  0
 27 28  1  0
 27 29  1  0
 27 30  1  0
 30 31  1  0
 30 32  1  0
 30 33  1  0
 33 34  1  0
 33 35  1  0
 33 36  1  0
 36 37  1  0
 36 38  1  0
  2 39  1  0
 39 40  2  0
 40 41  1  0
 40 42  1  0
 42 43  2  0
 43 44  1  0
 43 45  1  0
 45 46  1  0
 45 47  2  0
 47 48  1  0
 18  5  1  0
 36 22  1  0
 47 39  1  0
 15  7  1  0
M  END
>  <UniqueID>  (55) 
463

>  <SMILES>  (55) 
S=c1c2cnccc2nc(/C=C/c2cccnc2)n1CC1CCCCC1

>  <Energy>  (55) 
77.36028234774595

>  <Genealogy>  (55) 
S=c1c2cnccc2nc(/C=C/c2cccnc2)n1CC1CCCCC1 (cis-trans isomerization)
S=c1c2cnccc2nc(/C=C/c2cccnc2)n1CC1CCCCC1 (3D coordinates assigned)
S=c1c2cnccc2nc(/C=C/c2cccnc2)n1CC1CCCCC1 (nonaromatic ring conformer: 77.36028234774595 kcal/mol)

>  <smiles>  (55) 
S=c1c2cnccc2nc(/C=C/c2cccnc2)n1CC1CCCCC1

>  <score_type>  (55) 
oracle

>  <origin>  (55) 
autodockgpu

>  <m_score__min__energy>  (55) 
-7.1799999999999997

>  <m_primary>  (55) 
energy

>  <meeko>  (55) 
{"free_energy": -5.81, "intermolecular_energy": -7.31, "internal_energy": -2.3, "cluster_size": 2, "cluster_id": 5, "rank_in_cluster": 2}

>  <energy>  (55) 
-6.37

>  <cluster_rmsd>  (55) 
0.55

>  <rmsd>  (55) 
270.12

>  <cluster>  (55) 
4

$$$$
VFWNAPSESRSYPS-CMDGGOBGNA-N
     RDKit          3D

 48 51  0  0  0  0  0  0  0  0999 V2000
  142.7549   71.0196  219.1920 H   0  0  0  0  0  0  0  0  0  0  0  0
  143.0120   71.5880  220.0980 C   0  0  0  0  0  0  0  0  0  0  0  0
  142.1630   71.5430  221.1370 C   0  0  0  0  0  0  0  0  0  0  0  0
  142.1934   70.6752  221.8123 H   0  0  0  0  0  0  0  0  0  0  0  0
  141.1790   72.6330  221.4050 C   0  0  0  0  0  0  0  0  0  0  0  0
  141.6020   73.9070  221.1950 N   0  0  0  0  0  0  0  0  0  0  0  0
  140.8100   74.9790  221.3920 C   0  0  0  0  0  0  0  0  0  0  0  0
  141.3180   76.2610  221.1710 C   0  0  0  0  0  0  0  0  0  0  0  0
  142.3611   76.3974  220.8494 H   0  0  0  0  0  0  0  0  0  0  0  0
  140.4900   77.3660  221.3620 C   0  0  0  0  0  0  0  0  0  0  0  0
  140.8785   78.3810  221.1922 H   0  0  0  0  0  0  0  0  0  0  0  0
  139.2030   77.1880  221.7580 N   0  0  0  0  0  0  0  0  0  0  0  0
  138.6830   75.9520  221.9770 C   0  0  0  0  0  0  0  0  0  0  0  0
  137.6352   75.8484  222.2954 H   0  0  0  0  0  0  0  0  0  0  0  0
  139.4810   74.7970  221.7980 C   0  0  0  0  0  0  0  0  0  0  0  0
  139.0170   73.4730  221.9990 C   0  0  0  0  0  0  0  0  0  0  0  0
  137.4060   73.2380  222.3100 S   0  0  0  0  0  0  0  0  0  0  0  0
  139.8890   72.3980  221.8610 N   0  0  0  0  0  0  0  0  0  0  0  0
  139.4340   71.0080  222.1540 C   0  0  0  0  0  0  0  0  0  0  0  0
  138.3379   70.9788  222.0660 H   0  0  0  0  0  0  0  0  0  0  0  0
  139.9393   70.3524  221.4295 H   0  0  0  0  0  0  0  0  0  0  0  0
  139.8240   70.4890  223.5730 C   0  0  0  0  0  0  0  0  0  0  0  0
  140.5130   69.6576  223.3630 H   0  0  0  0  0  0  0  0  0  0  0  0
  140.6130   71.5090  224.4370 C   0  0  0  0  0  0  0  0  0  0  0  0
  141.6555   71.5284  224.0866 H   0  0  0  0  0  0  0  0  0  0  0  0
  140.1144   72.4827  224.3218 H   0  0  0  0  0  0  0  0  0  0  0  0
  140.6110   71.1750  225.9450 C   0  0  0  0  0  0  0  0  0  0  0  0
  141.5739   71.4841  226.3779 H   0  0  0  0  0  0  0  0  0  0  0  0
  139.7725   71.7142  226.4099 H   0  0  0  0  0  0  0  0  0  0  0  0
  140.4110   69.6810  226.2040 C   0  0  0  0  0  0  0  0  0  0  0  0
  141.2294   69.1226  225.7261 H   0  0  0  0  0  0  0  0  0  0  0  0
  140.4079   69.5164  227.2916 H   0  0  0  0  0  0  0  0  0  0  0  0
  139.0680   69.1850  225.6360 C   0  0  0  0  0  0  0  0  0  0  0  0
  139.1654   68.1160  225.3955 H   0  0  0  0  0  0  0  0  0  0  0  0
  138.3033   69.3723  226.4043 H   0  0  0  0  0  0  0  0  0  0  0  0
  138.6230   69.9340  224.3610 C   0  0  0  0  0  0  0  0  0  0  0  0
  138.0653   69.2387  223.7164 H   0  0  0  0  0  0  0  0  0  0  0  0
  137.9936   70.7829  224.6662 H   0  0  0  0  0  0  0  0  0  0  0  0
  144.2780   72.3620  220.1040 C   0  0  0  0  0  0  0  0  0  0  0  0
  145.1060   72.3200  218.9710 C   0  0  0  0  0  0  0  0  0  0  0  0
  144.8034   71.7259  218.0961 H   0  0  0  0  0  0  0  0  0  0  0  0
  146.2780   73.0070  218.9460 N   0  0  0  0  0  0  0  0  0  0  0  0
  146.6960   73.7460  220.0070 C   0  0  0  0  0  0  0  0  0  0  0  0
  147.6474   74.2956  219.9534 H   0  0  0  0  0  0  0  0  0  0  0  0
  145.9200   73.8080  221.1630 C   0  0  0  0  0  0  0  0  0  0  0  0
  146.2569   74.4008  222.0262 H   0  0  0  0  0  0  0  0  0  0  0  0
  144.7110   73.1110  221.2160 C   0  0  0  0  0  0  0  0  0  0  0  0
  144.0959   73.1468  222.1272 H   0  0  0  0  0  0  0  0  0  0  0  0
  1  2  1  0
  2  3  2  0
  3  4  1  0
  3  5  1  0
  5  6  2  0
  6  7  1  0
  7  8  2  0
  8  9  1  0
  8 10  1  0
 10 11  1  0
 10 12  2  0
 12 13  1  0
 13 14  1  0
 13 15  2  0
 15 16  1  0
 16 17  2  0
 16 18  1  0
 18 19  1  0
 19 20  1  0
 19 21  1  0
 19 22  1  0
 22 23  1  0
 22 24  1  0
 24 25  1  0
 24 26  1  0
 24 27  1  0
 27 28  1  0
 27 29  1  0
 27 30  1  0
 30 31  1  0
 30 32  1  0
 30 33  1  0
 33 34  1  0
 33 35  1  0
 33 36  1  0
 36 37  1  0
 36 38  1  0
  2 39  1  0
 39 40  2  0
 40 41  1  0
 40 42  1  0
 42 43  2  0
 43 44  1  0
 43 45  1  0
 45 46  1  0
 45 47  2  0
 47 48  1  0
 18  5  1  0
 36 22  1  0
 47 39  1  0
 15  7  1  0
M  END
>  <UniqueID>  (56) 
463

>  <SMILES>  (56) 
S=c1c2cnccc2nc(/C=C/c2cccnc2)n1CC1CCCCC1

>  <Energy>  (56) 
77.36028234774595

>  <Genealogy>  (56) 
S=c1c2cnccc2nc(/C=C/c2cccnc2)n1CC1CCCCC1 (cis-trans isomerization)
S=c1c2cnccc2nc(/C=C/c2cccnc2)n1CC1CCCCC1 (3D coordinates assigned)
S=c1c2cnccc2nc(/C=C/c2cccnc2)n1CC1CCCCC1 (nonaromatic ring conformer: 77.36028234774595 kcal/mol)

>  <smiles>  (56) 
S=c1c2cnccc2nc(/C=C/c2cccnc2)n1CC1CCCCC1

>  <score_type>  (56) 
oracle

>  <origin>  (56) 
autodockgpu

>  <m_score__min__energy>  (56) 
-7.1799999999999997

>  <m_primary>  (56) 
energy

>  <meeko>  (56) 
{"free_energy": -6.81, "intermolecular_energy": -8.3, "internal_energy": -1.35, "cluster_size": 1, "cluster_id": 3, "rank_in_cluster": 1}

>  <energy>  (56) 
-6.36

>  <cluster_rmsd>  (56) 
0.55

>  <rmsd>  (56) 
270.11

>  <cluster>  (56) 
4

$$$$
VFWNAPSESRSYPS-CMDGGOBGNA-N
     RDKit          3D

 48 51  0  0  0  0  0  0  0  0999 V2000
  141.2147   76.1154  223.0442 H   0  0  0  0  0  0  0  0  0  0  0  0
  141.0790   76.8480  222.2350 C   0  0  0  0  0  0  0  0  0  0  0  0
  140.8910   76.3870  220.9880 C   0  0  0  0  0  0  0  0  0  0  0  0
  139.8927   76.4717  220.5339 H   0  0  0  0  0  0  0  0  0  0  0  0
  141.9940   75.7630  220.1980 C   0  0  0  0  0  0  0  0  0  0  0  0
  142.7800   74.8640  220.8450 N   0  0  0  0  0  0  0  0  0  0  0  0
  143.8030   74.2260  220.2450 C   0  0  0  0  0  0  0  0  0  0  0  0
  144.5790   73.3250  220.9770 C   0  0  0  0  0  0  0  0  0  0  0  0
  144.3662   73.1457  222.0412 H   0  0  0  0  0  0  0  0  0  0  0  0
  145.6260   72.6550  220.3460 C   0  0  0  0  0  0  0  0  0  0  0  0
  146.2444   71.9429  220.9122 H   0  0  0  0  0  0  0  0  0  0  0  0
  145.8820   72.8820  219.0320 N   0  0  0  0  0  0  0  0  0  0  0  0
  145.1400   73.7510  218.2950 C   0  0  0  0  0  0  0  0  0  0  0  0
  145.3760   73.9068  217.2320 H   0  0  0  0  0  0  0  0  0  0  0  0
  144.0660   74.4560  218.8880 C   0  0  0  0  0  0  0  0  0  0  0  0
  143.2400   75.3750  218.1910 C   0  0  0  0  0  0  0  0  0  0  0  0
  143.4310   75.5250  216.5520 S   0  0  0  0  0  0  0  0  0  0  0  0
  142.2450   76.0710  218.8680 N   0  0  0  0  0  0  0  0  0  0  0  0
  141.4270   77.1030  218.1660 C   0  0  0  0  0  0  0  0  0  0  0  0
  141.7260   77.1176  217.1075 H   0  0  0  0  0  0  0  0  0  0  0  0
  140.3737   76.8203  218.3100 H   0  0  0  0  0  0  0  0  0  0  0  0
  141.5830   78.5460  218.7370 C   0  0  0  0  0  0  0  0  0  0  0  0
  142.0546   78.3844  219.7175 H   0  0  0  0  0  0  0  0  0  0  0  0
  142.5450   79.4580  217.9280 C   0  0  0  0  0  0  0  0  0  0  0  0
  143.5797   79.1780  218.1751 H   0  0  0  0  0  0  0  0  0  0  0  0
  142.3136   79.3069  216.8633 H   0  0  0  0  0  0  0  0  0  0  0  0
  142.3630   80.9640  218.2220 C   0  0  0  0  0  0  0  0  0  0  0  0
  143.3426   81.4596  218.1532 H   0  0  0  0  0  0  0  0  0  0  0  0
  141.6570   81.3702  217.4827 H   0  0  0  0  0  0  0  0  0  0  0  0
  141.7810   81.2130  219.6150 C   0  0  0  0  0  0  0  0  0  0  0  0
  142.4635   80.7922  220.3681 H   0  0  0  0  0  0  0  0  0  0  0  0
  141.6674   82.2984  219.7528 H   0  0  0  0  0  0  0  0  0  0  0  0
  140.3960   80.5580  219.7730 C   0  0  0  0  0  0  0  0  0  0  0  0
  140.2391   80.3278  220.8371 H   0  0  0  0  0  0  0  0  0  0  0  0
  139.6543   81.2727  219.3869 H   0  0  0  0  0  0  0  0  0  0  0  0
  140.2350   79.2540  218.9620 C   0  0  0  0  0  0  0  0  0  0  0  0
  139.5643   78.5755  219.5096 H   0  0  0  0  0  0  0  0  0  0  0  0
  139.8192   79.5148  217.9776 H   0  0  0  0  0  0  0  0  0  0  0  0
  141.1140   78.2900  222.5830 C   0  0  0  0  0  0  0  0  0  0  0  0
  142.3010   79.0110  222.3760 C   0  0  0  0  0  0  0  0  0  0  0  0
  143.1809   78.5040  221.9532 H   0  0  0  0  0  0  0  0  0  0  0  0
  142.3710   80.3300  222.6940 N   0  0  0  0  0  0  0  0  0  0  0  0
  141.3130   80.9950  223.2260 C   0  0  0  0  0  0  0  0  0  0  0  0
  141.4004   82.0649  223.4661 H   0  0  0  0  0  0  0  0  0  0  0  0
  140.1160   80.3220  223.4680 C   0  0  0  0  0  0  0  0  0  0  0  0
  139.2582   80.8546  223.9045 H   0  0  0  0  0  0  0  0  0  0  0  0
  140.0160   78.9650  223.1510 C   0  0  0  0  0  0  0  0  0  0  0  0
  139.0787   78.4231  223.3452 H   0  0  0  0  0  0  0  0  0  0  0  0
  1  2  1  0
  2  3  2  0
  3  4  1  0
  3  5  1  0
  5  6  2  0
  6  7  1  0
  7  8  2  0
  8  9  1  0
  8 10  1  0
 10 11  1  0
 10 12  2  0
 12 13  1  0
 13 14  1  0
 13 15  2  0
 15 16  1  0
 16 17  2  0
 16 18  1  0
 18 19  1  0
 19 20  1  0
 19 21  1  0
 19 22  1  0
 22 23  1  0
 22 24  1  0
 24 25  1  0
 24 26  1  0
 24 27  1  0
 27 28  1  0
 27 29  1  0
 27 30  1  0
 30 31  1  0
 30 32  1  0
 30 33  1  0
 33 34  1  0
 33 35  1  0
 33 36  1  0
 36 37  1  0
 36 38  1  0
  2 39  1  0
 39 40  2  0
 40 41  1  0
 40 42  1  0
 42 43  2  0
 43 44  1  0
 43 45  1  0
 45 46  1  0
 45 47  2  0
 47 48  1  0
 18  5  1  0
 36 22  1  0
 47 39  1  0
 15  7  1  0
M  END
>  <UniqueID>  (57) 
463

>  <SMILES>  (57) 
S=c1c2cnccc2nc(/C=C/c2cccnc2)n1CC1CCCCC1

>  <Energy>  (57) 
77.36028234774595

>  <Genealogy>  (57) 
S=c1c2cnccc2nc(/C=C/c2cccnc2)n1CC1CCCCC1 (cis-trans isomerization)
S=c1c2cnccc2nc(/C=C/c2cccnc2)n1CC1CCCCC1 (3D coordinates assigned)
S=c1c2cnccc2nc(/C=C/c2cccnc2)n1CC1CCCCC1 (nonaromatic ring conformer: 77.36028234774595 kcal/mol)

>  <smiles>  (57) 
S=c1c2cnccc2nc(/C=C/c2cccnc2)n1CC1CCCCC1

>  <score_type>  (57) 
oracle

>  <origin>  (57) 
autodockgpu

>  <m_score__min__energy>  (57) 
-7.1799999999999997

>  <m_primary>  (57) 
energy

>  <meeko>  (57) 
{"free_energy": -6.37, "intermolecular_energy": -7.86, "internal_energy": -1.84, "cluster_size": 9, "cluster_id": 4, "rank_in_cluster": 6}

>  <energy>  (57) 
-6.21

>  <cluster_rmsd>  (57) 
0.49

>  <rmsd>  (57) 
269.97

>  <cluster>  (57) 
4

$$$$
VFWNAPSESRSYPS-CMDGGOBGNA-N
     RDKit          3D

 48 51  0  0  0  0  0  0  0  0999 V2000
  141.2406   76.0207  223.0684 H   0  0  0  0  0  0  0  0  0  0  0  0
  141.0810   76.7710  222.2800 C   0  0  0  0  0  0  0  0  0  0  0  0
  140.8890   76.3390  221.0240 C   0  0  0  0  0  0  0  0  0  0  0  0
  139.8897   76.4350  220.5743 H   0  0  0  0  0  0  0  0  0  0  0  0
  141.9900   75.7320  220.2180 C   0  0  0  0  0  0  0  0  0  0  0  0
  142.7840   74.8260  220.8460 N   0  0  0  0  0  0  0  0  0  0  0  0
  143.8060   74.2020  220.2300 C   0  0  0  0  0  0  0  0  0  0  0  0
  144.5910   73.2940  220.9440 C   0  0  0  0  0  0  0  0  0  0  0  0
  144.3856   73.0978  222.0067 H   0  0  0  0  0  0  0  0  0  0  0  0
  145.6370   72.6390  220.2970 C   0  0  0  0  0  0  0  0  0  0  0  0
  146.2627   71.9219  220.8486 H   0  0  0  0  0  0  0  0  0  0  0  0
  145.8830   72.8870  218.9850 N   0  0  0  0  0  0  0  0  0  0  0  0
  145.1330   73.7630  218.2650 C   0  0  0  0  0  0  0  0  0  0  0  0
  145.3617   73.9353  217.2029 H   0  0  0  0  0  0  0  0  0  0  0  0
  144.0600   74.4540  218.8750 C   0  0  0  0  0  0  0  0  0  0  0  0
  143.2250   75.3790  218.1980 C   0  0  0  0  0  0  0  0  0  0  0  0
  143.4060   75.5550  216.5600 S   0  0  0  0  0  0  0  0  0  0  0  0
  142.2310   76.0610  218.8910 N   0  0  0  0  0  0  0  0  0  0  0  0
  141.4050   77.1000  218.2100 C   0  0  0  0  0  0  0  0  0  0  0  0
  141.6846   77.1189  217.1463 H   0  0  0  0  0  0  0  0  0  0  0  0
  140.3535   76.8209  218.3723 H   0  0  0  0  0  0  0  0  0  0  0  0
  141.5770   78.5390  218.7850 C   0  0  0  0  0  0  0  0  0  0  0  0
  142.0732   78.3716  219.7524 H   0  0  0  0  0  0  0  0  0  0  0  0
  142.5190   79.4540  217.9570 C   0  0  0  0  0  0  0  0  0  0  0  0
  143.5593   79.1716  218.1762 H   0  0  0  0  0  0  0  0  0  0  0  0
  142.2608   79.3089  216.8976 H   0  0  0  0  0  0  0  0  0  0  0  0
  142.3460   80.9590  218.2640 C   0  0  0  0  0  0  0  0  0  0  0  0
  143.3239   81.4542  218.1722 H   0  0  0  0  0  0  0  0  0  0  0  0
  141.6211   81.3697  217.5457 H   0  0  0  0  0  0  0  0  0  0  0  0
  141.8010   81.2010  219.6730 C   0  0  0  0  0  0  0  0  0  0  0  0
  142.5025   80.7756  220.4058 H   0  0  0  0  0  0  0  0  0  0  0  0
  141.6922   82.2857  219.8199 H   0  0  0  0  0  0  0  0  0  0  0  0
  140.4200   80.5460  219.8630 C   0  0  0  0  0  0  0  0  0  0  0  0
  140.2908   80.3096  220.9295 H   0  0  0  0  0  0  0  0  0  0  0  0
  139.6694   81.2636  219.5002 H   0  0  0  0  0  0  0  0  0  0  0  0
  140.2360   79.2470  219.0490 C   0  0  0  0  0  0  0  0  0  0  0  0
  139.5790   78.5661  219.6100 H   0  0  0  0  0  0  0  0  0  0  0  0
  139.7948   79.5137  218.0773 H   0  0  0  0  0  0  0  0  0  0  0  0
  141.0900   78.2040  222.6650 C   0  0  0  0  0  0  0  0  0  0  0  0
  139.8890   78.8050  223.0760 C   0  0  0  0  0  0  0  0  0  0  0  0
  138.9659   78.2080  223.1157 H   0  0  0  0  0  0  0  0  0  0  0  0
  139.8580   80.1180  223.4250 N   0  0  0  0  0  0  0  0  0  0  0  0
  140.9720   80.8950  223.3830 C   0  0  0  0  0  0  0  0  0  0  0  0
  140.9156   81.9531  223.6783 H   0  0  0  0  0  0  0  0  0  0  0  0
  142.1860   80.3520  222.9660 C   0  0  0  0  0  0  0  0  0  0  0  0
  143.0888   80.9791  222.9247 H   0  0  0  0  0  0  0  0  0  0  0  0
  142.2470   79.0050  222.6010 C   0  0  0  0  0  0  0  0  0  0  0  0
  143.1990   78.5695  222.2634 H   0  0  0  0  0  0  0  0  0  0  0  0
  1  2  1  0
  2  3  2  0
  3  4  1  0
  3  5  1  0
  5  6  2  0
  6  7  1  0
  7  8  2  0
  8  9  1  0
  8 10  1  0
 10 11  1  0
 10 12  2  0
 12 13  1  0
 13 14  1  0
 13 15  2  0
 15 16  1  0
 16 17  2  0
 16 18  1  0
 18 19  1  0
 19 20  1  0
 19 21  1  0
 19 22  1  0
 22 23  1  0
 22 24  1  0
 24 25  1  0
 24 26  1  0
 24 27  1  0
 27 28  1  0
 27 29  1  0
 27 30  1  0
 30 31  1  0
 30 32  1  0
 30 33  1  0
 33 34  1  0
 33 35  1  0
 33 36  1  0
 36 37  1  0
 36 38  1  0
  2 39  1  0
 39 40  2  0
 40 41  1  0
 40 42  1  0
 42 43  2  0
 43 44  1  0
 43 45  1  0
 45 46  1  0
 45 47  2  0
 47 48  1  0
 18  5  1  0
 36 22  1  0
 47 39  1  0
 15  7  1  0
M  END
>  <UniqueID>  (58) 
463

>  <SMILES>  (58) 
S=c1c2cnccc2nc(/C=C/c2cccnc2)n1CC1CCCCC1

>  <Energy>  (58) 
77.36028234774595

>  <Genealogy>  (58) 
S=c1c2cnccc2nc(/C=C/c2cccnc2)n1CC1CCCCC1 (cis-trans isomerization)
S=c1c2cnccc2nc(/C=C/c2cccnc2)n1CC1CCCCC1 (3D coordinates assigned)
S=c1c2cnccc2nc(/C=C/c2cccnc2)n1CC1CCCCC1 (nonaromatic ring conformer: 77.36028234774595 kcal/mol)

>  <smiles>  (58) 
S=c1c2cnccc2nc(/C=C/c2cccnc2)n1CC1CCCCC1

>  <score_type>  (58) 
oracle

>  <origin>  (58) 
autodockgpu

>  <m_score__min__energy>  (58) 
-7.1799999999999997

>  <m_primary>  (58) 
energy

>  <meeko>  (58) 
{"free_energy": -6.45, "intermolecular_energy": -7.94, "internal_energy": -1.83, "cluster_size": 9, "cluster_id": 4, "rank_in_cluster": 2}

>  <energy>  (58) 
-6.06

>  <cluster_rmsd>  (58) 
0.73

>  <rmsd>  (58) 
269.95

>  <cluster>  (58) 
4

$$$$
VFWNAPSESRSYPS-CMDGGOBGNA-N
     RDKit          3D

 48 51  0  0  0  0  0  0  0  0999 V2000
  143.5758   75.9878  218.1833 H   0  0  0  0  0  0  0  0  0  0  0  0
  143.5370   75.5820  219.2050 C   0  0  0  0  0  0  0  0  0  0  0  0
  142.6900   76.1470  220.0800 C   0  0  0  0  0  0  0  0  0  0  0  0
  142.8551   77.1919  220.3817 H   0  0  0  0  0  0  0  0  0  0  0  0
  141.5310   75.4030  220.6570 C   0  0  0  0  0  0  0  0  0  0  0  0
  141.7190   74.0840  220.9210 N   0  0  0  0  0  0  0  0  0  0  0  0
  140.7580   73.3020  221.4480 C   0  0  0  0  0  0  0  0  0  0  0  0
  141.0170   71.9490  221.6780 C   0  0  0  0  0  0  0  0  0  0  0  0
  141.9958   71.5190  221.4190 H   0  0  0  0  0  0  0  0  0  0  0  0
  140.0230   71.1490  222.2390 C   0  0  0  0  0  0  0  0  0  0  0  0
  140.2147   70.0819  222.4247 H   0  0  0  0  0  0  0  0  0  0  0  0
  138.8180   71.6880  222.5560 N   0  0  0  0  0  0  0  0  0  0  0  0
  138.5400   73.0020  222.3470 C   0  0  0  0  0  0  0  0  0  0  0  0
  137.5529   73.4028  222.6208 H   0  0  0  0  0  0  0  0  0  0  0  0
  139.5140   73.8570  221.7790 C   0  0  0  0  0  0  0  0  0  0  0  0
  139.3090   75.2390  221.5320 C   0  0  0  0  0  0  0  0  0  0  0  0
  137.9100   75.9410  222.0760 S   0  0  0  0  0  0  0  0  0  0  0  0
  140.3010   75.9920  220.9130 N   0  0  0  0  0  0  0  0  0  0  0  0
  140.0640   77.4240  220.5700 C   0  0  0  0  0  0  0  0  0  0  0  0
  140.4966   77.6162  219.5770 H   0  0  0  0  0  0  0  0  0  0  0  0
  138.9753   77.5783  220.6004 H   0  0  0  0  0  0  0  0  0  0  0  0
  140.6860   78.4390  221.5780 C   0  0  0  0  0  0  0  0  0  0  0  0
  141.6145   78.7585  221.0823 H   0  0  0  0  0  0  0  0  0  0  0  0
  139.8400   79.7220  221.8030 C   0  0  0  0  0  0  0  0  0  0  0  0
  139.9844   80.3897  220.9409 H   0  0  0  0  0  0  0  0  0  0  0  0
  138.7930   79.4034  221.9137 H   0  0  0  0  0  0  0  0  0  0  0  0
  140.2180   80.4930  223.0870 C   0  0  0  0  0  0  0  0  0  0  0  0
  140.0884   81.5700  222.9045 H   0  0  0  0  0  0  0  0  0  0  0  0
  139.5616   80.1421  223.8969 H   0  0  0  0  0  0  0  0  0  0  0  0
  141.6650   80.2360  223.5110 C   0  0  0  0  0  0  0  0  0  0  0  0
  142.3374   80.5590  222.7026 H   0  0  0  0  0  0  0  0  0  0  0  0
  141.8613   80.8035  224.4326 H   0  0  0  0  0  0  0  0  0  0  0  0
  141.9100   78.7430  223.8000 C   0  0  0  0  0  0  0  0  0  0  0  0
  142.9720   78.5228  223.6164 H   0  0  0  0  0  0  0  0  0  0  0  0
  141.6211   78.5650  224.8464 H   0  0  0  0  0  0  0  0  0  0  0  0
  141.0570   77.7970  222.9270 C   0  0  0  0  0  0  0  0  0  0  0  0
  141.6283   76.8763  222.7375 H   0  0  0  0  0  0  0  0  0  0  0  0
  140.1248   77.5808  223.4694 H   0  0  0  0  0  0  0  0  0  0  0  0
  144.4240   74.4400  219.5400 C   0  0  0  0  0  0  0  0  0  0  0  0
  144.8260   73.5680  218.5140 C   0  0  0  0  0  0  0  0  0  0  0  0
  144.4880   73.7459  217.4824 H   0  0  0  0  0  0  0  0  0  0  0  0
  145.6290   72.5070  218.7870 N   0  0  0  0  0  0  0  0  0  0  0  0
  146.0630   72.2430  220.0470 C   0  0  0  0  0  0  0  0  0  0  0  0
  146.7176   71.3788  220.2333 H   0  0  0  0  0  0  0  0  0  0  0  0
  145.6790   73.0670  221.1040 C   0  0  0  0  0  0  0  0  0  0  0  0
  146.0227   72.8536  222.1269 H   0  0  0  0  0  0  0  0  0  0  0  0
  144.8540   74.1660  220.8530 C   0  0  0  0  0  0  0  0  0  0  0  0
  144.5399   74.8180  221.6814 H   0  0  0  0  0  0  0  0  0  0  0  0
  1  2  1  0
  2  3  2  0
  3  4  1  0
  3  5  1  0
  5  6  2  0
  6  7  1  0
  7  8  2  0
  8  9  1  0
  8 10  1  0
 10 11  1  0
 10 12  2  0
 12 13  1  0
 13 14  1  0
 13 15  2  0
 15 16  1  0
 16 17  2  0
 16 18  1  0
 18 19  1  0
 19 20  1  0
 19 21  1  0
 19 22  1  0
 22 23  1  0
 22 24  1  0
 24 25  1  0
 24 26  1  0
 24 27  1  0
 27 28  1  0
 27 29  1  0
 27 30  1  0
 30 31  1  0
 30 32  1  0
 30 33  1  0
 33 34  1  0
 33 35  1  0
 33 36  1  0
 36 37  1  0
 36 38  1  0
  2 39  1  0
 39 40  2  0
 40 41  1  0
 40 42  1  0
 42 43  2  0
 43 44  1  0
 43 45  1  0
 45 46  1  0
 45 47  2  0
 47 48  1  0
 18  5  1  0
 36 22  1  0
 47 39  1  0
 15  7  1  0
M  END
>  <UniqueID>  (59) 
463

>  <SMILES>  (59) 
S=c1c2cnccc2nc(/C=C/c2cccnc2)n1CC1CCCCC1

>  <Energy>  (59) 
77.36028234774595

>  <Genealogy>  (59) 
S=c1c2cnccc2nc(/C=C/c2cccnc2)n1CC1CCCCC1 (cis-trans isomerization)
S=c1c2cnccc2nc(/C=C/c2cccnc2)n1CC1CCCCC1 (3D coordinates assigned)
S=c1c2cnccc2nc(/C=C/c2cccnc2)n1CC1CCCCC1 (nonaromatic ring conformer: 77.36028234774595 kcal/mol)

>  <smiles>  (59) 
S=c1c2cnccc2nc(/C=C/c2cccnc2)n1CC1CCCCC1

>  <score_type>  (59) 
oracle

>  <origin>  (59) 
autodockgpu

>  <m_score__min__energy>  (59) 
-7.1799999999999997

>  <m_primary>  (59) 
energy

>  <meeko>  (59) 
{"free_energy": -6.74, "intermolecular_energy": -8.24, "internal_energy": -1.42, "cluster_size": 7, "cluster_id": 2, "rank_in_cluster": 7}

>  <energy>  (59) 
-5.82

>  <cluster_rmsd>  (59) 
0.0

>  <rmsd>  (59) 
270.78

>  <cluster>  (59) 
5

$$$$
VFWNAPSESRSYPS-CMDGGOBGNA-N
     RDKit          3D

 48 51  0  0  0  0  0  0  0  0999 V2000
  143.2317   75.4561  218.0952 H   0  0  0  0  0  0  0  0  0  0  0  0
  143.4600   75.3150  219.1620 C   0  0  0  0  0  0  0  0  0  0  0  0
  142.8260   76.0920  220.0540 C   0  0  0  0  0  0  0  0  0  0  0  0
  143.3233   77.0047  220.4142 H   0  0  0  0  0  0  0  0  0  0  0  0
  141.4660   75.7560  220.5730 C   0  0  0  0  0  0  0  0  0  0  0  0
  141.2010   74.4430  220.7930 N   0  0  0  0  0  0  0  0  0  0  0  0
  140.0170   74.0080  221.2660 C   0  0  0  0  0  0  0  0  0  0  0  0
  139.8080   72.6400  221.4530 C   0  0  0  0  0  0  0  0  0  0  0  0
  140.5998   71.9182  221.2040 H   0  0  0  0  0  0  0  0  0  0  0  0
  138.5870   72.1980  221.9580 C   0  0  0  0  0  0  0  0  0  0  0  0
  138.4105   71.1229  222.1095 H   0  0  0  0  0  0  0  0  0  0  0  0
  137.6150   73.0960  222.2630 N   0  0  0  0  0  0  0  0  0  0  0  0
  137.7920   74.4330  222.0950 C   0  0  0  0  0  0  0  0  0  0  0  0
  136.9820   75.1296  222.3569 H   0  0  0  0  0  0  0  0  0  0  0  0
  139.0130   74.9330  221.5850 C   0  0  0  0  0  0  0  0  0  0  0  0
  139.2830   76.3110  221.3830 C   0  0  0  0  0  0  0  0  0  0  0  0
  138.1730   77.4210  221.9160 S   0  0  0  0  0  0  0  0  0  0  0  0
  140.4890   76.7110  220.8180 N   0  0  0  0  0  0  0  0  0  0  0  0
  140.7490   78.1500  220.5210 C   0  0  0  0  0  0  0  0  0  0  0  0
  141.3738   78.2077  219.6175 H   0  0  0  0  0  0  0  0  0  0  0  0
  139.7662   78.6273  220.3930 H   0  0  0  0  0  0  0  0  0  0  0  0
  141.4740   78.9220  221.6660 C   0  0  0  0  0  0  0  0  0  0  0  0
  142.5168   78.5815  221.5851 H   0  0  0  0  0  0  0  0  0  0  0  0
  141.4960   80.4650  221.4880 C   0  0  0  0  0  0  0  0  0  0  0  0
  142.2638   80.7182  220.7421 H   0  0  0  0  0  0  0  0  0  0  0  0
  140.4876   80.7675  221.1694 H   0  0  0  0  0  0  0  0  0  0  0  0
  141.8090   81.2330  222.7910 C   0  0  0  0  0  0  0  0  0  0  0  0
  142.3848   82.1362  222.5405 H   0  0  0  0  0  0  0  0  0  0  0  0
  140.8527   81.4887  223.2708 H   0  0  0  0  0  0  0  0  0  0  0  0
  142.6190   80.3900  223.7770 C   0  0  0  0  0  0  0  0  0  0  0  0
  143.5705   80.1035  223.3052 H   0  0  0  0  0  0  0  0  0  0  0  0
  142.7963   80.9908  224.6812 H   0  0  0  0  0  0  0  0  0  0  0  0
  141.8580   79.1140  224.1850 C   0  0  0  0  0  0  0  0  0  0  0  0
  142.5931   78.3431  224.4594 H   0  0  0  0  0  0  0  0  0  0  0  0
  141.2021   79.3838  225.0258 H   0  0  0  0  0  0  0  0  0  0  0  0
  140.9540   78.5510  223.0670 C   0  0  0  0  0  0  0  0  0  0  0  0
  140.9204   77.4550  223.1551 H   0  0  0  0  0  0  0  0  0  0  0  0
  139.9522   78.9895  223.1857 H   0  0  0  0  0  0  0  0  0  0  0  0
  144.4520   74.2760  219.5350 C   0  0  0  0  0  0  0  0  0  0  0  0
  144.8740   73.3580  218.5590 C   0  0  0  0  0  0  0  0  0  0  0  0
  144.4736   73.4257  217.5367 H   0  0  0  0  0  0  0  0  0  0  0  0
  145.7730   72.3870  218.8680 N   0  0  0  0  0  0  0  0  0  0  0  0
  146.2870   72.2610  220.1200 C   0  0  0  0  0  0  0  0  0  0  0  0
  147.0184   71.4685  220.3367 H   0  0  0  0  0  0  0  0  0  0  0  0
  145.8880   73.1350  221.1290 C   0  0  0  0  0  0  0  0  0  0  0  0
  146.2961   73.0318  222.1453 H   0  0  0  0  0  0  0  0  0  0  0  0
  144.9660   74.1430  220.8400 C   0  0  0  0  0  0  0  0  0  0  0  0
  144.6407   74.8338  221.6318 H   0  0  0  0  0  0  0  0  0  0  0  0
  1  2  1  0
  2  3  2  0
  3  4  1  0
  3  5  1  0
  5  6  2  0
  6  7  1  0
  7  8  2  0
  8  9  1  0
  8 10  1  0
 10 11  1  0
 10 12  2  0
 12 13  1  0
 13 14  1  0
 13 15  2  0
 15 16  1  0
 16 17  2  0
 16 18  1  0
 18 19  1  0
 19 20  1  0
 19 21  1  0
 19 22  1  0
 22 23  1  0
 22 24  1  0
 24 25  1  0
 24 26  1  0
 24 27  1  0
 27 28  1  0
 27 29  1  0
 27 30  1  0
 30 31  1  0
 30 32  1  0
 30 33  1  0
 33 34  1  0
 33 35  1  0
 33 36  1  0
 36 37  1  0
 36 38  1  0
  2 39  1  0
 39 40  2  0
 40 41  1  0
 40 42  1  0
 42 43  2  0
 43 44  1  0
 43 45  1  0
 45 46  1  0
 45 47  2  0
 47 48  1  0
 18  5  1  0
 36 22  1  0
 47 39  1  0
 15  7  1  0
M  END
>  <UniqueID>  (60) 
463

>  <SMILES>  (60) 
S=c1c2cnccc2nc(/C=C/c2cccnc2)n1CC1CCCCC1

>  <Energy>  (60) 
77.36028234774595

>  <Genealogy>  (60) 
S=c1c2cnccc2nc(/C=C/c2cccnc2)n1CC1CCCCC1 (cis-trans isomerization)
S=c1c2cnccc2nc(/C=C/c2cccnc2)n1CC1CCCCC1 (3D coordinates assigned)
S=c1c2cnccc2nc(/C=C/c2cccnc2)n1CC1CCCCC1 (nonaromatic ring conformer: 77.36028234774595 kcal/mol)

>  <smiles>  (60) 
S=c1c2cnccc2nc(/C=C/c2cccnc2)n1CC1CCCCC1

>  <score_type>  (60) 
oracle

>  <origin>  (60) 
autodockgpu

>  <m_score__min__energy>  (60) 
-7.1799999999999997

>  <m_primary>  (60) 
energy

>  <meeko>  (60) 
{"free_energy": -7.06, "intermolecular_energy": -8.56, "internal_energy": -1.18, "cluster_size": 7, "cluster_id": 2, "rank_in_cluster": 4}

>  <energy>  (60) 
-5.81

>  <cluster_rmsd>  (60) 
0.03

>  <rmsd>  (60) 
270.78

>  <cluster>  (60) 
5

$$$$
VFWNAPSESRSYPS-CMDGGOBGNA-N
     RDKit          3D

 48 51  0  0  0  0  0  0  0  0999 V2000
  141.2088   76.0404  223.0641 H   0  0  0  0  0  0  0  0  0  0  0  0
  141.0760   76.7910  222.2710 C   0  0  0  0  0  0  0  0  0  0  0  0
  140.8950   76.3580  221.0130 C   0  0  0  0  0  0  0  0  0  0  0  0
  139.9013   76.4594  220.5522 H   0  0  0  0  0  0  0  0  0  0  0  0
  142.0010   75.7430  220.2200 C   0  0  0  0  0  0  0  0  0  0  0  0
  142.7900   74.8430  220.8620 N   0  0  0  0  0  0  0  0  0  0  0  0
  143.8160   74.2120  220.2580 C   0  0  0  0  0  0  0  0  0  0  0  0
  144.5960   73.3110  220.9850 C   0  0  0  0  0  0  0  0  0  0  0  0
  144.3843   73.1255  222.0484 H   0  0  0  0  0  0  0  0  0  0  0  0
  145.6450   72.6490  220.3510 C   0  0  0  0  0  0  0  0  0  0  0  0
  146.2663   71.9365  220.9134 H   0  0  0  0  0  0  0  0  0  0  0  0
  145.9000   72.8840  219.0380 N   0  0  0  0  0  0  0  0  0  0  0  0
  145.1550   73.7540  218.3060 C   0  0  0  0  0  0  0  0  0  0  0  0
  145.3908   73.9164  217.2439 H   0  0  0  0  0  0  0  0  0  0  0  0
  144.0780   74.4520  218.9020 C   0  0  0  0  0  0  0  0  0  0  0  0
  143.2480   75.3710  218.2110 C   0  0  0  0  0  0  0  0  0  0  0  0
  143.4390   75.5310  216.5730 S   0  0  0  0  0  0  0  0  0  0  0  0
  142.2510   76.0600  218.8920 N   0  0  0  0  0  0  0  0  0  0  0  0
  141.4290   77.0920  218.1950 C   0  0  0  0  0  0  0  0  0  0  0  0
  141.7213   77.1066  217.1346 H   0  0  0  0  0  0  0  0  0  0  0  0
  140.3764   76.8099  218.3448 H   0  0  0  0  0  0  0  0  0  0  0  0
  141.5900   78.5350  218.7660 C   0  0  0  0  0  0  0  0  0  0  0  0
  142.0707   78.3742  219.7423 H   0  0  0  0  0  0  0  0  0  0  0  0
  142.5440   79.4470  217.9490 C   0  0  0  0  0  0  0  0  0  0  0  0
  143.5809   79.1673  218.1868 H   0  0  0  0  0  0  0  0  0  0  0  0
  142.3033   79.2960  216.8863 H   0  0  0  0  0  0  0  0  0  0  0  0
  142.3640   80.9530  218.2450 C   0  0  0  0  0  0  0  0  0  0  0  0
  143.3428   81.4489  218.1678 H   0  0  0  0  0  0  0  0  0  0  0  0
  141.6513   81.3589  217.5120 H   0  0  0  0  0  0  0  0  0  0  0  0
  141.7940   81.2020  219.6430 C   0  0  0  0  0  0  0  0  0  0  0  0
  142.4833   80.7819  220.3902 H   0  0  0  0  0  0  0  0  0  0  0  0
  141.6809   82.2874  219.7816 H   0  0  0  0  0  0  0  0  0  0  0  0
  140.4110   80.5460  219.8130 C   0  0  0  0  0  0  0  0  0  0  0  0
  140.2641   80.3152  220.8784 H   0  0  0  0  0  0  0  0  0  0  0  0
  139.6659   81.2606  219.4334 H   0  0  0  0  0  0  0  0  0  0  0  0
  140.2420   79.2420  219.0030 C   0  0  0  0  0  0  0  0  0  0  0  0
  139.5767   78.5631  219.5565 H   0  0  0  0  0  0  0  0  0  0  0  0
  139.8161   79.5020  218.0227 H   0  0  0  0  0  0  0  0  0  0  0  0
  141.1070   78.2250  222.6520 C   0  0  0  0  0  0  0  0  0  0  0  0
  139.9210   78.8390  223.0850 C   0  0  0  0  0  0  0  0  0  0  0  0
  138.9927   78.2518  223.1446 H   0  0  0  0  0  0  0  0  0  0  0  0
  139.9110   80.1530  223.4310 N   0  0  0  0  0  0  0  0  0  0  0  0
  141.0310   80.9180  223.3650 C   0  0  0  0  0  0  0  0  0  0  0  0
  140.9910   81.9773  223.6589 H   0  0  0  0  0  0  0  0  0  0  0  0
  142.2320   80.3620  222.9250 C   0  0  0  0  0  0  0  0  0  0  0  0
  143.1401   80.9797  222.8637 H   0  0  0  0  0  0  0  0  0  0  0  0
  142.2710   79.0140  222.5630 C   0  0  0  0  0  0  0  0  0  0  0  0
  143.2115   78.5675  222.2079 H   0  0  0  0  0  0  0  0  0  0  0  0
  1  2  1  0
  2  3  2  0
  3  4  1  0
  3  5  1  0
  5  6  2  0
  6  7  1  0
  7  8  2  0
  8  9  1  0
  8 10  1  0
 10 11  1  0
 10 12  2  0
 12 13  1  0
 13 14  1  0
 13 15  2  0
 15 16  1  0
 16 17  2  0
 16 18  1  0
 18 19  1  0
 19 20  1  0
 19 21  1  0
 19 22  1  0
 22 23  1  0
 22 24  1  0
 24 25  1  0
 24 26  1  0
 24 27  1  0
 27 28  1  0
 27 29  1  0
 27 30  1  0
 30 31  1  0
 30 32  1  0
 30 33  1  0
 33 34  1  0
 33 35  1  0
 33 36  1  0
 36 37  1  0
 36 38  1  0
  2 39  1  0
 39 40  2  0
 40 41  1  0
 40 42  1  0
 42 43  2  0
 43 44  1  0
 43 45  1  0
 45 46  1  0
 45 47  2  0
 47 48  1  0
 18  5  1  0
 36 22  1  0
 47 39  1  0
 15  7  1  0
M  END
>  <UniqueID>  (61) 
464

>  <SMILES>  (61) 
S=c1c2cnccc2nc(/C=C/c2cccnc2)n1CC1CCCCC1

>  <Energy>  (61) 
77.60803565479762

>  <Genealogy>  (61) 
S=c1c2cnccc2nc(/C=C/c2cccnc2)n1CC1CCCCC1 (cis-trans isomerization)
S=c1c2cnccc2nc(/C=C/c2cccnc2)n1CC1CCCCC1 (3D coordinates assigned)
S=c1c2cnccc2nc(/C=C/c2cccnc2)n1CC1CCCCC1 (nonaromatic ring conformer: 77.60803565479762 kcal/mol)

>  <smiles>  (61) 
S=c1c2cnccc2nc(/C=C/c2cccnc2)n1CC1CCCCC1

>  <score_type>  (61) 
oracle

>  <origin>  (61) 
autodockgpu

>  <m_score__min__energy>  (61) 
-7.1799999999999997

>  <m_primary>  (61) 
energy

>  <meeko>  (61) 
{"free_energy": -6.45, "intermolecular_energy": -7.94, "internal_energy": -1.83, "cluster_size": 9, "cluster_id": 4, "rank_in_cluster": 3}

>  <energy>  (61) 
-7.18

>  <cluster_rmsd>  (61) 
0.0

>  <rmsd>  (61) 
270.2

>  <cluster>  (61) 
1

$$$$
VFWNAPSESRSYPS-CMDGGOBGNA-N
     RDKit          3D

 48 51  0  0  0  0  0  0  0  0999 V2000
  143.5684   75.9610  218.1700 H   0  0  0  0  0  0  0  0  0  0  0  0
  143.5430   75.5730  219.1990 C   0  0  0  0  0  0  0  0  0  0  0  0
  142.6960   76.1430  220.0700 C   0  0  0  0  0  0  0  0  0  0  0  0
  142.8679   77.1858  220.3751 H   0  0  0  0  0  0  0  0  0  0  0  0
  141.5280   75.4070  220.6380 C   0  0  0  0  0  0  0  0  0  0  0  0
  141.7100   74.0910  220.9190 N   0  0  0  0  0  0  0  0  0  0  0  0
  140.7390   73.3170  221.4410 C   0  0  0  0  0  0  0  0  0  0  0  0
  140.9920   71.9660  221.6900 C   0  0  0  0  0  0  0  0  0  0  0  0
  141.9737   71.5315  221.4502 H   0  0  0  0  0  0  0  0  0  0  0  0
  139.9890   71.1740  222.2450 C   0  0  0  0  0  0  0  0  0  0  0  0
  140.1765   70.1088  222.4456 H   0  0  0  0  0  0  0  0  0  0  0  0
  138.7800   71.7180  222.5380 N   0  0  0  0  0  0  0  0  0  0  0  0
  138.5070   73.0300  222.3100 C   0  0  0  0  0  0  0  0  0  0  0  0
  137.5165   73.4354  222.5640 H   0  0  0  0  0  0  0  0  0  0  0  0
  139.4920   73.8770  221.7470 C   0  0  0  0  0  0  0  0  0  0  0  0
  139.2930   75.2560  221.4820 C   0  0  0  0  0  0  0  0  0  0  0  0
  137.8870   75.9660  221.9970 S   0  0  0  0  0  0  0  0  0  0  0  0
  140.2950   76.0010  220.8690 N   0  0  0  0  0  0  0  0  0  0  0  0
  140.0660   77.4290  220.5060 C   0  0  0  0  0  0  0  0  0  0  0  0
  140.5752   77.6273  219.5513 H   0  0  0  0  0  0  0  0  0  0  0  0
  138.9763   77.5674  220.4473 H   0  0  0  0  0  0  0  0  0  0  0  0
  140.5890   78.4530  221.5600 C   0  0  0  0  0  0  0  0  0  0  0  0
  139.7285   79.1189  221.7215 H   0  0  0  0  0  0  0  0  0  0  0  0
  140.9340   77.8350  222.9410 C   0  0  0  0  0  0  0  0  0  0  0  0
  139.9955   77.6553  223.4858 H   0  0  0  0  0  0  0  0  0  0  0  0
  141.4906   76.9059  222.7487 H   0  0  0  0  0  0  0  0  0  0  0  0
  141.8400   78.7340  223.8120 C   0  0  0  0  0  0  0  0  0  0  0  0
  141.5657   78.5962  224.8683 H   0  0  0  0  0  0  0  0  0  0  0  0
  142.8841   78.4406  223.6284 H   0  0  0  0  0  0  0  0  0  0  0  0
  141.6980   80.2150  223.4550 C   0  0  0  0  0  0  0  0  0  0  0  0
  140.6532   80.5219  223.6105 H   0  0  0  0  0  0  0  0  0  0  0  0
  142.3753   80.7929  224.1010 H   0  0  0  0  0  0  0  0  0  0  0  0
  142.0850   80.4800  221.9870 C   0  0  0  0  0  0  0  0  0  0  0  0
  141.5353   81.3661  221.6368 H   0  0  0  0  0  0  0  0  0  0  0  0
  143.1748   80.6273  221.9619 H   0  0  0  0  0  0  0  0  0  0  0  0
  141.7650   79.3020  221.0420 C   0  0  0  0  0  0  0  0  0  0  0  0
  141.5054   79.7018  220.0507 H   0  0  0  0  0  0  0  0  0  0  0  0
  142.6540   78.6564  220.9890 H   0  0  0  0  0  0  0  0  0  0  0  0
  144.4470   74.4490  219.5460 C   0  0  0  0  0  0  0  0  0  0  0  0
  144.7990   73.5260  218.5470 C   0  0  0  0  0  0  0  0  0  0  0  0
  144.4105   73.6524  217.5257 H   0  0  0  0  0  0  0  0  0  0  0  0
  145.6160   72.4780  218.8330 N   0  0  0  0  0  0  0  0  0  0  0  0
  146.1120   72.2780  220.0820 C   0  0  0  0  0  0  0  0  0  0  0  0
  146.7760   71.4235  220.2793 H   0  0  0  0  0  0  0  0  0  0  0  0
  145.7800   73.1550  221.1140 C   0  0  0  0  0  0  0  0  0  0  0  0
  146.1745   72.9937  222.1281 H   0  0  0  0  0  0  0  0  0  0  0  0
  144.9420   74.2400  220.8480 C   0  0  0  0  0  0  0  0  0  0  0  0
  144.6679   74.9330  221.6571 H   0  0  0  0  0  0  0  0  0  0  0  0
  1  2  1  0
  2  3  2  0
  3  4  1  0
  3  5  1  0
  5  6  2  0
  6  7  1  0
  7  8  2  0
  8  9  1  0
  8 10  1  0
 10 11  1  0
 10 12  2  0
 12 13  1  0
 13 14  1  0
 13 15  2  0
 15 16  1  0
 16 17  2  0
 16 18  1  0
 18 19  1  0
 19 20  1  0
 19 21  1  0
 19 22  1  0
 22 23  1  0
 22 24  1  0
 24 25  1  0
 24 26  1  0
 24 27  1  0
 27 28  1  0
 27 29  1  0
 27 30  1  0
 30 31  1  0
 30 32  1  0
 30 33  1  0
 33 34  1  0
 33 35  1  0
 33 36  1  0
 36 37  1  0
 36 38  1  0
  2 39  1  0
 39 40  2  0
 40 41  1  0
 40 42  1  0
 42 43  2  0
 43 44  1  0
 43 45  1  0
 45 46  1  0
 45 47  2  0
 47 48  1  0
 18  5  1  0
 36 22  1  0
 47 39  1  0
 15  7  1  0
M  END
>  <UniqueID>  (62) 
464

>  <SMILES>  (62) 
S=c1c2cnccc2nc(/C=C/c2cccnc2)n1CC1CCCCC1

>  <Energy>  (62) 
77.60803565479762

>  <Genealogy>  (62) 
S=c1c2cnccc2nc(/C=C/c2cccnc2)n1CC1CCCCC1 (cis-trans isomerization)
S=c1c2cnccc2nc(/C=C/c2cccnc2)n1CC1CCCCC1 (3D coordinates assigned)
S=c1c2cnccc2nc(/C=C/c2cccnc2)n1CC1CCCCC1 (nonaromatic ring conformer: 77.60803565479762 kcal/mol)

>  <smiles>  (62) 
S=c1c2cnccc2nc(/C=C/c2cccnc2)n1CC1CCCCC1

>  <score_type>  (62) 
oracle

>  <origin>  (62) 
autodockgpu

>  <m_score__min__energy>  (62) 
-7.1799999999999997

>  <m_primary>  (62) 
energy

>  <meeko>  (62) 
{"free_energy": -6.92, "intermolecular_energy": -8.42, "internal_energy": -1.47, "cluster_size": 7, "cluster_id": 2, "rank_in_cluster": 6}

>  <energy>  (62) 
-7.14

>  <cluster_rmsd>  (62) 
0.0

>  <rmsd>  (62) 
270.14

>  <cluster>  (62) 
2

$$$$
VFWNAPSESRSYPS-CMDGGOBGNA-N
     RDKit          3D

 48 51  0  0  0  0  0  0  0  0999 V2000
  138.9087   71.7944  221.4174 H   0  0  0  0  0  0  0  0  0  0  0  0
  139.5010   72.2700  222.2130 C   0  0  0  0  0  0  0  0  0  0  0  0
  140.0280   73.4810  221.9730 C   0  0  0  0  0  0  0  0  0  0  0  0
  139.5182   74.3717  222.3688 H   0  0  0  0  0  0  0  0  0  0  0  0
  141.2840   73.6570  221.1860 C   0  0  0  0  0  0  0  0  0  0  0  0
  142.1190   72.5880  221.1150 N   0  0  0  0  0  0  0  0  0  0  0  0
  143.2800   72.6140  220.4320 C   0  0  0  0  0  0  0  0  0  0  0  0
  144.0970   71.4820  220.4170 C   0  0  0  0  0  0  0  0  0  0  0  0
  143.8033   70.5777  220.9701 H   0  0  0  0  0  0  0  0  0  0  0  0
  145.2890   71.5090  219.6940 C   0  0  0  0  0  0  0  0  0  0  0  0
  145.9416   70.6237  219.6748 H   0  0  0  0  0  0  0  0  0  0  0  0
  145.6430   72.6290  219.0140 N   0  0  0  0  0  0  0  0  0  0  0  0
  144.8650   73.7440  219.0090 C   0  0  0  0  0  0  0  0  0  0  0  0
  145.1848   74.6319  218.4439 H   0  0  0  0  0  0  0  0  0  0  0  0
  143.6460   73.7680  219.7270 C   0  0  0  0  0  0  0  0  0  0  0  0
  142.7740   74.8850  219.7700 C   0  0  0  0  0  0  0  0  0  0  0  0
  143.1100   76.1900  218.8040 S   0  0  0  0  0  0  0  0  0  0  0  0
  141.6250   74.8440  220.5520 N   0  0  0  0  0  0  0  0  0  0  0  0
  140.7450   76.0430  220.6740 C   0  0  0  0  0  0  0  0  0  0  0  0
  140.4452   76.3543  219.6625 H   0  0  0  0  0  0  0  0  0  0  0  0
  139.8918   75.7443  221.3007 H   0  0  0  0  0  0  0  0  0  0  0  0
  141.4130   77.2620  221.3820 C   0  0  0  0  0  0  0  0  0  0  0  0
  142.4343   76.9107  221.5904 H   0  0  0  0  0  0  0  0  0  0  0  0
  141.5530   78.5260  220.4910 C   0  0  0  0  0  0  0  0  0  0  0  0
  142.4002   78.3764  219.8056 H   0  0  0  0  0  0  0  0  0  0  0  0
  140.6000   78.6514  219.9562 H   0  0  0  0  0  0  0  0  0  0  0  0
  141.7970   79.8240  221.2940 C   0  0  0  0  0  0  0  0  0  0  0  0
  142.4522   80.4854  220.7081 H   0  0  0  0  0  0  0  0  0  0  0  0
  140.8203   80.2936  221.4825 H   0  0  0  0  0  0  0  0  0  0  0  0
  142.4560   79.5500  222.6470 C   0  0  0  0  0  0  0  0  0  0  0  0
  143.4253   79.0577  222.4796 H   0  0  0  0  0  0  0  0  0  0  0  0
  142.5898   80.5100  223.1671 H   0  0  0  0  0  0  0  0  0  0  0  0
  141.5780   78.6410  223.5270 C   0  0  0  0  0  0  0  0  0  0  0  0
  142.2321   78.0880  224.2172 H   0  0  0  0  0  0  0  0  0  0  0  0
  140.8675   79.2929  224.0563 H   0  0  0  0  0  0  0  0  0  0  0  0
  140.7440   77.6210  222.7220 C   0  0  0  0  0  0  0  0  0  0  0  0
  140.6301   76.7044  223.3194 H   0  0  0  0  0  0  0  0  0  0  0  0
  139.7667   78.0763  222.5039 H   0  0  0  0  0  0  0  0  0  0  0  0
  139.6730   71.5370  223.4920 C   0  0  0  0  0  0  0  0  0  0  0  0
  138.7550   70.5290  223.8260 C   0  0  0  0  0  0  0  0  0  0  0  0
  137.9310   70.2914  223.1371 H   0  0  0  0  0  0  0  0  0  0  0  0
  138.8760   69.8440  224.9940 N   0  0  0  0  0  0  0  0  0  0  0  0
  139.8730   70.1100  225.8780 C   0  0  0  0  0  0  0  0  0  0  0  0
  139.9475   69.5338  226.8121 H   0  0  0  0  0  0  0  0  0  0  0  0
  140.8020   71.1130  225.6020 C   0  0  0  0  0  0  0  0  0  0  0  0
  141.6071   71.3358  226.3177 H   0  0  0  0  0  0  0  0  0  0  0  0
  140.7010   71.8320  224.4090 C   0  0  0  0  0  0  0  0  0  0  0  0
  141.4249   72.6294  224.1851 H   0  0  0  0  0  0  0  0  0  0  0  0
  1  2  1  0
  2  3  2  0
  3  4  1  0
  3  5  1  0
  5  6  2  0
  6  7  1  0
  7  8  2  0
  8  9  1  0
  8 10  1  0
 10 11  1  0
 10 12  2  0
 12 13  1  0
 13 14  1  0
 13 15  2  0
 15 16  1  0
 16 17  2  0
 16 18  1  0
 18 19  1  0
 19 20  1  0
 19 21  1  0
 19 22  1  0
 22 23  1  0
 22 24  1  0
 24 25  1  0
 24 26  1  0
 24 27  1  0
 27 28  1  0
 27 29  1  0
 27 30  1  0
 30 31  1  0
 30 32  1  0
 30 33  1  0
 33 34  1  0
 33 35  1  0
 33 36  1  0
 36 37  1  0
 36 38  1  0
  2 39  1  0
 39 40  2  0
 40 41  1  0
 40 42  1  0
 42 43  2  0
 43 44  1  0
 43 45  1  0
 45 46  1  0
 45 47  2  0
 47 48  1  0
 18  5  1  0
 36 22  1  0
 47 39  1  0
 15  7  1  0
M  END
>  <UniqueID>  (63) 
464

>  <SMILES>  (63) 
S=c1c2cnccc2nc(/C=C/c2cccnc2)n1CC1CCCCC1

>  <Energy>  (63) 
77.60803565479762

>  <Genealogy>  (63) 
S=c1c2cnccc2nc(/C=C/c2cccnc2)n1CC1CCCCC1 (cis-trans isomerization)
S=c1c2cnccc2nc(/C=C/c2cccnc2)n1CC1CCCCC1 (3D coordinates assigned)
S=c1c2cnccc2nc(/C=C/c2cccnc2)n1CC1CCCCC1 (nonaromatic ring conformer: 77.60803565479762 kcal/mol)

>  <smiles>  (63) 
S=c1c2cnccc2nc(/C=C/c2cccnc2)n1CC1CCCCC1

>  <score_type>  (63) 
oracle

>  <origin>  (63) 
autodockgpu

>  <m_score__min__energy>  (63) 
-7.1799999999999997

>  <m_primary>  (63) 
energy

>  <meeko>  (63) 
{"free_energy": -7.18, "intermolecular_energy": -8.67, "internal_energy": -1.07, "cluster_size": 1, "cluster_id": 1, "rank_in_cluster": 1}

>  <energy>  (63) 
-7.14

>  <cluster_rmsd>  (63) 
0.04

>  <rmsd>  (63) 
270.15

>  <cluster>  (63) 
2

$$$$
VFWNAPSESRSYPS-CMDGGOBGNA-N
     RDKit          3D

 48 51  0  0  0  0  0  0  0  0999 V2000
  141.2252   76.0288  223.0861 H   0  0  0  0  0  0  0  0  0  0  0  0
  141.0750   76.7750  222.2920 C   0  0  0  0  0  0  0  0  0  0  0  0
  140.8900   76.3360  221.0360 C   0  0  0  0  0  0  0  0  0  0  0  0
  139.8921   76.4261  220.5820 H   0  0  0  0  0  0  0  0  0  0  0  0
  141.9950   75.7300  220.2370 C   0  0  0  0  0  0  0  0  0  0  0  0
  142.7890   74.8290  220.8720 N   0  0  0  0  0  0  0  0  0  0  0  0
  143.8150   74.2050  220.2620 C   0  0  0  0  0  0  0  0  0  0  0  0
  144.6000   73.3010  220.9820 C   0  0  0  0  0  0  0  0  0  0  0  0
  144.3911   73.1075  222.0445 H   0  0  0  0  0  0  0  0  0  0  0  0
  145.6500   72.6470  220.3410 C   0  0  0  0  0  0  0  0  0  0  0  0
  146.2753   71.9334  220.8975 H   0  0  0  0  0  0  0  0  0  0  0  0
  145.9010   72.8910  219.0290 N   0  0  0  0  0  0  0  0  0  0  0  0
  145.1520   73.7630  218.3040 C   0  0  0  0  0  0  0  0  0  0  0  0
  145.3851   73.9333  217.2426 H   0  0  0  0  0  0  0  0  0  0  0  0
  144.0740   74.4530  218.9070 C   0  0  0  0  0  0  0  0  0  0  0  0
  143.2400   75.3740  218.2230 C   0  0  0  0  0  0  0  0  0  0  0  0
  143.4270   75.5450  216.5850 S   0  0  0  0  0  0  0  0  0  0  0  0
  142.2410   76.0550  218.9100 N   0  0  0  0  0  0  0  0  0  0  0  0
  141.4150   77.0900  218.2220 C   0  0  0  0  0  0  0  0  0  0  0  0
  141.6956   77.1030  217.1585 H   0  0  0  0  0  0  0  0  0  0  0  0
  140.3634   76.8114  218.3847 H   0  0  0  0  0  0  0  0  0  0  0  0
  141.5860   78.5320  218.7890 C   0  0  0  0  0  0  0  0  0  0  0  0
  142.0591   78.3685  219.7685 H   0  0  0  0  0  0  0  0  0  0  0  0
  142.5540   79.4330  217.9760 C   0  0  0  0  0  0  0  0  0  0  0  0
  143.5866   79.1441  218.2215 H   0  0  0  0  0  0  0  0  0  0  0  0
  142.3184   79.2814  216.9123 H   0  0  0  0  0  0  0  0  0  0  0  0
  142.3870   80.9410  218.2660 C   0  0  0  0  0  0  0  0  0  0  0  0
  143.3711   81.4271  218.1931 H   0  0  0  0  0  0  0  0  0  0  0  0
  141.6827   81.3515  217.5274 H   0  0  0  0  0  0  0  0  0  0  0  0
  141.8110   81.2000  219.6600 C   0  0  0  0  0  0  0  0  0  0  0  0
  142.4914   80.7752  220.4127 H   0  0  0  0  0  0  0  0  0  0  0  0
  141.7081   82.2868  219.7950 H   0  0  0  0  0  0  0  0  0  0  0  0
  140.4200   80.5580  219.8230 C   0  0  0  0  0  0  0  0  0  0  0  0
  140.2637   80.3322  220.8882 H   0  0  0  0  0  0  0  0  0  0  0  0
  139.6844   81.2786  219.4363 H   0  0  0  0  0  0  0  0  0  0  0  0
  140.2440   79.2530  219.0160 C   0  0  0  0  0  0  0  0  0  0  0  0
  139.5689   78.5822  219.5676 H   0  0  0  0  0  0  0  0  0  0  0  0
  139.8271   79.5144  218.0322 H   0  0  0  0  0  0  0  0  0  0  0  0
  141.0880   78.2100  222.6680 C   0  0  0  0  0  0  0  0  0  0  0  0
  139.8900   78.8150  223.0840 C   0  0  0  0  0  0  0  0  0  0  0  0
  138.9663   78.2198  223.1332 H   0  0  0  0  0  0  0  0  0  0  0  0
  139.8640   80.1300  223.4260 N   0  0  0  0  0  0  0  0  0  0  0  0
  140.9780   80.9050  223.3720 C   0  0  0  0  0  0  0  0  0  0  0  0
  140.9247   81.9647  223.6623 H   0  0  0  0  0  0  0  0  0  0  0  0
  142.1890   80.3590  222.9490 C   0  0  0  0  0  0  0  0  0  0  0  0
  143.0922   80.9848  222.8977 H   0  0  0  0  0  0  0  0  0  0  0  0
  142.2450   79.0100  222.5910 C   0  0  0  0  0  0  0  0  0  0  0  0
  143.1939   78.5717  222.2484 H   0  0  0  0  0  0  0  0  0  0  0  0
  1  2  1  0
  2  3  2  0
  3  4  1  0
  3  5  1  0
  5  6  2  0
  6  7  1  0
  7  8  2  0
  8  9  1  0
  8 10  1  0
 10 11  1  0
 10 12  2  0
 12 13  1  0
 13 14  1  0
 13 15  2  0
 15 16  1  0
 16 17  2  0
 16 18  1  0
 18 19  1  0
 19 20  1  0
 19 21  1  0
 19 22  1  0
 22 23  1  0
 22 24  1  0
 24 25  1  0
 24 26  1  0
 24 27  1  0
 27 28  1  0
 27 29  1  0
 27 30  1  0
 30 31  1  0
 30 32  1  0
 30 33  1  0
 33 34  1  0
 33 35  1  0
 33 36  1  0
 36 37  1  0
 36 38  1  0
  2 39  1  0
 39 40  2  0
 40 41  1  0
 40 42  1  0
 42 43  2  0
 43 44  1  0
 43 45  1  0
 45 46  1  0
 45 47  2  0
 47 48  1  0
 18  5  1  0
 36 22  1  0
 47 39  1  0
 15  7  1  0
M  END
>  <UniqueID>  (64) 
464

>  <SMILES>  (64) 
S=c1c2cnccc2nc(/C=C/c2cccnc2)n1CC1CCCCC1

>  <Energy>  (64) 
77.60803565479762

>  <Genealogy>  (64) 
S=c1c2cnccc2nc(/C=C/c2cccnc2)n1CC1CCCCC1 (cis-trans isomerization)
S=c1c2cnccc2nc(/C=C/c2cccnc2)n1CC1CCCCC1 (3D coordinates assigned)
S=c1c2cnccc2nc(/C=C/c2cccnc2)n1CC1CCCCC1 (nonaromatic ring conformer: 77.60803565479762 kcal/mol)

>  <smiles>  (64) 
S=c1c2cnccc2nc(/C=C/c2cccnc2)n1CC1CCCCC1

>  <score_type>  (64) 
oracle

>  <origin>  (64) 
autodockgpu

>  <m_score__min__energy>  (64) 
-7.1799999999999997

>  <m_primary>  (64) 
energy

>  <meeko>  (64) 
{"free_energy": -6.45, "intermolecular_energy": -7.94, "internal_energy": -1.84, "cluster_size": 9, "cluster_id": 4, "rank_in_cluster": 4}

>  <energy>  (64) 
-7.1

>  <cluster_rmsd>  (64) 
0.14

>  <rmsd>  (64) 
270.17

>  <cluster>  (64) 
2

$$$$
VFWNAPSESRSYPS-CMDGGOBGNA-N
     RDKit          3D

 48 51  0  0  0  0  0  0  0  0999 V2000
  143.6843   76.0504  218.1172 H   0  0  0  0  0  0  0  0  0  0  0  0
  143.5950   75.6480  219.1370 C   0  0  0  0  0  0  0  0  0  0  0  0
  142.7220   76.2310  219.9730 C   0  0  0  0  0  0  0  0  0  0  0  0
  142.8516   77.2946  220.2219 H   0  0  0  0  0  0  0  0  0  0  0  0
  141.5800   75.4810  220.5760 C   0  0  0  0  0  0  0  0  0  0  0  0
  141.7780   74.1620  220.8320 N   0  0  0  0  0  0  0  0  0  0  0  0
  140.8320   73.3760  221.3810 C   0  0  0  0  0  0  0  0  0  0  0  0
  141.1000   72.0240  221.6010 C   0  0  0  0  0  0  0  0  0  0  0  0
  142.0737   71.5979  221.3175 H   0  0  0  0  0  0  0  0  0  0  0  0
  140.1230   71.2190  222.1830 C   0  0  0  0  0  0  0  0  0  0  0  0
  140.3227   70.1521  222.3613 H   0  0  0  0  0  0  0  0  0  0  0  0
  138.9230   71.7540  222.5300 N   0  0  0  0  0  0  0  0  0  0  0  0
  138.6370   73.0670  222.3300 C   0  0  0  0  0  0  0  0  0  0  0  0
  137.6550   73.4640  222.6268 H   0  0  0  0  0  0  0  0  0  0  0  0
  139.5950   73.9270  221.7420 C   0  0  0  0  0  0  0  0  0  0  0  0
  139.3800   75.3080  221.5030 C   0  0  0  0  0  0  0  0  0  0  0  0
  137.9920   76.0040  222.0820 S   0  0  0  0  0  0  0  0  0  0  0  0
  140.3540   76.0650  220.8630 N   0  0  0  0  0  0  0  0  0  0  0  0
  140.1050   77.4980  220.5280 C   0  0  0  0  0  0  0  0  0  0  0  0
  140.6049   77.7203  219.5737 H   0  0  0  0  0  0  0  0  0  0  0  0
  139.0133   77.6243  220.4793 H   0  0  0  0  0  0  0  0  0  0  0  0
  140.6230   78.5080  221.5970 C   0  0  0  0  0  0  0  0  0  0  0  0
  139.7703   79.1874  221.7432 H   0  0  0  0  0  0  0  0  0  0  0  0
  140.9290   77.8780  222.9830 C   0  0  0  0  0  0  0  0  0  0  0  0
  139.9764   77.7114  223.5072 H   0  0  0  0  0  0  0  0  0  0  0  0
  141.4743   76.9408  222.7980 H   0  0  0  0  0  0  0  0  0  0  0  0
  141.8310   78.7580  223.8770 C   0  0  0  0  0  0  0  0  0  0  0  0
  141.5319   78.6207  224.9266 H   0  0  0  0  0  0  0  0  0  0  0  0
  142.8738   78.4479  223.7148 H   0  0  0  0  0  0  0  0  0  0  0  0
  141.7210   80.2430  223.5230 C   0  0  0  0  0  0  0  0  0  0  0  0
  140.6781   80.5662  223.6570 H   0  0  0  0  0  0  0  0  0  0  0  0
  142.3936   80.8069  224.1860 H   0  0  0  0  0  0  0  0  0  0  0  0
  142.1440   80.5080  222.0660 C   0  0  0  0  0  0  0  0  0  0  0  0
  141.6175   81.4053  221.7086 H   0  0  0  0  0  0  0  0  0  0  0  0
  143.2365   80.6363  222.0652 H   0  0  0  0  0  0  0  0  0  0  0  0
  141.8240   79.3400  221.1080 C   0  0  0  0  0  0  0  0  0  0  0  0
  141.5919   79.7491  220.1136 H   0  0  0  0  0  0  0  0  0  0  0  0
  142.7030   78.6798  221.0700 H   0  0  0  0  0  0  0  0  0  0  0  0
  144.4470   74.4910  219.5100 C   0  0  0  0  0  0  0  0  0  0  0  0
  144.8240   73.5750  218.5150 C   0  0  0  0  0  0  0  0  0  0  0  0
  144.4935   73.7296  217.4773 H   0  0  0  0  0  0  0  0  0  0  0  0
  145.5940   72.4990  218.8240 N   0  0  0  0  0  0  0  0  0  0  0  0
  146.0180   72.2640  220.0930 C   0  0  0  0  0  0  0  0  0  0  0  0
  146.6461   71.3871  220.3089 H   0  0  0  0  0  0  0  0  0  0  0  0
  145.6580   73.1330  221.1220 C   0  0  0  0  0  0  0  0  0  0  0  0
  145.9939   72.9429  222.1521 H   0  0  0  0  0  0  0  0  0  0  0  0
  144.8670   74.2470  220.8330 C   0  0  0  0  0  0  0  0  0  0  0  0
  144.5714   74.9349  221.6389 H   0  0  0  0  0  0  0  0  0  0  0  0
  1  2  1  0
  2  3  2  0
  3  4  1  0
  3  5  1  0
  5  6  2  0
  6  7  1  0
  7  8  2  0
  8  9  1  0
  8 10  1  0
 10 11  1  0
 10 12  2  0
 12 13  1  0
 13 14  1  0
 13 15  2  0
 15 16  1  0
 16 17  2  0
 16 18  1  0
 18 19  1  0
 19 20  1  0
 19 21  1  0
 19 22  1  0
 22 23  1  0
 22 24  1  0
 24 25  1  0
 24 26  1  0
 24 27  1  0
 27 28  1  0
 27 29  1  0
 27 30  1  0
 30 31  1  0
 30 32  1  0
 30 33  1  0
 33 34  1  0
 33 35  1  0
 33 36  1  0
 36 37  1  0
 36 38  1  0
  2 39  1  0
 39 40  2  0
 40 41  1  0
 40 42  1  0
 42 43  2  0
 43 44  1  0
 43 45  1  0
 45 46  1  0
 45 47  2  0
 47 48  1  0
 18  5  1  0
 36 22  1  0
 47 39  1  0
 15  7  1  0
M  END
>  <UniqueID>  (65) 
464

>  <SMILES>  (65) 
S=c1c2cnccc2nc(/C=C/c2cccnc2)n1CC1CCCCC1

>  <Energy>  (65) 
77.60803565479762

>  <Genealogy>  (65) 
S=c1c2cnccc2nc(/C=C/c2cccnc2)n1CC1CCCCC1 (cis-trans isomerization)
S=c1c2cnccc2nc(/C=C/c2cccnc2)n1CC1CCCCC1 (3D coordinates assigned)
S=c1c2cnccc2nc(/C=C/c2cccnc2)n1CC1CCCCC1 (nonaromatic ring conformer: 77.60803565479762 kcal/mol)

>  <smiles>  (65) 
S=c1c2cnccc2nc(/C=C/c2cccnc2)n1CC1CCCCC1

>  <score_type>  (65) 
oracle

>  <origin>  (65) 
autodockgpu

>  <m_score__min__energy>  (65) 
-7.1799999999999997

>  <m_primary>  (65) 
energy

>  <meeko>  (65) 
{"free_energy": -6.95, "intermolecular_energy": -8.44, "internal_energy": -1.48, "cluster_size": 7, "cluster_id": 2, "rank_in_cluster": 5}

>  <energy>  (65) 
-7.06

>  <cluster_rmsd>  (65) 
0.82

>  <rmsd>  (65) 
270.19

>  <cluster>  (65) 
2

$$$$
VFWNAPSESRSYPS-CMDGGOBGNA-N
     RDKit          3D

 48 51  0  0  0  0  0  0  0  0999 V2000
  143.6816   75.8425  218.1615 H   0  0  0  0  0  0  0  0  0  0  0  0
  143.6570   75.4640  219.1940 C   0  0  0  0  0  0  0  0  0  0  0  0
  142.8220   76.0540  220.0650 C   0  0  0  0  0  0  0  0  0  0  0  0
  143.0070   77.0985  220.3563 H   0  0  0  0  0  0  0  0  0  0  0  0
  141.6510   75.3370  220.6500 C   0  0  0  0  0  0  0  0  0  0  0  0
  141.7850   74.0000  220.8470 N   0  0  0  0  0  0  0  0  0  0  0  0
  140.8060   73.2390  221.3730 C   0  0  0  0  0  0  0  0  0  0  0  0
  141.0080   71.8660  221.5320 C   0  0  0  0  0  0  0  0  0  0  0  0
  141.9557   71.4043  221.2180 H   0  0  0  0  0  0  0  0  0  0  0  0
  139.9980   71.0870  222.0920 C   0  0  0  0  0  0  0  0  0  0  0  0
  140.1454   70.0046  222.2215 H   0  0  0  0  0  0  0  0  0  0  0  0
  138.8310   71.6650  222.4780 N   0  0  0  0  0  0  0  0  0  0  0  0
  138.6090   72.9980  222.3380 C   0  0  0  0  0  0  0  0  0  0  0  0
  137.6514   73.4301  222.6640 H   0  0  0  0  0  0  0  0  0  0  0  0
  139.6030   73.8340  221.7750 C   0  0  0  0  0  0  0  0  0  0  0  0
  139.4550   75.2330  221.5990 C   0  0  0  0  0  0  0  0  0  0  0  0
  138.1110   75.9720  222.2250 S   0  0  0  0  0  0  0  0  0  0  0  0
  140.4590   75.9680  220.9780 N   0  0  0  0  0  0  0  0  0  0  0  0
  140.2790   77.4250  220.7090 C   0  0  0  0  0  0  0  0  0  0  0  0
  140.5191   77.6119  219.6519 H   0  0  0  0  0  0  0  0  0  0  0  0
  139.2352   77.6640  220.9605 H   0  0  0  0  0  0  0  0  0  0  0  0
  141.1720   78.3570  221.5840 C   0  0  0  0  0  0  0  0  0  0  0  0
  142.1727   77.9081  221.5003 H   0  0  0  0  0  0  0  0  0  0  0  0
  141.2960   79.8110  221.0560 C   0  0  0  0  0  0  0  0  0  0  0  0
  142.0036   79.8159  220.2138 H   0  0  0  0  0  0  0  0  0  0  0  0
  140.2874   80.1326  220.7571 H   0  0  0  0  0  0  0  0  0  0  0  0
  141.7950   80.8150  222.1190 C   0  0  0  0  0  0  0  0  0  0  0  0
  142.4116   81.5791  221.6231 H   0  0  0  0  0  0  0  0  0  0  0  0
  140.9137   81.2635  222.6008 H   0  0  0  0  0  0  0  0  0  0  0  0
  142.6310   80.1360  223.2060 C   0  0  0  0  0  0  0  0  0  0  0  0
  143.5066   79.6612  222.7393 H   0  0  0  0  0  0  0  0  0  0  0  0
  142.9418   80.9019  223.9318 H   0  0  0  0  0  0  0  0  0  0  0  0
  141.8180   79.0620  223.9540 C   0  0  0  0  0  0  0  0  0  0  0  0
  142.5151   78.3026  224.3379 H   0  0  0  0  0  0  0  0  0  0  0  0
  141.2718   79.5736  224.7602 H   0  0  0  0  0  0  0  0  0  0  0  0
  140.7660   78.3570  223.0700 C   0  0  0  0  0  0  0  0  0  0  0  0
  140.6566   77.3162  223.4088 H   0  0  0  0  0  0  0  0  0  0  0  0
  139.8177   78.9064  223.1645 H   0  0  0  0  0  0  0  0  0  0  0  0
  144.5480   74.3310  219.5450 C   0  0  0  0  0  0  0  0  0  0  0  0
  144.8460   73.3710  218.5650 C   0  0  0  0  0  0  0  0  0  0  0  0
  144.4257   73.4748  217.5538 H   0  0  0  0  0  0  0  0  0  0  0  0
  145.6500   72.3140  218.8560 N   0  0  0  0  0  0  0  0  0  0  0  0
  146.1840   72.1420  220.0930 C   0  0  0  0  0  0  0  0  0  0  0  0
  146.8374   71.2803  220.2945 H   0  0  0  0  0  0  0  0  0  0  0  0
  145.9050   73.0560  221.1070 C   0  0  0  0  0  0  0  0  0  0  0  0
  146.3294   72.9157  222.1121 H   0  0  0  0  0  0  0  0  0  0  0  0
  145.0820   74.1520  220.8370 C   0  0  0  0  0  0  0  0  0  0  0  0
  144.8507   74.8753  221.6328 H   0  0  0  0  0  0  0  0  0  0  0  0
  1  2  1  0
  2  3  2  0
  3  4  1  0
  3  5  1  0
  5  6  2  0
  6  7  1  0
  7  8  2  0
  8  9  1  0
  8 10  1  0
 10 11  1  0
 10 12  2  0
 12 13  1  0
 13 14  1  0
 13 15  2  0
 15 16  1  0
 16 17  2  0
 16 18  1  0
 18 19  1  0
 19 20  1  0
 19 21  1  0
 19 22  1  0
 22 23  1  0
 22 24  1  0
 24 25  1  0
 24 26  1  0
 24 27  1  0
 27 28  1  0
 27 29  1  0
 27 30  1  0
 30 31  1  0
 30 32  1  0
 30 33  1  0
 33 34  1  0
 33 35  1  0
 33 36  1  0
 36 37  1  0
 36 38  1  0
  2 39  1  0
 39 40  2  0
 40 41  1  0
 40 42  1  0
 42 43  2  0
 43 44  1  0
 43 45  1  0
 45 46  1  0
 45 47  2  0
 47 48  1  0
 18  5  1  0
 36 22  1  0
 47 39  1  0
 15  7  1  0
M  END
>  <UniqueID>  (66) 
464

>  <SMILES>  (66) 
S=c1c2cnccc2nc(/C=C/c2cccnc2)n1CC1CCCCC1

>  <Energy>  (66) 
77.60803565479762

>  <Genealogy>  (66) 
S=c1c2cnccc2nc(/C=C/c2cccnc2)n1CC1CCCCC1 (cis-trans isomerization)
S=c1c2cnccc2nc(/C=C/c2cccnc2)n1CC1CCCCC1 (3D coordinates assigned)
S=c1c2cnccc2nc(/C=C/c2cccnc2)n1CC1CCCCC1 (nonaromatic ring conformer: 77.60803565479762 kcal/mol)

>  <smiles>  (66) 
S=c1c2cnccc2nc(/C=C/c2cccnc2)n1CC1CCCCC1

>  <score_type>  (66) 
oracle

>  <origin>  (66) 
autodockgpu

>  <m_score__min__energy>  (66) 
-7.1799999999999997

>  <m_primary>  (66) 
energy

>  <meeko>  (66) 
{"free_energy": -7.1, "intermolecular_energy": -8.59, "internal_energy": -1.34, "cluster_size": 7, "cluster_id": 2, "rank_in_cluster": 3}

>  <energy>  (66) 
-6.95

>  <cluster_rmsd>  (66) 
0.36

>  <rmsd>  (66) 
270.13

>  <cluster>  (66) 
2

$$$$
VFWNAPSESRSYPS-CMDGGOBGNA-N
     RDKit          3D

 48 51  0  0  0  0  0  0  0  0999 V2000
  143.6301   75.9010  218.1635 H   0  0  0  0  0  0  0  0  0  0  0  0
  143.5940   75.5100  219.1910 C   0  0  0  0  0  0  0  0  0  0  0  0
  142.7500   76.0890  220.0600 C   0  0  0  0  0  0  0  0  0  0  0  0
  142.9168   77.1381  220.3457 H   0  0  0  0  0  0  0  0  0  0  0  0
  141.5920   75.3540  220.6510 C   0  0  0  0  0  0  0  0  0  0  0  0
  141.7330   74.0130  220.8110 N   0  0  0  0  0  0  0  0  0  0  0  0
  140.7670   73.2370  221.3380 C   0  0  0  0  0  0  0  0  0  0  0  0
  140.9750   71.8610  221.4570 C   0  0  0  0  0  0  0  0  0  0  0  0
  141.9168   71.4099  221.1112 H   0  0  0  0  0  0  0  0  0  0  0  0
  139.9780   71.0650  222.0180 C   0  0  0  0  0  0  0  0  0  0  0  0
  140.1303   69.9801  222.1166 H   0  0  0  0  0  0  0  0  0  0  0  0
  138.8180   71.6300  222.4430 N   0  0  0  0  0  0  0  0  0  0  0  0
  138.5910   72.9670  222.3420 C   0  0  0  0  0  0  0  0  0  0  0  0
  137.6399   73.3886  222.6993 H   0  0  0  0  0  0  0  0  0  0  0  0
  139.5710   73.8190  221.7800 C   0  0  0  0  0  0  0  0  0  0  0  0
  139.4170   75.2220  221.6430 C   0  0  0  0  0  0  0  0  0  0  0  0
  138.0850   75.9410  222.3160 S   0  0  0  0  0  0  0  0  0  0  0  0
  140.4070   75.9750  221.0200 N   0  0  0  0  0  0  0  0  0  0  0  0
  140.2180   77.4370  220.7920 C   0  0  0  0  0  0  0  0  0  0  0  0
  140.3870   77.6436  219.7249 H   0  0  0  0  0  0  0  0  0  0  0  0
  139.1950   77.6763  221.1179 H   0  0  0  0  0  0  0  0  0  0  0  0
  141.1750   78.3470  221.6230 C   0  0  0  0  0  0  0  0  0  0  0  0
  142.1290   77.7996  221.6071 H   0  0  0  0  0  0  0  0  0  0  0  0
  141.4530   79.7370  220.9890 C   0  0  0  0  0  0  0  0  0  0  0  0
  142.1787   79.6081  220.1725 H   0  0  0  0  0  0  0  0  0  0  0  0
  140.4885   80.1283  220.6330 H   0  0  0  0  0  0  0  0  0  0  0  0
  142.0200   80.7690  221.9880 C   0  0  0  0  0  0  0  0  0  0  0  0
  142.7198   81.4300  221.4557 H   0  0  0  0  0  0  0  0  0  0  0  0
  141.1743   81.3350  222.4057 H   0  0  0  0  0  0  0  0  0  0  0  0
  142.7590   80.1020  223.1500 C   0  0  0  0  0  0  0  0  0  0  0  0
  143.5956   79.5106  222.7495 H   0  0  0  0  0  0  0  0  0  0  0  0
  143.1251   80.8899  223.8247 H   0  0  0  0  0  0  0  0  0  0  0  0
  141.8270   79.1730  223.9510 C   0  0  0  0  0  0  0  0  0  0  0  0
  142.4371   78.3840  224.4150 H   0  0  0  0  0  0  0  0  0  0  0  0
  141.3127   79.7966  224.6971 H   0  0  0  0  0  0  0  0  0  0  0  0
  140.7350   78.5030  223.0900 C   0  0  0  0  0  0  0  0  0  0  0  0
  140.5173   77.5073  223.5036 H   0  0  0  0  0  0  0  0  0  0  0  0
  139.8424   79.1455  223.1114 H   0  0  0  0  0  0  0  0  0  0  0  0
  144.4810   74.3720  219.5390 C   0  0  0  0  0  0  0  0  0  0  0  0
  144.8110   73.4380  218.5440 C   0  0  0  0  0  0  0  0  0  0  0  0
  144.4177   73.5649  217.5246 H   0  0  0  0  0  0  0  0  0  0  0  0
  145.6120   72.3790  218.8300 N   0  0  0  0  0  0  0  0  0  0  0  0
  146.1140   72.1780  220.0770 C   0  0  0  0  0  0  0  0  0  0  0  0
  146.7660   71.3143  220.2745 H   0  0  0  0  0  0  0  0  0  0  0  0
  145.8030   73.0660  221.1060 C   0  0  0  0  0  0  0  0  0  0  0  0
  146.2013   72.9035  222.1184 H   0  0  0  0  0  0  0  0  0  0  0  0
  144.9810   74.1640  220.8400 C   0  0  0  0  0  0  0  0  0  0  0  0
  144.7240   74.8665  221.6465 H   0  0  0  0  0  0  0  0  0  0  0  0
  1  2  1  0
  2  3  2  0
  3  4  1  0
  3  5  1  0
  5  6  2  0
  6  7  1  0
  7  8  2  0
  8  9  1  0
  8 10  1  0
 10 11  1  0
 10 12  2  0
 12 13  1  0
 13 14  1  0
 13 15  2  0
 15 16  1  0
 16 17  2  0
 16 18  1  0
 18 19  1  0
 19 20  1  0
 19 21  1  0
 19 22  1  0
 22 23  1  0
 22 24  1  0
 24 25  1  0
 24 26  1  0
 24 27  1  0
 27 28  1  0
 27 29  1  0
 27 30  1  0
 30 31  1  0
 30 32  1  0
 30 33  1  0
 33 34  1  0
 33 35  1  0
 33 36  1  0
 36 37  1  0
 36 38  1  0
  2 39  1  0
 39 40  2  0
 40 41  1  0
 40 42  1  0
 42 43  2  0
 43 44  1  0
 43 45  1  0
 45 46  1  0
 45 47  2  0
 47 48  1  0
 18  5  1  0
 36 22  1  0
 47 39  1  0
 15  7  1  0
M  END
>  <UniqueID>  (67) 
464

>  <SMILES>  (67) 
S=c1c2cnccc2nc(/C=C/c2cccnc2)n1CC1CCCCC1

>  <Energy>  (67) 
77.60803565479762

>  <Genealogy>  (67) 
S=c1c2cnccc2nc(/C=C/c2cccnc2)n1CC1CCCCC1 (cis-trans isomerization)
S=c1c2cnccc2nc(/C=C/c2cccnc2)n1CC1CCCCC1 (3D coordinates assigned)
S=c1c2cnccc2nc(/C=C/c2cccnc2)n1CC1CCCCC1 (nonaromatic ring conformer: 77.60803565479762 kcal/mol)

>  <smiles>  (67) 
S=c1c2cnccc2nc(/C=C/c2cccnc2)n1CC1CCCCC1

>  <score_type>  (67) 
oracle

>  <origin>  (67) 
autodockgpu

>  <m_score__min__energy>  (67) 
-7.1799999999999997

>  <m_primary>  (67) 
energy

>  <meeko>  (67) 
{"free_energy": -7.14, "intermolecular_energy": -8.63, "internal_energy": -1.33, "cluster_size": 7, "cluster_id": 2, "rank_in_cluster": 2}

>  <energy>  (67) 
-6.92

>  <cluster_rmsd>  (67) 
0.37

>  <rmsd>  (67) 
270.1

>  <cluster>  (67) 
2

$$$$
VFWNAPSESRSYPS-CMDGGOBGNA-N
     RDKit          3D

 48 51  0  0  0  0  0  0  0  0999 V2000
  143.6409   75.9130  218.1484 H   0  0  0  0  0  0  0  0  0  0  0  0
  143.5870   75.5190  219.1740 C   0  0  0  0  0  0  0  0  0  0  0  0
  142.7370   76.1030  220.0330 C   0  0  0  0  0  0  0  0  0  0  0  0
  142.8970   77.1560  220.3080 H   0  0  0  0  0  0  0  0  0  0  0  0
  141.5810   75.3680  220.6270 C   0  0  0  0  0  0  0  0  0  0  0  0
  141.7160   74.0250  220.7730 N   0  0  0  0  0  0  0  0  0  0  0  0
  140.7510   73.2480  221.3020 C   0  0  0  0  0  0  0  0  0  0  0  0
  140.9530   71.8710  221.4070 C   0  0  0  0  0  0  0  0  0  0  0  0
  141.8893   71.4184  221.0485 H   0  0  0  0  0  0  0  0  0  0  0  0
  139.9580   71.0750  221.9700 C   0  0  0  0  0  0  0  0  0  0  0  0
  140.1064   69.9886  222.0580 H   0  0  0  0  0  0  0  0  0  0  0  0
  138.8050   71.6410  222.4100 N   0  0  0  0  0  0  0  0  0  0  0  0
  138.5830   72.9790  222.3240 C   0  0  0  0  0  0  0  0  0  0  0  0
  137.6374   73.4015  222.6947 H   0  0  0  0  0  0  0  0  0  0  0  0
  139.5620   73.8320  221.7600 C   0  0  0  0  0  0  0  0  0  0  0  0
  139.4140   75.2370  221.6370 C   0  0  0  0  0  0  0  0  0  0  0  0
  138.0910   75.9570  222.3290 S   0  0  0  0  0  0  0  0  0  0  0  0
  140.4010   75.9910  221.0130 N   0  0  0  0  0  0  0  0  0  0  0  0
  140.2180   77.4560  220.8000 C   0  0  0  0  0  0  0  0  0  0  0  0
  140.3774   77.6712  219.7331 H   0  0  0  0  0  0  0  0  0  0  0  0
  139.1997   77.6980  221.1384 H   0  0  0  0  0  0  0  0  0  0  0  0
  141.1880   78.3530  221.6290 C   0  0  0  0  0  0  0  0  0  0  0  0
  142.1222   77.7725  221.6471 H   0  0  0  0  0  0  0  0  0  0  0  0
  141.5270   79.7170  220.9680 C   0  0  0  0  0  0  0  0  0  0  0  0
  142.2651   79.5433  220.1711 H   0  0  0  0  0  0  0  0  0  0  0  0
  140.5840   80.1315  220.5820 H   0  0  0  0  0  0  0  0  0  0  0  0
  142.1080   80.7550  221.9540 C   0  0  0  0  0  0  0  0  0  0  0  0
  142.8417   81.3780  221.4215 H   0  0  0  0  0  0  0  0  0  0  0  0
  141.2740   81.3606  222.3384 H   0  0  0  0  0  0  0  0  0  0  0  0
  142.7980   80.0920  223.1480 C   0  0  0  0  0  0  0  0  0  0  0  0
  143.6216   79.4623  222.7805 H   0  0  0  0  0  0  0  0  0  0  0  0
  143.1765   80.8837  223.8113 H   0  0  0  0  0  0  0  0  0  0  0  0
  141.8180   79.2160  223.9510 C   0  0  0  0  0  0  0  0  0  0  0  0
  142.3904   78.4187  224.4476 H   0  0  0  0  0  0  0  0  0  0  0  0
  141.3099   79.8751  224.6704 H   0  0  0  0  0  0  0  0  0  0  0  0
  140.7220   78.5620  223.0820 C   0  0  0  0  0  0  0  0  0  0  0  0
  140.4605   77.5853  223.5153 H   0  0  0  0  0  0  0  0  0  0  0  0
  139.8524   79.2355  223.0670 H   0  0  0  0  0  0  0  0  0  0  0  0
  144.4580   74.3720  219.5300 C   0  0  0  0  0  0  0  0  0  0  0  0
  144.8020   73.4440  218.5330 C   0  0  0  0  0  0  0  0  0  0  0  0
  144.4315   73.5830  217.5066 H   0  0  0  0  0  0  0  0  0  0  0  0
  145.5890   72.3760  218.8270 N   0  0  0  0  0  0  0  0  0  0  0  0
  146.0630   72.1600  220.0820 C   0  0  0  0  0  0  0  0  0  0  0  0
  146.7042   71.2896  220.2853 H   0  0  0  0  0  0  0  0  0  0  0  0
  145.7370   73.0410  221.1120 C   0  0  0  0  0  0  0  0  0  0  0  0
  146.1126   72.8668  222.1311 H   0  0  0  0  0  0  0  0  0  0  0  0
  144.9290   74.1470  220.8380 C   0  0  0  0  0  0  0  0  0  0  0  0
  144.6600   74.8437  221.6456 H   0  0  0  0  0  0  0  0  0  0  0  0
  1  2  1  0
  2  3  2  0
  3  4  1  0
  3  5  1  0
  5  6  2  0
  6  7  1  0
  7  8  2  0
  8  9  1  0
  8 10  1  0
 10 11  1  0
 10 12  2  0
 12 13  1  0
 13 14  1  0
 13 15  2  0
 15 16  1  0
 16 17  2  0
 16 18  1  0
 18 19  1  0
 19 20  1  0
 19 21  1  0
 19 22  1  0
 22 23  1  0
 22 24  1  0
 24 25  1  0
 24 26  1  0
 24 27  1  0
 27 28  1  0
 27 29  1  0
 27 30  1  0
 30 31  1  0
 30 32  1  0
 30 33  1  0
 33 34  1  0
 33 35  1  0
 33 36  1  0
 36 37  1  0
 36 38  1  0
  2 39  1  0
 39 40  2  0
 40 41  1  0
 40 42  1  0
 42 43  2  0
 43 44  1  0
 43 45  1  0
 45 46  1  0
 45 47  2  0
 47 48  1  0
 18  5  1  0
 36 22  1  0
 47 39  1  0
 15  7  1  0
M  END
>  <UniqueID>  (68) 
464

>  <SMILES>  (68) 
S=c1c2cnccc2nc(/C=C/c2cccnc2)n1CC1CCCCC1

>  <Energy>  (68) 
77.60803565479762

>  <Genealogy>  (68) 
S=c1c2cnccc2nc(/C=C/c2cccnc2)n1CC1CCCCC1 (cis-trans isomerization)
S=c1c2cnccc2nc(/C=C/c2cccnc2)n1CC1CCCCC1 (3D coordinates assigned)
S=c1c2cnccc2nc(/C=C/c2cccnc2)n1CC1CCCCC1 (nonaromatic ring conformer: 77.60803565479762 kcal/mol)

>  <smiles>  (68) 
S=c1c2cnccc2nc(/C=C/c2cccnc2)n1CC1CCCCC1

>  <score_type>  (68) 
oracle

>  <origin>  (68) 
autodockgpu

>  <m_score__min__energy>  (68) 
-7.1799999999999997

>  <m_primary>  (68) 
energy

>  <meeko>  (68) 
{"free_energy": -7.14, "intermolecular_energy": -8.63, "internal_energy": -1.32, "cluster_size": 7, "cluster_id": 2, "rank_in_cluster": 1}

>  <energy>  (68) 
-6.74

>  <cluster_rmsd>  (68) 
0.64

>  <rmsd>  (68) 
270.09

>  <cluster>  (68) 
2

$$$$
VFWNAPSESRSYPS-CMDGGOBGNA-N
     RDKit          3D

 48 51  0  0  0  0  0  0  0  0999 V2000
  141.2346   76.0331  223.0805 H   0  0  0  0  0  0  0  0  0  0  0  0
  141.0760   76.7620  222.2720 C   0  0  0  0  0  0  0  0  0  0  0  0
  140.8780   76.2960  221.0290 C   0  0  0  0  0  0  0  0  0  0  0  0
  139.8704   76.3557  220.5918 H   0  0  0  0  0  0  0  0  0  0  0  0
  141.9830   75.6990  220.2210 C   0  0  0  0  0  0  0  0  0  0  0  0
  142.7910   74.8070  220.8490 N   0  0  0  0  0  0  0  0  0  0  0  0
  143.8180   74.1930  220.2300 C   0  0  0  0  0  0  0  0  0  0  0  0
  144.6180   73.2980  220.9440 C   0  0  0  0  0  0  0  0  0  0  0  0
  144.4201   73.1036  222.0084 H   0  0  0  0  0  0  0  0  0  0  0  0
  145.6690   72.6540  220.2950 C   0  0  0  0  0  0  0  0  0  0  0  0
  146.3065   71.9476  220.8469 H   0  0  0  0  0  0  0  0  0  0  0  0
  145.9060   72.8990  218.9800 N   0  0  0  0  0  0  0  0  0  0  0  0
  145.1410   73.7620  218.2610 C   0  0  0  0  0  0  0  0  0  0  0  0
  145.3619   73.9322  217.1969 H   0  0  0  0  0  0  0  0  0  0  0  0
  144.0620   74.4430  218.8730 C   0  0  0  0  0  0  0  0  0  0  0  0
  143.2130   75.3540  218.1960 C   0  0  0  0  0  0  0  0  0  0  0  0
  143.3830   75.5250  216.5560 S   0  0  0  0  0  0  0  0  0  0  0  0
  142.2130   76.0260  218.8910 N   0  0  0  0  0  0  0  0  0  0  0  0
  141.3710   77.0510  218.2090 C   0  0  0  0  0  0  0  0  0  0  0  0
  141.6236   77.0469  217.1384 H   0  0  0  0  0  0  0  0  0  0  0  0
  140.3236   76.7769  218.4034 H   0  0  0  0  0  0  0  0  0  0  0  0
  141.5590   78.5020  218.7490 C   0  0  0  0  0  0  0  0  0  0  0  0
  141.9991   78.3495  219.7455 H   0  0  0  0  0  0  0  0  0  0  0  0
  142.5710   79.3620  217.9450 C   0  0  0  0  0  0  0  0  0  0  0  0
  143.5890   79.0552  218.2269 H   0  0  0  0  0  0  0  0  0  0  0  0
  142.3628   79.1918  216.8784 H   0  0  0  0  0  0  0  0  0  0  0  0
  142.4310   80.8790  218.1970 C   0  0  0  0  0  0  0  0  0  0  0  0
  143.4279   81.3408  218.1420 H   0  0  0  0  0  0  0  0  0  0  0  0
  141.7575   81.2882  217.4296 H   0  0  0  0  0  0  0  0  0  0  0  0
  141.8220   81.1830  219.5670 C   0  0  0  0  0  0  0  0  0  0  0  0
  142.4705   80.7601  220.3484 H   0  0  0  0  0  0  0  0  0  0  0  0
  141.7409   82.2747  219.6746 H   0  0  0  0  0  0  0  0  0  0  0  0
  140.4120   80.5770  219.7040 C   0  0  0  0  0  0  0  0  0  0  0  0
  140.2202   80.3788  220.7689 H   0  0  0  0  0  0  0  0  0  0  0  0
  139.7045   81.3054  219.2810 H   0  0  0  0  0  0  0  0  0  0  0  0
  140.2290   79.2590  218.9210 C   0  0  0  0  0  0  0  0  0  0  0  0
  139.5225   78.6165  219.4670 H   0  0  0  0  0  0  0  0  0  0  0  0
  139.8474   79.5082  217.9199 H   0  0  0  0  0  0  0  0  0  0  0  0
  141.0930   78.2050  222.6170 C   0  0  0  0  0  0  0  0  0  0  0  0
  139.9030   78.8160  223.0450 C   0  0  0  0  0  0  0  0  0  0  0  0
  138.9824   78.2196  223.1274 H   0  0  0  0  0  0  0  0  0  0  0  0
  139.8800   80.1380  223.3580 N   0  0  0  0  0  0  0  0  0  0  0  0
  140.9900   80.9150  223.2630 C   0  0  0  0  0  0  0  0  0  0  0  0
  140.9396   81.9809  223.5302 H   0  0  0  0  0  0  0  0  0  0  0  0
  142.1930   80.3620  222.8270 C   0  0  0  0  0  0  0  0  0  0  0  0
  143.0931   80.9887  222.7428 H   0  0  0  0  0  0  0  0  0  0  0  0
  142.2460   79.0060  222.4980 C   0  0  0  0  0  0  0  0  0  0  0  0
  143.1890   78.5626  222.1455 H   0  0  0  0  0  0  0  0  0  0  0  0
  1  2  1  0
  2  3  2  0
  3  4  1  0
  3  5  1  0
  5  6  2  0
  6  7  1  0
  7  8  2  0
  8  9  1  0
  8 10  1  0
 10 11  1  0
 10 12  2  0
 12 13  1  0
 13 14  1  0
 13 15  2  0
 15 16  1  0
 16 17  2  0
 16 18  1  0
 18 19  1  0
 19 20  1  0
 19 21  1  0
 19 22  1  0
 22 23  1  0
 22 24  1  0
 24 25  1  0
 24 26  1  0
 24 27  1  0
 27 28  1  0
 27 29  1  0
 27 30  1  0
 30 31  1  0
 30 32  1  0
 30 33  1  0
 33 34  1  0
 33 35  1  0
 33 36  1  0
 36 37  1  0
 36 38  1  0
  2 39  1  0
 39 40  2  0
 40 41  1  0
 40 42  1  0
 42 43  2  0
 43 44  1  0
 43 45  1  0
 45 46  1  0
 45 47  2  0
 47 48  1  0
 18  5  1  0
 36 22  1  0
 47 39  1  0
 15  7  1  0
M  END
>  <UniqueID>  (69) 
464

>  <SMILES>  (69) 
S=c1c2cnccc2nc(/C=C/c2cccnc2)n1CC1CCCCC1

>  <Energy>  (69) 
77.60803565479762

>  <Genealogy>  (69) 
S=c1c2cnccc2nc(/C=C/c2cccnc2)n1CC1CCCCC1 (cis-trans isomerization)
S=c1c2cnccc2nc(/C=C/c2cccnc2)n1CC1CCCCC1 (3D coordinates assigned)
S=c1c2cnccc2nc(/C=C/c2cccnc2)n1CC1CCCCC1 (nonaromatic ring conformer: 77.60803565479762 kcal/mol)

>  <smiles>  (69) 
S=c1c2cnccc2nc(/C=C/c2cccnc2)n1CC1CCCCC1

>  <score_type>  (69) 
oracle

>  <origin>  (69) 
autodockgpu

>  <m_score__min__energy>  (69) 
-7.1799999999999997

>  <m_primary>  (69) 
energy

>  <meeko>  (69) 
{"free_energy": -6.43, "intermolecular_energy": -7.92, "internal_energy": -1.85, "cluster_size": 9, "cluster_id": 4, "rank_in_cluster": 5}

>  <energy>  (69) 
-6.81

>  <cluster_rmsd>  (69) 
0.0

>  <rmsd>  (69) 
269.91

>  <cluster>  (69) 
3

$$$$
VFWNAPSESRSYPS-CMDGGOBGNA-N
     RDKit          3D

 48 51  0  0  0  0  0  0  0  0999 V2000
  141.2202   76.1249  223.0583 H   0  0  0  0  0  0  0  0  0  0  0  0
  141.0750   76.8500  222.2440 C   0  0  0  0  0  0  0  0  0  0  0  0
  140.8750   76.3780  221.0030 C   0  0  0  0  0  0  0  0  0  0  0  0
  139.8697   76.4482  220.5620 H   0  0  0  0  0  0  0  0  0  0  0  0
  141.9740   75.7610  220.2030 C   0  0  0  0  0  0  0  0  0  0  0  0
  142.7620   74.8560  220.8380 N   0  0  0  0  0  0  0  0  0  0  0  0
  143.7820   74.2230  220.2270 C   0  0  0  0  0  0  0  0  0  0  0  0
  144.5620   73.3150  220.9480 C   0  0  0  0  0  0  0  0  0  0  0  0
  144.3542   73.1261  222.0116 H   0  0  0  0  0  0  0  0  0  0  0  0
  145.6060   72.6510  220.3060 C   0  0  0  0  0  0  0  0  0  0  0  0
  146.2275   71.9341  220.8626 H   0  0  0  0  0  0  0  0  0  0  0  0
  145.8550   72.8900  218.9930 N   0  0  0  0  0  0  0  0  0  0  0  0
  145.1100   73.7650  218.2670 C   0  0  0  0  0  0  0  0  0  0  0  0
  145.3410   73.9297  217.2042 H   0  0  0  0  0  0  0  0  0  0  0  0
  144.0390   74.4650  218.8710 C   0  0  0  0  0  0  0  0  0  0  0  0
  143.2100   75.3900  218.1860 C   0  0  0  0  0  0  0  0  0  0  0  0
  143.3940   75.5540  216.5480 S   0  0  0  0  0  0  0  0  0  0  0  0
  142.2190   76.0810  218.8740 N   0  0  0  0  0  0  0  0  0  0  0  0
  141.3980   77.1190  218.1850 C   0  0  0  0  0  0  0  0  0  0  0  0
  141.6783   77.1295  217.1214 H   0  0  0  0  0  0  0  0  0  0  0  0
  140.3449   76.8459  218.3478 H   0  0  0  0  0  0  0  0  0  0  0  0
  141.5770   78.5610  218.7510 C   0  0  0  0  0  0  0  0  0  0  0  0
  142.0408   78.3955  219.7346 H   0  0  0  0  0  0  0  0  0  0  0  0
  142.5590   79.4520  217.9430 C   0  0  0  0  0  0  0  0  0  0  0  0
  143.5873   79.1550  218.1969 H   0  0  0  0  0  0  0  0  0  0  0  0
  142.3306   79.2999  216.8778 H   0  0  0  0  0  0  0  0  0  0  0  0
  142.4020   80.9620  218.2290 C   0  0  0  0  0  0  0  0  0  0  0  0
  143.3903   81.4402  218.1618 H   0  0  0  0  0  0  0  0  0  0  0  0
  141.7060   81.3767  217.4849 H   0  0  0  0  0  0  0  0  0  0  0  0
  141.8190   81.2280  219.6180 C   0  0  0  0  0  0  0  0  0  0  0  0
  142.4904   80.7985  220.3761 H   0  0  0  0  0  0  0  0  0  0  0  0
  141.7247   82.3158  219.7510 H   0  0  0  0  0  0  0  0  0  0  0  0
  140.4210   80.5980  219.7720 C   0  0  0  0  0  0  0  0  0  0  0  0
  140.2551   80.3751  220.8363 H   0  0  0  0  0  0  0  0  0  0  0  0
  139.6942   81.3242  219.3791 H   0  0  0  0  0  0  0  0  0  0  0  0
  140.2400   79.2940  218.9660 C   0  0  0  0  0  0  0  0  0  0  0  0
  139.5545   78.6301  219.5131 H   0  0  0  0  0  0  0  0  0  0  0  0
  139.8333   79.5575  217.9785 H   0  0  0  0  0  0  0  0  0  0  0  0
  141.1110   78.2950  222.5780 C   0  0  0  0  0  0  0  0  0  0  0  0
  142.3020   79.0110  222.3720 C   0  0  0  0  0  0  0  0  0  0  0  0
  143.1833   78.4972  221.9606 H   0  0  0  0  0  0  0  0  0  0  0  0
  142.3740   80.3340  222.6770 N   0  0  0  0  0  0  0  0  0  0  0  0
  141.3140   81.0060  223.1960 C   0  0  0  0  0  0  0  0  0  0  0  0
  141.4022   82.0780  223.4264 H   0  0  0  0  0  0  0  0  0  0  0  0
  140.1140   80.3380  223.4370 C   0  0  0  0  0  0  0  0  0  0  0  0
  139.2550   80.8771  223.8630 H   0  0  0  0  0  0  0  0  0  0  0  0
  140.0120   78.9790  223.1330 C   0  0  0  0  0  0  0  0  0  0  0  0
  139.0719   78.4418  223.3272 H   0  0  0  0  0  0  0  0  0  0  0  0
  1  2  1  0
  2  3  2  0
  3  4  1  0
  3  5  1  0
  5  6  2  0
  6  7  1  0
  7  8  2  0
  8  9  1  0
  8 10  1  0
 10 11  1  0
 10 12  2  0
 12 13  1  0
 13 14  1  0
 13 15  2  0
 15 16  1  0
 16 17  2  0
 16 18  1  0
 18 19  1  0
 19 20  1  0
 19 21  1  0
 19 22  1  0
 22 23  1  0
 22 24  1  0
 24 25  1  0
 24 26  1  0
 24 27  1  0
 27 28  1  0
 27 29  1  0
 27 30  1  0
 30 31  1  0
 30 32  1  0
 30 33  1  0
 33 34  1  0
 33 35  1  0
 33 36  1  0
 36 37  1  0
 36 38  1  0
  2 39  1  0
 39 40  2  0
 40 41  1  0
 40 42  1  0
 42 43  2  0
 43 44  1  0
 43 45  1  0
 45 46  1  0
 45 47  2  0
 47 48  1  0
 18  5  1  0
 36 22  1  0
 47 39  1  0
 15  7  1  0
M  END
>  <UniqueID>  (70) 
464

>  <SMILES>  (70) 
S=c1c2cnccc2nc(/C=C/c2cccnc2)n1CC1CCCCC1

>  <Energy>  (70) 
77.60803565479762

>  <Genealogy>  (70) 
S=c1c2cnccc2nc(/C=C/c2cccnc2)n1CC1CCCCC1 (cis-trans isomerization)
S=c1c2cnccc2nc(/C=C/c2cccnc2)n1CC1CCCCC1 (3D coordinates assigned)
S=c1c2cnccc2nc(/C=C/c2cccnc2)n1CC1CCCCC1 (nonaromatic ring conformer: 77.60803565479762 kcal/mol)

>  <smiles>  (70) 
S=c1c2cnccc2nc(/C=C/c2cccnc2)n1CC1CCCCC1

>  <score_type>  (70) 
oracle

>  <origin>  (70) 
autodockgpu

>  <m_score__min__energy>  (70) 
-7.1799999999999997

>  <m_primary>  (70) 
energy

>  <meeko>  (70) 
{"free_energy": -6.36, "intermolecular_energy": -7.86, "internal_energy": -1.86, "cluster_size": 9, "cluster_id": 4, "rank_in_cluster": 7}

>  <energy>  (70) 
-6.47

>  <cluster_rmsd>  (70) 
0.0

>  <rmsd>  (70) 
270.14

>  <cluster>  (70) 
4

$$$$
VFWNAPSESRSYPS-CMDGGOBGNA-N
     RDKit          3D

 48 51  0  0  0  0  0  0  0  0999 V2000
  141.1650   76.0572  223.0215 H   0  0  0  0  0  0  0  0  0  0  0  0
  141.0760   76.8190  222.2330 C   0  0  0  0  0  0  0  0  0  0  0  0
  140.9100   76.4040  220.9660 C   0  0  0  0  0  0  0  0  0  0  0  0
  139.9270   76.5292  220.4885 H   0  0  0  0  0  0  0  0  0  0  0  0
  142.0190   75.7780  220.1860 C   0  0  0  0  0  0  0  0  0  0  0  0
  142.7940   74.8730  220.8380 N   0  0  0  0  0  0  0  0  0  0  0  0
  143.8200   74.2320  220.2460 C   0  0  0  0  0  0  0  0  0  0  0  0
  144.5850   73.3260  220.9830 C   0  0  0  0  0  0  0  0  0  0  0  0
  144.3605   73.1442  222.0444 H   0  0  0  0  0  0  0  0  0  0  0  0
  145.6360   72.6540  220.3610 C   0  0  0  0  0  0  0  0  0  0  0  0
  146.2459   71.9380  220.9314 H   0  0  0  0  0  0  0  0  0  0  0  0
  145.9060   72.8840  219.0510 N   0  0  0  0  0  0  0  0  0  0  0  0
  145.1760   73.7580  218.3090 C   0  0  0  0  0  0  0  0  0  0  0  0
  145.4241   73.9161  217.2491 H   0  0  0  0  0  0  0  0  0  0  0  0
  144.0980   74.4660  218.8930 C   0  0  0  0  0  0  0  0  0  0  0  0
  143.2840   75.3900  218.1910 C   0  0  0  0  0  0  0  0  0  0  0  0
  143.4930   75.5450  216.5540 S   0  0  0  0  0  0  0  0  0  0  0  0
  142.2850   76.0890  218.8600 N   0  0  0  0  0  0  0  0  0  0  0  0
  141.4790   77.1260  218.1520 C   0  0  0  0  0  0  0  0  0  0  0  0
  141.7917   77.1445  217.0975 H   0  0  0  0  0  0  0  0  0  0  0  0
  140.4231   76.8457  218.2805 H   0  0  0  0  0  0  0  0  0  0  0  0
  141.6320   78.5660  218.7320 C   0  0  0  0  0  0  0  0  0  0  0  0
  142.1149   78.4005  219.7064 H   0  0  0  0  0  0  0  0  0  0  0  0
  142.5800   79.4900  217.9200 C   0  0  0  0  0  0  0  0  0  0  0  0
  143.6189   79.2152  218.1551 H   0  0  0  0  0  0  0  0  0  0  0  0
  142.3392   79.3447  216.8566 H   0  0  0  0  0  0  0  0  0  0  0  0
  142.3910   80.9920  218.2260 C   0  0  0  0  0  0  0  0  0  0  0  0
  143.3664   81.4948  218.1496 H   0  0  0  0  0  0  0  0  0  0  0  0
  141.6739   81.3980  217.4974 H   0  0  0  0  0  0  0  0  0  0  0  0
  141.8230   81.2280  219.6270 C   0  0  0  0  0  0  0  0  0  0  0  0
  142.5160   80.8061  220.3698 H   0  0  0  0  0  0  0  0  0  0  0  0
  141.7047   82.3116  219.7744 H   0  0  0  0  0  0  0  0  0  0  0  0
  140.4440   80.5630  219.7940 C   0  0  0  0  0  0  0  0  0  0  0  0
  140.2996   80.3243  220.8580 H   0  0  0  0  0  0  0  0  0  0  0  0
  139.6947   81.2760  219.4197 H   0  0  0  0  0  0  0  0  0  0  0  0
  140.2810   79.2640  218.9760 C   0  0  0  0  0  0  0  0  0  0  0  0
  139.6204   78.5778  219.5261 H   0  0  0  0  0  0  0  0  0  0  0  0
  139.8522   79.5283  217.9981 H   0  0  0  0  0  0  0  0  0  0  0  0
  141.1460   78.2470  222.6280 C   0  0  0  0  0  0  0  0  0  0  0  0
  139.9890   78.8740  223.1180 C   0  0  0  0  0  0  0  0  0  0  0  0
  139.0550   78.3003  223.2104 H   0  0  0  0  0  0  0  0  0  0  0  0
  140.0140   80.1840  223.4790 N   0  0  0  0  0  0  0  0  0  0  0  0
  141.1430   80.9330  223.3740 C   0  0  0  0  0  0  0  0  0  0  0  0
  141.1324   81.9894  223.6804 H   0  0  0  0  0  0  0  0  0  0  0  0
  142.3150   80.3630  222.8780 C   0  0  0  0  0  0  0  0  0  0  0  0
  143.2299   80.9668  222.7861 H   0  0  0  0  0  0  0  0  0  0  0  0
  142.3170   79.0190  222.4990 C   0  0  0  0  0  0  0  0  0  0  0  0
  143.2344   78.5625  222.0991 H   0  0  0  0  0  0  0  0  0  0  0  0
  1  2  1  0
  2  3  2  0
  3  4  1  0
  3  5  1  0
  5  6  2  0
  6  7  1  0
  7  8  2  0
  8  9  1  0
  8 10  1  0
 10 11  1  0
 10 12  2  0
 12 13  1  0
 13 14  1  0
 13 15  2  0
 15 16  1  0
 16 17  2  0
 16 18  1  0
 18 19  1  0
 19 20  1  0
 19 21  1  0
 19 22  1  0
 22 23  1  0
 22 24  1  0
 24 25  1  0
 24 26  1  0
 24 27  1  0
 27 28  1  0
 27 29  1  0
 27 30  1  0
 30 31  1  0
 30 32  1  0
 30 33  1  0
 33 34  1  0
 33 35  1  0
 33 36  1  0
 36 37  1  0
 36 38  1  0
  2 39  1  0
 39 40  2  0
 40 41  1  0
 40 42  1  0
 42 43  2  0
 43 44  1  0
 43 45  1  0
 45 46  1  0
 45 47  2  0
 47 48  1  0
 18  5  1  0
 36 22  1  0
 47 39  1  0
 15  7  1  0
M  END
>  <UniqueID>  (71) 
464

>  <SMILES>  (71) 
S=c1c2cnccc2nc(/C=C/c2cccnc2)n1CC1CCCCC1

>  <Energy>  (71) 
77.60803565479762

>  <Genealogy>  (71) 
S=c1c2cnccc2nc(/C=C/c2cccnc2)n1CC1CCCCC1 (cis-trans isomerization)
S=c1c2cnccc2nc(/C=C/c2cccnc2)n1CC1CCCCC1 (3D coordinates assigned)
S=c1c2cnccc2nc(/C=C/c2cccnc2)n1CC1CCCCC1 (nonaromatic ring conformer: 77.60803565479762 kcal/mol)

>  <smiles>  (71) 
S=c1c2cnccc2nc(/C=C/c2cccnc2)n1CC1CCCCC1

>  <score_type>  (71) 
oracle

>  <origin>  (71) 
autodockgpu

>  <m_score__min__energy>  (71) 
-7.1799999999999997

>  <m_primary>  (71) 
energy

>  <meeko>  (71) 
{"free_energy": -6.47, "intermolecular_energy": -7.96, "internal_energy": -1.83, "cluster_size": 9, "cluster_id": 4, "rank_in_cluster": 1}

>  <energy>  (71) 
-6.45

>  <cluster_rmsd>  (71) 
0.09

>  <rmsd>  (71) 
270.12

>  <cluster>  (71) 
4

$$$$
VFWNAPSESRSYPS-CMDGGOBGNA-N
     RDKit          3D

 48 51  0  0  0  0  0  0  0  0999 V2000
  141.2806   75.9453  223.1315 H   0  0  0  0  0  0  0  0  0  0  0  0
  141.0460   76.6700  222.3380 C   0  0  0  0  0  0  0  0  0  0  0  0
  140.7750   76.1990  221.1100 C   0  0  0  0  0  0  0  0  0  0  0  0
  139.7405   76.2436  220.7388 H   0  0  0  0  0  0  0  0  0  0  0  0
  141.8330   75.6170  220.2330 C   0  0  0  0  0  0  0  0  0  0  0  0
  142.8020   74.8860  220.8420 N   0  0  0  0  0  0  0  0  0  0  0  0
  143.8090   74.3010  220.1640 C   0  0  0  0  0  0  0  0  0  0  0  0
  144.7800   73.5770  220.8590 C   0  0  0  0  0  0  0  0  0  0  0  0
  144.7323   73.4930  221.9547 H   0  0  0  0  0  0  0  0  0  0  0  0
  145.8100   72.9620  220.1500 C   0  0  0  0  0  0  0  0  0  0  0  0
  146.5816   72.3900  220.6860 H   0  0  0  0  0  0  0  0  0  0  0  0
  145.8610   73.0690  218.7970 N   0  0  0  0  0  0  0  0  0  0  0  0
  144.9270   73.7640  218.0960 C   0  0  0  0  0  0  0  0  0  0  0  0
  145.0001   73.8256  217.0002 H   0  0  0  0  0  0  0  0  0  0  0  0
  143.8610   74.4090  218.7670 C   0  0  0  0  0  0  0  0  0  0  0  0
  142.8430   75.1480  218.1130 C   0  0  0  0  0  0  0  0  0  0  0  0
  142.7980   75.1380  216.4570 S   0  0  0  0  0  0  0  0  0  0  0  0
  141.8670   75.8020  218.8570 N   0  0  0  0  0  0  0  0  0  0  0  0
  140.8430   76.6540  218.1860 C   0  0  0  0  0  0  0  0  0  0  0  0
  140.7917   76.3608  217.1270 H   0  0  0  0  0  0  0  0  0  0  0  0
  139.8969   76.4895  218.7225 H   0  0  0  0  0  0  0  0  0  0  0  0
  141.1340   78.1850  218.2550 C   0  0  0  0  0  0  0  0  0  0  0  0
  140.6917   78.5727  217.3254 H   0  0  0  0  0  0  0  0  0  0  0  0
  140.4260   78.9220  219.4240 C   0  0  0  0  0  0  0  0  0  0  0  0
  139.3698   79.0685  219.1538 H   0  0  0  0  0  0  0  0  0  0  0  0
  140.5458   78.2952  220.3200 H   0  0  0  0  0  0  0  0  0  0  0  0
  141.0420   80.3000  219.7500 C   0  0  0  0  0  0  0  0  0  0  0  0
  140.2401   80.9785  220.0766 H   0  0  0  0  0  0  0  0  0  0  0  0
  141.7915   80.1566  220.5422 H   0  0  0  0  0  0  0  0  0  0  0  0
  141.7480   80.9170  218.5400 C   0  0  0  0  0  0  0  0  0  0  0  0
  141.0177   81.0467  217.7277 H   0  0  0  0  0  0  0  0  0  0  0  0
  142.1713   81.8857  218.8441 H   0  0  0  0  0  0  0  0  0  0  0  0
  142.8980   80.0220  218.0410 C   0  0  0  0  0  0  0  0  0  0  0  0
  143.0425   80.2075  216.9664 H   0  0  0  0  0  0  0  0  0  0  0  0
  143.7889   80.2801  218.6323 H   0  0  0  0  0  0  0  0  0  0  0  0
  142.6380   78.5140  218.2460 C   0  0  0  0  0  0  0  0  0  0  0  0
  143.1188   77.9562  217.4289 H   0  0  0  0  0  0  0  0  0  0  0  0
  143.0549   78.2266  219.2225 H   0  0  0  0  0  0  0  0  0  0  0  0
  141.0470   78.1120  222.6850 C   0  0  0  0  0  0  0  0  0  0  0  0
  139.8280   78.7390  222.9920 C   0  0  0  0  0  0  0  0  0  0  0  0
  138.8959   78.1551  222.9797 H   0  0  0  0  0  0  0  0  0  0  0  0
  139.7910   80.0610  223.3040 N   0  0  0  0  0  0  0  0  0  0  0  0
  140.9160   80.8230  223.3210 C   0  0  0  0  0  0  0  0  0  0  0  0
  140.8537   81.8894  223.5835 H   0  0  0  0  0  0  0  0  0  0  0  0
  142.1490   80.2540  223.0060 C   0  0  0  0  0  0  0  0  0  0  0  0
  143.0612   80.8688  223.0127 H   0  0  0  0  0  0  0  0  0  0  0  0
  142.2170   78.8980  222.6820 C   0  0  0  0  0  0  0  0  0  0  0  0
  143.1844   78.4424  222.4241 H   0  0  0  0  0  0  0  0  0  0  0  0
  1  2  1  0
  2  3  2  0
  3  4  1  0
  3  5  1  0
  5  6  2  0
  6  7  1  0
  7  8  2  0
  8  9  1  0
  8 10  1  0
 10 11  1  0
 10 12  2  0
 12 13  1  0
 13 14  1  0
 13 15  2  0
 15 16  1  0
 16 17  2  0
 16 18  1  0
 18 19  1  0
 19 20  1  0
 19 21  1  0
 19 22  1  0
 22 23  1  0
 22 24  1  0
 24 25  1  0
 24 26  1  0
 24 27  1  0
 27 28  1  0
 27 29  1  0
 27 30  1  0
 30 31  1  0
 30 32  1  0
 30 33  1  0
 33 34  1  0
 33 35  1  0
 33 36  1  0
 36 37  1  0
 36 38  1  0
  2 39  1  0
 39 40  2  0
 40 41  1  0
 40 42  1  0
 42 43  2  0
 43 44  1  0
 43 45  1  0
 45 46  1  0
 45 47  2  0
 47 48  1  0
 18  5  1  0
 36 22  1  0
 47 39  1  0
 15  7  1  0
M  END
>  <UniqueID>  (72) 
464

>  <SMILES>  (72) 
S=c1c2cnccc2nc(/C=C/c2cccnc2)n1CC1CCCCC1

>  <Energy>  (72) 
77.60803565479762

>  <Genealogy>  (72) 
S=c1c2cnccc2nc(/C=C/c2cccnc2)n1CC1CCCCC1 (cis-trans isomerization)
S=c1c2cnccc2nc(/C=C/c2cccnc2)n1CC1CCCCC1 (3D coordinates assigned)
S=c1c2cnccc2nc(/C=C/c2cccnc2)n1CC1CCCCC1 (nonaromatic ring conformer: 77.60803565479762 kcal/mol)

>  <smiles>  (72) 
S=c1c2cnccc2nc(/C=C/c2cccnc2)n1CC1CCCCC1

>  <score_type>  (72) 
oracle

>  <origin>  (72) 
autodockgpu

>  <m_score__min__energy>  (72) 
-7.1799999999999997

>  <m_primary>  (72) 
energy

>  <meeko>  (72) 
{"free_energy": -6.21, "intermolecular_energy": -7.71, "internal_energy": -1.89, "cluster_size": 9, "cluster_id": 4, "rank_in_cluster": 8}

>  <energy>  (72) 
-6.45

>  <cluster_rmsd>  (72) 
0.06

>  <rmsd>  (72) 
270.13

>  <cluster>  (72) 
4

$$$$
VFWNAPSESRSYPS-CMDGGOBGNA-N
     RDKit          3D

 48 51  0  0  0  0  0  0  0  0999 V2000
  141.3038   76.0197  223.1026 H   0  0  0  0  0  0  0  0  0  0  0  0
  141.0690   76.7100  222.2790 C   0  0  0  0  0  0  0  0  0  0  0  0
  140.8050   76.1880  221.0710 C   0  0  0  0  0  0  0  0  0  0  0  0
  139.7683   76.1942  220.7033 H   0  0  0  0  0  0  0  0  0  0  0  0
  141.8740   75.5990  220.2100 C   0  0  0  0  0  0  0  0  0  0  0  0
  142.8530   74.8990  220.8400 N   0  0  0  0  0  0  0  0  0  0  0  0
  143.8690   74.3130  220.1790 C   0  0  0  0  0  0  0  0  0  0  0  0
  144.8500   73.6220  220.8930 C   0  0  0  0  0  0  0  0  0  0  0  0
  144.8018   73.5658  221.9905 H   0  0  0  0  0  0  0  0  0  0  0  0
  145.8910   73.0040  220.2020 C   0  0  0  0  0  0  0  0  0  0  0  0
  146.6699   72.4575  220.7540 H   0  0  0  0  0  0  0  0  0  0  0  0
  145.9430   73.0770  218.8480 N   0  0  0  0  0  0  0  0  0  0  0  0
  145.0000   73.7400  218.1270 C   0  0  0  0  0  0  0  0  0  0  0  0
  145.0747   73.7752  217.0301 H   0  0  0  0  0  0  0  0  0  0  0  0
  143.9230   74.3850  218.7800 C   0  0  0  0  0  0  0  0  0  0  0  0
  142.8960   75.0920  218.1050 C   0  0  0  0  0  0  0  0  0  0  0  0
  142.8540   75.0390  216.4500 S   0  0  0  0  0  0  0  0  0  0  0  0
  141.9080   75.7500  218.8310 N   0  0  0  0  0  0  0  0  0  0  0  0
  140.8730   76.5690  218.1360 C   0  0  0  0  0  0  0  0  0  0  0  0
  140.8457   76.2645  217.0794 H   0  0  0  0  0  0  0  0  0  0  0  0
  139.9233   76.3853  218.6598 H   0  0  0  0  0  0  0  0  0  0  0  0
  141.1230   78.1070  218.1940 C   0  0  0  0  0  0  0  0  0  0  0  0
  140.8300   78.4528  217.1917 H   0  0  0  0  0  0  0  0  0  0  0  0
  140.2230   78.8680  219.2050 C   0  0  0  0  0  0  0  0  0  0  0  0
  139.2223   78.9819  218.7627 H   0  0  0  0  0  0  0  0  0  0  0  0
  140.2056   78.2753  220.1315 H   0  0  0  0  0  0  0  0  0  0  0  0
  140.7570   80.2710  219.5740 C   0  0  0  0  0  0  0  0  0  0  0  0
  139.9022   80.9426  219.7421 H   0  0  0  0  0  0  0  0  0  0  0  0
  141.3714   80.1711  220.4809 H   0  0  0  0  0  0  0  0  0  0  0  0
  141.6380   80.8610  218.4720 C   0  0  0  0  0  0  0  0  0  0  0  0
  141.0465   80.9465  217.5485 H   0  0  0  0  0  0  0  0  0  0  0  0
  141.9907   81.8489  218.8030 H   0  0  0  0  0  0  0  0  0  0  0  0
  142.8680   79.9740  218.1990 C   0  0  0  0  0  0  0  0  0  0  0  0
  143.1817   80.1259  217.1557 H   0  0  0  0  0  0  0  0  0  0  0  0
  143.6463   80.2715  218.9172 H   0  0  0  0  0  0  0  0  0  0  0  0
  142.6040   78.4690  218.4150 C   0  0  0  0  0  0  0  0  0  0  0  0
  143.2197   77.8949  217.7069 H   0  0  0  0  0  0  0  0  0  0  0  0
  142.8628   78.2239  219.4556 H   0  0  0  0  0  0  0  0  0  0  0  0
  141.0620   78.1650  222.5660 C   0  0  0  0  0  0  0  0  0  0  0  0
  142.2060   78.9230  222.2680 C   0  0  0  0  0  0  0  0  0  0  0  0
  143.0835   78.4333  221.8205 H   0  0  0  0  0  0  0  0  0  0  0  0
  142.2380   80.2570  222.5280 N   0  0  0  0  0  0  0  0  0  0  0  0
  141.1820   80.9010  223.0880 C   0  0  0  0  0  0  0  0  0  0  0  0
  141.2372   81.9827  223.2799 H   0  0  0  0  0  0  0  0  0  0  0  0
  140.0280   80.1930  223.4200 C   0  0  0  0  0  0  0  0  0  0  0  0
  139.1725   80.7099  223.8793 H   0  0  0  0  0  0  0  0  0  0  0  0
  139.9680   78.8210  223.1640 C   0  0  0  0  0  0  0  0  0  0  0  0
  139.0650   78.2519  223.4298 H   0  0  0  0  0  0  0  0  0  0  0  0
  1  2  1  0
  2  3  2  0
  3  4  1  0
  3  5  1  0
  5  6  2  0
  6  7  1  0
  7  8  2  0
  8  9  1  0
  8 10  1  0
 10 11  1  0
 10 12  2  0
 12 13  1  0
 13 14  1  0
 13 15  2  0
 15 16  1  0
 16 17  2  0
 16 18  1  0
 18 19  1  0
 19 20  1  0
 19 21  1  0
 19 22  1  0
 22 23  1  0
 22 24  1  0
 24 25  1  0
 24 26  1  0
 24 27  1  0
 27 28  1  0
 27 29  1  0
 27 30  1  0
 30 31  1  0
 30 32  1  0
 30 33  1  0
 33 34  1  0
 33 35  1  0
 33 36  1  0
 36 37  1  0
 36 38  1  0
  2 39  1  0
 39 40  2  0
 40 41  1  0
 40 42  1  0
 42 43  2  0
 43 44  1  0
 43 45  1  0
 45 46  1  0
 45 47  2  0
 47 48  1  0
 18  5  1  0
 36 22  1  0
 47 39  1  0
 15  7  1  0
M  END
>  <UniqueID>  (73) 
464

>  <SMILES>  (73) 
S=c1c2cnccc2nc(/C=C/c2cccnc2)n1CC1CCCCC1

>  <Energy>  (73) 
77.60803565479762

>  <Genealogy>  (73) 
S=c1c2cnccc2nc(/C=C/c2cccnc2)n1CC1CCCCC1 (cis-trans isomerization)
S=c1c2cnccc2nc(/C=C/c2cccnc2)n1CC1CCCCC1 (3D coordinates assigned)
S=c1c2cnccc2nc(/C=C/c2cccnc2)n1CC1CCCCC1 (nonaromatic ring conformer: 77.60803565479762 kcal/mol)

>  <smiles>  (73) 
S=c1c2cnccc2nc(/C=C/c2cccnc2)n1CC1CCCCC1

>  <score_type>  (73) 
oracle

>  <origin>  (73) 
autodockgpu

>  <m_score__min__energy>  (73) 
-7.1799999999999997

>  <m_primary>  (73) 
energy

>  <meeko>  (73) 
{"free_energy": -6.06, "intermolecular_energy": -7.55, "internal_energy": -1.96, "cluster_size": 9, "cluster_id": 4, "rank_in_cluster": 9}

>  <energy>  (73) 
-6.45

>  <cluster_rmsd>  (73) 
0.09

>  <rmsd>  (73) 
270.13

>  <cluster>  (73) 
4

$$$$
VFWNAPSESRSYPS-CMDGGOBGNA-N
     RDKit          3D

 48 51  0  0  0  0  0  0  0  0999 V2000
  141.7065   81.4859  219.3206 H   0  0  0  0  0  0  0  0  0  0  0  0
  141.4010   80.6740  219.9970 C   0  0  0  0  0  0  0  0  0  0  0  0
  140.6730   79.6670  219.4890 C   0  0  0  0  0  0  0  0  0  0  0  0
  139.8977   79.8937  218.7423 H   0  0  0  0  0  0  0  0  0  0  0  0
  140.8830   78.2490  219.9060 C   0  0  0  0  0  0  0  0  0  0  0  0
  142.1100   77.7160  219.6740 N   0  0  0  0  0  0  0  0  0  0  0  0
  142.4300   76.4510  220.0080 C   0  0  0  0  0  0  0  0  0  0  0  0
  143.7080   75.9640  219.7240 C   0  0  0  0  0  0  0  0  0  0  0  0
  144.4466   76.6037  219.2187 H   0  0  0  0  0  0  0  0  0  0  0  0
  144.0380   74.6600  220.0870 C   0  0  0  0  0  0  0  0  0  0  0  0
  145.0410   74.2650  219.8682 H   0  0  0  0  0  0  0  0  0  0  0  0
  143.1210   73.8770  220.7110 N   0  0  0  0  0  0  0  0  0  0  0  0
  141.8720   74.3260  221.0030 C   0  0  0  0  0  0  0  0  0  0  0  0
  141.1573   73.6625  221.5119 H   0  0  0  0  0  0  0  0  0  0  0  0
  141.4860   75.6420  220.6560 C   0  0  0  0  0  0  0  0  0  0  0  0
  140.2070   76.1910  220.9280 C   0  0  0  0  0  0  0  0  0  0  0  0
  139.1450   75.3080  221.8430 S   0  0  0  0  0  0  0  0  0  0  0  0
  139.8920   77.4740  220.4940 N   0  0  0  0  0  0  0  0  0  0  0  0
  138.5220   78.0300  220.6980 C   0  0  0  0  0  0  0  0  0  0  0  0
  138.2673   78.6470  219.8237 H   0  0  0  0  0  0  0  0  0  0  0  0
  137.8493   77.1691  220.8256 H   0  0  0  0  0  0  0  0  0  0  0  0
  138.3680   78.9090  221.9770 C   0  0  0  0  0  0  0  0  0  0  0  0
  137.4051   78.5838  222.3978 H   0  0  0  0  0  0  0  0  0  0  0  0
  139.4390   78.6480  223.0700 C   0  0  0  0  0  0  0  0  0  0  0  0
  139.1783   77.7186  223.5975 H   0  0  0  0  0  0  0  0  0  0  0  0
  140.4111   78.5807  222.5596 H   0  0  0  0  0  0  0  0  0  0  0  0
  139.5510   79.7850  224.1100 C   0  0  0  0  0  0  0  0  0  0  0  0
  139.7993   79.3473  225.0882 H   0  0  0  0  0  0  0  0  0  0  0  0
  140.3356   80.4773  223.7707 H   0  0  0  0  0  0  0  0  0  0  0  0
  138.2490   80.5780  224.2410 C   0  0  0  0  0  0  0  0  0  0  0  0
  137.4455   79.8966  224.5575 H   0  0  0  0  0  0  0  0  0  0  0  0
  138.4024   81.3739  224.9847 H   0  0  0  0  0  0  0  0  0  0  0  0
  137.8520   81.2340  222.9050 C   0  0  0  0  0  0  0  0  0  0  0  0
  136.7587   81.3537  222.8873 H   0  0  0  0  0  0  0  0  0  0  0  0
  138.3785   82.1982  222.8492 H   0  0  0  0  0  0  0  0  0  0  0  0
  138.2740   80.4140  221.6660 C   0  0  0  0  0  0  0  0  0  0  0  0
  137.5313   80.5665  220.8690 H   0  0  0  0  0  0  0  0  0  0  0  0
  139.2700   80.7596  221.3521 H   0  0  0  0  0  0  0  0  0  0  0  0
  141.8170   80.7540  221.4190 C   0  0  0  0  0  0  0  0  0  0  0  0
  141.4830   81.8980  222.1620 C   0  0  0  0  0  0  0  0  0  0  0  0
  140.9134   82.7103  221.6869 H   0  0  0  0  0  0  0  0  0  0  0  0
  141.8580   82.0090  223.4630 N   0  0  0  0  0  0  0  0  0  0  0  0
  142.5690   81.0340  224.0880 C   0  0  0  0  0  0  0  0  0  0  0  0
  142.8504   81.1509  225.1449 H   0  0  0  0  0  0  0  0  0  0  0  0
  142.9420   79.8860  223.3910 C   0  0  0  0  0  0  0  0  0  0  0  0
  143.5242   79.0980  223.8910 H   0  0  0  0  0  0  0  0  0  0  0  0
  142.5700   79.7450  222.0520 C   0  0  0  0  0  0  0  0  0  0  0  0
  142.8650   78.8458  221.4913 H   0  0  0  0  0  0  0  0  0  0  0  0
  1  2  1  0
  2  3  2  0
  3  4  1  0
  3  5  1  0
  5  6  2  0
  6  7  1  0
  7  8  2  0
  8  9  1  0
  8 10  1  0
 10 11  1  0
 10 12  2  0
 12 13  1  0
 13 14  1  0
 13 15  2  0
 15 16  1  0
 16 17  2  0
 16 18  1  0
 18 19  1  0
 19 20  1  0
 19 21  1  0
 19 22  1  0
 22 23  1  0
 22 24  1  0
 24 25  1  0
 24 26  1  0
 24 27  1  0
 27 28  1  0
 27 29  1  0
 27 30  1  0
 30 31  1  0
 30 32  1  0
 30 33  1  0
 33 34  1  0
 33 35  1  0
 33 36  1  0
 36 37  1  0
 36 38  1  0
  2 39  1  0
 39 40  2  0
 40 41  1  0
 40 42  1  0
 42 43  2  0
 43 44  1  0
 43 45  1  0
 45 46  1  0
 45 47  2  0
 47 48  1  0
 18  5  1  0
 36 22  1  0
 47 39  1  0
 15  7  1  0
M  END
>  <UniqueID>  (74) 
464

>  <SMILES>  (74) 
S=c1c2cnccc2nc(/C=C/c2cccnc2)n1CC1CCCCC1

>  <Energy>  (74) 
77.60803565479762

>  <Genealogy>  (74) 
S=c1c2cnccc2nc(/C=C/c2cccnc2)n1CC1CCCCC1 (cis-trans isomerization)
S=c1c2cnccc2nc(/C=C/c2cccnc2)n1CC1CCCCC1 (3D coordinates assigned)
S=c1c2cnccc2nc(/C=C/c2cccnc2)n1CC1CCCCC1 (nonaromatic ring conformer: 77.60803565479762 kcal/mol)

>  <smiles>  (74) 
S=c1c2cnccc2nc(/C=C/c2cccnc2)n1CC1CCCCC1

>  <score_type>  (74) 
oracle

>  <origin>  (74) 
autodockgpu

>  <m_score__min__energy>  (74) 
-7.1799999999999997

>  <m_primary>  (74) 
energy

>  <meeko>  (74) 
{"free_energy": -5.82, "intermolecular_energy": -7.31, "internal_energy": -2.3, "cluster_size": 2, "cluster_id": 5, "rank_in_cluster": 1}

>  <energy>  (74) 
-6.43

>  <cluster_rmsd>  (74) 
0.1

>  <rmsd>  (74) 
270.09

>  <cluster>  (74) 
4

$$$$
VFWNAPSESRSYPS-CMDGGOBGNA-N
     RDKit          3D

 48 51  0  0  0  0  0  0  0  0999 V2000
  141.7413   81.4552  219.3271 H   0  0  0  0  0  0  0  0  0  0  0  0
  141.4230   80.6470  220.0020 C   0  0  0  0  0  0  0  0  0  0  0  0
  140.6890   79.6460  219.4900 C   0  0  0  0  0  0  0  0  0  0  0  0
  139.9162   79.8800  218.7430 H   0  0  0  0  0  0  0  0  0  0  0  0
  140.8890   78.2250  219.9030 C   0  0  0  0  0  0  0  0  0  0  0  0
  142.1130   77.6840  219.6710 N   0  0  0  0  0  0  0  0  0  0  0  0
  142.4240   76.4160  220.0030 C   0  0  0  0  0  0  0  0  0  0  0  0
  143.6990   75.9220  219.7190 C   0  0  0  0  0  0  0  0  0  0  0  0
  144.4423   76.5584  219.2164 H   0  0  0  0  0  0  0  0  0  0  0  0
  144.0200   74.6140  220.0790 C   0  0  0  0  0  0  0  0  0  0  0  0
  145.0207   74.2127  219.8610 H   0  0  0  0  0  0  0  0  0  0  0  0
  143.0960   73.8360  220.6990 N   0  0  0  0  0  0  0  0  0  0  0  0
  141.8500   74.2930  220.9900 C   0  0  0  0  0  0  0  0  0  0  0  0
  141.1300   73.6331  221.4960 H   0  0  0  0  0  0  0  0  0  0  0  0
  141.4730   75.6130  220.6460 C   0  0  0  0  0  0  0  0  0  0  0  0
  140.1980   76.1690  220.9170 C   0  0  0  0  0  0  0  0  0  0  0  0
  139.1280   75.2900  221.8280 S   0  0  0  0  0  0  0  0  0  0  0  0
  139.8920   77.4560  220.4870 N   0  0  0  0  0  0  0  0  0  0  0  0
  138.5250   78.0200  220.6900 C   0  0  0  0  0  0  0  0  0  0  0  0
  138.2754   78.6406  219.8167 H   0  0  0  0  0  0  0  0  0  0  0  0
  137.8465   77.1631  220.8143 H   0  0  0  0  0  0  0  0  0  0  0  0
  138.3750   78.8970  221.9710 C   0  0  0  0  0  0  0  0  0  0  0  0
  137.4079   78.5798  222.3881 H   0  0  0  0  0  0  0  0  0  0  0  0
  139.4390   78.6230  223.0670 C   0  0  0  0  0  0  0  0  0  0  0  0
  139.1668   77.6953  223.5917 H   0  0  0  0  0  0  0  0  0  0  0  0
  140.4122   78.5468  222.5599 H   0  0  0  0  0  0  0  0  0  0  0  0
  139.5590   79.7570  224.1100 C   0  0  0  0  0  0  0  0  0  0  0  0
  139.8008   79.3151  225.0879 H   0  0  0  0  0  0  0  0  0  0  0  0
  140.3509   80.4428  223.7745 H   0  0  0  0  0  0  0  0  0  0  0  0
  138.2640   80.5610  224.2390 C   0  0  0  0  0  0  0  0  0  0  0  0
  137.4535   79.8860  224.5513 H   0  0  0  0  0  0  0  0  0  0  0  0
  138.4221   81.3536  224.9852 H   0  0  0  0  0  0  0  0  0  0  0  0
  137.8770   81.2240  222.9030 C   0  0  0  0  0  0  0  0  0  0  0  0
  136.7848   81.3530  222.8821 H   0  0  0  0  0  0  0  0  0  0  0  0
  138.4120   82.1837  222.8516 H   0  0  0  0  0  0  0  0  0  0  0  0
  138.2960   80.4040  221.6630 C   0  0  0  0  0  0  0  0  0  0  0  0
  137.5576   80.5654  220.8638 H   0  0  0  0  0  0  0  0  0  0  0  0
  139.2960   80.7415  221.3530 H   0  0  0  0  0  0  0  0  0  0  0  0
  141.8290   80.7240  221.4280 C   0  0  0  0  0  0  0  0  0  0  0  0
  141.5060   81.8750  222.1650 C   0  0  0  0  0  0  0  0  0  0  0  0
  140.9529   82.6943  221.6824 H   0  0  0  0  0  0  0  0  0  0  0  0
  141.8710   81.9850  223.4690 N   0  0  0  0  0  0  0  0  0  0  0  0
  142.5620   81.0020  224.1030 C   0  0  0  0  0  0  0  0  0  0  0  0
  142.8368   81.1181  225.1618 H   0  0  0  0  0  0  0  0  0  0  0  0
  142.9230   79.8460  223.4120 C   0  0  0  0  0  0  0  0  0  0  0  0
  143.4881   79.0502  223.9193 H   0  0  0  0  0  0  0  0  0  0  0  0
  142.5610   79.7070  222.0700 C   0  0  0  0  0  0  0  0  0  0  0  0
  142.8481   78.8021  221.5143 H   0  0  0  0  0  0  0  0  0  0  0  0
  1  2  1  0
  2  3  2  0
  3  4  1  0
  3  5  1  0
  5  6  2  0
  6  7  1  0
  7  8  2  0
  8  9  1  0
  8 10  1  0
 10 11  1  0
 10 12  2  0
 12 13  1  0
 13 14  1  0
 13 15  2  0
 15 16  1  0
 16 17  2  0
 16 18  1  0
 18 19  1  0
 19 20  1  0
 19 21  1  0
 19 22  1  0
 22 23  1  0
 22 24  1  0
 24 25  1  0
 24 26  1  0
 24 27  1  0
 27 28  1  0
 27 29  1  0
 27 30  1  0
 30 31  1  0
 30 32  1  0
 30 33  1  0
 33 34  1  0
 33 35  1  0
 33 36  1  0
 36 37  1  0
 36 38  1  0
  2 39  1  0
 39 40  2  0
 40 41  1  0
 40 42  1  0
 42 43  2  0
 43 44  1  0
 43 45  1  0
 45 46  1  0
 45 47  2  0
 47 48  1  0
 18  5  1  0
 36 22  1  0
 47 39  1  0
 15  7  1  0
M  END
>  <UniqueID>  (75) 
464

>  <SMILES>  (75) 
S=c1c2cnccc2nc(/C=C/c2cccnc2)n1CC1CCCCC1

>  <Energy>  (75) 
77.60803565479762

>  <Genealogy>  (75) 
S=c1c2cnccc2nc(/C=C/c2cccnc2)n1CC1CCCCC1 (cis-trans isomerization)
S=c1c2cnccc2nc(/C=C/c2cccnc2)n1CC1CCCCC1 (3D coordinates assigned)
S=c1c2cnccc2nc(/C=C/c2cccnc2)n1CC1CCCCC1 (nonaromatic ring conformer: 77.60803565479762 kcal/mol)

>  <smiles>  (75) 
S=c1c2cnccc2nc(/C=C/c2cccnc2)n1CC1CCCCC1

>  <score_type>  (75) 
oracle

>  <origin>  (75) 
autodockgpu

>  <m_score__min__energy>  (75) 
-7.1799999999999997

>  <m_primary>  (75) 
energy

>  <meeko>  (75) 
{"free_energy": -5.81, "intermolecular_energy": -7.31, "internal_energy": -2.3, "cluster_size": 2, "cluster_id": 5, "rank_in_cluster": 2}

>  <energy>  (75) 
-6.37

>  <cluster_rmsd>  (75) 
0.55

>  <rmsd>  (75) 
270.12

>  <cluster>  (75) 
4

$$$$
VFWNAPSESRSYPS-CMDGGOBGNA-N
     RDKit          3D

 48 51  0  0  0  0  0  0  0  0999 V2000
  142.7549   71.0196  219.1920 H   0  0  0  0  0  0  0  0  0  0  0  0
  143.0120   71.5880  220.0980 C   0  0  0  0  0  0  0  0  0  0  0  0
  142.1630   71.5430  221.1370 C   0  0  0  0  0  0  0  0  0  0  0  0
  142.1934   70.6752  221.8123 H   0  0  0  0  0  0  0  0  0  0  0  0
  141.1790   72.6330  221.4050 C   0  0  0  0  0  0  0  0  0  0  0  0
  141.6020   73.9070  221.1950 N   0  0  0  0  0  0  0  0  0  0  0  0
  140.8100   74.9790  221.3920 C   0  0  0  0  0  0  0  0  0  0  0  0
  141.3180   76.2610  221.1710 C   0  0  0  0  0  0  0  0  0  0  0  0
  142.3611   76.3974  220.8494 H   0  0  0  0  0  0  0  0  0  0  0  0
  140.4900   77.3660  221.3620 C   0  0  0  0  0  0  0  0  0  0  0  0
  140.8785   78.3810  221.1922 H   0  0  0  0  0  0  0  0  0  0  0  0
  139.2030   77.1880  221.7580 N   0  0  0  0  0  0  0  0  0  0  0  0
  138.6830   75.9520  221.9770 C   0  0  0  0  0  0  0  0  0  0  0  0
  137.6352   75.8484  222.2954 H   0  0  0  0  0  0  0  0  0  0  0  0
  139.4810   74.7970  221.7980 C   0  0  0  0  0  0  0  0  0  0  0  0
  139.0170   73.4730  221.9990 C   0  0  0  0  0  0  0  0  0  0  0  0
  137.4060   73.2380  222.3100 S   0  0  0  0  0  0  0  0  0  0  0  0
  139.8890   72.3980  221.8610 N   0  0  0  0  0  0  0  0  0  0  0  0
  139.4340   71.0080  222.1540 C   0  0  0  0  0  0  0  0  0  0  0  0
  138.3379   70.9788  222.0660 H   0  0  0  0  0  0  0  0  0  0  0  0
  139.9393   70.3524  221.4295 H   0  0  0  0  0  0  0  0  0  0  0  0
  139.8240   70.4890  223.5730 C   0  0  0  0  0  0  0  0  0  0  0  0
  140.5130   69.6576  223.3630 H   0  0  0  0  0  0  0  0  0  0  0  0
  140.6130   71.5090  224.4370 C   0  0  0  0  0  0  0  0  0  0  0  0
  141.6555   71.5284  224.0866 H   0  0  0  0  0  0  0  0  0  0  0  0
  140.1144   72.4827  224.3218 H   0  0  0  0  0  0  0  0  0  0  0  0
  140.6110   71.1750  225.9450 C   0  0  0  0  0  0  0  0  0  0  0  0
  141.5739   71.4841  226.3779 H   0  0  0  0  0  0  0  0  0  0  0  0
  139.7725   71.7142  226.4099 H   0  0  0  0  0  0  0  0  0  0  0  0
  140.4110   69.6810  226.2040 C   0  0  0  0  0  0  0  0  0  0  0  0
  141.2294   69.1226  225.7261 H   0  0  0  0  0  0  0  0  0  0  0  0
  140.4079   69.5164  227.2916 H   0  0  0  0  0  0  0  0  0  0  0  0
  139.0680   69.1850  225.6360 C   0  0  0  0  0  0  0  0  0  0  0  0
  139.1654   68.1160  225.3955 H   0  0  0  0  0  0  0  0  0  0  0  0
  138.3033   69.3723  226.4043 H   0  0  0  0  0  0  0  0  0  0  0  0
  138.6230   69.9340  224.3610 C   0  0  0  0  0  0  0  0  0  0  0  0
  138.0653   69.2387  223.7164 H   0  0  0  0  0  0  0  0  0  0  0  0
  137.9936   70.7829  224.6662 H   0  0  0  0  0  0  0  0  0  0  0  0
  144.2780   72.3620  220.1040 C   0  0  0  0  0  0  0  0  0  0  0  0
  145.1060   72.3200  218.9710 C   0  0  0  0  0  0  0  0  0  0  0  0
  144.8034   71.7259  218.0961 H   0  0  0  0  0  0  0  0  0  0  0  0
  146.2780   73.0070  218.9460 N   0  0  0  0  0  0  0  0  0  0  0  0
  146.6960   73.7460  220.0070 C   0  0  0  0  0  0  0  0  0  0  0  0
  147.6474   74.2956  219.9534 H   0  0  0  0  0  0  0  0  0  0  0  0
  145.9200   73.8080  221.1630 C   0  0  0  0  0  0  0  0  0  0  0  0
  146.2569   74.4008  222.0262 H   0  0  0  0  0  0  0  0  0  0  0  0
  144.7110   73.1110  221.2160 C   0  0  0  0  0  0  0  0  0  0  0  0
  144.0959   73.1468  222.1272 H   0  0  0  0  0  0  0  0  0  0  0  0
  1  2  1  0
  2  3  2  0
  3  4  1  0
  3  5  1  0
  5  6  2  0
  6  7  1  0
  7  8  2  0
  8  9  1  0
  8 10  1  0
 10 11  1  0
 10 12  2  0
 12 13  1  0
 13 14  1  0
 13 15  2  0
 15 16  1  0
 16 17  2  0
 16 18  1  0
 18 19  1  0
 19 20  1  0
 19 21  1  0
 19 22  1  0
 22 23  1  0
 22 24  1  0
 24 25  1  0
 24 26  1  0
 24 27  1  0
 27 28  1  0
 27 29  1  0
 27 30  1  0
 30 31  1  0
 30 32  1  0
 30 33  1  0
 33 34  1  0
 33 35  1  0
 33 36  1  0
 36 37  1  0
 36 38  1  0
  2 39  1  0
 39 40  2  0
 40 41  1  0
 40 42  1  0
 42 43  2  0
 43 44  1  0
 43 45  1  0
 45 46  1  0
 45 47  2  0
 47 48  1  0
 18  5  1  0
 36 22  1  0
 47 39  1  0
 15  7  1  0
M  END
>  <UniqueID>  (76) 
464

>  <SMILES>  (76) 
S=c1c2cnccc2nc(/C=C/c2cccnc2)n1CC1CCCCC1

>  <Energy>  (76) 
77.60803565479762

>  <Genealogy>  (76) 
S=c1c2cnccc2nc(/C=C/c2cccnc2)n1CC1CCCCC1 (cis-trans isomerization)
S=c1c2cnccc2nc(/C=C/c2cccnc2)n1CC1CCCCC1 (3D coordinates assigned)
S=c1c2cnccc2nc(/C=C/c2cccnc2)n1CC1CCCCC1 (nonaromatic ring conformer: 77.60803565479762 kcal/mol)

>  <smiles>  (76) 
S=c1c2cnccc2nc(/C=C/c2cccnc2)n1CC1CCCCC1

>  <score_type>  (76) 
oracle

>  <origin>  (76) 
autodockgpu

>  <m_score__min__energy>  (76) 
-7.1799999999999997

>  <m_primary>  (76) 
energy

>  <meeko>  (76) 
{"free_energy": -6.81, "intermolecular_energy": -8.3, "internal_energy": -1.35, "cluster_size": 1, "cluster_id": 3, "rank_in_cluster": 1}

>  <energy>  (76) 
-6.36

>  <cluster_rmsd>  (76) 
0.55

>  <rmsd>  (76) 
270.11

>  <cluster>  (76) 
4

$$$$
VFWNAPSESRSYPS-CMDGGOBGNA-N
     RDKit          3D

 48 51  0  0  0  0  0  0  0  0999 V2000
  141.2147   76.1154  223.0442 H   0  0  0  0  0  0  0  0  0  0  0  0
  141.0790   76.8480  222.2350 C   0  0  0  0  0  0  0  0  0  0  0  0
  140.8910   76.3870  220.9880 C   0  0  0  0  0  0  0  0  0  0  0  0
  139.8927   76.4717  220.5339 H   0  0  0  0  0  0  0  0  0  0  0  0
  141.9940   75.7630  220.1980 C   0  0  0  0  0  0  0  0  0  0  0  0
  142.7800   74.8640  220.8450 N   0  0  0  0  0  0  0  0  0  0  0  0
  143.8030   74.2260  220.2450 C   0  0  0  0  0  0  0  0  0  0  0  0
  144.5790   73.3250  220.9770 C   0  0  0  0  0  0  0  0  0  0  0  0
  144.3662   73.1457  222.0412 H   0  0  0  0  0  0  0  0  0  0  0  0
  145.6260   72.6550  220.3460 C   0  0  0  0  0  0  0  0  0  0  0  0
  146.2444   71.9429  220.9122 H   0  0  0  0  0  0  0  0  0  0  0  0
  145.8820   72.8820  219.0320 N   0  0  0  0  0  0  0  0  0  0  0  0
  145.1400   73.7510  218.2950 C   0  0  0  0  0  0  0  0  0  0  0  0
  145.3760   73.9068  217.2320 H   0  0  0  0  0  0  0  0  0  0  0  0
  144.0660   74.4560  218.8880 C   0  0  0  0  0  0  0  0  0  0  0  0
  143.2400   75.3750  218.1910 C   0  0  0  0  0  0  0  0  0  0  0  0
  143.4310   75.5250  216.5520 S   0  0  0  0  0  0  0  0  0  0  0  0
  142.2450   76.0710  218.8680 N   0  0  0  0  0  0  0  0  0  0  0  0
  141.4270   77.1030  218.1660 C   0  0  0  0  0  0  0  0  0  0  0  0
  141.7260   77.1176  217.1075 H   0  0  0  0  0  0  0  0  0  0  0  0
  140.3737   76.8203  218.3100 H   0  0  0  0  0  0  0  0  0  0  0  0
  141.5830   78.5460  218.7370 C   0  0  0  0  0  0  0  0  0  0  0  0
  142.0546   78.3844  219.7175 H   0  0  0  0  0  0  0  0  0  0  0  0
  142.5450   79.4580  217.9280 C   0  0  0  0  0  0  0  0  0  0  0  0
  143.5797   79.1780  218.1751 H   0  0  0  0  0  0  0  0  0  0  0  0
  142.3136   79.3069  216.8633 H   0  0  0  0  0  0  0  0  0  0  0  0
  142.3630   80.9640  218.2220 C   0  0  0  0  0  0  0  0  0  0  0  0
  143.3426   81.4596  218.1532 H   0  0  0  0  0  0  0  0  0  0  0  0
  141.6570   81.3702  217.4827 H   0  0  0  0  0  0  0  0  0  0  0  0
  141.7810   81.2130  219.6150 C   0  0  0  0  0  0  0  0  0  0  0  0
  142.4635   80.7922  220.3681 H   0  0  0  0  0  0  0  0  0  0  0  0
  141.6674   82.2984  219.7528 H   0  0  0  0  0  0  0  0  0  0  0  0
  140.3960   80.5580  219.7730 C   0  0  0  0  0  0  0  0  0  0  0  0
  140.2391   80.3278  220.8371 H   0  0  0  0  0  0  0  0  0  0  0  0
  139.6543   81.2727  219.3869 H   0  0  0  0  0  0  0  0  0  0  0  0
  140.2350   79.2540  218.9620 C   0  0  0  0  0  0  0  0  0  0  0  0
  139.5643   78.5755  219.5096 H   0  0  0  0  0  0  0  0  0  0  0  0
  139.8192   79.5148  217.9776 H   0  0  0  0  0  0  0  0  0  0  0  0
  141.1140   78.2900  222.5830 C   0  0  0  0  0  0  0  0  0  0  0  0
  142.3010   79.0110  222.3760 C   0  0  0  0  0  0  0  0  0  0  0  0
  143.1809   78.5040  221.9532 H   0  0  0  0  0  0  0  0  0  0  0  0
  142.3710   80.3300  222.6940 N   0  0  0  0  0  0  0  0  0  0  0  0
  141.3130   80.9950  223.2260 C   0  0  0  0  0  0  0  0  0  0  0  0
  141.4004   82.0649  223.4661 H   0  0  0  0  0  0  0  0  0  0  0  0
  140.1160   80.3220  223.4680 C   0  0  0  0  0  0  0  0  0  0  0  0
  139.2582   80.8546  223.9045 H   0  0  0  0  0  0  0  0  0  0  0  0
  140.0160   78.9650  223.1510 C   0  0  0  0  0  0  0  0  0  0  0  0
  139.0787   78.4231  223.3452 H   0  0  0  0  0  0  0  0  0  0  0  0
  1  2  1  0
  2  3  2  0
  3  4  1  0
  3  5  1  0
  5  6  2  0
  6  7  1  0
  7  8  2  0
  8  9  1  0
  8 10  1  0
 10 11  1  0
 10 12  2  0
 12 13  1  0
 13 14  1  0
 13 15  2  0
 15 16  1  0
 16 17  2  0
 16 18  1  0
 18 19  1  0
 19 20  1  0
 19 21  1  0
 19 22  1  0
 22 23  1  0
 22 24  1  0
 24 25  1  0
 24 26  1  0
 24 27  1  0
 27 28  1  0
 27 29  1  0
 27 30  1  0
 30 31  1  0
 30 32  1  0
 30 33  1  0
 33 34  1  0
 33 35  1  0
 33 36  1  0
 36 37  1  0
 36 38  1  0
  2 39  1  0
 39 40  2  0
 40 41  1  0
 40 42  1  0
 42 43  2  0
 43 44  1  0
 43 45  1  0
 45 46  1  0
 45 47  2  0
 47 48  1  0
 18  5  1  0
 36 22  1  0
 47 39  1  0
 15  7  1  0
M  END
>  <UniqueID>  (77) 
464

>  <SMILES>  (77) 
S=c1c2cnccc2nc(/C=C/c2cccnc2)n1CC1CCCCC1

>  <Energy>  (77) 
77.60803565479762

>  <Genealogy>  (77) 
S=c1c2cnccc2nc(/C=C/c2cccnc2)n1CC1CCCCC1 (cis-trans isomerization)
S=c1c2cnccc2nc(/C=C/c2cccnc2)n1CC1CCCCC1 (3D coordinates assigned)
S=c1c2cnccc2nc(/C=C/c2cccnc2)n1CC1CCCCC1 (nonaromatic ring conformer: 77.60803565479762 kcal/mol)

>  <smiles>  (77) 
S=c1c2cnccc2nc(/C=C/c2cccnc2)n1CC1CCCCC1

>  <score_type>  (77) 
oracle

>  <origin>  (77) 
autodockgpu

>  <m_score__min__energy>  (77) 
-7.1799999999999997

>  <m_primary>  (77) 
energy

>  <meeko>  (77) 
{"free_energy": -6.37, "intermolecular_energy": -7.86, "internal_energy": -1.84, "cluster_size": 9, "cluster_id": 4, "rank_in_cluster": 6}

>  <energy>  (77) 
-6.21

>  <cluster_rmsd>  (77) 
0.49

>  <rmsd>  (77) 
269.97

>  <cluster>  (77) 
4

$$$$
VFWNAPSESRSYPS-CMDGGOBGNA-N
     RDKit          3D

 48 51  0  0  0  0  0  0  0  0999 V2000
  141.2406   76.0207  223.0684 H   0  0  0  0  0  0  0  0  0  0  0  0
  141.0810   76.7710  222.2800 C   0  0  0  0  0  0  0  0  0  0  0  0
  140.8890   76.3390  221.0240 C   0  0  0  0  0  0  0  0  0  0  0  0
  139.8897   76.4350  220.5743 H   0  0  0  0  0  0  0  0  0  0  0  0
  141.9900   75.7320  220.2180 C   0  0  0  0  0  0  0  0  0  0  0  0
  142.7840   74.8260  220.8460 N   0  0  0  0  0  0  0  0  0  0  0  0
  143.8060   74.2020  220.2300 C   0  0  0  0  0  0  0  0  0  0  0  0
  144.5910   73.2940  220.9440 C   0  0  0  0  0  0  0  0  0  0  0  0
  144.3856   73.0978  222.0067 H   0  0  0  0  0  0  0  0  0  0  0  0
  145.6370   72.6390  220.2970 C   0  0  0  0  0  0  0  0  0  0  0  0
  146.2627   71.9219  220.8486 H   0  0  0  0  0  0  0  0  0  0  0  0
  145.8830   72.8870  218.9850 N   0  0  0  0  0  0  0  0  0  0  0  0
  145.1330   73.7630  218.2650 C   0  0  0  0  0  0  0  0  0  0  0  0
  145.3617   73.9353  217.2029 H   0  0  0  0  0  0  0  0  0  0  0  0
  144.0600   74.4540  218.8750 C   0  0  0  0  0  0  0  0  0  0  0  0
  143.2250   75.3790  218.1980 C   0  0  0  0  0  0  0  0  0  0  0  0
  143.4060   75.5550  216.5600 S   0  0  0  0  0  0  0  0  0  0  0  0
  142.2310   76.0610  218.8910 N   0  0  0  0  0  0  0  0  0  0  0  0
  141.4050   77.1000  218.2100 C   0  0  0  0  0  0  0  0  0  0  0  0
  141.6846   77.1189  217.1463 H   0  0  0  0  0  0  0  0  0  0  0  0
  140.3535   76.8209  218.3723 H   0  0  0  0  0  0  0  0  0  0  0  0
  141.5770   78.5390  218.7850 C   0  0  0  0  0  0  0  0  0  0  0  0
  142.0732   78.3716  219.7524 H   0  0  0  0  0  0  0  0  0  0  0  0
  142.5190   79.4540  217.9570 C   0  0  0  0  0  0  0  0  0  0  0  0
  143.5593   79.1716  218.1762 H   0  0  0  0  0  0  0  0  0  0  0  0
  142.2608   79.3089  216.8976 H   0  0  0  0  0  0  0  0  0  0  0  0
  142.3460   80.9590  218.2640 C   0  0  0  0  0  0  0  0  0  0  0  0
  143.3239   81.4542  218.1722 H   0  0  0  0  0  0  0  0  0  0  0  0
  141.6211   81.3697  217.5457 H   0  0  0  0  0  0  0  0  0  0  0  0
  141.8010   81.2010  219.6730 C   0  0  0  0  0  0  0  0  0  0  0  0
  142.5025   80.7756  220.4058 H   0  0  0  0  0  0  0  0  0  0  0  0
  141.6922   82.2857  219.8199 H   0  0  0  0  0  0  0  0  0  0  0  0
  140.4200   80.5460  219.8630 C   0  0  0  0  0  0  0  0  0  0  0  0
  140.2908   80.3096  220.9295 H   0  0  0  0  0  0  0  0  0  0  0  0
  139.6694   81.2636  219.5002 H   0  0  0  0  0  0  0  0  0  0  0  0
  140.2360   79.2470  219.0490 C   0  0  0  0  0  0  0  0  0  0  0  0
  139.5790   78.5661  219.6100 H   0  0  0  0  0  0  0  0  0  0  0  0
  139.7948   79.5137  218.0773 H   0  0  0  0  0  0  0  0  0  0  0  0
  141.0900   78.2040  222.6650 C   0  0  0  0  0  0  0  0  0  0  0  0
  139.8890   78.8050  223.0760 C   0  0  0  0  0  0  0  0  0  0  0  0
  138.9659   78.2080  223.1157 H   0  0  0  0  0  0  0  0  0  0  0  0
  139.8580   80.1180  223.4250 N   0  0  0  0  0  0  0  0  0  0  0  0
  140.9720   80.8950  223.3830 C   0  0  0  0  0  0  0  0  0  0  0  0
  140.9156   81.9531  223.6783 H   0  0  0  0  0  0  0  0  0  0  0  0
  142.1860   80.3520  222.9660 C   0  0  0  0  0  0  0  0  0  0  0  0
  143.0888   80.9791  222.9247 H   0  0  0  0  0  0  0  0  0  0  0  0
  142.2470   79.0050  222.6010 C   0  0  0  0  0  0  0  0  0  0  0  0
  143.1990   78.5695  222.2634 H   0  0  0  0  0  0  0  0  0  0  0  0
  1  2  1  0
  2  3  2  0
  3  4  1  0
  3  5  1  0
  5  6  2  0
  6  7  1  0
  7  8  2  0
  8  9  1  0
  8 10  1  0
 10 11  1  0
 10 12  2  0
 12 13  1  0
 13 14  1  0
 13 15  2  0
 15 16  1  0
 16 17  2  0
 16 18  1  0
 18 19  1  0
 19 20  1  0
 19 21  1  0
 19 22  1  0
 22 23  1  0
 22 24  1  0
 24 25  1  0
 24 26  1  0
 24 27  1  0
 27 28  1  0
 27 29  1  0
 27 30  1  0
 30 31  1  0
 30 32  1  0
 30 33  1  0
 33 34  1  0
 33 35  1  0
 33 36  1  0
 36 37  1  0
 36 38  1  0
  2 39  1  0
 39 40  2  0
 40 41  1  0
 40 42  1  0
 42 43  2  0
 43 44  1  0
 43 45  1  0
 45 46  1  0
 45 47  2  0
 47 48  1  0
 18  5  1  0
 36 22  1  0
 47 39  1  0
 15  7  1  0
M  END
>  <UniqueID>  (78) 
464

>  <SMILES>  (78) 
S=c1c2cnccc2nc(/C=C/c2cccnc2)n1CC1CCCCC1

>  <Energy>  (78) 
77.60803565479762

>  <Genealogy>  (78) 
S=c1c2cnccc2nc(/C=C/c2cccnc2)n1CC1CCCCC1 (cis-trans isomerization)
S=c1c2cnccc2nc(/C=C/c2cccnc2)n1CC1CCCCC1 (3D coordinates assigned)
S=c1c2cnccc2nc(/C=C/c2cccnc2)n1CC1CCCCC1 (nonaromatic ring conformer: 77.60803565479762 kcal/mol)

>  <smiles>  (78) 
S=c1c2cnccc2nc(/C=C/c2cccnc2)n1CC1CCCCC1

>  <score_type>  (78) 
oracle

>  <origin>  (78) 
autodockgpu

>  <m_score__min__energy>  (78) 
-7.1799999999999997

>  <m_primary>  (78) 
energy

>  <meeko>  (78) 
{"free_energy": -6.45, "intermolecular_energy": -7.94, "internal_energy": -1.83, "cluster_size": 9, "cluster_id": 4, "rank_in_cluster": 2}

>  <energy>  (78) 
-6.06

>  <cluster_rmsd>  (78) 
0.73

>  <rmsd>  (78) 
269.95

>  <cluster>  (78) 
4

$$$$
VFWNAPSESRSYPS-CMDGGOBGNA-N
     RDKit          3D

 48 51  0  0  0  0  0  0  0  0999 V2000
  143.5758   75.9878  218.1833 H   0  0  0  0  0  0  0  0  0  0  0  0
  143.5370   75.5820  219.2050 C   0  0  0  0  0  0  0  0  0  0  0  0
  142.6900   76.1470  220.0800 C   0  0  0  0  0  0  0  0  0  0  0  0
  142.8551   77.1919  220.3817 H   0  0  0  0  0  0  0  0  0  0  0  0
  141.5310   75.4030  220.6570 C   0  0  0  0  0  0  0  0  0  0  0  0
  141.7190   74.0840  220.9210 N   0  0  0  0  0  0  0  0  0  0  0  0
  140.7580   73.3020  221.4480 C   0  0  0  0  0  0  0  0  0  0  0  0
  141.0170   71.9490  221.6780 C   0  0  0  0  0  0  0  0  0  0  0  0
  141.9958   71.5190  221.4190 H   0  0  0  0  0  0  0  0  0  0  0  0
  140.0230   71.1490  222.2390 C   0  0  0  0  0  0  0  0  0  0  0  0
  140.2147   70.0819  222.4247 H   0  0  0  0  0  0  0  0  0  0  0  0
  138.8180   71.6880  222.5560 N   0  0  0  0  0  0  0  0  0  0  0  0
  138.5400   73.0020  222.3470 C   0  0  0  0  0  0  0  0  0  0  0  0
  137.5529   73.4028  222.6208 H   0  0  0  0  0  0  0  0  0  0  0  0
  139.5140   73.8570  221.7790 C   0  0  0  0  0  0  0  0  0  0  0  0
  139.3090   75.2390  221.5320 C   0  0  0  0  0  0  0  0  0  0  0  0
  137.9100   75.9410  222.0760 S   0  0  0  0  0  0  0  0  0  0  0  0
  140.3010   75.9920  220.9130 N   0  0  0  0  0  0  0  0  0  0  0  0
  140.0640   77.4240  220.5700 C   0  0  0  0  0  0  0  0  0  0  0  0
  140.4966   77.6162  219.5770 H   0  0  0  0  0  0  0  0  0  0  0  0
  138.9753   77.5783  220.6004 H   0  0  0  0  0  0  0  0  0  0  0  0
  140.6860   78.4390  221.5780 C   0  0  0  0  0  0  0  0  0  0  0  0
  141.6145   78.7585  221.0823 H   0  0  0  0  0  0  0  0  0  0  0  0
  139.8400   79.7220  221.8030 C   0  0  0  0  0  0  0  0  0  0  0  0
  139.9844   80.3897  220.9409 H   0  0  0  0  0  0  0  0  0  0  0  0
  138.7930   79.4034  221.9137 H   0  0  0  0  0  0  0  0  0  0  0  0
  140.2180   80.4930  223.0870 C   0  0  0  0  0  0  0  0  0  0  0  0
  140.0884   81.5700  222.9045 H   0  0  0  0  0  0  0  0  0  0  0  0
  139.5616   80.1421  223.8969 H   0  0  0  0  0  0  0  0  0  0  0  0
  141.6650   80.2360  223.5110 C   0  0  0  0  0  0  0  0  0  0  0  0
  142.3374   80.5590  222.7026 H   0  0  0  0  0  0  0  0  0  0  0  0
  141.8613   80.8035  224.4326 H   0  0  0  0  0  0  0  0  0  0  0  0
  141.9100   78.7430  223.8000 C   0  0  0  0  0  0  0  0  0  0  0  0
  142.9720   78.5228  223.6164 H   0  0  0  0  0  0  0  0  0  0  0  0
  141.6211   78.5650  224.8464 H   0  0  0  0  0  0  0  0  0  0  0  0
  141.0570   77.7970  222.9270 C   0  0  0  0  0  0  0  0  0  0  0  0
  141.6283   76.8763  222.7375 H   0  0  0  0  0  0  0  0  0  0  0  0
  140.1248   77.5808  223.4694 H   0  0  0  0  0  0  0  0  0  0  0  0
  144.4240   74.4400  219.5400 C   0  0  0  0  0  0  0  0  0  0  0  0
  144.8260   73.5680  218.5140 C   0  0  0  0  0  0  0  0  0  0  0  0
  144.4880   73.7459  217.4824 H   0  0  0  0  0  0  0  0  0  0  0  0
  145.6290   72.5070  218.7870 N   0  0  0  0  0  0  0  0  0  0  0  0
  146.0630   72.2430  220.0470 C   0  0  0  0  0  0  0  0  0  0  0  0
  146.7176   71.3788  220.2333 H   0  0  0  0  0  0  0  0  0  0  0  0
  145.6790   73.0670  221.1040 C   0  0  0  0  0  0  0  0  0  0  0  0
  146.0227   72.8536  222.1269 H   0  0  0  0  0  0  0  0  0  0  0  0
  144.8540   74.1660  220.8530 C   0  0  0  0  0  0  0  0  0  0  0  0
  144.5399   74.8180  221.6814 H   0  0  0  0  0  0  0  0  0  0  0  0
  1  2  1  0
  2  3  2  0
  3  4  1  0
  3  5  1  0
  5  6  2  0
  6  7  1  0
  7  8  2  0
  8  9  1  0
  8 10  1  0
 10 11  1  0
 10 12  2  0
 12 13  1  0
 13 14  1  0
 13 15  2  0
 15 16  1  0
 16 17  2  0
 16 18  1  0
 18 19  1  0
 19 20  1  0
 19 21  1  0
 19 22  1  0
 22 23  1  0
 22 24  1  0
 24 25  1  0
 24 26  1  0
 24 27  1  0
 27 28  1  0
 27 29  1  0
 27 30  1  0
 30 31  1  0
 30 32  1  0
 30 33  1  0
 33 34  1  0
 33 35  1  0
 33 36  1  0
 36 37  1  0
 36 38  1  0
  2 39  1  0
 39 40  2  0
 40 41  1  0
 40 42  1  0
 42 43  2  0
 43 44  1  0
 43 45  1  0
 45 46  1  0
 45 47  2  0
 47 48  1  0
 18  5  1  0
 36 22  1  0
 47 39  1  0
 15  7  1  0
M  END
>  <UniqueID>  (79) 
464

>  <SMILES>  (79) 
S=c1c2cnccc2nc(/C=C/c2cccnc2)n1CC1CCCCC1

>  <Energy>  (79) 
77.60803565479762

>  <Genealogy>  (79) 
S=c1c2cnccc2nc(/C=C/c2cccnc2)n1CC1CCCCC1 (cis-trans isomerization)
S=c1c2cnccc2nc(/C=C/c2cccnc2)n1CC1CCCCC1 (3D coordinates assigned)
S=c1c2cnccc2nc(/C=C/c2cccnc2)n1CC1CCCCC1 (nonaromatic ring conformer: 77.60803565479762 kcal/mol)

>  <smiles>  (79) 
S=c1c2cnccc2nc(/C=C/c2cccnc2)n1CC1CCCCC1

>  <score_type>  (79) 
oracle

>  <origin>  (79) 
autodockgpu

>  <m_score__min__energy>  (79) 
-7.1799999999999997

>  <m_primary>  (79) 
energy

>  <meeko>  (79) 
{"free_energy": -6.74, "intermolecular_energy": -8.24, "internal_energy": -1.42, "cluster_size": 7, "cluster_id": 2, "rank_in_cluster": 7}

>  <energy>  (79) 
-5.82

>  <cluster_rmsd>  (79) 
0.0

>  <rmsd>  (79) 
270.78

>  <cluster>  (79) 
5

$$$$
VFWNAPSESRSYPS-CMDGGOBGNA-N
     RDKit          3D

 48 51  0  0  0  0  0  0  0  0999 V2000
  143.2317   75.4561  218.0952 H   0  0  0  0  0  0  0  0  0  0  0  0
  143.4600   75.3150  219.1620 C   0  0  0  0  0  0  0  0  0  0  0  0
  142.8260   76.0920  220.0540 C   0  0  0  0  0  0  0  0  0  0  0  0
  143.3233   77.0047  220.4142 H   0  0  0  0  0  0  0  0  0  0  0  0
  141.4660   75.7560  220.5730 C   0  0  0  0  0  0  0  0  0  0  0  0
  141.2010   74.4430  220.7930 N   0  0  0  0  0  0  0  0  0  0  0  0
  140.0170   74.0080  221.2660 C   0  0  0  0  0  0  0  0  0  0  0  0
  139.8080   72.6400  221.4530 C   0  0  0  0  0  0  0  0  0  0  0  0
  140.5998   71.9182  221.2040 H   0  0  0  0  0  0  0  0  0  0  0  0
  138.5870   72.1980  221.9580 C   0  0  0  0  0  0  0  0  0  0  0  0
  138.4105   71.1229  222.1095 H   0  0  0  0  0  0  0  0  0  0  0  0
  137.6150   73.0960  222.2630 N   0  0  0  0  0  0  0  0  0  0  0  0
  137.7920   74.4330  222.0950 C   0  0  0  0  0  0  0  0  0  0  0  0
  136.9820   75.1296  222.3569 H   0  0  0  0  0  0  0  0  0  0  0  0
  139.0130   74.9330  221.5850 C   0  0  0  0  0  0  0  0  0  0  0  0
  139.2830   76.3110  221.3830 C   0  0  0  0  0  0  0  0  0  0  0  0
  138.1730   77.4210  221.9160 S   0  0  0  0  0  0  0  0  0  0  0  0
  140.4890   76.7110  220.8180 N   0  0  0  0  0  0  0  0  0  0  0  0
  140.7490   78.1500  220.5210 C   0  0  0  0  0  0  0  0  0  0  0  0
  141.3738   78.2077  219.6175 H   0  0  0  0  0  0  0  0  0  0  0  0
  139.7662   78.6273  220.3930 H   0  0  0  0  0  0  0  0  0  0  0  0
  141.4740   78.9220  221.6660 C   0  0  0  0  0  0  0  0  0  0  0  0
  142.5168   78.5815  221.5851 H   0  0  0  0  0  0  0  0  0  0  0  0
  141.4960   80.4650  221.4880 C   0  0  0  0  0  0  0  0  0  0  0  0
  142.2638   80.7182  220.7421 H   0  0  0  0  0  0  0  0  0  0  0  0
  140.4876   80.7675  221.1694 H   0  0  0  0  0  0  0  0  0  0  0  0
  141.8090   81.2330  222.7910 C   0  0  0  0  0  0  0  0  0  0  0  0
  142.3848   82.1362  222.5405 H   0  0  0  0  0  0  0  0  0  0  0  0
  140.8527   81.4887  223.2708 H   0  0  0  0  0  0  0  0  0  0  0  0
  142.6190   80.3900  223.7770 C   0  0  0  0  0  0  0  0  0  0  0  0
  143.5705   80.1035  223.3052 H   0  0  0  0  0  0  0  0  0  0  0  0
  142.7963   80.9908  224.6812 H   0  0  0  0  0  0  0  0  0  0  0  0
  141.8580   79.1140  224.1850 C   0  0  0  0  0  0  0  0  0  0  0  0
  142.5931   78.3431  224.4594 H   0  0  0  0  0  0  0  0  0  0  0  0
  141.2021   79.3838  225.0258 H   0  0  0  0  0  0  0  0  0  0  0  0
  140.9540   78.5510  223.0670 C   0  0  0  0  0  0  0  0  0  0  0  0
  140.9204   77.4550  223.1551 H   0  0  0  0  0  0  0  0  0  0  0  0
  139.9522   78.9895  223.1857 H   0  0  0  0  0  0  0  0  0  0  0  0
  144.4520   74.2760  219.5350 C   0  0  0  0  0  0  0  0  0  0  0  0
  144.8740   73.3580  218.5590 C   0  0  0  0  0  0  0  0  0  0  0  0
  144.4736   73.4257  217.5367 H   0  0  0  0  0  0  0  0  0  0  0  0
  145.7730   72.3870  218.8680 N   0  0  0  0  0  0  0  0  0  0  0  0
  146.2870   72.2610  220.1200 C   0  0  0  0  0  0  0  0  0  0  0  0
  147.0184   71.4685  220.3367 H   0  0  0  0  0  0  0  0  0  0  0  0
  145.8880   73.1350  221.1290 C   0  0  0  0  0  0  0  0  0  0  0  0
  146.2961   73.0318  222.1453 H   0  0  0  0  0  0  0  0  0  0  0  0
  144.9660   74.1430  220.8400 C   0  0  0  0  0  0  0  0  0  0  0  0
  144.6407   74.8338  221.6318 H   0  0  0  0  0  0  0  0  0  0  0  0
  1  2  1  0
  2  3  2  0
  3  4  1  0
  3  5  1  0
  5  6  2  0
  6  7  1  0
  7  8  2  0
  8  9  1  0
  8 10  1  0
 10 11  1  0
 10 12  2  0
 12 13  1  0
 13 14  1  0
 13 15  2  0
 15 16  1  0
 16 17  2  0
 16 18  1  0
 18 19  1  0
 19 20  1  0
 19 21  1  0
 19 22  1  0
 22 23  1  0
 22 24  1  0
 24 25  1  0
 24 26  1  0
 24 27  1  0
 27 28  1  0
 27 29  1  0
 27 30  1  0
 30 31  1  0
 30 32  1  0
 30 33  1  0
 33 34  1  0
 33 35  1  0
 33 36  1  0
 36 37  1  0
 36 38  1  0
  2 39  1  0
 39 40  2  0
 40 41  1  0
 40 42  1  0
 42 43  2  0
 43 44  1  0
 43 45  1  0
 45 46  1  0
 45 47  2  0
 47 48  1  0
 18  5  1  0
 36 22  1  0
 47 39  1  0
 15  7  1  0
M  END
>  <UniqueID>  (80) 
464

>  <SMILES>  (80) 
S=c1c2cnccc2nc(/C=C/c2cccnc2)n1CC1CCCCC1

>  <Energy>  (80) 
77.60803565479762

>  <Genealogy>  (80) 
S=c1c2cnccc2nc(/C=C/c2cccnc2)n1CC1CCCCC1 (cis-trans isomerization)
S=c1c2cnccc2nc(/C=C/c2cccnc2)n1CC1CCCCC1 (3D coordinates assigned)
S=c1c2cnccc2nc(/C=C/c2cccnc2)n1CC1CCCCC1 (nonaromatic ring conformer: 77.60803565479762 kcal/mol)

>  <smiles>  (80) 
S=c1c2cnccc2nc(/C=C/c2cccnc2)n1CC1CCCCC1

>  <score_type>  (80) 
oracle

>  <origin>  (80) 
autodockgpu

>  <m_score__min__energy>  (80) 
-7.1799999999999997

>  <m_primary>  (80) 
energy

>  <meeko>  (80) 
{"free_energy": -7.06, "intermolecular_energy": -8.56, "internal_energy": -1.18, "cluster_size": 7, "cluster_id": 2, "rank_in_cluster": 4}

>  <energy>  (80) 
-5.81

>  <cluster_rmsd>  (80) 
0.03

>  <rmsd>  (80) 
270.78

>  <cluster>  (80) 
5

$$$$
