XKJAOWLAVYPRNA-QTZDNFDFNA-O
     RDKit          3D

 69 74  0  0  0  0  0  0  0  0999 V2000
  141.8730   80.5550  222.2790 C   0  0  0  0  0  0  0  0  0  0  0  0
  141.3230   80.0120  223.4430 C   0  0  0  0  0  0  0  0  0  0  0  0
  140.9160   78.6780  223.4690 C   0  0  0  0  0  0  0  0  0  0  0  0
  141.0680   77.8660  222.3320 C   0  0  0  0  0  0  0  0  0  0  0  0
  141.6170   78.4190  221.1480 C   0  0  0  0  0  0  0  0  0  0  0  0
  142.0240   79.7620  221.1380 C   0  0  0  0  0  0  0  0  0  0  0  0
  141.8780   77.5670  219.9270 C   0  0  0  0  0  0  0  0  0  0  0  0
  140.9930   76.3230  219.9010 C   0  0  0  0  0  0  0  0  0  0  0  0
  141.0180   75.6740  221.2110 N   0  0  0  0  0  0  0  0  0  0  0  0
  141.1270   74.2510  221.2940 C   0  0  0  0  0  0  0  0  0  0  0  0
  141.8110   73.5700  220.3400 N   0  0  0  0  0  0  0  0  0  0  0  0
  141.9330   72.2230  220.4230 C   0  0  0  0  0  0  0  0  0  0  0  0
  142.7160   71.5160  219.4550 N   0  0  0  0  0  0  0  0  0  0  0  0
  142.1630   70.4370  218.6380 C   0  0  0  0  0  0  0  0  0  0  0  0
  140.6220   70.4650  218.6850 C   0  0  0  0  0  0  0  0  0  0  0  0
  140.0670   69.5970  219.7500 N   0  0  0  0  0  0  0  0  0  0  0  0
  138.6070   69.4590  219.5650 C   0  0  0  0  0  0  0  0  0  0  0  0
  137.9930   68.5570  220.6600 C   0  0  0  0  0  0  0  0  0  0  0  0
  138.9710   67.8520  221.4020 O   0  0  0  0  0  0  0  0  0  0  0  0
  139.8680   67.2160  220.5180 C   0  0  0  0  0  0  0  0  0  0  0  0
  140.7100   68.2590  219.7560 C   0  0  0  0  0  0  0  0  0  0  0  0
  141.3560   71.5590  221.4580 N   0  0  0  0  0  0  0  0  0  0  0  0
  140.6770   72.2310  222.4210 C   0  0  0  0  0  0  0  0  0  0  0  0
  140.1120   71.5230  223.5410 N   0  0  0  0  0  0  0  0  0  0  0  0
  138.9090   70.6970  223.3840 C   0  0  0  0  0  0  0  0  0  0  0  0
  139.1820   69.3080  223.9470 C   0  0  0  0  0  0  0  0  0  0  0  0
  139.6950   69.4000  225.3600 C   0  0  0  0  0  0  0  0  0  0  0  0
  139.4990   68.3210  226.2360 C   0  0  0  0  0  0  0  0  0  0  0  0
  140.0010   68.3730  227.5380 C   0  0  0  0  0  0  0  0  0  0  0  0
  140.7070   69.4950  227.9720 C   0  0  0  0  0  0  0  0  0  0  0  0
  140.9170   70.5710  227.1100 C   0  0  0  0  0  0  0  0  0  0  0  0
  140.4250   70.5310  225.7950 C   0  0  0  0  0  0  0  0  0  0  0  0
  140.6690   71.7180  224.8880 C   0  0  0  0  0  0  0  0  0  0  0  0
  140.5730   73.5830  222.3390 N   0  0  0  0  0  0  0  0  0  0  0  0
  140.5980   76.4300  222.3930 C   0  0  0  0  0  0  0  0  0  0  0  0
  142.1878   81.6088  222.2606 H   0  0  0  0  0  0  0  0  0  0  0  0
  141.2107   80.6377  224.3407 H   0  0  0  0  0  0  0  0  0  0  0  0
  140.4735   78.2591  224.3848 H   0  0  0  0  0  0  0  0  0  0  0  0
  142.4644   80.1931  220.2269 H   0  0  0  0  0  0  0  0  0  0  0  0
  141.6769   78.1654  219.0262 H   0  0  0  0  0  0  0  0  0  0  0  0
  142.9273   77.2383  219.9586 H   0  0  0  0  0  0  0  0  0  0  0  0
  139.9607   76.6135  219.6563 H   0  0  0  0  0  0  0  0  0  0  0  0
  141.3695   75.6234  219.1402 H   0  0  0  0  0  0  0  0  0  0  0  0
  143.7180   71.7780  219.3290 H   0  0  0  0  0  0  0  0  0  0  0  0
  142.4965   70.5626  217.5973 H   0  0  0  0  0  0  0  0  0  0  0  0
  142.5152   69.4728  219.0333 H   0  0  0  0  0  0  0  0  0  0  0  0
  140.2941   71.4991  218.8672 H   0  0  0  0  0  0  0  0  0  0  0  0
  140.2530   70.0854  217.7208 H   0  0  0  0  0  0  0  0  0  0  0  0
  140.2330   70.0620  220.6750 H   0  0  0  0  0  0  0  0  0  0  0  0
  138.1421   70.4546  219.6165 H   0  0  0  0  0  0  0  0  0  0  0  0
  138.4200   68.9968  218.5845 H   0  0  0  0  0  0  0  0  0  0  0  0
  137.4144   69.1875  221.3511 H   0  0  0  0  0  0  0  0  0  0  0  0
  137.3577   67.8124  220.1580 H   0  0  0  0  0  0  0  0  0  0  0  0
  140.5385   66.5604  221.0930 H   0  0  0  0  0  0  0  0  0  0  0  0
  139.2909   66.6262  219.7906 H   0  0  0  0  0  0  0  0  0  0  0  0
  141.6952   68.3408  220.2383 H   0  0  0  0  0  0  0  0  0  0  0  0
  140.8039   67.9229  218.7128 H   0  0  0  0  0  0  0  0  0  0  0  0
  138.0720   71.1576  223.9292 H   0  0  0  0  0  0  0  0  0  0  0  0
  138.6481   70.6205  222.3181 H   0  0  0  0  0  0  0  0  0  0  0  0
  138.2494   68.7247  223.9383 H   0  0  0  0  0  0  0  0  0  0  0  0
  139.9441   68.8166  223.3244 H   0  0  0  0  0  0  0  0  0  0  0  0
  138.9482   67.4317  225.8958 H   0  0  0  0  0  0  0  0  0  0  0  0
  139.8394   67.5274  228.2228 H   0  0  0  0  0  0  0  0  0  0  0  0
  141.0999   69.5313  228.9988 H   0  0  0  0  0  0  0  0  0  0  0  0
  141.4701   71.4545  227.4613 H   0  0  0  0  0  0  0  0  0  0  0  0
  140.2020   72.6068  225.3373 H   0  0  0  0  0  0  0  0  0  0  0  0
  141.7572   71.8407  224.7845 H   0  0  0  0  0  0  0  0  0  0  0  0
  139.4998   76.4162  222.4538 H   0  0  0  0  0  0  0  0  0  0  0  0
  141.0468   75.9588  223.2799 H   0  0  0  0  0  0  0  0  0  0  0  0
  1  2  2  0
  2  3  1  0
  3  4  2  0
  4  5  1  0
  5  6  2  0
  5  7  1  0
  7  8  1  0
  8  9  1  0
  9 10  1  0
 10 11  2  0
 11 12  1  0
 12 13  1  0
 13 14  1  0
 14 15  1  0
 15 16  1  0
 16 17  1  0
 17 18  1  0
 18 19  1  0
 19 20  1  0
 20 21  1  0
 12 22  2  0
 22 23  1  0
 23 24  1  0
 24 25  1  0
 25 26  1  0
 26 27  1  0
 27 28  2  0
 28 29  1  0
 29 30  2  0
 30 31  1  0
 31 32  2  0
 32 33  1  0
 23 34  2  0
  9 35  1  0
  6  1  1  0
 34 10  1  0
 35  4  1  0
 21 16  1  0
 33 24  1  0
 32 27  1  0
  1 36  1  0
  2 37  1  0
  3 38  1  0
  6 39  1  0
  7 40  1  0
  7 41  1  0
  8 42  1  0
  8 43  1  0
 13 44  1  0
 14 45  1  0
 14 46  1  0
 15 47  1  0
 15 48  1  0
 16 49  1  0
 17 50  1  0
 17 51  1  0
 18 52  1  0
 18 53  1  0
 20 54  1  0
 20 55  1  0
 21 56  1  0
 21 57  1  0
 25 58  1  0
 25 59  1  0
 26 60  1  0
 26 61  1  0
 28 62  1  0
 29 63  1  0
 30 64  1  0
 31 65  1  0
 33 66  1  0
 33 67  1  0
 35 68  1  0
 35 69  1  0
M  CHG  1  16   1
M  END
>  <UniqueID>  (1) 
282

>  <SMILES>  (1) 
c1ccc2c(c1)CCN(c1nc(NCC[NH+]3CCOCC3)nc(N3CCc4ccccc4C3)n1)C2

>  <Energy>  (1) 
88.0844221705638

>  <Genealogy>  (1) 
c1ccc2c(c1)CCN(c1nc(NCC[NH+]3CCOCC3)nc(N3CCc4ccccc4C3)n1)C2 (protonated)
c1ccc2c(c1)CCN(c1nc(NCC[NH+]3CCOCC3)nc(N3CCc4ccccc4C3)n1)C2 (3D coordinates assigned)
c1ccc2c(c1)CCN(c1nc(NCC[NH+]3CCOCC3)nc(N3CCc4ccccc4C3)n1)C2 (nonaromatic ring conformer: 88.0844221705638 kcal/mol)

>  <smiles>  (1) 
c1ccc2c(c1)CCN(c1nc(NCCN3CCOCC3)nc(N3CCc4ccccc4C3)n1)C2

>  <score_type>  (1) 
oracle

>  <origin>  (1) 
autodockgpu

>  <m_score__min__energy>  (1) 
-9.0199999999999996

>  <m_primary>  (1) 
energy

>  <meeko>  (1) 
{"free_energy": -8.2, "intermolecular_energy": -9.99, "internal_energy": -2.18, "cluster_size": 1, "cluster_id": 4, "rank_in_cluster": 1}

>  <energy>  (1) 
-9.02

>  <cluster_rmsd>  (1) 
0.0

>  <rmsd>  (1) 
270.68

>  <cluster>  (1) 
1

$$$$
XKJAOWLAVYPRNA-QTZDNFDFNA-O
     RDKit          3D

 69 74  0  0  0  0  0  0  0  0999 V2000
  142.4270   80.6720  222.6560 C   0  0  0  0  0  0  0  0  0  0  0  0
  142.1220   80.0380  223.8630 C   0  0  0  0  0  0  0  0  0  0  0  0
  141.5610   78.7610  223.8610 C   0  0  0  0  0  0  0  0  0  0  0  0
  141.3110   78.0960  222.6480 C   0  0  0  0  0  0  0  0  0  0  0  0
  141.6120   78.7420  221.4230 C   0  0  0  0  0  0  0  0  0  0  0  0
  142.1790   80.0260  221.4410 C   0  0  0  0  0  0  0  0  0  0  0  0
  141.4420   78.0380  220.0970 C   0  0  0  0  0  0  0  0  0  0  0  0
  140.4210   76.9040  220.1810 C   0  0  0  0  0  0  0  0  0  0  0  0
  140.6900   76.0880  221.3640 N   0  0  0  0  0  0  0  0  0  0  0  0
  140.6260   74.6630  221.2700 C   0  0  0  0  0  0  0  0  0  0  0  0
  140.9950   74.0460  220.1210 N   0  0  0  0  0  0  0  0  0  0  0  0
  140.9540   72.6940  220.0320 C   0  0  0  0  0  0  0  0  0  0  0  0
  141.4130   72.0420  218.8420 N   0  0  0  0  0  0  0  0  0  0  0  0
  141.7620   72.7810  217.6300 C   0  0  0  0  0  0  0  0  0  0  0  0
  142.8180   73.8590  217.9440 C   0  0  0  0  0  0  0  0  0  0  0  0
  143.5850   73.5660  219.1770 N   0  0  0  0  0  0  0  0  0  0  0  0
  144.6970   72.6460  218.8620 C   0  0  0  0  0  0  0  0  0  0  0  0
  145.5220   72.3180  220.1270 C   0  0  0  0  0  0  0  0  0  0  0  0
  145.2160   73.1690  221.2160 O   0  0  0  0  0  0  0  0  0  0  0  0
  145.2560   74.5140  220.7920 C   0  0  0  0  0  0  0  0  0  0  0  0
  144.1090   74.8060  219.8040 C   0  0  0  0  0  0  0  0  0  0  0  0
  140.5290   71.9640  221.0950 N   0  0  0  0  0  0  0  0  0  0  0  0
  140.1650   72.5710  222.2520 C   0  0  0  0  0  0  0  0  0  0  0  0
  139.7630   71.7860  223.3910 N   0  0  0  0  0  0  0  0  0  0  0  0
  138.5450   70.9680  223.3530 C   0  0  0  0  0  0  0  0  0  0  0  0
  138.8870   69.5440  223.7730 C   0  0  0  0  0  0  0  0  0  0  0  0
  139.6010   69.5400  225.1000 C   0  0  0  0  0  0  0  0  0  0  0  0
  139.5270   68.4010  225.9180 C   0  0  0  0  0  0  0  0  0  0  0  0
  140.2130   68.3650  227.1340 C   0  0  0  0  0  0  0  0  0  0  0  0
  140.9820   69.4560  227.5380 C   0  0  0  0  0  0  0  0  0  0  0  0
  141.0720   70.5910  226.7300 C   0  0  0  0  0  0  0  0  0  0  0  0
  140.3940   70.6400  225.5020 C   0  0  0  0  0  0  0  0  0  0  0  0
  140.5120   71.8890  224.6530 C   0  0  0  0  0  0  0  0  0  0  0  0
  140.2250   73.9250  222.3390 N   0  0  0  0  0  0  0  0  0  0  0  0
  140.6860   76.7200  222.6860 C   0  0  0  0  0  0  0  0  0  0  0  0
  142.8633   81.6818  222.6615 H   0  0  0  0  0  0  0  0  0  0  0  0
  142.3247   80.5470  224.8169 H   0  0  0  0  0  0  0  0  0  0  0  0
  141.3127   78.2714  224.8142 H   0  0  0  0  0  0  0  0  0  0  0  0
  142.4296   80.5267  220.4941 H   0  0  0  0  0  0  0  0  0  0  0  0
  141.1019   78.7680  219.3477 H   0  0  0  0  0  0  0  0  0  0  0  0
  142.4122   77.6032  219.8149 H   0  0  0  0  0  0  0  0  0  0  0  0
  139.4083   77.3277  220.2512 H   0  0  0  0  0  0  0  0  0  0  0  0
  140.4965   76.2772  219.2802 H   0  0  0  0  0  0  0  0  0  0  0  0
  141.5000   71.0020  218.8390 H   0  0  0  0  0  0  0  0  0  0  0  0
  142.1680   72.0823  216.8836 H   0  0  0  0  0  0  0  0  0  0  0  0
  140.8583   73.2701  217.2374 H   0  0  0  0  0  0  0  0  0  0  0  0
  143.5199   73.9207  217.0993 H   0  0  0  0  0  0  0  0  0  0  0  0
  142.2863   74.8090  218.1014 H   0  0  0  0  0  0  0  0  0  0  0  0
  142.9470   73.0820  219.8550 H   0  0  0  0  0  0  0  0  0  0  0  0
  144.2857   71.7130  218.4493 H   0  0  0  0  0  0  0  0  0  0  0  0
  145.3578   73.1337  218.1302 H   0  0  0  0  0  0  0  0  0  0  0  0
  145.3138   71.2793  220.4231 H   0  0  0  0  0  0  0  0  0  0  0  0
  146.5833   72.4659  219.8785 H   0  0  0  0  0  0  0  0  0  0  0  0
  145.1552   75.1722  221.6676 H   0  0  0  0  0  0  0  0  0  0  0  0
  146.2153   74.6979  220.2860 H   0  0  0  0  0  0  0  0  0  0  0  0
  143.2910   75.3026  220.3464 H   0  0  0  0  0  0  0  0  0  0  0  0
  144.5050   75.4495  219.0046 H   0  0  0  0  0  0  0  0  0  0  0  0
  137.7986   71.3866  224.0441 H   0  0  0  0  0  0  0  0  0  0  0  0
  138.1328   70.9645  222.3331 H   0  0  0  0  0  0  0  0  0  0  0  0
  137.9590   68.9599  223.8599 H   0  0  0  0  0  0  0  0  0  0  0  0
  139.5468   69.0988  223.0137 H   0  0  0  0  0  0  0  0  0  0  0  0
  138.9274   67.5352  225.6003 H   0  0  0  0  0  0  0  0  0  0  0  0
  140.1465   67.4735  227.7750 H   0  0  0  0  0  0  0  0  0  0  0  0
  141.5197   69.4222  228.4970 H   0  0  0  0  0  0  0  0  0  0  0  0
  141.6764   71.4499  227.0569 H   0  0  0  0  0  0  0  0  0  0  0  0
  140.1217   72.7430  225.2260 H   0  0  0  0  0  0  0  0  0  0  0  0
  141.5744   72.0223  224.4009 H   0  0  0  0  0  0  0  0  0  0  0  0
  139.6469   76.8097  223.0355 H   0  0  0  0  0  0  0  0  0  0  0  0
  141.2778   76.0925  223.3687 H   0  0  0  0  0  0  0  0  0  0  0  0
  1  2  2  0
  2  3  1  0
  3  4  2  0
  4  5  1  0
  5  6  2  0
  5  7  1  0
  7  8  1  0
  8  9  1  0
  9 10  1  0
 10 11  2  0
 11 12  1  0
 12 13  1  0
 13 14  1  0
 14 15  1  0
 15 16  1  0
 16 17  1  0
 17 18  1  0
 18 19  1  0
 19 20  1  0
 20 21  1  0
 12 22  2  0
 22 23  1  0
 23 24  1  0
 24 25  1  0
 25 26  1  0
 26 27  1  0
 27 28  2  0
 28 29  1  0
 29 30  2  0
 30 31  1  0
 31 32  2  0
 32 33  1  0
 23 34  2  0
  9 35  1  0
  6  1  1  0
 34 10  1  0
 35  4  1  0
 21 16  1  0
 33 24  1  0
 32 27  1  0
  1 36  1  0
  2 37  1  0
  3 38  1  0
  6 39  1  0
  7 40  1  0
  7 41  1  0
  8 42  1  0
  8 43  1  0
 13 44  1  0
 14 45  1  0
 14 46  1  0
 15 47  1  0
 15 48  1  0
 16 49  1  0
 17 50  1  0
 17 51  1  0
 18 52  1  0
 18 53  1  0
 20 54  1  0
 20 55  1  0
 21 56  1  0
 21 57  1  0
 25 58  1  0
 25 59  1  0
 26 60  1  0
 26 61  1  0
 28 62  1  0
 29 63  1  0
 30 64  1  0
 31 65  1  0
 33 66  1  0
 33 67  1  0
 35 68  1  0
 35 69  1  0
M  CHG  1  16   1
M  END
>  <UniqueID>  (2) 
282

>  <SMILES>  (2) 
c1ccc2c(c1)CCN(c1nc(NCC[NH+]3CCOCC3)nc(N3CCc4ccccc4C3)n1)C2

>  <Energy>  (2) 
88.0844221705638

>  <Genealogy>  (2) 
c1ccc2c(c1)CCN(c1nc(NCC[NH+]3CCOCC3)nc(N3CCc4ccccc4C3)n1)C2 (protonated)
c1ccc2c(c1)CCN(c1nc(NCC[NH+]3CCOCC3)nc(N3CCc4ccccc4C3)n1)C2 (3D coordinates assigned)
c1ccc2c(c1)CCN(c1nc(NCC[NH+]3CCOCC3)nc(N3CCc4ccccc4C3)n1)C2 (nonaromatic ring conformer: 88.0844221705638 kcal/mol)

>  <smiles>  (2) 
c1ccc2c(c1)CCN(c1nc(NCCN3CCOCC3)nc(N3CCc4ccccc4C3)n1)C2

>  <score_type>  (2) 
oracle

>  <origin>  (2) 
autodockgpu

>  <m_score__min__energy>  (2) 
-9.0199999999999996

>  <m_primary>  (2) 
energy

>  <meeko>  (2) 
{"free_energy": -8.87, "intermolecular_energy": -10.66, "internal_energy": -1.93, "cluster_size": 8, "cluster_id": 2, "rank_in_cluster": 1}

>  <energy>  (2) 
-9.01

>  <cluster_rmsd>  (2) 
0.04

>  <rmsd>  (2) 
270.7

>  <cluster>  (2) 
1

$$$$
XKJAOWLAVYPRNA-QTZDNFDFNA-O
     RDKit          3D

 69 74  0  0  0  0  0  0  0  0999 V2000
  140.0090   69.0980  227.6600 C   0  0  0  0  0  0  0  0  0  0  0  0
  140.8180   70.2230  227.8430 C   0  0  0  0  0  0  0  0  0  0  0  0
  141.0280   71.1130  226.7890 C   0  0  0  0  0  0  0  0  0  0  0  0
  140.4180   70.8950  225.5420 C   0  0  0  0  0  0  0  0  0  0  0  0
  139.6040   69.7500  225.3540 C   0  0  0  0  0  0  0  0  0  0  0  0
  139.4000   68.8650  226.4240 C   0  0  0  0  0  0  0  0  0  0  0  0
  138.8590   69.5160  224.0600 C   0  0  0  0  0  0  0  0  0  0  0  0
  139.5130   70.2410  222.8860 C   0  0  0  0  0  0  0  0  0  0  0  0
  139.8140   71.6210  223.2680 N   0  0  0  0  0  0  0  0  0  0  0  0
  139.5450   72.6830  222.3500 C   0  0  0  0  0  0  0  0  0  0  0  0
  138.4880   72.5920  221.5040 N   0  0  0  0  0  0  0  0  0  0  0  0
  138.2170   73.6040  220.6440 C   0  0  0  0  0  0  0  0  0  0  0  0
  137.0590   73.5370  219.8040 N   0  0  0  0  0  0  0  0  0  0  0  0
  135.8760   74.3620  220.0360 C   0  0  0  0  0  0  0  0  0  0  0  0
  135.9310   74.9980  221.4390 C   0  0  0  0  0  0  0  0  0  0  0  0
  136.9010   76.1150  221.5230 N   0  0  0  0  0  0  0  0  0  0  0  0
  136.7220   77.0150  220.3640 C   0  0  0  0  0  0  0  0  0  0  0  0
  137.7180   78.1950  220.4200 C   0  0  0  0  0  0  0  0  0  0  0  0
  138.3650   78.3080  221.6740 O   0  0  0  0  0  0  0  0  0  0  0  0
  137.4050   78.2700  222.7070 C   0  0  0  0  0  0  0  0  0  0  0  0
  136.7520   76.8760  222.7890 C   0  0  0  0  0  0  0  0  0  0  0  0
  139.0160   74.7010  220.6260 N   0  0  0  0  0  0  0  0  0  0  0  0
  140.0710   74.8060  221.4730 C   0  0  0  0  0  0  0  0  0  0  0  0
  140.8830   75.9960  221.4810 N   0  0  0  0  0  0  0  0  0  0  0  0
  141.6690   76.3820  220.3030 C   0  0  0  0  0  0  0  0  0  0  0  0
  141.3510   77.8280  219.9440 C   0  0  0  0  0  0  0  0  0  0  0  0
  141.5370   78.7250  221.1410 C   0  0  0  0  0  0  0  0  0  0  0  0
  141.8360   80.0830  220.9440 C   0  0  0  0  0  0  0  0  0  0  0  0
  141.9750   80.9370  222.0400 C   0  0  0  0  0  0  0  0  0  0  0  0
  141.8110   80.4460  223.3350 C   0  0  0  0  0  0  0  0  0  0  0  0
  141.5060   79.1010  223.5460 C   0  0  0  0  0  0  0  0  0  0  0  0
  141.3550   78.2310  222.4540 C   0  0  0  0  0  0  0  0  0  0  0  0
  141.0270   76.7770  222.7190 C   0  0  0  0  0  0  0  0  0  0  0  0
  140.3260   73.7950  222.3430 N   0  0  0  0  0  0  0  0  0  0  0  0
  140.6830   71.8730  224.4200 C   0  0  0  0  0  0  0  0  0  0  0  0
  139.8513   68.3944  228.4908 H   0  0  0  0  0  0  0  0  0  0  0  0
  141.2899   70.4071  228.8194 H   0  0  0  0  0  0  0  0  0  0  0  0
  141.6750   71.9905  226.9352 H   0  0  0  0  0  0  0  0  0  0  0  0
  138.7570   67.9828  226.2889 H   0  0  0  0  0  0  0  0  0  0  0  0
  138.8451   68.4367  223.8480 H   0  0  0  0  0  0  0  0  0  0  0  0
  137.8390   69.9106  224.1783 H   0  0  0  0  0  0  0  0  0  0  0  0
  140.4450   69.7257  222.6107 H   0  0  0  0  0  0  0  0  0  0  0  0
  138.8252   70.2411  222.0276 H   0  0  0  0  0  0  0  0  0  0  0  0
  137.0600   72.8740  218.9980 H   0  0  0  0  0  0  0  0  0  0  0  0
  135.8353   75.1585  219.2784 H   0  0  0  0  0  0  0  0  0  0  0  0
  134.9797   73.7280  219.9666 H   0  0  0  0  0  0  0  0  0  0  0  0
  134.9310   75.3806  221.6914 H   0  0  0  0  0  0  0  0  0  0  0  0
  136.2587   74.2197  222.1439 H   0  0  0  0  0  0  0  0  0  0  0  0
  137.8700   75.7150  221.4750 H   0  0  0  0  0  0  0  0  0  0  0  0
  136.8900   76.4462  219.4376 H   0  0  0  0  0  0  0  0  0  0  0  0
  135.6990   77.4185  220.3884 H   0  0  0  0  0  0  0  0  0  0  0  0
  138.4819   78.0472  219.6425 H   0  0  0  0  0  0  0  0  0  0  0  0
  137.1449   79.1199  220.2586 H   0  0  0  0  0  0  0  0  0  0  0  0
  137.8956   78.4964  223.6651 H   0  0  0  0  0  0  0  0  0  0  0  0
  136.6247   79.0154  222.4939 H   0  0  0  0  0  0  0  0  0  0  0  0
  137.2280   76.3085  223.6023 H   0  0  0  0  0  0  0  0  0  0  0  0
  135.6771   77.0156  222.9762 H   0  0  0  0  0  0  0  0  0  0  0  0
  142.7414   76.2855  220.5279 H   0  0  0  0  0  0  0  0  0  0  0  0
  141.4160   75.7258  219.4572 H   0  0  0  0  0  0  0  0  0  0  0  0
  142.0235   78.1567  219.1380 H   0  0  0  0  0  0  0  0  0  0  0  0
  140.3034   77.8894  219.6142 H   0  0  0  0  0  0  0  0  0  0  0  0
  141.9610   80.4749  219.9238 H   0  0  0  0  0  0  0  0  0  0  0  0
  142.2143   81.9989  221.8817 H   0  0  0  0  0  0  0  0  0  0  0  0
  141.9227   81.1229  224.1948 H   0  0  0  0  0  0  0  0  0  0  0  0
  141.3834   78.7208  224.5709 H   0  0  0  0  0  0  0  0  0  0  0  0
  141.8357   76.3373  223.3211 H   0  0  0  0  0  0  0  0  0  0  0  0
  140.0634   76.7435  223.2486 H   0  0  0  0  0  0  0  0  0  0  0  0
  141.7321   71.7772  224.1034 H   0  0  0  0  0  0  0  0  0  0  0  0
  140.4757   72.8873  224.7918 H   0  0  0  0  0  0  0  0  0  0  0  0
  1  2  2  0
  2  3  1  0
  3  4  2  0
  4  5  1  0
  5  6  2  0
  5  7  1  0
  7  8  1  0
  8  9  1  0
  9 10  1  0
 10 11  2  0
 11 12  1  0
 12 13  1  0
 13 14  1  0
 14 15  1  0
 15 16  1  0
 16 17  1  0
 17 18  1  0
 18 19  1  0
 19 20  1  0
 20 21  1  0
 12 22  2  0
 22 23  1  0
 23 24  1  0
 24 25  1  0
 25 26  1  0
 26 27  1  0
 27 28  2  0
 28 29  1  0
 29 30  2  0
 30 31  1  0
 31 32  2  0
 32 33  1  0
 23 34  2  0
  9 35  1  0
  6  1  1  0
 34 10  1  0
 35  4  1  0
 21 16  1  0
 33 24  1  0
 32 27  1  0
  1 36  1  0
  2 37  1  0
  3 38  1  0
  6 39  1  0
  7 40  1  0
  7 41  1  0
  8 42  1  0
  8 43  1  0
 13 44  1  0
 14 45  1  0
 14 46  1  0
 15 47  1  0
 15 48  1  0
 16 49  1  0
 17 50  1  0
 17 51  1  0
 18 52  1  0
 18 53  1  0
 20 54  1  0
 20 55  1  0
 21 56  1  0
 21 57  1  0
 25 58  1  0
 25 59  1  0
 26 60  1  0
 26 61  1  0
 28 62  1  0
 29 63  1  0
 30 64  1  0
 31 65  1  0
 33 66  1  0
 33 67  1  0
 35 68  1  0
 35 69  1  0
M  CHG  1  16   1
M  END
>  <UniqueID>  (3) 
282

>  <SMILES>  (3) 
c1ccc2c(c1)CCN(c1nc(NCC[NH+]3CCOCC3)nc(N3CCc4ccccc4C3)n1)C2

>  <Energy>  (3) 
88.0844221705638

>  <Genealogy>  (3) 
c1ccc2c(c1)CCN(c1nc(NCC[NH+]3CCOCC3)nc(N3CCc4ccccc4C3)n1)C2 (protonated)
c1ccc2c(c1)CCN(c1nc(NCC[NH+]3CCOCC3)nc(N3CCc4ccccc4C3)n1)C2 (3D coordinates assigned)
c1ccc2c(c1)CCN(c1nc(NCC[NH+]3CCOCC3)nc(N3CCc4ccccc4C3)n1)C2 (nonaromatic ring conformer: 88.0844221705638 kcal/mol)

>  <smiles>  (3) 
c1ccc2c(c1)CCN(c1nc(NCCN3CCOCC3)nc(N3CCc4ccccc4C3)n1)C2

>  <score_type>  (3) 
oracle

>  <origin>  (3) 
autodockgpu

>  <m_score__min__energy>  (3) 
-9.0199999999999996

>  <m_primary>  (3) 
energy

>  <meeko>  (3) 
{"free_energy": -8.12, "intermolecular_energy": -9.91, "internal_energy": -2.71, "cluster_size": 8, "cluster_id": 5, "rank_in_cluster": 4}

>  <energy>  (3) 
-8.87

>  <cluster_rmsd>  (3) 
0.0

>  <rmsd>  (3) 
271.43

>  <cluster>  (3) 
2

$$$$
XKJAOWLAVYPRNA-QTZDNFDFNA-O
     RDKit          3D

 69 74  0  0  0  0  0  0  0  0999 V2000
  142.2010   81.0080  222.6260 C   0  0  0  0  0  0  0  0  0  0  0  0
  141.6850   80.4740  223.8090 C   0  0  0  0  0  0  0  0  0  0  0  0
  141.1730   79.1760  223.8270 C   0  0  0  0  0  0  0  0  0  0  0  0
  141.1870   78.3900  222.6620 C   0  0  0  0  0  0  0  0  0  0  0  0
  141.7020   78.9350  221.4590 C   0  0  0  0  0  0  0  0  0  0  0  0
  142.2160   80.2410  221.4570 C   0  0  0  0  0  0  0  0  0  0  0  0
  141.8160   78.1030  220.2020 C   0  0  0  0  0  0  0  0  0  0  0  0
  140.8340   76.9340  220.2010 C   0  0  0  0  0  0  0  0  0  0  0  0
  140.8890   76.2450  221.4900 N   0  0  0  0  0  0  0  0  0  0  0  0
  140.8870   74.8160  221.5280 C   0  0  0  0  0  0  0  0  0  0  0  0
  139.9710   74.1630  222.2860 N   0  0  0  0  0  0  0  0  0  0  0  0
  139.9530   72.8080  222.3120 C   0  0  0  0  0  0  0  0  0  0  0  0
  138.9390   72.1210  223.0550 N   0  0  0  0  0  0  0  0  0  0  0  0
  137.8580   71.3820  222.4060 C   0  0  0  0  0  0  0  0  0  0  0  0
  136.7150   72.3390  222.0120 C   0  0  0  0  0  0  0  0  0  0  0  0
  137.0140   73.7530  222.3410 N   0  0  0  0  0  0  0  0  0  0  0  0
  137.1760   74.5280  221.0930 C   0  0  0  0  0  0  0  0  0  0  0  0
  137.4880   76.0100  221.3980 C   0  0  0  0  0  0  0  0  0  0  0  0
  137.2720   76.3480  222.7560 O   0  0  0  0  0  0  0  0  0  0  0  0
  135.9980   75.8960  223.1590 C   0  0  0  0  0  0  0  0  0  0  0  0
  135.9510   74.3560  223.1840 C   0  0  0  0  0  0  0  0  0  0  0  0
  140.8640   72.1100  221.5860 N   0  0  0  0  0  0  0  0  0  0  0  0
  141.7790   72.7530  220.8190 C   0  0  0  0  0  0  0  0  0  0  0  0
  142.7090   72.0040  220.0130 N   0  0  0  0  0  0  0  0  0  0  0  0
  143.7080   72.6850  219.1820 C   0  0  0  0  0  0  0  0  0  0  0  0
  145.0860   72.1140  219.4920 C   0  0  0  0  0  0  0  0  0  0  0  0
  145.0810   70.6140  219.3580 C   0  0  0  0  0  0  0  0  0  0  0  0
  146.2790   69.9450  219.0570 C   0  0  0  0  0  0  0  0  0  0  0  0
  146.3010   68.5520  218.9660 C   0  0  0  0  0  0  0  0  0  0  0  0
  145.1350   67.8170  219.1800 C   0  0  0  0  0  0  0  0  0  0  0  0
  143.9390   68.4680  219.4880 C   0  0  0  0  0  0  0  0  0  0  0  0
  143.9020   69.8680  219.5910 C   0  0  0  0  0  0  0  0  0  0  0  0
  142.5870   70.5410  219.9230 C   0  0  0  0  0  0  0  0  0  0  0  0
  141.7800   74.1110  220.7850 N   0  0  0  0  0  0  0  0  0  0  0  0
  140.6070   76.9950  222.7170 C   0  0  0  0  0  0  0  0  0  0  0  0
  142.5965   82.0344  222.6140 H   0  0  0  0  0  0  0  0  0  0  0  0
  141.6822   81.0779  224.7284 H   0  0  0  0  0  0  0  0  0  0  0  0
  140.7560   78.7656  224.7585 H   0  0  0  0  0  0  0  0  0  0  0  0
  142.6329   80.6634  220.5308 H   0  0  0  0  0  0  0  0  0  0  0  0
  141.6076   78.7430  219.3320 H   0  0  0  0  0  0  0  0  0  0  0  0
  142.8352   77.6916  220.1572 H   0  0  0  0  0  0  0  0  0  0  0  0
  139.8151   77.3121  220.0314 H   0  0  0  0  0  0  0  0  0  0  0  0
  141.1044   76.2309  219.3995 H   0  0  0  0  0  0  0  0  0  0  0  0
  138.9720   72.1500  224.0980 H   0  0  0  0  0  0  0  0  0  0  0  0
  138.2467   70.8899  221.5023 H   0  0  0  0  0  0  0  0  0  0  0  0
  137.4682   70.6297  223.1075 H   0  0  0  0  0  0  0  0  0  0  0  0
  136.5461   72.2580  220.9281 H   0  0  0  0  0  0  0  0  0  0  0  0
  135.8234   72.0457  222.5856 H   0  0  0  0  0  0  0  0  0  0  0  0
  137.9240   73.7850  222.8620 H   0  0  0  0  0  0  0  0  0  0  0  0
  138.0031   74.0993  220.5081 H   0  0  0  0  0  0  0  0  0  0  0  0
  136.2355   74.4777  220.5247 H   0  0  0  0  0  0  0  0  0  0  0  0
  138.5418   76.2054  221.1505 H   0  0  0  0  0  0  0  0  0  0  0  0
  136.8058   76.6237  220.7914 H   0  0  0  0  0  0  0  0  0  0  0  0
  135.7800   76.2806  224.1663 H   0  0  0  0  0  0  0  0  0  0  0  0
  135.2489   76.2618  222.4413 H   0  0  0  0  0  0  0  0  0  0  0  0
  136.0832   74.0135  224.2209 H   0  0  0  0  0  0  0  0  0  0  0  0
  134.9776   74.0394  222.7812 H   0  0  0  0  0  0  0  0  0  0  0  0
  143.4737   72.5256  218.1191 H   0  0  0  0  0  0  0  0  0  0  0  0
  143.6964   73.7637  219.3973 H   0  0  0  0  0  0  0  0  0  0  0  0
  145.8190   72.5372  218.7894 H   0  0  0  0  0  0  0  0  0  0  0  0
  145.3541   72.3766  220.5260 H   0  0  0  0  0  0  0  0  0  0  0  0
  147.2021   70.5201  218.8926 H   0  0  0  0  0  0  0  0  0  0  0  0
  147.2403   68.0328  218.7249 H   0  0  0  0  0  0  0  0  0  0  0  0
  145.1579   66.7197  219.1057 H   0  0  0  0  0  0  0  0  0  0  0  0
  143.0223   67.8821  219.6506 H   0  0  0  0  0  0  0  0  0  0  0  0
  141.8571   70.2957  219.1374 H   0  0  0  0  0  0  0  0  0  0  0  0
  142.2622   70.1719  220.9070 H   0  0  0  0  0  0  0  0  0  0  0  0
  139.5173   77.0664  222.8493 H   0  0  0  0  0  0  0  0  0  0  0  0
  141.0710   76.4624  223.5602 H   0  0  0  0  0  0  0  0  0  0  0  0
  1  2  2  0
  2  3  1  0
  3  4  2  0
  4  5  1  0
  5  6  2  0
  5  7  1  0
  7  8  1  0
  8  9  1  0
  9 10  1  0
 10 11  2  0
 11 12  1  0
 12 13  1  0
 13 14  1  0
 14 15  1  0
 15 16  1  0
 16 17  1  0
 17 18  1  0
 18 19  1  0
 19 20  1  0
 20 21  1  0
 12 22  2  0
 22 23  1  0
 23 24  1  0
 24 25  1  0
 25 26  1  0
 26 27  1  0
 27 28  2  0
 28 29  1  0
 29 30  2  0
 30 31  1  0
 31 32  2  0
 32 33  1  0
 23 34  2  0
  9 35  1  0
  6  1  1  0
 34 10  1  0
 35  4  1  0
 21 16  1  0
 33 24  1  0
 32 27  1  0
  1 36  1  0
  2 37  1  0
  3 38  1  0
  6 39  1  0
  7 40  1  0
  7 41  1  0
  8 42  1  0
  8 43  1  0
 13 44  1  0
 14 45  1  0
 14 46  1  0
 15 47  1  0
 15 48  1  0
 16 49  1  0
 17 50  1  0
 17 51  1  0
 18 52  1  0
 18 53  1  0
 20 54  1  0
 20 55  1  0
 21 56  1  0
 21 57  1  0
 25 58  1  0
 25 59  1  0
 26 60  1  0
 26 61  1  0
 28 62  1  0
 29 63  1  0
 30 64  1  0
 31 65  1  0
 33 66  1  0
 33 67  1  0
 35 68  1  0
 35 69  1  0
M  CHG  1  16   1
M  END
>  <UniqueID>  (4) 
282

>  <SMILES>  (4) 
c1ccc2c(c1)CCN(c1nc(NCC[NH+]3CCOCC3)nc(N3CCc4ccccc4C3)n1)C2

>  <Energy>  (4) 
88.0844221705638

>  <Genealogy>  (4) 
c1ccc2c(c1)CCN(c1nc(NCC[NH+]3CCOCC3)nc(N3CCc4ccccc4C3)n1)C2 (protonated)
c1ccc2c(c1)CCN(c1nc(NCC[NH+]3CCOCC3)nc(N3CCc4ccccc4C3)n1)C2 (3D coordinates assigned)
c1ccc2c(c1)CCN(c1nc(NCC[NH+]3CCOCC3)nc(N3CCc4ccccc4C3)n1)C2 (nonaromatic ring conformer: 88.0844221705638 kcal/mol)

>  <smiles>  (4) 
c1ccc2c(c1)CCN(c1nc(NCCN3CCOCC3)nc(N3CCc4ccccc4C3)n1)C2

>  <score_type>  (4) 
oracle

>  <origin>  (4) 
autodockgpu

>  <m_score__min__energy>  (4) 
-9.0199999999999996

>  <m_primary>  (4) 
energy

>  <meeko>  (4) 
{"free_energy": -8.27, "intermolecular_energy": -10.06, "internal_energy": -2.29, "cluster_size": 1, "cluster_id": 3, "rank_in_cluster": 1}

>  <energy>  (4) 
-8.85

>  <cluster_rmsd>  (4) 
0.11

>  <rmsd>  (4) 
271.39

>  <cluster>  (4) 
2

$$$$
XKJAOWLAVYPRNA-QTZDNFDFNA-O
     RDKit          3D

 69 74  0  0  0  0  0  0  0  0999 V2000
  139.8880   69.3380  227.7480 C   0  0  0  0  0  0  0  0  0  0  0  0
  140.8170   70.3770  227.8390 C   0  0  0  0  0  0  0  0  0  0  0  0
  141.0680   71.1920  226.7340 C   0  0  0  0  0  0  0  0  0  0  0  0
  140.3780   70.9850  225.5270 C   0  0  0  0  0  0  0  0  0  0  0  0
  139.4420   69.9250  225.4320 C   0  0  0  0  0  0  0  0  0  0  0  0
  139.1990   69.1150  226.5530 C   0  0  0  0  0  0  0  0  0  0  0  0
  138.6140   69.7140  224.1850 C   0  0  0  0  0  0  0  0  0  0  0  0
  139.2830   70.3120  222.9490 C   0  0  0  0  0  0  0  0  0  0  0  0
  139.7440   71.6680  223.2480 N   0  0  0  0  0  0  0  0  0  0  0  0
  139.5430   72.7100  222.2910 C   0  0  0  0  0  0  0  0  0  0  0  0
  138.5540   72.5980  221.3690 N   0  0  0  0  0  0  0  0  0  0  0  0
  138.3470   73.5910  220.4700 C   0  0  0  0  0  0  0  0  0  0  0  0
  137.2570   73.5020  219.5450 N   0  0  0  0  0  0  0  0  0  0  0  0
  136.0320   74.2830  219.7030 C   0  0  0  0  0  0  0  0  0  0  0  0
  135.0020   73.5040  220.5440 C   0  0  0  0  0  0  0  0  0  0  0  0
  135.5600   73.0250  221.8310 N   0  0  0  0  0  0  0  0  0  0  0  0
  134.9170   73.7480  222.9490 C   0  0  0  0  0  0  0  0  0  0  0  0
  135.4750   73.2730  224.3100 C   0  0  0  0  0  0  0  0  0  0  0  0
  136.2430   72.0890  224.2040 O   0  0  0  0  0  0  0  0  0  0  0  0
  135.5250   71.1230  223.4680 C   0  0  0  0  0  0  0  0  0  0  0  0
  135.3780   71.5610  221.9970 C   0  0  0  0  0  0  0  0  0  0  0  0
  139.1410   74.6920  220.4920 N   0  0  0  0  0  0  0  0  0  0  0  0
  140.1270   74.8180  221.4140 C   0  0  0  0  0  0  0  0  0  0  0  0
  140.9330   76.0110  221.4610 N   0  0  0  0  0  0  0  0  0  0  0  0
  141.7400   76.4240  220.3060 C   0  0  0  0  0  0  0  0  0  0  0  0
  141.4210   77.8750  219.9680 C   0  0  0  0  0  0  0  0  0  0  0  0
  141.5790   78.7500  221.1840 C   0  0  0  0  0  0  0  0  0  0  0  0
  141.8740   80.1120  221.0190 C   0  0  0  0  0  0  0  0  0  0  0  0
  141.9870   80.9460  222.1330 C   0  0  0  0  0  0  0  0  0  0  0  0
  141.7990   80.4310  223.4160 C   0  0  0  0  0  0  0  0  0  0  0  0
  141.4970   79.0810  223.5950 C   0  0  0  0  0  0  0  0  0  0  0  0
  141.3730   78.2310  222.4840 C   0  0  0  0  0  0  0  0  0  0  0  0
  141.0480   76.7700  222.7150 C   0  0  0  0  0  0  0  0  0  0  0  0
  140.3180   73.8250  222.3220 N   0  0  0  0  0  0  0  0  0  0  0  0
  140.6900   71.8770  224.3470 C   0  0  0  0  0  0  0  0  0  0  0  0
  139.6983   68.6937  228.6192 H   0  0  0  0  0  0  0  0  0  0  0  0
  141.3521   70.5534  228.7837 H   0  0  0  0  0  0  0  0  0  0  0  0
  141.8099   72.0008  226.8081 H   0  0  0  0  0  0  0  0  0  0  0  0
  138.4623   68.3006  226.4901 H   0  0  0  0  0  0  0  0  0  0  0  0
  138.4769   68.6340  224.0277 H   0  0  0  0  0  0  0  0  0  0  0  0
  137.6477   70.2198  224.3279 H   0  0  0  0  0  0  0  0  0  0  0  0
  140.1421   69.6887  222.6600 H   0  0  0  0  0  0  0  0  0  0  0  0
  138.5584   70.3465  222.1221 H   0  0  0  0  0  0  0  0  0  0  0  0
  137.3390   72.8550  218.7310 H   0  0  0  0  0  0  0  0  0  0  0  0
  136.2693   75.2310  220.2079 H   0  0  0  0  0  0  0  0  0  0  0  0
  135.6044   74.4804  218.7089 H   0  0  0  0  0  0  0  0  0  0  0  0
  134.1479   74.1644  220.7547 H   0  0  0  0  0  0  0  0  0  0  0  0
  134.6990   72.6202  219.9635 H   0  0  0  0  0  0  0  0  0  0  0  0
  136.5850   73.2480  221.8490 H   0  0  0  0  0  0  0  0  0  0  0  0
  135.1086   74.8255  222.8380 H   0  0  0  0  0  0  0  0  0  0  0  0
  133.8364   73.5439  222.9229 H   0  0  0  0  0  0  0  0  0  0  0  0
  136.1107   74.0684  224.7262 H   0  0  0  0  0  0  0  0  0  0  0  0
  134.6166   73.0541  224.9620 H   0  0  0  0  0  0  0  0  0  0  0  0
  136.0633   70.1645  223.5078 H   0  0  0  0  0  0  0  0  0  0  0  0
  134.5226   71.0148  223.9078 H   0  0  0  0  0  0  0  0  0  0  0  0
  136.1350   71.0385  221.3937 H   0  0  0  0  0  0  0  0  0  0  0  0
  134.3602   71.3059  221.6670 H   0  0  0  0  0  0  0  0  0  0  0  0
  142.8083   76.3290  220.5503 H   0  0  0  0  0  0  0  0  0  0  0  0
  141.5073   75.7828  219.4431 H   0  0  0  0  0  0  0  0  0  0  0  0
  142.1070   78.2221  219.1813 H   0  0  0  0  0  0  0  0  0  0  0  0
  140.3795   77.9371  219.6195 H   0  0  0  0  0  0  0  0  0  0  0  0
  142.0166   80.5238  220.0090 H   0  0  0  0  0  0  0  0  0  0  0  0
  142.2248   82.0116  221.9988 H   0  0  0  0  0  0  0  0  0  0  0  0
  141.8893   81.0925  224.2902 H   0  0  0  0  0  0  0  0  0  0  0  0
  141.3555   78.6808  224.6098 H   0  0  0  0  0  0  0  0  0  0  0  0
  141.8471   76.3235  223.3250 H   0  0  0  0  0  0  0  0  0  0  0  0
  140.0740   76.7219  223.2240 H   0  0  0  0  0  0  0  0  0  0  0  0
  141.7065   71.6545  223.9902 H   0  0  0  0  0  0  0  0  0  0  0  0
  140.6094   72.9235  224.6760 H   0  0  0  0  0  0  0  0  0  0  0  0
  1  2  2  0
  2  3  1  0
  3  4  2  0
  4  5  1  0
  5  6  2  0
  5  7  1  0
  7  8  1  0
  8  9  1  0
  9 10  1  0
 10 11  2  0
 11 12  1  0
 12 13  1  0
 13 14  1  0
 14 15  1  0
 15 16  1  0
 16 17  1  0
 17 18  1  0
 18 19  1  0
 19 20  1  0
 20 21  1  0
 12 22  2  0
 22 23  1  0
 23 24  1  0
 24 25  1  0
 25 26  1  0
 26 27  1  0
 27 28  2  0
 28 29  1  0
 29 30  2  0
 30 31  1  0
 31 32  2  0
 32 33  1  0
 23 34  2  0
  9 35  1  0
  6  1  1  0
 34 10  1  0
 35  4  1  0
 21 16  1  0
 33 24  1  0
 32 27  1  0
  1 36  1  0
  2 37  1  0
  3 38  1  0
  6 39  1  0
  7 40  1  0
  7 41  1  0
  8 42  1  0
  8 43  1  0
 13 44  1  0
 14 45  1  0
 14 46  1  0
 15 47  1  0
 15 48  1  0
 16 49  1  0
 17 50  1  0
 17 51  1  0
 18 52  1  0
 18 53  1  0
 20 54  1  0
 20 55  1  0
 21 56  1  0
 21 57  1  0
 25 58  1  0
 25 59  1  0
 26 60  1  0
 26 61  1  0
 28 62  1  0
 29 63  1  0
 30 64  1  0
 31 65  1  0
 33 66  1  0
 33 67  1  0
 35 68  1  0
 35 69  1  0
M  CHG  1  16   1
M  END
>  <UniqueID>  (5) 
282

>  <SMILES>  (5) 
c1ccc2c(c1)CCN(c1nc(NCC[NH+]3CCOCC3)nc(N3CCc4ccccc4C3)n1)C2

>  <Energy>  (5) 
88.0844221705638

>  <Genealogy>  (5) 
c1ccc2c(c1)CCN(c1nc(NCC[NH+]3CCOCC3)nc(N3CCc4ccccc4C3)n1)C2 (protonated)
c1ccc2c(c1)CCN(c1nc(NCC[NH+]3CCOCC3)nc(N3CCc4ccccc4C3)n1)C2 (3D coordinates assigned)
c1ccc2c(c1)CCN(c1nc(NCC[NH+]3CCOCC3)nc(N3CCc4ccccc4C3)n1)C2 (nonaromatic ring conformer: 88.0844221705638 kcal/mol)

>  <smiles>  (5) 
c1ccc2c(c1)CCN(c1nc(NCCN3CCOCC3)nc(N3CCc4ccccc4C3)n1)C2

>  <score_type>  (5) 
oracle

>  <origin>  (5) 
autodockgpu

>  <m_score__min__energy>  (5) 
-9.0199999999999996

>  <m_primary>  (5) 
energy

>  <meeko>  (5) 
{"free_energy": -8.12, "intermolecular_energy": -9.91, "internal_energy": -2.39, "cluster_size": 8, "cluster_id": 5, "rank_in_cluster": 5}

>  <energy>  (5) 
-8.75

>  <cluster_rmsd>  (5) 
1.1

>  <rmsd>  (5) 
271.17

>  <cluster>  (5) 
2

$$$$
XKJAOWLAVYPRNA-QTZDNFDFNA-O
     RDKit          3D

 69 74  0  0  0  0  0  0  0  0999 V2000
  141.5960   80.6710  221.7700 C   0  0  0  0  0  0  0  0  0  0  0  0
  142.0670   80.1040  222.9560 C   0  0  0  0  0  0  0  0  0  0  0  0
  141.8030   78.7640  223.2460 C   0  0  0  0  0  0  0  0  0  0  0  0
  141.0750   77.9720  222.3410 C   0  0  0  0  0  0  0  0  0  0  0  0
  140.5890   78.5500  221.1420 C   0  0  0  0  0  0  0  0  0  0  0  0
  140.8650   79.8980  220.8640 C   0  0  0  0  0  0  0  0  0  0  0  0
  139.8760   77.7200  220.1000 C   0  0  0  0  0  0  0  0  0  0  0  0
  139.2470   76.4650  220.7030 C   0  0  0  0  0  0  0  0  0  0  0  0
  140.2180   75.7970  221.5690 N   0  0  0  0  0  0  0  0  0  0  0  0
  140.3480   74.3740  221.5190 C   0  0  0  0  0  0  0  0  0  0  0  0
  140.8760   73.7840  220.4180 N   0  0  0  0  0  0  0  0  0  0  0  0
  141.0190   72.4370  220.3720 C   0  0  0  0  0  0  0  0  0  0  0  0
  141.6430   71.8230  219.2380 N   0  0  0  0  0  0  0  0  0  0  0  0
  142.5830   72.5400  218.3780 C   0  0  0  0  0  0  0  0  0  0  0  0
  141.8680   73.6950  217.6490 C   0  0  0  0  0  0  0  0  0  0  0  0
  142.0780   75.0050  218.3090 N   0  0  0  0  0  0  0  0  0  0  0  0
  143.3770   75.0020  219.0140 C   0  0  0  0  0  0  0  0  0  0  0  0
  143.6300   76.3560  219.7150 C   0  0  0  0  0  0  0  0  0  0  0  0
  142.7270   77.3650  219.3010 O   0  0  0  0  0  0  0  0  0  0  0  0
  142.6770   77.4060  217.8920 C   0  0  0  0  0  0  0  0  0  0  0  0
  142.0270   76.1240  217.3350 C   0  0  0  0  0  0  0  0  0  0  0  0
  140.6200   71.6830  221.4280 N   0  0  0  0  0  0  0  0  0  0  0  0
  140.0980   72.2640  222.5370 C   0  0  0  0  0  0  0  0  0  0  0  0
  139.7240   71.4600  223.6720 N   0  0  0  0  0  0  0  0  0  0  0  0
  138.5890   70.5320  223.6000 C   0  0  0  0  0  0  0  0  0  0  0  0
  139.0430   69.1530  224.0590 C   0  0  0  0  0  0  0  0  0  0  0  0
  139.6980   69.2330  225.4130 C   0  0  0  0  0  0  0  0  0  0  0  0
  139.6950   68.1040  226.2470 C   0  0  0  0  0  0  0  0  0  0  0  0
  140.3300   68.1480  227.4900 C   0  0  0  0  0  0  0  0  0  0  0  0
  140.9770   69.3120  227.9050 C   0  0  0  0  0  0  0  0  0  0  0  0
  140.9960   70.4390  227.0830 C   0  0  0  0  0  0  0  0  0  0  0  0
  140.3690   70.4080  225.8270 C   0  0  0  0  0  0  0  0  0  0  0  0
  140.4060   71.6500  224.9610 C   0  0  0  0  0  0  0  0  0  0  0  0
  139.9730   73.6160  222.5820 N   0  0  0  0  0  0  0  0  0  0  0  0
  140.7950   76.5300  222.6980 C   0  0  0  0  0  0  0  0  0  0  0  0
  141.8009   81.7288  221.5484 H   0  0  0  0  0  0  0  0  0  0  0  0
  142.6474   80.7145  223.6634 H   0  0  0  0  0  0  0  0  0  0  0  0
  142.1664   78.3259  224.1872 H   0  0  0  0  0  0  0  0  0  0  0  0
  140.5038   80.3484  219.9277 H   0  0  0  0  0  0  0  0  0  0  0  0
  139.0836   78.3295  219.6412 H   0  0  0  0  0  0  0  0  0  0  0  0
  140.6170   77.4035  219.3512 H   0  0  0  0  0  0  0  0  0  0  0  0
  138.3626   76.7463  221.2935 H   0  0  0  0  0  0  0  0  0  0  0  0
  138.9479   75.7818  219.8945 H   0  0  0  0  0  0  0  0  0  0  0  0
  141.4180   70.8280  219.0170 H   0  0  0  0  0  0  0  0  0  0  0  0
  143.3982   72.9487  218.9931 H   0  0  0  0  0  0  0  0  0  0  0  0
  142.9880   71.8418  217.6307 H   0  0  0  0  0  0  0  0  0  0  0  0
  142.2529   73.7536  216.6202 H   0  0  0  0  0  0  0  0  0  0  0  0
  140.7889   73.4825  217.6682 H   0  0  0  0  0  0  0  0  0  0  0  0
  141.3220   75.1390  219.0240 H   0  0  0  0  0  0  0  0  0  0  0  0
  143.3751   74.2013  219.7682 H   0  0  0  0  0  0  0  0  0  0  0  0
  144.1757   74.8347  218.2763 H   0  0  0  0  0  0  0  0  0  0  0  0
  143.5254   76.2146  220.8008 H   0  0  0  0  0  0  0  0  0  0  0  0
  144.6433   76.6860  219.4424 H   0  0  0  0  0  0  0  0  0  0  0  0
  142.0853   78.2779  217.5764 H   0  0  0  0  0  0  0  0  0  0  0  0
  143.7030   77.4816  217.5026 H   0  0  0  0  0  0  0  0  0  0  0  0
  140.9752   76.3359  217.0926 H   0  0  0  0  0  0  0  0  0  0  0  0
  142.5889   75.8202  216.4395 H   0  0  0  0  0  0  0  0  0  0  0  0
  137.7790   70.8894  224.2529 H   0  0  0  0  0  0  0  0  0  0  0  0
  138.2215   70.4756  222.5647 H   0  0  0  0  0  0  0  0  0  0  0  0
  138.1700   68.4865  224.1187 H   0  0  0  0  0  0  0  0  0  0  0  0
  139.7727   68.7611  223.3351 H   0  0  0  0  0  0  0  0  0  0  0  0
  139.1912   67.1822  225.9207 H   0  0  0  0  0  0  0  0  0  0  0  0
  140.3199   67.2630  228.1432 H   0  0  0  0  0  0  0  0  0  0  0  0
  141.4748   69.3414  228.8855 H   0  0  0  0  0  0  0  0  0  0  0  0
  141.5038   71.3548  227.4198 H   0  0  0  0  0  0  0  0  0  0  0  0
  139.9143   72.4718  225.5022 H   0  0  0  0  0  0  0  0  0  0  0  0
  141.4612   71.8781  224.7497 H   0  0  0  0  0  0  0  0  0  0  0  0
  140.0884   76.5016  223.5405 H   0  0  0  0  0  0  0  0  0  0  0  0
  141.7479   76.0513  222.9679 H   0  0  0  0  0  0  0  0  0  0  0  0
  1  2  2  0
  2  3  1  0
  3  4  2  0
  4  5  1  0
  5  6  2  0
  5  7  1  0
  7  8  1  0
  8  9  1  0
  9 10  1  0
 10 11  2  0
 11 12  1  0
 12 13  1  0
 13 14  1  0
 14 15  1  0
 15 16  1  0
 16 17  1  0
 17 18  1  0
 18 19  1  0
 19 20  1  0
 20 21  1  0
 12 22  2  0
 22 23  1  0
 23 24  1  0
 24 25  1  0
 25 26  1  0
 26 27  1  0
 27 28  2  0
 28 29  1  0
 29 30  2  0
 30 31  1  0
 31 32  2  0
 32 33  1  0
 23 34  2  0
  9 35  1  0
  6  1  1  0
 34 10  1  0
 35  4  1  0
 21 16  1  0
 33 24  1  0
 32 27  1  0
  1 36  1  0
  2 37  1  0
  3 38  1  0
  6 39  1  0
  7 40  1  0
  7 41  1  0
  8 42  1  0
  8 43  1  0
 13 44  1  0
 14 45  1  0
 14 46  1  0
 15 47  1  0
 15 48  1  0
 16 49  1  0
 17 50  1  0
 17 51  1  0
 18 52  1  0
 18 53  1  0
 20 54  1  0
 20 55  1  0
 21 56  1  0
 21 57  1  0
 25 58  1  0
 25 59  1  0
 26 60  1  0
 26 61  1  0
 28 62  1  0
 29 63  1  0
 30 64  1  0
 31 65  1  0
 33 66  1  0
 33 67  1  0
 35 68  1  0
 35 69  1  0
M  CHG  1  16   1
M  END
>  <UniqueID>  (6) 
282

>  <SMILES>  (6) 
c1ccc2c(c1)CCN(c1nc(NCC[NH+]3CCOCC3)nc(N3CCc4ccccc4C3)n1)C2

>  <Energy>  (6) 
88.0844221705638

>  <Genealogy>  (6) 
c1ccc2c(c1)CCN(c1nc(NCC[NH+]3CCOCC3)nc(N3CCc4ccccc4C3)n1)C2 (protonated)
c1ccc2c(c1)CCN(c1nc(NCC[NH+]3CCOCC3)nc(N3CCc4ccccc4C3)n1)C2 (3D coordinates assigned)
c1ccc2c(c1)CCN(c1nc(NCC[NH+]3CCOCC3)nc(N3CCc4ccccc4C3)n1)C2 (nonaromatic ring conformer: 88.0844221705638 kcal/mol)

>  <smiles>  (6) 
c1ccc2c(c1)CCN(c1nc(NCCN3CCOCC3)nc(N3CCc4ccccc4C3)n1)C2

>  <score_type>  (6) 
oracle

>  <origin>  (6) 
autodockgpu

>  <m_score__min__energy>  (6) 
-9.0199999999999996

>  <m_primary>  (6) 
energy

>  <meeko>  (6) 
{"free_energy": -8.33, "intermolecular_energy": -10.12, "internal_energy": -2.53, "cluster_size": 8, "cluster_id": 2, "rank_in_cluster": 8}

>  <energy>  (6) 
-8.73

>  <cluster_rmsd>  (6) 
1.2

>  <rmsd>  (6) 
271.37

>  <cluster>  (6) 
2

$$$$
XKJAOWLAVYPRNA-QTZDNFDFNA-O
     RDKit          3D

 69 74  0  0  0  0  0  0  0  0999 V2000
  142.2970   80.7810  222.4870 C   0  0  0  0  0  0  0  0  0  0  0  0
  142.1800   80.1270  223.7160 C   0  0  0  0  0  0  0  0  0  0  0  0
  141.6720   78.8290  223.7730 C   0  0  0  0  0  0  0  0  0  0  0  0
  141.2880   78.1630  222.5960 C   0  0  0  0  0  0  0  0  0  0  0  0
  141.3990   78.8300  221.3500 C   0  0  0  0  0  0  0  0  0  0  0  0
  141.9150   80.1340  221.3080 C   0  0  0  0  0  0  0  0  0  0  0  0
  141.0810   78.1280  220.0500 C   0  0  0  0  0  0  0  0  0  0  0  0
  140.1240   76.9550  220.2550 C   0  0  0  0  0  0  0  0  0  0  0  0
  140.5770   76.1420  221.3820 N   0  0  0  0  0  0  0  0  0  0  0  0
  140.5550   74.7170  221.2800 C   0  0  0  0  0  0  0  0  0  0  0  0
  140.9650   74.1150  220.1360 N   0  0  0  0  0  0  0  0  0  0  0  0
  140.9640   72.7630  220.0400 C   0  0  0  0  0  0  0  0  0  0  0  0
  141.4660   72.1300  218.8570 N   0  0  0  0  0  0  0  0  0  0  0  0
  142.7750   71.4810  218.8140 C   0  0  0  0  0  0  0  0  0  0  0  0
  143.8510   72.4760  218.3380 C   0  0  0  0  0  0  0  0  0  0  0  0
  143.4100   73.8870  218.4360 N   0  0  0  0  0  0  0  0  0  0  0  0
  144.0750   74.5360  219.5860 C   0  0  0  0  0  0  0  0  0  0  0  0
  143.6380   76.0120  219.7190 C   0  0  0  0  0  0  0  0  0  0  0  0
  142.9430   76.4820  218.5780 O   0  0  0  0  0  0  0  0  0  0  0  0
  143.6730   76.1640  217.4140 C   0  0  0  0  0  0  0  0  0  0  0  0
  143.6970   74.6390  217.1890 C   0  0  0  0  0  0  0  0  0  0  0  0
  140.5370   72.0170  221.0900 N   0  0  0  0  0  0  0  0  0  0  0  0
  140.1320   72.6070  222.2420 C   0  0  0  0  0  0  0  0  0  0  0  0
  139.7280   71.8050  223.3690 N   0  0  0  0  0  0  0  0  0  0  0  0
  138.5010   71.0020  223.3240 C   0  0  0  0  0  0  0  0  0  0  0  0
  138.8300   69.5670  223.7150 C   0  0  0  0  0  0  0  0  0  0  0  0
  139.5510   69.5300  225.0370 C   0  0  0  0  0  0  0  0  0  0  0  0
  139.4690   68.3770  225.8350 C   0  0  0  0  0  0  0  0  0  0  0  0
  140.1610   68.3110  227.0450 C   0  0  0  0  0  0  0  0  0  0  0  0
  140.9450   69.3860  227.4650 C   0  0  0  0  0  0  0  0  0  0  0  0
  141.0430   70.5340  226.6780 C   0  0  0  0  0  0  0  0  0  0  0  0
  140.3590   70.6140  225.4550 C   0  0  0  0  0  0  0  0  0  0  0  0
  140.4850   71.8760  224.6280 C   0  0  0  0  0  0  0  0  0  0  0  0
  140.1520   73.9620  222.3360 N   0  0  0  0  0  0  0  0  0  0  0  0
  140.7250   76.7640  222.7010 C   0  0  0  0  0  0  0  0  0  0  0  0
  142.6906   81.8074  222.4469 H   0  0  0  0  0  0  0  0  0  0  0  0
  142.4890   80.6366  224.6406 H   0  0  0  0  0  0  0  0  0  0  0  0
  141.5713   78.3236  224.7448 H   0  0  0  0  0  0  0  0  0  0  0  0
  142.0195   80.6501  220.3422 H   0  0  0  0  0  0  0  0  0  0  0  0
  140.6172   78.8490  219.3607 H   0  0  0  0  0  0  0  0  0  0  0  0
  142.0209   77.7328  219.6373 H   0  0  0  0  0  0  0  0  0  0  0  0
  139.1143   77.3387  220.4632 H   0  0  0  0  0  0  0  0  0  0  0  0
  140.1036   76.3376  219.3448 H   0  0  0  0  0  0  0  0  0  0  0  0
  140.8770   72.1330  217.9960 H   0  0  0  0  0  0  0  0  0  0  0  0
  143.0343   71.1204  219.8203 H   0  0  0  0  0  0  0  0  0  0  0  0
  142.7324   70.6368  218.1100 H   0  0  0  0  0  0  0  0  0  0  0  0
  144.7502   72.3447  218.9578 H   0  0  0  0  0  0  0  0  0  0  0  0
  144.0527   72.2644  217.2776 H   0  0  0  0  0  0  0  0  0  0  0  0
  142.3760   73.8970  218.6130 H   0  0  0  0  0  0  0  0  0  0  0  0
  143.8073   73.9974  220.5070 H   0  0  0  0  0  0  0  0  0  0  0  0
  145.1626   74.5063  219.4238 H   0  0  0  0  0  0  0  0  0  0  0  0
  142.9799   76.1064  220.5954 H   0  0  0  0  0  0  0  0  0  0  0  0
  144.5488   76.6194  219.8264 H   0  0  0  0  0  0  0  0  0  0  0  0
  143.2013   76.6500  216.5472 H   0  0  0  0  0  0  0  0  0  0  0  0
  144.7064   76.5213  217.5345 H   0  0  0  0  0  0  0  0  0  0  0  0
  142.9387   74.3795  216.4356 H   0  0  0  0  0  0  0  0  0  0  0  0
  144.7063   74.3620  216.8506 H   0  0  0  0  0  0  0  0  0  0  0  0
  137.7639   71.4158  224.0279 H   0  0  0  0  0  0  0  0  0  0  0  0
  138.0818   71.0223  222.3072 H   0  0  0  0  0  0  0  0  0  0  0  0
  137.8962   68.9913  223.7962 H   0  0  0  0  0  0  0  0  0  0  0  0
  139.4808   69.1295  222.9436 H   0  0  0  0  0  0  0  0  0  0  0  0
  138.8578   67.5239  225.5053 H   0  0  0  0  0  0  0  0  0  0  0  0
  140.0881   67.4085  227.6697 H   0  0  0  0  0  0  0  0  0  0  0  0
  141.4878   69.3283  228.4200 H   0  0  0  0  0  0  0  0  0  0  0  0
  141.6589   71.3798  227.0174 H   0  0  0  0  0  0  0  0  0  0  0  0
  140.1074   72.7236  225.2188 H   0  0  0  0  0  0  0  0  0  0  0  0
  141.5473   72.0016  224.3715 H   0  0  0  0  0  0  0  0  0  0  0  0
  139.7389   76.8114  223.1861 H   0  0  0  0  0  0  0  0  0  0  0  0
  141.4245   76.1549  223.2923 H   0  0  0  0  0  0  0  0  0  0  0  0
  1  2  2  0
  2  3  1  0
  3  4  2  0
  4  5  1  0
  5  6  2  0
  5  7  1  0
  7  8  1  0
  8  9  1  0
  9 10  1  0
 10 11  2  0
 11 12  1  0
 12 13  1  0
 13 14  1  0
 14 15  1  0
 15 16  1  0
 16 17  1  0
 17 18  1  0
 18 19  1  0
 19 20  1  0
 20 21  1  0
 12 22  2  0
 22 23  1  0
 23 24  1  0
 24 25  1  0
 25 26  1  0
 26 27  1  0
 27 28  2  0
 28 29  1  0
 29 30  2  0
 30 31  1  0
 31 32  2  0
 32 33  1  0
 23 34  2  0
  9 35  1  0
  6  1  1  0
 34 10  1  0
 35  4  1  0
 21 16  1  0
 33 24  1  0
 32 27  1  0
  1 36  1  0
  2 37  1  0
  3 38  1  0
  6 39  1  0
  7 40  1  0
  7 41  1  0
  8 42  1  0
  8 43  1  0
 13 44  1  0
 14 45  1  0
 14 46  1  0
 15 47  1  0
 15 48  1  0
 16 49  1  0
 17 50  1  0
 17 51  1  0
 18 52  1  0
 18 53  1  0
 20 54  1  0
 20 55  1  0
 21 56  1  0
 21 57  1  0
 25 58  1  0
 25 59  1  0
 26 60  1  0
 26 61  1  0
 28 62  1  0
 29 63  1  0
 30 64  1  0
 31 65  1  0
 33 66  1  0
 33 67  1  0
 35 68  1  0
 35 69  1  0
M  CHG  1  16   1
M  END
>  <UniqueID>  (7) 
282

>  <SMILES>  (7) 
c1ccc2c(c1)CCN(c1nc(NCC[NH+]3CCOCC3)nc(N3CCc4ccccc4C3)n1)C2

>  <Energy>  (7) 
88.0844221705638

>  <Genealogy>  (7) 
c1ccc2c(c1)CCN(c1nc(NCC[NH+]3CCOCC3)nc(N3CCc4ccccc4C3)n1)C2 (protonated)
c1ccc2c(c1)CCN(c1nc(NCC[NH+]3CCOCC3)nc(N3CCc4ccccc4C3)n1)C2 (3D coordinates assigned)
c1ccc2c(c1)CCN(c1nc(NCC[NH+]3CCOCC3)nc(N3CCc4ccccc4C3)n1)C2 (nonaromatic ring conformer: 88.0844221705638 kcal/mol)

>  <smiles>  (7) 
c1ccc2c(c1)CCN(c1nc(NCCN3CCOCC3)nc(N3CCc4ccccc4C3)n1)C2

>  <score_type>  (7) 
oracle

>  <origin>  (7) 
autodockgpu

>  <m_score__min__energy>  (7) 
-9.0199999999999996

>  <m_primary>  (7) 
energy

>  <meeko>  (7) 
{"free_energy": -8.75, "intermolecular_energy": -10.54, "internal_energy": -2.41, "cluster_size": 8, "cluster_id": 2, "rank_in_cluster": 3}

>  <energy>  (7) 
-8.73

>  <cluster_rmsd>  (7) 
1.05

>  <rmsd>  (7) 
271.24

>  <cluster>  (7) 
2

$$$$
XKJAOWLAVYPRNA-QTZDNFDFNA-O
     RDKit          3D

 69 74  0  0  0  0  0  0  0  0999 V2000
  145.2170   66.5340  218.2110 C   0  0  0  0  0  0  0  0  0  0  0  0
  146.0430   67.1660  219.1440 C   0  0  0  0  0  0  0  0  0  0  0  0
  145.6630   68.3870  219.7030 C   0  0  0  0  0  0  0  0  0  0  0  0
  144.4410   68.9820  219.3450 C   0  0  0  0  0  0  0  0  0  0  0  0
  143.6070   68.3460  218.3920 C   0  0  0  0  0  0  0  0  0  0  0  0
  144.0020   67.1170  217.8410 C   0  0  0  0  0  0  0  0  0  0  0  0
  142.2470   68.9020  218.0380 C   0  0  0  0  0  0  0  0  0  0  0  0
  142.1550   70.4010  218.3160 C   0  0  0  0  0  0  0  0  0  0  0  0
  142.6900   70.6870  219.6470 N   0  0  0  0  0  0  0  0  0  0  0  0
  142.0030   71.6010  220.5040 C   0  0  0  0  0  0  0  0  0  0  0  0
  141.9030   72.9090  220.1560 N   0  0  0  0  0  0  0  0  0  0  0  0
  141.2370   73.7760  220.9550 C   0  0  0  0  0  0  0  0  0  0  0  0
  141.0720   75.1400  220.5490 N   0  0  0  0  0  0  0  0  0  0  0  0
  142.2070   76.0050  220.2330 C   0  0  0  0  0  0  0  0  0  0  0  0
  142.7140   75.7240  218.8040 C   0  0  0  0  0  0  0  0  0  0  0  0
  143.9780   74.9510  218.7870 N   0  0  0  0  0  0  0  0  0  0  0  0
  144.3160   74.5230  220.1610 C   0  0  0  0  0  0  0  0  0  0  0  0
  145.6310   73.7120  220.1810 C   0  0  0  0  0  0  0  0  0  0  0  0
  146.0560   73.3240  218.8870 O   0  0  0  0  0  0  0  0  0  0  0  0
  144.9810   72.7280  218.1950 C   0  0  0  0  0  0  0  0  0  0  0  0
  143.8860   73.7710  217.8910 C   0  0  0  0  0  0  0  0  0  0  0  0
  140.6810   73.3320  222.1110 N   0  0  0  0  0  0  0  0  0  0  0  0
  140.7680   72.0260  222.4660 C   0  0  0  0  0  0  0  0  0  0  0  0
  140.1320   71.5540  223.6690 N   0  0  0  0  0  0  0  0  0  0  0  0
  138.8470   70.8470  223.6180 C   0  0  0  0  0  0  0  0  0  0  0  0
  138.9700   69.5340  224.3810 C   0  0  0  0  0  0  0  0  0  0  0  0
  139.4930   69.7760  225.7730 C   0  0  0  0  0  0  0  0  0  0  0  0
  139.1830   68.8640  226.7940 C   0  0  0  0  0  0  0  0  0  0  0  0
  139.6910   69.0520  228.0810 C   0  0  0  0  0  0  0  0  0  0  0  0
  140.5150   70.1430  228.3570 C   0  0  0  0  0  0  0  0  0  0  0  0
  140.8380   71.0530  227.3500 C   0  0  0  0  0  0  0  0  0  0  0  0
  140.3420   70.8740  226.0480 C   0  0  0  0  0  0  0  0  0  0  0  0
  140.7100   71.8830  224.9810 C   0  0  0  0  0  0  0  0  0  0  0  0
  141.4230   71.1590  221.6500 N   0  0  0  0  0  0  0  0  0  0  0  0
  144.0720   70.3140  219.9590 C   0  0  0  0  0  0  0  0  0  0  0  0
  145.5237   65.5756  217.7668 H   0  0  0  0  0  0  0  0  0  0  0  0
  146.9949   66.7001  219.4386 H   0  0  0  0  0  0  0  0  0  0  0  0
  146.3232   68.8863  220.4275 H   0  0  0  0  0  0  0  0  0  0  0  0
  143.3513   66.6096  217.1136 H   0  0  0  0  0  0  0  0  0  0  0  0
  142.0583   68.7263  216.9686 H   0  0  0  0  0  0  0  0  0  0  0  0
  141.4975   68.3928  218.6617 H   0  0  0  0  0  0  0  0  0  0  0  0
  142.7378   70.9497  217.5615 H   0  0  0  0  0  0  0  0  0  0  0  0
  141.1024   70.7172  218.2697 H   0  0  0  0  0  0  0  0  0  0  0  0
  140.1070   75.5310  220.4770 H   0  0  0  0  0  0  0  0  0  0  0  0
  141.8929   77.0567  220.3061 H   0  0  0  0  0  0  0  0  0  0  0  0
  143.0195   75.8033  220.9465 H   0  0  0  0  0  0  0  0  0  0  0  0
  141.9448   75.1526  218.2638 H   0  0  0  0  0  0  0  0  0  0  0  0
  142.9117   76.6943  218.3250 H   0  0  0  0  0  0  0  0  0  0  0  0
  144.7450   75.5810  218.4470 H   0  0  0  0  0  0  0  0  0  0  0  0
  144.4328   75.4132  220.7965 H   0  0  0  0  0  0  0  0  0  0  0  0
  143.5043   73.8836  220.5384 H   0  0  0  0  0  0  0  0  0  0  0  0
  146.4178   74.3294  220.6390 H   0  0  0  0  0  0  0  0  0  0  0  0
  145.4453   72.7940  220.7578 H   0  0  0  0  0  0  0  0  0  0  0  0
  145.3501   72.3051  217.2490 H   0  0  0  0  0  0  0  0  0  0  0  0
  144.5505   71.9349  218.8240 H   0  0  0  0  0  0  0  0  0  0  0  0
  143.9948   74.1068  216.8492 H   0  0  0  0  0  0  0  0  0  0  0  0
  142.9081   73.2949  218.0555 H   0  0  0  0  0  0  0  0  0  0  0  0
  138.0657   71.4691  224.0790 H   0  0  0  0  0  0  0  0  0  0  0  0
  138.5772   70.6435  222.5712 H   0  0  0  0  0  0  0  0  0  0  0  0
  137.9800   69.0587  224.4444 H   0  0  0  0  0  0  0  0  0  0  0  0
  139.6736   68.8784  223.8470 H   0  0  0  0  0  0  0  0  0  0  0  0
  138.5382   67.9989  226.5797 H   0  0  0  0  0  0  0  0  0  0  0  0
  139.4407   68.3378  228.8793 H   0  0  0  0  0  0  0  0  0  0  0  0
  140.9118   70.2865  229.3728 H   0  0  0  0  0  0  0  0  0  0  0  0
  141.4837   71.9142  227.5765 H   0  0  0  0  0  0  0  0  0  0  0  0
  140.3423   72.8726  225.2900 H   0  0  0  0  0  0  0  0  0  0  0  0
  141.8049   71.8723  224.8753 H   0  0  0  0  0  0  0  0  0  0  0  0
  144.7480   71.0877  219.5661 H   0  0  0  0  0  0  0  0  0  0  0  0
  144.1669   70.2275  221.0515 H   0  0  0  0  0  0  0  0  0  0  0  0
  1  2  2  0
  2  3  1  0
  3  4  2  0
  4  5  1  0
  5  6  2  0
  5  7  1  0
  7  8  1  0
  8  9  1  0
  9 10  1  0
 10 11  2  0
 11 12  1  0
 12 13  1  0
 13 14  1  0
 14 15  1  0
 15 16  1  0
 16 17  1  0
 17 18  1  0
 18 19  1  0
 19 20  1  0
 20 21  1  0
 12 22  2  0
 22 23  1  0
 23 24  1  0
 24 25  1  0
 25 26  1  0
 26 27  1  0
 27 28  2  0
 28 29  1  0
 29 30  2  0
 30 31  1  0
 31 32  2  0
 32 33  1  0
 23 34  2  0
  9 35  1  0
  6  1  1  0
 34 10  1  0
 35  4  1  0
 21 16  1  0
 33 24  1  0
 32 27  1  0
  1 36  1  0
  2 37  1  0
  3 38  1  0
  6 39  1  0
  7 40  1  0
  7 41  1  0
  8 42  1  0
  8 43  1  0
 13 44  1  0
 14 45  1  0
 14 46  1  0
 15 47  1  0
 15 48  1  0
 16 49  1  0
 17 50  1  0
 17 51  1  0
 18 52  1  0
 18 53  1  0
 20 54  1  0
 20 55  1  0
 21 56  1  0
 21 57  1  0
 25 58  1  0
 25 59  1  0
 26 60  1  0
 26 61  1  0
 28 62  1  0
 29 63  1  0
 30 64  1  0
 31 65  1  0
 33 66  1  0
 33 67  1  0
 35 68  1  0
 35 69  1  0
M  CHG  1  16   1
M  END
>  <UniqueID>  (8) 
282

>  <SMILES>  (8) 
c1ccc2c(c1)CCN(c1nc(NCC[NH+]3CCOCC3)nc(N3CCc4ccccc4C3)n1)C2

>  <Energy>  (8) 
88.0844221705638

>  <Genealogy>  (8) 
c1ccc2c(c1)CCN(c1nc(NCC[NH+]3CCOCC3)nc(N3CCc4ccccc4C3)n1)C2 (protonated)
c1ccc2c(c1)CCN(c1nc(NCC[NH+]3CCOCC3)nc(N3CCc4ccccc4C3)n1)C2 (3D coordinates assigned)
c1ccc2c(c1)CCN(c1nc(NCC[NH+]3CCOCC3)nc(N3CCc4ccccc4C3)n1)C2 (nonaromatic ring conformer: 88.0844221705638 kcal/mol)

>  <smiles>  (8) 
c1ccc2c(c1)CCN(c1nc(NCCN3CCOCC3)nc(N3CCc4ccccc4C3)n1)C2

>  <score_type>  (8) 
oracle

>  <origin>  (8) 
autodockgpu

>  <m_score__min__energy>  (8) 
-9.0199999999999996

>  <m_primary>  (8) 
energy

>  <meeko>  (8) 
{"free_energy": -9.01, "intermolecular_energy": -10.8, "internal_energy": -1.57, "cluster_size": 2, "cluster_id": 1, "rank_in_cluster": 2}

>  <energy>  (8) 
-8.73

>  <cluster_rmsd>  (8) 
1.08

>  <rmsd>  (8) 
271.23

>  <cluster>  (8) 
2

$$$$
XKJAOWLAVYPRNA-QTZDNFDFNA-O
     RDKit          3D

 69 74  0  0  0  0  0  0  0  0999 V2000
  141.6010   80.5130  221.6960 C   0  0  0  0  0  0  0  0  0  0  0  0
  141.8420   80.0270  222.9830 C   0  0  0  0  0  0  0  0  0  0  0  0
  141.5740   78.6930  223.2900 C   0  0  0  0  0  0  0  0  0  0  0  0
  141.0740   77.8240  222.3040 C   0  0  0  0  0  0  0  0  0  0  0  0
  140.8220   78.3190  221.0000 C   0  0  0  0  0  0  0  0  0  0  0  0
  141.0990   79.6630  220.7070 C   0  0  0  0  0  0  0  0  0  0  0  0
  140.3660   77.4060  219.8850 C   0  0  0  0  0  0  0  0  0  0  0  0
  139.6740   76.1540  220.4200 C   0  0  0  0  0  0  0  0  0  0  0  0
  140.4720   75.5750  221.5000 N   0  0  0  0  0  0  0  0  0  0  0  0
  140.6610   74.1600  221.5590 C   0  0  0  0  0  0  0  0  0  0  0  0
  141.3180   73.5250  220.5560 N   0  0  0  0  0  0  0  0  0  0  0  0
  141.5170   72.1860  220.6150 C   0  0  0  0  0  0  0  0  0  0  0  0
  142.2730   71.5300  219.5910 N   0  0  0  0  0  0  0  0  0  0  0  0
  143.7290   71.4060  219.6510 C   0  0  0  0  0  0  0  0  0  0  0  0
  144.3670   72.7570  220.0290 C   0  0  0  0  0  0  0  0  0  0  0  0
  143.6890   73.9090  219.3900 N   0  0  0  0  0  0  0  0  0  0  0  0
  144.0620   75.1550  220.0920 C   0  0  0  0  0  0  0  0  0  0  0  0
  143.3730   76.3800  219.4500 C   0  0  0  0  0  0  0  0  0  0  0  0
  142.7840   76.0840  218.1970 O   0  0  0  0  0  0  0  0  0  0  0  0
  143.7190   75.4130  217.3820 C   0  0  0  0  0  0  0  0  0  0  0  0
  144.0270   74.0130  217.9480 C   0  0  0  0  0  0  0  0  0  0  0  0
  141.0440   71.4830  221.6760 N   0  0  0  0  0  0  0  0  0  0  0  0
  140.3930   72.1090  222.6880 C   0  0  0  0  0  0  0  0  0  0  0  0
  139.9400   71.3630  223.8340 N   0  0  0  0  0  0  0  0  0  0  0  0
  138.7560   70.4990  223.7530 C   0  0  0  0  0  0  0  0  0  0  0  0
  139.1160   69.1110  224.2640 C   0  0  0  0  0  0  0  0  0  0  0  0
  139.7350   69.1940  225.6350 C   0  0  0  0  0  0  0  0  0  0  0  0
  139.6410   68.0930  226.5010 C   0  0  0  0  0  0  0  0  0  0  0  0
  140.2410   68.1370  227.7610 C   0  0  0  0  0  0  0  0  0  0  0  0
  140.9420   69.2750  228.1630 C   0  0  0  0  0  0  0  0  0  0  0  0
  141.0510   70.3730  227.3100 C   0  0  0  0  0  0  0  0  0  0  0  0
  140.4600   70.3410  226.0370 C   0  0  0  0  0  0  0  0  0  0  0  0
  140.5940   71.5520  225.1380 C   0  0  0  0  0  0  0  0  0  0  0  0
  140.2130   73.4540  222.6300 N   0  0  0  0  0  0  0  0  0  0  0  0
  140.7800   76.3890  222.6790 C   0  0  0  0  0  0  0  0  0  0  0  0
  141.8069   81.5675  221.4603 H   0  0  0  0  0  0  0  0  0  0  0  0
  142.2441   80.6979  223.7564 H   0  0  0  0  0  0  0  0  0  0  0  0
  141.7547   78.3189  224.3085 H   0  0  0  0  0  0  0  0  0  0  0  0
  140.9199   80.0497  219.6929 H   0  0  0  0  0  0  0  0  0  0  0  0
  139.6616   77.9543  219.2422 H   0  0  0  0  0  0  0  0  0  0  0  0
  141.2547   77.0887  219.3197 H   0  0  0  0  0  0  0  0  0  0  0  0
  138.6785   76.4218  220.8037 H   0  0  0  0  0  0  0  0  0  0  0  0
  139.5707   75.4190  219.6081 H   0  0  0  0  0  0  0  0  0  0  0  0
  141.7680   71.1270  218.7710 H   0  0  0  0  0  0  0  0  0  0  0  0
  143.9980   70.6537  220.4071 H   0  0  0  0  0  0  0  0  0  0  0  0
  144.1024   71.0985  218.6631 H   0  0  0  0  0  0  0  0  0  0  0  0
  144.3128   72.8784  221.1209 H   0  0  0  0  0  0  0  0  0  0  0  0
  145.4073   72.7443  219.6719 H   0  0  0  0  0  0  0  0  0  0  0  0
  142.6530   73.7790  219.4920 H   0  0  0  0  0  0  0  0  0  0  0  0
  143.7542   75.0803  221.1454 H   0  0  0  0  0  0  0  0  0  0  0  0
  145.1515   75.2866  220.0171 H   0  0  0  0  0  0  0  0  0  0  0  0
  142.5877   76.7388  220.1315 H   0  0  0  0  0  0  0  0  0  0  0  0
  144.1462   77.1438  219.2803 H   0  0  0  0  0  0  0  0  0  0  0  0
  143.3059   75.3099  216.3677 H   0  0  0  0  0  0  0  0  0  0  0  0
  144.6505   75.9976  217.3563 H   0  0  0  0  0  0  0  0  0  0  0  0
  143.4400   73.2678  217.3911 H   0  0  0  0  0  0  0  0  0  0  0  0
  145.1065   73.8323  217.8383 H   0  0  0  0  0  0  0  0  0  0  0  0
  137.9492   70.9209  224.3703 H   0  0  0  0  0  0  0  0  0  0  0  0
  138.4164   70.4328  222.7088 H   0  0  0  0  0  0  0  0  0  0  0  0
  138.2046   68.4973  224.3156 H   0  0  0  0  0  0  0  0  0  0  0  0
  139.8425   68.6568  223.5741 H   0  0  0  0  0  0  0  0  0  0  0  0
  139.0929   67.1928  226.1859 H   0  0  0  0  0  0  0  0  0  0  0  0
  140.1611   67.2735  228.4378 H   0  0  0  0  0  0  0  0  0  0  0  0
  141.4109   69.3060  229.1576 H   0  0  0  0  0  0  0  0  0  0  0  0
  141.6021   71.2675  227.6359 H   0  0  0  0  0  0  0  0  0  0  0  0
  140.1351   72.4163  225.6404 H   0  0  0  0  0  0  0  0  0  0  0  0
  141.6663   71.7128  224.9530 H   0  0  0  0  0  0  0  0  0  0  0  0
  139.9181   76.3681  223.3622 H   0  0  0  0  0  0  0  0  0  0  0  0
  141.6749   75.9696  223.1621 H   0  0  0  0  0  0  0  0  0  0  0  0
  1  2  2  0
  2  3  1  0
  3  4  2  0
  4  5  1  0
  5  6  2  0
  5  7  1  0
  7  8  1  0
  8  9  1  0
  9 10  1  0
 10 11  2  0
 11 12  1  0
 12 13  1  0
 13 14  1  0
 14 15  1  0
 15 16  1  0
 16 17  1  0
 17 18  1  0
 18 19  1  0
 19 20  1  0
 20 21  1  0
 12 22  2  0
 22 23  1  0
 23 24  1  0
 24 25  1  0
 25 26  1  0
 26 27  1  0
 27 28  2  0
 28 29  1  0
 29 30  2  0
 30 31  1  0
 31 32  2  0
 32 33  1  0
 23 34  2  0
  9 35  1  0
  6  1  1  0
 34 10  1  0
 35  4  1  0
 21 16  1  0
 33 24  1  0
 32 27  1  0
  1 36  1  0
  2 37  1  0
  3 38  1  0
  6 39  1  0
  7 40  1  0
  7 41  1  0
  8 42  1  0
  8 43  1  0
 13 44  1  0
 14 45  1  0
 14 46  1  0
 15 47  1  0
 15 48  1  0
 16 49  1  0
 17 50  1  0
 17 51  1  0
 18 52  1  0
 18 53  1  0
 20 54  1  0
 20 55  1  0
 21 56  1  0
 21 57  1  0
 25 58  1  0
 25 59  1  0
 26 60  1  0
 26 61  1  0
 28 62  1  0
 29 63  1  0
 30 64  1  0
 31 65  1  0
 33 66  1  0
 33 67  1  0
 35 68  1  0
 35 69  1  0
M  CHG  1  16   1
M  END
>  <UniqueID>  (9) 
282

>  <SMILES>  (9) 
c1ccc2c(c1)CCN(c1nc(NCC[NH+]3CCOCC3)nc(N3CCc4ccccc4C3)n1)C2

>  <Energy>  (9) 
88.0844221705638

>  <Genealogy>  (9) 
c1ccc2c(c1)CCN(c1nc(NCC[NH+]3CCOCC3)nc(N3CCc4ccccc4C3)n1)C2 (protonated)
c1ccc2c(c1)CCN(c1nc(NCC[NH+]3CCOCC3)nc(N3CCc4ccccc4C3)n1)C2 (3D coordinates assigned)
c1ccc2c(c1)CCN(c1nc(NCC[NH+]3CCOCC3)nc(N3CCc4ccccc4C3)n1)C2 (nonaromatic ring conformer: 88.0844221705638 kcal/mol)

>  <smiles>  (9) 
c1ccc2c(c1)CCN(c1nc(NCCN3CCOCC3)nc(N3CCc4ccccc4C3)n1)C2

>  <score_type>  (9) 
oracle

>  <origin>  (9) 
autodockgpu

>  <m_score__min__energy>  (9) 
-9.0199999999999996

>  <m_primary>  (9) 
energy

>  <meeko>  (9) 
{"free_energy": -8.73, "intermolecular_energy": -10.52, "internal_energy": -2.42, "cluster_size": 8, "cluster_id": 2, "rank_in_cluster": 4}

>  <energy>  (9) 
-8.72

>  <cluster_rmsd>  (9) 
1.13

>  <rmsd>  (9) 
271.15

>  <cluster>  (9) 
2

$$$$
XKJAOWLAVYPRNA-QTZDNFDFNA-O
     RDKit          3D

 69 74  0  0  0  0  0  0  0  0999 V2000
  142.4800   80.7220  222.6530 C   0  0  0  0  0  0  0  0  0  0  0  0
  142.1980   80.0790  223.8610 C   0  0  0  0  0  0  0  0  0  0  0  0
  141.6260   78.8070  223.8600 C   0  0  0  0  0  0  0  0  0  0  0  0
  141.3430   78.1550  222.6480 C   0  0  0  0  0  0  0  0  0  0  0  0
  141.6200   78.8110  221.4220 C   0  0  0  0  0  0  0  0  0  0  0  0
  142.1980   80.0900  221.4390 C   0  0  0  0  0  0  0  0  0  0  0  0
  141.4130   78.1200  220.0940 C   0  0  0  0  0  0  0  0  0  0  0  0
  140.3850   76.9950  220.1910 C   0  0  0  0  0  0  0  0  0  0  0  0
  140.6740   76.1650  221.3600 N   0  0  0  0  0  0  0  0  0  0  0  0
  140.5960   74.7420  221.2550 C   0  0  0  0  0  0  0  0  0  0  0  0
  140.9480   74.1310  220.0960 N   0  0  0  0  0  0  0  0  0  0  0  0
  140.8930   72.7810  219.9950 C   0  0  0  0  0  0  0  0  0  0  0  0
  141.3340   72.1350  218.7950 N   0  0  0  0  0  0  0  0  0  0  0  0
  141.6730   72.8810  217.5850 C   0  0  0  0  0  0  0  0  0  0  0  0
  142.7910   73.9000  217.8780 C   0  0  0  0  0  0  0  0  0  0  0  0
  143.5330   73.5930  219.1230 N   0  0  0  0  0  0  0  0  0  0  0  0
  144.6270   72.6450  218.8260 C   0  0  0  0  0  0  0  0  0  0  0  0
  145.4250   72.3010  220.1050 C   0  0  0  0  0  0  0  0  0  0  0  0
  145.1240   73.1630  221.1870 O   0  0  0  0  0  0  0  0  0  0  0  0
  145.2030   74.5050  220.7590 C   0  0  0  0  0  0  0  0  0  0  0  0
  144.0780   74.8210  219.7540 C   0  0  0  0  0  0  0  0  0  0  0  0
  140.4720   72.0460  221.0560 N   0  0  0  0  0  0  0  0  0  0  0  0
  140.1260   72.6450  222.2220 C   0  0  0  0  0  0  0  0  0  0  0  0
  139.7290   71.8540  223.3580 N   0  0  0  0  0  0  0  0  0  0  0  0
  138.4650   71.1070  223.3550 C   0  0  0  0  0  0  0  0  0  0  0  0
  138.7430   69.6560  223.7250 C   0  0  0  0  0  0  0  0  0  0  0  0
  139.5110   69.5750  225.0180 C   0  0  0  0  0  0  0  0  0  0  0  0
  139.4060   68.4220  225.8110 C   0  0  0  0  0  0  0  0  0  0  0  0
  140.1400   68.3140  226.9940 C   0  0  0  0  0  0  0  0  0  0  0  0
  140.9880   69.3490  227.3900 C   0  0  0  0  0  0  0  0  0  0  0  0
  141.1080   70.4980  226.6070 C   0  0  0  0  0  0  0  0  0  0  0  0
  140.3830   70.6190  225.4110 C   0  0  0  0  0  0  0  0  0  0  0  0
  140.5350   71.8800  224.5880 C   0  0  0  0  0  0  0  0  0  0  0  0
  140.2000   73.9980  222.3200 N   0  0  0  0  0  0  0  0  0  0  0  0
  140.7070   76.7840  222.6880 C   0  0  0  0  0  0  0  0  0  0  0  0
  142.9250   81.7280  222.6576 H   0  0  0  0  0  0  0  0  0  0  0  0
  142.4275   80.5770  224.8146 H   0  0  0  0  0  0  0  0  0  0  0  0
  141.3949   78.3110  224.8143 H   0  0  0  0  0  0  0  0  0  0  0  0
  142.4303   80.5977  220.4912 H   0  0  0  0  0  0  0  0  0  0  0  0
  141.0623   78.8597  219.3592 H   0  0  0  0  0  0  0  0  0  0  0  0
  142.3726   77.6790  219.7862 H   0  0  0  0  0  0  0  0  0  0  0  0
  139.3780   77.4268  220.2887 H   0  0  0  0  0  0  0  0  0  0  0  0
  140.4341   76.3763  219.2828 H   0  0  0  0  0  0  0  0  0  0  0  0
  141.4150   71.0950  218.7830 H   0  0  0  0  0  0  0  0  0  0  0  0
  142.0161   72.1791  216.8106 H   0  0  0  0  0  0  0  0  0  0  0  0
  140.7802   73.4210  217.2368 H   0  0  0  0  0  0  0  0  0  0  0  0
  143.4993   73.8969  217.0364 H   0  0  0  0  0  0  0  0  0  0  0  0
  142.3175   74.8843  218.0078 H   0  0  0  0  0  0  0  0  0  0  0  0
  142.8740   73.1260  219.7930 H   0  0  0  0  0  0  0  0  0  0  0  0
  144.1992   71.7211  218.4096 H   0  0  0  0  0  0  0  0  0  0  0  0
  145.3100   73.1138  218.1024 H   0  0  0  0  0  0  0  0  0  0  0  0
  145.1868   71.2687  220.4011 H   0  0  0  0  0  0  0  0  0  0  0  0
  146.4932   72.4220  219.8719 H   0  0  0  0  0  0  0  0  0  0  0  0
  145.1059   75.1688  221.6308 H   0  0  0  0  0  0  0  0  0  0  0  0
  146.1736   74.6635  220.2662 H   0  0  0  0  0  0  0  0  0  0  0  0
  143.2646   75.3390  220.2832 H   0  0  0  0  0  0  0  0  0  0  0  0
  144.5013   75.4518  218.9585 H   0  0  0  0  0  0  0  0  0  0  0  0
  137.7745   71.5485  224.0887 H   0  0  0  0  0  0  0  0  0  0  0  0
  138.0092   71.1537  222.3550 H   0  0  0  0  0  0  0  0  0  0  0  0
  137.7876   69.1227  223.8383 H   0  0  0  0  0  0  0  0  0  0  0  0
  139.3441   69.1960  222.9268 H   0  0  0  0  0  0  0  0  0  0  0  0
  138.7435   67.6008  225.4998 H   0  0  0  0  0  0  0  0  0  0  0  0
  140.0495   67.4108  227.6153 H   0  0  0  0  0  0  0  0  0  0  0  0
  141.5640   69.2589  228.3228 H   0  0  0  0  0  0  0  0  0  0  0  0
  141.7737   71.3125  226.9285 H   0  0  0  0  0  0  0  0  0  0  0  0
  140.2189   72.7390  225.1981 H   0  0  0  0  0  0  0  0  0  0  0  0
  141.5915   71.9590  224.2921 H   0  0  0  0  0  0  0  0  0  0  0  0
  139.6773   76.8791  223.0631 H   0  0  0  0  0  0  0  0  0  0  0  0
  141.3093   76.1448  223.3504 H   0  0  0  0  0  0  0  0  0  0  0  0
  1  2  2  0
  2  3  1  0
  3  4  2  0
  4  5  1  0
  5  6  2  0
  5  7  1  0
  7  8  1  0
  8  9  1  0
  9 10  1  0
 10 11  2  0
 11 12  1  0
 12 13  1  0
 13 14  1  0
 14 15  1  0
 15 16  1  0
 16 17  1  0
 17 18  1  0
 18 19  1  0
 19 20  1  0
 20 21  1  0
 12 22  2  0
 22 23  1  0
 23 24  1  0
 24 25  1  0
 25 26  1  0
 26 27  1  0
 27 28  2  0
 28 29  1  0
 29 30  2  0
 30 31  1  0
 31 32  2  0
 32 33  1  0
 23 34  2  0
  9 35  1  0
  6  1  1  0
 34 10  1  0
 35  4  1  0
 21 16  1  0
 33 24  1  0
 32 27  1  0
  1 36  1  0
  2 37  1  0
  3 38  1  0
  6 39  1  0
  7 40  1  0
  7 41  1  0
  8 42  1  0
  8 43  1  0
 13 44  1  0
 14 45  1  0
 14 46  1  0
 15 47  1  0
 15 48  1  0
 16 49  1  0
 17 50  1  0
 17 51  1  0
 18 52  1  0
 18 53  1  0
 20 54  1  0
 20 55  1  0
 21 56  1  0
 21 57  1  0
 25 58  1  0
 25 59  1  0
 26 60  1  0
 26 61  1  0
 28 62  1  0
 29 63  1  0
 30 64  1  0
 31 65  1  0
 33 66  1  0
 33 67  1  0
 35 68  1  0
 35 69  1  0
M  CHG  1  16   1
M  END
>  <UniqueID>  (10) 
282

>  <SMILES>  (10) 
c1ccc2c(c1)CCN(c1nc(NCC[NH+]3CCOCC3)nc(N3CCc4ccccc4C3)n1)C2

>  <Energy>  (10) 
88.0844221705638

>  <Genealogy>  (10) 
c1ccc2c(c1)CCN(c1nc(NCC[NH+]3CCOCC3)nc(N3CCc4ccccc4C3)n1)C2 (protonated)
c1ccc2c(c1)CCN(c1nc(NCC[NH+]3CCOCC3)nc(N3CCc4ccccc4C3)n1)C2 (3D coordinates assigned)
c1ccc2c(c1)CCN(c1nc(NCC[NH+]3CCOCC3)nc(N3CCc4ccccc4C3)n1)C2 (nonaromatic ring conformer: 88.0844221705638 kcal/mol)

>  <smiles>  (10) 
c1ccc2c(c1)CCN(c1nc(NCCN3CCOCC3)nc(N3CCc4ccccc4C3)n1)C2

>  <score_type>  (10) 
oracle

>  <origin>  (10) 
autodockgpu

>  <m_score__min__energy>  (10) 
-9.0199999999999996

>  <m_primary>  (10) 
energy

>  <meeko>  (10) 
{"free_energy": -8.85, "intermolecular_energy": -10.64, "internal_energy": -1.93, "cluster_size": 8, "cluster_id": 2, "rank_in_cluster": 2}

>  <energy>  (10) 
-8.33

>  <cluster_rmsd>  (10) 
1.38

>  <rmsd>  (10) 
271.11

>  <cluster>  (10) 
2

$$$$
XKJAOWLAVYPRNA-QTZDNFDFNA-O
     RDKit          3D

 69 74  0  0  0  0  0  0  0  0999 V2000
  139.6340   69.5710  227.7100 C   0  0  0  0  0  0  0  0  0  0  0  0
  140.6620   70.5160  227.7660 C   0  0  0  0  0  0  0  0  0  0  0  0
  141.0010   71.2500  226.6290 C   0  0  0  0  0  0  0  0  0  0  0  0
  140.3040   71.0570  225.4240 C   0  0  0  0  0  0  0  0  0  0  0  0
  139.2670   70.0920  225.3640 C   0  0  0  0  0  0  0  0  0  0  0  0
  138.9360   69.3630  226.5170 C   0  0  0  0  0  0  0  0  0  0  0  0
  138.4330   69.9070  224.1180 C   0  0  0  0  0  0  0  0  0  0  0  0
  139.1680   70.3790  222.8650 C   0  0  0  0  0  0  0  0  0  0  0  0
  139.7600   71.6940  223.1080 N   0  0  0  0  0  0  0  0  0  0  0  0
  139.6710   72.7060  222.1030 C   0  0  0  0  0  0  0  0  0  0  0  0
  138.8460   72.5320  221.0410 N   0  0  0  0  0  0  0  0  0  0  0  0
  138.7440   73.4960  220.0930 C   0  0  0  0  0  0  0  0  0  0  0  0
  137.8180   73.3400  219.0120 N   0  0  0  0  0  0  0  0  0  0  0  0
  136.6350   74.1870  218.8670 C   0  0  0  0  0  0  0  0  0  0  0  0
  135.8820   74.2900  220.2080 C   0  0  0  0  0  0  0  0  0  0  0  0
  136.6710   74.9800  221.2560 N   0  0  0  0  0  0  0  0  0  0  0  0
  136.9360   76.3730  220.8400 C   0  0  0  0  0  0  0  0  0  0  0  0
  137.7580   77.1250  221.9110 C   0  0  0  0  0  0  0  0  0  0  0  0
  137.8260   76.4250  223.1400 O   0  0  0  0  0  0  0  0  0  0  0  0
  136.5300   76.0280  223.5310 C   0  0  0  0  0  0  0  0  0  0  0  0
  135.9750   74.9610  222.5670 C   0  0  0  0  0  0  0  0  0  0  0  0
  139.4820   74.6290  220.2080 N   0  0  0  0  0  0  0  0  0  0  0  0
  140.3050   74.8170  221.2690 C   0  0  0  0  0  0  0  0  0  0  0  0
  141.0460   76.0450  221.4080 N   0  0  0  0  0  0  0  0  0  0  0  0
  141.8830   76.5500  220.3130 C   0  0  0  0  0  0  0  0  0  0  0  0
  141.5080   77.9970  220.0260 C   0  0  0  0  0  0  0  0  0  0  0  0
  141.5650   78.8210  221.2860 C   0  0  0  0  0  0  0  0  0  0  0  0
  141.7990   80.2020  221.1960 C   0  0  0  0  0  0  0  0  0  0  0  0
  141.8180   80.9880  222.3500 C   0  0  0  0  0  0  0  0  0  0  0  0
  141.5980   80.4040  223.5980 C   0  0  0  0  0  0  0  0  0  0  0  0
  141.3570   79.0340  223.7020 C   0  0  0  0  0  0  0  0  0  0  0  0
  141.3270   78.2320  222.5500 C   0  0  0  0  0  0  0  0  0  0  0  0
  141.0650   76.7480  222.6990 C   0  0  0  0  0  0  0  0  0  0  0  0
  140.3890   73.8530  222.2230 N   0  0  0  0  0  0  0  0  0  0  0  0
  140.7130   71.8590  224.2090 C   0  0  0  0  0  0  0  0  0  0  0  0
  139.3736   68.9896  228.6067 H   0  0  0  0  0  0  0  0  0  0  0  0
  141.2049   70.6814  228.7083 H   0  0  0  0  0  0  0  0  0  0  0  0
  141.8188   71.9842  226.6760 H   0  0  0  0  0  0  0  0  0  0  0  0
  138.1224   68.6236  226.4814 H   0  0  0  0  0  0  0  0  0  0  0  0
  138.1909   68.8397  224.0074 H   0  0  0  0  0  0  0  0  0  0  0  0
  137.5204   70.5116  224.2259 H   0  0  0  0  0  0  0  0  0  0  0  0
  139.9626   69.6607  222.6146 H   0  0  0  0  0  0  0  0  0  0  0  0
  138.4564   70.4482  222.0290 H   0  0  0  0  0  0  0  0  0  0  0  0
  137.9920   72.5950  218.3030 H   0  0  0  0  0  0  0  0  0  0  0  0
  136.9459   75.1926  218.5474 H   0  0  0  0  0  0  0  0  0  0  0  0
  135.9667   73.7419  218.1151 H   0  0  0  0  0  0  0  0  0  0  0  0
  134.9485   74.8487  220.0453 H   0  0  0  0  0  0  0  0  0  0  0  0
  135.6875   73.2659  220.5591 H   0  0  0  0  0  0  0  0  0  0  0  0
  137.5940   74.4900  221.3500 H   0  0  0  0  0  0  0  0  0  0  0  0
  137.4987   76.3651  219.8949 H   0  0  0  0  0  0  0  0  0  0  0  0
  135.9731   76.8891  220.7115 H   0  0  0  0  0  0  0  0  0  0  0  0
  138.7803   77.2703  221.5319 H   0  0  0  0  0  0  0  0  0  0  0  0
  137.2546   78.0841  222.1028 H   0  0  0  0  0  0  0  0  0  0  0  0
  136.5713   75.6101  224.5477 H   0  0  0  0  0  0  0  0  0  0  0  0
  135.8679   76.9061  223.5070 H   0  0  0  0  0  0  0  0  0  0  0  0
  136.1043   73.9685  223.0233 H   0  0  0  0  0  0  0  0  0  0  0  0
  134.9121   75.1825  222.3906 H   0  0  0  0  0  0  0  0  0  0  0  0
  142.9425   76.4948  220.6036 H   0  0  0  0  0  0  0  0  0  0  0  0
  141.7222   75.9398  219.4120 H   0  0  0  0  0  0  0  0  0  0  0  0
  142.2115   78.4133  219.2900 H   0  0  0  0  0  0  0  0  0  0  0  0
  140.4818   78.0251  219.6308 H   0  0  0  0  0  0  0  0  0  0  0  0
  141.9679   80.6666  220.2133 H   0  0  0  0  0  0  0  0  0  0  0  0
  142.0067   82.0691  222.2751 H   0  0  0  0  0  0  0  0  0  0  0  0
  141.6147   81.0271  224.5044 H   0  0  0  0  0  0  0  0  0  0  0  0
  141.1898   78.5804  224.6901 H   0  0  0  0  0  0  0  0  0  0  0  0
  141.8564   76.3117  223.3261 H   0  0  0  0  0  0  0  0  0  0  0  0
  140.0723   76.6293  223.1577 H   0  0  0  0  0  0  0  0  0  0  0  0
  141.7054   71.5212  223.8758 H   0  0  0  0  0  0  0  0  0  0  0  0
  140.7338   72.9224  224.4897 H   0  0  0  0  0  0  0  0  0  0  0  0
  1  2  2  0
  2  3  1  0
  3  4  2  0
  4  5  1  0
  5  6  2  0
  5  7  1  0
  7  8  1  0
  8  9  1  0
  9 10  1  0
 10 11  2  0
 11 12  1  0
 12 13  1  0
 13 14  1  0
 14 15  1  0
 15 16  1  0
 16 17  1  0
 17 18  1  0
 18 19  1  0
 19 20  1  0
 20 21  1  0
 12 22  2  0
 22 23  1  0
 23 24  1  0
 24 25  1  0
 25 26  1  0
 26 27  1  0
 27 28  2  0
 28 29  1  0
 29 30  2  0
 30 31  1  0
 31 32  2  0
 32 33  1  0
 23 34  2  0
  9 35  1  0
  6  1  1  0
 34 10  1  0
 35  4  1  0
 21 16  1  0
 33 24  1  0
 32 27  1  0
  1 36  1  0
  2 37  1  0
  3 38  1  0
  6 39  1  0
  7 40  1  0
  7 41  1  0
  8 42  1  0
  8 43  1  0
 13 44  1  0
 14 45  1  0
 14 46  1  0
 15 47  1  0
 15 48  1  0
 16 49  1  0
 17 50  1  0
 17 51  1  0
 18 52  1  0
 18 53  1  0
 20 54  1  0
 20 55  1  0
 21 56  1  0
 21 57  1  0
 25 58  1  0
 25 59  1  0
 26 60  1  0
 26 61  1  0
 28 62  1  0
 29 63  1  0
 30 64  1  0
 31 65  1  0
 33 66  1  0
 33 67  1  0
 35 68  1  0
 35 69  1  0
M  CHG  1  16   1
M  END
>  <UniqueID>  (11) 
282

>  <SMILES>  (11) 
c1ccc2c(c1)CCN(c1nc(NCC[NH+]3CCOCC3)nc(N3CCc4ccccc4C3)n1)C2

>  <Energy>  (11) 
88.0844221705638

>  <Genealogy>  (11) 
c1ccc2c(c1)CCN(c1nc(NCC[NH+]3CCOCC3)nc(N3CCc4ccccc4C3)n1)C2 (protonated)
c1ccc2c(c1)CCN(c1nc(NCC[NH+]3CCOCC3)nc(N3CCc4ccccc4C3)n1)C2 (3D coordinates assigned)
c1ccc2c(c1)CCN(c1nc(NCC[NH+]3CCOCC3)nc(N3CCc4ccccc4C3)n1)C2 (nonaromatic ring conformer: 88.0844221705638 kcal/mol)

>  <smiles>  (11) 
c1ccc2c(c1)CCN(c1nc(NCCN3CCOCC3)nc(N3CCc4ccccc4C3)n1)C2

>  <score_type>  (11) 
oracle

>  <origin>  (11) 
autodockgpu

>  <m_score__min__energy>  (11) 
-9.0199999999999996

>  <m_primary>  (11) 
energy

>  <meeko>  (11) 
{"free_energy": -8.1, "intermolecular_energy": -9.89, "internal_energy": -2.74, "cluster_size": 8, "cluster_id": 5, "rank_in_cluster": 6}

>  <energy>  (11) 
-8.27

>  <cluster_rmsd>  (11) 
0.0

>  <rmsd>  (11) 
270.8

>  <cluster>  (11) 
3

$$$$
XKJAOWLAVYPRNA-QTZDNFDFNA-O
     RDKit          3D

 69 74  0  0  0  0  0  0  0  0999 V2000
  145.1600   66.5100  218.1750 C   0  0  0  0  0  0  0  0  0  0  0  0
  145.9930   67.1360  219.1050 C   0  0  0  0  0  0  0  0  0  0  0  0
  145.6210   68.3580  219.6680 C   0  0  0  0  0  0  0  0  0  0  0  0
  144.4010   68.9610  219.3160 C   0  0  0  0  0  0  0  0  0  0  0  0
  143.5600   68.3300  218.3660 C   0  0  0  0  0  0  0  0  0  0  0  0
  143.9460   67.1000  217.8100 C   0  0  0  0  0  0  0  0  0  0  0  0
  142.2010   68.8940  218.0180 C   0  0  0  0  0  0  0  0  0  0  0  0
  142.1180   70.3930  218.3000 C   0  0  0  0  0  0  0  0  0  0  0  0
  142.6600   70.6740  219.6290 N   0  0  0  0  0  0  0  0  0  0  0  0
  141.9810   71.5890  220.4900 C   0  0  0  0  0  0  0  0  0  0  0  0
  141.8820   72.8970  220.1430 N   0  0  0  0  0  0  0  0  0  0  0  0
  141.2230   73.7660  220.9470 C   0  0  0  0  0  0  0  0  0  0  0  0
  141.0590   75.1300  220.5410 N   0  0  0  0  0  0  0  0  0  0  0  0
  142.1950   75.9990  220.2410 C   0  0  0  0  0  0  0  0  0  0  0  0
  142.7090   75.7350  218.8120 C   0  0  0  0  0  0  0  0  0  0  0  0
  143.9650   74.9490  218.7920 N   0  0  0  0  0  0  0  0  0  0  0  0
  144.3010   74.5170  220.1640 C   0  0  0  0  0  0  0  0  0  0  0  0
  145.6080   73.6920  220.1810 C   0  0  0  0  0  0  0  0  0  0  0  0
  146.0260   73.3000  218.8860 O   0  0  0  0  0  0  0  0  0  0  0  0
  144.9430   72.7160  218.1960 C   0  0  0  0  0  0  0  0  0  0  0  0
  143.8590   73.7700  217.8960 C   0  0  0  0  0  0  0  0  0  0  0  0
  140.6750   73.3230  222.1070 N   0  0  0  0  0  0  0  0  0  0  0  0
  140.7600   72.0170  222.4600 C   0  0  0  0  0  0  0  0  0  0  0  0
  140.1310   71.5470  223.6680 N   0  0  0  0  0  0  0  0  0  0  0  0
  138.8420   70.8470  223.6260 C   0  0  0  0  0  0  0  0  0  0  0  0
  138.9640   69.5330  224.3860 C   0  0  0  0  0  0  0  0  0  0  0  0
  139.5000   69.7700  225.7740 C   0  0  0  0  0  0  0  0  0  0  0  0
  139.1930   68.8570  226.7960 C   0  0  0  0  0  0  0  0  0  0  0  0
  139.7120   69.0400  228.0790 C   0  0  0  0  0  0  0  0  0  0  0  0
  140.5440   70.1270  228.3500 C   0  0  0  0  0  0  0  0  0  0  0  0
  140.8640   71.0370  227.3420 C   0  0  0  0  0  0  0  0  0  0  0  0
  140.3570   70.8630  226.0450 C   0  0  0  0  0  0  0  0  0  0  0  0
  140.7220   71.8710  224.9760 C   0  0  0  0  0  0  0  0  0  0  0  0
  141.4080   71.1480  221.6410 N   0  0  0  0  0  0  0  0  0  0  0  0
  144.0410   70.2930  219.9340 C   0  0  0  0  0  0  0  0  0  0  0  0
  145.4597   65.5504  217.7286 H   0  0  0  0  0  0  0  0  0  0  0  0
  146.9441   66.6652  219.3944 H   0  0  0  0  0  0  0  0  0  0  0  0
  146.2865   68.8519  220.3913 H   0  0  0  0  0  0  0  0  0  0  0  0
  143.2901   66.5979  217.0836 H   0  0  0  0  0  0  0  0  0  0  0  0
  142.0075   68.7219  216.9489 H   0  0  0  0  0  0  0  0  0  0  0  0
  141.4510   68.3872  218.6430 H   0  0  0  0  0  0  0  0  0  0  0  0
  142.7003   70.9403  217.5441 H   0  0  0  0  0  0  0  0  0  0  0  0
  141.0667   70.7142  218.2593 H   0  0  0  0  0  0  0  0  0  0  0  0
  140.0940   75.5190  220.4590 H   0  0  0  0  0  0  0  0  0  0  0  0
  141.8801   77.0496  220.3249 H   0  0  0  0  0  0  0  0  0  0  0  0
  143.0040   75.7894  220.9562 H   0  0  0  0  0  0  0  0  0  0  0  0
  141.9378   75.1802  218.2575 H   0  0  0  0  0  0  0  0  0  0  0  0
  142.9201   76.7104  218.3494 H   0  0  0  0  0  0  0  0  0  0  0  0
  144.7380   75.5710  218.4500 H   0  0  0  0  0  0  0  0  0  0  0  0
  144.4283   75.4056  220.7998 H   0  0  0  0  0  0  0  0  0  0  0  0
  143.4835   73.8859  220.5426 H   0  0  0  0  0  0  0  0  0  0  0  0
  146.4022   74.3010  220.6374 H   0  0  0  0  0  0  0  0  0  0  0  0
  145.4140   72.7758  220.7581 H   0  0  0  0  0  0  0  0  0  0  0  0
  145.3053   72.2903  217.2486 H   0  0  0  0  0  0  0  0  0  0  0  0
  144.5057   71.9268  218.8253 H   0  0  0  0  0  0  0  0  0  0  0  0
  143.9685   74.1051  216.8540 H   0  0  0  0  0  0  0  0  0  0  0  0
  142.8769   73.3038  218.0635 H   0  0  0  0  0  0  0  0  0  0  0  0
  138.0676   71.4726  224.0938 H   0  0  0  0  0  0  0  0  0  0  0  0
  138.5629   70.6464  222.5811 H   0  0  0  0  0  0  0  0  0  0  0  0
  137.9719   69.0632  224.4571 H   0  0  0  0  0  0  0  0  0  0  0  0
  139.6596   68.8743  223.8453 H   0  0  0  0  0  0  0  0  0  0  0  0
  138.5421   67.9957  226.5851 H   0  0  0  0  0  0  0  0  0  0  0  0
  139.4645   68.3257  228.8781 H   0  0  0  0  0  0  0  0  0  0  0  0
  140.9494   70.2670  229.3629 H   0  0  0  0  0  0  0  0  0  0  0  0
  141.5163   71.8943  227.5648 H   0  0  0  0  0  0  0  0  0  0  0  0
  140.3628   72.8624  225.2891 H   0  0  0  0  0  0  0  0  0  0  0  0
  141.8158   71.8537  224.8611 H   0  0  0  0  0  0  0  0  0  0  0  0
  144.7193   71.0642  219.5400 H   0  0  0  0  0  0  0  0  0  0  0  0
  144.1397   70.2032  221.0259 H   0  0  0  0  0  0  0  0  0  0  0  0
  1  2  2  0
  2  3  1  0
  3  4  2  0
  4  5  1  0
  5  6  2  0
  5  7  1  0
  7  8  1  0
  8  9  1  0
  9 10  1  0
 10 11  2  0
 11 12  1  0
 12 13  1  0
 13 14  1  0
 14 15  1  0
 15 16  1  0
 16 17  1  0
 17 18  1  0
 18 19  1  0
 19 20  1  0
 20 21  1  0
 12 22  2  0
 22 23  1  0
 23 24  1  0
 24 25  1  0
 25 26  1  0
 26 27  1  0
 27 28  2  0
 28 29  1  0
 29 30  2  0
 30 31  1  0
 31 32  2  0
 32 33  1  0
 23 34  2  0
  9 35  1  0
  6  1  1  0
 34 10  1  0
 35  4  1  0
 21 16  1  0
 33 24  1  0
 32 27  1  0
  1 36  1  0
  2 37  1  0
  3 38  1  0
  6 39  1  0
  7 40  1  0
  7 41  1  0
  8 42  1  0
  8 43  1  0
 13 44  1  0
 14 45  1  0
 14 46  1  0
 15 47  1  0
 15 48  1  0
 16 49  1  0
 17 50  1  0
 17 51  1  0
 18 52  1  0
 18 53  1  0
 20 54  1  0
 20 55  1  0
 21 56  1  0
 21 57  1  0
 25 58  1  0
 25 59  1  0
 26 60  1  0
 26 61  1  0
 28 62  1  0
 29 63  1  0
 30 64  1  0
 31 65  1  0
 33 66  1  0
 33 67  1  0
 35 68  1  0
 35 69  1  0
M  CHG  1  16   1
M  END
>  <UniqueID>  (12) 
282

>  <SMILES>  (12) 
c1ccc2c(c1)CCN(c1nc(NCC[NH+]3CCOCC3)nc(N3CCc4ccccc4C3)n1)C2

>  <Energy>  (12) 
88.0844221705638

>  <Genealogy>  (12) 
c1ccc2c(c1)CCN(c1nc(NCC[NH+]3CCOCC3)nc(N3CCc4ccccc4C3)n1)C2 (protonated)
c1ccc2c(c1)CCN(c1nc(NCC[NH+]3CCOCC3)nc(N3CCc4ccccc4C3)n1)C2 (3D coordinates assigned)
c1ccc2c(c1)CCN(c1nc(NCC[NH+]3CCOCC3)nc(N3CCc4ccccc4C3)n1)C2 (nonaromatic ring conformer: 88.0844221705638 kcal/mol)

>  <smiles>  (12) 
c1ccc2c(c1)CCN(c1nc(NCCN3CCOCC3)nc(N3CCc4ccccc4C3)n1)C2

>  <score_type>  (12) 
oracle

>  <origin>  (12) 
autodockgpu

>  <m_score__min__energy>  (12) 
-9.0199999999999996

>  <m_primary>  (12) 
energy

>  <meeko>  (12) 
{"free_energy": -9.02, "intermolecular_energy": -10.81, "internal_energy": -1.57, "cluster_size": 2, "cluster_id": 1, "rank_in_cluster": 1}

>  <energy>  (12) 
-8.2

>  <cluster_rmsd>  (12) 
0.0

>  <rmsd>  (12) 
270.83

>  <cluster>  (12) 
4

$$$$
XKJAOWLAVYPRNA-QTZDNFDFNA-O
     RDKit          3D

 69 74  0  0  0  0  0  0  0  0999 V2000
  142.1950   80.6500  222.1950 C   0  0  0  0  0  0  0  0  0  0  0  0
  142.1470   80.0430  223.4520 C   0  0  0  0  0  0  0  0  0  0  0  0
  141.6970   78.7270  223.5780 C   0  0  0  0  0  0  0  0  0  0  0  0
  141.3040   77.9990  222.4420 C   0  0  0  0  0  0  0  0  0  0  0  0
  141.3450   78.6180  221.1670 C   0  0  0  0  0  0  0  0  0  0  0  0
  141.8020   79.9400  221.0560 C   0  0  0  0  0  0  0  0  0  0  0  0
  141.0140   77.8510  219.9070 C   0  0  0  0  0  0  0  0  0  0  0  0
  140.1160   76.6490  220.1910 C   0  0  0  0  0  0  0  0  0  0  0  0
  140.6420   75.9020  221.3330 N   0  0  0  0  0  0  0  0  0  0  0  0
  140.6770   74.4740  221.2880 C   0  0  0  0  0  0  0  0  0  0  0  0
  141.1690   73.8450  220.1910 N   0  0  0  0  0  0  0  0  0  0  0  0
  141.2230   72.4920  220.1500 C   0  0  0  0  0  0  0  0  0  0  0  0
  141.8080   71.8340  219.0210 N   0  0  0  0  0  0  0  0  0  0  0  0
  143.1450   71.2440  219.0660 C   0  0  0  0  0  0  0  0  0  0  0  0
  144.2150   72.3180  218.7900 C   0  0  0  0  0  0  0  0  0  0  0  0
  143.6460   73.6840  218.7020 N   0  0  0  0  0  0  0  0  0  0  0  0
  144.2480   74.5400  219.7440 C   0  0  0  0  0  0  0  0  0  0  0  0
  143.6770   75.9750  219.6810 C   0  0  0  0  0  0  0  0  0  0  0  0
  142.9430   76.2210  218.4960 O   0  0  0  0  0  0  0  0  0  0  0  0
  143.7000   75.8140  217.3770 C   0  0  0  0  0  0  0  0  0  0  0  0
  143.8630   74.2820  217.3600 C   0  0  0  0  0  0  0  0  0  0  0  0
  140.7700   71.7700  221.2070 N   0  0  0  0  0  0  0  0  0  0  0  0
  140.2840   72.3880  222.3120 C   0  0  0  0  0  0  0  0  0  0  0  0
  139.8520   71.6150  223.4490 N   0  0  0  0  0  0  0  0  0  0  0  0
  138.7350   70.6700  223.3400 C   0  0  0  0  0  0  0  0  0  0  0  0
  139.1780   69.3110  223.8670 C   0  0  0  0  0  0  0  0  0  0  0  0
  139.7510   69.4420  225.2540 C   0  0  0  0  0  0  0  0  0  0  0  0
  139.7120   68.3390  226.1230 C   0  0  0  0  0  0  0  0  0  0  0  0
  140.2720   68.4300  227.3980 C   0  0  0  0  0  0  0  0  0  0  0  0
  140.8800   69.6150  227.8140 C   0  0  0  0  0  0  0  0  0  0  0  0
  140.9340   70.7160  226.9580 C   0  0  0  0  0  0  0  0  0  0  0  0
  140.3820   70.6380  225.6700 C   0  0  0  0  0  0  0  0  0  0  0  0
  140.4550   71.8530  224.7690 C   0  0  0  0  0  0  0  0  0  0  0  0
  140.2490   73.7460  222.3530 N   0  0  0  0  0  0  0  0  0  0  0  0
  140.8060   76.5820  222.6210 C   0  0  0  0  0  0  0  0  0  0  0  0
  142.5429   81.6893  222.1007 H   0  0  0  0  0  0  0  0  0  0  0  0
  142.4642   80.6025  224.3443 H   0  0  0  0  0  0  0  0  0  0  0  0
  141.6499   78.2577  224.5718 H   0  0  0  0  0  0  0  0  0  0  0  0
  141.8514   80.4205  220.0677 H   0  0  0  0  0  0  0  0  0  0  0  0
  140.4969   78.5236  219.2068 H   0  0  0  0  0  0  0  0  0  0  0  0
  141.9557   77.4788  219.4773 H   0  0  0  0  0  0  0  0  0  0  0  0
  139.0983   76.9984  220.4196 H   0  0  0  0  0  0  0  0  0  0  0  0
  140.0912   75.9949  219.3070 H   0  0  0  0  0  0  0  0  0  0  0  0
  141.2630   71.7740  218.1340 H   0  0  0  0  0  0  0  0  0  0  0  0
  143.3161   70.8093  220.0618 H   0  0  0  0  0  0  0  0  0  0  0  0
  143.2165   70.4624  218.2953 H   0  0  0  0  0  0  0  0  0  0  0  0
  144.9535   72.2964  219.6049 H   0  0  0  0  0  0  0  0  0  0  0  0
  144.6746   72.0866  217.8178 H   0  0  0  0  0  0  0  0  0  0  0  0
  142.6150   73.6230  218.8880 H   0  0  0  0  0  0  0  0  0  0  0  0
  144.0308   74.1096  220.7327 H   0  0  0  0  0  0  0  0  0  0  0  0
  145.3338   74.5874  219.5741 H   0  0  0  0  0  0  0  0  0  0  0  0
  143.0124   76.1272  220.5442 H   0  0  0  0  0  0  0  0  0  0  0  0
  144.5284   76.6714  219.6942 H   0  0  0  0  0  0  0  0  0  0  0  0
  143.1866   76.1330  216.4579 H   0  0  0  0  0  0  0  0  0  0  0  0
  144.6966   76.2758  217.4364 H   0  0  0  0  0  0  0  0  0  0  0  0
  143.1313   73.8549  216.6584 H   0  0  0  0  0  0  0  0  0  0  0  0
  144.8931   74.0536  217.0490 H   0  0  0  0  0  0  0  0  0  0  0  0
  137.8841   71.0356  223.9335 H   0  0  0  0  0  0  0  0  0  0  0  0
  138.4295   70.5774  222.2873 H   0  0  0  0  0  0  0  0  0  0  0  0
  138.3112   68.6344  223.8963 H   0  0  0  0  0  0  0  0  0  0  0  0
  139.9533   68.9070  223.1994 H   0  0  0  0  0  0  0  0  0  0  0  0
  139.2387   67.4009  225.7976 H   0  0  0  0  0  0  0  0  0  0  0  0
  140.2340   67.5653  228.0768 H   0  0  0  0  0  0  0  0  0  0  0  0
  141.3185   69.6817  228.8206 H   0  0  0  0  0  0  0  0  0  0  0  0
  141.4110   71.6485  227.2941 H   0  0  0  0  0  0  0  0  0  0  0  0
  139.9230   72.6843  225.2547 H   0  0  0  0  0  0  0  0  0  0  0  0
  141.5181   72.0882  224.6122 H   0  0  0  0  0  0  0  0  0  0  0  0
  139.8353   76.6072  223.1377 H   0  0  0  0  0  0  0  0  0  0  0  0
  141.5503   76.0272  223.2111 H   0  0  0  0  0  0  0  0  0  0  0  0
  1  2  2  0
  2  3  1  0
  3  4  2  0
  4  5  1  0
  5  6  2  0
  5  7  1  0
  7  8  1  0
  8  9  1  0
  9 10  1  0
 10 11  2  0
 11 12  1  0
 12 13  1  0
 13 14  1  0
 14 15  1  0
 15 16  1  0
 16 17  1  0
 17 18  1  0
 18 19  1  0
 19 20  1  0
 20 21  1  0
 12 22  2  0
 22 23  1  0
 23 24  1  0
 24 25  1  0
 25 26  1  0
 26 27  1  0
 27 28  2  0
 28 29  1  0
 29 30  2  0
 30 31  1  0
 31 32  2  0
 32 33  1  0
 23 34  2  0
  9 35  1  0
  6  1  1  0
 34 10  1  0
 35  4  1  0
 21 16  1  0
 33 24  1  0
 32 27  1  0
  1 36  1  0
  2 37  1  0
  3 38  1  0
  6 39  1  0
  7 40  1  0
  7 41  1  0
  8 42  1  0
  8 43  1  0
 13 44  1  0
 14 45  1  0
 14 46  1  0
 15 47  1  0
 15 48  1  0
 16 49  1  0
 17 50  1  0
 17 51  1  0
 18 52  1  0
 18 53  1  0
 20 54  1  0
 20 55  1  0
 21 56  1  0
 21 57  1  0
 25 58  1  0
 25 59  1  0
 26 60  1  0
 26 61  1  0
 28 62  1  0
 29 63  1  0
 30 64  1  0
 31 65  1  0
 33 66  1  0
 33 67  1  0
 35 68  1  0
 35 69  1  0
M  CHG  1  16   1
M  END
>  <UniqueID>  (13) 
282

>  <SMILES>  (13) 
c1ccc2c(c1)CCN(c1nc(NCC[NH+]3CCOCC3)nc(N3CCc4ccccc4C3)n1)C2

>  <Energy>  (13) 
88.0844221705638

>  <Genealogy>  (13) 
c1ccc2c(c1)CCN(c1nc(NCC[NH+]3CCOCC3)nc(N3CCc4ccccc4C3)n1)C2 (protonated)
c1ccc2c(c1)CCN(c1nc(NCC[NH+]3CCOCC3)nc(N3CCc4ccccc4C3)n1)C2 (3D coordinates assigned)
c1ccc2c(c1)CCN(c1nc(NCC[NH+]3CCOCC3)nc(N3CCc4ccccc4C3)n1)C2 (nonaromatic ring conformer: 88.0844221705638 kcal/mol)

>  <smiles>  (13) 
c1ccc2c(c1)CCN(c1nc(NCCN3CCOCC3)nc(N3CCc4ccccc4C3)n1)C2

>  <score_type>  (13) 
oracle

>  <origin>  (13) 
autodockgpu

>  <m_score__min__energy>  (13) 
-9.0199999999999996

>  <m_primary>  (13) 
energy

>  <meeko>  (13) 
{"free_energy": -8.73, "intermolecular_energy": -10.52, "internal_energy": -2.38, "cluster_size": 8, "cluster_id": 2, "rank_in_cluster": 5}

>  <energy>  (13) 
-8.19

>  <cluster_rmsd>  (13) 
0.0

>  <rmsd>  (13) 
271.0

>  <cluster>  (13) 
5

$$$$
XKJAOWLAVYPRNA-QTZDNFDFNA-O
     RDKit          3D

 69 74  0  0  0  0  0  0  0  0999 V2000
  139.8170   69.3840  227.7950 C   0  0  0  0  0  0  0  0  0  0  0  0
  140.7150   70.4470  227.9100 C   0  0  0  0  0  0  0  0  0  0  0  0
  140.9900   71.2550  226.8050 C   0  0  0  0  0  0  0  0  0  0  0  0
  140.3570   71.0150  225.5740 C   0  0  0  0  0  0  0  0  0  0  0  0
  139.4520   69.9300  225.4550 C   0  0  0  0  0  0  0  0  0  0  0  0
  139.1830   69.1280  226.5750 C   0  0  0  0  0  0  0  0  0  0  0  0
  138.6820   69.6820  224.1780 C   0  0  0  0  0  0  0  0  0  0  0  0
  139.3850   70.2830  222.9620 C   0  0  0  0  0  0  0  0  0  0  0  0
  139.8000   71.6530  223.2620 N   0  0  0  0  0  0  0  0  0  0  0  0
  139.6120   72.6780  222.2830 C   0  0  0  0  0  0  0  0  0  0  0  0
  138.6630   72.5310  221.3260 N   0  0  0  0  0  0  0  0  0  0  0  0
  138.4670   73.5080  220.4070 C   0  0  0  0  0  0  0  0  0  0  0  0
  137.4160   73.3810  219.4420 N   0  0  0  0  0  0  0  0  0  0  0  0
  136.9380   74.5150  218.6530 C   0  0  0  0  0  0  0  0  0  0  0  0
  136.1310   75.4830  219.5400 C   0  0  0  0  0  0  0  0  0  0  0  0
  136.9320   76.0400  220.6560 N   0  0  0  0  0  0  0  0  0  0  0  0
  136.9200   77.5160  220.5870 C   0  0  0  0  0  0  0  0  0  0  0  0
  137.7470   78.1320  221.7380 C   0  0  0  0  0  0  0  0  0  0  0  0
  138.0820   77.1870  222.7380 O   0  0  0  0  0  0  0  0  0  0  0  0
  136.9250   76.4790  223.1270 C   0  0  0  0  0  0  0  0  0  0  0  0
  136.4240   75.5850  221.9750 C   0  0  0  0  0  0  0  0  0  0  0  0
  139.2360   74.6260  220.4430 N   0  0  0  0  0  0  0  0  0  0  0  0
  140.1820   74.7870  221.4010 C   0  0  0  0  0  0  0  0  0  0  0  0
  140.9580   76.0000  221.4610 N   0  0  0  0  0  0  0  0  0  0  0  0
  141.7720   76.4340  220.3200 C   0  0  0  0  0  0  0  0  0  0  0  0
  141.4240   77.8770  219.9800 C   0  0  0  0  0  0  0  0  0  0  0  0
  141.5430   78.7530  221.2000 C   0  0  0  0  0  0  0  0  0  0  0  0
  141.8080   80.1230  221.0410 C   0  0  0  0  0  0  0  0  0  0  0  0
  141.8830   80.9570  222.1580 C   0  0  0  0  0  0  0  0  0  0  0  0
  141.6890   80.4350  223.4370 C   0  0  0  0  0  0  0  0  0  0  0  0
  141.4170   79.0770  223.6090 C   0  0  0  0  0  0  0  0  0  0  0  0
  141.3300   78.2260  222.4950 C   0  0  0  0  0  0  0  0  0  0  0  0
  141.0360   76.7580  222.7190 C   0  0  0  0  0  0  0  0  0  0  0  0
  140.3600   73.8110  222.3280 N   0  0  0  0  0  0  0  0  0  0  0  0
  140.6940   71.9000  224.3960 C   0  0  0  0  0  0  0  0  0  0  0  0
  139.6076   68.7462  228.6664 H   0  0  0  0  0  0  0  0  0  0  0  0
  141.2068   70.6483  228.8731 H   0  0  0  0  0  0  0  0  0  0  0  0
  141.7065   72.0843  226.8989 H   0  0  0  0  0  0  0  0  0  0  0  0
  138.4702   68.2942  226.4928 H   0  0  0  0  0  0  0  0  0  0  0  0
  138.5801   68.5969  224.0294 H   0  0  0  0  0  0  0  0  0  0  0  0
  137.6978   70.1636  224.2748 H   0  0  0  0  0  0  0  0  0  0  0  0
  140.2700   69.6783  222.7150 H   0  0  0  0  0  0  0  0  0  0  0  0
  138.6931   70.2901  222.1068 H   0  0  0  0  0  0  0  0  0  0  0  0
  136.9750   72.4470  219.2970 H   0  0  0  0  0  0  0  0  0  0  0  0
  137.7998   75.0481  218.2252 H   0  0  0  0  0  0  0  0  0  0  0  0
  136.2878   74.1416  217.8482 H   0  0  0  0  0  0  0  0  0  0  0  0
  135.7709   76.3144  218.9162 H   0  0  0  0  0  0  0  0  0  0  0  0
  135.2988   74.9142  219.9803 H   0  0  0  0  0  0  0  0  0  0  0  0
  137.9240   75.7190  220.5410 H   0  0  0  0  0  0  0  0  0  0  0  0
  137.3491   77.8345  219.6255 H   0  0  0  0  0  0  0  0  0  0  0  0
  135.8800   77.8622  220.6790 H   0  0  0  0  0  0  0  0  0  0  0  0
  138.6763   78.5468  221.3205 H   0  0  0  0  0  0  0  0  0  0  0  0
  137.1298   78.9104  222.2104 H   0  0  0  0  0  0  0  0  0  0  0  0
  137.1620   75.8489  223.9970 H   0  0  0  0  0  0  0  0  0  0  0  0
  136.1365   77.2015  223.3844 H   0  0  0  0  0  0  0  0  0  0  0  0
  136.7659   74.5544  222.1509 H   0  0  0  0  0  0  0  0  0  0  0  0
  135.3257   75.6419  221.9539 H   0  0  0  0  0  0  0  0  0  0  0  0
  142.8384   76.3638  220.5804 H   0  0  0  0  0  0  0  0  0  0  0  0
  141.5679   75.7892  219.4525 H   0  0  0  0  0  0  0  0  0  0  0  0
  142.1133   78.2419  219.2043 H   0  0  0  0  0  0  0  0  0  0  0  0
  140.3867   77.9152  219.6159 H   0  0  0  0  0  0  0  0  0  0  0  0
  141.9568   80.5399  220.0340 H   0  0  0  0  0  0  0  0  0  0  0  0
  142.0956   82.0286  222.0293 H   0  0  0  0  0  0  0  0  0  0  0  0
  141.7507   81.0965  224.3137 H   0  0  0  0  0  0  0  0  0  0  0  0
  141.2702   78.6715  224.6209 H   0  0  0  0  0  0  0  0  0  0  0  0
  141.8360   76.3290  223.3402 H   0  0  0  0  0  0  0  0  0  0  0  0
  140.0562   76.6855  223.2138 H   0  0  0  0  0  0  0  0  0  0  0  0
  141.7297   71.6999  224.0841 H   0  0  0  0  0  0  0  0  0  0  0  0
  140.5727   72.9480  224.7075 H   0  0  0  0  0  0  0  0  0  0  0  0
  1  2  2  0
  2  3  1  0
  3  4  2  0
  4  5  1  0
  5  6  2  0
  5  7  1  0
  7  8  1  0
  8  9  1  0
  9 10  1  0
 10 11  2  0
 11 12  1  0
 12 13  1  0
 13 14  1  0
 14 15  1  0
 15 16  1  0
 16 17  1  0
 17 18  1  0
 18 19  1  0
 19 20  1  0
 20 21  1  0
 12 22  2  0
 22 23  1  0
 23 24  1  0
 24 25  1  0
 25 26  1  0
 26 27  1  0
 27 28  2  0
 28 29  1  0
 29 30  2  0
 30 31  1  0
 31 32  2  0
 32 33  1  0
 23 34  2  0
  9 35  1  0
  6  1  1  0
 34 10  1  0
 35  4  1  0
 21 16  1  0
 33 24  1  0
 32 27  1  0
  1 36  1  0
  2 37  1  0
  3 38  1  0
  6 39  1  0
  7 40  1  0
  7 41  1  0
  8 42  1  0
  8 43  1  0
 13 44  1  0
 14 45  1  0
 14 46  1  0
 15 47  1  0
 15 48  1  0
 16 49  1  0
 17 50  1  0
 17 51  1  0
 18 52  1  0
 18 53  1  0
 20 54  1  0
 20 55  1  0
 21 56  1  0
 21 57  1  0
 25 58  1  0
 25 59  1  0
 26 60  1  0
 26 61  1  0
 28 62  1  0
 29 63  1  0
 30 64  1  0
 31 65  1  0
 33 66  1  0
 33 67  1  0
 35 68  1  0
 35 69  1  0
M  CHG  1  16   1
M  END
>  <UniqueID>  (14) 
282

>  <SMILES>  (14) 
c1ccc2c(c1)CCN(c1nc(NCC[NH+]3CCOCC3)nc(N3CCc4ccccc4C3)n1)C2

>  <Energy>  (14) 
88.0844221705638

>  <Genealogy>  (14) 
c1ccc2c(c1)CCN(c1nc(NCC[NH+]3CCOCC3)nc(N3CCc4ccccc4C3)n1)C2 (protonated)
c1ccc2c(c1)CCN(c1nc(NCC[NH+]3CCOCC3)nc(N3CCc4ccccc4C3)n1)C2 (3D coordinates assigned)
c1ccc2c(c1)CCN(c1nc(NCC[NH+]3CCOCC3)nc(N3CCc4ccccc4C3)n1)C2 (nonaromatic ring conformer: 88.0844221705638 kcal/mol)

>  <smiles>  (14) 
c1ccc2c(c1)CCN(c1nc(NCCN3CCOCC3)nc(N3CCc4ccccc4C3)n1)C2

>  <score_type>  (14) 
oracle

>  <origin>  (14) 
autodockgpu

>  <m_score__min__energy>  (14) 
-9.0199999999999996

>  <m_primary>  (14) 
energy

>  <meeko>  (14) 
{"free_energy": -8.19, "intermolecular_energy": -9.98, "internal_energy": -2.68, "cluster_size": 8, "cluster_id": 5, "rank_in_cluster": 1}

>  <energy>  (14) 
-8.16

>  <cluster_rmsd>  (14) 
0.6

>  <rmsd>  (14) 
271.01

>  <cluster>  (14) 
5

$$$$
XKJAOWLAVYPRNA-QTZDNFDFNA-O
     RDKit          3D

 69 74  0  0  0  0  0  0  0  0999 V2000
  139.6140   69.5800  227.9060 C   0  0  0  0  0  0  0  0  0  0  0  0
  140.5730   70.5930  227.9820 C   0  0  0  0  0  0  0  0  0  0  0  0
  140.9110   71.3250  226.8430 C   0  0  0  0  0  0  0  0  0  0  0  0
  140.2800   71.0610  225.6150 C   0  0  0  0  0  0  0  0  0  0  0  0
  139.3130   70.0280  225.5360 C   0  0  0  0  0  0  0  0  0  0  0  0
  138.9820   69.3020  226.6910 C   0  0  0  0  0  0  0  0  0  0  0  0
  138.5460   69.7620  224.2610 C   0  0  0  0  0  0  0  0  0  0  0  0
  139.3000   70.2570  223.0280 C   0  0  0  0  0  0  0  0  0  0  0  0
  139.7920   71.6130  223.2650 N   0  0  0  0  0  0  0  0  0  0  0  0
  139.6800   72.5960  222.2340 C   0  0  0  0  0  0  0  0  0  0  0  0
  138.8570   72.3760  221.1780 N   0  0  0  0  0  0  0  0  0  0  0  0
  138.7320   73.3120  220.2070 C   0  0  0  0  0  0  0  0  0  0  0  0
  137.8080   73.1070  219.1320 N   0  0  0  0  0  0  0  0  0  0  0  0
  136.5840   73.8940  218.9920 C   0  0  0  0  0  0  0  0  0  0  0  0
  135.8730   74.0260  220.3530 C   0  0  0  0  0  0  0  0  0  0  0  0
  136.6590   74.8070  221.3360 N   0  0  0  0  0  0  0  0  0  0  0  0
  136.8930   76.1690  220.8140 C   0  0  0  0  0  0  0  0  0  0  0  0
  137.7120   77.0140  221.8160 C   0  0  0  0  0  0  0  0  0  0  0  0
  137.8060   76.4110  223.0930 O   0  0  0  0  0  0  0  0  0  0  0  0
  136.5220   76.0210  223.5280 C   0  0  0  0  0  0  0  0  0  0  0  0
  135.9780   74.8740  222.6540 C   0  0  0  0  0  0  0  0  0  0  0  0
  139.4440   74.4650  220.2900 N   0  0  0  0  0  0  0  0  0  0  0  0
  140.2640   74.6990  221.3450 C   0  0  0  0  0  0  0  0  0  0  0  0
  140.9760   75.9470  221.4500 N   0  0  0  0  0  0  0  0  0  0  0  0
  141.8060   76.4380  220.3440 C   0  0  0  0  0  0  0  0  0  0  0  0
  141.4000   77.8680  220.0130 C   0  0  0  0  0  0  0  0  0  0  0  0
  141.4340   78.7290  221.2490 C   0  0  0  0  0  0  0  0  0  0  0  0
  141.6370   80.1130  221.1200 C   0  0  0  0  0  0  0  0  0  0  0  0
  141.6340   80.9310  222.2510 C   0  0  0  0  0  0  0  0  0  0  0  0
  141.4220   80.3790  223.5150 C   0  0  0  0  0  0  0  0  0  0  0  0
  141.2110   79.0080  223.6570 C   0  0  0  0  0  0  0  0  0  0  0  0
  141.2030   78.1720  222.5290 C   0  0  0  0  0  0  0  0  0  0  0  0
  140.9740   76.6880  222.7210 C   0  0  0  0  0  0  0  0  0  0  0  0
  140.3710   73.7630  222.3240 N   0  0  0  0  0  0  0  0  0  0  0  0
  140.6850   71.8640  224.4000 C   0  0  0  0  0  0  0  0  0  0  0  0
  139.3558   69.0000  228.8043 H   0  0  0  0  0  0  0  0  0  0  0  0
  141.0628   70.8141  228.9418 H   0  0  0  0  0  0  0  0  0  0  0  0
  141.6757   72.1132  226.9065 H   0  0  0  0  0  0  0  0  0  0  0  0
  138.2207   68.5097  226.6394 H   0  0  0  0  0  0  0  0  0  0  0  0
  138.3803   68.6788  224.1652 H   0  0  0  0  0  0  0  0  0  0  0  0
  137.5917   70.3060  224.3178 H   0  0  0  0  0  0  0  0  0  0  0  0
  140.1505   69.5891  222.8265 H   0  0  0  0  0  0  0  0  0  0  0  0
  138.6214   70.2610  222.1623 H   0  0  0  0  0  0  0  0  0  0  0  0
  138.0150   72.3700  218.4230 H   0  0  0  0  0  0  0  0  0  0  0  0
  136.8382   74.8963  218.6169 H   0  0  0  0  0  0  0  0  0  0  0  0
  135.9114   73.3859  218.2853 H   0  0  0  0  0  0  0  0  0  0  0  0
  134.9063   74.5273  220.1977 H   0  0  0  0  0  0  0  0  0  0  0  0
  135.7452   73.0123  220.7604 H   0  0  0  0  0  0  0  0  0  0  0  0
  137.5920   74.3420  221.4560 H   0  0  0  0  0  0  0  0  0  0  0  0
  137.4457   76.1005  219.8654 H   0  0  0  0  0  0  0  0  0  0  0  0
  135.9192   76.6565  220.6588 H   0  0  0  0  0  0  0  0  0  0  0  0
  138.7275   77.1482  221.4150 H   0  0  0  0  0  0  0  0  0  0  0  0
  137.1925   77.9755  221.9410 H   0  0  0  0  0  0  0  0  0  0  0  0
  136.5818   75.6822  224.5728 H   0  0  0  0  0  0  0  0  0  0  0  0
  135.8429   76.8824  223.4454 H   0  0  0  0  0  0  0  0  0  0  0  0
  136.1321   73.9214  223.1821 H   0  0  0  0  0  0  0  0  0  0  0  0
  134.9090   75.0614  222.4747 H   0  0  0  0  0  0  0  0  0  0  0  0
  142.8652   76.4149  220.6399 H   0  0  0  0  0  0  0  0  0  0  0  0
  141.6627   75.7982  219.4607 H   0  0  0  0  0  0  0  0  0  0  0  0
  142.0970   78.2782  219.2675 H   0  0  0  0  0  0  0  0  0  0  0  0
  140.3752   77.8620  219.6133 H   0  0  0  0  0  0  0  0  0  0  0  0
  141.7987   80.5533  220.1250 H   0  0  0  0  0  0  0  0  0  0  0  0
  141.7992   82.0134  222.1457 H   0  0  0  0  0  0  0  0  0  0  0  0
  141.4213   81.0281  224.4030 H   0  0  0  0  0  0  0  0  0  0  0  0
  141.0501   78.5795  224.6572 H   0  0  0  0  0  0  0  0  0  0  0  0
  141.7726   76.2883  223.3633 H   0  0  0  0  0  0  0  0  0  0  0  0
  139.9826   76.5601  223.1801 H   0  0  0  0  0  0  0  0  0  0  0  0
  141.7108   71.5874  224.1151 H   0  0  0  0  0  0  0  0  0  0  0  0
  140.6229   72.9318  224.6570 H   0  0  0  0  0  0  0  0  0  0  0  0
  1  2  2  0
  2  3  1  0
  3  4  2  0
  4  5  1  0
  5  6  2  0
  5  7  1  0
  7  8  1  0
  8  9  1  0
  9 10  1  0
 10 11  2  0
 11 12  1  0
 12 13  1  0
 13 14  1  0
 14 15  1  0
 15 16  1  0
 16 17  1  0
 17 18  1  0
 18 19  1  0
 19 20  1  0
 20 21  1  0
 12 22  2  0
 22 23  1  0
 23 24  1  0
 24 25  1  0
 25 26  1  0
 26 27  1  0
 27 28  2  0
 28 29  1  0
 29 30  2  0
 30 31  1  0
 31 32  2  0
 32 33  1  0
 23 34  2  0
  9 35  1  0
  6  1  1  0
 34 10  1  0
 35  4  1  0
 21 16  1  0
 33 24  1  0
 32 27  1  0
  1 36  1  0
  2 37  1  0
  3 38  1  0
  6 39  1  0
  7 40  1  0
  7 41  1  0
  8 42  1  0
  8 43  1  0
 13 44  1  0
 14 45  1  0
 14 46  1  0
 15 47  1  0
 15 48  1  0
 16 49  1  0
 17 50  1  0
 17 51  1  0
 18 52  1  0
 18 53  1  0
 20 54  1  0
 20 55  1  0
 21 56  1  0
 21 57  1  0
 25 58  1  0
 25 59  1  0
 26 60  1  0
 26 61  1  0
 28 62  1  0
 29 63  1  0
 30 64  1  0
 31 65  1  0
 33 66  1  0
 33 67  1  0
 35 68  1  0
 35 69  1  0
M  CHG  1  16   1
M  END
>  <UniqueID>  (15) 
282

>  <SMILES>  (15) 
c1ccc2c(c1)CCN(c1nc(NCC[NH+]3CCOCC3)nc(N3CCc4ccccc4C3)n1)C2

>  <Energy>  (15) 
88.0844221705638

>  <Genealogy>  (15) 
c1ccc2c(c1)CCN(c1nc(NCC[NH+]3CCOCC3)nc(N3CCc4ccccc4C3)n1)C2 (protonated)
c1ccc2c(c1)CCN(c1nc(NCC[NH+]3CCOCC3)nc(N3CCc4ccccc4C3)n1)C2 (3D coordinates assigned)
c1ccc2c(c1)CCN(c1nc(NCC[NH+]3CCOCC3)nc(N3CCc4ccccc4C3)n1)C2 (nonaromatic ring conformer: 88.0844221705638 kcal/mol)

>  <smiles>  (15) 
c1ccc2c(c1)CCN(c1nc(NCCN3CCOCC3)nc(N3CCc4ccccc4C3)n1)C2

>  <score_type>  (15) 
oracle

>  <origin>  (15) 
autodockgpu

>  <m_score__min__energy>  (15) 
-9.0199999999999996

>  <m_primary>  (15) 
energy

>  <meeko>  (15) 
{"free_energy": -8.12, "intermolecular_energy": -9.91, "internal_energy": -2.76, "cluster_size": 8, "cluster_id": 5, "rank_in_cluster": 3}

>  <energy>  (15) 
-8.12

>  <cluster_rmsd>  (15) 
0.68

>  <rmsd>  (15) 
270.98

>  <cluster>  (15) 
5

$$$$
XKJAOWLAVYPRNA-QTZDNFDFNA-O
     RDKit          3D

 69 74  0  0  0  0  0  0  0  0999 V2000
  140.2760   69.7730  228.3470 C   0  0  0  0  0  0  0  0  0  0  0  0
  141.0280   70.9480  228.2700 C   0  0  0  0  0  0  0  0  0  0  0  0
  141.1560   71.6200  227.0530 C   0  0  0  0  0  0  0  0  0  0  0  0
  140.5180   71.1300  225.9000 C   0  0  0  0  0  0  0  0  0  0  0  0
  139.7620   69.9330  225.9770 C   0  0  0  0  0  0  0  0  0  0  0  0
  139.6410   69.2700  227.2080 C   0  0  0  0  0  0  0  0  0  0  0  0
  138.9880   69.4120  224.7870 C   0  0  0  0  0  0  0  0  0  0  0  0
  139.5640   69.9190  223.4670 C   0  0  0  0  0  0  0  0  0  0  0  0
  139.8020   71.3590  223.5550 N   0  0  0  0  0  0  0  0  0  0  0  0
  139.4470   72.2040  222.4580 C   0  0  0  0  0  0  0  0  0  0  0  0
  138.9130   71.6620  221.3350 N   0  0  0  0  0  0  0  0  0  0  0  0
  138.5570   72.4590  220.2990 C   0  0  0  0  0  0  0  0  0  0  0  0
  137.9270   71.8920  219.1440 N   0  0  0  0  0  0  0  0  0  0  0  0
  136.5740   71.3410  219.1830 C   0  0  0  0  0  0  0  0  0  0  0  0
  135.6370   72.2740  219.9750 C   0  0  0  0  0  0  0  0  0  0  0  0
  136.0070   72.3760  221.4060 N   0  0  0  0  0  0  0  0  0  0  0  0
  135.1320   73.3610  222.0750 C   0  0  0  0  0  0  0  0  0  0  0  0
  135.4900   73.4930  223.5730 C   0  0  0  0  0  0  0  0  0  0  0  0
  136.3540   72.4660  224.0230 O   0  0  0  0  0  0  0  0  0  0  0  0
  135.8470   71.2120  223.6240 C   0  0  0  0  0  0  0  0  0  0  0  0
  135.9140   71.0620  222.0910 C   0  0  0  0  0  0  0  0  0  0  0  0
  138.7490   73.8000  220.3870 N   0  0  0  0  0  0  0  0  0  0  0  0
  139.2750   74.3530  221.5080 C   0  0  0  0  0  0  0  0  0  0  0  0
  139.4290   75.7820  221.6120 N   0  0  0  0  0  0  0  0  0  0  0  0
  138.3290   76.6880  221.2620 C   0  0  0  0  0  0  0  0  0  0  0  0
  138.0900   77.6510  222.4180 C   0  0  0  0  0  0  0  0  0  0  0  0
  139.3710   78.3450  222.8030 C   0  0  0  0  0  0  0  0  0  0  0  0
  139.3130   79.6060  223.4180 C   0  0  0  0  0  0  0  0  0  0  0  0
  140.4870   80.2470  223.8170 C   0  0  0  0  0  0  0  0  0  0  0  0
  141.7240   79.6340  223.6130 C   0  0  0  0  0  0  0  0  0  0  0  0
  141.7960   78.3770  223.0110 C   0  0  0  0  0  0  0  0  0  0  0  0
  140.6230   77.7160  222.6110 C   0  0  0  0  0  0  0  0  0  0  0  0
  140.7390   76.3550  221.9580 C   0  0  0  0  0  0  0  0  0  0  0  0
  139.6140   73.5490  222.5490 N   0  0  0  0  0  0  0  0  0  0  0  0
  140.6940   71.8750  224.5970 C   0  0  0  0  0  0  0  0  0  0  0  0
  140.1835   69.2426  229.3062 H   0  0  0  0  0  0  0  0  0  0  0  0
  141.5203   71.3445  229.1703 H   0  0  0  0  0  0  0  0  0  0  0  0
  141.7594   72.5380  226.9959 H   0  0  0  0  0  0  0  0  0  0  0  0
  139.0431   68.3493  227.2768 H   0  0  0  0  0  0  0  0  0  0  0  0
  139.0251   68.3126  224.7923 H   0  0  0  0  0  0  0  0  0  0  0  0
  137.9526   69.7742  224.8687 H   0  0  0  0  0  0  0  0  0  0  0  0
  140.5133   69.4033  223.2600 H   0  0  0  0  0  0  0  0  0  0  0  0
  138.8495   69.7164  222.6556 H   0  0  0  0  0  0  0  0  0  0  0  0
  138.4530   71.8700  218.2430 H   0  0  0  0  0  0  0  0  0  0  0  0
  136.1961   71.2348  218.1554 H   0  0  0  0  0  0  0  0  0  0  0  0
  136.6025   70.3593  219.6784 H   0  0  0  0  0  0  0  0  0  0  0  0
  135.6802   73.2781  219.5280 H   0  0  0  0  0  0  0  0  0  0  0  0
  134.6238   71.8488  219.9235 H   0  0  0  0  0  0  0  0  0  0  0  0
  136.9940   72.7260  221.4670 H   0  0  0  0  0  0  0  0  0  0  0  0
  135.2544   74.3399  221.5883 H   0  0  0  0  0  0  0  0  0  0  0  0
  134.0904   73.0172  221.9927 H   0  0  0  0  0  0  0  0  0  0  0  0
  135.9841   74.4628  223.7322 H   0  0  0  0  0  0  0  0  0  0  0  0
  134.5541   73.4130  224.1455 H   0  0  0  0  0  0  0  0  0  0  0  0
  136.4442   70.4153  224.0916 H   0  0  0  0  0  0  0  0  0  0  0  0
  134.7966   71.1369  223.9419 H   0  0  0  0  0  0  0  0  0  0  0  0
  136.7993   70.4629  221.8314 H   0  0  0  0  0  0  0  0  0  0  0  0
  134.9883   70.5703  221.7574 H   0  0  0  0  0  0  0  0  0  0  0  0
  138.5931   77.2561  220.3578 H   0  0  0  0  0  0  0  0  0  0  0  0
  137.4158   76.1056  221.0697 H   0  0  0  0  0  0  0  0  0  0  0  0
  137.3481   78.4040  222.1138 H   0  0  0  0  0  0  0  0  0  0  0  0
  137.7209   77.0815  223.2837 H   0  0  0  0  0  0  0  0  0  0  0  0
  138.3396   80.0901  223.5858 H   0  0  0  0  0  0  0  0  0  0  0  0
  140.4370   81.2373  224.2932 H   0  0  0  0  0  0  0  0  0  0  0  0
  142.6464   80.1439  223.9281 H   0  0  0  0  0  0  0  0  0  0  0  0
  142.7750   77.9022  222.8492 H   0  0  0  0  0  0  0  0  0  0  0  0
  141.3343   76.4547  221.0384 H   0  0  0  0  0  0  0  0  0  0  0  0
  141.2194   75.6781  222.6798 H   0  0  0  0  0  0  0  0  0  0  0  0
  141.7358   71.7655  224.2613 H   0  0  0  0  0  0  0  0  0  0  0  0
  140.4455   72.9326  224.7695 H   0  0  0  0  0  0  0  0  0  0  0  0
  1  2  2  0
  2  3  1  0
  3  4  2  0
  4  5  1  0
  5  6  2  0
  5  7  1  0
  7  8  1  0
  8  9  1  0
  9 10  1  0
 10 11  2  0
 11 12  1  0
 12 13  1  0
 13 14  1  0
 14 15  1  0
 15 16  1  0
 16 17  1  0
 17 18  1  0
 18 19  1  0
 19 20  1  0
 20 21  1  0
 12 22  2  0
 22 23  1  0
 23 24  1  0
 24 25  1  0
 25 26  1  0
 26 27  1  0
 27 28  2  0
 28 29  1  0
 29 30  2  0
 30 31  1  0
 31 32  2  0
 32 33  1  0
 23 34  2  0
  9 35  1  0
  6  1  1  0
 34 10  1  0
 35  4  1  0
 21 16  1  0
 33 24  1  0
 32 27  1  0
  1 36  1  0
  2 37  1  0
  3 38  1  0
  6 39  1  0
  7 40  1  0
  7 41  1  0
  8 42  1  0
  8 43  1  0
 13 44  1  0
 14 45  1  0
 14 46  1  0
 15 47  1  0
 15 48  1  0
 16 49  1  0
 17 50  1  0
 17 51  1  0
 18 52  1  0
 18 53  1  0
 20 54  1  0
 20 55  1  0
 21 56  1  0
 21 57  1  0
 25 58  1  0
 25 59  1  0
 26 60  1  0
 26 61  1  0
 28 62  1  0
 29 63  1  0
 30 64  1  0
 31 65  1  0
 33 66  1  0
 33 67  1  0
 35 68  1  0
 35 69  1  0
M  CHG  1  16   1
M  END
>  <UniqueID>  (16) 
282

>  <SMILES>  (16) 
c1ccc2c(c1)CCN(c1nc(NCC[NH+]3CCOCC3)nc(N3CCc4ccccc4C3)n1)C2

>  <Energy>  (16) 
88.0844221705638

>  <Genealogy>  (16) 
c1ccc2c(c1)CCN(c1nc(NCC[NH+]3CCOCC3)nc(N3CCc4ccccc4C3)n1)C2 (protonated)
c1ccc2c(c1)CCN(c1nc(NCC[NH+]3CCOCC3)nc(N3CCc4ccccc4C3)n1)C2 (3D coordinates assigned)
c1ccc2c(c1)CCN(c1nc(NCC[NH+]3CCOCC3)nc(N3CCc4ccccc4C3)n1)C2 (nonaromatic ring conformer: 88.0844221705638 kcal/mol)

>  <smiles>  (16) 
c1ccc2c(c1)CCN(c1nc(NCCN3CCOCC3)nc(N3CCc4ccccc4C3)n1)C2

>  <score_type>  (16) 
oracle

>  <origin>  (16) 
autodockgpu

>  <m_score__min__energy>  (16) 
-9.0199999999999996

>  <m_primary>  (16) 
energy

>  <meeko>  (16) 
{"free_energy": -7.82, "intermolecular_energy": -9.61, "internal_energy": -2.75, "cluster_size": 8, "cluster_id": 5, "rank_in_cluster": 8}

>  <energy>  (16) 
-8.12

>  <cluster_rmsd>  (16) 
0.54

>  <rmsd>  (16) 
271.07

>  <cluster>  (16) 
5

$$$$
XKJAOWLAVYPRNA-QTZDNFDFNA-O
     RDKit          3D

 69 74  0  0  0  0  0  0  0  0999 V2000
  142.0660   80.6830  222.2310 C   0  0  0  0  0  0  0  0  0  0  0  0
  142.1120   80.0590  223.4800 C   0  0  0  0  0  0  0  0  0  0  0  0
  141.6810   78.7390  223.6200 C   0  0  0  0  0  0  0  0  0  0  0  0
  141.2120   78.0230  222.5050 C   0  0  0  0  0  0  0  0  0  0  0  0
  141.1580   78.6590  221.2400 C   0  0  0  0  0  0  0  0  0  0  0  0
  141.5970   79.9860  221.1150 C   0  0  0  0  0  0  0  0  0  0  0  0
  140.7420   77.9070  219.9970 C   0  0  0  0  0  0  0  0  0  0  0  0
  139.8740   76.6940  220.3280 C   0  0  0  0  0  0  0  0  0  0  0  0
  140.4850   75.9360  221.4190 N   0  0  0  0  0  0  0  0  0  0  0  0
  140.5270   74.5090  221.3520 C   0  0  0  0  0  0  0  0  0  0  0  0
  141.0170   73.8990  220.2440 N   0  0  0  0  0  0  0  0  0  0  0  0
  141.0760   72.5470  220.1810 C   0  0  0  0  0  0  0  0  0  0  0  0
  141.6610   71.9090  219.0400 N   0  0  0  0  0  0  0  0  0  0  0  0
  143.0520   71.4590  219.0230 C   0  0  0  0  0  0  0  0  0  0  0  0
  143.9870   72.5890  219.4970 C   0  0  0  0  0  0  0  0  0  0  0  0
  143.4850   73.9360  219.1380 N   0  0  0  0  0  0  0  0  0  0  0  0
  144.0720   74.9420  220.0470 C   0  0  0  0  0  0  0  0  0  0  0  0
  143.5700   76.3620  219.7010 C   0  0  0  0  0  0  0  0  0  0  0  0
  142.9080   76.4190  218.4510 O   0  0  0  0  0  0  0  0  0  0  0  0
  143.7020   75.7940  217.4660 C   0  0  0  0  0  0  0  0  0  0  0  0
  143.7960   74.2780  217.7270 C   0  0  0  0  0  0  0  0  0  0  0  0
  140.6300   71.8070  221.2290 N   0  0  0  0  0  0  0  0  0  0  0  0
  140.1450   72.4060  222.3450 C   0  0  0  0  0  0  0  0  0  0  0  0
  139.7210   71.6140  223.4700 N   0  0  0  0  0  0  0  0  0  0  0  0
  138.5130   70.7840  223.3980 C   0  0  0  0  0  0  0  0  0  0  0  0
  138.8580   69.3630  223.8240 C   0  0  0  0  0  0  0  0  0  0  0  0
  139.5350   69.3620  225.1700 C   0  0  0  0  0  0  0  0  0  0  0  0
  139.4500   68.2210  225.9830 C   0  0  0  0  0  0  0  0  0  0  0  0
  140.1030   68.1880  227.2170 C   0  0  0  0  0  0  0  0  0  0  0  0
  140.8500   69.2860  227.6440 C   0  0  0  0  0  0  0  0  0  0  0  0
  140.9500   70.4240  226.8420 C   0  0  0  0  0  0  0  0  0  0  0  0
  140.3060   70.4690  225.5950 C   0  0  0  0  0  0  0  0  0  0  0  0
  140.4340   71.7210  224.7530 C   0  0  0  0  0  0  0  0  0  0  0  0
  140.1050   73.7620  222.4060 N   0  0  0  0  0  0  0  0  0  0  0  0
  140.7380   76.6000  222.7000 C   0  0  0  0  0  0  0  0  0  0  0  0
  142.3999   81.7258  222.1261 H   0  0  0  0  0  0  0  0  0  0  0  0
  142.4887   80.6091  224.3549 H   0  0  0  0  0  0  0  0  0  0  0  0
  141.7085   78.2564  224.6081 H   0  0  0  0  0  0  0  0  0  0  0  0
  141.5716   80.4801  220.1326 H   0  0  0  0  0  0  0  0  0  0  0  0
  140.1715   78.5852  219.3454 H   0  0  0  0  0  0  0  0  0  0  0  0
  141.6527   77.5476  219.4955 H   0  0  0  0  0  0  0  0  0  0  0  0
  138.8730   77.0327  220.6334 H   0  0  0  0  0  0  0  0  0  0  0  0
  139.7903   76.0514  219.4391 H   0  0  0  0  0  0  0  0  0  0  0  0
  141.0750   71.7610  218.1900 H   0  0  0  0  0  0  0  0  0  0  0  0
  143.1612   70.5931  219.6925 H   0  0  0  0  0  0  0  0  0  0  0  0
  143.3240   71.1779  217.9949 H   0  0  0  0  0  0  0  0  0  0  0  0
  144.0838   72.5298  220.5911 H   0  0  0  0  0  0  0  0  0  0  0  0
  144.9557   72.4510  218.9944 H   0  0  0  0  0  0  0  0  0  0  0  0
  142.4450   73.9460  219.2720 H   0  0  0  0  0  0  0  0  0  0  0  0
  143.7863   74.7018  221.0817 H   0  0  0  0  0  0  0  0  0  0  0  0
  145.1660   74.9201  219.9339 H   0  0  0  0  0  0  0  0  0  0  0  0
  142.8705   76.6884  220.4847 H   0  0  0  0  0  0  0  0  0  0  0  0
  144.4499   77.0194  219.6408 H   0  0  0  0  0  0  0  0  0  0  0  0
  143.2510   75.9633  216.4771 H   0  0  0  0  0  0  0  0  0  0  0  0
  144.7141   76.2234  217.5011 H   0  0  0  0  0  0  0  0  0  0  0  0
  143.0818   73.7597  217.0703 H   0  0  0  0  0  0  0  0  0  0  0  0
  144.8289   73.9612  217.5204 H   0  0  0  0  0  0  0  0  0  0  0  0
  137.7442   71.1935  224.0698 H   0  0  0  0  0  0  0  0  0  0  0  0
  138.1282   70.7786  222.3675 H   0  0  0  0  0  0  0  0  0  0  0  0
  137.9340   68.7692  223.8838 H   0  0  0  0  0  0  0  0  0  0  0  0
  139.5434   68.9271  223.0822 H   0  0  0  0  0  0  0  0  0  0  0  0
  138.8674   67.3504  225.6473 H   0  0  0  0  0  0  0  0  0  0  0  0
  140.0281   67.2942  227.8537 H   0  0  0  0  0  0  0  0  0  0  0  0
  141.3624   69.2549  228.6169 H   0  0  0  0  0  0  0  0  0  0  0  0
  141.5354   71.2886  227.1880 H   0  0  0  0  0  0  0  0  0  0  0  0
  140.0191   72.5693  225.3172 H   0  0  0  0  0  0  0  0  0  0  0  0
  141.5015   71.8659  224.5305 H   0  0  0  0  0  0  0  0  0  0  0  0
  139.8075   76.6108  223.2865 H   0  0  0  0  0  0  0  0  0  0  0  0
  141.5274   76.0433  223.2263 H   0  0  0  0  0  0  0  0  0  0  0  0
  1  2  2  0
  2  3  1  0
  3  4  2  0
  4  5  1  0
  5  6  2  0
  5  7  1  0
  7  8  1  0
  8  9  1  0
  9 10  1  0
 10 11  2  0
 11 12  1  0
 12 13  1  0
 13 14  1  0
 14 15  1  0
 15 16  1  0
 16 17  1  0
 17 18  1  0
 18 19  1  0
 19 20  1  0
 20 21  1  0
 12 22  2  0
 22 23  1  0
 23 24  1  0
 24 25  1  0
 25 26  1  0
 26 27  1  0
 27 28  2  0
 28 29  1  0
 29 30  2  0
 30 31  1  0
 31 32  2  0
 32 33  1  0
 23 34  2  0
  9 35  1  0
  6  1  1  0
 34 10  1  0
 35  4  1  0
 21 16  1  0
 33 24  1  0
 32 27  1  0
  1 36  1  0
  2 37  1  0
  3 38  1  0
  6 39  1  0
  7 40  1  0
  7 41  1  0
  8 42  1  0
  8 43  1  0
 13 44  1  0
 14 45  1  0
 14 46  1  0
 15 47  1  0
 15 48  1  0
 16 49  1  0
 17 50  1  0
 17 51  1  0
 18 52  1  0
 18 53  1  0
 20 54  1  0
 20 55  1  0
 21 56  1  0
 21 57  1  0
 25 58  1  0
 25 59  1  0
 26 60  1  0
 26 61  1  0
 28 62  1  0
 29 63  1  0
 30 64  1  0
 31 65  1  0
 33 66  1  0
 33 67  1  0
 35 68  1  0
 35 69  1  0
M  CHG  1  16   1
M  END
>  <UniqueID>  (17) 
282

>  <SMILES>  (17) 
c1ccc2c(c1)CCN(c1nc(NCC[NH+]3CCOCC3)nc(N3CCc4ccccc4C3)n1)C2

>  <Energy>  (17) 
88.0844221705638

>  <Genealogy>  (17) 
c1ccc2c(c1)CCN(c1nc(NCC[NH+]3CCOCC3)nc(N3CCc4ccccc4C3)n1)C2 (protonated)
c1ccc2c(c1)CCN(c1nc(NCC[NH+]3CCOCC3)nc(N3CCc4ccccc4C3)n1)C2 (3D coordinates assigned)
c1ccc2c(c1)CCN(c1nc(NCC[NH+]3CCOCC3)nc(N3CCc4ccccc4C3)n1)C2 (nonaromatic ring conformer: 88.0844221705638 kcal/mol)

>  <smiles>  (17) 
c1ccc2c(c1)CCN(c1nc(NCCN3CCOCC3)nc(N3CCc4ccccc4C3)n1)C2

>  <score_type>  (17) 
oracle

>  <origin>  (17) 
autodockgpu

>  <m_score__min__energy>  (17) 
-9.0199999999999996

>  <m_primary>  (17) 
energy

>  <meeko>  (17) 
{"free_energy": -8.73, "intermolecular_energy": -10.52, "internal_energy": -2.41, "cluster_size": 8, "cluster_id": 2, "rank_in_cluster": 6}

>  <energy>  (17) 
-8.12

>  <cluster_rmsd>  (17) 
1.68

>  <rmsd>  (17) 
270.83

>  <cluster>  (17) 
5

$$$$
XKJAOWLAVYPRNA-QTZDNFDFNA-O
     RDKit          3D

 69 74  0  0  0  0  0  0  0  0999 V2000
  139.9400   69.2130  227.6700 C   0  0  0  0  0  0  0  0  0  0  0  0
  140.8240   70.2870  227.8020 C   0  0  0  0  0  0  0  0  0  0  0  0
  141.0550   71.1410  226.7230 C   0  0  0  0  0  0  0  0  0  0  0  0
  140.3920   70.9370  225.5010 C   0  0  0  0  0  0  0  0  0  0  0  0
  139.5020   69.8430  225.3630 C   0  0  0  0  0  0  0  0  0  0  0  0
  139.2780   68.9940  226.4590 C   0  0  0  0  0  0  0  0  0  0  0  0
  138.7020   69.6310  224.0990 C   0  0  0  0  0  0  0  0  0  0  0  0
  139.3620   70.2900  222.8900 C   0  0  0  0  0  0  0  0  0  0  0  0
  139.7620   71.6550  223.2310 N   0  0  0  0  0  0  0  0  0  0  0  0
  139.5310   72.7130  222.2990 C   0  0  0  0  0  0  0  0  0  0  0  0
  138.5050   72.6230  221.4160 N   0  0  0  0  0  0  0  0  0  0  0  0
  138.2690   73.6320  220.5430 C   0  0  0  0  0  0  0  0  0  0  0  0
  137.1410   73.5660  219.6620 N   0  0  0  0  0  0  0  0  0  0  0  0
  135.7880   73.9030  220.0970 C   0  0  0  0  0  0  0  0  0  0  0  0
  135.8300   74.6810  221.4270 C   0  0  0  0  0  0  0  0  0  0  0  0
  136.6820   75.8920  221.3540 N   0  0  0  0  0  0  0  0  0  0  0  0
  135.8900   77.0250  220.8330 C   0  0  0  0  0  0  0  0  0  0  0  0
  136.7480   78.3070  220.7440 C   0  0  0  0  0  0  0  0  0  0  0  0
  137.9810   78.1890  221.4300 O   0  0  0  0  0  0  0  0  0  0  0  0
  137.7540   77.6950  222.7310 C   0  0  0  0  0  0  0  0  0  0  0  0
  137.2580   76.2360  222.6780 C   0  0  0  0  0  0  0  0  0  0  0  0
  139.0730   74.7250  220.5480 N   0  0  0  0  0  0  0  0  0  0  0  0
  140.0970   74.8300  221.4310 C   0  0  0  0  0  0  0  0  0  0  0  0
  140.9140   76.0160  221.4620 N   0  0  0  0  0  0  0  0  0  0  0  0
  141.7130   76.4140  220.2970 C   0  0  0  0  0  0  0  0  0  0  0  0
  141.4050   77.8660  219.9540 C   0  0  0  0  0  0  0  0  0  0  0  0
  141.5830   78.7460  221.1630 C   0  0  0  0  0  0  0  0  0  0  0  0
  141.8890   80.1050  220.9870 C   0  0  0  0  0  0  0  0  0  0  0  0
  142.0200   80.9450  222.0940 C   0  0  0  0  0  0  0  0  0  0  0  0
  141.8410   80.4390  223.3820 C   0  0  0  0  0  0  0  0  0  0  0  0
  141.5280   79.0920  223.5720 C   0  0  0  0  0  0  0  0  0  0  0  0
  141.3850   78.2370  222.4680 C   0  0  0  0  0  0  0  0  0  0  0  0
  141.0480   76.7810  222.7110 C   0  0  0  0  0  0  0  0  0  0  0  0
  140.3160   73.8220  222.3150 N   0  0  0  0  0  0  0  0  0  0  0  0
  140.6820   71.8740  224.3490 C   0  0  0  0  0  0  0  0  0  0  0  0
  139.7648   68.5385  228.5211 H   0  0  0  0  0  0  0  0  0  0  0  0
  141.3389   70.4596  228.7586 H   0  0  0  0  0  0  0  0  0  0  0  0
  141.7600   71.9786  226.8296 H   0  0  0  0  0  0  0  0  0  0  0  0
  138.5772   68.1515  226.3636 H   0  0  0  0  0  0  0  0  0  0  0  0
  138.6136   68.5508  223.9111 H   0  0  0  0  0  0  0  0  0  0  0  0
  137.7129   70.0912  224.2404 H   0  0  0  0  0  0  0  0  0  0  0  0
  140.2502   69.7109  222.5971 H   0  0  0  0  0  0  0  0  0  0  0  0
  138.6474   70.3174  222.0542 H   0  0  0  0  0  0  0  0  0  0  0  0
  137.2910   73.2650  218.6740 H   0  0  0  0  0  0  0  0  0  0  0  0
  135.3043   74.5241  219.3287 H   0  0  0  0  0  0  0  0  0  0  0  0
  135.2185   72.9736  220.2448 H   0  0  0  0  0  0  0  0  0  0  0  0
  134.8061   74.9862  221.6888 H   0  0  0  0  0  0  0  0  0  0  0  0
  136.2629   74.0152  222.1882 H   0  0  0  0  0  0  0  0  0  0  0  0
  137.4630   75.7050  220.6790 H   0  0  0  0  0  0  0  0  0  0  0  0
  135.5169   76.7717  219.8297 H   0  0  0  0  0  0  0  0  0  0  0  0
  135.0518   77.2117  221.5205 H   0  0  0  0  0  0  0  0  0  0  0  0
  136.9539   78.5196  219.6846 H   0  0  0  0  0  0  0  0  0  0  0  0
  136.1801   79.1201  221.2197 H   0  0  0  0  0  0  0  0  0  0  0  0
  138.6928   77.7372  223.3028 H   0  0  0  0  0  0  0  0  0  0  0  0
  136.9850   78.3138  223.2164 H   0  0  0  0  0  0  0  0  0  0  0  0
  138.1057   75.5652  222.8816 H   0  0  0  0  0  0  0  0  0  0  0  0
  136.4670   76.1185  223.4334 H   0  0  0  0  0  0  0  0  0  0  0  0
  142.7828   76.3097  220.5310 H   0  0  0  0  0  0  0  0  0  0  0  0
  141.4652   75.7702  219.4402 H   0  0  0  0  0  0  0  0  0  0  0  0
  142.0868   78.2020  219.1589 H   0  0  0  0  0  0  0  0  0  0  0  0
  140.3609   77.9363  219.6151 H   0  0  0  0  0  0  0  0  0  0  0  0
  142.0260   80.5091  219.9731 H   0  0  0  0  0  0  0  0  0  0  0  0
  142.2648   82.0078  221.9508 H   0  0  0  0  0  0  0  0  0  0  0  0
  141.9470   81.1045  224.2514 H   0  0  0  0  0  0  0  0  0  0  0  0
  141.3929   78.6991  224.5905 H   0  0  0  0  0  0  0  0  0  0  0  0
  141.8484   76.3303  223.3162 H   0  0  0  0  0  0  0  0  0  0  0  0
  140.0786   76.7452  223.2296 H   0  0  0  0  0  0  0  0  0  0  0  0
  141.7121   71.7049  224.0020 H   0  0  0  0  0  0  0  0  0  0  0  0
  140.5516   72.9068  224.7045 H   0  0  0  0  0  0  0  0  0  0  0  0
  1  2  2  0
  2  3  1  0
  3  4  2  0
  4  5  1  0
  5  6  2  0
  5  7  1  0
  7  8  1  0
  8  9  1  0
  9 10  1  0
 10 11  2  0
 11 12  1  0
 12 13  1  0
 13 14  1  0
 14 15  1  0
 15 16  1  0
 16 17  1  0
 17 18  1  0
 18 19  1  0
 19 20  1  0
 20 21  1  0
 12 22  2  0
 22 23  1  0
 23 24  1  0
 24 25  1  0
 25 26  1  0
 26 27  1  0
 27 28  2  0
 28 29  1  0
 29 30  2  0
 30 31  1  0
 31 32  2  0
 32 33  1  0
 23 34  2  0
  9 35  1  0
  6  1  1  0
 34 10  1  0
 35  4  1  0
 21 16  1  0
 33 24  1  0
 32 27  1  0
  1 36  1  0
  2 37  1  0
  3 38  1  0
  6 39  1  0
  7 40  1  0
  7 41  1  0
  8 42  1  0
  8 43  1  0
 13 44  1  0
 14 45  1  0
 14 46  1  0
 15 47  1  0
 15 48  1  0
 16 49  1  0
 17 50  1  0
 17 51  1  0
 18 52  1  0
 18 53  1  0
 20 54  1  0
 20 55  1  0
 21 56  1  0
 21 57  1  0
 25 58  1  0
 25 59  1  0
 26 60  1  0
 26 61  1  0
 28 62  1  0
 29 63  1  0
 30 64  1  0
 31 65  1  0
 33 66  1  0
 33 67  1  0
 35 68  1  0
 35 69  1  0
M  CHG  1  16   1
M  END
>  <UniqueID>  (18) 
282

>  <SMILES>  (18) 
c1ccc2c(c1)CCN(c1nc(NCC[NH+]3CCOCC3)nc(N3CCc4ccccc4C3)n1)C2

>  <Energy>  (18) 
88.0844221705638

>  <Genealogy>  (18) 
c1ccc2c(c1)CCN(c1nc(NCC[NH+]3CCOCC3)nc(N3CCc4ccccc4C3)n1)C2 (protonated)
c1ccc2c(c1)CCN(c1nc(NCC[NH+]3CCOCC3)nc(N3CCc4ccccc4C3)n1)C2 (3D coordinates assigned)
c1ccc2c(c1)CCN(c1nc(NCC[NH+]3CCOCC3)nc(N3CCc4ccccc4C3)n1)C2 (nonaromatic ring conformer: 88.0844221705638 kcal/mol)

>  <smiles>  (18) 
c1ccc2c(c1)CCN(c1nc(NCCN3CCOCC3)nc(N3CCc4ccccc4C3)n1)C2

>  <score_type>  (18) 
oracle

>  <origin>  (18) 
autodockgpu

>  <m_score__min__energy>  (18) 
-9.0199999999999996

>  <m_primary>  (18) 
energy

>  <meeko>  (18) 
{"free_energy": -8.16, "intermolecular_energy": -9.95, "internal_energy": -2.58, "cluster_size": 8, "cluster_id": 5, "rank_in_cluster": 2}

>  <energy>  (18) 
-8.1

>  <cluster_rmsd>  (18) 
0.62

>  <rmsd>  (18) 
270.96

>  <cluster>  (18) 
5

$$$$
XKJAOWLAVYPRNA-QTZDNFDFNA-O
     RDKit          3D

 69 74  0  0  0  0  0  0  0  0999 V2000
  139.7740   69.4670  227.7560 C   0  0  0  0  0  0  0  0  0  0  0  0
  140.7700   70.4450  227.8110 C   0  0  0  0  0  0  0  0  0  0  0  0
  141.0590   71.2140  226.6830 C   0  0  0  0  0  0  0  0  0  0  0  0
  140.3420   71.0220  225.4890 C   0  0  0  0  0  0  0  0  0  0  0  0
  139.3380   70.0230  225.4310 C   0  0  0  0  0  0  0  0  0  0  0  0
  139.0570   69.2600  226.5750 C   0  0  0  0  0  0  0  0  0  0  0  0
  138.4820   69.8360  224.1990 C   0  0  0  0  0  0  0  0  0  0  0  0
  139.1730   70.3580  222.9410 C   0  0  0  0  0  0  0  0  0  0  0  0
  139.7250   71.6880  223.2000 N   0  0  0  0  0  0  0  0  0  0  0  0
  139.5800   72.7170  222.2190 C   0  0  0  0  0  0  0  0  0  0  0  0
  138.6640   72.5800  221.2280 N   0  0  0  0  0  0  0  0  0  0  0  0
  138.5090   73.5610  220.3060 C   0  0  0  0  0  0  0  0  0  0  0  0
  137.4910   73.4460  219.3040 N   0  0  0  0  0  0  0  0  0  0  0  0
  136.5060   74.5000  219.0660 C   0  0  0  0  0  0  0  0  0  0  0  0
  136.0660   75.1350  220.3990 C   0  0  0  0  0  0  0  0  0  0  0  0
  137.0150   76.1670  220.8820 N   0  0  0  0  0  0  0  0  0  0  0  0
  136.7260   77.4550  220.2180 C   0  0  0  0  0  0  0  0  0  0  0  0
  137.6980   78.5560  220.6990 C   0  0  0  0  0  0  0  0  0  0  0  0
  138.4370   78.1730  221.8440 O   0  0  0  0  0  0  0  0  0  0  0  0
  137.5610   77.6600  222.8230 C   0  0  0  0  0  0  0  0  0  0  0  0
  136.9470   76.3250  222.3570 C   0  0  0  0  0  0  0  0  0  0  0  0
  139.2850   74.6730  220.3720 N   0  0  0  0  0  0  0  0  0  0  0  0
  140.1990   74.8230  221.3620 C   0  0  0  0  0  0  0  0  0  0  0  0
  140.9820   76.0290  221.4530 N   0  0  0  0  0  0  0  0  0  0  0  0
  141.8150   76.4750  220.3300 C   0  0  0  0  0  0  0  0  0  0  0  0
  141.4820   77.9270  220.0090 C   0  0  0  0  0  0  0  0  0  0  0  0
  141.5900   78.7820  221.2450 C   0  0  0  0  0  0  0  0  0  0  0  0
  141.8670   80.1520  221.1120 C   0  0  0  0  0  0  0  0  0  0  0  0
  141.9330   80.9670  222.2430 C   0  0  0  0  0  0  0  0  0  0  0  0
  141.7180   80.4260  223.5110 C   0  0  0  0  0  0  0  0  0  0  0  0
  141.4330   79.0680  223.6570 C   0  0  0  0  0  0  0  0  0  0  0  0
  141.3560   78.2360  222.5290 C   0  0  0  0  0  0  0  0  0  0  0  0
  141.0480   76.7660  222.7240 C   0  0  0  0  0  0  0  0  0  0  0  0
  140.3360   73.8430  222.2930 N   0  0  0  0  0  0  0  0  0  0  0  0
  140.6960   71.8620  224.2830 C   0  0  0  0  0  0  0  0  0  0  0  0
  139.5536   68.8581  228.6452 H   0  0  0  0  0  0  0  0  0  0  0  0
  141.3274   70.6092  228.7450 H   0  0  0  0  0  0  0  0  0  0  0  0
  141.8523   71.9747  226.7283 H   0  0  0  0  0  0  0  0  0  0  0  0
  138.2677   68.4946  226.5415 H   0  0  0  0  0  0  0  0  0  0  0  0
  138.2726   68.7637  224.0708 H   0  0  0  0  0  0  0  0  0  0  0  0
  137.5526   70.4074  224.3396 H   0  0  0  0  0  0  0  0  0  0  0  0
  139.9860   69.6728  222.6589 H   0  0  0  0  0  0  0  0  0  0  0  0
  138.4419   70.4193  222.1214 H   0  0  0  0  0  0  0  0  0  0  0  0
  137.4490   72.5790  218.7260 H   0  0  0  0  0  0  0  0  0  0  0  0
  136.9520   75.2749  218.4252 H   0  0  0  0  0  0  0  0  0  0  0  0
  135.6263   74.0614  218.5722 H   0  0  0  0  0  0  0  0  0  0  0  0
  135.0801   75.6020  220.2579 H   0  0  0  0  0  0  0  0  0  0  0  0
  136.0329   74.3350  221.1532 H   0  0  0  0  0  0  0  0  0  0  0  0
  137.9850   75.8740  220.6130 H   0  0  0  0  0  0  0  0  0  0  0  0
  136.8328   77.3309  219.1302 H   0  0  0  0  0  0  0  0  0  0  0  0
  135.6996   77.7580  220.4722 H   0  0  0  0  0  0  0  0  0  0  0  0
  138.4027   78.7827  219.8854 H   0  0  0  0  0  0  0  0  0  0  0  0
  137.0947   79.4342  220.9726 H   0  0  0  0  0  0  0  0  0  0  0  0
  138.1192   77.4947  223.7564 H   0  0  0  0  0  0  0  0  0  0  0  0
  136.7500   78.3847  222.9873 H   0  0  0  0  0  0  0  0  0  0  0  0
  137.4968   75.4972  222.8287 H   0  0  0  0  0  0  0  0  0  0  0  0
  135.8872   76.3170  222.6514 H   0  0  0  0  0  0  0  0  0  0  0  0
  142.8772   76.3924  220.6035 H   0  0  0  0  0  0  0  0  0  0  0  0
  141.6181   75.8459  219.4494 H   0  0  0  0  0  0  0  0  0  0  0  0
  142.1848   78.2996  219.2492 H   0  0  0  0  0  0  0  0  0  0  0  0
  140.4502   77.9789  219.6312 H   0  0  0  0  0  0  0  0  0  0  0  0
  142.0324   80.5840  220.1140 H   0  0  0  0  0  0  0  0  0  0  0  0
  142.1551   82.0389  222.1345 H   0  0  0  0  0  0  0  0  0  0  0  0
  141.7734   81.0727  224.3991 H   0  0  0  0  0  0  0  0  0  0  0  0
  141.2680   78.6476  224.6600 H   0  0  0  0  0  0  0  0  0  0  0  0
  141.8361   76.3207  223.3490 H   0  0  0  0  0  0  0  0  0  0  0  0
  140.0606   76.6930  223.2033 H   0  0  0  0  0  0  0  0  0  0  0  0
  141.6914   71.5650  223.9210 H   0  0  0  0  0  0  0  0  0  0  0  0
  140.6872   72.9194  224.5860 H   0  0  0  0  0  0  0  0  0  0  0  0
  1  2  2  0
  2  3  1  0
  3  4  2  0
  4  5  1  0
  5  6  2  0
  5  7  1  0
  7  8  1  0
  8  9  1  0
  9 10  1  0
 10 11  2  0
 11 12  1  0
 12 13  1  0
 13 14  1  0
 14 15  1  0
 15 16  1  0
 16 17  1  0
 17 18  1  0
 18 19  1  0
 19 20  1  0
 20 21  1  0
 12 22  2  0
 22 23  1  0
 23 24  1  0
 24 25  1  0
 25 26  1  0
 26 27  1  0
 27 28  2  0
 28 29  1  0
 29 30  2  0
 30 31  1  0
 31 32  2  0
 32 33  1  0
 23 34  2  0
  9 35  1  0
  6  1  1  0
 34 10  1  0
 35  4  1  0
 21 16  1  0
 33 24  1  0
 32 27  1  0
  1 36  1  0
  2 37  1  0
  3 38  1  0
  6 39  1  0
  7 40  1  0
  7 41  1  0
  8 42  1  0
  8 43  1  0
 13 44  1  0
 14 45  1  0
 14 46  1  0
 15 47  1  0
 15 48  1  0
 16 49  1  0
 17 50  1  0
 17 51  1  0
 18 52  1  0
 18 53  1  0
 20 54  1  0
 20 55  1  0
 21 56  1  0
 21 57  1  0
 25 58  1  0
 25 59  1  0
 26 60  1  0
 26 61  1  0
 28 62  1  0
 29 63  1  0
 30 64  1  0
 31 65  1  0
 33 66  1  0
 33 67  1  0
 35 68  1  0
 35 69  1  0
M  CHG  1  16   1
M  END
>  <UniqueID>  (19) 
282

>  <SMILES>  (19) 
c1ccc2c(c1)CCN(c1nc(NCC[NH+]3CCOCC3)nc(N3CCc4ccccc4C3)n1)C2

>  <Energy>  (19) 
88.0844221705638

>  <Genealogy>  (19) 
c1ccc2c(c1)CCN(c1nc(NCC[NH+]3CCOCC3)nc(N3CCc4ccccc4C3)n1)C2 (protonated)
c1ccc2c(c1)CCN(c1nc(NCC[NH+]3CCOCC3)nc(N3CCc4ccccc4C3)n1)C2 (3D coordinates assigned)
c1ccc2c(c1)CCN(c1nc(NCC[NH+]3CCOCC3)nc(N3CCc4ccccc4C3)n1)C2 (nonaromatic ring conformer: 88.0844221705638 kcal/mol)

>  <smiles>  (19) 
c1ccc2c(c1)CCN(c1nc(NCCN3CCOCC3)nc(N3CCc4ccccc4C3)n1)C2

>  <score_type>  (19) 
oracle

>  <origin>  (19) 
autodockgpu

>  <m_score__min__energy>  (19) 
-9.0199999999999996

>  <m_primary>  (19) 
energy

>  <meeko>  (19) 
{"free_energy": -8.01, "intermolecular_energy": -9.8, "internal_energy": -2.77, "cluster_size": 8, "cluster_id": 5, "rank_in_cluster": 7}

>  <energy>  (19) 
-8.01

>  <cluster_rmsd>  (19) 
0.45

>  <rmsd>  (19) 
271.01

>  <cluster>  (19) 
5

$$$$
XKJAOWLAVYPRNA-QTZDNFDFNA-O
     RDKit          3D

 69 74  0  0  0  0  0  0  0  0999 V2000
  142.2680   80.8010  222.4390 C   0  0  0  0  0  0  0  0  0  0  0  0
  142.2030   80.1460  223.6710 C   0  0  0  0  0  0  0  0  0  0  0  0
  141.7140   78.8410  223.7450 C   0  0  0  0  0  0  0  0  0  0  0  0
  141.2990   78.1700  222.5820 C   0  0  0  0  0  0  0  0  0  0  0  0
  141.3570   78.8380  221.3330 C   0  0  0  0  0  0  0  0  0  0  0  0
  141.8530   80.1490  221.2740 C   0  0  0  0  0  0  0  0  0  0  0  0
  141.0030   78.1320  220.0450 C   0  0  0  0  0  0  0  0  0  0  0  0
  140.0690   76.9470  220.2820 C   0  0  0  0  0  0  0  0  0  0  0  0
  140.5730   76.1400  221.3930 N   0  0  0  0  0  0  0  0  0  0  0  0
  140.5660   74.7140  221.2920 C   0  0  0  0  0  0  0  0  0  0  0  0
  141.0040   74.1160  220.1560 N   0  0  0  0  0  0  0  0  0  0  0  0
  141.0180   72.7640  220.0600 C   0  0  0  0  0  0  0  0  0  0  0  0
  141.5490   72.1360  218.8880 N   0  0  0  0  0  0  0  0  0  0  0  0
  142.8940   71.5660  218.8470 C   0  0  0  0  0  0  0  0  0  0  0  0
  143.8880   72.5800  218.2470 C   0  0  0  0  0  0  0  0  0  0  0  0
  143.4300   73.9820  218.3870 N   0  0  0  0  0  0  0  0  0  0  0  0
  144.0840   74.6030  219.5570 C   0  0  0  0  0  0  0  0  0  0  0  0
  143.6300   76.0700  219.7330 C   0  0  0  0  0  0  0  0  0  0  0  0
  142.9320   76.5660  218.6050 O   0  0  0  0  0  0  0  0  0  0  0  0
  143.6690   76.2910  217.4340 C   0  0  0  0  0  0  0  0  0  0  0  0
  143.7110   74.7740  217.1630 C   0  0  0  0  0  0  0  0  0  0  0  0
  140.5780   72.0140  221.1030 N   0  0  0  0  0  0  0  0  0  0  0  0
  140.1440   72.6010  222.2460 C   0  0  0  0  0  0  0  0  0  0  0  0
  139.7270   71.7950  223.3650 N   0  0  0  0  0  0  0  0  0  0  0  0
  138.4320   71.1050  223.3570 C   0  0  0  0  0  0  0  0  0  0  0  0
  138.6500   69.6330  223.6840 C   0  0  0  0  0  0  0  0  0  0  0  0
  139.4300   69.4830  224.9640 C   0  0  0  0  0  0  0  0  0  0  0  0
  139.2840   68.3130  225.7260 C   0  0  0  0  0  0  0  0  0  0  0  0
  140.0260   68.1400  226.8960 C   0  0  0  0  0  0  0  0  0  0  0  0
  140.9230   69.1270  227.3090 C   0  0  0  0  0  0  0  0  0  0  0  0
  141.0840   70.2910  226.5570 C   0  0  0  0  0  0  0  0  0  0  0  0
  140.3500   70.4760  225.3740 C   0  0  0  0  0  0  0  0  0  0  0  0
  140.5480   71.7530  224.5840 C   0  0  0  0  0  0  0  0  0  0  0  0
  140.1500   73.9560  222.3400 N   0  0  0  0  0  0  0  0  0  0  0  0
  140.7590   76.7630  222.7060 C   0  0  0  0  0  0  0  0  0  0  0  0
  142.6467   81.8324  222.3853 H   0  0  0  0  0  0  0  0  0  0  0  0
  142.5378   80.6596  224.5843 H   0  0  0  0  0  0  0  0  0  0  0  0
  141.6530   78.3345  224.7195 H   0  0  0  0  0  0  0  0  0  0  0  0
  141.9157   80.6669  220.3056 H   0  0  0  0  0  0  0  0  0  0  0  0
  140.5064   78.8470  219.3726 H   0  0  0  0  0  0  0  0  0  0  0  0
  141.9331   77.7487  219.6001 H   0  0  0  0  0  0  0  0  0  0  0  0
  139.0623   77.3173  220.5256 H   0  0  0  0  0  0  0  0  0  0  0  0
  140.0240   76.3296  219.3727 H   0  0  0  0  0  0  0  0  0  0  0  0
  140.9550   72.0840  218.0320 H   0  0  0  0  0  0  0  0  0  0  0  0
  143.2103   71.3092  219.8687 H   0  0  0  0  0  0  0  0  0  0  0  0
  142.8807   70.6637  218.2180 H   0  0  0  0  0  0  0  0  0  0  0  0
  144.8541   72.4724  218.7619 H   0  0  0  0  0  0  0  0  0  0  0  0
  143.9735   72.3645  217.1717 H   0  0  0  0  0  0  0  0  0  0  0  0
  142.3950   73.9740  218.5610 H   0  0  0  0  0  0  0  0  0  0  0  0
  143.8198   74.0340  220.4606 H   0  0  0  0  0  0  0  0  0  0  0  0
  145.1723   74.5902  219.3973 H   0  0  0  0  0  0  0  0  0  0  0  0
  142.9692   76.1309  220.6103 H   0  0  0  0  0  0  0  0  0  0  0  0
  144.5337   76.6841  219.8605 H   0  0  0  0  0  0  0  0  0  0  0  0
  143.1943   76.7976  216.5808 H   0  0  0  0  0  0  0  0  0  0  0  0
  144.6980   76.6558  217.5688 H   0  0  0  0  0  0  0  0  0  0  0  0
  142.9572   74.5285  216.4004 H   0  0  0  0  0  0  0  0  0  0  0  0
  144.7239   74.5185  216.8183 H   0  0  0  0  0  0  0  0  0  0  0  0
  137.7697   71.5557  224.1108 H   0  0  0  0  0  0  0  0  0  0  0  0
  137.9676   71.1995  222.3643 H   0  0  0  0  0  0  0  0  0  0  0  0
  137.6734   69.1393  223.7960 H   0  0  0  0  0  0  0  0  0  0  0  0
  139.2199   69.1690  222.8655 H   0  0  0  0  0  0  0  0  0  0  0  0
  138.5830   67.5303  225.4003 H   0  0  0  0  0  0  0  0  0  0  0  0
  139.9037   67.2245  227.4934 H   0  0  0  0  0  0  0  0  0  0  0  0
  141.5054   68.9862  228.2315 H   0  0  0  0  0  0  0  0  0  0  0  0
  141.7884   71.0667  226.8919 H   0  0  0  0  0  0  0  0  0  0  0  0
  140.2768   72.6075  225.2214 H   0  0  0  0  0  0  0  0  0  0  0  0
  141.6035   71.7955  224.2772 H   0  0  0  0  0  0  0  0  0  0  0  0
  139.7901   76.7968  223.2257 H   0  0  0  0  0  0  0  0  0  0  0  0
  141.4871   76.1632  223.2718 H   0  0  0  0  0  0  0  0  0  0  0  0
  1  2  2  0
  2  3  1  0
  3  4  2  0
  4  5  1  0
  5  6  2  0
  5  7  1  0
  7  8  1  0
  8  9  1  0
  9 10  1  0
 10 11  2  0
 11 12  1  0
 12 13  1  0
 13 14  1  0
 14 15  1  0
 15 16  1  0
 16 17  1  0
 17 18  1  0
 18 19  1  0
 19 20  1  0
 20 21  1  0
 12 22  2  0
 22 23  1  0
 23 24  1  0
 24 25  1  0
 25 26  1  0
 26 27  1  0
 27 28  2  0
 28 29  1  0
 29 30  2  0
 30 31  1  0
 31 32  2  0
 32 33  1  0
 23 34  2  0
  9 35  1  0
  6  1  1  0
 34 10  1  0
 35  4  1  0
 21 16  1  0
 33 24  1  0
 32 27  1  0
  1 36  1  0
  2 37  1  0
  3 38  1  0
  6 39  1  0
  7 40  1  0
  7 41  1  0
  8 42  1  0
  8 43  1  0
 13 44  1  0
 14 45  1  0
 14 46  1  0
 15 47  1  0
 15 48  1  0
 16 49  1  0
 17 50  1  0
 17 51  1  0
 18 52  1  0
 18 53  1  0
 20 54  1  0
 20 55  1  0
 21 56  1  0
 21 57  1  0
 25 58  1  0
 25 59  1  0
 26 60  1  0
 26 61  1  0
 28 62  1  0
 29 63  1  0
 30 64  1  0
 31 65  1  0
 33 66  1  0
 33 67  1  0
 35 68  1  0
 35 69  1  0
M  CHG  1  16   1
M  END
>  <UniqueID>  (20) 
282

>  <SMILES>  (20) 
c1ccc2c(c1)CCN(c1nc(NCC[NH+]3CCOCC3)nc(N3CCc4ccccc4C3)n1)C2

>  <Energy>  (20) 
88.0844221705638

>  <Genealogy>  (20) 
c1ccc2c(c1)CCN(c1nc(NCC[NH+]3CCOCC3)nc(N3CCc4ccccc4C3)n1)C2 (protonated)
c1ccc2c(c1)CCN(c1nc(NCC[NH+]3CCOCC3)nc(N3CCc4ccccc4C3)n1)C2 (3D coordinates assigned)
c1ccc2c(c1)CCN(c1nc(NCC[NH+]3CCOCC3)nc(N3CCc4ccccc4C3)n1)C2 (nonaromatic ring conformer: 88.0844221705638 kcal/mol)

>  <smiles>  (20) 
c1ccc2c(c1)CCN(c1nc(NCCN3CCOCC3)nc(N3CCc4ccccc4C3)n1)C2

>  <score_type>  (20) 
oracle

>  <origin>  (20) 
autodockgpu

>  <m_score__min__energy>  (20) 
-9.0199999999999996

>  <m_primary>  (20) 
energy

>  <meeko>  (20) 
{"free_energy": -8.72, "intermolecular_energy": -10.51, "internal_energy": -2.42, "cluster_size": 8, "cluster_id": 2, "rank_in_cluster": 7}

>  <energy>  (20) 
-7.82

>  <cluster_rmsd>  (20) 
1.87

>  <rmsd>  (20) 
270.77

>  <cluster>  (20) 
5

$$$$
XKJAOWLAVYPRNA-QTZDNFDFNA-O
     RDKit          3D

 69 74  0  0  0  0  0  0  0  0999 V2000
  141.8730   80.5550  222.2790 C   0  0  0  0  0  0  0  0  0  0  0  0
  141.3230   80.0120  223.4430 C   0  0  0  0  0  0  0  0  0  0  0  0
  140.9160   78.6780  223.4690 C   0  0  0  0  0  0  0  0  0  0  0  0
  141.0680   77.8660  222.3320 C   0  0  0  0  0  0  0  0  0  0  0  0
  141.6170   78.4190  221.1480 C   0  0  0  0  0  0  0  0  0  0  0  0
  142.0240   79.7620  221.1380 C   0  0  0  0  0  0  0  0  0  0  0  0
  141.8780   77.5670  219.9270 C   0  0  0  0  0  0  0  0  0  0  0  0
  140.9930   76.3230  219.9010 C   0  0  0  0  0  0  0  0  0  0  0  0
  141.0180   75.6740  221.2110 N   0  0  0  0  0  0  0  0  0  0  0  0
  141.1270   74.2510  221.2940 C   0  0  0  0  0  0  0  0  0  0  0  0
  141.8110   73.5700  220.3400 N   0  0  0  0  0  0  0  0  0  0  0  0
  141.9330   72.2230  220.4230 C   0  0  0  0  0  0  0  0  0  0  0  0
  142.7160   71.5160  219.4550 N   0  0  0  0  0  0  0  0  0  0  0  0
  142.1630   70.4370  218.6380 C   0  0  0  0  0  0  0  0  0  0  0  0
  140.6220   70.4650  218.6850 C   0  0  0  0  0  0  0  0  0  0  0  0
  140.0670   69.5970  219.7500 N   0  0  0  0  0  0  0  0  0  0  0  0
  138.6070   69.4590  219.5650 C   0  0  0  0  0  0  0  0  0  0  0  0
  137.9930   68.5570  220.6600 C   0  0  0  0  0  0  0  0  0  0  0  0
  138.9710   67.8520  221.4020 O   0  0  0  0  0  0  0  0  0  0  0  0
  139.8680   67.2160  220.5180 C   0  0  0  0  0  0  0  0  0  0  0  0
  140.7100   68.2590  219.7560 C   0  0  0  0  0  0  0  0  0  0  0  0
  141.3560   71.5590  221.4580 N   0  0  0  0  0  0  0  0  0  0  0  0
  140.6770   72.2310  222.4210 C   0  0  0  0  0  0  0  0  0  0  0  0
  140.1120   71.5230  223.5410 N   0  0  0  0  0  0  0  0  0  0  0  0
  138.9090   70.6970  223.3840 C   0  0  0  0  0  0  0  0  0  0  0  0
  139.1820   69.3080  223.9470 C   0  0  0  0  0  0  0  0  0  0  0  0
  139.6950   69.4000  225.3600 C   0  0  0  0  0  0  0  0  0  0  0  0
  139.4990   68.3210  226.2360 C   0  0  0  0  0  0  0  0  0  0  0  0
  140.0010   68.3730  227.5380 C   0  0  0  0  0  0  0  0  0  0  0  0
  140.7070   69.4950  227.9720 C   0  0  0  0  0  0  0  0  0  0  0  0
  140.9170   70.5710  227.1100 C   0  0  0  0  0  0  0  0  0  0  0  0
  140.4250   70.5310  225.7950 C   0  0  0  0  0  0  0  0  0  0  0  0
  140.6690   71.7180  224.8880 C   0  0  0  0  0  0  0  0  0  0  0  0
  140.5730   73.5830  222.3390 N   0  0  0  0  0  0  0  0  0  0  0  0
  140.5980   76.4300  222.3930 C   0  0  0  0  0  0  0  0  0  0  0  0
  142.1878   81.6088  222.2606 H   0  0  0  0  0  0  0  0  0  0  0  0
  141.2107   80.6377  224.3407 H   0  0  0  0  0  0  0  0  0  0  0  0
  140.4735   78.2591  224.3848 H   0  0  0  0  0  0  0  0  0  0  0  0
  142.4644   80.1931  220.2269 H   0  0  0  0  0  0  0  0  0  0  0  0
  141.6769   78.1654  219.0262 H   0  0  0  0  0  0  0  0  0  0  0  0
  142.9273   77.2383  219.9586 H   0  0  0  0  0  0  0  0  0  0  0  0
  139.9607   76.6135  219.6563 H   0  0  0  0  0  0  0  0  0  0  0  0
  141.3695   75.6234  219.1402 H   0  0  0  0  0  0  0  0  0  0  0  0
  143.7180   71.7780  219.3290 H   0  0  0  0  0  0  0  0  0  0  0  0
  142.4965   70.5626  217.5973 H   0  0  0  0  0  0  0  0  0  0  0  0
  142.5152   69.4728  219.0333 H   0  0  0  0  0  0  0  0  0  0  0  0
  140.2941   71.4991  218.8672 H   0  0  0  0  0  0  0  0  0  0  0  0
  140.2530   70.0854  217.7208 H   0  0  0  0  0  0  0  0  0  0  0  0
  140.2330   70.0620  220.6750 H   0  0  0  0  0  0  0  0  0  0  0  0
  138.1421   70.4546  219.6165 H   0  0  0  0  0  0  0  0  0  0  0  0
  138.4200   68.9968  218.5845 H   0  0  0  0  0  0  0  0  0  0  0  0
  137.4144   69.1875  221.3511 H   0  0  0  0  0  0  0  0  0  0  0  0
  137.3577   67.8124  220.1580 H   0  0  0  0  0  0  0  0  0  0  0  0
  140.5385   66.5604  221.0930 H   0  0  0  0  0  0  0  0  0  0  0  0
  139.2909   66.6262  219.7906 H   0  0  0  0  0  0  0  0  0  0  0  0
  141.6952   68.3408  220.2383 H   0  0  0  0  0  0  0  0  0  0  0  0
  140.8039   67.9229  218.7128 H   0  0  0  0  0  0  0  0  0  0  0  0
  138.0720   71.1576  223.9292 H   0  0  0  0  0  0  0  0  0  0  0  0
  138.6481   70.6205  222.3181 H   0  0  0  0  0  0  0  0  0  0  0  0
  138.2494   68.7247  223.9383 H   0  0  0  0  0  0  0  0  0  0  0  0
  139.9441   68.8166  223.3244 H   0  0  0  0  0  0  0  0  0  0  0  0
  138.9482   67.4317  225.8958 H   0  0  0  0  0  0  0  0  0  0  0  0
  139.8394   67.5274  228.2228 H   0  0  0  0  0  0  0  0  0  0  0  0
  141.0999   69.5313  228.9988 H   0  0  0  0  0  0  0  0  0  0  0  0
  141.4701   71.4545  227.4613 H   0  0  0  0  0  0  0  0  0  0  0  0
  140.2020   72.6068  225.3373 H   0  0  0  0  0  0  0  0  0  0  0  0
  141.7572   71.8407  224.7845 H   0  0  0  0  0  0  0  0  0  0  0  0
  139.4998   76.4162  222.4538 H   0  0  0  0  0  0  0  0  0  0  0  0
  141.0468   75.9588  223.2799 H   0  0  0  0  0  0  0  0  0  0  0  0
  1  2  2  0
  2  3  1  0
  3  4  2  0
  4  5  1  0
  5  6  2  0
  5  7  1  0
  7  8  1  0
  8  9  1  0
  9 10  1  0
 10 11  2  0
 11 12  1  0
 12 13  1  0
 13 14  1  0
 14 15  1  0
 15 16  1  0
 16 17  1  0
 17 18  1  0
 18 19  1  0
 19 20  1  0
 20 21  1  0
 12 22  2  0
 22 23  1  0
 23 24  1  0
 24 25  1  0
 25 26  1  0
 26 27  1  0
 27 28  2  0
 28 29  1  0
 29 30  2  0
 30 31  1  0
 31 32  2  0
 32 33  1  0
 23 34  2  0
  9 35  1  0
  6  1  1  0
 34 10  1  0
 35  4  1  0
 21 16  1  0
 33 24  1  0
 32 27  1  0
  1 36  1  0
  2 37  1  0
  3 38  1  0
  6 39  1  0
  7 40  1  0
  7 41  1  0
  8 42  1  0
  8 43  1  0
 13 44  1  0
 14 45  1  0
 14 46  1  0
 15 47  1  0
 15 48  1  0
 16 49  1  0
 17 50  1  0
 17 51  1  0
 18 52  1  0
 18 53  1  0
 20 54  1  0
 20 55  1  0
 21 56  1  0
 21 57  1  0
 25 58  1  0
 25 59  1  0
 26 60  1  0
 26 61  1  0
 28 62  1  0
 29 63  1  0
 30 64  1  0
 31 65  1  0
 33 66  1  0
 33 67  1  0
 35 68  1  0
 35 69  1  0
M  CHG  1  16   1
M  END
>  <UniqueID>  (21) 
283

>  <SMILES>  (21) 
c1ccc2c(c1)CCN(c1nc(NCC[NH+]3CCOCC3)nc(N3CCc4ccccc4C3)n1)C2

>  <Energy>  (21) 
90.44437712389667

>  <Genealogy>  (21) 
c1ccc2c(c1)CCN(c1nc(NCC[NH+]3CCOCC3)nc(N3CCc4ccccc4C3)n1)C2 (protonated)
c1ccc2c(c1)CCN(c1nc(NCC[NH+]3CCOCC3)nc(N3CCc4ccccc4C3)n1)C2 (3D coordinates assigned)
c1ccc2c(c1)CCN(c1nc(NCC[NH+]3CCOCC3)nc(N3CCc4ccccc4C3)n1)C2 (nonaromatic ring conformer: 90.44437712389667 kcal/mol)

>  <smiles>  (21) 
c1ccc2c(c1)CCN(c1nc(NCCN3CCOCC3)nc(N3CCc4ccccc4C3)n1)C2

>  <score_type>  (21) 
oracle

>  <origin>  (21) 
autodockgpu

>  <m_score__min__energy>  (21) 
-9.0199999999999996

>  <m_primary>  (21) 
energy

>  <meeko>  (21) 
{"free_energy": -8.2, "intermolecular_energy": -9.99, "internal_energy": -2.18, "cluster_size": 1, "cluster_id": 4, "rank_in_cluster": 1}

>  <energy>  (21) 
-9.02

>  <cluster_rmsd>  (21) 
0.0

>  <rmsd>  (21) 
270.68

>  <cluster>  (21) 
1

$$$$
XKJAOWLAVYPRNA-QTZDNFDFNA-O
     RDKit          3D

 69 74  0  0  0  0  0  0  0  0999 V2000
  142.4270   80.6720  222.6560 C   0  0  0  0  0  0  0  0  0  0  0  0
  142.1220   80.0380  223.8630 C   0  0  0  0  0  0  0  0  0  0  0  0
  141.5610   78.7610  223.8610 C   0  0  0  0  0  0  0  0  0  0  0  0
  141.3110   78.0960  222.6480 C   0  0  0  0  0  0  0  0  0  0  0  0
  141.6120   78.7420  221.4230 C   0  0  0  0  0  0  0  0  0  0  0  0
  142.1790   80.0260  221.4410 C   0  0  0  0  0  0  0  0  0  0  0  0
  141.4420   78.0380  220.0970 C   0  0  0  0  0  0  0  0  0  0  0  0
  140.4210   76.9040  220.1810 C   0  0  0  0  0  0  0  0  0  0  0  0
  140.6900   76.0880  221.3640 N   0  0  0  0  0  0  0  0  0  0  0  0
  140.6260   74.6630  221.2700 C   0  0  0  0  0  0  0  0  0  0  0  0
  140.9950   74.0460  220.1210 N   0  0  0  0  0  0  0  0  0  0  0  0
  140.9540   72.6940  220.0320 C   0  0  0  0  0  0  0  0  0  0  0  0
  141.4130   72.0420  218.8420 N   0  0  0  0  0  0  0  0  0  0  0  0
  141.7620   72.7810  217.6300 C   0  0  0  0  0  0  0  0  0  0  0  0
  142.8180   73.8590  217.9440 C   0  0  0  0  0  0  0  0  0  0  0  0
  143.5850   73.5660  219.1770 N   0  0  0  0  0  0  0  0  0  0  0  0
  144.6970   72.6460  218.8620 C   0  0  0  0  0  0  0  0  0  0  0  0
  145.5220   72.3180  220.1270 C   0  0  0  0  0  0  0  0  0  0  0  0
  145.2160   73.1690  221.2160 O   0  0  0  0  0  0  0  0  0  0  0  0
  145.2560   74.5140  220.7920 C   0  0  0  0  0  0  0  0  0  0  0  0
  144.1090   74.8060  219.8040 C   0  0  0  0  0  0  0  0  0  0  0  0
  140.5290   71.9640  221.0950 N   0  0  0  0  0  0  0  0  0  0  0  0
  140.1650   72.5710  222.2520 C   0  0  0  0  0  0  0  0  0  0  0  0
  139.7630   71.7860  223.3910 N   0  0  0  0  0  0  0  0  0  0  0  0
  138.5450   70.9680  223.3530 C   0  0  0  0  0  0  0  0  0  0  0  0
  138.8870   69.5440  223.7730 C   0  0  0  0  0  0  0  0  0  0  0  0
  139.6010   69.5400  225.1000 C   0  0  0  0  0  0  0  0  0  0  0  0
  139.5270   68.4010  225.9180 C   0  0  0  0  0  0  0  0  0  0  0  0
  140.2130   68.3650  227.1340 C   0  0  0  0  0  0  0  0  0  0  0  0
  140.9820   69.4560  227.5380 C   0  0  0  0  0  0  0  0  0  0  0  0
  141.0720   70.5910  226.7300 C   0  0  0  0  0  0  0  0  0  0  0  0
  140.3940   70.6400  225.5020 C   0  0  0  0  0  0  0  0  0  0  0  0
  140.5120   71.8890  224.6530 C   0  0  0  0  0  0  0  0  0  0  0  0
  140.2250   73.9250  222.3390 N   0  0  0  0  0  0  0  0  0  0  0  0
  140.6860   76.7200  222.6860 C   0  0  0  0  0  0  0  0  0  0  0  0
  142.8633   81.6818  222.6615 H   0  0  0  0  0  0  0  0  0  0  0  0
  142.3247   80.5470  224.8169 H   0  0  0  0  0  0  0  0  0  0  0  0
  141.3127   78.2714  224.8142 H   0  0  0  0  0  0  0  0  0  0  0  0
  142.4296   80.5267  220.4941 H   0  0  0  0  0  0  0  0  0  0  0  0
  141.1019   78.7680  219.3477 H   0  0  0  0  0  0  0  0  0  0  0  0
  142.4122   77.6032  219.8149 H   0  0  0  0  0  0  0  0  0  0  0  0
  139.4083   77.3277  220.2512 H   0  0  0  0  0  0  0  0  0  0  0  0
  140.4965   76.2772  219.2802 H   0  0  0  0  0  0  0  0  0  0  0  0
  141.5000   71.0020  218.8390 H   0  0  0  0  0  0  0  0  0  0  0  0
  142.1680   72.0823  216.8836 H   0  0  0  0  0  0  0  0  0  0  0  0
  140.8583   73.2701  217.2374 H   0  0  0  0  0  0  0  0  0  0  0  0
  143.5199   73.9207  217.0993 H   0  0  0  0  0  0  0  0  0  0  0  0
  142.2863   74.8090  218.1014 H   0  0  0  0  0  0  0  0  0  0  0  0
  142.9470   73.0820  219.8550 H   0  0  0  0  0  0  0  0  0  0  0  0
  144.2857   71.7130  218.4493 H   0  0  0  0  0  0  0  0  0  0  0  0
  145.3578   73.1337  218.1302 H   0  0  0  0  0  0  0  0  0  0  0  0
  145.3138   71.2793  220.4231 H   0  0  0  0  0  0  0  0  0  0  0  0
  146.5833   72.4659  219.8785 H   0  0  0  0  0  0  0  0  0  0  0  0
  145.1552   75.1722  221.6676 H   0  0  0  0  0  0  0  0  0  0  0  0
  146.2153   74.6979  220.2860 H   0  0  0  0  0  0  0  0  0  0  0  0
  143.2910   75.3026  220.3464 H   0  0  0  0  0  0  0  0  0  0  0  0
  144.5050   75.4495  219.0046 H   0  0  0  0  0  0  0  0  0  0  0  0
  137.7986   71.3866  224.0441 H   0  0  0  0  0  0  0  0  0  0  0  0
  138.1328   70.9645  222.3331 H   0  0  0  0  0  0  0  0  0  0  0  0
  137.9590   68.9599  223.8599 H   0  0  0  0  0  0  0  0  0  0  0  0
  139.5468   69.0988  223.0137 H   0  0  0  0  0  0  0  0  0  0  0  0
  138.9274   67.5352  225.6003 H   0  0  0  0  0  0  0  0  0  0  0  0
  140.1465   67.4735  227.7750 H   0  0  0  0  0  0  0  0  0  0  0  0
  141.5197   69.4222  228.4970 H   0  0  0  0  0  0  0  0  0  0  0  0
  141.6764   71.4499  227.0569 H   0  0  0  0  0  0  0  0  0  0  0  0
  140.1217   72.7430  225.2260 H   0  0  0  0  0  0  0  0  0  0  0  0
  141.5744   72.0223  224.4009 H   0  0  0  0  0  0  0  0  0  0  0  0
  139.6469   76.8097  223.0355 H   0  0  0  0  0  0  0  0  0  0  0  0
  141.2778   76.0925  223.3687 H   0  0  0  0  0  0  0  0  0  0  0  0
  1  2  2  0
  2  3  1  0
  3  4  2  0
  4  5  1  0
  5  6  2  0
  5  7  1  0
  7  8  1  0
  8  9  1  0
  9 10  1  0
 10 11  2  0
 11 12  1  0
 12 13  1  0
 13 14  1  0
 14 15  1  0
 15 16  1  0
 16 17  1  0
 17 18  1  0
 18 19  1  0
 19 20  1  0
 20 21  1  0
 12 22  2  0
 22 23  1  0
 23 24  1  0
 24 25  1  0
 25 26  1  0
 26 27  1  0
 27 28  2  0
 28 29  1  0
 29 30  2  0
 30 31  1  0
 31 32  2  0
 32 33  1  0
 23 34  2  0
  9 35  1  0
  6  1  1  0
 34 10  1  0
 35  4  1  0
 21 16  1  0
 33 24  1  0
 32 27  1  0
  1 36  1  0
  2 37  1  0
  3 38  1  0
  6 39  1  0
  7 40  1  0
  7 41  1  0
  8 42  1  0
  8 43  1  0
 13 44  1  0
 14 45  1  0
 14 46  1  0
 15 47  1  0
 15 48  1  0
 16 49  1  0
 17 50  1  0
 17 51  1  0
 18 52  1  0
 18 53  1  0
 20 54  1  0
 20 55  1  0
 21 56  1  0
 21 57  1  0
 25 58  1  0
 25 59  1  0
 26 60  1  0
 26 61  1  0
 28 62  1  0
 29 63  1  0
 30 64  1  0
 31 65  1  0
 33 66  1  0
 33 67  1  0
 35 68  1  0
 35 69  1  0
M  CHG  1  16   1
M  END
>  <UniqueID>  (22) 
283

>  <SMILES>  (22) 
c1ccc2c(c1)CCN(c1nc(NCC[NH+]3CCOCC3)nc(N3CCc4ccccc4C3)n1)C2

>  <Energy>  (22) 
90.44437712389667

>  <Genealogy>  (22) 
c1ccc2c(c1)CCN(c1nc(NCC[NH+]3CCOCC3)nc(N3CCc4ccccc4C3)n1)C2 (protonated)
c1ccc2c(c1)CCN(c1nc(NCC[NH+]3CCOCC3)nc(N3CCc4ccccc4C3)n1)C2 (3D coordinates assigned)
c1ccc2c(c1)CCN(c1nc(NCC[NH+]3CCOCC3)nc(N3CCc4ccccc4C3)n1)C2 (nonaromatic ring conformer: 90.44437712389667 kcal/mol)

>  <smiles>  (22) 
c1ccc2c(c1)CCN(c1nc(NCCN3CCOCC3)nc(N3CCc4ccccc4C3)n1)C2

>  <score_type>  (22) 
oracle

>  <origin>  (22) 
autodockgpu

>  <m_score__min__energy>  (22) 
-9.0199999999999996

>  <m_primary>  (22) 
energy

>  <meeko>  (22) 
{"free_energy": -8.87, "intermolecular_energy": -10.66, "internal_energy": -1.93, "cluster_size": 8, "cluster_id": 2, "rank_in_cluster": 1}

>  <energy>  (22) 
-9.01

>  <cluster_rmsd>  (22) 
0.04

>  <rmsd>  (22) 
270.7

>  <cluster>  (22) 
1

$$$$
XKJAOWLAVYPRNA-QTZDNFDFNA-O
     RDKit          3D

 69 74  0  0  0  0  0  0  0  0999 V2000
  140.0090   69.0980  227.6600 C   0  0  0  0  0  0  0  0  0  0  0  0
  140.8180   70.2230  227.8430 C   0  0  0  0  0  0  0  0  0  0  0  0
  141.0280   71.1130  226.7890 C   0  0  0  0  0  0  0  0  0  0  0  0
  140.4180   70.8950  225.5420 C   0  0  0  0  0  0  0  0  0  0  0  0
  139.6040   69.7500  225.3540 C   0  0  0  0  0  0  0  0  0  0  0  0
  139.4000   68.8650  226.4240 C   0  0  0  0  0  0  0  0  0  0  0  0
  138.8590   69.5160  224.0600 C   0  0  0  0  0  0  0  0  0  0  0  0
  139.5130   70.2410  222.8860 C   0  0  0  0  0  0  0  0  0  0  0  0
  139.8140   71.6210  223.2680 N   0  0  0  0  0  0  0  0  0  0  0  0
  139.5450   72.6830  222.3500 C   0  0  0  0  0  0  0  0  0  0  0  0
  138.4880   72.5920  221.5040 N   0  0  0  0  0  0  0  0  0  0  0  0
  138.2170   73.6040  220.6440 C   0  0  0  0  0  0  0  0  0  0  0  0
  137.0590   73.5370  219.8040 N   0  0  0  0  0  0  0  0  0  0  0  0
  135.8760   74.3620  220.0360 C   0  0  0  0  0  0  0  0  0  0  0  0
  135.9310   74.9980  221.4390 C   0  0  0  0  0  0  0  0  0  0  0  0
  136.9010   76.1150  221.5230 N   0  0  0  0  0  0  0  0  0  0  0  0
  136.7220   77.0150  220.3640 C   0  0  0  0  0  0  0  0  0  0  0  0
  137.7180   78.1950  220.4200 C   0  0  0  0  0  0  0  0  0  0  0  0
  138.3650   78.3080  221.6740 O   0  0  0  0  0  0  0  0  0  0  0  0
  137.4050   78.2700  222.7070 C   0  0  0  0  0  0  0  0  0  0  0  0
  136.7520   76.8760  222.7890 C   0  0  0  0  0  0  0  0  0  0  0  0
  139.0160   74.7010  220.6260 N   0  0  0  0  0  0  0  0  0  0  0  0
  140.0710   74.8060  221.4730 C   0  0  0  0  0  0  0  0  0  0  0  0
  140.8830   75.9960  221.4810 N   0  0  0  0  0  0  0  0  0  0  0  0
  141.6690   76.3820  220.3030 C   0  0  0  0  0  0  0  0  0  0  0  0
  141.3510   77.8280  219.9440 C   0  0  0  0  0  0  0  0  0  0  0  0
  141.5370   78.7250  221.1410 C   0  0  0  0  0  0  0  0  0  0  0  0
  141.8360   80.0830  220.9440 C   0  0  0  0  0  0  0  0  0  0  0  0
  141.9750   80.9370  222.0400 C   0  0  0  0  0  0  0  0  0  0  0  0
  141.8110   80.4460  223.3350 C   0  0  0  0  0  0  0  0  0  0  0  0
  141.5060   79.1010  223.5460 C   0  0  0  0  0  0  0  0  0  0  0  0
  141.3550   78.2310  222.4540 C   0  0  0  0  0  0  0  0  0  0  0  0
  141.0270   76.7770  222.7190 C   0  0  0  0  0  0  0  0  0  0  0  0
  140.3260   73.7950  222.3430 N   0  0  0  0  0  0  0  0  0  0  0  0
  140.6830   71.8730  224.4200 C   0  0  0  0  0  0  0  0  0  0  0  0
  139.8513   68.3944  228.4908 H   0  0  0  0  0  0  0  0  0  0  0  0
  141.2899   70.4071  228.8194 H   0  0  0  0  0  0  0  0  0  0  0  0
  141.6750   71.9905  226.9352 H   0  0  0  0  0  0  0  0  0  0  0  0
  138.7570   67.9828  226.2889 H   0  0  0  0  0  0  0  0  0  0  0  0
  138.8451   68.4367  223.8480 H   0  0  0  0  0  0  0  0  0  0  0  0
  137.8390   69.9106  224.1783 H   0  0  0  0  0  0  0  0  0  0  0  0
  140.4450   69.7257  222.6107 H   0  0  0  0  0  0  0  0  0  0  0  0
  138.8252   70.2411  222.0276 H   0  0  0  0  0  0  0  0  0  0  0  0
  137.0600   72.8740  218.9980 H   0  0  0  0  0  0  0  0  0  0  0  0
  135.8353   75.1585  219.2784 H   0  0  0  0  0  0  0  0  0  0  0  0
  134.9797   73.7280  219.9666 H   0  0  0  0  0  0  0  0  0  0  0  0
  134.9310   75.3806  221.6914 H   0  0  0  0  0  0  0  0  0  0  0  0
  136.2587   74.2197  222.1439 H   0  0  0  0  0  0  0  0  0  0  0  0
  137.8700   75.7150  221.4750 H   0  0  0  0  0  0  0  0  0  0  0  0
  136.8900   76.4462  219.4376 H   0  0  0  0  0  0  0  0  0  0  0  0
  135.6990   77.4185  220.3884 H   0  0  0  0  0  0  0  0  0  0  0  0
  138.4819   78.0472  219.6425 H   0  0  0  0  0  0  0  0  0  0  0  0
  137.1449   79.1199  220.2586 H   0  0  0  0  0  0  0  0  0  0  0  0
  137.8956   78.4964  223.6651 H   0  0  0  0  0  0  0  0  0  0  0  0
  136.6247   79.0154  222.4939 H   0  0  0  0  0  0  0  0  0  0  0  0
  137.2280   76.3085  223.6023 H   0  0  0  0  0  0  0  0  0  0  0  0
  135.6771   77.0156  222.9762 H   0  0  0  0  0  0  0  0  0  0  0  0
  142.7414   76.2855  220.5279 H   0  0  0  0  0  0  0  0  0  0  0  0
  141.4160   75.7258  219.4572 H   0  0  0  0  0  0  0  0  0  0  0  0
  142.0235   78.1567  219.1380 H   0  0  0  0  0  0  0  0  0  0  0  0
  140.3034   77.8894  219.6142 H   0  0  0  0  0  0  0  0  0  0  0  0
  141.9610   80.4749  219.9238 H   0  0  0  0  0  0  0  0  0  0  0  0
  142.2143   81.9989  221.8817 H   0  0  0  0  0  0  0  0  0  0  0  0
  141.9227   81.1229  224.1948 H   0  0  0  0  0  0  0  0  0  0  0  0
  141.3834   78.7208  224.5709 H   0  0  0  0  0  0  0  0  0  0  0  0
  141.8357   76.3373  223.3211 H   0  0  0  0  0  0  0  0  0  0  0  0
  140.0634   76.7435  223.2486 H   0  0  0  0  0  0  0  0  0  0  0  0
  141.7321   71.7772  224.1034 H   0  0  0  0  0  0  0  0  0  0  0  0
  140.4757   72.8873  224.7918 H   0  0  0  0  0  0  0  0  0  0  0  0
  1  2  2  0
  2  3  1  0
  3  4  2  0
  4  5  1  0
  5  6  2  0
  5  7  1  0
  7  8  1  0
  8  9  1  0
  9 10  1  0
 10 11  2  0
 11 12  1  0
 12 13  1  0
 13 14  1  0
 14 15  1  0
 15 16  1  0
 16 17  1  0
 17 18  1  0
 18 19  1  0
 19 20  1  0
 20 21  1  0
 12 22  2  0
 22 23  1  0
 23 24  1  0
 24 25  1  0
 25 26  1  0
 26 27  1  0
 27 28  2  0
 28 29  1  0
 29 30  2  0
 30 31  1  0
 31 32  2  0
 32 33  1  0
 23 34  2  0
  9 35  1  0
  6  1  1  0
 34 10  1  0
 35  4  1  0
 21 16  1  0
 33 24  1  0
 32 27  1  0
  1 36  1  0
  2 37  1  0
  3 38  1  0
  6 39  1  0
  7 40  1  0
  7 41  1  0
  8 42  1  0
  8 43  1  0
 13 44  1  0
 14 45  1  0
 14 46  1  0
 15 47  1  0
 15 48  1  0
 16 49  1  0
 17 50  1  0
 17 51  1  0
 18 52  1  0
 18 53  1  0
 20 54  1  0
 20 55  1  0
 21 56  1  0
 21 57  1  0
 25 58  1  0
 25 59  1  0
 26 60  1  0
 26 61  1  0
 28 62  1  0
 29 63  1  0
 30 64  1  0
 31 65  1  0
 33 66  1  0
 33 67  1  0
 35 68  1  0
 35 69  1  0
M  CHG  1  16   1
M  END
>  <UniqueID>  (23) 
283

>  <SMILES>  (23) 
c1ccc2c(c1)CCN(c1nc(NCC[NH+]3CCOCC3)nc(N3CCc4ccccc4C3)n1)C2

>  <Energy>  (23) 
90.44437712389667

>  <Genealogy>  (23) 
c1ccc2c(c1)CCN(c1nc(NCC[NH+]3CCOCC3)nc(N3CCc4ccccc4C3)n1)C2 (protonated)
c1ccc2c(c1)CCN(c1nc(NCC[NH+]3CCOCC3)nc(N3CCc4ccccc4C3)n1)C2 (3D coordinates assigned)
c1ccc2c(c1)CCN(c1nc(NCC[NH+]3CCOCC3)nc(N3CCc4ccccc4C3)n1)C2 (nonaromatic ring conformer: 90.44437712389667 kcal/mol)

>  <smiles>  (23) 
c1ccc2c(c1)CCN(c1nc(NCCN3CCOCC3)nc(N3CCc4ccccc4C3)n1)C2

>  <score_type>  (23) 
oracle

>  <origin>  (23) 
autodockgpu

>  <m_score__min__energy>  (23) 
-9.0199999999999996

>  <m_primary>  (23) 
energy

>  <meeko>  (23) 
{"free_energy": -8.12, "intermolecular_energy": -9.91, "internal_energy": -2.71, "cluster_size": 8, "cluster_id": 5, "rank_in_cluster": 4}

>  <energy>  (23) 
-8.87

>  <cluster_rmsd>  (23) 
0.0

>  <rmsd>  (23) 
271.43

>  <cluster>  (23) 
2

$$$$
XKJAOWLAVYPRNA-QTZDNFDFNA-O
     RDKit          3D

 69 74  0  0  0  0  0  0  0  0999 V2000
  142.2010   81.0080  222.6260 C   0  0  0  0  0  0  0  0  0  0  0  0
  141.6850   80.4740  223.8090 C   0  0  0  0  0  0  0  0  0  0  0  0
  141.1730   79.1760  223.8270 C   0  0  0  0  0  0  0  0  0  0  0  0
  141.1870   78.3900  222.6620 C   0  0  0  0  0  0  0  0  0  0  0  0
  141.7020   78.9350  221.4590 C   0  0  0  0  0  0  0  0  0  0  0  0
  142.2160   80.2410  221.4570 C   0  0  0  0  0  0  0  0  0  0  0  0
  141.8160   78.1030  220.2020 C   0  0  0  0  0  0  0  0  0  0  0  0
  140.8340   76.9340  220.2010 C   0  0  0  0  0  0  0  0  0  0  0  0
  140.8890   76.2450  221.4900 N   0  0  0  0  0  0  0  0  0  0  0  0
  140.8870   74.8160  221.5280 C   0  0  0  0  0  0  0  0  0  0  0  0
  139.9710   74.1630  222.2860 N   0  0  0  0  0  0  0  0  0  0  0  0
  139.9530   72.8080  222.3120 C   0  0  0  0  0  0  0  0  0  0  0  0
  138.9390   72.1210  223.0550 N   0  0  0  0  0  0  0  0  0  0  0  0
  137.8580   71.3820  222.4060 C   0  0  0  0  0  0  0  0  0  0  0  0
  136.7150   72.3390  222.0120 C   0  0  0  0  0  0  0  0  0  0  0  0
  137.0140   73.7530  222.3410 N   0  0  0  0  0  0  0  0  0  0  0  0
  137.1760   74.5280  221.0930 C   0  0  0  0  0  0  0  0  0  0  0  0
  137.4880   76.0100  221.3980 C   0  0  0  0  0  0  0  0  0  0  0  0
  137.2720   76.3480  222.7560 O   0  0  0  0  0  0  0  0  0  0  0  0
  135.9980   75.8960  223.1590 C   0  0  0  0  0  0  0  0  0  0  0  0
  135.9510   74.3560  223.1840 C   0  0  0  0  0  0  0  0  0  0  0  0
  140.8640   72.1100  221.5860 N   0  0  0  0  0  0  0  0  0  0  0  0
  141.7790   72.7530  220.8190 C   0  0  0  0  0  0  0  0  0  0  0  0
  142.7090   72.0040  220.0130 N   0  0  0  0  0  0  0  0  0  0  0  0
  143.7080   72.6850  219.1820 C   0  0  0  0  0  0  0  0  0  0  0  0
  145.0860   72.1140  219.4920 C   0  0  0  0  0  0  0  0  0  0  0  0
  145.0810   70.6140  219.3580 C   0  0  0  0  0  0  0  0  0  0  0  0
  146.2790   69.9450  219.0570 C   0  0  0  0  0  0  0  0  0  0  0  0
  146.3010   68.5520  218.9660 C   0  0  0  0  0  0  0  0  0  0  0  0
  145.1350   67.8170  219.1800 C   0  0  0  0  0  0  0  0  0  0  0  0
  143.9390   68.4680  219.4880 C   0  0  0  0  0  0  0  0  0  0  0  0
  143.9020   69.8680  219.5910 C   0  0  0  0  0  0  0  0  0  0  0  0
  142.5870   70.5410  219.9230 C   0  0  0  0  0  0  0  0  0  0  0  0
  141.7800   74.1110  220.7850 N   0  0  0  0  0  0  0  0  0  0  0  0
  140.6070   76.9950  222.7170 C   0  0  0  0  0  0  0  0  0  0  0  0
  142.5965   82.0344  222.6140 H   0  0  0  0  0  0  0  0  0  0  0  0
  141.6822   81.0779  224.7284 H   0  0  0  0  0  0  0  0  0  0  0  0
  140.7560   78.7656  224.7585 H   0  0  0  0  0  0  0  0  0  0  0  0
  142.6329   80.6634  220.5308 H   0  0  0  0  0  0  0  0  0  0  0  0
  141.6076   78.7430  219.3320 H   0  0  0  0  0  0  0  0  0  0  0  0
  142.8352   77.6916  220.1572 H   0  0  0  0  0  0  0  0  0  0  0  0
  139.8151   77.3121  220.0314 H   0  0  0  0  0  0  0  0  0  0  0  0
  141.1044   76.2309  219.3995 H   0  0  0  0  0  0  0  0  0  0  0  0
  138.9720   72.1500  224.0980 H   0  0  0  0  0  0  0  0  0  0  0  0
  138.2467   70.8899  221.5023 H   0  0  0  0  0  0  0  0  0  0  0  0
  137.4682   70.6297  223.1075 H   0  0  0  0  0  0  0  0  0  0  0  0
  136.5461   72.2580  220.9281 H   0  0  0  0  0  0  0  0  0  0  0  0
  135.8234   72.0457  222.5856 H   0  0  0  0  0  0  0  0  0  0  0  0
  137.9240   73.7850  222.8620 H   0  0  0  0  0  0  0  0  0  0  0  0
  138.0031   74.0993  220.5081 H   0  0  0  0  0  0  0  0  0  0  0  0
  136.2355   74.4777  220.5247 H   0  0  0  0  0  0  0  0  0  0  0  0
  138.5418   76.2054  221.1505 H   0  0  0  0  0  0  0  0  0  0  0  0
  136.8058   76.6237  220.7914 H   0  0  0  0  0  0  0  0  0  0  0  0
  135.7800   76.2806  224.1663 H   0  0  0  0  0  0  0  0  0  0  0  0
  135.2489   76.2618  222.4413 H   0  0  0  0  0  0  0  0  0  0  0  0
  136.0832   74.0135  224.2209 H   0  0  0  0  0  0  0  0  0  0  0  0
  134.9776   74.0394  222.7812 H   0  0  0  0  0  0  0  0  0  0  0  0
  143.4737   72.5256  218.1191 H   0  0  0  0  0  0  0  0  0  0  0  0
  143.6964   73.7637  219.3973 H   0  0  0  0  0  0  0  0  0  0  0  0
  145.8190   72.5372  218.7894 H   0  0  0  0  0  0  0  0  0  0  0  0
  145.3541   72.3766  220.5260 H   0  0  0  0  0  0  0  0  0  0  0  0
  147.2021   70.5201  218.8926 H   0  0  0  0  0  0  0  0  0  0  0  0
  147.2403   68.0328  218.7249 H   0  0  0  0  0  0  0  0  0  0  0  0
  145.1579   66.7197  219.1057 H   0  0  0  0  0  0  0  0  0  0  0  0
  143.0223   67.8821  219.6506 H   0  0  0  0  0  0  0  0  0  0  0  0
  141.8571   70.2957  219.1374 H   0  0  0  0  0  0  0  0  0  0  0  0
  142.2622   70.1719  220.9070 H   0  0  0  0  0  0  0  0  0  0  0  0
  139.5173   77.0664  222.8493 H   0  0  0  0  0  0  0  0  0  0  0  0
  141.0710   76.4624  223.5602 H   0  0  0  0  0  0  0  0  0  0  0  0
  1  2  2  0
  2  3  1  0
  3  4  2  0
  4  5  1  0
  5  6  2  0
  5  7  1  0
  7  8  1  0
  8  9  1  0
  9 10  1  0
 10 11  2  0
 11 12  1  0
 12 13  1  0
 13 14  1  0
 14 15  1  0
 15 16  1  0
 16 17  1  0
 17 18  1  0
 18 19  1  0
 19 20  1  0
 20 21  1  0
 12 22  2  0
 22 23  1  0
 23 24  1  0
 24 25  1  0
 25 26  1  0
 26 27  1  0
 27 28  2  0
 28 29  1  0
 29 30  2  0
 30 31  1  0
 31 32  2  0
 32 33  1  0
 23 34  2  0
  9 35  1  0
  6  1  1  0
 34 10  1  0
 35  4  1  0
 21 16  1  0
 33 24  1  0
 32 27  1  0
  1 36  1  0
  2 37  1  0
  3 38  1  0
  6 39  1  0
  7 40  1  0
  7 41  1  0
  8 42  1  0
  8 43  1  0
 13 44  1  0
 14 45  1  0
 14 46  1  0
 15 47  1  0
 15 48  1  0
 16 49  1  0
 17 50  1  0
 17 51  1  0
 18 52  1  0
 18 53  1  0
 20 54  1  0
 20 55  1  0
 21 56  1  0
 21 57  1  0
 25 58  1  0
 25 59  1  0
 26 60  1  0
 26 61  1  0
 28 62  1  0
 29 63  1  0
 30 64  1  0
 31 65  1  0
 33 66  1  0
 33 67  1  0
 35 68  1  0
 35 69  1  0
M  CHG  1  16   1
M  END
>  <UniqueID>  (24) 
283

>  <SMILES>  (24) 
c1ccc2c(c1)CCN(c1nc(NCC[NH+]3CCOCC3)nc(N3CCc4ccccc4C3)n1)C2

>  <Energy>  (24) 
90.44437712389667

>  <Genealogy>  (24) 
c1ccc2c(c1)CCN(c1nc(NCC[NH+]3CCOCC3)nc(N3CCc4ccccc4C3)n1)C2 (protonated)
c1ccc2c(c1)CCN(c1nc(NCC[NH+]3CCOCC3)nc(N3CCc4ccccc4C3)n1)C2 (3D coordinates assigned)
c1ccc2c(c1)CCN(c1nc(NCC[NH+]3CCOCC3)nc(N3CCc4ccccc4C3)n1)C2 (nonaromatic ring conformer: 90.44437712389667 kcal/mol)

>  <smiles>  (24) 
c1ccc2c(c1)CCN(c1nc(NCCN3CCOCC3)nc(N3CCc4ccccc4C3)n1)C2

>  <score_type>  (24) 
oracle

>  <origin>  (24) 
autodockgpu

>  <m_score__min__energy>  (24) 
-9.0199999999999996

>  <m_primary>  (24) 
energy

>  <meeko>  (24) 
{"free_energy": -8.27, "intermolecular_energy": -10.06, "internal_energy": -2.29, "cluster_size": 1, "cluster_id": 3, "rank_in_cluster": 1}

>  <energy>  (24) 
-8.85

>  <cluster_rmsd>  (24) 
0.11

>  <rmsd>  (24) 
271.39

>  <cluster>  (24) 
2

$$$$
XKJAOWLAVYPRNA-QTZDNFDFNA-O
     RDKit          3D

 69 74  0  0  0  0  0  0  0  0999 V2000
  139.8880   69.3380  227.7480 C   0  0  0  0  0  0  0  0  0  0  0  0
  140.8170   70.3770  227.8390 C   0  0  0  0  0  0  0  0  0  0  0  0
  141.0680   71.1920  226.7340 C   0  0  0  0  0  0  0  0  0  0  0  0
  140.3780   70.9850  225.5270 C   0  0  0  0  0  0  0  0  0  0  0  0
  139.4420   69.9250  225.4320 C   0  0  0  0  0  0  0  0  0  0  0  0
  139.1990   69.1150  226.5530 C   0  0  0  0  0  0  0  0  0  0  0  0
  138.6140   69.7140  224.1850 C   0  0  0  0  0  0  0  0  0  0  0  0
  139.2830   70.3120  222.9490 C   0  0  0  0  0  0  0  0  0  0  0  0
  139.7440   71.6680  223.2480 N   0  0  0  0  0  0  0  0  0  0  0  0
  139.5430   72.7100  222.2910 C   0  0  0  0  0  0  0  0  0  0  0  0
  138.5540   72.5980  221.3690 N   0  0  0  0  0  0  0  0  0  0  0  0
  138.3470   73.5910  220.4700 C   0  0  0  0  0  0  0  0  0  0  0  0
  137.2570   73.5020  219.5450 N   0  0  0  0  0  0  0  0  0  0  0  0
  136.0320   74.2830  219.7030 C   0  0  0  0  0  0  0  0  0  0  0  0
  135.0020   73.5040  220.5440 C   0  0  0  0  0  0  0  0  0  0  0  0
  135.5600   73.0250  221.8310 N   0  0  0  0  0  0  0  0  0  0  0  0
  134.9170   73.7480  222.9490 C   0  0  0  0  0  0  0  0  0  0  0  0
  135.4750   73.2730  224.3100 C   0  0  0  0  0  0  0  0  0  0  0  0
  136.2430   72.0890  224.2040 O   0  0  0  0  0  0  0  0  0  0  0  0
  135.5250   71.1230  223.4680 C   0  0  0  0  0  0  0  0  0  0  0  0
  135.3780   71.5610  221.9970 C   0  0  0  0  0  0  0  0  0  0  0  0
  139.1410   74.6920  220.4920 N   0  0  0  0  0  0  0  0  0  0  0  0
  140.1270   74.8180  221.4140 C   0  0  0  0  0  0  0  0  0  0  0  0
  140.9330   76.0110  221.4610 N   0  0  0  0  0  0  0  0  0  0  0  0
  141.7400   76.4240  220.3060 C   0  0  0  0  0  0  0  0  0  0  0  0
  141.4210   77.8750  219.9680 C   0  0  0  0  0  0  0  0  0  0  0  0
  141.5790   78.7500  221.1840 C   0  0  0  0  0  0  0  0  0  0  0  0
  141.8740   80.1120  221.0190 C   0  0  0  0  0  0  0  0  0  0  0  0
  141.9870   80.9460  222.1330 C   0  0  0  0  0  0  0  0  0  0  0  0
  141.7990   80.4310  223.4160 C   0  0  0  0  0  0  0  0  0  0  0  0
  141.4970   79.0810  223.5950 C   0  0  0  0  0  0  0  0  0  0  0  0
  141.3730   78.2310  222.4840 C   0  0  0  0  0  0  0  0  0  0  0  0
  141.0480   76.7700  222.7150 C   0  0  0  0  0  0  0  0  0  0  0  0
  140.3180   73.8250  222.3220 N   0  0  0  0  0  0  0  0  0  0  0  0
  140.6900   71.8770  224.3470 C   0  0  0  0  0  0  0  0  0  0  0  0
  139.6983   68.6937  228.6192 H   0  0  0  0  0  0  0  0  0  0  0  0
  141.3521   70.5534  228.7837 H   0  0  0  0  0  0  0  0  0  0  0  0
  141.8099   72.0008  226.8081 H   0  0  0  0  0  0  0  0  0  0  0  0
  138.4623   68.3006  226.4901 H   0  0  0  0  0  0  0  0  0  0  0  0
  138.4769   68.6340  224.0277 H   0  0  0  0  0  0  0  0  0  0  0  0
  137.6477   70.2198  224.3279 H   0  0  0  0  0  0  0  0  0  0  0  0
  140.1421   69.6887  222.6600 H   0  0  0  0  0  0  0  0  0  0  0  0
  138.5584   70.3465  222.1221 H   0  0  0  0  0  0  0  0  0  0  0  0
  137.3390   72.8550  218.7310 H   0  0  0  0  0  0  0  0  0  0  0  0
  136.2693   75.2310  220.2079 H   0  0  0  0  0  0  0  0  0  0  0  0
  135.6044   74.4804  218.7089 H   0  0  0  0  0  0  0  0  0  0  0  0
  134.1479   74.1644  220.7547 H   0  0  0  0  0  0  0  0  0  0  0  0
  134.6990   72.6202  219.9635 H   0  0  0  0  0  0  0  0  0  0  0  0
  136.5850   73.2480  221.8490 H   0  0  0  0  0  0  0  0  0  0  0  0
  135.1086   74.8255  222.8380 H   0  0  0  0  0  0  0  0  0  0  0  0
  133.8364   73.5439  222.9229 H   0  0  0  0  0  0  0  0  0  0  0  0
  136.1107   74.0684  224.7262 H   0  0  0  0  0  0  0  0  0  0  0  0
  134.6166   73.0541  224.9620 H   0  0  0  0  0  0  0  0  0  0  0  0
  136.0633   70.1645  223.5078 H   0  0  0  0  0  0  0  0  0  0  0  0
  134.5226   71.0148  223.9078 H   0  0  0  0  0  0  0  0  0  0  0  0
  136.1350   71.0385  221.3937 H   0  0  0  0  0  0  0  0  0  0  0  0
  134.3602   71.3059  221.6670 H   0  0  0  0  0  0  0  0  0  0  0  0
  142.8083   76.3290  220.5503 H   0  0  0  0  0  0  0  0  0  0  0  0
  141.5073   75.7828  219.4431 H   0  0  0  0  0  0  0  0  0  0  0  0
  142.1070   78.2221  219.1813 H   0  0  0  0  0  0  0  0  0  0  0  0
  140.3795   77.9371  219.6195 H   0  0  0  0  0  0  0  0  0  0  0  0
  142.0166   80.5238  220.0090 H   0  0  0  0  0  0  0  0  0  0  0  0
  142.2248   82.0116  221.9988 H   0  0  0  0  0  0  0  0  0  0  0  0
  141.8893   81.0925  224.2902 H   0  0  0  0  0  0  0  0  0  0  0  0
  141.3555   78.6808  224.6098 H   0  0  0  0  0  0  0  0  0  0  0  0
  141.8471   76.3235  223.3250 H   0  0  0  0  0  0  0  0  0  0  0  0
  140.0740   76.7219  223.2240 H   0  0  0  0  0  0  0  0  0  0  0  0
  141.7065   71.6545  223.9902 H   0  0  0  0  0  0  0  0  0  0  0  0
  140.6094   72.9235  224.6760 H   0  0  0  0  0  0  0  0  0  0  0  0
  1  2  2  0
  2  3  1  0
  3  4  2  0
  4  5  1  0
  5  6  2  0
  5  7  1  0
  7  8  1  0
  8  9  1  0
  9 10  1  0
 10 11  2  0
 11 12  1  0
 12 13  1  0
 13 14  1  0
 14 15  1  0
 15 16  1  0
 16 17  1  0
 17 18  1  0
 18 19  1  0
 19 20  1  0
 20 21  1  0
 12 22  2  0
 22 23  1  0
 23 24  1  0
 24 25  1  0
 25 26  1  0
 26 27  1  0
 27 28  2  0
 28 29  1  0
 29 30  2  0
 30 31  1  0
 31 32  2  0
 32 33  1  0
 23 34  2  0
  9 35  1  0
  6  1  1  0
 34 10  1  0
 35  4  1  0
 21 16  1  0
 33 24  1  0
 32 27  1  0
  1 36  1  0
  2 37  1  0
  3 38  1  0
  6 39  1  0
  7 40  1  0
  7 41  1  0
  8 42  1  0
  8 43  1  0
 13 44  1  0
 14 45  1  0
 14 46  1  0
 15 47  1  0
 15 48  1  0
 16 49  1  0
 17 50  1  0
 17 51  1  0
 18 52  1  0
 18 53  1  0
 20 54  1  0
 20 55  1  0
 21 56  1  0
 21 57  1  0
 25 58  1  0
 25 59  1  0
 26 60  1  0
 26 61  1  0
 28 62  1  0
 29 63  1  0
 30 64  1  0
 31 65  1  0
 33 66  1  0
 33 67  1  0
 35 68  1  0
 35 69  1  0
M  CHG  1  16   1
M  END
>  <UniqueID>  (25) 
283

>  <SMILES>  (25) 
c1ccc2c(c1)CCN(c1nc(NCC[NH+]3CCOCC3)nc(N3CCc4ccccc4C3)n1)C2

>  <Energy>  (25) 
90.44437712389667

>  <Genealogy>  (25) 
c1ccc2c(c1)CCN(c1nc(NCC[NH+]3CCOCC3)nc(N3CCc4ccccc4C3)n1)C2 (protonated)
c1ccc2c(c1)CCN(c1nc(NCC[NH+]3CCOCC3)nc(N3CCc4ccccc4C3)n1)C2 (3D coordinates assigned)
c1ccc2c(c1)CCN(c1nc(NCC[NH+]3CCOCC3)nc(N3CCc4ccccc4C3)n1)C2 (nonaromatic ring conformer: 90.44437712389667 kcal/mol)

>  <smiles>  (25) 
c1ccc2c(c1)CCN(c1nc(NCCN3CCOCC3)nc(N3CCc4ccccc4C3)n1)C2

>  <score_type>  (25) 
oracle

>  <origin>  (25) 
autodockgpu

>  <m_score__min__energy>  (25) 
-9.0199999999999996

>  <m_primary>  (25) 
energy

>  <meeko>  (25) 
{"free_energy": -8.12, "intermolecular_energy": -9.91, "internal_energy": -2.39, "cluster_size": 8, "cluster_id": 5, "rank_in_cluster": 5}

>  <energy>  (25) 
-8.75

>  <cluster_rmsd>  (25) 
1.1

>  <rmsd>  (25) 
271.17

>  <cluster>  (25) 
2

$$$$
XKJAOWLAVYPRNA-QTZDNFDFNA-O
     RDKit          3D

 69 74  0  0  0  0  0  0  0  0999 V2000
  141.5960   80.6710  221.7700 C   0  0  0  0  0  0  0  0  0  0  0  0
  142.0670   80.1040  222.9560 C   0  0  0  0  0  0  0  0  0  0  0  0
  141.8030   78.7640  223.2460 C   0  0  0  0  0  0  0  0  0  0  0  0
  141.0750   77.9720  222.3410 C   0  0  0  0  0  0  0  0  0  0  0  0
  140.5890   78.5500  221.1420 C   0  0  0  0  0  0  0  0  0  0  0  0
  140.8650   79.8980  220.8640 C   0  0  0  0  0  0  0  0  0  0  0  0
  139.8760   77.7200  220.1000 C   0  0  0  0  0  0  0  0  0  0  0  0
  139.2470   76.4650  220.7030 C   0  0  0  0  0  0  0  0  0  0  0  0
  140.2180   75.7970  221.5690 N   0  0  0  0  0  0  0  0  0  0  0  0
  140.3480   74.3740  221.5190 C   0  0  0  0  0  0  0  0  0  0  0  0
  140.8760   73.7840  220.4180 N   0  0  0  0  0  0  0  0  0  0  0  0
  141.0190   72.4370  220.3720 C   0  0  0  0  0  0  0  0  0  0  0  0
  141.6430   71.8230  219.2380 N   0  0  0  0  0  0  0  0  0  0  0  0
  142.5830   72.5400  218.3780 C   0  0  0  0  0  0  0  0  0  0  0  0
  141.8680   73.6950  217.6490 C   0  0  0  0  0  0  0  0  0  0  0  0
  142.0780   75.0050  218.3090 N   0  0  0  0  0  0  0  0  0  0  0  0
  143.3770   75.0020  219.0140 C   0  0  0  0  0  0  0  0  0  0  0  0
  143.6300   76.3560  219.7150 C   0  0  0  0  0  0  0  0  0  0  0  0
  142.7270   77.3650  219.3010 O   0  0  0  0  0  0  0  0  0  0  0  0
  142.6770   77.4060  217.8920 C   0  0  0  0  0  0  0  0  0  0  0  0
  142.0270   76.1240  217.3350 C   0  0  0  0  0  0  0  0  0  0  0  0
  140.6200   71.6830  221.4280 N   0  0  0  0  0  0  0  0  0  0  0  0
  140.0980   72.2640  222.5370 C   0  0  0  0  0  0  0  0  0  0  0  0
  139.7240   71.4600  223.6720 N   0  0  0  0  0  0  0  0  0  0  0  0
  138.5890   70.5320  223.6000 C   0  0  0  0  0  0  0  0  0  0  0  0
  139.0430   69.1530  224.0590 C   0  0  0  0  0  0  0  0  0  0  0  0
  139.6980   69.2330  225.4130 C   0  0  0  0  0  0  0  0  0  0  0  0
  139.6950   68.1040  226.2470 C   0  0  0  0  0  0  0  0  0  0  0  0
  140.3300   68.1480  227.4900 C   0  0  0  0  0  0  0  0  0  0  0  0
  140.9770   69.3120  227.9050 C   0  0  0  0  0  0  0  0  0  0  0  0
  140.9960   70.4390  227.0830 C   0  0  0  0  0  0  0  0  0  0  0  0
  140.3690   70.4080  225.8270 C   0  0  0  0  0  0  0  0  0  0  0  0
  140.4060   71.6500  224.9610 C   0  0  0  0  0  0  0  0  0  0  0  0
  139.9730   73.6160  222.5820 N   0  0  0  0  0  0  0  0  0  0  0  0
  140.7950   76.5300  222.6980 C   0  0  0  0  0  0  0  0  0  0  0  0
  141.8009   81.7288  221.5484 H   0  0  0  0  0  0  0  0  0  0  0  0
  142.6474   80.7145  223.6634 H   0  0  0  0  0  0  0  0  0  0  0  0
  142.1664   78.3259  224.1872 H   0  0  0  0  0  0  0  0  0  0  0  0
  140.5038   80.3484  219.9277 H   0  0  0  0  0  0  0  0  0  0  0  0
  139.0836   78.3295  219.6412 H   0  0  0  0  0  0  0  0  0  0  0  0
  140.6170   77.4035  219.3512 H   0  0  0  0  0  0  0  0  0  0  0  0
  138.3626   76.7463  221.2935 H   0  0  0  0  0  0  0  0  0  0  0  0
  138.9479   75.7818  219.8945 H   0  0  0  0  0  0  0  0  0  0  0  0
  141.4180   70.8280  219.0170 H   0  0  0  0  0  0  0  0  0  0  0  0
  143.3982   72.9487  218.9931 H   0  0  0  0  0  0  0  0  0  0  0  0
  142.9880   71.8418  217.6307 H   0  0  0  0  0  0  0  0  0  0  0  0
  142.2529   73.7536  216.6202 H   0  0  0  0  0  0  0  0  0  0  0  0
  140.7889   73.4825  217.6682 H   0  0  0  0  0  0  0  0  0  0  0  0
  141.3220   75.1390  219.0240 H   0  0  0  0  0  0  0  0  0  0  0  0
  143.3751   74.2013  219.7682 H   0  0  0  0  0  0  0  0  0  0  0  0
  144.1757   74.8347  218.2763 H   0  0  0  0  0  0  0  0  0  0  0  0
  143.5254   76.2146  220.8008 H   0  0  0  0  0  0  0  0  0  0  0  0
  144.6433   76.6860  219.4424 H   0  0  0  0  0  0  0  0  0  0  0  0
  142.0853   78.2779  217.5764 H   0  0  0  0  0  0  0  0  0  0  0  0
  143.7030   77.4816  217.5026 H   0  0  0  0  0  0  0  0  0  0  0  0
  140.9752   76.3359  217.0926 H   0  0  0  0  0  0  0  0  0  0  0  0
  142.5889   75.8202  216.4395 H   0  0  0  0  0  0  0  0  0  0  0  0
  137.7790   70.8894  224.2529 H   0  0  0  0  0  0  0  0  0  0  0  0
  138.2215   70.4756  222.5647 H   0  0  0  0  0  0  0  0  0  0  0  0
  138.1700   68.4865  224.1187 H   0  0  0  0  0  0  0  0  0  0  0  0
  139.7727   68.7611  223.3351 H   0  0  0  0  0  0  0  0  0  0  0  0
  139.1912   67.1822  225.9207 H   0  0  0  0  0  0  0  0  0  0  0  0
  140.3199   67.2630  228.1432 H   0  0  0  0  0  0  0  0  0  0  0  0
  141.4748   69.3414  228.8855 H   0  0  0  0  0  0  0  0  0  0  0  0
  141.5038   71.3548  227.4198 H   0  0  0  0  0  0  0  0  0  0  0  0
  139.9143   72.4718  225.5022 H   0  0  0  0  0  0  0  0  0  0  0  0
  141.4612   71.8781  224.7497 H   0  0  0  0  0  0  0  0  0  0  0  0
  140.0884   76.5016  223.5405 H   0  0  0  0  0  0  0  0  0  0  0  0
  141.7479   76.0513  222.9679 H   0  0  0  0  0  0  0  0  0  0  0  0
  1  2  2  0
  2  3  1  0
  3  4  2  0
  4  5  1  0
  5  6  2  0
  5  7  1  0
  7  8  1  0
  8  9  1  0
  9 10  1  0
 10 11  2  0
 11 12  1  0
 12 13  1  0
 13 14  1  0
 14 15  1  0
 15 16  1  0
 16 17  1  0
 17 18  1  0
 18 19  1  0
 19 20  1  0
 20 21  1  0
 12 22  2  0
 22 23  1  0
 23 24  1  0
 24 25  1  0
 25 26  1  0
 26 27  1  0
 27 28  2  0
 28 29  1  0
 29 30  2  0
 30 31  1  0
 31 32  2  0
 32 33  1  0
 23 34  2  0
  9 35  1  0
  6  1  1  0
 34 10  1  0
 35  4  1  0
 21 16  1  0
 33 24  1  0
 32 27  1  0
  1 36  1  0
  2 37  1  0
  3 38  1  0
  6 39  1  0
  7 40  1  0
  7 41  1  0
  8 42  1  0
  8 43  1  0
 13 44  1  0
 14 45  1  0
 14 46  1  0
 15 47  1  0
 15 48  1  0
 16 49  1  0
 17 50  1  0
 17 51  1  0
 18 52  1  0
 18 53  1  0
 20 54  1  0
 20 55  1  0
 21 56  1  0
 21 57  1  0
 25 58  1  0
 25 59  1  0
 26 60  1  0
 26 61  1  0
 28 62  1  0
 29 63  1  0
 30 64  1  0
 31 65  1  0
 33 66  1  0
 33 67  1  0
 35 68  1  0
 35 69  1  0
M  CHG  1  16   1
M  END
>  <UniqueID>  (26) 
283

>  <SMILES>  (26) 
c1ccc2c(c1)CCN(c1nc(NCC[NH+]3CCOCC3)nc(N3CCc4ccccc4C3)n1)C2

>  <Energy>  (26) 
90.44437712389667

>  <Genealogy>  (26) 
c1ccc2c(c1)CCN(c1nc(NCC[NH+]3CCOCC3)nc(N3CCc4ccccc4C3)n1)C2 (protonated)
c1ccc2c(c1)CCN(c1nc(NCC[NH+]3CCOCC3)nc(N3CCc4ccccc4C3)n1)C2 (3D coordinates assigned)
c1ccc2c(c1)CCN(c1nc(NCC[NH+]3CCOCC3)nc(N3CCc4ccccc4C3)n1)C2 (nonaromatic ring conformer: 90.44437712389667 kcal/mol)

>  <smiles>  (26) 
c1ccc2c(c1)CCN(c1nc(NCCN3CCOCC3)nc(N3CCc4ccccc4C3)n1)C2

>  <score_type>  (26) 
oracle

>  <origin>  (26) 
autodockgpu

>  <m_score__min__energy>  (26) 
-9.0199999999999996

>  <m_primary>  (26) 
energy

>  <meeko>  (26) 
{"free_energy": -8.33, "intermolecular_energy": -10.12, "internal_energy": -2.53, "cluster_size": 8, "cluster_id": 2, "rank_in_cluster": 8}

>  <energy>  (26) 
-8.73

>  <cluster_rmsd>  (26) 
1.2

>  <rmsd>  (26) 
271.37

>  <cluster>  (26) 
2

$$$$
XKJAOWLAVYPRNA-QTZDNFDFNA-O
     RDKit          3D

 69 74  0  0  0  0  0  0  0  0999 V2000
  142.2970   80.7810  222.4870 C   0  0  0  0  0  0  0  0  0  0  0  0
  142.1800   80.1270  223.7160 C   0  0  0  0  0  0  0  0  0  0  0  0
  141.6720   78.8290  223.7730 C   0  0  0  0  0  0  0  0  0  0  0  0
  141.2880   78.1630  222.5960 C   0  0  0  0  0  0  0  0  0  0  0  0
  141.3990   78.8300  221.3500 C   0  0  0  0  0  0  0  0  0  0  0  0
  141.9150   80.1340  221.3080 C   0  0  0  0  0  0  0  0  0  0  0  0
  141.0810   78.1280  220.0500 C   0  0  0  0  0  0  0  0  0  0  0  0
  140.1240   76.9550  220.2550 C   0  0  0  0  0  0  0  0  0  0  0  0
  140.5770   76.1420  221.3820 N   0  0  0  0  0  0  0  0  0  0  0  0
  140.5550   74.7170  221.2800 C   0  0  0  0  0  0  0  0  0  0  0  0
  140.9650   74.1150  220.1360 N   0  0  0  0  0  0  0  0  0  0  0  0
  140.9640   72.7630  220.0400 C   0  0  0  0  0  0  0  0  0  0  0  0
  141.4660   72.1300  218.8570 N   0  0  0  0  0  0  0  0  0  0  0  0
  142.7750   71.4810  218.8140 C   0  0  0  0  0  0  0  0  0  0  0  0
  143.8510   72.4760  218.3380 C   0  0  0  0  0  0  0  0  0  0  0  0
  143.4100   73.8870  218.4360 N   0  0  0  0  0  0  0  0  0  0  0  0
  144.0750   74.5360  219.5860 C   0  0  0  0  0  0  0  0  0  0  0  0
  143.6380   76.0120  219.7190 C   0  0  0  0  0  0  0  0  0  0  0  0
  142.9430   76.4820  218.5780 O   0  0  0  0  0  0  0  0  0  0  0  0
  143.6730   76.1640  217.4140 C   0  0  0  0  0  0  0  0  0  0  0  0
  143.6970   74.6390  217.1890 C   0  0  0  0  0  0  0  0  0  0  0  0
  140.5370   72.0170  221.0900 N   0  0  0  0  0  0  0  0  0  0  0  0
  140.1320   72.6070  222.2420 C   0  0  0  0  0  0  0  0  0  0  0  0
  139.7280   71.8050  223.3690 N   0  0  0  0  0  0  0  0  0  0  0  0
  138.5010   71.0020  223.3240 C   0  0  0  0  0  0  0  0  0  0  0  0
  138.8300   69.5670  223.7150 C   0  0  0  0  0  0  0  0  0  0  0  0
  139.5510   69.5300  225.0370 C   0  0  0  0  0  0  0  0  0  0  0  0
  139.4690   68.3770  225.8350 C   0  0  0  0  0  0  0  0  0  0  0  0
  140.1610   68.3110  227.0450 C   0  0  0  0  0  0  0  0  0  0  0  0
  140.9450   69.3860  227.4650 C   0  0  0  0  0  0  0  0  0  0  0  0
  141.0430   70.5340  226.6780 C   0  0  0  0  0  0  0  0  0  0  0  0
  140.3590   70.6140  225.4550 C   0  0  0  0  0  0  0  0  0  0  0  0
  140.4850   71.8760  224.6280 C   0  0  0  0  0  0  0  0  0  0  0  0
  140.1520   73.9620  222.3360 N   0  0  0  0  0  0  0  0  0  0  0  0
  140.7250   76.7640  222.7010 C   0  0  0  0  0  0  0  0  0  0  0  0
  142.6906   81.8074  222.4469 H   0  0  0  0  0  0  0  0  0  0  0  0
  142.4890   80.6366  224.6406 H   0  0  0  0  0  0  0  0  0  0  0  0
  141.5713   78.3236  224.7448 H   0  0  0  0  0  0  0  0  0  0  0  0
  142.0195   80.6501  220.3422 H   0  0  0  0  0  0  0  0  0  0  0  0
  140.6172   78.8490  219.3607 H   0  0  0  0  0  0  0  0  0  0  0  0
  142.0209   77.7328  219.6373 H   0  0  0  0  0  0  0  0  0  0  0  0
  139.1143   77.3387  220.4632 H   0  0  0  0  0  0  0  0  0  0  0  0
  140.1036   76.3376  219.3448 H   0  0  0  0  0  0  0  0  0  0  0  0
  140.8770   72.1330  217.9960 H   0  0  0  0  0  0  0  0  0  0  0  0
  143.0343   71.1204  219.8203 H   0  0  0  0  0  0  0  0  0  0  0  0
  142.7324   70.6368  218.1100 H   0  0  0  0  0  0  0  0  0  0  0  0
  144.7502   72.3447  218.9578 H   0  0  0  0  0  0  0  0  0  0  0  0
  144.0527   72.2644  217.2776 H   0  0  0  0  0  0  0  0  0  0  0  0
  142.3760   73.8970  218.6130 H   0  0  0  0  0  0  0  0  0  0  0  0
  143.8073   73.9974  220.5070 H   0  0  0  0  0  0  0  0  0  0  0  0
  145.1626   74.5063  219.4238 H   0  0  0  0  0  0  0  0  0  0  0  0
  142.9799   76.1064  220.5954 H   0  0  0  0  0  0  0  0  0  0  0  0
  144.5488   76.6194  219.8264 H   0  0  0  0  0  0  0  0  0  0  0  0
  143.2013   76.6500  216.5472 H   0  0  0  0  0  0  0  0  0  0  0  0
  144.7064   76.5213  217.5345 H   0  0  0  0  0  0  0  0  0  0  0  0
  142.9387   74.3795  216.4356 H   0  0  0  0  0  0  0  0  0  0  0  0
  144.7063   74.3620  216.8506 H   0  0  0  0  0  0  0  0  0  0  0  0
  137.7639   71.4158  224.0279 H   0  0  0  0  0  0  0  0  0  0  0  0
  138.0818   71.0223  222.3072 H   0  0  0  0  0  0  0  0  0  0  0  0
  137.8962   68.9913  223.7962 H   0  0  0  0  0  0  0  0  0  0  0  0
  139.4808   69.1295  222.9436 H   0  0  0  0  0  0  0  0  0  0  0  0
  138.8578   67.5239  225.5053 H   0  0  0  0  0  0  0  0  0  0  0  0
  140.0881   67.4085  227.6697 H   0  0  0  0  0  0  0  0  0  0  0  0
  141.4878   69.3283  228.4200 H   0  0  0  0  0  0  0  0  0  0  0  0
  141.6589   71.3798  227.0174 H   0  0  0  0  0  0  0  0  0  0  0  0
  140.1074   72.7236  225.2188 H   0  0  0  0  0  0  0  0  0  0  0  0
  141.5473   72.0016  224.3715 H   0  0  0  0  0  0  0  0  0  0  0  0
  139.7389   76.8114  223.1861 H   0  0  0  0  0  0  0  0  0  0  0  0
  141.4245   76.1549  223.2923 H   0  0  0  0  0  0  0  0  0  0  0  0
  1  2  2  0
  2  3  1  0
  3  4  2  0
  4  5  1  0
  5  6  2  0
  5  7  1  0
  7  8  1  0
  8  9  1  0
  9 10  1  0
 10 11  2  0
 11 12  1  0
 12 13  1  0
 13 14  1  0
 14 15  1  0
 15 16  1  0
 16 17  1  0
 17 18  1  0
 18 19  1  0
 19 20  1  0
 20 21  1  0
 12 22  2  0
 22 23  1  0
 23 24  1  0
 24 25  1  0
 25 26  1  0
 26 27  1  0
 27 28  2  0
 28 29  1  0
 29 30  2  0
 30 31  1  0
 31 32  2  0
 32 33  1  0
 23 34  2  0
  9 35  1  0
  6  1  1  0
 34 10  1  0
 35  4  1  0
 21 16  1  0
 33 24  1  0
 32 27  1  0
  1 36  1  0
  2 37  1  0
  3 38  1  0
  6 39  1  0
  7 40  1  0
  7 41  1  0
  8 42  1  0
  8 43  1  0
 13 44  1  0
 14 45  1  0
 14 46  1  0
 15 47  1  0
 15 48  1  0
 16 49  1  0
 17 50  1  0
 17 51  1  0
 18 52  1  0
 18 53  1  0
 20 54  1  0
 20 55  1  0
 21 56  1  0
 21 57  1  0
 25 58  1  0
 25 59  1  0
 26 60  1  0
 26 61  1  0
 28 62  1  0
 29 63  1  0
 30 64  1  0
 31 65  1  0
 33 66  1  0
 33 67  1  0
 35 68  1  0
 35 69  1  0
M  CHG  1  16   1
M  END
>  <UniqueID>  (27) 
283

>  <SMILES>  (27) 
c1ccc2c(c1)CCN(c1nc(NCC[NH+]3CCOCC3)nc(N3CCc4ccccc4C3)n1)C2

>  <Energy>  (27) 
90.44437712389667

>  <Genealogy>  (27) 
c1ccc2c(c1)CCN(c1nc(NCC[NH+]3CCOCC3)nc(N3CCc4ccccc4C3)n1)C2 (protonated)
c1ccc2c(c1)CCN(c1nc(NCC[NH+]3CCOCC3)nc(N3CCc4ccccc4C3)n1)C2 (3D coordinates assigned)
c1ccc2c(c1)CCN(c1nc(NCC[NH+]3CCOCC3)nc(N3CCc4ccccc4C3)n1)C2 (nonaromatic ring conformer: 90.44437712389667 kcal/mol)

>  <smiles>  (27) 
c1ccc2c(c1)CCN(c1nc(NCCN3CCOCC3)nc(N3CCc4ccccc4C3)n1)C2

>  <score_type>  (27) 
oracle

>  <origin>  (27) 
autodockgpu

>  <m_score__min__energy>  (27) 
-9.0199999999999996

>  <m_primary>  (27) 
energy

>  <meeko>  (27) 
{"free_energy": -8.75, "intermolecular_energy": -10.54, "internal_energy": -2.41, "cluster_size": 8, "cluster_id": 2, "rank_in_cluster": 3}

>  <energy>  (27) 
-8.73

>  <cluster_rmsd>  (27) 
1.05

>  <rmsd>  (27) 
271.24

>  <cluster>  (27) 
2

$$$$
XKJAOWLAVYPRNA-QTZDNFDFNA-O
     RDKit          3D

 69 74  0  0  0  0  0  0  0  0999 V2000
  145.2170   66.5340  218.2110 C   0  0  0  0  0  0  0  0  0  0  0  0
  146.0430   67.1660  219.1440 C   0  0  0  0  0  0  0  0  0  0  0  0
  145.6630   68.3870  219.7030 C   0  0  0  0  0  0  0  0  0  0  0  0
  144.4410   68.9820  219.3450 C   0  0  0  0  0  0  0  0  0  0  0  0
  143.6070   68.3460  218.3920 C   0  0  0  0  0  0  0  0  0  0  0  0
  144.0020   67.1170  217.8410 C   0  0  0  0  0  0  0  0  0  0  0  0
  142.2470   68.9020  218.0380 C   0  0  0  0  0  0  0  0  0  0  0  0
  142.1550   70.4010  218.3160 C   0  0  0  0  0  0  0  0  0  0  0  0
  142.6900   70.6870  219.6470 N   0  0  0  0  0  0  0  0  0  0  0  0
  142.0030   71.6010  220.5040 C   0  0  0  0  0  0  0  0  0  0  0  0
  141.9030   72.9090  220.1560 N   0  0  0  0  0  0  0  0  0  0  0  0
  141.2370   73.7760  220.9550 C   0  0  0  0  0  0  0  0  0  0  0  0
  141.0720   75.1400  220.5490 N   0  0  0  0  0  0  0  0  0  0  0  0
  142.2070   76.0050  220.2330 C   0  0  0  0  0  0  0  0  0  0  0  0
  142.7140   75.7240  218.8040 C   0  0  0  0  0  0  0  0  0  0  0  0
  143.9780   74.9510  218.7870 N   0  0  0  0  0  0  0  0  0  0  0  0
  144.3160   74.5230  220.1610 C   0  0  0  0  0  0  0  0  0  0  0  0
  145.6310   73.7120  220.1810 C   0  0  0  0  0  0  0  0  0  0  0  0
  146.0560   73.3240  218.8870 O   0  0  0  0  0  0  0  0  0  0  0  0
  144.9810   72.7280  218.1950 C   0  0  0  0  0  0  0  0  0  0  0  0
  143.8860   73.7710  217.8910 C   0  0  0  0  0  0  0  0  0  0  0  0
  140.6810   73.3320  222.1110 N   0  0  0  0  0  0  0  0  0  0  0  0
  140.7680   72.0260  222.4660 C   0  0  0  0  0  0  0  0  0  0  0  0
  140.1320   71.5540  223.6690 N   0  0  0  0  0  0  0  0  0  0  0  0
  138.8470   70.8470  223.6180 C   0  0  0  0  0  0  0  0  0  0  0  0
  138.9700   69.5340  224.3810 C   0  0  0  0  0  0  0  0  0  0  0  0
  139.4930   69.7760  225.7730 C   0  0  0  0  0  0  0  0  0  0  0  0
  139.1830   68.8640  226.7940 C   0  0  0  0  0  0  0  0  0  0  0  0
  139.6910   69.0520  228.0810 C   0  0  0  0  0  0  0  0  0  0  0  0
  140.5150   70.1430  228.3570 C   0  0  0  0  0  0  0  0  0  0  0  0
  140.8380   71.0530  227.3500 C   0  0  0  0  0  0  0  0  0  0  0  0
  140.3420   70.8740  226.0480 C   0  0  0  0  0  0  0  0  0  0  0  0
  140.7100   71.8830  224.9810 C   0  0  0  0  0  0  0  0  0  0  0  0
  141.4230   71.1590  221.6500 N   0  0  0  0  0  0  0  0  0  0  0  0
  144.0720   70.3140  219.9590 C   0  0  0  0  0  0  0  0  0  0  0  0
  145.5237   65.5756  217.7668 H   0  0  0  0  0  0  0  0  0  0  0  0
  146.9949   66.7001  219.4386 H   0  0  0  0  0  0  0  0  0  0  0  0
  146.3232   68.8863  220.4275 H   0  0  0  0  0  0  0  0  0  0  0  0
  143.3513   66.6096  217.1136 H   0  0  0  0  0  0  0  0  0  0  0  0
  142.0583   68.7263  216.9686 H   0  0  0  0  0  0  0  0  0  0  0  0
  141.4975   68.3928  218.6617 H   0  0  0  0  0  0  0  0  0  0  0  0
  142.7378   70.9497  217.5615 H   0  0  0  0  0  0  0  0  0  0  0  0
  141.1024   70.7172  218.2697 H   0  0  0  0  0  0  0  0  0  0  0  0
  140.1070   75.5310  220.4770 H   0  0  0  0  0  0  0  0  0  0  0  0
  141.8929   77.0567  220.3061 H   0  0  0  0  0  0  0  0  0  0  0  0
  143.0195   75.8033  220.9465 H   0  0  0  0  0  0  0  0  0  0  0  0
  141.9448   75.1526  218.2638 H   0  0  0  0  0  0  0  0  0  0  0  0
  142.9117   76.6943  218.3250 H   0  0  0  0  0  0  0  0  0  0  0  0
  144.7450   75.5810  218.4470 H   0  0  0  0  0  0  0  0  0  0  0  0
  144.4328   75.4132  220.7965 H   0  0  0  0  0  0  0  0  0  0  0  0
  143.5043   73.8836  220.5384 H   0  0  0  0  0  0  0  0  0  0  0  0
  146.4178   74.3294  220.6390 H   0  0  0  0  0  0  0  0  0  0  0  0
  145.4453   72.7940  220.7578 H   0  0  0  0  0  0  0  0  0  0  0  0
  145.3501   72.3051  217.2490 H   0  0  0  0  0  0  0  0  0  0  0  0
  144.5505   71.9349  218.8240 H   0  0  0  0  0  0  0  0  0  0  0  0
  143.9948   74.1068  216.8492 H   0  0  0  0  0  0  0  0  0  0  0  0
  142.9081   73.2949  218.0555 H   0  0  0  0  0  0  0  0  0  0  0  0
  138.0657   71.4691  224.0790 H   0  0  0  0  0  0  0  0  0  0  0  0
  138.5772   70.6435  222.5712 H   0  0  0  0  0  0  0  0  0  0  0  0
  137.9800   69.0587  224.4444 H   0  0  0  0  0  0  0  0  0  0  0  0
  139.6736   68.8784  223.8470 H   0  0  0  0  0  0  0  0  0  0  0  0
  138.5382   67.9989  226.5797 H   0  0  0  0  0  0  0  0  0  0  0  0
  139.4407   68.3378  228.8793 H   0  0  0  0  0  0  0  0  0  0  0  0
  140.9118   70.2865  229.3728 H   0  0  0  0  0  0  0  0  0  0  0  0
  141.4837   71.9142  227.5765 H   0  0  0  0  0  0  0  0  0  0  0  0
  140.3423   72.8726  225.2900 H   0  0  0  0  0  0  0  0  0  0  0  0
  141.8049   71.8723  224.8753 H   0  0  0  0  0  0  0  0  0  0  0  0
  144.7480   71.0877  219.5661 H   0  0  0  0  0  0  0  0  0  0  0  0
  144.1669   70.2275  221.0515 H   0  0  0  0  0  0  0  0  0  0  0  0
  1  2  2  0
  2  3  1  0
  3  4  2  0
  4  5  1  0
  5  6  2  0
  5  7  1  0
  7  8  1  0
  8  9  1  0
  9 10  1  0
 10 11  2  0
 11 12  1  0
 12 13  1  0
 13 14  1  0
 14 15  1  0
 15 16  1  0
 16 17  1  0
 17 18  1  0
 18 19  1  0
 19 20  1  0
 20 21  1  0
 12 22  2  0
 22 23  1  0
 23 24  1  0
 24 25  1  0
 25 26  1  0
 26 27  1  0
 27 28  2  0
 28 29  1  0
 29 30  2  0
 30 31  1  0
 31 32  2  0
 32 33  1  0
 23 34  2  0
  9 35  1  0
  6  1  1  0
 34 10  1  0
 35  4  1  0
 21 16  1  0
 33 24  1  0
 32 27  1  0
  1 36  1  0
  2 37  1  0
  3 38  1  0
  6 39  1  0
  7 40  1  0
  7 41  1  0
  8 42  1  0
  8 43  1  0
 13 44  1  0
 14 45  1  0
 14 46  1  0
 15 47  1  0
 15 48  1  0
 16 49  1  0
 17 50  1  0
 17 51  1  0
 18 52  1  0
 18 53  1  0
 20 54  1  0
 20 55  1  0
 21 56  1  0
 21 57  1  0
 25 58  1  0
 25 59  1  0
 26 60  1  0
 26 61  1  0
 28 62  1  0
 29 63  1  0
 30 64  1  0
 31 65  1  0
 33 66  1  0
 33 67  1  0
 35 68  1  0
 35 69  1  0
M  CHG  1  16   1
M  END
>  <UniqueID>  (28) 
283

>  <SMILES>  (28) 
c1ccc2c(c1)CCN(c1nc(NCC[NH+]3CCOCC3)nc(N3CCc4ccccc4C3)n1)C2

>  <Energy>  (28) 
90.44437712389667

>  <Genealogy>  (28) 
c1ccc2c(c1)CCN(c1nc(NCC[NH+]3CCOCC3)nc(N3CCc4ccccc4C3)n1)C2 (protonated)
c1ccc2c(c1)CCN(c1nc(NCC[NH+]3CCOCC3)nc(N3CCc4ccccc4C3)n1)C2 (3D coordinates assigned)
c1ccc2c(c1)CCN(c1nc(NCC[NH+]3CCOCC3)nc(N3CCc4ccccc4C3)n1)C2 (nonaromatic ring conformer: 90.44437712389667 kcal/mol)

>  <smiles>  (28) 
c1ccc2c(c1)CCN(c1nc(NCCN3CCOCC3)nc(N3CCc4ccccc4C3)n1)C2

>  <score_type>  (28) 
oracle

>  <origin>  (28) 
autodockgpu

>  <m_score__min__energy>  (28) 
-9.0199999999999996

>  <m_primary>  (28) 
energy

>  <meeko>  (28) 
{"free_energy": -9.01, "intermolecular_energy": -10.8, "internal_energy": -1.57, "cluster_size": 2, "cluster_id": 1, "rank_in_cluster": 2}

>  <energy>  (28) 
-8.73

>  <cluster_rmsd>  (28) 
1.08

>  <rmsd>  (28) 
271.23

>  <cluster>  (28) 
2

$$$$
XKJAOWLAVYPRNA-QTZDNFDFNA-O
     RDKit          3D

 69 74  0  0  0  0  0  0  0  0999 V2000
  141.6010   80.5130  221.6960 C   0  0  0  0  0  0  0  0  0  0  0  0
  141.8420   80.0270  222.9830 C   0  0  0  0  0  0  0  0  0  0  0  0
  141.5740   78.6930  223.2900 C   0  0  0  0  0  0  0  0  0  0  0  0
  141.0740   77.8240  222.3040 C   0  0  0  0  0  0  0  0  0  0  0  0
  140.8220   78.3190  221.0000 C   0  0  0  0  0  0  0  0  0  0  0  0
  141.0990   79.6630  220.7070 C   0  0  0  0  0  0  0  0  0  0  0  0
  140.3660   77.4060  219.8850 C   0  0  0  0  0  0  0  0  0  0  0  0
  139.6740   76.1540  220.4200 C   0  0  0  0  0  0  0  0  0  0  0  0
  140.4720   75.5750  221.5000 N   0  0  0  0  0  0  0  0  0  0  0  0
  140.6610   74.1600  221.5590 C   0  0  0  0  0  0  0  0  0  0  0  0
  141.3180   73.5250  220.5560 N   0  0  0  0  0  0  0  0  0  0  0  0
  141.5170   72.1860  220.6150 C   0  0  0  0  0  0  0  0  0  0  0  0
  142.2730   71.5300  219.5910 N   0  0  0  0  0  0  0  0  0  0  0  0
  143.7290   71.4060  219.6510 C   0  0  0  0  0  0  0  0  0  0  0  0
  144.3670   72.7570  220.0290 C   0  0  0  0  0  0  0  0  0  0  0  0
  143.6890   73.9090  219.3900 N   0  0  0  0  0  0  0  0  0  0  0  0
  144.0620   75.1550  220.0920 C   0  0  0  0  0  0  0  0  0  0  0  0
  143.3730   76.3800  219.4500 C   0  0  0  0  0  0  0  0  0  0  0  0
  142.7840   76.0840  218.1970 O   0  0  0  0  0  0  0  0  0  0  0  0
  143.7190   75.4130  217.3820 C   0  0  0  0  0  0  0  0  0  0  0  0
  144.0270   74.0130  217.9480 C   0  0  0  0  0  0  0  0  0  0  0  0
  141.0440   71.4830  221.6760 N   0  0  0  0  0  0  0  0  0  0  0  0
  140.3930   72.1090  222.6880 C   0  0  0  0  0  0  0  0  0  0  0  0
  139.9400   71.3630  223.8340 N   0  0  0  0  0  0  0  0  0  0  0  0
  138.7560   70.4990  223.7530 C   0  0  0  0  0  0  0  0  0  0  0  0
  139.1160   69.1110  224.2640 C   0  0  0  0  0  0  0  0  0  0  0  0
  139.7350   69.1940  225.6350 C   0  0  0  0  0  0  0  0  0  0  0  0
  139.6410   68.0930  226.5010 C   0  0  0  0  0  0  0  0  0  0  0  0
  140.2410   68.1370  227.7610 C   0  0  0  0  0  0  0  0  0  0  0  0
  140.9420   69.2750  228.1630 C   0  0  0  0  0  0  0  0  0  0  0  0
  141.0510   70.3730  227.3100 C   0  0  0  0  0  0  0  0  0  0  0  0
  140.4600   70.3410  226.0370 C   0  0  0  0  0  0  0  0  0  0  0  0
  140.5940   71.5520  225.1380 C   0  0  0  0  0  0  0  0  0  0  0  0
  140.2130   73.4540  222.6300 N   0  0  0  0  0  0  0  0  0  0  0  0
  140.7800   76.3890  222.6790 C   0  0  0  0  0  0  0  0  0  0  0  0
  141.8069   81.5675  221.4603 H   0  0  0  0  0  0  0  0  0  0  0  0
  142.2441   80.6979  223.7564 H   0  0  0  0  0  0  0  0  0  0  0  0
  141.7547   78.3189  224.3085 H   0  0  0  0  0  0  0  0  0  0  0  0
  140.9199   80.0497  219.6929 H   0  0  0  0  0  0  0  0  0  0  0  0
  139.6616   77.9543  219.2422 H   0  0  0  0  0  0  0  0  0  0  0  0
  141.2547   77.0887  219.3197 H   0  0  0  0  0  0  0  0  0  0  0  0
  138.6785   76.4218  220.8037 H   0  0  0  0  0  0  0  0  0  0  0  0
  139.5707   75.4190  219.6081 H   0  0  0  0  0  0  0  0  0  0  0  0
  141.7680   71.1270  218.7710 H   0  0  0  0  0  0  0  0  0  0  0  0
  143.9980   70.6537  220.4071 H   0  0  0  0  0  0  0  0  0  0  0  0
  144.1024   71.0985  218.6631 H   0  0  0  0  0  0  0  0  0  0  0  0
  144.3128   72.8784  221.1209 H   0  0  0  0  0  0  0  0  0  0  0  0
  145.4073   72.7443  219.6719 H   0  0  0  0  0  0  0  0  0  0  0  0
  142.6530   73.7790  219.4920 H   0  0  0  0  0  0  0  0  0  0  0  0
  143.7542   75.0803  221.1454 H   0  0  0  0  0  0  0  0  0  0  0  0
  145.1515   75.2866  220.0171 H   0  0  0  0  0  0  0  0  0  0  0  0
  142.5877   76.7388  220.1315 H   0  0  0  0  0  0  0  0  0  0  0  0
  144.1462   77.1438  219.2803 H   0  0  0  0  0  0  0  0  0  0  0  0
  143.3059   75.3099  216.3677 H   0  0  0  0  0  0  0  0  0  0  0  0
  144.6505   75.9976  217.3563 H   0  0  0  0  0  0  0  0  0  0  0  0
  143.4400   73.2678  217.3911 H   0  0  0  0  0  0  0  0  0  0  0  0
  145.1065   73.8323  217.8383 H   0  0  0  0  0  0  0  0  0  0  0  0
  137.9492   70.9209  224.3703 H   0  0  0  0  0  0  0  0  0  0  0  0
  138.4164   70.4328  222.7088 H   0  0  0  0  0  0  0  0  0  0  0  0
  138.2046   68.4973  224.3156 H   0  0  0  0  0  0  0  0  0  0  0  0
  139.8425   68.6568  223.5741 H   0  0  0  0  0  0  0  0  0  0  0  0
  139.0929   67.1928  226.1859 H   0  0  0  0  0  0  0  0  0  0  0  0
  140.1611   67.2735  228.4378 H   0  0  0  0  0  0  0  0  0  0  0  0
  141.4109   69.3060  229.1576 H   0  0  0  0  0  0  0  0  0  0  0  0
  141.6021   71.2675  227.6359 H   0  0  0  0  0  0  0  0  0  0  0  0
  140.1351   72.4163  225.6404 H   0  0  0  0  0  0  0  0  0  0  0  0
  141.6663   71.7128  224.9530 H   0  0  0  0  0  0  0  0  0  0  0  0
  139.9181   76.3681  223.3622 H   0  0  0  0  0  0  0  0  0  0  0  0
  141.6749   75.9696  223.1621 H   0  0  0  0  0  0  0  0  0  0  0  0
  1  2  2  0
  2  3  1  0
  3  4  2  0
  4  5  1  0
  5  6  2  0
  5  7  1  0
  7  8  1  0
  8  9  1  0
  9 10  1  0
 10 11  2  0
 11 12  1  0
 12 13  1  0
 13 14  1  0
 14 15  1  0
 15 16  1  0
 16 17  1  0
 17 18  1  0
 18 19  1  0
 19 20  1  0
 20 21  1  0
 12 22  2  0
 22 23  1  0
 23 24  1  0
 24 25  1  0
 25 26  1  0
 26 27  1  0
 27 28  2  0
 28 29  1  0
 29 30  2  0
 30 31  1  0
 31 32  2  0
 32 33  1  0
 23 34  2  0
  9 35  1  0
  6  1  1  0
 34 10  1  0
 35  4  1  0
 21 16  1  0
 33 24  1  0
 32 27  1  0
  1 36  1  0
  2 37  1  0
  3 38  1  0
  6 39  1  0
  7 40  1  0
  7 41  1  0
  8 42  1  0
  8 43  1  0
 13 44  1  0
 14 45  1  0
 14 46  1  0
 15 47  1  0
 15 48  1  0
 16 49  1  0
 17 50  1  0
 17 51  1  0
 18 52  1  0
 18 53  1  0
 20 54  1  0
 20 55  1  0
 21 56  1  0
 21 57  1  0
 25 58  1  0
 25 59  1  0
 26 60  1  0
 26 61  1  0
 28 62  1  0
 29 63  1  0
 30 64  1  0
 31 65  1  0
 33 66  1  0
 33 67  1  0
 35 68  1  0
 35 69  1  0
M  CHG  1  16   1
M  END
>  <UniqueID>  (29) 
283

>  <SMILES>  (29) 
c1ccc2c(c1)CCN(c1nc(NCC[NH+]3CCOCC3)nc(N3CCc4ccccc4C3)n1)C2

>  <Energy>  (29) 
90.44437712389667

>  <Genealogy>  (29) 
c1ccc2c(c1)CCN(c1nc(NCC[NH+]3CCOCC3)nc(N3CCc4ccccc4C3)n1)C2 (protonated)
c1ccc2c(c1)CCN(c1nc(NCC[NH+]3CCOCC3)nc(N3CCc4ccccc4C3)n1)C2 (3D coordinates assigned)
c1ccc2c(c1)CCN(c1nc(NCC[NH+]3CCOCC3)nc(N3CCc4ccccc4C3)n1)C2 (nonaromatic ring conformer: 90.44437712389667 kcal/mol)

>  <smiles>  (29) 
c1ccc2c(c1)CCN(c1nc(NCCN3CCOCC3)nc(N3CCc4ccccc4C3)n1)C2

>  <score_type>  (29) 
oracle

>  <origin>  (29) 
autodockgpu

>  <m_score__min__energy>  (29) 
-9.0199999999999996

>  <m_primary>  (29) 
energy

>  <meeko>  (29) 
{"free_energy": -8.73, "intermolecular_energy": -10.52, "internal_energy": -2.42, "cluster_size": 8, "cluster_id": 2, "rank_in_cluster": 4}

>  <energy>  (29) 
-8.72

>  <cluster_rmsd>  (29) 
1.13

>  <rmsd>  (29) 
271.15

>  <cluster>  (29) 
2

$$$$
XKJAOWLAVYPRNA-QTZDNFDFNA-O
     RDKit          3D

 69 74  0  0  0  0  0  0  0  0999 V2000
  142.4800   80.7220  222.6530 C   0  0  0  0  0  0  0  0  0  0  0  0
  142.1980   80.0790  223.8610 C   0  0  0  0  0  0  0  0  0  0  0  0
  141.6260   78.8070  223.8600 C   0  0  0  0  0  0  0  0  0  0  0  0
  141.3430   78.1550  222.6480 C   0  0  0  0  0  0  0  0  0  0  0  0
  141.6200   78.8110  221.4220 C   0  0  0  0  0  0  0  0  0  0  0  0
  142.1980   80.0900  221.4390 C   0  0  0  0  0  0  0  0  0  0  0  0
  141.4130   78.1200  220.0940 C   0  0  0  0  0  0  0  0  0  0  0  0
  140.3850   76.9950  220.1910 C   0  0  0  0  0  0  0  0  0  0  0  0
  140.6740   76.1650  221.3600 N   0  0  0  0  0  0  0  0  0  0  0  0
  140.5960   74.7420  221.2550 C   0  0  0  0  0  0  0  0  0  0  0  0
  140.9480   74.1310  220.0960 N   0  0  0  0  0  0  0  0  0  0  0  0
  140.8930   72.7810  219.9950 C   0  0  0  0  0  0  0  0  0  0  0  0
  141.3340   72.1350  218.7950 N   0  0  0  0  0  0  0  0  0  0  0  0
  141.6730   72.8810  217.5850 C   0  0  0  0  0  0  0  0  0  0  0  0
  142.7910   73.9000  217.8780 C   0  0  0  0  0  0  0  0  0  0  0  0
  143.5330   73.5930  219.1230 N   0  0  0  0  0  0  0  0  0  0  0  0
  144.6270   72.6450  218.8260 C   0  0  0  0  0  0  0  0  0  0  0  0
  145.4250   72.3010  220.1050 C   0  0  0  0  0  0  0  0  0  0  0  0
  145.1240   73.1630  221.1870 O   0  0  0  0  0  0  0  0  0  0  0  0
  145.2030   74.5050  220.7590 C   0  0  0  0  0  0  0  0  0  0  0  0
  144.0780   74.8210  219.7540 C   0  0  0  0  0  0  0  0  0  0  0  0
  140.4720   72.0460  221.0560 N   0  0  0  0  0  0  0  0  0  0  0  0
  140.1260   72.6450  222.2220 C   0  0  0  0  0  0  0  0  0  0  0  0
  139.7290   71.8540  223.3580 N   0  0  0  0  0  0  0  0  0  0  0  0
  138.4650   71.1070  223.3550 C   0  0  0  0  0  0  0  0  0  0  0  0
  138.7430   69.6560  223.7250 C   0  0  0  0  0  0  0  0  0  0  0  0
  139.5110   69.5750  225.0180 C   0  0  0  0  0  0  0  0  0  0  0  0
  139.4060   68.4220  225.8110 C   0  0  0  0  0  0  0  0  0  0  0  0
  140.1400   68.3140  226.9940 C   0  0  0  0  0  0  0  0  0  0  0  0
  140.9880   69.3490  227.3900 C   0  0  0  0  0  0  0  0  0  0  0  0
  141.1080   70.4980  226.6070 C   0  0  0  0  0  0  0  0  0  0  0  0
  140.3830   70.6190  225.4110 C   0  0  0  0  0  0  0  0  0  0  0  0
  140.5350   71.8800  224.5880 C   0  0  0  0  0  0  0  0  0  0  0  0
  140.2000   73.9980  222.3200 N   0  0  0  0  0  0  0  0  0  0  0  0
  140.7070   76.7840  222.6880 C   0  0  0  0  0  0  0  0  0  0  0  0
  142.9250   81.7280  222.6576 H   0  0  0  0  0  0  0  0  0  0  0  0
  142.4275   80.5770  224.8146 H   0  0  0  0  0  0  0  0  0  0  0  0
  141.3949   78.3110  224.8143 H   0  0  0  0  0  0  0  0  0  0  0  0
  142.4303   80.5977  220.4912 H   0  0  0  0  0  0  0  0  0  0  0  0
  141.0623   78.8597  219.3592 H   0  0  0  0  0  0  0  0  0  0  0  0
  142.3726   77.6790  219.7862 H   0  0  0  0  0  0  0  0  0  0  0  0
  139.3780   77.4268  220.2887 H   0  0  0  0  0  0  0  0  0  0  0  0
  140.4341   76.3763  219.2828 H   0  0  0  0  0  0  0  0  0  0  0  0
  141.4150   71.0950  218.7830 H   0  0  0  0  0  0  0  0  0  0  0  0
  142.0161   72.1791  216.8106 H   0  0  0  0  0  0  0  0  0  0  0  0
  140.7802   73.4210  217.2368 H   0  0  0  0  0  0  0  0  0  0  0  0
  143.4993   73.8969  217.0364 H   0  0  0  0  0  0  0  0  0  0  0  0
  142.3175   74.8843  218.0078 H   0  0  0  0  0  0  0  0  0  0  0  0
  142.8740   73.1260  219.7930 H   0  0  0  0  0  0  0  0  0  0  0  0
  144.1992   71.7211  218.4096 H   0  0  0  0  0  0  0  0  0  0  0  0
  145.3100   73.1138  218.1024 H   0  0  0  0  0  0  0  0  0  0  0  0
  145.1868   71.2687  220.4011 H   0  0  0  0  0  0  0  0  0  0  0  0
  146.4932   72.4220  219.8719 H   0  0  0  0  0  0  0  0  0  0  0  0
  145.1059   75.1688  221.6308 H   0  0  0  0  0  0  0  0  0  0  0  0
  146.1736   74.6635  220.2662 H   0  0  0  0  0  0  0  0  0  0  0  0
  143.2646   75.3390  220.2832 H   0  0  0  0  0  0  0  0  0  0  0  0
  144.5013   75.4518  218.9585 H   0  0  0  0  0  0  0  0  0  0  0  0
  137.7745   71.5485  224.0887 H   0  0  0  0  0  0  0  0  0  0  0  0
  138.0092   71.1537  222.3550 H   0  0  0  0  0  0  0  0  0  0  0  0
  137.7876   69.1227  223.8383 H   0  0  0  0  0  0  0  0  0  0  0  0
  139.3441   69.1960  222.9268 H   0  0  0  0  0  0  0  0  0  0  0  0
  138.7435   67.6008  225.4998 H   0  0  0  0  0  0  0  0  0  0  0  0
  140.0495   67.4108  227.6153 H   0  0  0  0  0  0  0  0  0  0  0  0
  141.5640   69.2589  228.3228 H   0  0  0  0  0  0  0  0  0  0  0  0
  141.7737   71.3125  226.9285 H   0  0  0  0  0  0  0  0  0  0  0  0
  140.2189   72.7390  225.1981 H   0  0  0  0  0  0  0  0  0  0  0  0
  141.5915   71.9590  224.2921 H   0  0  0  0  0  0  0  0  0  0  0  0
  139.6773   76.8791  223.0631 H   0  0  0  0  0  0  0  0  0  0  0  0
  141.3093   76.1448  223.3504 H   0  0  0  0  0  0  0  0  0  0  0  0
  1  2  2  0
  2  3  1  0
  3  4  2  0
  4  5  1  0
  5  6  2  0
  5  7  1  0
  7  8  1  0
  8  9  1  0
  9 10  1  0
 10 11  2  0
 11 12  1  0
 12 13  1  0
 13 14  1  0
 14 15  1  0
 15 16  1  0
 16 17  1  0
 17 18  1  0
 18 19  1  0
 19 20  1  0
 20 21  1  0
 12 22  2  0
 22 23  1  0
 23 24  1  0
 24 25  1  0
 25 26  1  0
 26 27  1  0
 27 28  2  0
 28 29  1  0
 29 30  2  0
 30 31  1  0
 31 32  2  0
 32 33  1  0
 23 34  2  0
  9 35  1  0
  6  1  1  0
 34 10  1  0
 35  4  1  0
 21 16  1  0
 33 24  1  0
 32 27  1  0
  1 36  1  0
  2 37  1  0
  3 38  1  0
  6 39  1  0
  7 40  1  0
  7 41  1  0
  8 42  1  0
  8 43  1  0
 13 44  1  0
 14 45  1  0
 14 46  1  0
 15 47  1  0
 15 48  1  0
 16 49  1  0
 17 50  1  0
 17 51  1  0
 18 52  1  0
 18 53  1  0
 20 54  1  0
 20 55  1  0
 21 56  1  0
 21 57  1  0
 25 58  1  0
 25 59  1  0
 26 60  1  0
 26 61  1  0
 28 62  1  0
 29 63  1  0
 30 64  1  0
 31 65  1  0
 33 66  1  0
 33 67  1  0
 35 68  1  0
 35 69  1  0
M  CHG  1  16   1
M  END
>  <UniqueID>  (30) 
283

>  <SMILES>  (30) 
c1ccc2c(c1)CCN(c1nc(NCC[NH+]3CCOCC3)nc(N3CCc4ccccc4C3)n1)C2

>  <Energy>  (30) 
90.44437712389667

>  <Genealogy>  (30) 
c1ccc2c(c1)CCN(c1nc(NCC[NH+]3CCOCC3)nc(N3CCc4ccccc4C3)n1)C2 (protonated)
c1ccc2c(c1)CCN(c1nc(NCC[NH+]3CCOCC3)nc(N3CCc4ccccc4C3)n1)C2 (3D coordinates assigned)
c1ccc2c(c1)CCN(c1nc(NCC[NH+]3CCOCC3)nc(N3CCc4ccccc4C3)n1)C2 (nonaromatic ring conformer: 90.44437712389667 kcal/mol)

>  <smiles>  (30) 
c1ccc2c(c1)CCN(c1nc(NCCN3CCOCC3)nc(N3CCc4ccccc4C3)n1)C2

>  <score_type>  (30) 
oracle

>  <origin>  (30) 
autodockgpu

>  <m_score__min__energy>  (30) 
-9.0199999999999996

>  <m_primary>  (30) 
energy

>  <meeko>  (30) 
{"free_energy": -8.85, "intermolecular_energy": -10.64, "internal_energy": -1.93, "cluster_size": 8, "cluster_id": 2, "rank_in_cluster": 2}

>  <energy>  (30) 
-8.33

>  <cluster_rmsd>  (30) 
1.38

>  <rmsd>  (30) 
271.11

>  <cluster>  (30) 
2

$$$$
XKJAOWLAVYPRNA-QTZDNFDFNA-O
     RDKit          3D

 69 74  0  0  0  0  0  0  0  0999 V2000
  139.6340   69.5710  227.7100 C   0  0  0  0  0  0  0  0  0  0  0  0
  140.6620   70.5160  227.7660 C   0  0  0  0  0  0  0  0  0  0  0  0
  141.0010   71.2500  226.6290 C   0  0  0  0  0  0  0  0  0  0  0  0
  140.3040   71.0570  225.4240 C   0  0  0  0  0  0  0  0  0  0  0  0
  139.2670   70.0920  225.3640 C   0  0  0  0  0  0  0  0  0  0  0  0
  138.9360   69.3630  226.5170 C   0  0  0  0  0  0  0  0  0  0  0  0
  138.4330   69.9070  224.1180 C   0  0  0  0  0  0  0  0  0  0  0  0
  139.1680   70.3790  222.8650 C   0  0  0  0  0  0  0  0  0  0  0  0
  139.7600   71.6940  223.1080 N   0  0  0  0  0  0  0  0  0  0  0  0
  139.6710   72.7060  222.1030 C   0  0  0  0  0  0  0  0  0  0  0  0
  138.8460   72.5320  221.0410 N   0  0  0  0  0  0  0  0  0  0  0  0
  138.7440   73.4960  220.0930 C   0  0  0  0  0  0  0  0  0  0  0  0
  137.8180   73.3400  219.0120 N   0  0  0  0  0  0  0  0  0  0  0  0
  136.6350   74.1870  218.8670 C   0  0  0  0  0  0  0  0  0  0  0  0
  135.8820   74.2900  220.2080 C   0  0  0  0  0  0  0  0  0  0  0  0
  136.6710   74.9800  221.2560 N   0  0  0  0  0  0  0  0  0  0  0  0
  136.9360   76.3730  220.8400 C   0  0  0  0  0  0  0  0  0  0  0  0
  137.7580   77.1250  221.9110 C   0  0  0  0  0  0  0  0  0  0  0  0
  137.8260   76.4250  223.1400 O   0  0  0  0  0  0  0  0  0  0  0  0
  136.5300   76.0280  223.5310 C   0  0  0  0  0  0  0  0  0  0  0  0
  135.9750   74.9610  222.5670 C   0  0  0  0  0  0  0  0  0  0  0  0
  139.4820   74.6290  220.2080 N   0  0  0  0  0  0  0  0  0  0  0  0
  140.3050   74.8170  221.2690 C   0  0  0  0  0  0  0  0  0  0  0  0
  141.0460   76.0450  221.4080 N   0  0  0  0  0  0  0  0  0  0  0  0
  141.8830   76.5500  220.3130 C   0  0  0  0  0  0  0  0  0  0  0  0
  141.5080   77.9970  220.0260 C   0  0  0  0  0  0  0  0  0  0  0  0
  141.5650   78.8210  221.2860 C   0  0  0  0  0  0  0  0  0  0  0  0
  141.7990   80.2020  221.1960 C   0  0  0  0  0  0  0  0  0  0  0  0
  141.8180   80.9880  222.3500 C   0  0  0  0  0  0  0  0  0  0  0  0
  141.5980   80.4040  223.5980 C   0  0  0  0  0  0  0  0  0  0  0  0
  141.3570   79.0340  223.7020 C   0  0  0  0  0  0  0  0  0  0  0  0
  141.3270   78.2320  222.5500 C   0  0  0  0  0  0  0  0  0  0  0  0
  141.0650   76.7480  222.6990 C   0  0  0  0  0  0  0  0  0  0  0  0
  140.3890   73.8530  222.2230 N   0  0  0  0  0  0  0  0  0  0  0  0
  140.7130   71.8590  224.2090 C   0  0  0  0  0  0  0  0  0  0  0  0
  139.3736   68.9896  228.6067 H   0  0  0  0  0  0  0  0  0  0  0  0
  141.2049   70.6814  228.7083 H   0  0  0  0  0  0  0  0  0  0  0  0
  141.8188   71.9842  226.6760 H   0  0  0  0  0  0  0  0  0  0  0  0
  138.1224   68.6236  226.4814 H   0  0  0  0  0  0  0  0  0  0  0  0
  138.1909   68.8397  224.0074 H   0  0  0  0  0  0  0  0  0  0  0  0
  137.5204   70.5116  224.2259 H   0  0  0  0  0  0  0  0  0  0  0  0
  139.9626   69.6607  222.6146 H   0  0  0  0  0  0  0  0  0  0  0  0
  138.4564   70.4482  222.0290 H   0  0  0  0  0  0  0  0  0  0  0  0
  137.9920   72.5950  218.3030 H   0  0  0  0  0  0  0  0  0  0  0  0
  136.9459   75.1926  218.5474 H   0  0  0  0  0  0  0  0  0  0  0  0
  135.9667   73.7419  218.1151 H   0  0  0  0  0  0  0  0  0  0  0  0
  134.9485   74.8487  220.0453 H   0  0  0  0  0  0  0  0  0  0  0  0
  135.6875   73.2659  220.5591 H   0  0  0  0  0  0  0  0  0  0  0  0
  137.5940   74.4900  221.3500 H   0  0  0  0  0  0  0  0  0  0  0  0
  137.4987   76.3651  219.8949 H   0  0  0  0  0  0  0  0  0  0  0  0
  135.9731   76.8891  220.7115 H   0  0  0  0  0  0  0  0  0  0  0  0
  138.7803   77.2703  221.5319 H   0  0  0  0  0  0  0  0  0  0  0  0
  137.2546   78.0841  222.1028 H   0  0  0  0  0  0  0  0  0  0  0  0
  136.5713   75.6101  224.5477 H   0  0  0  0  0  0  0  0  0  0  0  0
  135.8679   76.9061  223.5070 H   0  0  0  0  0  0  0  0  0  0  0  0
  136.1043   73.9685  223.0233 H   0  0  0  0  0  0  0  0  0  0  0  0
  134.9121   75.1825  222.3906 H   0  0  0  0  0  0  0  0  0  0  0  0
  142.9425   76.4948  220.6036 H   0  0  0  0  0  0  0  0  0  0  0  0
  141.7222   75.9398  219.4120 H   0  0  0  0  0  0  0  0  0  0  0  0
  142.2115   78.4133  219.2900 H   0  0  0  0  0  0  0  0  0  0  0  0
  140.4818   78.0251  219.6308 H   0  0  0  0  0  0  0  0  0  0  0  0
  141.9679   80.6666  220.2133 H   0  0  0  0  0  0  0  0  0  0  0  0
  142.0067   82.0691  222.2751 H   0  0  0  0  0  0  0  0  0  0  0  0
  141.6147   81.0271  224.5044 H   0  0  0  0  0  0  0  0  0  0  0  0
  141.1898   78.5804  224.6901 H   0  0  0  0  0  0  0  0  0  0  0  0
  141.8564   76.3117  223.3261 H   0  0  0  0  0  0  0  0  0  0  0  0
  140.0723   76.6293  223.1577 H   0  0  0  0  0  0  0  0  0  0  0  0
  141.7054   71.5212  223.8758 H   0  0  0  0  0  0  0  0  0  0  0  0
  140.7338   72.9224  224.4897 H   0  0  0  0  0  0  0  0  0  0  0  0
  1  2  2  0
  2  3  1  0
  3  4  2  0
  4  5  1  0
  5  6  2  0
  5  7  1  0
  7  8  1  0
  8  9  1  0
  9 10  1  0
 10 11  2  0
 11 12  1  0
 12 13  1  0
 13 14  1  0
 14 15  1  0
 15 16  1  0
 16 17  1  0
 17 18  1  0
 18 19  1  0
 19 20  1  0
 20 21  1  0
 12 22  2  0
 22 23  1  0
 23 24  1  0
 24 25  1  0
 25 26  1  0
 26 27  1  0
 27 28  2  0
 28 29  1  0
 29 30  2  0
 30 31  1  0
 31 32  2  0
 32 33  1  0
 23 34  2  0
  9 35  1  0
  6  1  1  0
 34 10  1  0
 35  4  1  0
 21 16  1  0
 33 24  1  0
 32 27  1  0
  1 36  1  0
  2 37  1  0
  3 38  1  0
  6 39  1  0
  7 40  1  0
  7 41  1  0
  8 42  1  0
  8 43  1  0
 13 44  1  0
 14 45  1  0
 14 46  1  0
 15 47  1  0
 15 48  1  0
 16 49  1  0
 17 50  1  0
 17 51  1  0
 18 52  1  0
 18 53  1  0
 20 54  1  0
 20 55  1  0
 21 56  1  0
 21 57  1  0
 25 58  1  0
 25 59  1  0
 26 60  1  0
 26 61  1  0
 28 62  1  0
 29 63  1  0
 30 64  1  0
 31 65  1  0
 33 66  1  0
 33 67  1  0
 35 68  1  0
 35 69  1  0
M  CHG  1  16   1
M  END
>  <UniqueID>  (31) 
283

>  <SMILES>  (31) 
c1ccc2c(c1)CCN(c1nc(NCC[NH+]3CCOCC3)nc(N3CCc4ccccc4C3)n1)C2

>  <Energy>  (31) 
90.44437712389667

>  <Genealogy>  (31) 
c1ccc2c(c1)CCN(c1nc(NCC[NH+]3CCOCC3)nc(N3CCc4ccccc4C3)n1)C2 (protonated)
c1ccc2c(c1)CCN(c1nc(NCC[NH+]3CCOCC3)nc(N3CCc4ccccc4C3)n1)C2 (3D coordinates assigned)
c1ccc2c(c1)CCN(c1nc(NCC[NH+]3CCOCC3)nc(N3CCc4ccccc4C3)n1)C2 (nonaromatic ring conformer: 90.44437712389667 kcal/mol)

>  <smiles>  (31) 
c1ccc2c(c1)CCN(c1nc(NCCN3CCOCC3)nc(N3CCc4ccccc4C3)n1)C2

>  <score_type>  (31) 
oracle

>  <origin>  (31) 
autodockgpu

>  <m_score__min__energy>  (31) 
-9.0199999999999996

>  <m_primary>  (31) 
energy

>  <meeko>  (31) 
{"free_energy": -8.1, "intermolecular_energy": -9.89, "internal_energy": -2.74, "cluster_size": 8, "cluster_id": 5, "rank_in_cluster": 6}

>  <energy>  (31) 
-8.27

>  <cluster_rmsd>  (31) 
0.0

>  <rmsd>  (31) 
270.8

>  <cluster>  (31) 
3

$$$$
XKJAOWLAVYPRNA-QTZDNFDFNA-O
     RDKit          3D

 69 74  0  0  0  0  0  0  0  0999 V2000
  145.1600   66.5100  218.1750 C   0  0  0  0  0  0  0  0  0  0  0  0
  145.9930   67.1360  219.1050 C   0  0  0  0  0  0  0  0  0  0  0  0
  145.6210   68.3580  219.6680 C   0  0  0  0  0  0  0  0  0  0  0  0
  144.4010   68.9610  219.3160 C   0  0  0  0  0  0  0  0  0  0  0  0
  143.5600   68.3300  218.3660 C   0  0  0  0  0  0  0  0  0  0  0  0
  143.9460   67.1000  217.8100 C   0  0  0  0  0  0  0  0  0  0  0  0
  142.2010   68.8940  218.0180 C   0  0  0  0  0  0  0  0  0  0  0  0
  142.1180   70.3930  218.3000 C   0  0  0  0  0  0  0  0  0  0  0  0
  142.6600   70.6740  219.6290 N   0  0  0  0  0  0  0  0  0  0  0  0
  141.9810   71.5890  220.4900 C   0  0  0  0  0  0  0  0  0  0  0  0
  141.8820   72.8970  220.1430 N   0  0  0  0  0  0  0  0  0  0  0  0
  141.2230   73.7660  220.9470 C   0  0  0  0  0  0  0  0  0  0  0  0
  141.0590   75.1300  220.5410 N   0  0  0  0  0  0  0  0  0  0  0  0
  142.1950   75.9990  220.2410 C   0  0  0  0  0  0  0  0  0  0  0  0
  142.7090   75.7350  218.8120 C   0  0  0  0  0  0  0  0  0  0  0  0
  143.9650   74.9490  218.7920 N   0  0  0  0  0  0  0  0  0  0  0  0
  144.3010   74.5170  220.1640 C   0  0  0  0  0  0  0  0  0  0  0  0
  145.6080   73.6920  220.1810 C   0  0  0  0  0  0  0  0  0  0  0  0
  146.0260   73.3000  218.8860 O   0  0  0  0  0  0  0  0  0  0  0  0
  144.9430   72.7160  218.1960 C   0  0  0  0  0  0  0  0  0  0  0  0
  143.8590   73.7700  217.8960 C   0  0  0  0  0  0  0  0  0  0  0  0
  140.6750   73.3230  222.1070 N   0  0  0  0  0  0  0  0  0  0  0  0
  140.7600   72.0170  222.4600 C   0  0  0  0  0  0  0  0  0  0  0  0
  140.1310   71.5470  223.6680 N   0  0  0  0  0  0  0  0  0  0  0  0
  138.8420   70.8470  223.6260 C   0  0  0  0  0  0  0  0  0  0  0  0
  138.9640   69.5330  224.3860 C   0  0  0  0  0  0  0  0  0  0  0  0
  139.5000   69.7700  225.7740 C   0  0  0  0  0  0  0  0  0  0  0  0
  139.1930   68.8570  226.7960 C   0  0  0  0  0  0  0  0  0  0  0  0
  139.7120   69.0400  228.0790 C   0  0  0  0  0  0  0  0  0  0  0  0
  140.5440   70.1270  228.3500 C   0  0  0  0  0  0  0  0  0  0  0  0
  140.8640   71.0370  227.3420 C   0  0  0  0  0  0  0  0  0  0  0  0
  140.3570   70.8630  226.0450 C   0  0  0  0  0  0  0  0  0  0  0  0
  140.7220   71.8710  224.9760 C   0  0  0  0  0  0  0  0  0  0  0  0
  141.4080   71.1480  221.6410 N   0  0  0  0  0  0  0  0  0  0  0  0
  144.0410   70.2930  219.9340 C   0  0  0  0  0  0  0  0  0  0  0  0
  145.4597   65.5504  217.7286 H   0  0  0  0  0  0  0  0  0  0  0  0
  146.9441   66.6652  219.3944 H   0  0  0  0  0  0  0  0  0  0  0  0
  146.2865   68.8519  220.3913 H   0  0  0  0  0  0  0  0  0  0  0  0
  143.2901   66.5979  217.0836 H   0  0  0  0  0  0  0  0  0  0  0  0
  142.0075   68.7219  216.9489 H   0  0  0  0  0  0  0  0  0  0  0  0
  141.4510   68.3872  218.6430 H   0  0  0  0  0  0  0  0  0  0  0  0
  142.7003   70.9403  217.5441 H   0  0  0  0  0  0  0  0  0  0  0  0
  141.0667   70.7142  218.2593 H   0  0  0  0  0  0  0  0  0  0  0  0
  140.0940   75.5190  220.4590 H   0  0  0  0  0  0  0  0  0  0  0  0
  141.8801   77.0496  220.3249 H   0  0  0  0  0  0  0  0  0  0  0  0
  143.0040   75.7894  220.9562 H   0  0  0  0  0  0  0  0  0  0  0  0
  141.9378   75.1802  218.2575 H   0  0  0  0  0  0  0  0  0  0  0  0
  142.9201   76.7104  218.3494 H   0  0  0  0  0  0  0  0  0  0  0  0
  144.7380   75.5710  218.4500 H   0  0  0  0  0  0  0  0  0  0  0  0
  144.4283   75.4056  220.7998 H   0  0  0  0  0  0  0  0  0  0  0  0
  143.4835   73.8859  220.5426 H   0  0  0  0  0  0  0  0  0  0  0  0
  146.4022   74.3010  220.6374 H   0  0  0  0  0  0  0  0  0  0  0  0
  145.4140   72.7758  220.7581 H   0  0  0  0  0  0  0  0  0  0  0  0
  145.3053   72.2903  217.2486 H   0  0  0  0  0  0  0  0  0  0  0  0
  144.5057   71.9268  218.8253 H   0  0  0  0  0  0  0  0  0  0  0  0
  143.9685   74.1051  216.8540 H   0  0  0  0  0  0  0  0  0  0  0  0
  142.8769   73.3038  218.0635 H   0  0  0  0  0  0  0  0  0  0  0  0
  138.0676   71.4726  224.0938 H   0  0  0  0  0  0  0  0  0  0  0  0
  138.5629   70.6464  222.5811 H   0  0  0  0  0  0  0  0  0  0  0  0
  137.9719   69.0632  224.4571 H   0  0  0  0  0  0  0  0  0  0  0  0
  139.6596   68.8743  223.8453 H   0  0  0  0  0  0  0  0  0  0  0  0
  138.5421   67.9957  226.5851 H   0  0  0  0  0  0  0  0  0  0  0  0
  139.4645   68.3257  228.8781 H   0  0  0  0  0  0  0  0  0  0  0  0
  140.9494   70.2670  229.3629 H   0  0  0  0  0  0  0  0  0  0  0  0
  141.5163   71.8943  227.5648 H   0  0  0  0  0  0  0  0  0  0  0  0
  140.3628   72.8624  225.2891 H   0  0  0  0  0  0  0  0  0  0  0  0
  141.8158   71.8537  224.8611 H   0  0  0  0  0  0  0  0  0  0  0  0
  144.7193   71.0642  219.5400 H   0  0  0  0  0  0  0  0  0  0  0  0
  144.1397   70.2032  221.0259 H   0  0  0  0  0  0  0  0  0  0  0  0
  1  2  2  0
  2  3  1  0
  3  4  2  0
  4  5  1  0
  5  6  2  0
  5  7  1  0
  7  8  1  0
  8  9  1  0
  9 10  1  0
 10 11  2  0
 11 12  1  0
 12 13  1  0
 13 14  1  0
 14 15  1  0
 15 16  1  0
 16 17  1  0
 17 18  1  0
 18 19  1  0
 19 20  1  0
 20 21  1  0
 12 22  2  0
 22 23  1  0
 23 24  1  0
 24 25  1  0
 25 26  1  0
 26 27  1  0
 27 28  2  0
 28 29  1  0
 29 30  2  0
 30 31  1  0
 31 32  2  0
 32 33  1  0
 23 34  2  0
  9 35  1  0
  6  1  1  0
 34 10  1  0
 35  4  1  0
 21 16  1  0
 33 24  1  0
 32 27  1  0
  1 36  1  0
  2 37  1  0
  3 38  1  0
  6 39  1  0
  7 40  1  0
  7 41  1  0
  8 42  1  0
  8 43  1  0
 13 44  1  0
 14 45  1  0
 14 46  1  0
 15 47  1  0
 15 48  1  0
 16 49  1  0
 17 50  1  0
 17 51  1  0
 18 52  1  0
 18 53  1  0
 20 54  1  0
 20 55  1  0
 21 56  1  0
 21 57  1  0
 25 58  1  0
 25 59  1  0
 26 60  1  0
 26 61  1  0
 28 62  1  0
 29 63  1  0
 30 64  1  0
 31 65  1  0
 33 66  1  0
 33 67  1  0
 35 68  1  0
 35 69  1  0
M  CHG  1  16   1
M  END
>  <UniqueID>  (32) 
283

>  <SMILES>  (32) 
c1ccc2c(c1)CCN(c1nc(NCC[NH+]3CCOCC3)nc(N3CCc4ccccc4C3)n1)C2

>  <Energy>  (32) 
90.44437712389667

>  <Genealogy>  (32) 
c1ccc2c(c1)CCN(c1nc(NCC[NH+]3CCOCC3)nc(N3CCc4ccccc4C3)n1)C2 (protonated)
c1ccc2c(c1)CCN(c1nc(NCC[NH+]3CCOCC3)nc(N3CCc4ccccc4C3)n1)C2 (3D coordinates assigned)
c1ccc2c(c1)CCN(c1nc(NCC[NH+]3CCOCC3)nc(N3CCc4ccccc4C3)n1)C2 (nonaromatic ring conformer: 90.44437712389667 kcal/mol)

>  <smiles>  (32) 
c1ccc2c(c1)CCN(c1nc(NCCN3CCOCC3)nc(N3CCc4ccccc4C3)n1)C2

>  <score_type>  (32) 
oracle

>  <origin>  (32) 
autodockgpu

>  <m_score__min__energy>  (32) 
-9.0199999999999996

>  <m_primary>  (32) 
energy

>  <meeko>  (32) 
{"free_energy": -9.02, "intermolecular_energy": -10.81, "internal_energy": -1.57, "cluster_size": 2, "cluster_id": 1, "rank_in_cluster": 1}

>  <energy>  (32) 
-8.2

>  <cluster_rmsd>  (32) 
0.0

>  <rmsd>  (32) 
270.83

>  <cluster>  (32) 
4

$$$$
XKJAOWLAVYPRNA-QTZDNFDFNA-O
     RDKit          3D

 69 74  0  0  0  0  0  0  0  0999 V2000
  142.1950   80.6500  222.1950 C   0  0  0  0  0  0  0  0  0  0  0  0
  142.1470   80.0430  223.4520 C   0  0  0  0  0  0  0  0  0  0  0  0
  141.6970   78.7270  223.5780 C   0  0  0  0  0  0  0  0  0  0  0  0
  141.3040   77.9990  222.4420 C   0  0  0  0  0  0  0  0  0  0  0  0
  141.3450   78.6180  221.1670 C   0  0  0  0  0  0  0  0  0  0  0  0
  141.8020   79.9400  221.0560 C   0  0  0  0  0  0  0  0  0  0  0  0
  141.0140   77.8510  219.9070 C   0  0  0  0  0  0  0  0  0  0  0  0
  140.1160   76.6490  220.1910 C   0  0  0  0  0  0  0  0  0  0  0  0
  140.6420   75.9020  221.3330 N   0  0  0  0  0  0  0  0  0  0  0  0
  140.6770   74.4740  221.2880 C   0  0  0  0  0  0  0  0  0  0  0  0
  141.1690   73.8450  220.1910 N   0  0  0  0  0  0  0  0  0  0  0  0
  141.2230   72.4920  220.1500 C   0  0  0  0  0  0  0  0  0  0  0  0
  141.8080   71.8340  219.0210 N   0  0  0  0  0  0  0  0  0  0  0  0
  143.1450   71.2440  219.0660 C   0  0  0  0  0  0  0  0  0  0  0  0
  144.2150   72.3180  218.7900 C   0  0  0  0  0  0  0  0  0  0  0  0
  143.6460   73.6840  218.7020 N   0  0  0  0  0  0  0  0  0  0  0  0
  144.2480   74.5400  219.7440 C   0  0  0  0  0  0  0  0  0  0  0  0
  143.6770   75.9750  219.6810 C   0  0  0  0  0  0  0  0  0  0  0  0
  142.9430   76.2210  218.4960 O   0  0  0  0  0  0  0  0  0  0  0  0
  143.7000   75.8140  217.3770 C   0  0  0  0  0  0  0  0  0  0  0  0
  143.8630   74.2820  217.3600 C   0  0  0  0  0  0  0  0  0  0  0  0
  140.7700   71.7700  221.2070 N   0  0  0  0  0  0  0  0  0  0  0  0
  140.2840   72.3880  222.3120 C   0  0  0  0  0  0  0  0  0  0  0  0
  139.8520   71.6150  223.4490 N   0  0  0  0  0  0  0  0  0  0  0  0
  138.7350   70.6700  223.3400 C   0  0  0  0  0  0  0  0  0  0  0  0
  139.1780   69.3110  223.8670 C   0  0  0  0  0  0  0  0  0  0  0  0
  139.7510   69.4420  225.2540 C   0  0  0  0  0  0  0  0  0  0  0  0
  139.7120   68.3390  226.1230 C   0  0  0  0  0  0  0  0  0  0  0  0
  140.2720   68.4300  227.3980 C   0  0  0  0  0  0  0  0  0  0  0  0
  140.8800   69.6150  227.8140 C   0  0  0  0  0  0  0  0  0  0  0  0
  140.9340   70.7160  226.9580 C   0  0  0  0  0  0  0  0  0  0  0  0
  140.3820   70.6380  225.6700 C   0  0  0  0  0  0  0  0  0  0  0  0
  140.4550   71.8530  224.7690 C   0  0  0  0  0  0  0  0  0  0  0  0
  140.2490   73.7460  222.3530 N   0  0  0  0  0  0  0  0  0  0  0  0
  140.8060   76.5820  222.6210 C   0  0  0  0  0  0  0  0  0  0  0  0
  142.5429   81.6893  222.1007 H   0  0  0  0  0  0  0  0  0  0  0  0
  142.4642   80.6025  224.3443 H   0  0  0  0  0  0  0  0  0  0  0  0
  141.6499   78.2577  224.5718 H   0  0  0  0  0  0  0  0  0  0  0  0
  141.8514   80.4205  220.0677 H   0  0  0  0  0  0  0  0  0  0  0  0
  140.4969   78.5236  219.2068 H   0  0  0  0  0  0  0  0  0  0  0  0
  141.9557   77.4788  219.4773 H   0  0  0  0  0  0  0  0  0  0  0  0
  139.0983   76.9984  220.4196 H   0  0  0  0  0  0  0  0  0  0  0  0
  140.0912   75.9949  219.3070 H   0  0  0  0  0  0  0  0  0  0  0  0
  141.2630   71.7740  218.1340 H   0  0  0  0  0  0  0  0  0  0  0  0
  143.3161   70.8093  220.0618 H   0  0  0  0  0  0  0  0  0  0  0  0
  143.2165   70.4624  218.2953 H   0  0  0  0  0  0  0  0  0  0  0  0
  144.9535   72.2964  219.6049 H   0  0  0  0  0  0  0  0  0  0  0  0
  144.6746   72.0866  217.8178 H   0  0  0  0  0  0  0  0  0  0  0  0
  142.6150   73.6230  218.8880 H   0  0  0  0  0  0  0  0  0  0  0  0
  144.0308   74.1096  220.7327 H   0  0  0  0  0  0  0  0  0  0  0  0
  145.3338   74.5874  219.5741 H   0  0  0  0  0  0  0  0  0  0  0  0
  143.0124   76.1272  220.5442 H   0  0  0  0  0  0  0  0  0  0  0  0
  144.5284   76.6714  219.6942 H   0  0  0  0  0  0  0  0  0  0  0  0
  143.1866   76.1330  216.4579 H   0  0  0  0  0  0  0  0  0  0  0  0
  144.6966   76.2758  217.4364 H   0  0  0  0  0  0  0  0  0  0  0  0
  143.1313   73.8549  216.6584 H   0  0  0  0  0  0  0  0  0  0  0  0
  144.8931   74.0536  217.0490 H   0  0  0  0  0  0  0  0  0  0  0  0
  137.8841   71.0356  223.9335 H   0  0  0  0  0  0  0  0  0  0  0  0
  138.4295   70.5774  222.2873 H   0  0  0  0  0  0  0  0  0  0  0  0
  138.3112   68.6344  223.8963 H   0  0  0  0  0  0  0  0  0  0  0  0
  139.9533   68.9070  223.1994 H   0  0  0  0  0  0  0  0  0  0  0  0
  139.2387   67.4009  225.7976 H   0  0  0  0  0  0  0  0  0  0  0  0
  140.2340   67.5653  228.0768 H   0  0  0  0  0  0  0  0  0  0  0  0
  141.3185   69.6817  228.8206 H   0  0  0  0  0  0  0  0  0  0  0  0
  141.4110   71.6485  227.2941 H   0  0  0  0  0  0  0  0  0  0  0  0
  139.9230   72.6843  225.2547 H   0  0  0  0  0  0  0  0  0  0  0  0
  141.5181   72.0882  224.6122 H   0  0  0  0  0  0  0  0  0  0  0  0
  139.8353   76.6072  223.1377 H   0  0  0  0  0  0  0  0  0  0  0  0
  141.5503   76.0272  223.2111 H   0  0  0  0  0  0  0  0  0  0  0  0
  1  2  2  0
  2  3  1  0
  3  4  2  0
  4  5  1  0
  5  6  2  0
  5  7  1  0
  7  8  1  0
  8  9  1  0
  9 10  1  0
 10 11  2  0
 11 12  1  0
 12 13  1  0
 13 14  1  0
 14 15  1  0
 15 16  1  0
 16 17  1  0
 17 18  1  0
 18 19  1  0
 19 20  1  0
 20 21  1  0
 12 22  2  0
 22 23  1  0
 23 24  1  0
 24 25  1  0
 25 26  1  0
 26 27  1  0
 27 28  2  0
 28 29  1  0
 29 30  2  0
 30 31  1  0
 31 32  2  0
 32 33  1  0
 23 34  2  0
  9 35  1  0
  6  1  1  0
 34 10  1  0
 35  4  1  0
 21 16  1  0
 33 24  1  0
 32 27  1  0
  1 36  1  0
  2 37  1  0
  3 38  1  0
  6 39  1  0
  7 40  1  0
  7 41  1  0
  8 42  1  0
  8 43  1  0
 13 44  1  0
 14 45  1  0
 14 46  1  0
 15 47  1  0
 15 48  1  0
 16 49  1  0
 17 50  1  0
 17 51  1  0
 18 52  1  0
 18 53  1  0
 20 54  1  0
 20 55  1  0
 21 56  1  0
 21 57  1  0
 25 58  1  0
 25 59  1  0
 26 60  1  0
 26 61  1  0
 28 62  1  0
 29 63  1  0
 30 64  1  0
 31 65  1  0
 33 66  1  0
 33 67  1  0
 35 68  1  0
 35 69  1  0
M  CHG  1  16   1
M  END
>  <UniqueID>  (33) 
283

>  <SMILES>  (33) 
c1ccc2c(c1)CCN(c1nc(NCC[NH+]3CCOCC3)nc(N3CCc4ccccc4C3)n1)C2

>  <Energy>  (33) 
90.44437712389667

>  <Genealogy>  (33) 
c1ccc2c(c1)CCN(c1nc(NCC[NH+]3CCOCC3)nc(N3CCc4ccccc4C3)n1)C2 (protonated)
c1ccc2c(c1)CCN(c1nc(NCC[NH+]3CCOCC3)nc(N3CCc4ccccc4C3)n1)C2 (3D coordinates assigned)
c1ccc2c(c1)CCN(c1nc(NCC[NH+]3CCOCC3)nc(N3CCc4ccccc4C3)n1)C2 (nonaromatic ring conformer: 90.44437712389667 kcal/mol)

>  <smiles>  (33) 
c1ccc2c(c1)CCN(c1nc(NCCN3CCOCC3)nc(N3CCc4ccccc4C3)n1)C2

>  <score_type>  (33) 
oracle

>  <origin>  (33) 
autodockgpu

>  <m_score__min__energy>  (33) 
-9.0199999999999996

>  <m_primary>  (33) 
energy

>  <meeko>  (33) 
{"free_energy": -8.73, "intermolecular_energy": -10.52, "internal_energy": -2.38, "cluster_size": 8, "cluster_id": 2, "rank_in_cluster": 5}

>  <energy>  (33) 
-8.19

>  <cluster_rmsd>  (33) 
0.0

>  <rmsd>  (33) 
271.0

>  <cluster>  (33) 
5

$$$$
XKJAOWLAVYPRNA-QTZDNFDFNA-O
     RDKit          3D

 69 74  0  0  0  0  0  0  0  0999 V2000
  139.8170   69.3840  227.7950 C   0  0  0  0  0  0  0  0  0  0  0  0
  140.7150   70.4470  227.9100 C   0  0  0  0  0  0  0  0  0  0  0  0
  140.9900   71.2550  226.8050 C   0  0  0  0  0  0  0  0  0  0  0  0
  140.3570   71.0150  225.5740 C   0  0  0  0  0  0  0  0  0  0  0  0
  139.4520   69.9300  225.4550 C   0  0  0  0  0  0  0  0  0  0  0  0
  139.1830   69.1280  226.5750 C   0  0  0  0  0  0  0  0  0  0  0  0
  138.6820   69.6820  224.1780 C   0  0  0  0  0  0  0  0  0  0  0  0
  139.3850   70.2830  222.9620 C   0  0  0  0  0  0  0  0  0  0  0  0
  139.8000   71.6530  223.2620 N   0  0  0  0  0  0  0  0  0  0  0  0
  139.6120   72.6780  222.2830 C   0  0  0  0  0  0  0  0  0  0  0  0
  138.6630   72.5310  221.3260 N   0  0  0  0  0  0  0  0  0  0  0  0
  138.4670   73.5080  220.4070 C   0  0  0  0  0  0  0  0  0  0  0  0
  137.4160   73.3810  219.4420 N   0  0  0  0  0  0  0  0  0  0  0  0
  136.9380   74.5150  218.6530 C   0  0  0  0  0  0  0  0  0  0  0  0
  136.1310   75.4830  219.5400 C   0  0  0  0  0  0  0  0  0  0  0  0
  136.9320   76.0400  220.6560 N   0  0  0  0  0  0  0  0  0  0  0  0
  136.9200   77.5160  220.5870 C   0  0  0  0  0  0  0  0  0  0  0  0
  137.7470   78.1320  221.7380 C   0  0  0  0  0  0  0  0  0  0  0  0
  138.0820   77.1870  222.7380 O   0  0  0  0  0  0  0  0  0  0  0  0
  136.9250   76.4790  223.1270 C   0  0  0  0  0  0  0  0  0  0  0  0
  136.4240   75.5850  221.9750 C   0  0  0  0  0  0  0  0  0  0  0  0
  139.2360   74.6260  220.4430 N   0  0  0  0  0  0  0  0  0  0  0  0
  140.1820   74.7870  221.4010 C   0  0  0  0  0  0  0  0  0  0  0  0
  140.9580   76.0000  221.4610 N   0  0  0  0  0  0  0  0  0  0  0  0
  141.7720   76.4340  220.3200 C   0  0  0  0  0  0  0  0  0  0  0  0
  141.4240   77.8770  219.9800 C   0  0  0  0  0  0  0  0  0  0  0  0
  141.5430   78.7530  221.2000 C   0  0  0  0  0  0  0  0  0  0  0  0
  141.8080   80.1230  221.0410 C   0  0  0  0  0  0  0  0  0  0  0  0
  141.8830   80.9570  222.1580 C   0  0  0  0  0  0  0  0  0  0  0  0
  141.6890   80.4350  223.4370 C   0  0  0  0  0  0  0  0  0  0  0  0
  141.4170   79.0770  223.6090 C   0  0  0  0  0  0  0  0  0  0  0  0
  141.3300   78.2260  222.4950 C   0  0  0  0  0  0  0  0  0  0  0  0
  141.0360   76.7580  222.7190 C   0  0  0  0  0  0  0  0  0  0  0  0
  140.3600   73.8110  222.3280 N   0  0  0  0  0  0  0  0  0  0  0  0
  140.6940   71.9000  224.3960 C   0  0  0  0  0  0  0  0  0  0  0  0
  139.6076   68.7462  228.6664 H   0  0  0  0  0  0  0  0  0  0  0  0
  141.2068   70.6483  228.8731 H   0  0  0  0  0  0  0  0  0  0  0  0
  141.7065   72.0843  226.8989 H   0  0  0  0  0  0  0  0  0  0  0  0
  138.4702   68.2942  226.4928 H   0  0  0  0  0  0  0  0  0  0  0  0
  138.5801   68.5969  224.0294 H   0  0  0  0  0  0  0  0  0  0  0  0
  137.6978   70.1636  224.2748 H   0  0  0  0  0  0  0  0  0  0  0  0
  140.2700   69.6783  222.7150 H   0  0  0  0  0  0  0  0  0  0  0  0
  138.6931   70.2901  222.1068 H   0  0  0  0  0  0  0  0  0  0  0  0
  136.9750   72.4470  219.2970 H   0  0  0  0  0  0  0  0  0  0  0  0
  137.7998   75.0481  218.2252 H   0  0  0  0  0  0  0  0  0  0  0  0
  136.2878   74.1416  217.8482 H   0  0  0  0  0  0  0  0  0  0  0  0
  135.7709   76.3144  218.9162 H   0  0  0  0  0  0  0  0  0  0  0  0
  135.2988   74.9142  219.9803 H   0  0  0  0  0  0  0  0  0  0  0  0
  137.9240   75.7190  220.5410 H   0  0  0  0  0  0  0  0  0  0  0  0
  137.3491   77.8345  219.6255 H   0  0  0  0  0  0  0  0  0  0  0  0
  135.8800   77.8622  220.6790 H   0  0  0  0  0  0  0  0  0  0  0  0
  138.6763   78.5468  221.3205 H   0  0  0  0  0  0  0  0  0  0  0  0
  137.1298   78.9104  222.2104 H   0  0  0  0  0  0  0  0  0  0  0  0
  137.1620   75.8489  223.9970 H   0  0  0  0  0  0  0  0  0  0  0  0
  136.1365   77.2015  223.3844 H   0  0  0  0  0  0  0  0  0  0  0  0
  136.7659   74.5544  222.1509 H   0  0  0  0  0  0  0  0  0  0  0  0
  135.3257   75.6419  221.9539 H   0  0  0  0  0  0  0  0  0  0  0  0
  142.8384   76.3638  220.5804 H   0  0  0  0  0  0  0  0  0  0  0  0
  141.5679   75.7892  219.4525 H   0  0  0  0  0  0  0  0  0  0  0  0
  142.1133   78.2419  219.2043 H   0  0  0  0  0  0  0  0  0  0  0  0
  140.3867   77.9152  219.6159 H   0  0  0  0  0  0  0  0  0  0  0  0
  141.9568   80.5399  220.0340 H   0  0  0  0  0  0  0  0  0  0  0  0
  142.0956   82.0286  222.0293 H   0  0  0  0  0  0  0  0  0  0  0  0
  141.7507   81.0965  224.3137 H   0  0  0  0  0  0  0  0  0  0  0  0
  141.2702   78.6715  224.6209 H   0  0  0  0  0  0  0  0  0  0  0  0
  141.8360   76.3290  223.3402 H   0  0  0  0  0  0  0  0  0  0  0  0
  140.0562   76.6855  223.2138 H   0  0  0  0  0  0  0  0  0  0  0  0
  141.7297   71.6999  224.0841 H   0  0  0  0  0  0  0  0  0  0  0  0
  140.5727   72.9480  224.7075 H   0  0  0  0  0  0  0  0  0  0  0  0
  1  2  2  0
  2  3  1  0
  3  4  2  0
  4  5  1  0
  5  6  2  0
  5  7  1  0
  7  8  1  0
  8  9  1  0
  9 10  1  0
 10 11  2  0
 11 12  1  0
 12 13  1  0
 13 14  1  0
 14 15  1  0
 15 16  1  0
 16 17  1  0
 17 18  1  0
 18 19  1  0
 19 20  1  0
 20 21  1  0
 12 22  2  0
 22 23  1  0
 23 24  1  0
 24 25  1  0
 25 26  1  0
 26 27  1  0
 27 28  2  0
 28 29  1  0
 29 30  2  0
 30 31  1  0
 31 32  2  0
 32 33  1  0
 23 34  2  0
  9 35  1  0
  6  1  1  0
 34 10  1  0
 35  4  1  0
 21 16  1  0
 33 24  1  0
 32 27  1  0
  1 36  1  0
  2 37  1  0
  3 38  1  0
  6 39  1  0
  7 40  1  0
  7 41  1  0
  8 42  1  0
  8 43  1  0
 13 44  1  0
 14 45  1  0
 14 46  1  0
 15 47  1  0
 15 48  1  0
 16 49  1  0
 17 50  1  0
 17 51  1  0
 18 52  1  0
 18 53  1  0
 20 54  1  0
 20 55  1  0
 21 56  1  0
 21 57  1  0
 25 58  1  0
 25 59  1  0
 26 60  1  0
 26 61  1  0
 28 62  1  0
 29 63  1  0
 30 64  1  0
 31 65  1  0
 33 66  1  0
 33 67  1  0
 35 68  1  0
 35 69  1  0
M  CHG  1  16   1
M  END
>  <UniqueID>  (34) 
283

>  <SMILES>  (34) 
c1ccc2c(c1)CCN(c1nc(NCC[NH+]3CCOCC3)nc(N3CCc4ccccc4C3)n1)C2

>  <Energy>  (34) 
90.44437712389667

>  <Genealogy>  (34) 
c1ccc2c(c1)CCN(c1nc(NCC[NH+]3CCOCC3)nc(N3CCc4ccccc4C3)n1)C2 (protonated)
c1ccc2c(c1)CCN(c1nc(NCC[NH+]3CCOCC3)nc(N3CCc4ccccc4C3)n1)C2 (3D coordinates assigned)
c1ccc2c(c1)CCN(c1nc(NCC[NH+]3CCOCC3)nc(N3CCc4ccccc4C3)n1)C2 (nonaromatic ring conformer: 90.44437712389667 kcal/mol)

>  <smiles>  (34) 
c1ccc2c(c1)CCN(c1nc(NCCN3CCOCC3)nc(N3CCc4ccccc4C3)n1)C2

>  <score_type>  (34) 
oracle

>  <origin>  (34) 
autodockgpu

>  <m_score__min__energy>  (34) 
-9.0199999999999996

>  <m_primary>  (34) 
energy

>  <meeko>  (34) 
{"free_energy": -8.19, "intermolecular_energy": -9.98, "internal_energy": -2.68, "cluster_size": 8, "cluster_id": 5, "rank_in_cluster": 1}

>  <energy>  (34) 
-8.16

>  <cluster_rmsd>  (34) 
0.6

>  <rmsd>  (34) 
271.01

>  <cluster>  (34) 
5

$$$$
XKJAOWLAVYPRNA-QTZDNFDFNA-O
     RDKit          3D

 69 74  0  0  0  0  0  0  0  0999 V2000
  139.6140   69.5800  227.9060 C   0  0  0  0  0  0  0  0  0  0  0  0
  140.5730   70.5930  227.9820 C   0  0  0  0  0  0  0  0  0  0  0  0
  140.9110   71.3250  226.8430 C   0  0  0  0  0  0  0  0  0  0  0  0
  140.2800   71.0610  225.6150 C   0  0  0  0  0  0  0  0  0  0  0  0
  139.3130   70.0280  225.5360 C   0  0  0  0  0  0  0  0  0  0  0  0
  138.9820   69.3020  226.6910 C   0  0  0  0  0  0  0  0  0  0  0  0
  138.5460   69.7620  224.2610 C   0  0  0  0  0  0  0  0  0  0  0  0
  139.3000   70.2570  223.0280 C   0  0  0  0  0  0  0  0  0  0  0  0
  139.7920   71.6130  223.2650 N   0  0  0  0  0  0  0  0  0  0  0  0
  139.6800   72.5960  222.2340 C   0  0  0  0  0  0  0  0  0  0  0  0
  138.8570   72.3760  221.1780 N   0  0  0  0  0  0  0  0  0  0  0  0
  138.7320   73.3120  220.2070 C   0  0  0  0  0  0  0  0  0  0  0  0
  137.8080   73.1070  219.1320 N   0  0  0  0  0  0  0  0  0  0  0  0
  136.5840   73.8940  218.9920 C   0  0  0  0  0  0  0  0  0  0  0  0
  135.8730   74.0260  220.3530 C   0  0  0  0  0  0  0  0  0  0  0  0
  136.6590   74.8070  221.3360 N   0  0  0  0  0  0  0  0  0  0  0  0
  136.8930   76.1690  220.8140 C   0  0  0  0  0  0  0  0  0  0  0  0
  137.7120   77.0140  221.8160 C   0  0  0  0  0  0  0  0  0  0  0  0
  137.8060   76.4110  223.0930 O   0  0  0  0  0  0  0  0  0  0  0  0
  136.5220   76.0210  223.5280 C   0  0  0  0  0  0  0  0  0  0  0  0
  135.9780   74.8740  222.6540 C   0  0  0  0  0  0  0  0  0  0  0  0
  139.4440   74.4650  220.2900 N   0  0  0  0  0  0  0  0  0  0  0  0
  140.2640   74.6990  221.3450 C   0  0  0  0  0  0  0  0  0  0  0  0
  140.9760   75.9470  221.4500 N   0  0  0  0  0  0  0  0  0  0  0  0
  141.8060   76.4380  220.3440 C   0  0  0  0  0  0  0  0  0  0  0  0
  141.4000   77.8680  220.0130 C   0  0  0  0  0  0  0  0  0  0  0  0
  141.4340   78.7290  221.2490 C   0  0  0  0  0  0  0  0  0  0  0  0
  141.6370   80.1130  221.1200 C   0  0  0  0  0  0  0  0  0  0  0  0
  141.6340   80.9310  222.2510 C   0  0  0  0  0  0  0  0  0  0  0  0
  141.4220   80.3790  223.5150 C   0  0  0  0  0  0  0  0  0  0  0  0
  141.2110   79.0080  223.6570 C   0  0  0  0  0  0  0  0  0  0  0  0
  141.2030   78.1720  222.5290 C   0  0  0  0  0  0  0  0  0  0  0  0
  140.9740   76.6880  222.7210 C   0  0  0  0  0  0  0  0  0  0  0  0
  140.3710   73.7630  222.3240 N   0  0  0  0  0  0  0  0  0  0  0  0
  140.6850   71.8640  224.4000 C   0  0  0  0  0  0  0  0  0  0  0  0
  139.3558   69.0000  228.8043 H   0  0  0  0  0  0  0  0  0  0  0  0
  141.0628   70.8141  228.9418 H   0  0  0  0  0  0  0  0  0  0  0  0
  141.6757   72.1132  226.9065 H   0  0  0  0  0  0  0  0  0  0  0  0
  138.2207   68.5097  226.6394 H   0  0  0  0  0  0  0  0  0  0  0  0
  138.3803   68.6788  224.1652 H   0  0  0  0  0  0  0  0  0  0  0  0
  137.5917   70.3060  224.3178 H   0  0  0  0  0  0  0  0  0  0  0  0
  140.1505   69.5891  222.8265 H   0  0  0  0  0  0  0  0  0  0  0  0
  138.6214   70.2610  222.1623 H   0  0  0  0  0  0  0  0  0  0  0  0
  138.0150   72.3700  218.4230 H   0  0  0  0  0  0  0  0  0  0  0  0
  136.8382   74.8963  218.6169 H   0  0  0  0  0  0  0  0  0  0  0  0
  135.9114   73.3859  218.2853 H   0  0  0  0  0  0  0  0  0  0  0  0
  134.9063   74.5273  220.1977 H   0  0  0  0  0  0  0  0  0  0  0  0
  135.7452   73.0123  220.7604 H   0  0  0  0  0  0  0  0  0  0  0  0
  137.5920   74.3420  221.4560 H   0  0  0  0  0  0  0  0  0  0  0  0
  137.4457   76.1005  219.8654 H   0  0  0  0  0  0  0  0  0  0  0  0
  135.9192   76.6565  220.6588 H   0  0  0  0  0  0  0  0  0  0  0  0
  138.7275   77.1482  221.4150 H   0  0  0  0  0  0  0  0  0  0  0  0
  137.1925   77.9755  221.9410 H   0  0  0  0  0  0  0  0  0  0  0  0
  136.5818   75.6822  224.5728 H   0  0  0  0  0  0  0  0  0  0  0  0
  135.8429   76.8824  223.4454 H   0  0  0  0  0  0  0  0  0  0  0  0
  136.1321   73.9214  223.1821 H   0  0  0  0  0  0  0  0  0  0  0  0
  134.9090   75.0614  222.4747 H   0  0  0  0  0  0  0  0  0  0  0  0
  142.8652   76.4149  220.6399 H   0  0  0  0  0  0  0  0  0  0  0  0
  141.6627   75.7982  219.4607 H   0  0  0  0  0  0  0  0  0  0  0  0
  142.0970   78.2782  219.2675 H   0  0  0  0  0  0  0  0  0  0  0  0
  140.3752   77.8620  219.6133 H   0  0  0  0  0  0  0  0  0  0  0  0
  141.7987   80.5533  220.1250 H   0  0  0  0  0  0  0  0  0  0  0  0
  141.7992   82.0134  222.1457 H   0  0  0  0  0  0  0  0  0  0  0  0
  141.4213   81.0281  224.4030 H   0  0  0  0  0  0  0  0  0  0  0  0
  141.0501   78.5795  224.6572 H   0  0  0  0  0  0  0  0  0  0  0  0
  141.7726   76.2883  223.3633 H   0  0  0  0  0  0  0  0  0  0  0  0
  139.9826   76.5601  223.1801 H   0  0  0  0  0  0  0  0  0  0  0  0
  141.7108   71.5874  224.1151 H   0  0  0  0  0  0  0  0  0  0  0  0
  140.6229   72.9318  224.6570 H   0  0  0  0  0  0  0  0  0  0  0  0
  1  2  2  0
  2  3  1  0
  3  4  2  0
  4  5  1  0
  5  6  2  0
  5  7  1  0
  7  8  1  0
  8  9  1  0
  9 10  1  0
 10 11  2  0
 11 12  1  0
 12 13  1  0
 13 14  1  0
 14 15  1  0
 15 16  1  0
 16 17  1  0
 17 18  1  0
 18 19  1  0
 19 20  1  0
 20 21  1  0
 12 22  2  0
 22 23  1  0
 23 24  1  0
 24 25  1  0
 25 26  1  0
 26 27  1  0
 27 28  2  0
 28 29  1  0
 29 30  2  0
 30 31  1  0
 31 32  2  0
 32 33  1  0
 23 34  2  0
  9 35  1  0
  6  1  1  0
 34 10  1  0
 35  4  1  0
 21 16  1  0
 33 24  1  0
 32 27  1  0
  1 36  1  0
  2 37  1  0
  3 38  1  0
  6 39  1  0
  7 40  1  0
  7 41  1  0
  8 42  1  0
  8 43  1  0
 13 44  1  0
 14 45  1  0
 14 46  1  0
 15 47  1  0
 15 48  1  0
 16 49  1  0
 17 50  1  0
 17 51  1  0
 18 52  1  0
 18 53  1  0
 20 54  1  0
 20 55  1  0
 21 56  1  0
 21 57  1  0
 25 58  1  0
 25 59  1  0
 26 60  1  0
 26 61  1  0
 28 62  1  0
 29 63  1  0
 30 64  1  0
 31 65  1  0
 33 66  1  0
 33 67  1  0
 35 68  1  0
 35 69  1  0
M  CHG  1  16   1
M  END
>  <UniqueID>  (35) 
283

>  <SMILES>  (35) 
c1ccc2c(c1)CCN(c1nc(NCC[NH+]3CCOCC3)nc(N3CCc4ccccc4C3)n1)C2

>  <Energy>  (35) 
90.44437712389667

>  <Genealogy>  (35) 
c1ccc2c(c1)CCN(c1nc(NCC[NH+]3CCOCC3)nc(N3CCc4ccccc4C3)n1)C2 (protonated)
c1ccc2c(c1)CCN(c1nc(NCC[NH+]3CCOCC3)nc(N3CCc4ccccc4C3)n1)C2 (3D coordinates assigned)
c1ccc2c(c1)CCN(c1nc(NCC[NH+]3CCOCC3)nc(N3CCc4ccccc4C3)n1)C2 (nonaromatic ring conformer: 90.44437712389667 kcal/mol)

>  <smiles>  (35) 
c1ccc2c(c1)CCN(c1nc(NCCN3CCOCC3)nc(N3CCc4ccccc4C3)n1)C2

>  <score_type>  (35) 
oracle

>  <origin>  (35) 
autodockgpu

>  <m_score__min__energy>  (35) 
-9.0199999999999996

>  <m_primary>  (35) 
energy

>  <meeko>  (35) 
{"free_energy": -8.12, "intermolecular_energy": -9.91, "internal_energy": -2.76, "cluster_size": 8, "cluster_id": 5, "rank_in_cluster": 3}

>  <energy>  (35) 
-8.12

>  <cluster_rmsd>  (35) 
0.68

>  <rmsd>  (35) 
270.98

>  <cluster>  (35) 
5

$$$$
XKJAOWLAVYPRNA-QTZDNFDFNA-O
     RDKit          3D

 69 74  0  0  0  0  0  0  0  0999 V2000
  140.2760   69.7730  228.3470 C   0  0  0  0  0  0  0  0  0  0  0  0
  141.0280   70.9480  228.2700 C   0  0  0  0  0  0  0  0  0  0  0  0
  141.1560   71.6200  227.0530 C   0  0  0  0  0  0  0  0  0  0  0  0
  140.5180   71.1300  225.9000 C   0  0  0  0  0  0  0  0  0  0  0  0
  139.7620   69.9330  225.9770 C   0  0  0  0  0  0  0  0  0  0  0  0
  139.6410   69.2700  227.2080 C   0  0  0  0  0  0  0  0  0  0  0  0
  138.9880   69.4120  224.7870 C   0  0  0  0  0  0  0  0  0  0  0  0
  139.5640   69.9190  223.4670 C   0  0  0  0  0  0  0  0  0  0  0  0
  139.8020   71.3590  223.5550 N   0  0  0  0  0  0  0  0  0  0  0  0
  139.4470   72.2040  222.4580 C   0  0  0  0  0  0  0  0  0  0  0  0
  138.9130   71.6620  221.3350 N   0  0  0  0  0  0  0  0  0  0  0  0
  138.5570   72.4590  220.2990 C   0  0  0  0  0  0  0  0  0  0  0  0
  137.9270   71.8920  219.1440 N   0  0  0  0  0  0  0  0  0  0  0  0
  136.5740   71.3410  219.1830 C   0  0  0  0  0  0  0  0  0  0  0  0
  135.6370   72.2740  219.9750 C   0  0  0  0  0  0  0  0  0  0  0  0
  136.0070   72.3760  221.4060 N   0  0  0  0  0  0  0  0  0  0  0  0
  135.1320   73.3610  222.0750 C   0  0  0  0  0  0  0  0  0  0  0  0
  135.4900   73.4930  223.5730 C   0  0  0  0  0  0  0  0  0  0  0  0
  136.3540   72.4660  224.0230 O   0  0  0  0  0  0  0  0  0  0  0  0
  135.8470   71.2120  223.6240 C   0  0  0  0  0  0  0  0  0  0  0  0
  135.9140   71.0620  222.0910 C   0  0  0  0  0  0  0  0  0  0  0  0
  138.7490   73.8000  220.3870 N   0  0  0  0  0  0  0  0  0  0  0  0
  139.2750   74.3530  221.5080 C   0  0  0  0  0  0  0  0  0  0  0  0
  139.4290   75.7820  221.6120 N   0  0  0  0  0  0  0  0  0  0  0  0
  138.3290   76.6880  221.2620 C   0  0  0  0  0  0  0  0  0  0  0  0
  138.0900   77.6510  222.4180 C   0  0  0  0  0  0  0  0  0  0  0  0
  139.3710   78.3450  222.8030 C   0  0  0  0  0  0  0  0  0  0  0  0
  139.3130   79.6060  223.4180 C   0  0  0  0  0  0  0  0  0  0  0  0
  140.4870   80.2470  223.8170 C   0  0  0  0  0  0  0  0  0  0  0  0
  141.7240   79.6340  223.6130 C   0  0  0  0  0  0  0  0  0  0  0  0
  141.7960   78.3770  223.0110 C   0  0  0  0  0  0  0  0  0  0  0  0
  140.6230   77.7160  222.6110 C   0  0  0  0  0  0  0  0  0  0  0  0
  140.7390   76.3550  221.9580 C   0  0  0  0  0  0  0  0  0  0  0  0
  139.6140   73.5490  222.5490 N   0  0  0  0  0  0  0  0  0  0  0  0
  140.6940   71.8750  224.5970 C   0  0  0  0  0  0  0  0  0  0  0  0
  140.1835   69.2426  229.3062 H   0  0  0  0  0  0  0  0  0  0  0  0
  141.5203   71.3445  229.1703 H   0  0  0  0  0  0  0  0  0  0  0  0
  141.7594   72.5380  226.9959 H   0  0  0  0  0  0  0  0  0  0  0  0
  139.0431   68.3493  227.2768 H   0  0  0  0  0  0  0  0  0  0  0  0
  139.0251   68.3126  224.7923 H   0  0  0  0  0  0  0  0  0  0  0  0
  137.9526   69.7742  224.8687 H   0  0  0  0  0  0  0  0  0  0  0  0
  140.5133   69.4033  223.2600 H   0  0  0  0  0  0  0  0  0  0  0  0
  138.8495   69.7164  222.6556 H   0  0  0  0  0  0  0  0  0  0  0  0
  138.4530   71.8700  218.2430 H   0  0  0  0  0  0  0  0  0  0  0  0
  136.1961   71.2348  218.1554 H   0  0  0  0  0  0  0  0  0  0  0  0
  136.6025   70.3593  219.6784 H   0  0  0  0  0  0  0  0  0  0  0  0
  135.6802   73.2781  219.5280 H   0  0  0  0  0  0  0  0  0  0  0  0
  134.6238   71.8488  219.9235 H   0  0  0  0  0  0  0  0  0  0  0  0
  136.9940   72.7260  221.4670 H   0  0  0  0  0  0  0  0  0  0  0  0
  135.2544   74.3399  221.5883 H   0  0  0  0  0  0  0  0  0  0  0  0
  134.0904   73.0172  221.9927 H   0  0  0  0  0  0  0  0  0  0  0  0
  135.9841   74.4628  223.7322 H   0  0  0  0  0  0  0  0  0  0  0  0
  134.5541   73.4130  224.1455 H   0  0  0  0  0  0  0  0  0  0  0  0
  136.4442   70.4153  224.0916 H   0  0  0  0  0  0  0  0  0  0  0  0
  134.7966   71.1369  223.9419 H   0  0  0  0  0  0  0  0  0  0  0  0
  136.7993   70.4629  221.8314 H   0  0  0  0  0  0  0  0  0  0  0  0
  134.9883   70.5703  221.7574 H   0  0  0  0  0  0  0  0  0  0  0  0
  138.5931   77.2561  220.3578 H   0  0  0  0  0  0  0  0  0  0  0  0
  137.4158   76.1056  221.0697 H   0  0  0  0  0  0  0  0  0  0  0  0
  137.3481   78.4040  222.1138 H   0  0  0  0  0  0  0  0  0  0  0  0
  137.7209   77.0815  223.2837 H   0  0  0  0  0  0  0  0  0  0  0  0
  138.3396   80.0901  223.5858 H   0  0  0  0  0  0  0  0  0  0  0  0
  140.4370   81.2373  224.2932 H   0  0  0  0  0  0  0  0  0  0  0  0
  142.6464   80.1439  223.9281 H   0  0  0  0  0  0  0  0  0  0  0  0
  142.7750   77.9022  222.8492 H   0  0  0  0  0  0  0  0  0  0  0  0
  141.3343   76.4547  221.0384 H   0  0  0  0  0  0  0  0  0  0  0  0
  141.2194   75.6781  222.6798 H   0  0  0  0  0  0  0  0  0  0  0  0
  141.7358   71.7655  224.2613 H   0  0  0  0  0  0  0  0  0  0  0  0
  140.4455   72.9326  224.7695 H   0  0  0  0  0  0  0  0  0  0  0  0
  1  2  2  0
  2  3  1  0
  3  4  2  0
  4  5  1  0
  5  6  2  0
  5  7  1  0
  7  8  1  0
  8  9  1  0
  9 10  1  0
 10 11  2  0
 11 12  1  0
 12 13  1  0
 13 14  1  0
 14 15  1  0
 15 16  1  0
 16 17  1  0
 17 18  1  0
 18 19  1  0
 19 20  1  0
 20 21  1  0
 12 22  2  0
 22 23  1  0
 23 24  1  0
 24 25  1  0
 25 26  1  0
 26 27  1  0
 27 28  2  0
 28 29  1  0
 29 30  2  0
 30 31  1  0
 31 32  2  0
 32 33  1  0
 23 34  2  0
  9 35  1  0
  6  1  1  0
 34 10  1  0
 35  4  1  0
 21 16  1  0
 33 24  1  0
 32 27  1  0
  1 36  1  0
  2 37  1  0
  3 38  1  0
  6 39  1  0
  7 40  1  0
  7 41  1  0
  8 42  1  0
  8 43  1  0
 13 44  1  0
 14 45  1  0
 14 46  1  0
 15 47  1  0
 15 48  1  0
 16 49  1  0
 17 50  1  0
 17 51  1  0
 18 52  1  0
 18 53  1  0
 20 54  1  0
 20 55  1  0
 21 56  1  0
 21 57  1  0
 25 58  1  0
 25 59  1  0
 26 60  1  0
 26 61  1  0
 28 62  1  0
 29 63  1  0
 30 64  1  0
 31 65  1  0
 33 66  1  0
 33 67  1  0
 35 68  1  0
 35 69  1  0
M  CHG  1  16   1
M  END
>  <UniqueID>  (36) 
283

>  <SMILES>  (36) 
c1ccc2c(c1)CCN(c1nc(NCC[NH+]3CCOCC3)nc(N3CCc4ccccc4C3)n1)C2

>  <Energy>  (36) 
90.44437712389667

>  <Genealogy>  (36) 
c1ccc2c(c1)CCN(c1nc(NCC[NH+]3CCOCC3)nc(N3CCc4ccccc4C3)n1)C2 (protonated)
c1ccc2c(c1)CCN(c1nc(NCC[NH+]3CCOCC3)nc(N3CCc4ccccc4C3)n1)C2 (3D coordinates assigned)
c1ccc2c(c1)CCN(c1nc(NCC[NH+]3CCOCC3)nc(N3CCc4ccccc4C3)n1)C2 (nonaromatic ring conformer: 90.44437712389667 kcal/mol)

>  <smiles>  (36) 
c1ccc2c(c1)CCN(c1nc(NCCN3CCOCC3)nc(N3CCc4ccccc4C3)n1)C2

>  <score_type>  (36) 
oracle

>  <origin>  (36) 
autodockgpu

>  <m_score__min__energy>  (36) 
-9.0199999999999996

>  <m_primary>  (36) 
energy

>  <meeko>  (36) 
{"free_energy": -7.82, "intermolecular_energy": -9.61, "internal_energy": -2.75, "cluster_size": 8, "cluster_id": 5, "rank_in_cluster": 8}

>  <energy>  (36) 
-8.12

>  <cluster_rmsd>  (36) 
0.54

>  <rmsd>  (36) 
271.07

>  <cluster>  (36) 
5

$$$$
XKJAOWLAVYPRNA-QTZDNFDFNA-O
     RDKit          3D

 69 74  0  0  0  0  0  0  0  0999 V2000
  142.0660   80.6830  222.2310 C   0  0  0  0  0  0  0  0  0  0  0  0
  142.1120   80.0590  223.4800 C   0  0  0  0  0  0  0  0  0  0  0  0
  141.6810   78.7390  223.6200 C   0  0  0  0  0  0  0  0  0  0  0  0
  141.2120   78.0230  222.5050 C   0  0  0  0  0  0  0  0  0  0  0  0
  141.1580   78.6590  221.2400 C   0  0  0  0  0  0  0  0  0  0  0  0
  141.5970   79.9860  221.1150 C   0  0  0  0  0  0  0  0  0  0  0  0
  140.7420   77.9070  219.9970 C   0  0  0  0  0  0  0  0  0  0  0  0
  139.8740   76.6940  220.3280 C   0  0  0  0  0  0  0  0  0  0  0  0
  140.4850   75.9360  221.4190 N   0  0  0  0  0  0  0  0  0  0  0  0
  140.5270   74.5090  221.3520 C   0  0  0  0  0  0  0  0  0  0  0  0
  141.0170   73.8990  220.2440 N   0  0  0  0  0  0  0  0  0  0  0  0
  141.0760   72.5470  220.1810 C   0  0  0  0  0  0  0  0  0  0  0  0
  141.6610   71.9090  219.0400 N   0  0  0  0  0  0  0  0  0  0  0  0
  143.0520   71.4590  219.0230 C   0  0  0  0  0  0  0  0  0  0  0  0
  143.9870   72.5890  219.4970 C   0  0  0  0  0  0  0  0  0  0  0  0
  143.4850   73.9360  219.1380 N   0  0  0  0  0  0  0  0  0  0  0  0
  144.0720   74.9420  220.0470 C   0  0  0  0  0  0  0  0  0  0  0  0
  143.5700   76.3620  219.7010 C   0  0  0  0  0  0  0  0  0  0  0  0
  142.9080   76.4190  218.4510 O   0  0  0  0  0  0  0  0  0  0  0  0
  143.7020   75.7940  217.4660 C   0  0  0  0  0  0  0  0  0  0  0  0
  143.7960   74.2780  217.7270 C   0  0  0  0  0  0  0  0  0  0  0  0
  140.6300   71.8070  221.2290 N   0  0  0  0  0  0  0  0  0  0  0  0
  140.1450   72.4060  222.3450 C   0  0  0  0  0  0  0  0  0  0  0  0
  139.7210   71.6140  223.4700 N   0  0  0  0  0  0  0  0  0  0  0  0
  138.5130   70.7840  223.3980 C   0  0  0  0  0  0  0  0  0  0  0  0
  138.8580   69.3630  223.8240 C   0  0  0  0  0  0  0  0  0  0  0  0
  139.5350   69.3620  225.1700 C   0  0  0  0  0  0  0  0  0  0  0  0
  139.4500   68.2210  225.9830 C   0  0  0  0  0  0  0  0  0  0  0  0
  140.1030   68.1880  227.2170 C   0  0  0  0  0  0  0  0  0  0  0  0
  140.8500   69.2860  227.6440 C   0  0  0  0  0  0  0  0  0  0  0  0
  140.9500   70.4240  226.8420 C   0  0  0  0  0  0  0  0  0  0  0  0
  140.3060   70.4690  225.5950 C   0  0  0  0  0  0  0  0  0  0  0  0
  140.4340   71.7210  224.7530 C   0  0  0  0  0  0  0  0  0  0  0  0
  140.1050   73.7620  222.4060 N   0  0  0  0  0  0  0  0  0  0  0  0
  140.7380   76.6000  222.7000 C   0  0  0  0  0  0  0  0  0  0  0  0
  142.3999   81.7258  222.1261 H   0  0  0  0  0  0  0  0  0  0  0  0
  142.4887   80.6091  224.3549 H   0  0  0  0  0  0  0  0  0  0  0  0
  141.7085   78.2564  224.6081 H   0  0  0  0  0  0  0  0  0  0  0  0
  141.5716   80.4801  220.1326 H   0  0  0  0  0  0  0  0  0  0  0  0
  140.1715   78.5852  219.3454 H   0  0  0  0  0  0  0  0  0  0  0  0
  141.6527   77.5476  219.4955 H   0  0  0  0  0  0  0  0  0  0  0  0
  138.8730   77.0327  220.6334 H   0  0  0  0  0  0  0  0  0  0  0  0
  139.7903   76.0514  219.4391 H   0  0  0  0  0  0  0  0  0  0  0  0
  141.0750   71.7610  218.1900 H   0  0  0  0  0  0  0  0  0  0  0  0
  143.1612   70.5931  219.6925 H   0  0  0  0  0  0  0  0  0  0  0  0
  143.3240   71.1779  217.9949 H   0  0  0  0  0  0  0  0  0  0  0  0
  144.0838   72.5298  220.5911 H   0  0  0  0  0  0  0  0  0  0  0  0
  144.9557   72.4510  218.9944 H   0  0  0  0  0  0  0  0  0  0  0  0
  142.4450   73.9460  219.2720 H   0  0  0  0  0  0  0  0  0  0  0  0
  143.7863   74.7018  221.0817 H   0  0  0  0  0  0  0  0  0  0  0  0
  145.1660   74.9201  219.9339 H   0  0  0  0  0  0  0  0  0  0  0  0
  142.8705   76.6884  220.4847 H   0  0  0  0  0  0  0  0  0  0  0  0
  144.4499   77.0194  219.6408 H   0  0  0  0  0  0  0  0  0  0  0  0
  143.2510   75.9633  216.4771 H   0  0  0  0  0  0  0  0  0  0  0  0
  144.7141   76.2234  217.5011 H   0  0  0  0  0  0  0  0  0  0  0  0
  143.0818   73.7597  217.0703 H   0  0  0  0  0  0  0  0  0  0  0  0
  144.8289   73.9612  217.5204 H   0  0  0  0  0  0  0  0  0  0  0  0
  137.7442   71.1935  224.0698 H   0  0  0  0  0  0  0  0  0  0  0  0
  138.1282   70.7786  222.3675 H   0  0  0  0  0  0  0  0  0  0  0  0
  137.9340   68.7692  223.8838 H   0  0  0  0  0  0  0  0  0  0  0  0
  139.5434   68.9271  223.0822 H   0  0  0  0  0  0  0  0  0  0  0  0
  138.8674   67.3504  225.6473 H   0  0  0  0  0  0  0  0  0  0  0  0
  140.0281   67.2942  227.8537 H   0  0  0  0  0  0  0  0  0  0  0  0
  141.3624   69.2549  228.6169 H   0  0  0  0  0  0  0  0  0  0  0  0
  141.5354   71.2886  227.1880 H   0  0  0  0  0  0  0  0  0  0  0  0
  140.0191   72.5693  225.3172 H   0  0  0  0  0  0  0  0  0  0  0  0
  141.5015   71.8659  224.5305 H   0  0  0  0  0  0  0  0  0  0  0  0
  139.8075   76.6108  223.2865 H   0  0  0  0  0  0  0  0  0  0  0  0
  141.5274   76.0433  223.2263 H   0  0  0  0  0  0  0  0  0  0  0  0
  1  2  2  0
  2  3  1  0
  3  4  2  0
  4  5  1  0
  5  6  2  0
  5  7  1  0
  7  8  1  0
  8  9  1  0
  9 10  1  0
 10 11  2  0
 11 12  1  0
 12 13  1  0
 13 14  1  0
 14 15  1  0
 15 16  1  0
 16 17  1  0
 17 18  1  0
 18 19  1  0
 19 20  1  0
 20 21  1  0
 12 22  2  0
 22 23  1  0
 23 24  1  0
 24 25  1  0
 25 26  1  0
 26 27  1  0
 27 28  2  0
 28 29  1  0
 29 30  2  0
 30 31  1  0
 31 32  2  0
 32 33  1  0
 23 34  2  0
  9 35  1  0
  6  1  1  0
 34 10  1  0
 35  4  1  0
 21 16  1  0
 33 24  1  0
 32 27  1  0
  1 36  1  0
  2 37  1  0
  3 38  1  0
  6 39  1  0
  7 40  1  0
  7 41  1  0
  8 42  1  0
  8 43  1  0
 13 44  1  0
 14 45  1  0
 14 46  1  0
 15 47  1  0
 15 48  1  0
 16 49  1  0
 17 50  1  0
 17 51  1  0
 18 52  1  0
 18 53  1  0
 20 54  1  0
 20 55  1  0
 21 56  1  0
 21 57  1  0
 25 58  1  0
 25 59  1  0
 26 60  1  0
 26 61  1  0
 28 62  1  0
 29 63  1  0
 30 64  1  0
 31 65  1  0
 33 66  1  0
 33 67  1  0
 35 68  1  0
 35 69  1  0
M  CHG  1  16   1
M  END
>  <UniqueID>  (37) 
283

>  <SMILES>  (37) 
c1ccc2c(c1)CCN(c1nc(NCC[NH+]3CCOCC3)nc(N3CCc4ccccc4C3)n1)C2

>  <Energy>  (37) 
90.44437712389667

>  <Genealogy>  (37) 
c1ccc2c(c1)CCN(c1nc(NCC[NH+]3CCOCC3)nc(N3CCc4ccccc4C3)n1)C2 (protonated)
c1ccc2c(c1)CCN(c1nc(NCC[NH+]3CCOCC3)nc(N3CCc4ccccc4C3)n1)C2 (3D coordinates assigned)
c1ccc2c(c1)CCN(c1nc(NCC[NH+]3CCOCC3)nc(N3CCc4ccccc4C3)n1)C2 (nonaromatic ring conformer: 90.44437712389667 kcal/mol)

>  <smiles>  (37) 
c1ccc2c(c1)CCN(c1nc(NCCN3CCOCC3)nc(N3CCc4ccccc4C3)n1)C2

>  <score_type>  (37) 
oracle

>  <origin>  (37) 
autodockgpu

>  <m_score__min__energy>  (37) 
-9.0199999999999996

>  <m_primary>  (37) 
energy

>  <meeko>  (37) 
{"free_energy": -8.73, "intermolecular_energy": -10.52, "internal_energy": -2.41, "cluster_size": 8, "cluster_id": 2, "rank_in_cluster": 6}

>  <energy>  (37) 
-8.12

>  <cluster_rmsd>  (37) 
1.68

>  <rmsd>  (37) 
270.83

>  <cluster>  (37) 
5

$$$$
XKJAOWLAVYPRNA-QTZDNFDFNA-O
     RDKit          3D

 69 74  0  0  0  0  0  0  0  0999 V2000
  139.9400   69.2130  227.6700 C   0  0  0  0  0  0  0  0  0  0  0  0
  140.8240   70.2870  227.8020 C   0  0  0  0  0  0  0  0  0  0  0  0
  141.0550   71.1410  226.7230 C   0  0  0  0  0  0  0  0  0  0  0  0
  140.3920   70.9370  225.5010 C   0  0  0  0  0  0  0  0  0  0  0  0
  139.5020   69.8430  225.3630 C   0  0  0  0  0  0  0  0  0  0  0  0
  139.2780   68.9940  226.4590 C   0  0  0  0  0  0  0  0  0  0  0  0
  138.7020   69.6310  224.0990 C   0  0  0  0  0  0  0  0  0  0  0  0
  139.3620   70.2900  222.8900 C   0  0  0  0  0  0  0  0  0  0  0  0
  139.7620   71.6550  223.2310 N   0  0  0  0  0  0  0  0  0  0  0  0
  139.5310   72.7130  222.2990 C   0  0  0  0  0  0  0  0  0  0  0  0
  138.5050   72.6230  221.4160 N   0  0  0  0  0  0  0  0  0  0  0  0
  138.2690   73.6320  220.5430 C   0  0  0  0  0  0  0  0  0  0  0  0
  137.1410   73.5660  219.6620 N   0  0  0  0  0  0  0  0  0  0  0  0
  135.7880   73.9030  220.0970 C   0  0  0  0  0  0  0  0  0  0  0  0
  135.8300   74.6810  221.4270 C   0  0  0  0  0  0  0  0  0  0  0  0
  136.6820   75.8920  221.3540 N   0  0  0  0  0  0  0  0  0  0  0  0
  135.8900   77.0250  220.8330 C   0  0  0  0  0  0  0  0  0  0  0  0
  136.7480   78.3070  220.7440 C   0  0  0  0  0  0  0  0  0  0  0  0
  137.9810   78.1890  221.4300 O   0  0  0  0  0  0  0  0  0  0  0  0
  137.7540   77.6950  222.7310 C   0  0  0  0  0  0  0  0  0  0  0  0
  137.2580   76.2360  222.6780 C   0  0  0  0  0  0  0  0  0  0  0  0
  139.0730   74.7250  220.5480 N   0  0  0  0  0  0  0  0  0  0  0  0
  140.0970   74.8300  221.4310 C   0  0  0  0  0  0  0  0  0  0  0  0
  140.9140   76.0160  221.4620 N   0  0  0  0  0  0  0  0  0  0  0  0
  141.7130   76.4140  220.2970 C   0  0  0  0  0  0  0  0  0  0  0  0
  141.4050   77.8660  219.9540 C   0  0  0  0  0  0  0  0  0  0  0  0
  141.5830   78.7460  221.1630 C   0  0  0  0  0  0  0  0  0  0  0  0
  141.8890   80.1050  220.9870 C   0  0  0  0  0  0  0  0  0  0  0  0
  142.0200   80.9450  222.0940 C   0  0  0  0  0  0  0  0  0  0  0  0
  141.8410   80.4390  223.3820 C   0  0  0  0  0  0  0  0  0  0  0  0
  141.5280   79.0920  223.5720 C   0  0  0  0  0  0  0  0  0  0  0  0
  141.3850   78.2370  222.4680 C   0  0  0  0  0  0  0  0  0  0  0  0
  141.0480   76.7810  222.7110 C   0  0  0  0  0  0  0  0  0  0  0  0
  140.3160   73.8220  222.3150 N   0  0  0  0  0  0  0  0  0  0  0  0
  140.6820   71.8740  224.3490 C   0  0  0  0  0  0  0  0  0  0  0  0
  139.7648   68.5385  228.5211 H   0  0  0  0  0  0  0  0  0  0  0  0
  141.3389   70.4596  228.7586 H   0  0  0  0  0  0  0  0  0  0  0  0
  141.7600   71.9786  226.8296 H   0  0  0  0  0  0  0  0  0  0  0  0
  138.5772   68.1515  226.3636 H   0  0  0  0  0  0  0  0  0  0  0  0
  138.6136   68.5508  223.9111 H   0  0  0  0  0  0  0  0  0  0  0  0
  137.7129   70.0912  224.2404 H   0  0  0  0  0  0  0  0  0  0  0  0
  140.2502   69.7109  222.5971 H   0  0  0  0  0  0  0  0  0  0  0  0
  138.6474   70.3174  222.0542 H   0  0  0  0  0  0  0  0  0  0  0  0
  137.2910   73.2650  218.6740 H   0  0  0  0  0  0  0  0  0  0  0  0
  135.3043   74.5241  219.3287 H   0  0  0  0  0  0  0  0  0  0  0  0
  135.2185   72.9736  220.2448 H   0  0  0  0  0  0  0  0  0  0  0  0
  134.8061   74.9862  221.6888 H   0  0  0  0  0  0  0  0  0  0  0  0
  136.2629   74.0152  222.1882 H   0  0  0  0  0  0  0  0  0  0  0  0
  137.4630   75.7050  220.6790 H   0  0  0  0  0  0  0  0  0  0  0  0
  135.5169   76.7717  219.8297 H   0  0  0  0  0  0  0  0  0  0  0  0
  135.0518   77.2117  221.5205 H   0  0  0  0  0  0  0  0  0  0  0  0
  136.9539   78.5196  219.6846 H   0  0  0  0  0  0  0  0  0  0  0  0
  136.1801   79.1201  221.2197 H   0  0  0  0  0  0  0  0  0  0  0  0
  138.6928   77.7372  223.3028 H   0  0  0  0  0  0  0  0  0  0  0  0
  136.9850   78.3138  223.2164 H   0  0  0  0  0  0  0  0  0  0  0  0
  138.1057   75.5652  222.8816 H   0  0  0  0  0  0  0  0  0  0  0  0
  136.4670   76.1185  223.4334 H   0  0  0  0  0  0  0  0  0  0  0  0
  142.7828   76.3097  220.5310 H   0  0  0  0  0  0  0  0  0  0  0  0
  141.4652   75.7702  219.4402 H   0  0  0  0  0  0  0  0  0  0  0  0
  142.0868   78.2020  219.1589 H   0  0  0  0  0  0  0  0  0  0  0  0
  140.3609   77.9363  219.6151 H   0  0  0  0  0  0  0  0  0  0  0  0
  142.0260   80.5091  219.9731 H   0  0  0  0  0  0  0  0  0  0  0  0
  142.2648   82.0078  221.9508 H   0  0  0  0  0  0  0  0  0  0  0  0
  141.9470   81.1045  224.2514 H   0  0  0  0  0  0  0  0  0  0  0  0
  141.3929   78.6991  224.5905 H   0  0  0  0  0  0  0  0  0  0  0  0
  141.8484   76.3303  223.3162 H   0  0  0  0  0  0  0  0  0  0  0  0
  140.0786   76.7452  223.2296 H   0  0  0  0  0  0  0  0  0  0  0  0
  141.7121   71.7049  224.0020 H   0  0  0  0  0  0  0  0  0  0  0  0
  140.5516   72.9068  224.7045 H   0  0  0  0  0  0  0  0  0  0  0  0
  1  2  2  0
  2  3  1  0
  3  4  2  0
  4  5  1  0
  5  6  2  0
  5  7  1  0
  7  8  1  0
  8  9  1  0
  9 10  1  0
 10 11  2  0
 11 12  1  0
 12 13  1  0
 13 14  1  0
 14 15  1  0
 15 16  1  0
 16 17  1  0
 17 18  1  0
 18 19  1  0
 19 20  1  0
 20 21  1  0
 12 22  2  0
 22 23  1  0
 23 24  1  0
 24 25  1  0
 25 26  1  0
 26 27  1  0
 27 28  2  0
 28 29  1  0
 29 30  2  0
 30 31  1  0
 31 32  2  0
 32 33  1  0
 23 34  2  0
  9 35  1  0
  6  1  1  0
 34 10  1  0
 35  4  1  0
 21 16  1  0
 33 24  1  0
 32 27  1  0
  1 36  1  0
  2 37  1  0
  3 38  1  0
  6 39  1  0
  7 40  1  0
  7 41  1  0
  8 42  1  0
  8 43  1  0
 13 44  1  0
 14 45  1  0
 14 46  1  0
 15 47  1  0
 15 48  1  0
 16 49  1  0
 17 50  1  0
 17 51  1  0
 18 52  1  0
 18 53  1  0
 20 54  1  0
 20 55  1  0
 21 56  1  0
 21 57  1  0
 25 58  1  0
 25 59  1  0
 26 60  1  0
 26 61  1  0
 28 62  1  0
 29 63  1  0
 30 64  1  0
 31 65  1  0
 33 66  1  0
 33 67  1  0
 35 68  1  0
 35 69  1  0
M  CHG  1  16   1
M  END
>  <UniqueID>  (38) 
283

>  <SMILES>  (38) 
c1ccc2c(c1)CCN(c1nc(NCC[NH+]3CCOCC3)nc(N3CCc4ccccc4C3)n1)C2

>  <Energy>  (38) 
90.44437712389667

>  <Genealogy>  (38) 
c1ccc2c(c1)CCN(c1nc(NCC[NH+]3CCOCC3)nc(N3CCc4ccccc4C3)n1)C2 (protonated)
c1ccc2c(c1)CCN(c1nc(NCC[NH+]3CCOCC3)nc(N3CCc4ccccc4C3)n1)C2 (3D coordinates assigned)
c1ccc2c(c1)CCN(c1nc(NCC[NH+]3CCOCC3)nc(N3CCc4ccccc4C3)n1)C2 (nonaromatic ring conformer: 90.44437712389667 kcal/mol)

>  <smiles>  (38) 
c1ccc2c(c1)CCN(c1nc(NCCN3CCOCC3)nc(N3CCc4ccccc4C3)n1)C2

>  <score_type>  (38) 
oracle

>  <origin>  (38) 
autodockgpu

>  <m_score__min__energy>  (38) 
-9.0199999999999996

>  <m_primary>  (38) 
energy

>  <meeko>  (38) 
{"free_energy": -8.16, "intermolecular_energy": -9.95, "internal_energy": -2.58, "cluster_size": 8, "cluster_id": 5, "rank_in_cluster": 2}

>  <energy>  (38) 
-8.1

>  <cluster_rmsd>  (38) 
0.62

>  <rmsd>  (38) 
270.96

>  <cluster>  (38) 
5

$$$$
XKJAOWLAVYPRNA-QTZDNFDFNA-O
     RDKit          3D

 69 74  0  0  0  0  0  0  0  0999 V2000
  139.7740   69.4670  227.7560 C   0  0  0  0  0  0  0  0  0  0  0  0
  140.7700   70.4450  227.8110 C   0  0  0  0  0  0  0  0  0  0  0  0
  141.0590   71.2140  226.6830 C   0  0  0  0  0  0  0  0  0  0  0  0
  140.3420   71.0220  225.4890 C   0  0  0  0  0  0  0  0  0  0  0  0
  139.3380   70.0230  225.4310 C   0  0  0  0  0  0  0  0  0  0  0  0
  139.0570   69.2600  226.5750 C   0  0  0  0  0  0  0  0  0  0  0  0
  138.4820   69.8360  224.1990 C   0  0  0  0  0  0  0  0  0  0  0  0
  139.1730   70.3580  222.9410 C   0  0  0  0  0  0  0  0  0  0  0  0
  139.7250   71.6880  223.2000 N   0  0  0  0  0  0  0  0  0  0  0  0
  139.5800   72.7170  222.2190 C   0  0  0  0  0  0  0  0  0  0  0  0
  138.6640   72.5800  221.2280 N   0  0  0  0  0  0  0  0  0  0  0  0
  138.5090   73.5610  220.3060 C   0  0  0  0  0  0  0  0  0  0  0  0
  137.4910   73.4460  219.3040 N   0  0  0  0  0  0  0  0  0  0  0  0
  136.5060   74.5000  219.0660 C   0  0  0  0  0  0  0  0  0  0  0  0
  136.0660   75.1350  220.3990 C   0  0  0  0  0  0  0  0  0  0  0  0
  137.0150   76.1670  220.8820 N   0  0  0  0  0  0  0  0  0  0  0  0
  136.7260   77.4550  220.2180 C   0  0  0  0  0  0  0  0  0  0  0  0
  137.6980   78.5560  220.6990 C   0  0  0  0  0  0  0  0  0  0  0  0
  138.4370   78.1730  221.8440 O   0  0  0  0  0  0  0  0  0  0  0  0
  137.5610   77.6600  222.8230 C   0  0  0  0  0  0  0  0  0  0  0  0
  136.9470   76.3250  222.3570 C   0  0  0  0  0  0  0  0  0  0  0  0
  139.2850   74.6730  220.3720 N   0  0  0  0  0  0  0  0  0  0  0  0
  140.1990   74.8230  221.3620 C   0  0  0  0  0  0  0  0  0  0  0  0
  140.9820   76.0290  221.4530 N   0  0  0  0  0  0  0  0  0  0  0  0
  141.8150   76.4750  220.3300 C   0  0  0  0  0  0  0  0  0  0  0  0
  141.4820   77.9270  220.0090 C   0  0  0  0  0  0  0  0  0  0  0  0
  141.5900   78.7820  221.2450 C   0  0  0  0  0  0  0  0  0  0  0  0
  141.8670   80.1520  221.1120 C   0  0  0  0  0  0  0  0  0  0  0  0
  141.9330   80.9670  222.2430 C   0  0  0  0  0  0  0  0  0  0  0  0
  141.7180   80.4260  223.5110 C   0  0  0  0  0  0  0  0  0  0  0  0
  141.4330   79.0680  223.6570 C   0  0  0  0  0  0  0  0  0  0  0  0
  141.3560   78.2360  222.5290 C   0  0  0  0  0  0  0  0  0  0  0  0
  141.0480   76.7660  222.7240 C   0  0  0  0  0  0  0  0  0  0  0  0
  140.3360   73.8430  222.2930 N   0  0  0  0  0  0  0  0  0  0  0  0
  140.6960   71.8620  224.2830 C   0  0  0  0  0  0  0  0  0  0  0  0
  139.5536   68.8581  228.6452 H   0  0  0  0  0  0  0  0  0  0  0  0
  141.3274   70.6092  228.7450 H   0  0  0  0  0  0  0  0  0  0  0  0
  141.8523   71.9747  226.7283 H   0  0  0  0  0  0  0  0  0  0  0  0
  138.2677   68.4946  226.5415 H   0  0  0  0  0  0  0  0  0  0  0  0
  138.2726   68.7637  224.0708 H   0  0  0  0  0  0  0  0  0  0  0  0
  137.5526   70.4074  224.3396 H   0  0  0  0  0  0  0  0  0  0  0  0
  139.9860   69.6728  222.6589 H   0  0  0  0  0  0  0  0  0  0  0  0
  138.4419   70.4193  222.1214 H   0  0  0  0  0  0  0  0  0  0  0  0
  137.4490   72.5790  218.7260 H   0  0  0  0  0  0  0  0  0  0  0  0
  136.9520   75.2749  218.4252 H   0  0  0  0  0  0  0  0  0  0  0  0
  135.6263   74.0614  218.5722 H   0  0  0  0  0  0  0  0  0  0  0  0
  135.0801   75.6020  220.2579 H   0  0  0  0  0  0  0  0  0  0  0  0
  136.0329   74.3350  221.1532 H   0  0  0  0  0  0  0  0  0  0  0  0
  137.9850   75.8740  220.6130 H   0  0  0  0  0  0  0  0  0  0  0  0
  136.8328   77.3309  219.1302 H   0  0  0  0  0  0  0  0  0  0  0  0
  135.6996   77.7580  220.4722 H   0  0  0  0  0  0  0  0  0  0  0  0
  138.4027   78.7827  219.8854 H   0  0  0  0  0  0  0  0  0  0  0  0
  137.0947   79.4342  220.9726 H   0  0  0  0  0  0  0  0  0  0  0  0
  138.1192   77.4947  223.7564 H   0  0  0  0  0  0  0  0  0  0  0  0
  136.7500   78.3847  222.9873 H   0  0  0  0  0  0  0  0  0  0  0  0
  137.4968   75.4972  222.8287 H   0  0  0  0  0  0  0  0  0  0  0  0
  135.8872   76.3170  222.6514 H   0  0  0  0  0  0  0  0  0  0  0  0
  142.8772   76.3924  220.6035 H   0  0  0  0  0  0  0  0  0  0  0  0
  141.6181   75.8459  219.4494 H   0  0  0  0  0  0  0  0  0  0  0  0
  142.1848   78.2996  219.2492 H   0  0  0  0  0  0  0  0  0  0  0  0
  140.4502   77.9789  219.6312 H   0  0  0  0  0  0  0  0  0  0  0  0
  142.0324   80.5840  220.1140 H   0  0  0  0  0  0  0  0  0  0  0  0
  142.1551   82.0389  222.1345 H   0  0  0  0  0  0  0  0  0  0  0  0
  141.7734   81.0727  224.3991 H   0  0  0  0  0  0  0  0  0  0  0  0
  141.2680   78.6476  224.6600 H   0  0  0  0  0  0  0  0  0  0  0  0
  141.8361   76.3207  223.3490 H   0  0  0  0  0  0  0  0  0  0  0  0
  140.0606   76.6930  223.2033 H   0  0  0  0  0  0  0  0  0  0  0  0
  141.6914   71.5650  223.9210 H   0  0  0  0  0  0  0  0  0  0  0  0
  140.6872   72.9194  224.5860 H   0  0  0  0  0  0  0  0  0  0  0  0
  1  2  2  0
  2  3  1  0
  3  4  2  0
  4  5  1  0
  5  6  2  0
  5  7  1  0
  7  8  1  0
  8  9  1  0
  9 10  1  0
 10 11  2  0
 11 12  1  0
 12 13  1  0
 13 14  1  0
 14 15  1  0
 15 16  1  0
 16 17  1  0
 17 18  1  0
 18 19  1  0
 19 20  1  0
 20 21  1  0
 12 22  2  0
 22 23  1  0
 23 24  1  0
 24 25  1  0
 25 26  1  0
 26 27  1  0
 27 28  2  0
 28 29  1  0
 29 30  2  0
 30 31  1  0
 31 32  2  0
 32 33  1  0
 23 34  2  0
  9 35  1  0
  6  1  1  0
 34 10  1  0
 35  4  1  0
 21 16  1  0
 33 24  1  0
 32 27  1  0
  1 36  1  0
  2 37  1  0
  3 38  1  0
  6 39  1  0
  7 40  1  0
  7 41  1  0
  8 42  1  0
  8 43  1  0
 13 44  1  0
 14 45  1  0
 14 46  1  0
 15 47  1  0
 15 48  1  0
 16 49  1  0
 17 50  1  0
 17 51  1  0
 18 52  1  0
 18 53  1  0
 20 54  1  0
 20 55  1  0
 21 56  1  0
 21 57  1  0
 25 58  1  0
 25 59  1  0
 26 60  1  0
 26 61  1  0
 28 62  1  0
 29 63  1  0
 30 64  1  0
 31 65  1  0
 33 66  1  0
 33 67  1  0
 35 68  1  0
 35 69  1  0
M  CHG  1  16   1
M  END
>  <UniqueID>  (39) 
283

>  <SMILES>  (39) 
c1ccc2c(c1)CCN(c1nc(NCC[NH+]3CCOCC3)nc(N3CCc4ccccc4C3)n1)C2

>  <Energy>  (39) 
90.44437712389667

>  <Genealogy>  (39) 
c1ccc2c(c1)CCN(c1nc(NCC[NH+]3CCOCC3)nc(N3CCc4ccccc4C3)n1)C2 (protonated)
c1ccc2c(c1)CCN(c1nc(NCC[NH+]3CCOCC3)nc(N3CCc4ccccc4C3)n1)C2 (3D coordinates assigned)
c1ccc2c(c1)CCN(c1nc(NCC[NH+]3CCOCC3)nc(N3CCc4ccccc4C3)n1)C2 (nonaromatic ring conformer: 90.44437712389667 kcal/mol)

>  <smiles>  (39) 
c1ccc2c(c1)CCN(c1nc(NCCN3CCOCC3)nc(N3CCc4ccccc4C3)n1)C2

>  <score_type>  (39) 
oracle

>  <origin>  (39) 
autodockgpu

>  <m_score__min__energy>  (39) 
-9.0199999999999996

>  <m_primary>  (39) 
energy

>  <meeko>  (39) 
{"free_energy": -8.01, "intermolecular_energy": -9.8, "internal_energy": -2.77, "cluster_size": 8, "cluster_id": 5, "rank_in_cluster": 7}

>  <energy>  (39) 
-8.01

>  <cluster_rmsd>  (39) 
0.45

>  <rmsd>  (39) 
271.01

>  <cluster>  (39) 
5

$$$$
XKJAOWLAVYPRNA-QTZDNFDFNA-O
     RDKit          3D

 69 74  0  0  0  0  0  0  0  0999 V2000
  142.2680   80.8010  222.4390 C   0  0  0  0  0  0  0  0  0  0  0  0
  142.2030   80.1460  223.6710 C   0  0  0  0  0  0  0  0  0  0  0  0
  141.7140   78.8410  223.7450 C   0  0  0  0  0  0  0  0  0  0  0  0
  141.2990   78.1700  222.5820 C   0  0  0  0  0  0  0  0  0  0  0  0
  141.3570   78.8380  221.3330 C   0  0  0  0  0  0  0  0  0  0  0  0
  141.8530   80.1490  221.2740 C   0  0  0  0  0  0  0  0  0  0  0  0
  141.0030   78.1320  220.0450 C   0  0  0  0  0  0  0  0  0  0  0  0
  140.0690   76.9470  220.2820 C   0  0  0  0  0  0  0  0  0  0  0  0
  140.5730   76.1400  221.3930 N   0  0  0  0  0  0  0  0  0  0  0  0
  140.5660   74.7140  221.2920 C   0  0  0  0  0  0  0  0  0  0  0  0
  141.0040   74.1160  220.1560 N   0  0  0  0  0  0  0  0  0  0  0  0
  141.0180   72.7640  220.0600 C   0  0  0  0  0  0  0  0  0  0  0  0
  141.5490   72.1360  218.8880 N   0  0  0  0  0  0  0  0  0  0  0  0
  142.8940   71.5660  218.8470 C   0  0  0  0  0  0  0  0  0  0  0  0
  143.8880   72.5800  218.2470 C   0  0  0  0  0  0  0  0  0  0  0  0
  143.4300   73.9820  218.3870 N   0  0  0  0  0  0  0  0  0  0  0  0
  144.0840   74.6030  219.5570 C   0  0  0  0  0  0  0  0  0  0  0  0
  143.6300   76.0700  219.7330 C   0  0  0  0  0  0  0  0  0  0  0  0
  142.9320   76.5660  218.6050 O   0  0  0  0  0  0  0  0  0  0  0  0
  143.6690   76.2910  217.4340 C   0  0  0  0  0  0  0  0  0  0  0  0
  143.7110   74.7740  217.1630 C   0  0  0  0  0  0  0  0  0  0  0  0
  140.5780   72.0140  221.1030 N   0  0  0  0  0  0  0  0  0  0  0  0
  140.1440   72.6010  222.2460 C   0  0  0  0  0  0  0  0  0  0  0  0
  139.7270   71.7950  223.3650 N   0  0  0  0  0  0  0  0  0  0  0  0
  138.4320   71.1050  223.3570 C   0  0  0  0  0  0  0  0  0  0  0  0
  138.6500   69.6330  223.6840 C   0  0  0  0  0  0  0  0  0  0  0  0
  139.4300   69.4830  224.9640 C   0  0  0  0  0  0  0  0  0  0  0  0
  139.2840   68.3130  225.7260 C   0  0  0  0  0  0  0  0  0  0  0  0
  140.0260   68.1400  226.8960 C   0  0  0  0  0  0  0  0  0  0  0  0
  140.9230   69.1270  227.3090 C   0  0  0  0  0  0  0  0  0  0  0  0
  141.0840   70.2910  226.5570 C   0  0  0  0  0  0  0  0  0  0  0  0
  140.3500   70.4760  225.3740 C   0  0  0  0  0  0  0  0  0  0  0  0
  140.5480   71.7530  224.5840 C   0  0  0  0  0  0  0  0  0  0  0  0
  140.1500   73.9560  222.3400 N   0  0  0  0  0  0  0  0  0  0  0  0
  140.7590   76.7630  222.7060 C   0  0  0  0  0  0  0  0  0  0  0  0
  142.6467   81.8324  222.3853 H   0  0  0  0  0  0  0  0  0  0  0  0
  142.5378   80.6596  224.5843 H   0  0  0  0  0  0  0  0  0  0  0  0
  141.6530   78.3345  224.7195 H   0  0  0  0  0  0  0  0  0  0  0  0
  141.9157   80.6669  220.3056 H   0  0  0  0  0  0  0  0  0  0  0  0
  140.5064   78.8470  219.3726 H   0  0  0  0  0  0  0  0  0  0  0  0
  141.9331   77.7487  219.6001 H   0  0  0  0  0  0  0  0  0  0  0  0
  139.0623   77.3173  220.5256 H   0  0  0  0  0  0  0  0  0  0  0  0
  140.0240   76.3296  219.3727 H   0  0  0  0  0  0  0  0  0  0  0  0
  140.9550   72.0840  218.0320 H   0  0  0  0  0  0  0  0  0  0  0  0
  143.2103   71.3092  219.8687 H   0  0  0  0  0  0  0  0  0  0  0  0
  142.8807   70.6637  218.2180 H   0  0  0  0  0  0  0  0  0  0  0  0
  144.8541   72.4724  218.7619 H   0  0  0  0  0  0  0  0  0  0  0  0
  143.9735   72.3645  217.1717 H   0  0  0  0  0  0  0  0  0  0  0  0
  142.3950   73.9740  218.5610 H   0  0  0  0  0  0  0  0  0  0  0  0
  143.8198   74.0340  220.4606 H   0  0  0  0  0  0  0  0  0  0  0  0
  145.1723   74.5902  219.3973 H   0  0  0  0  0  0  0  0  0  0  0  0
  142.9692   76.1309  220.6103 H   0  0  0  0  0  0  0  0  0  0  0  0
  144.5337   76.6841  219.8605 H   0  0  0  0  0  0  0  0  0  0  0  0
  143.1943   76.7976  216.5808 H   0  0  0  0  0  0  0  0  0  0  0  0
  144.6980   76.6558  217.5688 H   0  0  0  0  0  0  0  0  0  0  0  0
  142.9572   74.5285  216.4004 H   0  0  0  0  0  0  0  0  0  0  0  0
  144.7239   74.5185  216.8183 H   0  0  0  0  0  0  0  0  0  0  0  0
  137.7697   71.5557  224.1108 H   0  0  0  0  0  0  0  0  0  0  0  0
  137.9676   71.1995  222.3643 H   0  0  0  0  0  0  0  0  0  0  0  0
  137.6734   69.1393  223.7960 H   0  0  0  0  0  0  0  0  0  0  0  0
  139.2199   69.1690  222.8655 H   0  0  0  0  0  0  0  0  0  0  0  0
  138.5830   67.5303  225.4003 H   0  0  0  0  0  0  0  0  0  0  0  0
  139.9037   67.2245  227.4934 H   0  0  0  0  0  0  0  0  0  0  0  0
  141.5054   68.9862  228.2315 H   0  0  0  0  0  0  0  0  0  0  0  0
  141.7884   71.0667  226.8919 H   0  0  0  0  0  0  0  0  0  0  0  0
  140.2768   72.6075  225.2214 H   0  0  0  0  0  0  0  0  0  0  0  0
  141.6035   71.7955  224.2772 H   0  0  0  0  0  0  0  0  0  0  0  0
  139.7901   76.7968  223.2257 H   0  0  0  0  0  0  0  0  0  0  0  0
  141.4871   76.1632  223.2718 H   0  0  0  0  0  0  0  0  0  0  0  0
  1  2  2  0
  2  3  1  0
  3  4  2  0
  4  5  1  0
  5  6  2  0
  5  7  1  0
  7  8  1  0
  8  9  1  0
  9 10  1  0
 10 11  2  0
 11 12  1  0
 12 13  1  0
 13 14  1  0
 14 15  1  0
 15 16  1  0
 16 17  1  0
 17 18  1  0
 18 19  1  0
 19 20  1  0
 20 21  1  0
 12 22  2  0
 22 23  1  0
 23 24  1  0
 24 25  1  0
 25 26  1  0
 26 27  1  0
 27 28  2  0
 28 29  1  0
 29 30  2  0
 30 31  1  0
 31 32  2  0
 32 33  1  0
 23 34  2  0
  9 35  1  0
  6  1  1  0
 34 10  1  0
 35  4  1  0
 21 16  1  0
 33 24  1  0
 32 27  1  0
  1 36  1  0
  2 37  1  0
  3 38  1  0
  6 39  1  0
  7 40  1  0
  7 41  1  0
  8 42  1  0
  8 43  1  0
 13 44  1  0
 14 45  1  0
 14 46  1  0
 15 47  1  0
 15 48  1  0
 16 49  1  0
 17 50  1  0
 17 51  1  0
 18 52  1  0
 18 53  1  0
 20 54  1  0
 20 55  1  0
 21 56  1  0
 21 57  1  0
 25 58  1  0
 25 59  1  0
 26 60  1  0
 26 61  1  0
 28 62  1  0
 29 63  1  0
 30 64  1  0
 31 65  1  0
 33 66  1  0
 33 67  1  0
 35 68  1  0
 35 69  1  0
M  CHG  1  16   1
M  END
>  <UniqueID>  (40) 
283

>  <SMILES>  (40) 
c1ccc2c(c1)CCN(c1nc(NCC[NH+]3CCOCC3)nc(N3CCc4ccccc4C3)n1)C2

>  <Energy>  (40) 
90.44437712389667

>  <Genealogy>  (40) 
c1ccc2c(c1)CCN(c1nc(NCC[NH+]3CCOCC3)nc(N3CCc4ccccc4C3)n1)C2 (protonated)
c1ccc2c(c1)CCN(c1nc(NCC[NH+]3CCOCC3)nc(N3CCc4ccccc4C3)n1)C2 (3D coordinates assigned)
c1ccc2c(c1)CCN(c1nc(NCC[NH+]3CCOCC3)nc(N3CCc4ccccc4C3)n1)C2 (nonaromatic ring conformer: 90.44437712389667 kcal/mol)

>  <smiles>  (40) 
c1ccc2c(c1)CCN(c1nc(NCCN3CCOCC3)nc(N3CCc4ccccc4C3)n1)C2

>  <score_type>  (40) 
oracle

>  <origin>  (40) 
autodockgpu

>  <m_score__min__energy>  (40) 
-9.0199999999999996

>  <m_primary>  (40) 
energy

>  <meeko>  (40) 
{"free_energy": -8.72, "intermolecular_energy": -10.51, "internal_energy": -2.42, "cluster_size": 8, "cluster_id": 2, "rank_in_cluster": 7}

>  <energy>  (40) 
-7.82

>  <cluster_rmsd>  (40) 
1.87

>  <rmsd>  (40) 
270.77

>  <cluster>  (40) 
5

$$$$
XKJAOWLAVYPRNA-DMHZYSPMNA-O
     RDKit          3D

 69 74  0  0  0  0  0  0  0  0999 V2000
  140.8302   81.2838  224.2570 H   0  0  0  0  0  0  0  0  0  0  0  0
  140.9580   80.4400  223.5630 C   0  0  0  0  0  0  0  0  0  0  0  0
  142.0360   80.4230  222.6780 C   0  0  0  0  0  0  0  0  0  0  0  0
  142.7550   81.2554  222.6725 H   0  0  0  0  0  0  0  0  0  0  0  0
  142.2040   79.3510  221.7990 C   0  0  0  0  0  0  0  0  0  0  0  0
  143.0650   79.3353  221.1146 H   0  0  0  0  0  0  0  0  0  0  0  0
  141.2810   78.2930  221.7830 C   0  0  0  0  0  0  0  0  0  0  0  0
  140.1960   78.3010  222.6890 C   0  0  0  0  0  0  0  0  0  0  0  0
  140.0400   79.3860  223.5690 C   0  0  0  0  0  0  0  0  0  0  0  0
  139.1899   79.4057  224.2669 H   0  0  0  0  0  0  0  0  0  0  0  0
  139.1720   77.1880  222.7180 C   0  0  0  0  0  0  0  0  0  0  0  0
  138.1895   77.6062  222.4538 H   0  0  0  0  0  0  0  0  0  0  0  0
  139.1720   76.7616  223.7320 H   0  0  0  0  0  0  0  0  0  0  0  0
  139.4900   76.1020  221.7780 N   0  0  0  0  0  0  0  0  0  0  0  0
  138.8940   74.8020  221.9670 C   0  0  0  0  0  0  0  0  0  0  0  0
  139.6480   73.7510  222.3780 N   0  0  0  0  0  0  0  0  0  0  0  0
  139.0940   72.5270  222.5750 C   0  0  0  0  0  0  0  0  0  0  0  0
  139.9110   71.4510  223.0790 N   0  0  0  0  0  0  0  0  0  0  0  0
  140.6950   71.6240  224.3060 C   0  0  0  0  0  0  0  0  0  0  0  0
  140.4476   72.5957  224.7583 H   0  0  0  0  0  0  0  0  0  0  0  0
  141.7642   71.5823  224.0508 H   0  0  0  0  0  0  0  0  0  0  0  0
  140.3890   70.5230  225.2970 C   0  0  0  0  0  0  0  0  0  0  0  0
  140.8400   70.6530  226.6200 C   0  0  0  0  0  0  0  0  0  0  0  0
  141.3952   71.5529  226.9232 H   0  0  0  0  0  0  0  0  0  0  0  0
  140.5870   69.6450  227.5530 C   0  0  0  0  0  0  0  0  0  0  0  0
  140.9422   69.7551  228.5882 H   0  0  0  0  0  0  0  0  0  0  0  0
  139.8850   68.4980  227.1770 C   0  0  0  0  0  0  0  0  0  0  0  0
  139.6807   67.7111  227.9180 H   0  0  0  0  0  0  0  0  0  0  0  0
  139.4420   68.3490  225.8610 C   0  0  0  0  0  0  0  0  0  0  0  0
  138.8836   67.4467  225.5712 H   0  0  0  0  0  0  0  0  0  0  0  0
  139.7050   69.3440  224.9050 C   0  0  0  0  0  0  0  0  0  0  0  0
  139.1660   69.1720  223.5010 C   0  0  0  0  0  0  0  0  0  0  0  0
  138.0892   69.3968  223.5024 H   0  0  0  0  0  0  0  0  0  0  0  0
  139.3513   68.1342  223.1870 H   0  0  0  0  0  0  0  0  0  0  0  0
  139.8650   70.1020  222.5100 C   0  0  0  0  0  0  0  0  0  0  0  0
  139.3065   70.1194  221.5625 H   0  0  0  0  0  0  0  0  0  0  0  0
  140.8868   69.7428  222.3179 H   0  0  0  0  0  0  0  0  0  0  0  0
  137.7590   72.3550  222.3540 N   0  0  0  0  0  0  0  0  0  0  0  0
  137.3090   71.4340  222.5500 H   0  0  0  0  0  0  0  0  0  0  0  0
  136.9880   73.4030  221.9480 C   0  0  0  0  0  0  0  0  0  0  0  0
  135.7020   73.2440  221.7770 N   0  0  0  0  0  0  0  0  0  0  0  0
  135.2790   73.4460  220.8420 H   0  0  0  0  0  0  0  0  0  0  0  0
  134.7980   72.7510  222.8210 C   0  0  0  0  0  0  0  0  0  0  0  0
  135.1941   73.0438  223.8045 H   0  0  0  0  0  0  0  0  0  0  0  0
  133.8038   73.1907  222.6531 H   0  0  0  0  0  0  0  0  0  0  0  0
  134.6640   71.2240  222.7720 C   0  0  0  0  0  0  0  0  0  0  0  0
  133.9532   70.8976  223.5455 H   0  0  0  0  0  0  0  0  0  0  0  0
  134.3009   70.9296  221.7763 H   0  0  0  0  0  0  0  0  0  0  0  0
  135.9790   70.5810  223.0140 N   0  0  0  0  0  0  0  0  0  0  0  0
  136.2330   70.3170  224.4470 C   0  0  0  0  0  0  0  0  0  0  0  0
  137.3191   70.2447  224.6053 H   0  0  0  0  0  0  0  0  0  0  0  0
  135.7948   71.1458  225.0224 H   0  0  0  0  0  0  0  0  0  0  0  0
  135.5720   69.0050  224.9340 C   0  0  0  0  0  0  0  0  0  0  0  0
  136.3542   68.2495  225.0993 H   0  0  0  0  0  0  0  0  0  0  0  0
  135.0303   69.2149  225.8681 H   0  0  0  0  0  0  0  0  0  0  0  0
  134.6490   68.5120  223.9840 O   0  0  0  0  0  0  0  0  0  0  0  0
  135.3250   68.1680  222.7920 C   0  0  0  0  0  0  0  0  0  0  0  0
  135.9968   67.3218  222.9984 H   0  0  0  0  0  0  0  0  0  0  0  0
  134.5664   67.9060  222.0397 H   0  0  0  0  0  0  0  0  0  0  0  0
  136.1640   69.3440  222.2280 C   0  0  0  0  0  0  0  0  0  0  0  0
  137.2277   69.0645  222.2503 H   0  0  0  0  0  0  0  0  0  0  0  0
  135.8264   69.5405  221.1997 H   0  0  0  0  0  0  0  0  0  0  0  0
  137.5640   74.6200  221.7610 N   0  0  0  0  0  0  0  0  0  0  0  0
  140.1990   76.4230  220.5340 C   0  0  0  0  0  0  0  0  0  0  0  0
  139.5734   77.0837  219.9159 H   0  0  0  0  0  0  0  0  0  0  0  0
  140.4095   75.4945  219.9830 H   0  0  0  0  0  0  0  0  0  0  0  0
  141.5100   77.1260  220.8610 C   0  0  0  0  0  0  0  0  0  0  0  0
  141.9660   77.4888  219.9280 H   0  0  0  0  0  0  0  0  0  0  0  0
  142.1765   76.4089  221.3624 H   0  0  0  0  0  0  0  0  0  0  0  0
  1  2  1  0
  2  3  2  0
  3  4  1  0
  3  5  1  0
  5  6  1  0
  5  7  2  0
  7  8  1  0
  8  9  2  0
  9 10  1  0
  8 11  1  0
 11 12  1  0
 11 13  1  0
 11 14  1  0
 14 15  1  0
 15 16  1  0
 16 17  2  0
 17 18  1  0
 18 19  1  0
 19 20  1  0
 19 21  1  0
 19 22  1  0
 22 23  2  0
 23 24  1  0
 23 25  1  0
 25 26  1  0
 25 27  2  0
 27 28  1  0
 27 29  1  0
 29 30  1  0
 29 31  2  0
 31 32  1  0
 32 33  1  0
 32 34  1  0
 32 35  1  0
 35 36  1  0
 35 37  1  0
 17 38  1  0
 38 39  1  0
 38 40  1  0
 40 41  2  0
 41 42  1  0
 41 43  1  0
 43 44  1  0
 43 45  1  0
 43 46  1  0
 46 47  1  0
 46 48  1  0
 46 49  1  0
 49 50  1  0
 50 51  1  0
 50 52  1  0
 50 53  1  0
 53 54  1  0
 53 55  1  0
 53 56  1  0
 56 57  1  0
 57 58  1  0
 57 59  1  0
 57 60  1  0
 60 61  1  0
 60 62  1  0
 40 63  1  0
 14 64  1  0
 64 65  1  0
 64 66  1  0
 64 67  1  0
 67 68  1  0
 67 69  1  0
  9  2  1  0
 63 15  2  0
 67  7  1  0
 35 18  1  0
 60 49  1  0
 31 22  1  0
M  CHG  1  41   1
M  END
>  <UniqueID>  (41) 
284

>  <SMILES>  (41) 
c1ccc2c(c1)CCN(c1nc(N3CCc4ccccc4C3)[nH]/c(=[NH+]/CCN3CCOCC3)n1)C2

>  <Energy>  (41) 
93.46906350042954

>  <Genealogy>  (41) 
c1ccc2c(c1)CCN(c1nc([NH2+]CCN3CCOCC3)nc(N3CCc4ccccc4C3)n1)C2 (protonated)
c1ccc2c(c1)CCN(c1nc(N3CCc4ccccc4C3)[nH]c(=[NH+]CCN3CCOCC3)n1)C2 (tautomer)
c1ccc2c(c1)CCN(c1nc(N3CCc4ccccc4C3)[nH]/c(=[NH+]/CCN3CCOCC3)n1)C2 (cis-trans isomerization)
c1ccc2c(c1)CCN(c1nc(N3CCc4ccccc4C3)[nH]/c(=[NH+]/CCN3CCOCC3)n1)C2 (3D coordinates assigned)
c1ccc2c(c1)CCN(c1nc(N3CCc4ccccc4C3)[nH]/c(=[NH+]/CCN3CCOCC3)n1)C2 (nonaromatic ring conformer: 93.46906350042954 kcal/mol)

>  <smiles>  (41) 
c1ccc2c(c1)CCN(c1nc(NCCN3CCOCC3)nc(N3CCc4ccccc4C3)n1)C2

>  <score_type>  (41) 
oracle

>  <origin>  (41) 
autodockgpu

>  <m_score__min__energy>  (41) 
-9.3100000000000005

>  <m_primary>  (41) 
energy

>  <meeko>  (41) 
{"free_energy": -8.21, "intermolecular_energy": -10.0, "internal_energy": -1.97, "cluster_size": 7, "cluster_id": 2, "rank_in_cluster": 1}

>  <energy>  (41) 
-9.31

>  <cluster_rmsd>  (41) 
0.0

>  <rmsd>  (41) 
269.56

>  <cluster>  (41) 
1

$$$$
XKJAOWLAVYPRNA-DMHZYSPMNA-O
     RDKit          3D

 69 74  0  0  0  0  0  0  0  0999 V2000
  140.7770   81.4061  224.2788 H   0  0  0  0  0  0  0  0  0  0  0  0
  140.9150   80.5670  223.5810 C   0  0  0  0  0  0  0  0  0  0  0  0
  141.9990   80.5620  222.7030 C   0  0  0  0  0  0  0  0  0  0  0  0
  142.7132   81.3986  222.7075 H   0  0  0  0  0  0  0  0  0  0  0  0
  142.1790   79.4960  221.8180 C   0  0  0  0  0  0  0  0  0  0  0  0
  143.0437   79.4902  221.1381 H   0  0  0  0  0  0  0  0  0  0  0  0
  141.2630   78.4320  221.7910 C   0  0  0  0  0  0  0  0  0  0  0  0
  140.1730   78.4290  222.6900 C   0  0  0  0  0  0  0  0  0  0  0  0
  140.0040   79.5070  223.5750 C   0  0  0  0  0  0  0  0  0  0  0  0
  139.1494   79.5169  224.2675 H   0  0  0  0  0  0  0  0  0  0  0  0
  139.1550   77.3080  222.7060 C   0  0  0  0  0  0  0  0  0  0  0  0
  138.1715   77.7216  222.4384 H   0  0  0  0  0  0  0  0  0  0  0  0
  139.1521   76.8754  223.7174 H   0  0  0  0  0  0  0  0  0  0  0  0
  139.4850   76.2300  221.7620 N   0  0  0  0  0  0  0  0  0  0  0  0
  138.8970   74.9250  221.9400 C   0  0  0  0  0  0  0  0  0  0  0  0
  139.6570   73.8750  222.3420 N   0  0  0  0  0  0  0  0  0  0  0  0
  139.1100   72.6460  222.5280 C   0  0  0  0  0  0  0  0  0  0  0  0
  139.9320   71.5700  223.0220 N   0  0  0  0  0  0  0  0  0  0  0  0
  140.7000   71.7300  224.2620 C   0  0  0  0  0  0  0  0  0  0  0  0
  140.4360   72.6905  224.7287 H   0  0  0  0  0  0  0  0  0  0  0  0
  141.7725   71.7053  224.0190 H   0  0  0  0  0  0  0  0  0  0  0  0
  140.3950   70.6080  225.2290 C   0  0  0  0  0  0  0  0  0  0  0  0
  140.8280   70.7180  226.5590 C   0  0  0  0  0  0  0  0  0  0  0  0
  141.3694   71.6181  226.8855 H   0  0  0  0  0  0  0  0  0  0  0  0
  140.5750   69.6900  227.4710 C   0  0  0  0  0  0  0  0  0  0  0  0
  140.9155   69.7853  228.5126 H   0  0  0  0  0  0  0  0  0  0  0  0
  139.8920   68.5430  227.0650 C   0  0  0  0  0  0  0  0  0  0  0  0
  139.6887   67.7399  227.7887 H   0  0  0  0  0  0  0  0  0  0  0  0
  139.4660   68.4130  225.7410 C   0  0  0  0  0  0  0  0  0  0  0  0
  138.9212   67.5100  225.4282 H   0  0  0  0  0  0  0  0  0  0  0  0
  139.7290   69.4280  224.8070 C   0  0  0  0  0  0  0  0  0  0  0  0
  139.2090   69.2760  223.3940 C   0  0  0  0  0  0  0  0  0  0  0  0
  138.1298   69.4890  223.3864 H   0  0  0  0  0  0  0  0  0  0  0  0
  139.4097   68.2462  223.0635 H   0  0  0  0  0  0  0  0  0  0  0  0
  139.9090   70.2310  222.4290 C   0  0  0  0  0  0  0  0  0  0  0  0
  139.3622   70.2588  221.4749 H   0  0  0  0  0  0  0  0  0  0  0  0
  140.9373   69.8871  222.2437 H   0  0  0  0  0  0  0  0  0  0  0  0
  137.7760   72.4680  222.3060 N   0  0  0  0  0  0  0  0  0  0  0  0
  137.3310   71.5430  222.4940 H   0  0  0  0  0  0  0  0  0  0  0  0
  136.9990   73.5160  221.9100 C   0  0  0  0  0  0  0  0  0  0  0  0
  135.7130   73.3510  221.7380 N   0  0  0  0  0  0  0  0  0  0  0  0
  135.0730   74.1740  221.8240 H   0  0  0  0  0  0  0  0  0  0  0  0
  135.0990   72.0680  221.3840 C   0  0  0  0  0  0  0  0  0  0  0  0
  134.1228   72.2564  220.9133 H   0  0  0  0  0  0  0  0  0  0  0  0
  135.7722   71.5421  220.6910 H   0  0  0  0  0  0  0  0  0  0  0  0
  134.8940   71.1840  222.6210 C   0  0  0  0  0  0  0  0  0  0  0  0
  134.5845   71.8131  223.4686 H   0  0  0  0  0  0  0  0  0  0  0  0
  134.1171   70.4371  222.4006 H   0  0  0  0  0  0  0  0  0  0  0  0
  136.1530   70.4800  222.9690 N   0  0  0  0  0  0  0  0  0  0  0  0
  136.2860   70.2280  224.4210 C   0  0  0  0  0  0  0  0  0  0  0  0
  137.3522   70.1043  224.6616 H   0  0  0  0  0  0  0  0  0  0  0  0
  135.8494   71.0872  224.9512 H   0  0  0  0  0  0  0  0  0  0  0  0
  135.5250   68.9600  224.8730 C   0  0  0  0  0  0  0  0  0  0  0  0
  136.2534   68.1692  225.1057 H   0  0  0  0  0  0  0  0  0  0  0  0
  134.9269   69.2130  225.7608 H   0  0  0  0  0  0  0  0  0  0  0  0
  134.6500   68.4970  223.8640 O   0  0  0  0  0  0  0  0  0  0  0  0
  135.3940   68.1000  222.7300 C   0  0  0  0  0  0  0  0  0  0  0  0
  136.0046   67.2248  222.9969 H   0  0  0  0  0  0  0  0  0  0  0  0
  134.6804   67.8642  221.9267 H   0  0  0  0  0  0  0  0  0  0  0  0
  136.3310   69.2220  222.2150 C   0  0  0  0  0  0  0  0  0  0  0  0
  137.3743   68.8896  222.3197 H   0  0  0  0  0  0  0  0  0  0  0  0
  136.0801   69.4181  221.1621 H   0  0  0  0  0  0  0  0  0  0  0  0
  137.5680   74.7380  221.7330 N   0  0  0  0  0  0  0  0  0  0  0  0
  140.2000   76.5630  220.5240 C   0  0  0  0  0  0  0  0  0  0  0  0
  139.5738   77.2229  219.9056 H   0  0  0  0  0  0  0  0  0  0  0  0
  140.4204   75.6390  219.9693 H   0  0  0  0  0  0  0  0  0  0  0  0
  141.5040   77.2730  220.8630 C   0  0  0  0  0  0  0  0  0  0  0  0
  141.9625   77.6450  219.9349 H   0  0  0  0  0  0  0  0  0  0  0  0
  142.1722   76.5570  221.3638 H   0  0  0  0  0  0  0  0  0  0  0  0
  1  2  1  0
  2  3  2  0
  3  4  1  0
  3  5  1  0
  5  6  1  0
  5  7  2  0
  7  8  1  0
  8  9  2  0
  9 10  1  0
  8 11  1  0
 11 12  1  0
 11 13  1  0
 11 14  1  0
 14 15  1  0
 15 16  1  0
 16 17  2  0
 17 18  1  0
 18 19  1  0
 19 20  1  0
 19 21  1  0
 19 22  1  0
 22 23  2  0
 23 24  1  0
 23 25  1  0
 25 26  1  0
 25 27  2  0
 27 28  1  0
 27 29  1  0
 29 30  1  0
 29 31  2  0
 31 32  1  0
 32 33  1  0
 32 34  1  0
 32 35  1  0
 35 36  1  0
 35 37  1  0
 17 38  1  0
 38 39  1  0
 38 40  1  0
 40 41  2  0
 41 42  1  0
 41 43  1  0
 43 44  1  0
 43 45  1  0
 43 46  1  0
 46 47  1  0
 46 48  1  0
 46 49  1  0
 49 50  1  0
 50 51  1  0
 50 52  1  0
 50 53  1  0
 53 54  1  0
 53 55  1  0
 53 56  1  0
 56 57  1  0
 57 58  1  0
 57 59  1  0
 57 60  1  0
 60 61  1  0
 60 62  1  0
 40 63  1  0
 14 64  1  0
 64 65  1  0
 64 66  1  0
 64 67  1  0
 67 68  1  0
 67 69  1  0
  9  2  1  0
 63 15  2  0
 67  7  1  0
 35 18  1  0
 60 49  1  0
 31 22  1  0
M  CHG  1  41   1
M  END
>  <UniqueID>  (42) 
284

>  <SMILES>  (42) 
c1ccc2c(c1)CCN(c1nc(N3CCc4ccccc4C3)[nH]/c(=[NH+]/CCN3CCOCC3)n1)C2

>  <Energy>  (42) 
93.46906350042954

>  <Genealogy>  (42) 
c1ccc2c(c1)CCN(c1nc([NH2+]CCN3CCOCC3)nc(N3CCc4ccccc4C3)n1)C2 (protonated)
c1ccc2c(c1)CCN(c1nc(N3CCc4ccccc4C3)[nH]c(=[NH+]CCN3CCOCC3)n1)C2 (tautomer)
c1ccc2c(c1)CCN(c1nc(N3CCc4ccccc4C3)[nH]/c(=[NH+]/CCN3CCOCC3)n1)C2 (cis-trans isomerization)
c1ccc2c(c1)CCN(c1nc(N3CCc4ccccc4C3)[nH]/c(=[NH+]/CCN3CCOCC3)n1)C2 (3D coordinates assigned)
c1ccc2c(c1)CCN(c1nc(N3CCc4ccccc4C3)[nH]/c(=[NH+]/CCN3CCOCC3)n1)C2 (nonaromatic ring conformer: 93.46906350042954 kcal/mol)

>  <smiles>  (42) 
c1ccc2c(c1)CCN(c1nc(NCCN3CCOCC3)nc(N3CCc4ccccc4C3)n1)C2

>  <score_type>  (42) 
oracle

>  <origin>  (42) 
autodockgpu

>  <m_score__min__energy>  (42) 
-9.3100000000000005

>  <m_primary>  (42) 
energy

>  <meeko>  (42) 
{"free_energy": -8.12, "intermolecular_energy": -9.91, "internal_energy": -1.93, "cluster_size": 7, "cluster_id": 2, "rank_in_cluster": 7}

>  <energy>  (42) 
-9.29

>  <cluster_rmsd>  (42) 
0.1

>  <rmsd>  (42) 
269.59

>  <cluster>  (42) 
1

$$$$
XKJAOWLAVYPRNA-DMHZYSPMNA-O
     RDKit          3D

 69 74  0  0  0  0  0  0  0  0999 V2000
  140.7779   70.6878  228.9481 H   0  0  0  0  0  0  0  0  0  0  0  0
  140.3460   70.5000  227.9540 C   0  0  0  0  0  0  0  0  0  0  0  0
  139.3870   69.5000  227.7880 C   0  0  0  0  0  0  0  0  0  0  0  0
  139.0661   68.8982  228.6511 H   0  0  0  0  0  0  0  0  0  0  0  0
  138.8340   69.2620  226.5280 C   0  0  0  0  0  0  0  0  0  0  0  0
  138.0679   68.4821  226.4062 H   0  0  0  0  0  0  0  0  0  0  0  0
  139.2490   70.0110  225.4160 C   0  0  0  0  0  0  0  0  0  0  0  0
  140.2100   71.0340  225.5850 C   0  0  0  0  0  0  0  0  0  0  0  0
  140.7580   71.2630  226.8580 C   0  0  0  0  0  0  0  0  0  0  0  0
  141.5165   72.0481  226.9931 H   0  0  0  0  0  0  0  0  0  0  0  0
  140.6940   71.8730  224.4220 C   0  0  0  0  0  0  0  0  0  0  0  0
  141.7709   71.6959  224.2843 H   0  0  0  0  0  0  0  0  0  0  0  0
  140.4824   72.9257  224.6607 H   0  0  0  0  0  0  0  0  0  0  0  0
  140.0000   71.5540  223.1650 N   0  0  0  0  0  0  0  0  0  0  0  0
  140.0110   72.5100  222.0850 C   0  0  0  0  0  0  0  0  0  0  0  0
  139.7220   73.8160  222.3170 N   0  0  0  0  0  0  0  0  0  0  0  0
  139.7460   74.7260  221.3100 C   0  0  0  0  0  0  0  0  0  0  0  0
  139.5020   76.1170  221.6040 N   0  0  0  0  0  0  0  0  0  0  0  0
  140.1920   76.7730  222.7210 C   0  0  0  0  0  0  0  0  0  0  0  0
  140.9339   76.0798  223.1442 H   0  0  0  0  0  0  0  0  0  0  0  0
  139.4482   77.0483  223.4832 H   0  0  0  0  0  0  0  0  0  0  0  0
  140.8950   78.0270  222.2530 C   0  0  0  0  0  0  0  0  0  0  0  0
  141.8160   78.6510  223.1080 C   0  0  0  0  0  0  0  0  0  0  0  0
  142.0250   78.2173  224.0971 H   0  0  0  0  0  0  0  0  0  0  0  0
  142.4690   79.8200  222.7100 C   0  0  0  0  0  0  0  0  0  0  0  0
  143.1913   80.3016  223.3856 H   0  0  0  0  0  0  0  0  0  0  0  0
  142.2080   80.3790  221.4580 C   0  0  0  0  0  0  0  0  0  0  0  0
  142.7303   81.2956  221.1464 H   0  0  0  0  0  0  0  0  0  0  0  0
  141.2850   79.7770  220.6000 C   0  0  0  0  0  0  0  0  0  0  0  0
  141.0893   80.2173  219.6112 H   0  0  0  0  0  0  0  0  0  0  0  0
  140.6050   78.6120  220.9930 C   0  0  0  0  0  0  0  0  0  0  0  0
  139.6490   77.9580  220.0190 C   0  0  0  0  0  0  0  0  0  0  0  0
  140.2302   77.4143  219.2596 H   0  0  0  0  0  0  0  0  0  0  0  0
  139.0372   78.7467  219.5568 H   0  0  0  0  0  0  0  0  0  0  0  0
  138.7110   76.9770  220.7210 C   0  0  0  0  0  0  0  0  0  0  0  0
  138.1928   76.3605  219.9717 H   0  0  0  0  0  0  0  0  0  0  0  0
  137.9640   77.5302  221.3092 H   0  0  0  0  0  0  0  0  0  0  0  0
  140.0650   74.3190  220.0480 N   0  0  0  0  0  0  0  0  0  0  0  0
  140.1380   75.0150  219.2740 H   0  0  0  0  0  0  0  0  0  0  0  0
  140.3650   73.0120  219.8020 C   0  0  0  0  0  0  0  0  0  0  0  0
  140.7100   72.6330  218.5990 N   0  0  0  0  0  0  0  0  0  0  0  0
  139.9990   72.1810  217.9790 H   0  0  0  0  0  0  0  0  0  0  0  0
  142.0470   72.8400  218.0340 C   0  0  0  0  0  0  0  0  0  0  0  0
  142.7889   72.7954  218.8449 H   0  0  0  0  0  0  0  0  0  0  0  0
  142.2338   72.0518  217.2897 H   0  0  0  0  0  0  0  0  0  0  0  0
  142.1550   74.2010  217.3330 C   0  0  0  0  0  0  0  0  0  0  0  0
  142.1546   74.0487  216.2436 H   0  0  0  0  0  0  0  0  0  0  0  0
  141.2973   74.8234  217.6278 H   0  0  0  0  0  0  0  0  0  0  0  0
  143.4080   74.8890  217.7300 N   0  0  0  0  0  0  0  0  0  0  0  0
  143.3320   76.3570  217.5660 C   0  0  0  0  0  0  0  0  0  0  0  0
  144.3530   76.7543  217.4669 H   0  0  0  0  0  0  0  0  0  0  0  0
  142.7295   76.5625  216.6689 H   0  0  0  0  0  0  0  0  0  0  0  0
  142.6430   77.0520  218.7650 C   0  0  0  0  0  0  0  0  0  0  0  0
  143.4021   77.5897  219.3521 H   0  0  0  0  0  0  0  0  0  0  0  0
  141.8871   77.7493  218.3746 H   0  0  0  0  0  0  0  0  0  0  0  0
  141.9950   76.1130  219.6000 O   0  0  0  0  0  0  0  0  0  0  0  0
  142.9490   75.2410  220.1720 C   0  0  0  0  0  0  0  0  0  0  0  0
  143.5967   75.8197  220.8470 H   0  0  0  0  0  0  0  0  0  0  0  0
  142.4027   74.4548  220.7137 H   0  0  0  0  0  0  0  0  0  0  0  0
  143.8340   74.5510  219.1030 C   0  0  0  0  0  0  0  0  0  0  0  0
  144.8760   74.8752  219.2415 H   0  0  0  0  0  0  0  0  0  0  0  0
  143.7354   73.4629  219.2311 H   0  0  0  0  0  0  0  0  0  0  0  0
  140.3380   72.1190  220.8260 N   0  0  0  0  0  0  0  0  0  0  0  0
  139.5290   70.1820  222.9420 C   0  0  0  0  0  0  0  0  0  0  0  0
  140.3914   69.5001  222.9060 H   0  0  0  0  0  0  0  0  0  0  0  0
  138.9818   70.1337  221.9890 H   0  0  0  0  0  0  0  0  0  0  0  0
  138.6030   69.7690  224.0790 C   0  0  0  0  0  0  0  0  0  0  0  0
  138.3687   68.6987  223.9813 H   0  0  0  0  0  0  0  0  0  0  0  0
  137.6848   70.3718  224.0194 H   0  0  0  0  0  0  0  0  0  0  0  0
  1  2  1  0
  2  3  2  0
  3  4  1  0
  3  5  1  0
  5  6  1  0
  5  7  2  0
  7  8  1  0
  8  9  2  0
  9 10  1  0
  8 11  1  0
 11 12  1  0
 11 13  1  0
 11 14  1  0
 14 15  1  0
 15 16  1  0
 16 17  2  0
 17 18  1  0
 18 19  1  0
 19 20  1  0
 19 21  1  0
 19 22  1  0
 22 23  2  0
 23 24  1  0
 23 25  1  0
 25 26  1  0
 25 27  2  0
 27 28  1  0
 27 29  1  0
 29 30  1  0
 29 31  2  0
 31 32  1  0
 32 33  1  0
 32 34  1  0
 32 35  1  0
 35 36  1  0
 35 37  1  0
 17 38  1  0
 38 39  1  0
 38 40  1  0
 40 41  2  0
 41 42  1  0
 41 43  1  0
 43 44  1  0
 43 45  1  0
 43 46  1  0
 46 47  1  0
 46 48  1  0
 46 49  1  0
 49 50  1  0
 50 51  1  0
 50 52  1  0
 50 53  1  0
 53 54  1  0
 53 55  1  0
 53 56  1  0
 56 57  1  0
 57 58  1  0
 57 59  1  0
 57 60  1  0
 60 61  1  0
 60 62  1  0
 40 63  1  0
 14 64  1  0
 64 65  1  0
 64 66  1  0
 64 67  1  0
 67 68  1  0
 67 69  1  0
  9  2  1  0
 63 15  2  0
 67  7  1  0
 35 18  1  0
 60 49  1  0
 31 22  1  0
M  CHG  1  41   1
M  END
>  <UniqueID>  (43) 
284

>  <SMILES>  (43) 
c1ccc2c(c1)CCN(c1nc(N3CCc4ccccc4C3)[nH]/c(=[NH+]/CCN3CCOCC3)n1)C2

>  <Energy>  (43) 
93.46906350042954

>  <Genealogy>  (43) 
c1ccc2c(c1)CCN(c1nc([NH2+]CCN3CCOCC3)nc(N3CCc4ccccc4C3)n1)C2 (protonated)
c1ccc2c(c1)CCN(c1nc(N3CCc4ccccc4C3)[nH]c(=[NH+]CCN3CCOCC3)n1)C2 (tautomer)
c1ccc2c(c1)CCN(c1nc(N3CCc4ccccc4C3)[nH]/c(=[NH+]/CCN3CCOCC3)n1)C2 (cis-trans isomerization)
c1ccc2c(c1)CCN(c1nc(N3CCc4ccccc4C3)[nH]/c(=[NH+]/CCN3CCOCC3)n1)C2 (3D coordinates assigned)
c1ccc2c(c1)CCN(c1nc(N3CCc4ccccc4C3)[nH]/c(=[NH+]/CCN3CCOCC3)n1)C2 (nonaromatic ring conformer: 93.46906350042954 kcal/mol)

>  <smiles>  (43) 
c1ccc2c(c1)CCN(c1nc(NCCN3CCOCC3)nc(N3CCc4ccccc4C3)n1)C2

>  <score_type>  (43) 
oracle

>  <origin>  (43) 
autodockgpu

>  <m_score__min__energy>  (43) 
-9.3100000000000005

>  <m_primary>  (43) 
energy

>  <meeko>  (43) 
{"free_energy": -7.9, "intermolecular_energy": -9.69, "internal_energy": -2.28, "cluster_size": 11, "cluster_id": 1, "rank_in_cluster": 11}

>  <energy>  (43) 
-9.28

>  <cluster_rmsd>  (43) 
0.34

>  <rmsd>  (43) 
269.49

>  <cluster>  (43) 
1

$$$$
XKJAOWLAVYPRNA-DMHZYSPMNA-O
     RDKit          3D

 69 74  0  0  0  0  0  0  0  0999 V2000
  140.6397   70.4886  228.6206 H   0  0  0  0  0  0  0  0  0  0  0  0
  140.2370   70.3690  227.6040 C   0  0  0  0  0  0  0  0  0  0  0  0
  139.2310   69.4340  227.3590 C   0  0  0  0  0  0  0  0  0  0  0  0
  138.8431   68.8159  228.1821 H   0  0  0  0  0  0  0  0  0  0  0  0
  138.7160   69.2820  226.0700 C   0  0  0  0  0  0  0  0  0  0  0  0
  137.9127   68.5536  225.8854 H   0  0  0  0  0  0  0  0  0  0  0  0
  139.2160   70.0520  225.0080 C   0  0  0  0  0  0  0  0  0  0  0  0
  140.2250   71.0110  225.2580 C   0  0  0  0  0  0  0  0  0  0  0  0
  140.7340   71.1540  226.5600 C   0  0  0  0  0  0  0  0  0  0  0  0
  141.5285   71.8883  226.7587 H   0  0  0  0  0  0  0  0  0  0  0  0
  140.8010   71.8690  224.1530 C   0  0  0  0  0  0  0  0  0  0  0  0
  141.8709   71.6362  224.0480 H   0  0  0  0  0  0  0  0  0  0  0  0
  140.6392   72.9211  224.4303 H   0  0  0  0  0  0  0  0  0  0  0  0
  140.1410   71.6440  222.8580 N   0  0  0  0  0  0  0  0  0  0  0  0
  140.2480   72.6430  221.8230 C   0  0  0  0  0  0  0  0  0  0  0  0
  139.9460   73.9400  222.0820 N   0  0  0  0  0  0  0  0  0  0  0  0
  140.0600   74.8900  221.1190 C   0  0  0  0  0  0  0  0  0  0  0  0
  139.7980   76.2700  221.4490 N   0  0  0  0  0  0  0  0  0  0  0  0
  140.2600   76.8310  222.7230 C   0  0  0  0  0  0  0  0  0  0  0  0
  140.8795   76.0851  223.2423 H   0  0  0  0  0  0  0  0  0  0  0  0
  139.3826   77.0907  223.3335 H   0  0  0  0  0  0  0  0  0  0  0  0
  141.0780   78.0810  222.4920 C   0  0  0  0  0  0  0  0  0  0  0  0
  141.8190   78.6170  223.5570 C   0  0  0  0  0  0  0  0  0  0  0  0
  141.8067   78.1187  224.5376 H   0  0  0  0  0  0  0  0  0  0  0  0
  142.5720   79.7800  223.3780 C   0  0  0  0  0  0  0  0  0  0  0  0
  143.1526   80.1917  224.2167 H   0  0  0  0  0  0  0  0  0  0  0  0
  142.5900   80.4210  222.1390 C   0  0  0  0  0  0  0  0  0  0  0  0
  143.1905   81.3323  222.0012 H   0  0  0  0  0  0  0  0  0  0  0  0
  141.8470   79.9080  221.0730 C   0  0  0  0  0  0  0  0  0  0  0  0
  141.8706   80.4138  220.0965 H   0  0  0  0  0  0  0  0  0  0  0  0
  141.0700   78.7500  221.2410 C   0  0  0  0  0  0  0  0  0  0  0  0
  140.3180   78.1940  220.0510 C   0  0  0  0  0  0  0  0  0  0  0  0
  141.0282   77.6736  219.3916 H   0  0  0  0  0  0  0  0  0  0  0  0
  139.8363   79.0325  219.5268 H   0  0  0  0  0  0  0  0  0  0  0  0
  139.2290   77.2110  220.4810 C   0  0  0  0  0  0  0  0  0  0  0  0
  138.8603   76.6604  219.6030 H   0  0  0  0  0  0  0  0  0  0  0  0
  138.3916   77.7578  220.9391 H   0  0  0  0  0  0  0  0  0  0  0  0
  140.4820   74.5320  219.8730 N   0  0  0  0  0  0  0  0  0  0  0  0
  140.6240   75.2580  219.1370 H   0  0  0  0  0  0  0  0  0  0  0  0
  140.7960   73.2330  219.6000 C   0  0  0  0  0  0  0  0  0  0  0  0
  141.2400   72.9010  218.4170 N   0  0  0  0  0  0  0  0  0  0  0  0
  140.5700   72.5390  217.6990 H   0  0  0  0  0  0  0  0  0  0  0  0
  142.6410   73.0420  218.0050 C   0  0  0  0  0  0  0  0  0  0  0  0
  143.1109   72.0476  217.9884 H   0  0  0  0  0  0  0  0  0  0  0  0
  142.6633   73.5012  217.0057 H   0  0  0  0  0  0  0  0  0  0  0  0
  143.4200   73.9460  218.9690 C   0  0  0  0  0  0  0  0  0  0  0  0
  144.3335   74.3042  218.4718 H   0  0  0  0  0  0  0  0  0  0  0  0
  142.7846   74.7983  219.2514 H   0  0  0  0  0  0  0  0  0  0  0  0
  143.7920   73.1960  220.1940 N   0  0  0  0  0  0  0  0  0  0  0  0
  144.0290   71.7590  219.9380 C   0  0  0  0  0  0  0  0  0  0  0  0
  143.8867   71.2051  220.8776 H   0  0  0  0  0  0  0  0  0  0  0  0
  143.3160   71.4350  219.1656 H   0  0  0  0  0  0  0  0  0  0  0  0
  145.4560   71.4790  219.4080 C   0  0  0  0  0  0  0  0  0  0  0  0
  146.0434   70.9920  220.2003 H   0  0  0  0  0  0  0  0  0  0  0  0
  145.3770   70.8269  218.5257 H   0  0  0  0  0  0  0  0  0  0  0  0
  146.1040   72.6740  219.0230 O   0  0  0  0  0  0  0  0  0  0  0  0
  146.2820   73.5080  220.1500 C   0  0  0  0  0  0  0  0  0  0  0  0
  146.9804   73.0187  220.8449 H   0  0  0  0  0  0  0  0  0  0  0  0
  146.6758   74.4719  219.7953 H   0  0  0  0  0  0  0  0  0  0  0  0
  144.9510   73.7860  220.8950 C   0  0  0  0  0  0  0  0  0  0  0  0
  145.0124   73.3549  221.9052 H   0  0  0  0  0  0  0  0  0  0  0  0
  144.8052   74.8755  220.9362 H   0  0  0  0  0  0  0  0  0  0  0  0
  140.6790   72.3000  220.5810 N   0  0  0  0  0  0  0  0  0  0  0  0
  139.6030   70.3120  222.5560 C   0  0  0  0  0  0  0  0  0  0  0  0
  140.4266   69.5837  222.5210 H   0  0  0  0  0  0  0  0  0  0  0  0
  139.0918   70.3363  221.5823 H   0  0  0  0  0  0  0  0  0  0  0  0
  138.6120   69.9050  223.6380 C   0  0  0  0  0  0  0  0  0  0  0  0
  138.3226   68.8550  223.4837 H   0  0  0  0  0  0  0  0  0  0  0  0
  137.7323   70.5621  223.5714 H   0  0  0  0  0  0  0  0  0  0  0  0
  1  2  1  0
  2  3  2  0
  3  4  1  0
  3  5  1  0
  5  6  1  0
  5  7  2  0
  7  8  1  0
  8  9  2  0
  9 10  1  0
  8 11  1  0
 11 12  1  0
 11 13  1  0
 11 14  1  0
 14 15  1  0
 15 16  1  0
 16 17  2  0
 17 18  1  0
 18 19  1  0
 19 20  1  0
 19 21  1  0
 19 22  1  0
 22 23  2  0
 23 24  1  0
 23 25  1  0
 25 26  1  0
 25 27  2  0
 27 28  1  0
 27 29  1  0
 29 30  1  0
 29 31  2  0
 31 32  1  0
 32 33  1  0
 32 34  1  0
 32 35  1  0
 35 36  1  0
 35 37  1  0
 17 38  1  0
 38 39  1  0
 38 40  1  0
 40 41  2  0
 41 42  1  0
 41 43  1  0
 43 44  1  0
 43 45  1  0
 43 46  1  0
 46 47  1  0
 46 48  1  0
 46 49  1  0
 49 50  1  0
 50 51  1  0
 50 52  1  0
 50 53  1  0
 53 54  1  0
 53 55  1  0
 53 56  1  0
 56 57  1  0
 57 58  1  0
 57 59  1  0
 57 60  1  0
 60 61  1  0
 60 62  1  0
 40 63  1  0
 14 64  1  0
 64 65  1  0
 64 66  1  0
 64 67  1  0
 67 68  1  0
 67 69  1  0
  9  2  1  0
 63 15  2  0
 67  7  1  0
 35 18  1  0
 60 49  1  0
 31 22  1  0
M  CHG  1  41   1
M  END
>  <UniqueID>  (44) 
284

>  <SMILES>  (44) 
c1ccc2c(c1)CCN(c1nc(N3CCc4ccccc4C3)[nH]/c(=[NH+]/CCN3CCOCC3)n1)C2

>  <Energy>  (44) 
93.46906350042954

>  <Genealogy>  (44) 
c1ccc2c(c1)CCN(c1nc([NH2+]CCN3CCOCC3)nc(N3CCc4ccccc4C3)n1)C2 (protonated)
c1ccc2c(c1)CCN(c1nc(N3CCc4ccccc4C3)[nH]c(=[NH+]CCN3CCOCC3)n1)C2 (tautomer)
c1ccc2c(c1)CCN(c1nc(N3CCc4ccccc4C3)[nH]/c(=[NH+]/CCN3CCOCC3)n1)C2 (cis-trans isomerization)
c1ccc2c(c1)CCN(c1nc(N3CCc4ccccc4C3)[nH]/c(=[NH+]/CCN3CCOCC3)n1)C2 (3D coordinates assigned)
c1ccc2c(c1)CCN(c1nc(N3CCc4ccccc4C3)[nH]/c(=[NH+]/CCN3CCOCC3)n1)C2 (nonaromatic ring conformer: 93.46906350042954 kcal/mol)

>  <smiles>  (44) 
c1ccc2c(c1)CCN(c1nc(NCCN3CCOCC3)nc(N3CCc4ccccc4C3)n1)C2

>  <score_type>  (44) 
oracle

>  <origin>  (44) 
autodockgpu

>  <m_score__min__energy>  (44) 
-9.3100000000000005

>  <m_primary>  (44) 
energy

>  <meeko>  (44) 
{"free_energy": -9.28, "intermolecular_energy": -11.07, "internal_energy": -1.0, "cluster_size": 11, "cluster_id": 1, "rank_in_cluster": 3}

>  <energy>  (44) 
-9.27

>  <cluster_rmsd>  (44) 
0.15

>  <rmsd>  (44) 
269.49

>  <cluster>  (44) 
1

$$$$
XKJAOWLAVYPRNA-DMHZYSPMNA-O
     RDKit          3D

 69 74  0  0  0  0  0  0  0  0999 V2000
  140.8669   70.8257  228.9916 H   0  0  0  0  0  0  0  0  0  0  0  0
  140.4450   70.6140  227.9980 C   0  0  0  0  0  0  0  0  0  0  0  0
  139.4710   69.6260  227.8500 C   0  0  0  0  0  0  0  0  0  0  0  0
  139.1271   69.0581  228.7271 H   0  0  0  0  0  0  0  0  0  0  0  0
  138.9320   69.3570  226.5900 C   0  0  0  0  0  0  0  0  0  0  0  0
  138.1543   68.5867  226.4816 H   0  0  0  0  0  0  0  0  0  0  0  0
  139.3760   70.0630  225.4610 C   0  0  0  0  0  0  0  0  0  0  0  0
  140.3520   71.0750  225.6110 C   0  0  0  0  0  0  0  0  0  0  0  0
  140.8850   71.3350  226.8840 C   0  0  0  0  0  0  0  0  0  0  0  0
  141.6544   72.1117  227.0055 H   0  0  0  0  0  0  0  0  0  0  0  0
  140.8670   71.8680  224.4300 C   0  0  0  0  0  0  0  0  0  0  0  0
  141.9427   71.6690  224.3144 H   0  0  0  0  0  0  0  0  0  0  0  0
  140.6698   72.9312  224.6318 H   0  0  0  0  0  0  0  0  0  0  0  0
  140.1860   71.5200  223.1730 N   0  0  0  0  0  0  0  0  0  0  0  0
  140.2290   72.4400  222.0630 C   0  0  0  0  0  0  0  0  0  0  0  0
  139.9150   73.7490  222.2400 N   0  0  0  0  0  0  0  0  0  0  0  0
  139.9690   74.6260  221.2050 C   0  0  0  0  0  0  0  0  0  0  0  0
  139.6960   76.0220  221.4440 N   0  0  0  0  0  0  0  0  0  0  0  0
  140.0660   76.6450  222.7200 C   0  0  0  0  0  0  0  0  0  0  0  0
  140.6371   75.9230  223.3222 H   0  0  0  0  0  0  0  0  0  0  0  0
  139.1477   76.9409  223.2484 H   0  0  0  0  0  0  0  0  0  0  0  0
  140.9120   77.8770  222.4880 C   0  0  0  0  0  0  0  0  0  0  0  0
  141.5750   78.4620  223.5780 C   0  0  0  0  0  0  0  0  0  0  0  0
  141.4837   78.0144  224.5786 H   0  0  0  0  0  0  0  0  0  0  0  0
  142.3510   79.6110  223.3980 C   0  0  0  0  0  0  0  0  0  0  0  0
  142.8700   80.0623  224.2564 H   0  0  0  0  0  0  0  0  0  0  0  0
  142.4690   80.1870  222.1320 C   0  0  0  0  0  0  0  0  0  0  0  0
  143.0880   81.0857  221.9935 H   0  0  0  0  0  0  0  0  0  0  0  0
  141.8030   79.6250  221.0410 C   0  0  0  0  0  0  0  0  0  0  0  0
  141.9043   80.0804  220.0448 H   0  0  0  0  0  0  0  0  0  0  0  0
  141.0040   78.4810  221.2080 C   0  0  0  0  0  0  0  0  0  0  0  0
  140.3380   77.8690  219.9940 C   0  0  0  0  0  0  0  0  0  0  0  0
  141.0906   77.3114  219.4173 H   0  0  0  0  0  0  0  0  0  0  0  0
  139.9051   78.6823  219.3930 H   0  0  0  0  0  0  0  0  0  0  0  0
  139.2110   76.9160  220.3900 C   0  0  0  0  0  0  0  0  0  0  0  0
  138.9036   76.3237  219.5156 H   0  0  0  0  0  0  0  0  0  0  0  0
  138.3474   77.4907  220.7560 H   0  0  0  0  0  0  0  0  0  0  0  0
  140.3430   74.1820  219.9710 N   0  0  0  0  0  0  0  0  0  0  0  0
  140.4380   74.8540  219.1780 H   0  0  0  0  0  0  0  0  0  0  0  0
  140.6680   72.8720  219.7810 C   0  0  0  0  0  0  0  0  0  0  0  0
  141.0660   72.4590  218.6060 N   0  0  0  0  0  0  0  0  0  0  0  0
  140.3910   71.9620  217.9800 H   0  0  0  0  0  0  0  0  0  0  0  0
  142.4150   72.6870  218.0790 C   0  0  0  0  0  0  0  0  0  0  0  0
  142.9538   71.7285  218.0489 H   0  0  0  0  0  0  0  0  0  0  0  0
  142.3238   73.1164  217.0704 H   0  0  0  0  0  0  0  0  0  0  0  0
  143.2000   73.6730  218.9530 C   0  0  0  0  0  0  0  0  0  0  0  0
  144.0764   74.0340  218.3949 H   0  0  0  0  0  0  0  0  0  0  0  0
  142.5454   74.5172  219.2153 H   0  0  0  0  0  0  0  0  0  0  0  0
  143.6540   73.0090  220.2010 N   0  0  0  0  0  0  0  0  0  0  0  0
  143.9900   71.5830  220.0020 C   0  0  0  0  0  0  0  0  0  0  0  0
  143.9094   71.0634  220.9682 H   0  0  0  0  0  0  0  0  0  0  0  0
  143.2858   71.1737  219.2627 H   0  0  0  0  0  0  0  0  0  0  0  0
  145.4210   71.3830  219.4490 C   0  0  0  0  0  0  0  0  0  0  0  0
  146.0600   70.9768  220.2469 H   0  0  0  0  0  0  0  0  0  0  0  0
  145.3706   70.6870  218.5987 H   0  0  0  0  0  0  0  0  0  0  0  0
  145.9710   72.6030  218.9950 O   0  0  0  0  0  0  0  0  0  0  0  0
  146.1120   73.4990  220.0790 C   0  0  0  0  0  0  0  0  0  0  0  0
  146.8600   73.0946  220.7768 H   0  0  0  0  0  0  0  0  0  0  0  0
  146.4255   74.4717  219.6720 H   0  0  0  0  0  0  0  0  0  0  0  0
  144.7820   73.7130  220.8440 C   0  0  0  0  0  0  0  0  0  0  0  0
  144.8979   73.3347  221.8704 H   0  0  0  0  0  0  0  0  0  0  0  0
  144.5572   74.7898  220.8396 H   0  0  0  0  0  0  0  0  0  0  0  0
  140.6110   72.0130  220.8320 N   0  0  0  0  0  0  0  0  0  0  0  0
  139.6950   70.1500  222.9870 C   0  0  0  0  0  0  0  0  0  0  0  0
  140.5461   69.4531  222.9857 H   0  0  0  0  0  0  0  0  0  0  0  0
  139.1607   70.0804  222.0280 H   0  0  0  0  0  0  0  0  0  0  0  0
  138.7460   69.7890  224.1220 C   0  0  0  0  0  0  0  0  0  0  0  0
  138.4952   68.7201  224.0547 H   0  0  0  0  0  0  0  0  0  0  0  0
  137.8392   70.4048  224.0293 H   0  0  0  0  0  0  0  0  0  0  0  0
  1  2  1  0
  2  3  2  0
  3  4  1  0
  3  5  1  0
  5  6  1  0
  5  7  2  0
  7  8  1  0
  8  9  2  0
  9 10  1  0
  8 11  1  0
 11 12  1  0
 11 13  1  0
 11 14  1  0
 14 15  1  0
 15 16  1  0
 16 17  2  0
 17 18  1  0
 18 19  1  0
 19 20  1  0
 19 21  1  0
 19 22  1  0
 22 23  2  0
 23 24  1  0
 23 25  1  0
 25 26  1  0
 25 27  2  0
 27 28  1  0
 27 29  1  0
 29 30  1  0
 29 31  2  0
 31 32  1  0
 32 33  1  0
 32 34  1  0
 32 35  1  0
 35 36  1  0
 35 37  1  0
 17 38  1  0
 38 39  1  0
 38 40  1  0
 40 41  2  0
 41 42  1  0
 41 43  1  0
 43 44  1  0
 43 45  1  0
 43 46  1  0
 46 47  1  0
 46 48  1  0
 46 49  1  0
 49 50  1  0
 50 51  1  0
 50 52  1  0
 50 53  1  0
 53 54  1  0
 53 55  1  0
 53 56  1  0
 56 57  1  0
 57 58  1  0
 57 59  1  0
 57 60  1  0
 60 61  1  0
 60 62  1  0
 40 63  1  0
 14 64  1  0
 64 65  1  0
 64 66  1  0
 64 67  1  0
 67 68  1  0
 67 69  1  0
  9  2  1  0
 63 15  2  0
 67  7  1  0
 35 18  1  0
 60 49  1  0
 31 22  1  0
M  CHG  1  41   1
M  END
>  <UniqueID>  (45) 
284

>  <SMILES>  (45) 
c1ccc2c(c1)CCN(c1nc(N3CCc4ccccc4C3)[nH]/c(=[NH+]/CCN3CCOCC3)n1)C2

>  <Energy>  (45) 
93.46906350042954

>  <Genealogy>  (45) 
c1ccc2c(c1)CCN(c1nc([NH2+]CCN3CCOCC3)nc(N3CCc4ccccc4C3)n1)C2 (protonated)
c1ccc2c(c1)CCN(c1nc(N3CCc4ccccc4C3)[nH]c(=[NH+]CCN3CCOCC3)n1)C2 (tautomer)
c1ccc2c(c1)CCN(c1nc(N3CCc4ccccc4C3)[nH]/c(=[NH+]/CCN3CCOCC3)n1)C2 (cis-trans isomerization)
c1ccc2c(c1)CCN(c1nc(N3CCc4ccccc4C3)[nH]/c(=[NH+]/CCN3CCOCC3)n1)C2 (3D coordinates assigned)
c1ccc2c(c1)CCN(c1nc(N3CCc4ccccc4C3)[nH]/c(=[NH+]/CCN3CCOCC3)n1)C2 (nonaromatic ring conformer: 93.46906350042954 kcal/mol)

>  <smiles>  (45) 
c1ccc2c(c1)CCN(c1nc(NCCN3CCOCC3)nc(N3CCc4ccccc4C3)n1)C2

>  <score_type>  (45) 
oracle

>  <origin>  (45) 
autodockgpu

>  <m_score__min__energy>  (45) 
-9.3100000000000005

>  <m_primary>  (45) 
energy

>  <meeko>  (45) 
{"free_energy": -9.26, "intermolecular_energy": -11.05, "internal_energy": -1.01, "cluster_size": 11, "cluster_id": 1, "rank_in_cluster": 5}

>  <energy>  (45) 
-9.26

>  <cluster_rmsd>  (45) 
0.11

>  <rmsd>  (45) 
269.53

>  <cluster>  (45) 
1

$$$$
XKJAOWLAVYPRNA-DMHZYSPMNA-O
     RDKit          3D

 69 74  0  0  0  0  0  0  0  0999 V2000
  141.0408   70.7001  229.2778 H   0  0  0  0  0  0  0  0  0  0  0  0
  140.5610   70.5070  228.3070 C   0  0  0  0  0  0  0  0  0  0  0  0
  139.4560   69.6600  228.2330 C   0  0  0  0  0  0  0  0  0  0  0  0
  139.0672   69.1833  229.1449 H   0  0  0  0  0  0  0  0  0  0  0  0
  138.8420   69.4160  227.0020 C   0  0  0  0  0  0  0  0  0  0  0  0
  137.9615   68.7586  226.9516 H   0  0  0  0  0  0  0  0  0  0  0  0
  139.3410   70.0040  225.8290 C   0  0  0  0  0  0  0  0  0  0  0  0
  140.4520   70.8750  225.9050 C   0  0  0  0  0  0  0  0  0  0  0  0
  141.0600   71.1110  227.1500 C   0  0  0  0  0  0  0  0  0  0  0  0
  141.9343   71.7755  227.2140 H   0  0  0  0  0  0  0  0  0  0  0  0
  141.0330   71.5370  224.6750 C   0  0  0  0  0  0  0  0  0  0  0  0
  142.0659   71.1839  224.5396 H   0  0  0  0  0  0  0  0  0  0  0  0
  140.9935   72.6250  224.8322 H   0  0  0  0  0  0  0  0  0  0  0  0
  140.2680   71.2350  223.4550 N   0  0  0  0  0  0  0  0  0  0  0  0
  140.4010   72.0920  222.3020 C   0  0  0  0  0  0  0  0  0  0  0  0
  140.0270   73.3960  222.3660 N   0  0  0  0  0  0  0  0  0  0  0  0
  140.1640   74.2150  221.2920 C   0  0  0  0  0  0  0  0  0  0  0  0
  139.8220   75.6100  221.4160 N   0  0  0  0  0  0  0  0  0  0  0  0
  140.0740   76.3300  222.6700 C   0  0  0  0  0  0  0  0  0  0  0  0
  140.6266   75.6737  223.3584 H   0  0  0  0  0  0  0  0  0  0  0  0
  139.1091   76.6201  223.1113 H   0  0  0  0  0  0  0  0  0  0  0  0
  140.8870   77.5790  222.4150 C   0  0  0  0  0  0  0  0  0  0  0  0
  141.4470   78.2610  223.5060 C   0  0  0  0  0  0  0  0  0  0  0  0
  141.3012   77.8750  224.5257 H   0  0  0  0  0  0  0  0  0  0  0  0
  142.1890   79.4280  223.3040 C   0  0  0  0  0  0  0  0  0  0  0  0
  142.6262   79.9558  224.1644 H   0  0  0  0  0  0  0  0  0  0  0  0
  142.3770   79.9260  222.0130 C   0  0  0  0  0  0  0  0  0  0  0  0
  142.9696   80.8397  221.8577 H   0  0  0  0  0  0  0  0  0  0  0  0
  141.8140   79.2660  220.9190 C   0  0  0  0  0  0  0  0  0  0  0  0
  141.9706   79.6595  219.9038 H   0  0  0  0  0  0  0  0  0  0  0  0
  141.0490   78.1030  221.1060 C   0  0  0  0  0  0  0  0  0  0  0  0
  140.4970   77.3860  219.8930 C   0  0  0  0  0  0  0  0  0  0  0  0
  141.3103   76.8250  219.4095 H   0  0  0  0  0  0  0  0  0  0  0  0
  140.0782   78.1396  219.2098 H   0  0  0  0  0  0  0  0  0  0  0  0
  139.3810   76.4130  220.2720 C   0  0  0  0  0  0  0  0  0  0  0  0
  139.1610   75.7529  219.4200 H   0  0  0  0  0  0  0  0  0  0  0  0
  138.4716   76.9725  220.5368 H   0  0  0  0  0  0  0  0  0  0  0  0
  140.6830   73.7170  220.1330 N   0  0  0  0  0  0  0  0  0  0  0  0
  140.8420   74.3460  219.3160 H   0  0  0  0  0  0  0  0  0  0  0  0
  141.0700   72.4120  220.0580 C   0  0  0  0  0  0  0  0  0  0  0  0
  141.6050   71.9490  218.9590 N   0  0  0  0  0  0  0  0  0  0  0  0
  141.0090   71.8300  218.1070 H   0  0  0  0  0  0  0  0  0  0  0  0
  143.0270   71.6170  218.8250 C   0  0  0  0  0  0  0  0  0  0  0  0
  143.1320   70.5264  218.7271 H   0  0  0  0  0  0  0  0  0  0  0  0
  143.4191   72.1290  217.9338 H   0  0  0  0  0  0  0  0  0  0  0  0
  143.8300   72.0880  220.0440 C   0  0  0  0  0  0  0  0  0  0  0  0
  143.1507   72.5741  220.7598 H   0  0  0  0  0  0  0  0  0  0  0  0
  144.3119   71.2170  220.5122 H   0  0  0  0  0  0  0  0  0  0  0  0
  144.8780   73.0540  219.6310 N   0  0  0  0  0  0  0  0  0  0  0  0
  144.8090   73.3940  218.1930 C   0  0  0  0  0  0  0  0  0  0  0  0
  145.7978   73.7482  217.8662 H   0  0  0  0  0  0  0  0  0  0  0  0
  144.5045   72.4877  217.6491 H   0  0  0  0  0  0  0  0  0  0  0  0
  143.7640   74.4950  217.8950 C   0  0  0  0  0  0  0  0  0  0  0  0
  144.2890   75.4300  217.6495 H   0  0  0  0  0  0  0  0  0  0  0  0
  143.1425   74.1635  217.0501 H   0  0  0  0  0  0  0  0  0  0  0  0
  142.9210   74.7190  219.0070 O   0  0  0  0  0  0  0  0  0  0  0  0
  143.6810   75.2110  220.0930 C   0  0  0  0  0  0  0  0  0  0  0  0
  144.0715   76.2050  219.8296 H   0  0  0  0  0  0  0  0  0  0  0  0
  143.0205   75.2579  220.9714 H   0  0  0  0  0  0  0  0  0  0  0  0
  144.8730   74.2850  220.4460 C   0  0  0  0  0  0  0  0  0  0  0  0
  145.8113   74.8313  220.2697 H   0  0  0  0  0  0  0  0  0  0  0  0
  144.7748   73.9927  221.5019 H   0  0  0  0  0  0  0  0  0  0  0  0
  140.9270   71.6110  221.1470 N   0  0  0  0  0  0  0  0  0  0  0  0
  139.5850   69.9400  223.3460 C   0  0  0  0  0  0  0  0  0  0  0  0
  140.3304   69.1311  223.3533 H   0  0  0  0  0  0  0  0  0  0  0  0
  139.0141   69.9057  222.4064 H   0  0  0  0  0  0  0  0  0  0  0  0
  138.6340   69.7640  224.5230 C   0  0  0  0  0  0  0  0  0  0  0  0
  138.2354   68.7388  224.5130 H   0  0  0  0  0  0  0  0  0  0  0  0
  137.8185   70.4960  224.4267 H   0  0  0  0  0  0  0  0  0  0  0  0
  1  2  1  0
  2  3  2  0
  3  4  1  0
  3  5  1  0
  5  6  1  0
  5  7  2  0
  7  8  1  0
  8  9  2  0
  9 10  1  0
  8 11  1  0
 11 12  1  0
 11 13  1  0
 11 14  1  0
 14 15  1  0
 15 16  1  0
 16 17  2  0
 17 18  1  0
 18 19  1  0
 19 20  1  0
 19 21  1  0
 19 22  1  0
 22 23  2  0
 23 24  1  0
 23 25  1  0
 25 26  1  0
 25 27  2  0
 27 28  1  0
 27 29  1  0
 29 30  1  0
 29 31  2  0
 31 32  1  0
 32 33  1  0
 32 34  1  0
 32 35  1  0
 35 36  1  0
 35 37  1  0
 17 38  1  0
 38 39  1  0
 38 40  1  0
 40 41  2  0
 41 42  1  0
 41 43  1  0
 43 44  1  0
 43 45  1  0
 43 46  1  0
 46 47  1  0
 46 48  1  0
 46 49  1  0
 49 50  1  0
 50 51  1  0
 50 52  1  0
 50 53  1  0
 53 54  1  0
 53 55  1  0
 53 56  1  0
 56 57  1  0
 57 58  1  0
 57 59  1  0
 57 60  1  0
 60 61  1  0
 60 62  1  0
 40 63  1  0
 14 64  1  0
 64 65  1  0
 64 66  1  0
 64 67  1  0
 67 68  1  0
 67 69  1  0
  9  2  1  0
 63 15  2  0
 67  7  1  0
 35 18  1  0
 60 49  1  0
 31 22  1  0
M  CHG  1  41   1
M  END
>  <UniqueID>  (46) 
284

>  <SMILES>  (46) 
c1ccc2c(c1)CCN(c1nc(N3CCc4ccccc4C3)[nH]/c(=[NH+]/CCN3CCOCC3)n1)C2

>  <Energy>  (46) 
93.46906350042954

>  <Genealogy>  (46) 
c1ccc2c(c1)CCN(c1nc([NH2+]CCN3CCOCC3)nc(N3CCc4ccccc4C3)n1)C2 (protonated)
c1ccc2c(c1)CCN(c1nc(N3CCc4ccccc4C3)[nH]c(=[NH+]CCN3CCOCC3)n1)C2 (tautomer)
c1ccc2c(c1)CCN(c1nc(N3CCc4ccccc4C3)[nH]/c(=[NH+]/CCN3CCOCC3)n1)C2 (cis-trans isomerization)
c1ccc2c(c1)CCN(c1nc(N3CCc4ccccc4C3)[nH]/c(=[NH+]/CCN3CCOCC3)n1)C2 (3D coordinates assigned)
c1ccc2c(c1)CCN(c1nc(N3CCc4ccccc4C3)[nH]/c(=[NH+]/CCN3CCOCC3)n1)C2 (nonaromatic ring conformer: 93.46906350042954 kcal/mol)

>  <smiles>  (46) 
c1ccc2c(c1)CCN(c1nc(NCCN3CCOCC3)nc(N3CCc4ccccc4C3)n1)C2

>  <score_type>  (46) 
oracle

>  <origin>  (46) 
autodockgpu

>  <m_score__min__energy>  (46) 
-9.3100000000000005

>  <m_primary>  (46) 
energy

>  <meeko>  (46) 
{"free_energy": -8.34, "intermolecular_energy": -10.13, "internal_energy": -2.07, "cluster_size": 11, "cluster_id": 1, "rank_in_cluster": 9}

>  <energy>  (46) 
-9.19

>  <cluster_rmsd>  (46) 
0.33

>  <rmsd>  (46) 
269.4

>  <cluster>  (46) 
1

$$$$
XKJAOWLAVYPRNA-DMHZYSPMNA-O
     RDKit          3D

 69 74  0  0  0  0  0  0  0  0999 V2000
  139.1208   66.2789  226.7965 H   0  0  0  0  0  0  0  0  0  0  0  0
  139.5950   67.2610  226.6530 C   0  0  0  0  0  0  0  0  0  0  0  0
  140.4500   67.7710  227.6300 C   0  0  0  0  0  0  0  0  0  0  0  0
  140.6471   67.1918  228.5441 H   0  0  0  0  0  0  0  0  0  0  0  0
  141.0560   69.0160  227.4490 C   0  0  0  0  0  0  0  0  0  0  0  0
  141.7409   69.4069  228.2159 H   0  0  0  0  0  0  0  0  0  0  0  0
  140.7970   69.7720  226.2950 C   0  0  0  0  0  0  0  0  0  0  0  0
  139.9430   69.2490  225.2970 C   0  0  0  0  0  0  0  0  0  0  0  0
  139.3400   67.9960  225.4920 C   0  0  0  0  0  0  0  0  0  0  0  0
  138.6626   67.5904  224.7261 H   0  0  0  0  0  0  0  0  0  0  0  0
  139.6300   70.0190  224.0320 C   0  0  0  0  0  0  0  0  0  0  0  0
  138.5517   70.2354  224.0093 H   0  0  0  0  0  0  0  0  0  0  0  0
  139.9377   69.3963  223.1790 H   0  0  0  0  0  0  0  0  0  0  0  0
  140.3670   71.2890  223.9440 N   0  0  0  0  0  0  0  0  0  0  0  0
  140.5290   71.9290  222.6620 C   0  0  0  0  0  0  0  0  0  0  0  0
  140.1210   73.2100  222.4730 N   0  0  0  0  0  0  0  0  0  0  0  0
  140.2850   73.8260  221.2750 C   0  0  0  0  0  0  0  0  0  0  0  0
  139.9030   75.2090  221.1300 N   0  0  0  0  0  0  0  0  0  0  0  0
  139.8350   76.0890  222.3030 C   0  0  0  0  0  0  0  0  0  0  0  0
  140.2152   75.5485  223.1824 H   0  0  0  0  0  0  0  0  0  0  0  0
  138.7880   76.3869  222.4613 H   0  0  0  0  0  0  0  0  0  0  0  0
  140.6670   77.3330  222.0870 C   0  0  0  0  0  0  0  0  0  0  0  0
  140.9370   78.1690  223.1820 C   0  0  0  0  0  0  0  0  0  0  0  0
  140.5547   77.9056  224.1792 H   0  0  0  0  0  0  0  0  0  0  0  0
  141.6890   79.3340  223.0110 C   0  0  0  0  0  0  0  0  0  0  0  0
  141.8979   79.9831  223.8741 H   0  0  0  0  0  0  0  0  0  0  0  0
  142.1760   79.6770  221.7490 C   0  0  0  0  0  0  0  0  0  0  0  0
  142.7750   80.5907  221.6212 H   0  0  0  0  0  0  0  0  0  0  0  0
  141.9040   78.8620  220.6480 C   0  0  0  0  0  0  0  0  0  0  0  0
  142.2954   79.1343  219.6567 H   0  0  0  0  0  0  0  0  0  0  0  0
  141.1340   77.6970  220.7980 C   0  0  0  0  0  0  0  0  0  0  0  0
  140.9010   76.8120  219.5930 C   0  0  0  0  0  0  0  0  0  0  0  0
  141.8150   76.2335  219.3933 H   0  0  0  0  0  0  0  0  0  0  0  0
  140.6479   77.4561  218.7380 H   0  0  0  0  0  0  0  0  0  0  0  0
  139.7410   75.8430  219.8200 C   0  0  0  0  0  0  0  0  0  0  0  0
  139.7435   75.0732  219.0342 H   0  0  0  0  0  0  0  0  0  0  0  0
  138.7867   76.3889  219.7853 H   0  0  0  0  0  0  0  0  0  0  0  0
  140.8680   73.1450  220.2470 N   0  0  0  0  0  0  0  0  0  0  0  0
  141.0470   73.6220  219.3360 H   0  0  0  0  0  0  0  0  0  0  0  0
  141.2900   71.8610  220.4250 C   0  0  0  0  0  0  0  0  0  0  0  0
  141.8850   71.2250  219.4490 N   0  0  0  0  0  0  0  0  0  0  0  0
  141.3080   70.7740  218.7020 H   0  0  0  0  0  0  0  0  0  0  0  0
  143.3410   71.1350  219.3090 C   0  0  0  0  0  0  0  0  0  0  0  0
  143.6384   70.0765  219.3415 H   0  0  0  0  0  0  0  0  0  0  0  0
  143.6242   71.5922  218.3494 H   0  0  0  0  0  0  0  0  0  0  0  0
  144.0620   71.8900  220.4330 C   0  0  0  0  0  0  0  0  0  0  0  0
  143.3256   72.4646  221.0140 H   0  0  0  0  0  0  0  0  0  0  0  0
  144.5711   71.1623  221.0820 H   0  0  0  0  0  0  0  0  0  0  0  0
  145.0710   72.8190  219.8680 N   0  0  0  0  0  0  0  0  0  0  0  0
  144.9280   73.0020  218.4070 C   0  0  0  0  0  0  0  0  0  0  0  0
  145.8935   73.3330  217.9967 H   0  0  0  0  0  0  0  0  0  0  0  0
  144.6156   72.0383  217.9784 H   0  0  0  0  0  0  0  0  0  0  0  0
  143.8490   74.0500  218.0440 C   0  0  0  0  0  0  0  0  0  0  0  0
  144.3438   74.9605  217.6750 H   0  0  0  0  0  0  0  0  0  0  0  0
  143.1952   73.6213  217.2702 H   0  0  0  0  0  0  0  0  0  0  0  0
  143.0550   74.3800  219.1660 O   0  0  0  0  0  0  0  0  0  0  0  0
  143.8560   74.9970  220.1540 C   0  0  0  0  0  0  0  0  0  0  0  0
  144.2144   75.9620  219.7663 H   0  0  0  0  0  0  0  0  0  0  0  0
  143.2369   75.1291  221.0536 H   0  0  0  0  0  0  0  0  0  0  0  0
  145.0810   74.1320  220.5460 C   0  0  0  0  0  0  0  0  0  0  0  0
  145.9992   74.6692  220.2663 H   0  0  0  0  0  0  0  0  0  0  0  0
  145.0387   73.9547  221.6308 H   0  0  0  0  0  0  0  0  0  0  0  0
  141.1190   71.2650  221.6340 N   0  0  0  0  0  0  0  0  0  0  0  0
  140.7010   72.0040  225.1820 C   0  0  0  0  0  0  0  0  0  0  0  0
  139.7744   72.3123  225.6883 H   0  0  0  0  0  0  0  0  0  0  0  0
  141.3013   72.8935  224.9402 H   0  0  0  0  0  0  0  0  0  0  0  0
  141.5000   71.0880  226.1000 C   0  0  0  0  0  0  0  0  0  0  0  0
  141.6240   71.5776  227.0772 H   0  0  0  0  0  0  0  0  0  0  0  0
  142.4794   70.8965  225.6373 H   0  0  0  0  0  0  0  0  0  0  0  0
  1  2  1  0
  2  3  2  0
  3  4  1  0
  3  5  1  0
  5  6  1  0
  5  7  2  0
  7  8  1  0
  8  9  2  0
  9 10  1  0
  8 11  1  0
 11 12  1  0
 11 13  1  0
 11 14  1  0
 14 15  1  0
 15 16  1  0
 16 17  2  0
 17 18  1  0
 18 19  1  0
 19 20  1  0
 19 21  1  0
 19 22  1  0
 22 23  2  0
 23 24  1  0
 23 25  1  0
 25 26  1  0
 25 27  2  0
 27 28  1  0
 27 29  1  0
 29 30  1  0
 29 31  2  0
 31 32  1  0
 32 33  1  0
 32 34  1  0
 32 35  1  0
 35 36  1  0
 35 37  1  0
 17 38  1  0
 38 39  1  0
 38 40  1  0
 40 41  2  0
 41 42  1  0
 41 43  1  0
 43 44  1  0
 43 45  1  0
 43 46  1  0
 46 47  1  0
 46 48  1  0
 46 49  1  0
 49 50  1  0
 50 51  1  0
 50 52  1  0
 50 53  1  0
 53 54  1  0
 53 55  1  0
 53 56  1  0
 56 57  1  0
 57 58  1  0
 57 59  1  0
 57 60  1  0
 60 61  1  0
 60 62  1  0
 40 63  1  0
 14 64  1  0
 64 65  1  0
 64 66  1  0
 64 67  1  0
 67 68  1  0
 67 69  1  0
  9  2  1  0
 63 15  2  0
 67  7  1  0
 35 18  1  0
 60 49  1  0
 31 22  1  0
M  CHG  1  41   1
M  END
>  <UniqueID>  (47) 
284

>  <SMILES>  (47) 
c1ccc2c(c1)CCN(c1nc(N3CCc4ccccc4C3)[nH]/c(=[NH+]/CCN3CCOCC3)n1)C2

>  <Energy>  (47) 
93.46906350042954

>  <Genealogy>  (47) 
c1ccc2c(c1)CCN(c1nc([NH2+]CCN3CCOCC3)nc(N3CCc4ccccc4C3)n1)C2 (protonated)
c1ccc2c(c1)CCN(c1nc(N3CCc4ccccc4C3)[nH]c(=[NH+]CCN3CCOCC3)n1)C2 (tautomer)
c1ccc2c(c1)CCN(c1nc(N3CCc4ccccc4C3)[nH]/c(=[NH+]/CCN3CCOCC3)n1)C2 (cis-trans isomerization)
c1ccc2c(c1)CCN(c1nc(N3CCc4ccccc4C3)[nH]/c(=[NH+]/CCN3CCOCC3)n1)C2 (3D coordinates assigned)
c1ccc2c(c1)CCN(c1nc(N3CCc4ccccc4C3)[nH]/c(=[NH+]/CCN3CCOCC3)n1)C2 (nonaromatic ring conformer: 93.46906350042954 kcal/mol)

>  <smiles>  (47) 
c1ccc2c(c1)CCN(c1nc(NCCN3CCOCC3)nc(N3CCc4ccccc4C3)n1)C2

>  <score_type>  (47) 
oracle

>  <origin>  (47) 
autodockgpu

>  <m_score__min__energy>  (47) 
-9.3100000000000005

>  <m_primary>  (47) 
energy

>  <meeko>  (47) 
{"free_energy": -8.35, "intermolecular_energy": -10.14, "internal_energy": -2.16, "cluster_size": 11, "cluster_id": 1, "rank_in_cluster": 7}

>  <energy>  (47) 
-8.35

>  <cluster_rmsd>  (47) 
1.39

>  <rmsd>  (47) 
269.53

>  <cluster>  (47) 
1

$$$$
XKJAOWLAVYPRNA-DMHZYSPMNA-O
     RDKit          3D

 69 74  0  0  0  0  0  0  0  0999 V2000
  140.7760   70.8254  228.9499 H   0  0  0  0  0  0  0  0  0  0  0  0
  140.3550   70.6180  227.9550 C   0  0  0  0  0  0  0  0  0  0  0  0
  139.3800   69.6330  227.8030 C   0  0  0  0  0  0  0  0  0  0  0  0
  139.0345   69.0628  228.6779 H   0  0  0  0  0  0  0  0  0  0  0  0
  138.8410   69.3690  226.5410 C   0  0  0  0  0  0  0  0  0  0  0  0
  138.0620   68.6005  226.4290 H   0  0  0  0  0  0  0  0  0  0  0  0
  139.2880   70.0790  225.4150 C   0  0  0  0  0  0  0  0  0  0  0  0
  140.2650   71.0880  225.5700 C   0  0  0  0  0  0  0  0  0  0  0  0
  140.7980   71.3420  226.8450 C   0  0  0  0  0  0  0  0  0  0  0  0
  141.5694   72.1162  226.9702 H   0  0  0  0  0  0  0  0  0  0  0  0
  140.7840   71.8840  224.3920 C   0  0  0  0  0  0  0  0  0  0  0  0
  141.8591   71.6817  224.2765 H   0  0  0  0  0  0  0  0  0  0  0  0
  140.5906   72.9472  224.5976 H   0  0  0  0  0  0  0  0  0  0  0  0
  140.1030   71.5430  223.1340 N   0  0  0  0  0  0  0  0  0  0  0  0
  140.1490   72.4670  222.0280 C   0  0  0  0  0  0  0  0  0  0  0  0
  139.8530   73.7790  222.2120 N   0  0  0  0  0  0  0  0  0  0  0  0
  139.9100   74.6600  221.1810 C   0  0  0  0  0  0  0  0  0  0  0  0
  139.6560   76.0580  221.4270 N   0  0  0  0  0  0  0  0  0  0  0  0
  140.0340   76.6680  222.7070 C   0  0  0  0  0  0  0  0  0  0  0  0
  140.5944   75.9342  223.3049 H   0  0  0  0  0  0  0  0  0  0  0  0
  139.1195   76.9737  223.2363 H   0  0  0  0  0  0  0  0  0  0  0  0
  140.8970   77.8890  222.4840 C   0  0  0  0  0  0  0  0  0  0  0  0
  141.5670   78.4590  223.5780 C   0  0  0  0  0  0  0  0  0  0  0  0
  141.4679   78.0072  224.5760 H   0  0  0  0  0  0  0  0  0  0  0  0
  142.3590   79.5970  223.4060 C   0  0  0  0  0  0  0  0  0  0  0  0
  142.8832   80.0356  224.2679 H   0  0  0  0  0  0  0  0  0  0  0  0
  142.4870   80.1790  222.1440 C   0  0  0  0  0  0  0  0  0  0  0  0
  143.1186   81.0699  222.0121 H   0  0  0  0  0  0  0  0  0  0  0  0
  141.8150   79.6330  221.0480 C   0  0  0  0  0  0  0  0  0  0  0  0
  141.9246   80.0928  220.0548 H   0  0  0  0  0  0  0  0  0  0  0  0
  141.0000   78.5000  221.2070 C   0  0  0  0  0  0  0  0  0  0  0  0
  140.3270   77.9040  219.9890 C   0  0  0  0  0  0  0  0  0  0  0  0
  141.0725   77.3389  219.4103 H   0  0  0  0  0  0  0  0  0  0  0  0
  139.9064   78.7266  219.3920 H   0  0  0  0  0  0  0  0  0  0  0  0
  139.1860   76.9650  220.3780 C   0  0  0  0  0  0  0  0  0  0  0  0
  138.8713   76.3824  219.4996 H   0  0  0  0  0  0  0  0  0  0  0  0
  138.3305   77.5501  220.7465 H   0  0  0  0  0  0  0  0  0  0  0  0
  140.2690   74.2170  219.9420 N   0  0  0  0  0  0  0  0  0  0  0  0
  140.3670   74.8900  219.1510 H   0  0  0  0  0  0  0  0  0  0  0  0
  140.5760   72.9030  219.7440 C   0  0  0  0  0  0  0  0  0  0  0  0
  140.9590   72.4900  218.5640 N   0  0  0  0  0  0  0  0  0  0  0  0
  140.2560   72.0700  217.9130 H   0  0  0  0  0  0  0  0  0  0  0  0
  142.3330   72.6160  218.0660 C   0  0  0  0  0  0  0  0  0  0  0  0
  142.8100   71.6249  218.0779 H   0  0  0  0  0  0  0  0  0  0  0  0
  142.2943   73.0192  217.0433 H   0  0  0  0  0  0  0  0  0  0  0  0
  143.1580   73.5770  218.9320 C   0  0  0  0  0  0  0  0  0  0  0  0
  144.0375   73.9130  218.3631 H   0  0  0  0  0  0  0  0  0  0  0  0
  142.5312   74.4391  219.2040 H   0  0  0  0  0  0  0  0  0  0  0  0
  143.6080   72.9000  220.1720 N   0  0  0  0  0  0  0  0  0  0  0  0
  143.9970   71.4900  219.9470 C   0  0  0  0  0  0  0  0  0  0  0  0
  143.9141   70.9448  220.8988 H   0  0  0  0  0  0  0  0  0  0  0  0
  143.3228   71.0745  219.1836 H   0  0  0  0  0  0  0  0  0  0  0  0
  145.4450   71.3530  219.4210 C   0  0  0  0  0  0  0  0  0  0  0  0
  146.0809   70.9502  220.2231 H   0  0  0  0  0  0  0  0  0  0  0  0
  145.4366   70.6763  218.5538 H   0  0  0  0  0  0  0  0  0  0  0  0
  145.9620   72.6020  219.0070 O   0  0  0  0  0  0  0  0  0  0  0  0
  146.0500   73.4750  220.1150 C   0  0  0  0  0  0  0  0  0  0  0  0
  146.7966   73.0787  220.8190 H   0  0  0  0  0  0  0  0  0  0  0  0
  146.3389   74.4675  219.7387 H   0  0  0  0  0  0  0  0  0  0  0  0
  144.6970   73.6250  220.8560 C   0  0  0  0  0  0  0  0  0  0  0  0
  144.8042   73.2254  221.8752 H   0  0  0  0  0  0  0  0  0  0  0  0
  144.4356   74.6934  220.8727 H   0  0  0  0  0  0  0  0  0  0  0  0
  140.5170   72.0400  220.7920 N   0  0  0  0  0  0  0  0  0  0  0  0
  139.6090   70.1740  222.9420 C   0  0  0  0  0  0  0  0  0  0  0  0
  140.4585   69.4752  222.9389 H   0  0  0  0  0  0  0  0  0  0  0  0
  139.0757   70.1091  221.9821 H   0  0  0  0  0  0  0  0  0  0  0  0
  138.6580   69.8110  224.0750 C   0  0  0  0  0  0  0  0  0  0  0  0
  138.4048   68.7429  224.0038 H   0  0  0  0  0  0  0  0  0  0  0  0
  137.7525   70.4288  223.9838 H   0  0  0  0  0  0  0  0  0  0  0  0
  1  2  1  0
  2  3  2  0
  3  4  1  0
  3  5  1  0
  5  6  1  0
  5  7  2  0
  7  8  1  0
  8  9  2  0
  9 10  1  0
  8 11  1  0
 11 12  1  0
 11 13  1  0
 11 14  1  0
 14 15  1  0
 15 16  1  0
 16 17  2  0
 17 18  1  0
 18 19  1  0
 19 20  1  0
 19 21  1  0
 19 22  1  0
 22 23  2  0
 23 24  1  0
 23 25  1  0
 25 26  1  0
 25 27  2  0
 27 28  1  0
 27 29  1  0
 29 30  1  0
 29 31  2  0
 31 32  1  0
 32 33  1  0
 32 34  1  0
 32 35  1  0
 35 36  1  0
 35 37  1  0
 17 38  1  0
 38 39  1  0
 38 40  1  0
 40 41  2  0
 41 42  1  0
 41 43  1  0
 43 44  1  0
 43 45  1  0
 43 46  1  0
 46 47  1  0
 46 48  1  0
 46 49  1  0
 49 50  1  0
 50 51  1  0
 50 52  1  0
 50 53  1  0
 53 54  1  0
 53 55  1  0
 53 56  1  0
 56 57  1  0
 57 58  1  0
 57 59  1  0
 57 60  1  0
 60 61  1  0
 60 62  1  0
 40 63  1  0
 14 64  1  0
 64 65  1  0
 64 66  1  0
 64 67  1  0
 67 68  1  0
 67 69  1  0
  9  2  1  0
 63 15  2  0
 67  7  1  0
 35 18  1  0
 60 49  1  0
 31 22  1  0
M  CHG  1  41   1
M  END
>  <UniqueID>  (48) 
284

>  <SMILES>  (48) 
c1ccc2c(c1)CCN(c1nc(N3CCc4ccccc4C3)[nH]/c(=[NH+]/CCN3CCOCC3)n1)C2

>  <Energy>  (48) 
93.46906350042954

>  <Genealogy>  (48) 
c1ccc2c(c1)CCN(c1nc([NH2+]CCN3CCOCC3)nc(N3CCc4ccccc4C3)n1)C2 (protonated)
c1ccc2c(c1)CCN(c1nc(N3CCc4ccccc4C3)[nH]c(=[NH+]CCN3CCOCC3)n1)C2 (tautomer)
c1ccc2c(c1)CCN(c1nc(N3CCc4ccccc4C3)[nH]/c(=[NH+]/CCN3CCOCC3)n1)C2 (cis-trans isomerization)
c1ccc2c(c1)CCN(c1nc(N3CCc4ccccc4C3)[nH]/c(=[NH+]/CCN3CCOCC3)n1)C2 (3D coordinates assigned)
c1ccc2c(c1)CCN(c1nc(N3CCc4ccccc4C3)[nH]/c(=[NH+]/CCN3CCOCC3)n1)C2 (nonaromatic ring conformer: 93.46906350042954 kcal/mol)

>  <smiles>  (48) 
c1ccc2c(c1)CCN(c1nc(NCCN3CCOCC3)nc(N3CCc4ccccc4C3)n1)C2

>  <score_type>  (48) 
oracle

>  <origin>  (48) 
autodockgpu

>  <m_score__min__energy>  (48) 
-9.3100000000000005

>  <m_primary>  (48) 
energy

>  <meeko>  (48) 
{"free_energy": -9.27, "intermolecular_energy": -11.06, "internal_energy": -1.01, "cluster_size": 11, "cluster_id": 1, "rank_in_cluster": 4}

>  <energy>  (48) 
-8.34

>  <cluster_rmsd>  (48) 
1.39

>  <rmsd>  (48) 
269.52

>  <cluster>  (48) 
1

$$$$
XKJAOWLAVYPRNA-DMHZYSPMNA-O
     RDKit          3D

 69 74  0  0  0  0  0  0  0  0999 V2000
  141.0934   68.8866  227.5180 H   0  0  0  0  0  0  0  0  0  0  0  0
  140.4940   69.2200  226.6580 C   0  0  0  0  0  0  0  0  0  0  0  0
  139.1900   68.7520  226.4930 C   0  0  0  0  0  0  0  0  0  0  0  0
  138.7631   68.0482  227.2226 H   0  0  0  0  0  0  0  0  0  0  0  0
  138.4260   69.1750  225.4040 C   0  0  0  0  0  0  0  0  0  0  0  0
  137.3940   68.8126  225.2870 H   0  0  0  0  0  0  0  0  0  0  0  0
  138.9660   70.0600  224.4570 C   0  0  0  0  0  0  0  0  0  0  0  0
  140.2820   70.5470  224.6300 C   0  0  0  0  0  0  0  0  0  0  0  0
  141.0390   70.1130  225.7300 C   0  0  0  0  0  0  0  0  0  0  0  0
  142.0681   70.4780  225.8628 H   0  0  0  0  0  0  0  0  0  0  0  0
  140.9150   71.5030  223.6420 C   0  0  0  0  0  0  0  0  0  0  0  0
  141.7884   71.0125  223.1874 H   0  0  0  0  0  0  0  0  0  0  0  0
  141.2006   72.4109  224.1935 H   0  0  0  0  0  0  0  0  0  0  0  0
  139.9900   71.9050  222.5710 N   0  0  0  0  0  0  0  0  0  0  0  0
  140.2590   73.1020  221.8130 C   0  0  0  0  0  0  0  0  0  0  0  0
  139.9810   74.3250  222.3330 N   0  0  0  0  0  0  0  0  0  0  0  0
  140.2460   75.4580  221.6340 C   0  0  0  0  0  0  0  0  0  0  0  0
  140.0010   76.7420  222.2440 N   0  0  0  0  0  0  0  0  0  0  0  0
  141.0320   77.3820  223.0680 C   0  0  0  0  0  0  0  0  0  0  0  0
  141.9571   76.7894  223.0133 H   0  0  0  0  0  0  0  0  0  0  0  0
  140.6726   77.4341  224.1063 H   0  0  0  0  0  0  0  0  0  0  0  0
  141.3120   78.7850  222.5800 C   0  0  0  0  0  0  0  0  0  0  0  0
  142.4380   79.4650  223.0690 C   0  0  0  0  0  0  0  0  0  0  0  0
  143.1067   78.9687  223.7876 H   0  0  0  0  0  0  0  0  0  0  0  0
  142.7150   80.7680  222.6490 C   0  0  0  0  0  0  0  0  0  0  0  0
  143.6012   81.2923  223.0361 H   0  0  0  0  0  0  0  0  0  0  0  0
  141.8700   81.4070  221.7390 C   0  0  0  0  0  0  0  0  0  0  0  0
  142.0964   82.4302  221.4045 H   0  0  0  0  0  0  0  0  0  0  0  0
  140.7380   80.7490  221.2530 C   0  0  0  0  0  0  0  0  0  0  0  0
  140.0795   81.2547  220.5315 H   0  0  0  0  0  0  0  0  0  0  0  0
  140.4350   79.4450  221.6800 C   0  0  0  0  0  0  0  0  0  0  0  0
  139.2280   78.7440  221.0950 C   0  0  0  0  0  0  0  0  0  0  0  0
  139.4728   78.4004  220.0791 H   0  0  0  0  0  0  0  0  0  0  0  0
  138.3912   79.4577  221.0785 H   0  0  0  0  0  0  0  0  0  0  0  0
  138.8110   77.5400  221.9380 C   0  0  0  0  0  0  0  0  0  0  0  0
  138.0898   76.9278  221.3767 H   0  0  0  0  0  0  0  0  0  0  0  0
  138.3410   77.8827  222.8716 H   0  0  0  0  0  0  0  0  0  0  0  0
  140.7990   75.3630  220.3910 N   0  0  0  0  0  0  0  0  0  0  0  0
  141.0560   76.2260  219.8630 H   0  0  0  0  0  0  0  0  0  0  0  0
  141.0920   74.1420  219.8600 C   0  0  0  0  0  0  0  0  0  0  0  0
  141.6600   74.0570  218.6860 N   0  0  0  0  0  0  0  0  0  0  0  0
  142.5760   73.5610  218.5930 H   0  0  0  0  0  0  0  0  0  0  0  0
  141.0660   74.5880  217.4550 C   0  0  0  0  0  0  0  0  0  0  0  0
  141.7487   74.3922  216.6150 H   0  0  0  0  0  0  0  0  0  0  0  0
  140.0978   74.0907  217.2958 H   0  0  0  0  0  0  0  0  0  0  0  0
  140.8210   76.0990  217.5570 C   0  0  0  0  0  0  0  0  0  0  0  0
  139.9949   76.3782  216.8865 H   0  0  0  0  0  0  0  0  0  0  0  0
  140.5651   76.3493  218.5972 H   0  0  0  0  0  0  0  0  0  0  0  0
  142.0410   76.8490  217.1680 N   0  0  0  0  0  0  0  0  0  0  0  0
  141.9100   78.3070  217.3790 C   0  0  0  0  0  0  0  0  0  0  0  0
  142.6223   78.8245  216.7195 H   0  0  0  0  0  0  0  0  0  0  0  0
  140.8711   78.5864  217.1498 H   0  0  0  0  0  0  0  0  0  0  0  0
  142.1970   78.7210  218.8420 C   0  0  0  0  0  0  0  0  0  0  0  0
  143.1673   79.2375  218.8842 H   0  0  0  0  0  0  0  0  0  0  0  0
  141.3872   79.3844  219.1797 H   0  0  0  0  0  0  0  0  0  0  0  0
  142.2370   77.5960  219.6970 O   0  0  0  0  0  0  0  0  0  0  0  0
  143.3110   76.7540  219.3310 C   0  0  0  0  0  0  0  0  0  0  0  0
  144.2560   77.2848  219.5187 H   0  0  0  0  0  0  0  0  0  0  0  0
  143.2381   75.8362  219.9329 H   0  0  0  0  0  0  0  0  0  0  0  0
  143.2580   76.3450  217.8370 C   0  0  0  0  0  0  0  0  0  0  0  0
  144.1407   76.7556  217.3249 H   0  0  0  0  0  0  0  0  0  0  0  0
  143.2435   75.2463  217.7859 H   0  0  0  0  0  0  0  0  0  0  0  0
  140.8210   73.0210  220.5790 N   0  0  0  0  0  0  0  0  0  0  0  0
  138.9600   70.9580  222.1290 C   0  0  0  0  0  0  0  0  0  0  0  0
  139.4416   70.0700  221.6937 H   0  0  0  0  0  0  0  0  0  0  0  0
  138.3220   71.4385  221.3726 H   0  0  0  0  0  0  0  0  0  0  0  0
  138.1070   70.5400  223.3190 C   0  0  0  0  0  0  0  0  0  0  0  0
  137.4324   69.7278  223.0103 H   0  0  0  0  0  0  0  0  0  0  0  0
  137.5299   71.4123  223.6597 H   0  0  0  0  0  0  0  0  0  0  0  0
  1  2  1  0
  2  3  2  0
  3  4  1  0
  3  5  1  0
  5  6  1  0
  5  7  2  0
  7  8  1  0
  8  9  2  0
  9 10  1  0
  8 11  1  0
 11 12  1  0
 11 13  1  0
 11 14  1  0
 14 15  1  0
 15 16  1  0
 16 17  2  0
 17 18  1  0
 18 19  1  0
 19 20  1  0
 19 21  1  0
 19 22  1  0
 22 23  2  0
 23 24  1  0
 23 25  1  0
 25 26  1  0
 25 27  2  0
 27 28  1  0
 27 29  1  0
 29 30  1  0
 29 31  2  0
 31 32  1  0
 32 33  1  0
 32 34  1  0
 32 35  1  0
 35 36  1  0
 35 37  1  0
 17 38  1  0
 38 39  1  0
 38 40  1  0
 40 41  2  0
 41 42  1  0
 41 43  1  0
 43 44  1  0
 43 45  1  0
 43 46  1  0
 46 47  1  0
 46 48  1  0
 46 49  1  0
 49 50  1  0
 50 51  1  0
 50 52  1  0
 50 53  1  0
 53 54  1  0
 53 55  1  0
 53 56  1  0
 56 57  1  0
 57 58  1  0
 57 59  1  0
 57 60  1  0
 60 61  1  0
 60 62  1  0
 40 63  1  0
 14 64  1  0
 64 65  1  0
 64 66  1  0
 64 67  1  0
 67 68  1  0
 67 69  1  0
  9  2  1  0
 63 15  2  0
 67  7  1  0
 35 18  1  0
 60 49  1  0
 31 22  1  0
M  CHG  1  41   1
M  END
>  <UniqueID>  (49) 
284

>  <SMILES>  (49) 
c1ccc2c(c1)CCN(c1nc(N3CCc4ccccc4C3)[nH]/c(=[NH+]/CCN3CCOCC3)n1)C2

>  <Energy>  (49) 
93.46906350042954

>  <Genealogy>  (49) 
c1ccc2c(c1)CCN(c1nc([NH2+]CCN3CCOCC3)nc(N3CCc4ccccc4C3)n1)C2 (protonated)
c1ccc2c(c1)CCN(c1nc(N3CCc4ccccc4C3)[nH]c(=[NH+]CCN3CCOCC3)n1)C2 (tautomer)
c1ccc2c(c1)CCN(c1nc(N3CCc4ccccc4C3)[nH]/c(=[NH+]/CCN3CCOCC3)n1)C2 (cis-trans isomerization)
c1ccc2c(c1)CCN(c1nc(N3CCc4ccccc4C3)[nH]/c(=[NH+]/CCN3CCOCC3)n1)C2 (3D coordinates assigned)
c1ccc2c(c1)CCN(c1nc(N3CCc4ccccc4C3)[nH]/c(=[NH+]/CCN3CCOCC3)n1)C2 (nonaromatic ring conformer: 93.46906350042954 kcal/mol)

>  <smiles>  (49) 
c1ccc2c(c1)CCN(c1nc(NCCN3CCOCC3)nc(N3CCc4ccccc4C3)n1)C2

>  <score_type>  (49) 
oracle

>  <origin>  (49) 
autodockgpu

>  <m_score__min__energy>  (49) 
-9.3100000000000005

>  <m_primary>  (49) 
energy

>  <meeko>  (49) 
{"free_energy": -7.56, "intermolecular_energy": -9.35, "internal_energy": -2.3, "cluster_size": 2, "cluster_id": 3, "rank_in_cluster": 2}

>  <energy>  (49) 
-8.34

>  <cluster_rmsd>  (49) 
0.95

>  <rmsd>  (49) 
269.56

>  <cluster>  (49) 
1

$$$$
XKJAOWLAVYPRNA-DMHZYSPMNA-O
     RDKit          3D

 69 74  0  0  0  0  0  0  0  0999 V2000
  140.7458   81.2823  224.2868 H   0  0  0  0  0  0  0  0  0  0  0  0
  140.8890   80.4450  223.5880 C   0  0  0  0  0  0  0  0  0  0  0  0
  141.9700   80.4510  222.7060 C   0  0  0  0  0  0  0  0  0  0  0  0
  142.6765   81.2941  222.7086 H   0  0  0  0  0  0  0  0  0  0  0  0
  142.1560   79.3880  221.8200 C   0  0  0  0  0  0  0  0  0  0  0  0
  143.0183   79.3906  221.1370 H   0  0  0  0  0  0  0  0  0  0  0  0
  141.2500   78.3160  221.7950 C   0  0  0  0  0  0  0  0  0  0  0  0
  140.1630   78.3010  222.6980 C   0  0  0  0  0  0  0  0  0  0  0  0
  139.9880   79.3770  223.5850 C   0  0  0  0  0  0  0  0  0  0  0  0
  139.1364   79.3784  224.2813 H   0  0  0  0  0  0  0  0  0  0  0  0
  139.1560   77.1720  222.7170 C   0  0  0  0  0  0  0  0  0  0  0  0
  138.1678   77.5769  222.4533 H   0  0  0  0  0  0  0  0  0  0  0  0
  139.1603   76.7387  223.7281 H   0  0  0  0  0  0  0  0  0  0  0  0
  139.4930   76.0970  221.7700 N   0  0  0  0  0  0  0  0  0  0  0  0
  138.9170   74.7870  221.9490 C   0  0  0  0  0  0  0  0  0  0  0  0
  139.6710   73.7610  222.4200 N   0  0  0  0  0  0  0  0  0  0  0  0
  139.1340   72.5280  222.6070 C   0  0  0  0  0  0  0  0  0  0  0  0
  139.9460   71.4790  223.1730 N   0  0  0  0  0  0  0  0  0  0  0  0
  140.7120   71.7130  224.4030 C   0  0  0  0  0  0  0  0  0  0  0  0
  140.4556   72.7043  224.8048 H   0  0  0  0  0  0  0  0  0  0  0  0
  141.7850   71.6627  224.1659 H   0  0  0  0  0  0  0  0  0  0  0  0
  140.3940   70.6600  225.4400 C   0  0  0  0  0  0  0  0  0  0  0  0
  140.8250   70.8540  226.7610 C   0  0  0  0  0  0  0  0  0  0  0  0
  141.3742   71.7687  227.0288 H   0  0  0  0  0  0  0  0  0  0  0  0
  140.5600   69.8910  227.7380 C   0  0  0  0  0  0  0  0  0  0  0  0
  140.8987   70.0521  228.7721 H   0  0  0  0  0  0  0  0  0  0  0  0
  139.8670   68.7250  227.4070 C   0  0  0  0  0  0  0  0  0  0  0  0
  139.6540   67.9736  228.1816 H   0  0  0  0  0  0  0  0  0  0  0  0
  139.4440   68.5120  226.0930 C   0  0  0  0  0  0  0  0  0  0  0  0
  138.8925   67.5949  225.8386 H   0  0  0  0  0  0  0  0  0  0  0  0
  139.7180   69.4610  225.0940 C   0  0  0  0  0  0  0  0  0  0  0  0
  139.2000   69.2210  223.6930 C   0  0  0  0  0  0  0  0  0  0  0  0
  138.1230   69.4433  223.6680 H   0  0  0  0  0  0  0  0  0  0  0  0
  139.3913   68.1697  223.4317 H   0  0  0  0  0  0  0  0  0  0  0  0
  139.9120   70.1040  222.6690 C   0  0  0  0  0  0  0  0  0  0  0  0
  139.3681   70.0740  221.7134 H   0  0  0  0  0  0  0  0  0  0  0  0
  140.9374   69.7390  222.5099 H   0  0  0  0  0  0  0  0  0  0  0  0
  137.8180   72.3210  222.3160 N   0  0  0  0  0  0  0  0  0  0  0  0
  137.3790   71.3930  222.5030 H   0  0  0  0  0  0  0  0  0  0  0  0
  137.0470   73.3440  221.8500 C   0  0  0  0  0  0  0  0  0  0  0  0
  135.7760   73.1520  221.6120 N   0  0  0  0  0  0  0  0  0  0  0  0
  135.4150   73.2560  220.6350 H   0  0  0  0  0  0  0  0  0  0  0  0
  134.8090   72.7520  222.6380 C   0  0  0  0  0  0  0  0  0  0  0  0
  135.1414   73.1385  223.6128 H   0  0  0  0  0  0  0  0  0  0  0  0
  133.8267   73.1664  222.3673 H   0  0  0  0  0  0  0  0  0  0  0  0
  134.6810   71.2250  222.7240 C   0  0  0  0  0  0  0  0  0  0  0  0
  133.9746   70.9651  223.5262 H   0  0  0  0  0  0  0  0  0  0  0  0
  134.3151   70.8427  221.7597 H   0  0  0  0  0  0  0  0  0  0  0  0
  136.0000   70.6110  223.0160 N   0  0  0  0  0  0  0  0  0  0  0  0
  136.2110   70.3660  224.4590 C   0  0  0  0  0  0  0  0  0  0  0  0
  137.2924   70.3173  224.6544 H   0  0  0  0  0  0  0  0  0  0  0  0
  135.7377   71.1911  225.0114 H   0  0  0  0  0  0  0  0  0  0  0  0
  135.5600   69.0450  224.9360 C   0  0  0  0  0  0  0  0  0  0  0  0
  136.3511   68.3068  225.1341 H   0  0  0  0  0  0  0  0  0  0  0  0
  134.9833   69.2523  225.8495 H   0  0  0  0  0  0  0  0  0  0  0  0
  134.6790   68.5250  223.9610 O   0  0  0  0  0  0  0  0  0  0  0  0
  135.4020   68.1840  222.7950 C   0  0  0  0  0  0  0  0  0  0  0  0
  136.0840   67.3541  223.0322 H   0  0  0  0  0  0  0  0  0  0  0  0
  134.6746   67.8990  222.0206 H   0  0  0  0  0  0  0  0  0  0  0  0
  136.2340   69.3710  222.2480 C   0  0  0  0  0  0  0  0  0  0  0  0
  137.3017   69.1131  222.3065 H   0  0  0  0  0  0  0  0  0  0  0  0
  135.9249   69.5520  221.2080 H   0  0  0  0  0  0  0  0  0  0  0  0
  137.6050   74.5710  221.6740 N   0  0  0  0  0  0  0  0  0  0  0  0
  140.2000   76.4380  220.5300 C   0  0  0  0  0  0  0  0  0  0  0  0
  139.5653   77.0927  219.9148 H   0  0  0  0  0  0  0  0  0  0  0  0
  140.4269   75.5167  219.9734 H   0  0  0  0  0  0  0  0  0  0  0  0
  141.4990   77.1600  220.8650 C   0  0  0  0  0  0  0  0  0  0  0  0
  141.9508   77.5371  219.9356 H   0  0  0  0  0  0  0  0  0  0  0  0
  142.1759   76.4499  221.3626 H   0  0  0  0  0  0  0  0  0  0  0  0
  1  2  1  0
  2  3  2  0
  3  4  1  0
  3  5  1  0
  5  6  1  0
  5  7  2  0
  7  8  1  0
  8  9  2  0
  9 10  1  0
  8 11  1  0
 11 12  1  0
 11 13  1  0
 11 14  1  0
 14 15  1  0
 15 16  1  0
 16 17  2  0
 17 18  1  0
 18 19  1  0
 19 20  1  0
 19 21  1  0
 19 22  1  0
 22 23  2  0
 23 24  1  0
 23 25  1  0
 25 26  1  0
 25 27  2  0
 27 28  1  0
 27 29  1  0
 29 30  1  0
 29 31  2  0
 31 32  1  0
 32 33  1  0
 32 34  1  0
 32 35  1  0
 35 36  1  0
 35 37  1  0
 17 38  1  0
 38 39  1  0
 38 40  1  0
 40 41  2  0
 41 42  1  0
 41 43  1  0
 43 44  1  0
 43 45  1  0
 43 46  1  0
 46 47  1  0
 46 48  1  0
 46 49  1  0
 49 50  1  0
 50 51  1  0
 50 52  1  0
 50 53  1  0
 53 54  1  0
 53 55  1  0
 53 56  1  0
 56 57  1  0
 57 58  1  0
 57 59  1  0
 57 60  1  0
 60 61  1  0
 60 62  1  0
 40 63  1  0
 14 64  1  0
 64 65  1  0
 64 66  1  0
 64 67  1  0
 67 68  1  0
 67 69  1  0
  9  2  1  0
 63 15  2  0
 67  7  1  0
 35 18  1  0
 60 49  1  0
 31 22  1  0
M  CHG  1  41   1
M  END
>  <UniqueID>  (50) 
284

>  <SMILES>  (50) 
c1ccc2c(c1)CCN(c1nc(N3CCc4ccccc4C3)[nH]/c(=[NH+]/CCN3CCOCC3)n1)C2

>  <Energy>  (50) 
93.46906350042954

>  <Genealogy>  (50) 
c1ccc2c(c1)CCN(c1nc([NH2+]CCN3CCOCC3)nc(N3CCc4ccccc4C3)n1)C2 (protonated)
c1ccc2c(c1)CCN(c1nc(N3CCc4ccccc4C3)[nH]c(=[NH+]CCN3CCOCC3)n1)C2 (tautomer)
c1ccc2c(c1)CCN(c1nc(N3CCc4ccccc4C3)[nH]/c(=[NH+]/CCN3CCOCC3)n1)C2 (cis-trans isomerization)
c1ccc2c(c1)CCN(c1nc(N3CCc4ccccc4C3)[nH]/c(=[NH+]/CCN3CCOCC3)n1)C2 (3D coordinates assigned)
c1ccc2c(c1)CCN(c1nc(N3CCc4ccccc4C3)[nH]/c(=[NH+]/CCN3CCOCC3)n1)C2 (nonaromatic ring conformer: 93.46906350042954 kcal/mol)

>  <smiles>  (50) 
c1ccc2c(c1)CCN(c1nc(NCCN3CCOCC3)nc(N3CCc4ccccc4C3)n1)C2

>  <score_type>  (50) 
oracle

>  <origin>  (50) 
autodockgpu

>  <m_score__min__energy>  (50) 
-9.3100000000000005

>  <m_primary>  (50) 
energy

>  <meeko>  (50) 
{"free_energy": -8.2, "intermolecular_energy": -9.99, "internal_energy": -1.94, "cluster_size": 7, "cluster_id": 2, "rank_in_cluster": 5}

>  <energy>  (50) 
-8.3

>  <cluster_rmsd>  (50) 
1.44

>  <rmsd>  (50) 
269.49

>  <cluster>  (50) 
1

$$$$
XKJAOWLAVYPRNA-DMHZYSPMNA-O
     RDKit          3D

 69 74  0  0  0  0  0  0  0  0999 V2000
  140.7902   81.3961  224.1770 H   0  0  0  0  0  0  0  0  0  0  0  0
  140.9320   80.5440  223.4960 C   0  0  0  0  0  0  0  0  0  0  0  0
  142.0250   80.5190  222.6290 C   0  0  0  0  0  0  0  0  0  0  0  0
  142.7424   81.3528  222.6250 H   0  0  0  0  0  0  0  0  0  0  0  0
  142.2090   79.4360  221.7660 C   0  0  0  0  0  0  0  0  0  0  0  0
  143.0805   79.4141  221.0951 H   0  0  0  0  0  0  0  0  0  0  0  0
  141.2900   78.3760  221.7490 C   0  0  0  0  0  0  0  0  0  0  0  0
  140.1910   78.3920  222.6370 C   0  0  0  0  0  0  0  0  0  0  0  0
  140.0170   79.4870  223.5000 C   0  0  0  0  0  0  0  0  0  0  0  0
  139.1553   79.5128  224.1832 H   0  0  0  0  0  0  0  0  0  0  0  0
  139.1690   77.2760  222.6630 C   0  0  0  0  0  0  0  0  0  0  0  0
  138.1900   77.6882  222.3774 H   0  0  0  0  0  0  0  0  0  0  0  0
  139.1536   76.8623  223.6821 H   0  0  0  0  0  0  0  0  0  0  0  0
  139.5050   76.1790  221.7420 N   0  0  0  0  0  0  0  0  0  0  0  0
  138.9090   74.8800  221.9380 C   0  0  0  0  0  0  0  0  0  0  0  0
  139.6660   73.8290  222.3450 N   0  0  0  0  0  0  0  0  0  0  0  0
  139.1120   72.6060  222.5480 C   0  0  0  0  0  0  0  0  0  0  0  0
  139.9320   71.5300  223.0460 N   0  0  0  0  0  0  0  0  0  0  0  0
  140.6990   71.6930  224.2870 C   0  0  0  0  0  0  0  0  0  0  0  0
  140.4364   72.6556  224.7500 H   0  0  0  0  0  0  0  0  0  0  0  0
  141.7719   71.6656  224.0459 H   0  0  0  0  0  0  0  0  0  0  0  0
  140.3900   70.5750  225.2570 C   0  0  0  0  0  0  0  0  0  0  0  0
  140.8230   70.6890  226.5870 C   0  0  0  0  0  0  0  0  0  0  0  0
  141.3667   71.5890  226.9102 H   0  0  0  0  0  0  0  0  0  0  0  0
  140.5670   69.6650  227.5030 C   0  0  0  0  0  0  0  0  0  0  0  0
  140.9079   69.7631  228.5442 H   0  0  0  0  0  0  0  0  0  0  0  0
  139.8800   68.5180  227.1010 C   0  0  0  0  0  0  0  0  0  0  0  0
  139.6724   67.7189  227.8279 H   0  0  0  0  0  0  0  0  0  0  0  0
  139.4560   68.3840  225.7770 C   0  0  0  0  0  0  0  0  0  0  0  0
  138.9101   67.4808  225.4668 H   0  0  0  0  0  0  0  0  0  0  0  0
  139.7220   69.3950  224.8390 C   0  0  0  0  0  0  0  0  0  0  0  0
  139.2030   69.2390  223.4260 C   0  0  0  0  0  0  0  0  0  0  0  0
  138.1243   69.4543  223.4166 H   0  0  0  0  0  0  0  0  0  0  0  0
  139.4018   68.2076  223.0995 H   0  0  0  0  0  0  0  0  0  0  0  0
  139.9060   70.1890  222.4580 C   0  0  0  0  0  0  0  0  0  0  0  0
  139.3599   70.2147  221.5035 H   0  0  0  0  0  0  0  0  0  0  0  0
  140.9336   69.8419  222.2747 H   0  0  0  0  0  0  0  0  0  0  0  0
  137.7760   72.4350  222.3370 N   0  0  0  0  0  0  0  0  0  0  0  0
  137.3260   71.5140  222.5390 H   0  0  0  0  0  0  0  0  0  0  0  0
  137.0020   73.4830  221.9360 C   0  0  0  0  0  0  0  0  0  0  0  0
  135.7150   73.3250  221.7760 N   0  0  0  0  0  0  0  0  0  0  0  0
  135.2680   73.6230  220.8780 H   0  0  0  0  0  0  0  0  0  0  0  0
  134.8410   72.7060  222.7780 C   0  0  0  0  0  0  0  0  0  0  0  0
  135.2432   72.9137  223.7805 H   0  0  0  0  0  0  0  0  0  0  0  0
  133.8322   73.1299  222.6657 H   0  0  0  0  0  0  0  0  0  0  0  0
  134.7500   71.1870  222.5820 C   0  0  0  0  0  0  0  0  0  0  0  0
  133.9782   70.7806  223.2522 H   0  0  0  0  0  0  0  0  0  0  0  0
  134.4890   70.9774  221.5342 H   0  0  0  0  0  0  0  0  0  0  0  0
  136.0520   70.5470  222.8910 N   0  0  0  0  0  0  0  0  0  0  0  0
  136.2540   70.3300  224.3400 C   0  0  0  0  0  0  0  0  0  0  0  0
  137.3335   70.2583  224.5388 H   0  0  0  0  0  0  0  0  0  0  0  0
  135.8004   71.1795  224.8716 H   0  0  0  0  0  0  0  0  0  0  0  0
  135.5690   69.0380  224.8470 C   0  0  0  0  0  0  0  0  0  0  0  0
  136.3406   68.2848  225.0646 H   0  0  0  0  0  0  0  0  0  0  0  0
  134.9964   69.2812  225.7542 H   0  0  0  0  0  0  0  0  0  0  0  0
  134.6770   68.5180  223.8820 O   0  0  0  0  0  0  0  0  0  0  0  0
  135.3920   68.1310  222.7260 C   0  0  0  0  0  0  0  0  0  0  0  0
  136.0509   67.2886  222.9835 H   0  0  0  0  0  0  0  0  0  0  0  0
  134.6585   67.8480  221.9566 H   0  0  0  0  0  0  0  0  0  0  0  0
  136.2570   69.2830  222.1540 C   0  0  0  0  0  0  0  0  0  0  0  0
  137.3175   68.9992  222.2236 H   0  0  0  0  0  0  0  0  0  0  0  0
  135.9569   69.4466  221.1085 H   0  0  0  0  0  0  0  0  0  0  0  0
  137.5780   74.7000  221.7430 N   0  0  0  0  0  0  0  0  0  0  0  0
  140.2330   76.4870  220.5050 C   0  0  0  0  0  0  0  0  0  0  0  0
  139.6155   77.1381  219.8688 H   0  0  0  0  0  0  0  0  0  0  0  0
  140.4549   75.5527  219.9685 H   0  0  0  0  0  0  0  0  0  0  0  0
  141.5360   77.1980  220.8450 C   0  0  0  0  0  0  0  0  0  0  0  0
  142.0062   77.5506  219.9152 H   0  0  0  0  0  0  0  0  0  0  0  0
  142.1955   76.4888  221.3666 H   0  0  0  0  0  0  0  0  0  0  0  0
  1  2  1  0
  2  3  2  0
  3  4  1  0
  3  5  1  0
  5  6  1  0
  5  7  2  0
  7  8  1  0
  8  9  2  0
  9 10  1  0
  8 11  1  0
 11 12  1  0
 11 13  1  0
 11 14  1  0
 14 15  1  0
 15 16  1  0
 16 17  2  0
 17 18  1  0
 18 19  1  0
 19 20  1  0
 19 21  1  0
 19 22  1  0
 22 23  2  0
 23 24  1  0
 23 25  1  0
 25 26  1  0
 25 27  2  0
 27 28  1  0
 27 29  1  0
 29 30  1  0
 29 31  2  0
 31 32  1  0
 32 33  1  0
 32 34  1  0
 32 35  1  0
 35 36  1  0
 35 37  1  0
 17 38  1  0
 38 39  1  0
 38 40  1  0
 40 41  2  0
 41 42  1  0
 41 43  1  0
 43 44  1  0
 43 45  1  0
 43 46  1  0
 46 47  1  0
 46 48  1  0
 46 49  1  0
 49 50  1  0
 50 51  1  0
 50 52  1  0
 50 53  1  0
 53 54  1  0
 53 55  1  0
 53 56  1  0
 56 57  1  0
 57 58  1  0
 57 59  1  0
 57 60  1  0
 60 61  1  0
 60 62  1  0
 40 63  1  0
 14 64  1  0
 64 65  1  0
 64 66  1  0
 64 67  1  0
 67 68  1  0
 67 69  1  0
  9  2  1  0
 63 15  2  0
 67  7  1  0
 35 18  1  0
 60 49  1  0
 31 22  1  0
M  CHG  1  41   1
M  END
>  <UniqueID>  (51) 
284

>  <SMILES>  (51) 
c1ccc2c(c1)CCN(c1nc(N3CCc4ccccc4C3)[nH]/c(=[NH+]/CCN3CCOCC3)n1)C2

>  <Energy>  (51) 
93.46906350042954

>  <Genealogy>  (51) 
c1ccc2c(c1)CCN(c1nc([NH2+]CCN3CCOCC3)nc(N3CCc4ccccc4C3)n1)C2 (protonated)
c1ccc2c(c1)CCN(c1nc(N3CCc4ccccc4C3)[nH]c(=[NH+]CCN3CCOCC3)n1)C2 (tautomer)
c1ccc2c(c1)CCN(c1nc(N3CCc4ccccc4C3)[nH]/c(=[NH+]/CCN3CCOCC3)n1)C2 (cis-trans isomerization)
c1ccc2c(c1)CCN(c1nc(N3CCc4ccccc4C3)[nH]/c(=[NH+]/CCN3CCOCC3)n1)C2 (3D coordinates assigned)
c1ccc2c(c1)CCN(c1nc(N3CCc4ccccc4C3)[nH]/c(=[NH+]/CCN3CCOCC3)n1)C2 (nonaromatic ring conformer: 93.46906350042954 kcal/mol)

>  <smiles>  (51) 
c1ccc2c(c1)CCN(c1nc(NCCN3CCOCC3)nc(N3CCc4ccccc4C3)n1)C2

>  <score_type>  (51) 
oracle

>  <origin>  (51) 
autodockgpu

>  <m_score__min__energy>  (51) 
-9.3100000000000005

>  <m_primary>  (51) 
energy

>  <meeko>  (51) 
{"free_energy": -8.19, "intermolecular_energy": -9.98, "internal_energy": -1.97, "cluster_size": 7, "cluster_id": 2, "rank_in_cluster": 6}

>  <energy>  (51) 
-7.9

>  <cluster_rmsd>  (51) 
1.34

>  <rmsd>  (51) 
269.19

>  <cluster>  (51) 
1

$$$$
XKJAOWLAVYPRNA-DMHZYSPMNA-O
     RDKit          3D

 69 74  0  0  0  0  0  0  0  0999 V2000
  140.7998   81.3103  224.2647 H   0  0  0  0  0  0  0  0  0  0  0  0
  140.9380   80.4670  223.5720 C   0  0  0  0  0  0  0  0  0  0  0  0
  142.0230   80.4560  222.6960 C   0  0  0  0  0  0  0  0  0  0  0  0
  142.7381   81.2919  222.6970 H   0  0  0  0  0  0  0  0  0  0  0  0
  142.2030   79.3860  221.8180 C   0  0  0  0  0  0  0  0  0  0  0  0
  143.0686   79.3762  221.1393 H   0  0  0  0  0  0  0  0  0  0  0  0
  141.2870   78.3220  221.7950 C   0  0  0  0  0  0  0  0  0  0  0  0
  140.1950   78.3240  222.6920 C   0  0  0  0  0  0  0  0  0  0  0  0
  140.0260   79.4080  223.5710 C   0  0  0  0  0  0  0  0  0  0  0  0
  139.1705   79.4228  224.2624 H   0  0  0  0  0  0  0  0  0  0  0  0
  139.1770   77.2050  222.7130 C   0  0  0  0  0  0  0  0  0  0  0  0
  138.1942   77.6178  222.4416 H   0  0  0  0  0  0  0  0  0  0  0  0
  139.1721   76.7782  223.7268 H   0  0  0  0  0  0  0  0  0  0  0  0
  139.5080   76.1210  221.7750 N   0  0  0  0  0  0  0  0  0  0  0  0
  138.9180   74.8180  221.9590 C   0  0  0  0  0  0  0  0  0  0  0  0
  139.6710   73.7750  222.3930 N   0  0  0  0  0  0  0  0  0  0  0  0
  139.1220   72.5490  222.5850 C   0  0  0  0  0  0  0  0  0  0  0  0
  139.9360   71.4810  223.1130 N   0  0  0  0  0  0  0  0  0  0  0  0
  140.7010   71.6720  224.3510 C   0  0  0  0  0  0  0  0  0  0  0  0
  140.4416   72.6471  224.7890 H   0  0  0  0  0  0  0  0  0  0  0  0
  141.7743   71.6341  224.1131 H   0  0  0  0  0  0  0  0  0  0  0  0
  140.3850   70.5800  225.3480 C   0  0  0  0  0  0  0  0  0  0  0  0
  140.8150   70.7260  226.6760 C   0  0  0  0  0  0  0  0  0  0  0  0
  141.3619   71.6315  226.9776 H   0  0  0  0  0  0  0  0  0  0  0  0
  140.5520   69.7270  227.6170 C   0  0  0  0  0  0  0  0  0  0  0  0
  140.8898   69.8504  228.6566 H   0  0  0  0  0  0  0  0  0  0  0  0
  139.8620   68.5730  227.2420 C   0  0  0  0  0  0  0  0  0  0  0  0
  139.6511   67.7924  227.9878 H   0  0  0  0  0  0  0  0  0  0  0  0
  139.4390   68.4080  225.9210 C   0  0  0  0  0  0  0  0  0  0  0  0
  138.8883   67.5003  225.6331 H   0  0  0  0  0  0  0  0  0  0  0  0
  139.7120   69.3930  224.9580 C   0  0  0  0  0  0  0  0  0  0  0  0
  139.1960   69.2040  223.5490 C   0  0  0  0  0  0  0  0  0  0  0  0
  138.1184   69.4242  223.5315 H   0  0  0  0  0  0  0  0  0  0  0  0
  139.3909   68.1637  223.2493 H   0  0  0  0  0  0  0  0  0  0  0  0
  139.9060   70.1260  222.5580 C   0  0  0  0  0  0  0  0  0  0  0  0
  139.3623   70.1300  221.6018 H   0  0  0  0  0  0  0  0  0  0  0  0
  140.9323   69.7699  222.3852 H   0  0  0  0  0  0  0  0  0  0  0  0
  137.7940   72.3640  222.3360 N   0  0  0  0  0  0  0  0  0  0  0  0
  137.3470   71.4410  222.5290 H   0  0  0  0  0  0  0  0  0  0  0  0
  137.0240   73.4050  221.9080 C   0  0  0  0  0  0  0  0  0  0  0  0
  135.7430   73.2340  221.7100 N   0  0  0  0  0  0  0  0  0  0  0  0
  135.3400   73.4170  220.7620 H   0  0  0  0  0  0  0  0  0  0  0  0
  134.8180   72.7550  222.7420 C   0  0  0  0  0  0  0  0  0  0  0  0
  135.1891   73.0692  223.7287 H   0  0  0  0  0  0  0  0  0  0  0  0
  133.8252   73.1847  222.5428 H   0  0  0  0  0  0  0  0  0  0  0  0
  134.6950   71.2260  222.7190 C   0  0  0  0  0  0  0  0  0  0  0  0
  133.9683   70.9094  223.4816 H   0  0  0  0  0  0  0  0  0  0  0  0
  134.3574   70.9103  221.7208 H   0  0  0  0  0  0  0  0  0  0  0  0
  136.0080   70.5970  223.0040 N   0  0  0  0  0  0  0  0  0  0  0  0
  136.2210   70.3430  224.4460 C   0  0  0  0  0  0  0  0  0  0  0  0
  137.3024   70.2819  224.6376 H   0  0  0  0  0  0  0  0  0  0  0  0
  135.7581   71.1706  225.0036 H   0  0  0  0  0  0  0  0  0  0  0  0
  135.5580   69.0280  224.9190 C   0  0  0  0  0  0  0  0  0  0  0  0
  136.3419   68.2807  225.1113 H   0  0  0  0  0  0  0  0  0  0  0  0
  134.9864   69.2379  225.8351 H   0  0  0  0  0  0  0  0  0  0  0  0
  134.6680   68.5210  223.9450 O   0  0  0  0  0  0  0  0  0  0  0  0
  135.3830   68.1770  222.7750 C   0  0  0  0  0  0  0  0  0  0  0  0
  136.0562   67.3383  223.0059 H   0  0  0  0  0  0  0  0  0  0  0  0
  134.6501   67.9036  222.0016 H   0  0  0  0  0  0  0  0  0  0  0  0
  136.2270   69.3580  222.2310 C   0  0  0  0  0  0  0  0  0  0  0  0
  137.2920   69.0885  222.2864 H   0  0  0  0  0  0  0  0  0  0  0  0
  135.9177   69.5465  221.1924 H   0  0  0  0  0  0  0  0  0  0  0  0
  137.5950   74.6250  221.7260 N   0  0  0  0  0  0  0  0  0  0  0  0
  140.2250   76.4470  220.5370 C   0  0  0  0  0  0  0  0  0  0  0  0
  139.6001   77.1040  219.9142 H   0  0  0  0  0  0  0  0  0  0  0  0
  140.4458   75.5199  219.9877 H   0  0  0  0  0  0  0  0  0  0  0  0
  141.5290   77.1580  220.8740 C   0  0  0  0  0  0  0  0  0  0  0  0
  141.9892   77.5246  219.9446 H   0  0  0  0  0  0  0  0  0  0  0  0
  142.1962   76.4444  221.3796 H   0  0  0  0  0  0  0  0  0  0  0  0
  1  2  1  0
  2  3  2  0
  3  4  1  0
  3  5  1  0
  5  6  1  0
  5  7  2  0
  7  8  1  0
  8  9  2  0
  9 10  1  0
  8 11  1  0
 11 12  1  0
 11 13  1  0
 11 14  1  0
 14 15  1  0
 15 16  1  0
 16 17  2  0
 17 18  1  0
 18 19  1  0
 19 20  1  0
 19 21  1  0
 19 22  1  0
 22 23  2  0
 23 24  1  0
 23 25  1  0
 25 26  1  0
 25 27  2  0
 27 28  1  0
 27 29  1  0
 29 30  1  0
 29 31  2  0
 31 32  1  0
 32 33  1  0
 32 34  1  0
 32 35  1  0
 35 36  1  0
 35 37  1  0
 17 38  1  0
 38 39  1  0
 38 40  1  0
 40 41  2  0
 41 42  1  0
 41 43  1  0
 43 44  1  0
 43 45  1  0
 43 46  1  0
 46 47  1  0
 46 48  1  0
 46 49  1  0
 49 50  1  0
 50 51  1  0
 50 52  1  0
 50 53  1  0
 53 54  1  0
 53 55  1  0
 53 56  1  0
 56 57  1  0
 57 58  1  0
 57 59  1  0
 57 60  1  0
 60 61  1  0
 60 62  1  0
 40 63  1  0
 14 64  1  0
 64 65  1  0
 64 66  1  0
 64 67  1  0
 67 68  1  0
 67 69  1  0
  9  2  1  0
 63 15  2  0
 67  7  1  0
 35 18  1  0
 60 49  1  0
 31 22  1  0
M  CHG  1  41   1
M  END
>  <UniqueID>  (52) 
284

>  <SMILES>  (52) 
c1ccc2c(c1)CCN(c1nc(N3CCc4ccccc4C3)[nH]/c(=[NH+]/CCN3CCOCC3)n1)C2

>  <Energy>  (52) 
93.46906350042954

>  <Genealogy>  (52) 
c1ccc2c(c1)CCN(c1nc([NH2+]CCN3CCOCC3)nc(N3CCc4ccccc4C3)n1)C2 (protonated)
c1ccc2c(c1)CCN(c1nc(N3CCc4ccccc4C3)[nH]c(=[NH+]CCN3CCOCC3)n1)C2 (tautomer)
c1ccc2c(c1)CCN(c1nc(N3CCc4ccccc4C3)[nH]/c(=[NH+]/CCN3CCOCC3)n1)C2 (cis-trans isomerization)
c1ccc2c(c1)CCN(c1nc(N3CCc4ccccc4C3)[nH]/c(=[NH+]/CCN3CCOCC3)n1)C2 (3D coordinates assigned)
c1ccc2c(c1)CCN(c1nc(N3CCc4ccccc4C3)[nH]/c(=[NH+]/CCN3CCOCC3)n1)C2 (nonaromatic ring conformer: 93.46906350042954 kcal/mol)

>  <smiles>  (52) 
c1ccc2c(c1)CCN(c1nc(NCCN3CCOCC3)nc(N3CCc4ccccc4C3)n1)C2

>  <score_type>  (52) 
oracle

>  <origin>  (52) 
autodockgpu

>  <m_score__min__energy>  (52) 
-9.3100000000000005

>  <m_primary>  (52) 
energy

>  <meeko>  (52) 
{"free_energy": -8.21, "intermolecular_energy": -10.0, "internal_energy": -1.97, "cluster_size": 7, "cluster_id": 2, "rank_in_cluster": 2}

>  <energy>  (52) 
-8.21

>  <cluster_rmsd>  (52) 
0.0

>  <rmsd>  (52) 
268.99

>  <cluster>  (52) 
2

$$$$
XKJAOWLAVYPRNA-DMHZYSPMNA-O
     RDKit          3D

 69 74  0  0  0  0  0  0  0  0999 V2000
  140.7264   70.7599  228.9549 H   0  0  0  0  0  0  0  0  0  0  0  0
  140.3300   70.5730  227.9460 C   0  0  0  0  0  0  0  0  0  0  0  0
  139.3370   69.6110  227.7540 C   0  0  0  0  0  0  0  0  0  0  0  0
  138.9534   69.0388  228.6116 H   0  0  0  0  0  0  0  0  0  0  0  0
  138.8300   69.3740  226.4750 C   0  0  0  0  0  0  0  0  0  0  0  0
  138.0380   68.6242  226.3318 H   0  0  0  0  0  0  0  0  0  0  0  0
  139.3240   70.0860  225.3700 C   0  0  0  0  0  0  0  0  0  0  0  0
  140.3190   71.0710  225.5650 C   0  0  0  0  0  0  0  0  0  0  0  0
  140.8210   71.2990  226.8570 C   0  0  0  0  0  0  0  0  0  0  0  0
  141.6057   72.0539  227.0128 H   0  0  0  0  0  0  0  0  0  0  0  0
  140.8890   71.8680  224.4120 C   0  0  0  0  0  0  0  0  0  0  0  0
  141.9623   71.6432  224.3251 H   0  0  0  0  0  0  0  0  0  0  0  0
  140.7129   72.9328  224.6244 H   0  0  0  0  0  0  0  0  0  0  0  0
  140.2370   71.5560  223.1300 N   0  0  0  0  0  0  0  0  0  0  0  0
  140.3350   72.4910  222.0370 C   0  0  0  0  0  0  0  0  0  0  0  0
  140.0050   73.7960  222.2130 N   0  0  0  0  0  0  0  0  0  0  0  0
  140.1100   74.6870  221.1940 C   0  0  0  0  0  0  0  0  0  0  0  0
  139.8160   76.0780  221.4360 N   0  0  0  0  0  0  0  0  0  0  0  0
  140.1870   76.7070  222.7090 C   0  0  0  0  0  0  0  0  0  0  0  0
  140.7755   75.9946  223.3057 H   0  0  0  0  0  0  0  0  0  0  0  0
  139.2687   76.9874  223.2457 H   0  0  0  0  0  0  0  0  0  0  0  0
  141.0100   77.9530  222.4700 C   0  0  0  0  0  0  0  0  0  0  0  0
  141.6740   78.5480  223.5540 C   0  0  0  0  0  0  0  0  0  0  0  0
  141.6002   78.0978  224.5549 H   0  0  0  0  0  0  0  0  0  0  0  0
  142.4280   79.7090  223.3680 C   0  0  0  0  0  0  0  0  0  0  0  0
  142.9464   80.1686  224.2224 H   0  0  0  0  0  0  0  0  0  0  0  0
  142.5260   80.2880  222.1020 C   0  0  0  0  0  0  0  0  0  0  0  0
  143.1287   81.1971  221.9591 H   0  0  0  0  0  0  0  0  0  0  0  0
  141.8600   79.7150  221.0160 C   0  0  0  0  0  0  0  0  0  0  0  0
  141.9456   80.1722  220.0192 H   0  0  0  0  0  0  0  0  0  0  0  0
  141.0820   78.5590  221.1890 C   0  0  0  0  0  0  0  0  0  0  0  0
  140.4160   77.9360  219.9810 C   0  0  0  0  0  0  0  0  0  0  0  0
  141.1728   77.3906  219.3981 H   0  0  0  0  0  0  0  0  0  0  0  0
  139.9648   78.7421  219.3838 H   0  0  0  0  0  0  0  0  0  0  0  0
  139.3080   76.9650  220.3860 C   0  0  0  0  0  0  0  0  0  0  0  0
  139.0028   76.3681  219.5139 H   0  0  0  0  0  0  0  0  0  0  0  0
  138.4386   77.5258  220.7596 H   0  0  0  0  0  0  0  0  0  0  0  0
  140.5530   74.2620  219.9770 N   0  0  0  0  0  0  0  0  0  0  0  0
  140.6880   74.9450  219.1990 H   0  0  0  0  0  0  0  0  0  0  0  0
  140.8960   72.9560  219.7880 C   0  0  0  0  0  0  0  0  0  0  0  0
  141.3600   72.5610  218.6310 N   0  0  0  0  0  0  0  0  0  0  0  0
  140.8050   71.8840  218.0580 H   0  0  0  0  0  0  0  0  0  0  0  0
  142.6170   73.0450  218.0520 C   0  0  0  0  0  0  0  0  0  0  0  0
  143.2089   72.1828  217.7111 H   0  0  0  0  0  0  0  0  0  0  0  0
  142.3757   73.7113  217.2107 H   0  0  0  0  0  0  0  0  0  0  0  0
  143.4380   73.8400  219.0760 C   0  0  0  0  0  0  0  0  0  0  0  0
  144.3511   74.2185  218.5933 H   0  0  0  0  0  0  0  0  0  0  0  0
  142.8308   74.6791  219.4463 H   0  0  0  0  0  0  0  0  0  0  0  0
  143.8130   72.9750  220.2210 N   0  0  0  0  0  0  0  0  0  0  0  0
  144.1190   71.5860  219.8150 C   0  0  0  0  0  0  0  0  0  0  0  0
  143.9779   70.9254  220.6831 H   0  0  0  0  0  0  0  0  0  0  0  0
  143.4401   71.3210  218.9911 H   0  0  0  0  0  0  0  0  0  0  0  0
  145.5690   71.4260  219.3000 C   0  0  0  0  0  0  0  0  0  0  0  0
  146.1577   70.8792  220.0513 H   0  0  0  0  0  0  0  0  0  0  0  0
  145.5407   70.8729  218.3496 H   0  0  0  0  0  0  0  0  0  0  0  0
  146.1730   72.6820  219.0670 O   0  0  0  0  0  0  0  0  0  0  0  0
  146.2870   73.3930  220.2830 C   0  0  0  0  0  0  0  0  0  0  0  0
  146.9897   72.8594  220.9399 H   0  0  0  0  0  0  0  0  0  0  0  0
  146.6460   74.4057  220.0475 H   0  0  0  0  0  0  0  0  0  0  0  0
  144.9280   73.5310  221.0150 C   0  0  0  0  0  0  0  0  0  0  0  0
  144.9844   72.9935  221.9731 H   0  0  0  0  0  0  0  0  0  0  0  0
  144.7331   74.6023  221.1708 H   0  0  0  0  0  0  0  0  0  0  0  0
  140.7870   72.0820  220.8230 N   0  0  0  0  0  0  0  0  0  0  0  0
  139.7180   70.2010  222.9090 C   0  0  0  0  0  0  0  0  0  0  0  0
  140.5514   69.4832  222.9221 H   0  0  0  0  0  0  0  0  0  0  0  0
  139.2107   70.1589  221.9339 H   0  0  0  0  0  0  0  0  0  0  0  0
  138.7270   69.8470  224.0100 C   0  0  0  0  0  0  0  0  0  0  0  0
  138.4524   68.7857  223.9192 H   0  0  0  0  0  0  0  0  0  0  0  0
  137.8383   70.4858  223.9002 H   0  0  0  0  0  0  0  0  0  0  0  0
  1  2  1  0
  2  3  2  0
  3  4  1  0
  3  5  1  0
  5  6  1  0
  5  7  2  0
  7  8  1  0
  8  9  2  0
  9 10  1  0
  8 11  1  0
 11 12  1  0
 11 13  1  0
 11 14  1  0
 14 15  1  0
 15 16  1  0
 16 17  2  0
 17 18  1  0
 18 19  1  0
 19 20  1  0
 19 21  1  0
 19 22  1  0
 22 23  2  0
 23 24  1  0
 23 25  1  0
 25 26  1  0
 25 27  2  0
 27 28  1  0
 27 29  1  0
 29 30  1  0
 29 31  2  0
 31 32  1  0
 32 33  1  0
 32 34  1  0
 32 35  1  0
 35 36  1  0
 35 37  1  0
 17 38  1  0
 38 39  1  0
 38 40  1  0
 40 41  2  0
 41 42  1  0
 41 43  1  0
 43 44  1  0
 43 45  1  0
 43 46  1  0
 46 47  1  0
 46 48  1  0
 46 49  1  0
 49 50  1  0
 50 51  1  0
 50 52  1  0
 50 53  1  0
 53 54  1  0
 53 55  1  0
 53 56  1  0
 56 57  1  0
 57 58  1  0
 57 59  1  0
 57 60  1  0
 60 61  1  0
 60 62  1  0
 40 63  1  0
 14 64  1  0
 64 65  1  0
 64 66  1  0
 64 67  1  0
 67 68  1  0
 67 69  1  0
  9  2  1  0
 63 15  2  0
 67  7  1  0
 35 18  1  0
 60 49  1  0
 31 22  1  0
M  CHG  1  41   1
M  END
>  <UniqueID>  (53) 
284

>  <SMILES>  (53) 
c1ccc2c(c1)CCN(c1nc(N3CCc4ccccc4C3)[nH]/c(=[NH+]/CCN3CCOCC3)n1)C2

>  <Energy>  (53) 
93.46906350042954

>  <Genealogy>  (53) 
c1ccc2c(c1)CCN(c1nc([NH2+]CCN3CCOCC3)nc(N3CCc4ccccc4C3)n1)C2 (protonated)
c1ccc2c(c1)CCN(c1nc(N3CCc4ccccc4C3)[nH]c(=[NH+]CCN3CCOCC3)n1)C2 (tautomer)
c1ccc2c(c1)CCN(c1nc(N3CCc4ccccc4C3)[nH]/c(=[NH+]/CCN3CCOCC3)n1)C2 (cis-trans isomerization)
c1ccc2c(c1)CCN(c1nc(N3CCc4ccccc4C3)[nH]/c(=[NH+]/CCN3CCOCC3)n1)C2 (3D coordinates assigned)
c1ccc2c(c1)CCN(c1nc(N3CCc4ccccc4C3)[nH]/c(=[NH+]/CCN3CCOCC3)n1)C2 (nonaromatic ring conformer: 93.46906350042954 kcal/mol)

>  <smiles>  (53) 
c1ccc2c(c1)CCN(c1nc(NCCN3CCOCC3)nc(N3CCc4ccccc4C3)n1)C2

>  <score_type>  (53) 
oracle

>  <origin>  (53) 
autodockgpu

>  <m_score__min__energy>  (53) 
-9.3100000000000005

>  <m_primary>  (53) 
energy

>  <meeko>  (53) 
{"free_energy": -9.29, "intermolecular_energy": -11.08, "internal_energy": -0.96, "cluster_size": 11, "cluster_id": 1, "rank_in_cluster": 2}

>  <energy>  (53) 
-8.21

>  <cluster_rmsd>  (53) 
0.06

>  <rmsd>  (53) 
269.01

>  <cluster>  (53) 
2

$$$$
XKJAOWLAVYPRNA-DMHZYSPMNA-O
     RDKit          3D

 69 74  0  0  0  0  0  0  0  0999 V2000
  140.8147   81.2812  224.2538 H   0  0  0  0  0  0  0  0  0  0  0  0
  140.9470   80.4370  223.5610 C   0  0  0  0  0  0  0  0  0  0  0  0
  142.0280   80.4210  222.6800 C   0  0  0  0  0  0  0  0  0  0  0  0
  142.7461   81.2542  222.6776 H   0  0  0  0  0  0  0  0  0  0  0  0
  142.2010   79.3500  221.8010 C   0  0  0  0  0  0  0  0  0  0  0  0
  143.0637   79.3365  221.1187 H   0  0  0  0  0  0  0  0  0  0  0  0
  141.2800   78.2900  221.7830 C   0  0  0  0  0  0  0  0  0  0  0  0
  140.1920   78.2960  222.6850 C   0  0  0  0  0  0  0  0  0  0  0  0
  140.0310   79.3800  223.5640 C   0  0  0  0  0  0  0  0  0  0  0  0
  139.1788   79.3976  224.2593 H   0  0  0  0  0  0  0  0  0  0  0  0
  139.1700   77.1800  222.7110 C   0  0  0  0  0  0  0  0  0  0  0  0
  138.1873   77.5960  222.4441 H   0  0  0  0  0  0  0  0  0  0  0  0
  139.1683   76.7535  223.7249 H   0  0  0  0  0  0  0  0  0  0  0  0
  139.4930   76.0950  221.7720 N   0  0  0  0  0  0  0  0  0  0  0  0
  138.9000   74.7940  221.9590 C   0  0  0  0  0  0  0  0  0  0  0  0
  139.6560   73.7430  222.3690 N   0  0  0  0  0  0  0  0  0  0  0  0
  139.1030   72.5190  222.5640 C   0  0  0  0  0  0  0  0  0  0  0  0
  139.9220   71.4420  223.0650 N   0  0  0  0  0  0  0  0  0  0  0  0
  140.6920   71.6080  224.3030 C   0  0  0  0  0  0  0  0  0  0  0  0
  140.4325   72.5729  224.7631 H   0  0  0  0  0  0  0  0  0  0  0  0
  141.7643   71.5775  224.0594 H   0  0  0  0  0  0  0  0  0  0  0  0
  140.3830   70.4940  225.2780 C   0  0  0  0  0  0  0  0  0  0  0  0
  140.8190   70.6120  226.6070 C   0  0  0  0  0  0  0  0  0  0  0  0
  141.3659   71.5117  226.9256 H   0  0  0  0  0  0  0  0  0  0  0  0
  140.5620   69.5930  227.5270 C   0  0  0  0  0  0  0  0  0  0  0  0
  140.9037   69.6948  228.5676 H   0  0  0  0  0  0  0  0  0  0  0  0
  139.8730   68.4460  227.1300 C   0  0  0  0  0  0  0  0  0  0  0  0
  139.6666   67.6496  227.8602 H   0  0  0  0  0  0  0  0  0  0  0  0
  139.4450   68.3070  225.8080 C   0  0  0  0  0  0  0  0  0  0  0  0
  138.8963   67.4037  225.5031 H   0  0  0  0  0  0  0  0  0  0  0  0
  139.7110   69.3140  224.8650 C   0  0  0  0  0  0  0  0  0  0  0  0
  139.1890   69.1540  223.4540 C   0  0  0  0  0  0  0  0  0  0  0  0
  138.1109   69.3721  223.4458 H   0  0  0  0  0  0  0  0  0  0  0  0
  139.3844   68.1208  223.1309 H   0  0  0  0  0  0  0  0  0  0  0  0
  139.8930   70.0990  222.4810 C   0  0  0  0  0  0  0  0  0  0  0  0
  139.3457   70.1224  221.5271 H   0  0  0  0  0  0  0  0  0  0  0  0
  140.9195   69.7492  222.2970 H   0  0  0  0  0  0  0  0  0  0  0  0
  137.7690   72.3440  222.3430 N   0  0  0  0  0  0  0  0  0  0  0  0
  137.3200   71.4230  222.5390 H   0  0  0  0  0  0  0  0  0  0  0  0
  136.9960   73.3930  221.9400 C   0  0  0  0  0  0  0  0  0  0  0  0
  135.7100   73.2320  221.7700 N   0  0  0  0  0  0  0  0  0  0  0  0
  135.2870   73.4230  220.8320 H   0  0  0  0  0  0  0  0  0  0  0  0
  134.8050   72.7520  222.8200 C   0  0  0  0  0  0  0  0  0  0  0  0
  135.2007   73.0566  223.8001 H   0  0  0  0  0  0  0  0  0  0  0  0
  133.8109   73.1900  222.6467 H   0  0  0  0  0  0  0  0  0  0  0  0
  134.6710   71.2240  222.7890 C   0  0  0  0  0  0  0  0  0  0  0  0
  133.9726   70.9054  223.5769 H   0  0  0  0  0  0  0  0  0  0  0  0
  134.2925   70.9191  221.8022 H   0  0  0  0  0  0  0  0  0  0  0  0
  135.9900   70.5840  223.0170 N   0  0  0  0  0  0  0  0  0  0  0  0
  136.2660   70.3320  224.4480 C   0  0  0  0  0  0  0  0  0  0  0  0
  137.3545   70.2613  224.5904 H   0  0  0  0  0  0  0  0  0  0  0  0
  135.8366   71.1653  225.0235 H   0  0  0  0  0  0  0  0  0  0  0  0
  135.6130   69.0240  224.9550 C   0  0  0  0  0  0  0  0  0  0  0  0
  136.3982   68.2705  225.1152 H   0  0  0  0  0  0  0  0  0  0  0  0
  135.0845   69.2420  225.8948 H   0  0  0  0  0  0  0  0  0  0  0  0
  134.6770   68.5220  224.0240 O   0  0  0  0  0  0  0  0  0  0  0  0
  135.3350   68.1690  222.8240 C   0  0  0  0  0  0  0  0  0  0  0  0
  136.0109   67.3252  223.0268 H   0  0  0  0  0  0  0  0  0  0  0  0
  134.5650   67.9003  222.0858 H   0  0  0  0  0  0  0  0  0  0  0  0
  136.1630   69.3400  222.2380 C   0  0  0  0  0  0  0  0  0  0  0  0
  137.2271   69.0613  222.2454 H   0  0  0  0  0  0  0  0  0  0  0  0
  135.8083   69.5281  221.2139 H   0  0  0  0  0  0  0  0  0  0  0  0
  137.5700   74.6110  221.7550 N   0  0  0  0  0  0  0  0  0  0  0  0
  140.2060   76.4180  220.5300 C   0  0  0  0  0  0  0  0  0  0  0  0
  139.5809   77.0772  219.9098 H   0  0  0  0  0  0  0  0  0  0  0  0
  140.4207   75.4899  219.9800 H   0  0  0  0  0  0  0  0  0  0  0  0
  141.5140   77.1240  220.8610 C   0  0  0  0  0  0  0  0  0  0  0  0
  141.9717   77.4884  219.9295 H   0  0  0  0  0  0  0  0  0  0  0  0
  142.1807   76.4082  221.3640 H   0  0  0  0  0  0  0  0  0  0  0  0
  1  2  1  0
  2  3  2  0
  3  4  1  0
  3  5  1  0
  5  6  1  0
  5  7  2  0
  7  8  1  0
  8  9  2  0
  9 10  1  0
  8 11  1  0
 11 12  1  0
 11 13  1  0
 11 14  1  0
 14 15  1  0
 15 16  1  0
 16 17  2  0
 17 18  1  0
 18 19  1  0
 19 20  1  0
 19 21  1  0
 19 22  1  0
 22 23  2  0
 23 24  1  0
 23 25  1  0
 25 26  1  0
 25 27  2  0
 27 28  1  0
 27 29  1  0
 29 30  1  0
 29 31  2  0
 31 32  1  0
 32 33  1  0
 32 34  1  0
 32 35  1  0
 35 36  1  0
 35 37  1  0
 17 38  1  0
 38 39  1  0
 38 40  1  0
 40 41  2  0
 41 42  1  0
 41 43  1  0
 43 44  1  0
 43 45  1  0
 43 46  1  0
 46 47  1  0
 46 48  1  0
 46 49  1  0
 49 50  1  0
 50 51  1  0
 50 52  1  0
 50 53  1  0
 53 54  1  0
 53 55  1  0
 53 56  1  0
 56 57  1  0
 57 58  1  0
 57 59  1  0
 57 60  1  0
 60 61  1  0
 60 62  1  0
 40 63  1  0
 14 64  1  0
 64 65  1  0
 64 66  1  0
 64 67  1  0
 67 68  1  0
 67 69  1  0
  9  2  1  0
 63 15  2  0
 67  7  1  0
 35 18  1  0
 60 49  1  0
 31 22  1  0
M  CHG  1  41   1
M  END
>  <UniqueID>  (54) 
284

>  <SMILES>  (54) 
c1ccc2c(c1)CCN(c1nc(N3CCc4ccccc4C3)[nH]/c(=[NH+]/CCN3CCOCC3)n1)C2

>  <Energy>  (54) 
93.46906350042954

>  <Genealogy>  (54) 
c1ccc2c(c1)CCN(c1nc([NH2+]CCN3CCOCC3)nc(N3CCc4ccccc4C3)n1)C2 (protonated)
c1ccc2c(c1)CCN(c1nc(N3CCc4ccccc4C3)[nH]c(=[NH+]CCN3CCOCC3)n1)C2 (tautomer)
c1ccc2c(c1)CCN(c1nc(N3CCc4ccccc4C3)[nH]/c(=[NH+]/CCN3CCOCC3)n1)C2 (cis-trans isomerization)
c1ccc2c(c1)CCN(c1nc(N3CCc4ccccc4C3)[nH]/c(=[NH+]/CCN3CCOCC3)n1)C2 (3D coordinates assigned)
c1ccc2c(c1)CCN(c1nc(N3CCc4ccccc4C3)[nH]/c(=[NH+]/CCN3CCOCC3)n1)C2 (nonaromatic ring conformer: 93.46906350042954 kcal/mol)

>  <smiles>  (54) 
c1ccc2c(c1)CCN(c1nc(NCCN3CCOCC3)nc(N3CCc4ccccc4C3)n1)C2

>  <score_type>  (54) 
oracle

>  <origin>  (54) 
autodockgpu

>  <m_score__min__energy>  (54) 
-9.3100000000000005

>  <m_primary>  (54) 
energy

>  <meeko>  (54) 
{"free_energy": -8.2, "intermolecular_energy": -9.99, "internal_energy": -1.98, "cluster_size": 7, "cluster_id": 2, "rank_in_cluster": 4}

>  <energy>  (54) 
-8.21

>  <cluster_rmsd>  (54) 
0.04

>  <rmsd>  (54) 
268.99

>  <cluster>  (54) 
2

$$$$
XKJAOWLAVYPRNA-DMHZYSPMNA-O
     RDKit          3D

 69 74  0  0  0  0  0  0  0  0999 V2000
  140.7104   70.8115  228.9957 H   0  0  0  0  0  0  0  0  0  0  0  0
  140.3150   70.6060  227.9900 C   0  0  0  0  0  0  0  0  0  0  0  0
  139.3400   69.6240  227.8120 C   0  0  0  0  0  0  0  0  0  0  0  0
  138.9702   69.0539  228.6770 H   0  0  0  0  0  0  0  0  0  0  0  0
  138.8330   69.3640  226.5370 C   0  0  0  0  0  0  0  0  0  0  0  0
  138.0532   68.5995  226.4045 H   0  0  0  0  0  0  0  0  0  0  0  0
  139.3120   70.0720  225.4230 C   0  0  0  0  0  0  0  0  0  0  0  0
  140.2890   71.0770  225.6040 C   0  0  0  0  0  0  0  0  0  0  0  0
  140.7900   71.3290  226.8920 C   0  0  0  0  0  0  0  0  0  0  0  0
  141.5609   72.1001  227.0374 H   0  0  0  0  0  0  0  0  0  0  0  0
  140.8400   71.8730  224.4410 C   0  0  0  0  0  0  0  0  0  0  0  0
  141.9172   71.6684  224.3532 H   0  0  0  0  0  0  0  0  0  0  0  0
  140.6436   72.9363  224.6428 H   0  0  0  0  0  0  0  0  0  0  0  0
  140.1910   71.5350  223.1650 N   0  0  0  0  0  0  0  0  0  0  0  0
  140.2690   72.4600  222.0610 C   0  0  0  0  0  0  0  0  0  0  0  0
  139.9470   73.7670  222.2330 N   0  0  0  0  0  0  0  0  0  0  0  0
  140.0330   74.6490  221.2040 C   0  0  0  0  0  0  0  0  0  0  0  0
  139.7510   76.0430  221.4390 N   0  0  0  0  0  0  0  0  0  0  0  0
  140.1010   76.6680  222.7200 C   0  0  0  0  0  0  0  0  0  0  0  0
  140.6680   75.9490  223.3296 H   0  0  0  0  0  0  0  0  0  0  0  0
  139.1744   76.9589  223.2365 H   0  0  0  0  0  0  0  0  0  0  0  0
  140.9430   77.9040  222.4990 C   0  0  0  0  0  0  0  0  0  0  0  0
  141.5900   78.4930  223.5970 C   0  0  0  0  0  0  0  0  0  0  0  0
  141.4886   78.0450  224.5965 H   0  0  0  0  0  0  0  0  0  0  0  0
  142.3620   79.6450  223.4270 C   0  0  0  0  0  0  0  0  0  0  0  0
  142.8683   80.0981  224.2921 H   0  0  0  0  0  0  0  0  0  0  0  0
  142.4930   80.2230  222.1630 C   0  0  0  0  0  0  0  0  0  0  0  0
  143.1082   81.1255  222.0330 H   0  0  0  0  0  0  0  0  0  0  0  0
  141.8440   79.6570  221.0630 C   0  0  0  0  0  0  0  0  0  0  0  0
  141.9560   80.1127  220.0681 H   0  0  0  0  0  0  0  0  0  0  0  0
  141.0490   78.5090  221.2200 C   0  0  0  0  0  0  0  0  0  0  0  0
  140.4010   77.8940  219.9980 C   0  0  0  0  0  0  0  0  0  0  0  0
  141.1636   77.3405  219.4304 H   0  0  0  0  0  0  0  0  0  0  0  0
  139.9711   78.7055  219.3924 H   0  0  0  0  0  0  0  0  0  0  0  0
  139.2740   76.9350  220.3790 C   0  0  0  0  0  0  0  0  0  0  0  0
  138.9808   76.3415  219.5005 H   0  0  0  0  0  0  0  0  0  0  0  0
  138.4026   77.5047  220.7340 H   0  0  0  0  0  0  0  0  0  0  0  0
  140.4490   74.2110  219.9810 N   0  0  0  0  0  0  0  0  0  0  0  0
  140.5690   74.8860  219.1950 H   0  0  0  0  0  0  0  0  0  0  0  0
  140.7830   72.9020  219.7960 C   0  0  0  0  0  0  0  0  0  0  0  0
  141.2200   72.4950  218.6340 N   0  0  0  0  0  0  0  0  0  0  0  0
  140.6250   71.8570  218.0560 H   0  0  0  0  0  0  0  0  0  0  0  0
  142.5000   72.9140  218.0540 C   0  0  0  0  0  0  0  0  0  0  0  0
  143.0907   72.0197  217.8065 H   0  0  0  0  0  0  0  0  0  0  0  0
  142.2934   73.5074  217.1511 H   0  0  0  0  0  0  0  0  0  0  0  0
  143.2990   73.7850  219.0320 C   0  0  0  0  0  0  0  0  0  0  0  0
  144.1977   74.1673  218.5259 H   0  0  0  0  0  0  0  0  0  0  0  0
  142.6667   74.6221  219.3628 H   0  0  0  0  0  0  0  0  0  0  0  0
  143.7060   72.9910  220.2180 N   0  0  0  0  0  0  0  0  0  0  0  0
  144.0020   71.5800  219.8890 C   0  0  0  0  0  0  0  0  0  0  0  0
  143.8858   70.9736  220.7994 H   0  0  0  0  0  0  0  0  0  0  0  0
  143.3007   71.2662  219.1018 H   0  0  0  0  0  0  0  0  0  0  0  0
  145.4380   71.3870  219.3440 C   0  0  0  0  0  0  0  0  0  0  0  0
  146.0477   70.8856  220.1101 H   0  0  0  0  0  0  0  0  0  0  0  0
  145.3835   70.7776  218.4298 H   0  0  0  0  0  0  0  0  0  0  0  0
  146.0350   72.6270  219.0190 O   0  0  0  0  0  0  0  0  0  0  0  0
  146.1810   73.4100  220.1860 C   0  0  0  0  0  0  0  0  0  0  0  0
  146.9021   72.9168  220.8544 H   0  0  0  0  0  0  0  0  0  0  0  0
  146.5318   74.4065  219.8797 H   0  0  0  0  0  0  0  0  0  0  0  0
  144.8420   73.5930  220.9460 C   0  0  0  0  0  0  0  0  0  0  0  0
  144.9253   73.1141  221.9328 H   0  0  0  0  0  0  0  0  0  0  0  0
  144.6506   74.6719  221.0424 H   0  0  0  0  0  0  0  0  0  0  0  0
  140.6930   72.0380  220.8420 N   0  0  0  0  0  0  0  0  0  0  0  0
  139.6970   70.1680  222.9590 C   0  0  0  0  0  0  0  0  0  0  0  0
  140.5437   69.4660  222.9771 H   0  0  0  0  0  0  0  0  0  0  0  0
  139.1884   70.1057  221.9857 H   0  0  0  0  0  0  0  0  0  0  0  0
  138.7160   69.8080  224.0670 C   0  0  0  0  0  0  0  0  0  0  0  0
  138.4604   68.7410  223.9882 H   0  0  0  0  0  0  0  0  0  0  0  0
  137.8159   70.4299  223.9532 H   0  0  0  0  0  0  0  0  0  0  0  0
  1  2  1  0
  2  3  2  0
  3  4  1  0
  3  5  1  0
  5  6  1  0
  5  7  2  0
  7  8  1  0
  8  9  2  0
  9 10  1  0
  8 11  1  0
 11 12  1  0
 11 13  1  0
 11 14  1  0
 14 15  1  0
 15 16  1  0
 16 17  2  0
 17 18  1  0
 18 19  1  0
 19 20  1  0
 19 21  1  0
 19 22  1  0
 22 23  2  0
 23 24  1  0
 23 25  1  0
 25 26  1  0
 25 27  2  0
 27 28  1  0
 27 29  1  0
 29 30  1  0
 29 31  2  0
 31 32  1  0
 32 33  1  0
 32 34  1  0
 32 35  1  0
 35 36  1  0
 35 37  1  0
 17 38  1  0
 38 39  1  0
 38 40  1  0
 40 41  2  0
 41 42  1  0
 41 43  1  0
 43 44  1  0
 43 45  1  0
 43 46  1  0
 46 47  1  0
 46 48  1  0
 46 49  1  0
 49 50  1  0
 50 51  1  0
 50 52  1  0
 50 53  1  0
 53 54  1  0
 53 55  1  0
 53 56  1  0
 56 57  1  0
 57 58  1  0
 57 59  1  0
 57 60  1  0
 60 61  1  0
 60 62  1  0
 40 63  1  0
 14 64  1  0
 64 65  1  0
 64 66  1  0
 64 67  1  0
 67 68  1  0
 67 69  1  0
  9  2  1  0
 63 15  2  0
 67  7  1  0
 35 18  1  0
 60 49  1  0
 31 22  1  0
M  CHG  1  41   1
M  END
>  <UniqueID>  (55) 
284

>  <SMILES>  (55) 
c1ccc2c(c1)CCN(c1nc(N3CCc4ccccc4C3)[nH]/c(=[NH+]/CCN3CCOCC3)n1)C2

>  <Energy>  (55) 
93.46906350042954

>  <Genealogy>  (55) 
c1ccc2c(c1)CCN(c1nc([NH2+]CCN3CCOCC3)nc(N3CCc4ccccc4C3)n1)C2 (protonated)
c1ccc2c(c1)CCN(c1nc(N3CCc4ccccc4C3)[nH]c(=[NH+]CCN3CCOCC3)n1)C2 (tautomer)
c1ccc2c(c1)CCN(c1nc(N3CCc4ccccc4C3)[nH]/c(=[NH+]/CCN3CCOCC3)n1)C2 (cis-trans isomerization)
c1ccc2c(c1)CCN(c1nc(N3CCc4ccccc4C3)[nH]/c(=[NH+]/CCN3CCOCC3)n1)C2 (3D coordinates assigned)
c1ccc2c(c1)CCN(c1nc(N3CCc4ccccc4C3)[nH]/c(=[NH+]/CCN3CCOCC3)n1)C2 (nonaromatic ring conformer: 93.46906350042954 kcal/mol)

>  <smiles>  (55) 
c1ccc2c(c1)CCN(c1nc(NCCN3CCOCC3)nc(N3CCc4ccccc4C3)n1)C2

>  <score_type>  (55) 
oracle

>  <origin>  (55) 
autodockgpu

>  <m_score__min__energy>  (55) 
-9.3100000000000005

>  <m_primary>  (55) 
energy

>  <meeko>  (55) 
{"free_energy": -9.31, "intermolecular_energy": -11.1, "internal_energy": -0.98, "cluster_size": 11, "cluster_id": 1, "rank_in_cluster": 1}

>  <energy>  (55) 
-8.2

>  <cluster_rmsd>  (55) 
0.03

>  <rmsd>  (55) 
268.99

>  <cluster>  (55) 
2

$$$$
XKJAOWLAVYPRNA-DMHZYSPMNA-O
     RDKit          3D

 69 74  0  0  0  0  0  0  0  0999 V2000
  138.9393   66.3115  226.8119 H   0  0  0  0  0  0  0  0  0  0  0  0
  139.4450   67.2760  226.6570 C   0  0  0  0  0  0  0  0  0  0  0  0
  140.3060   67.7770  227.6350 C   0  0  0  0  0  0  0  0  0  0  0  0
  140.4756   67.2083  228.5611 H   0  0  0  0  0  0  0  0  0  0  0  0
  140.9520   68.9990  227.4390 C   0  0  0  0  0  0  0  0  0  0  0  0
  141.6409   69.3822  228.2062 H   0  0  0  0  0  0  0  0  0  0  0  0
  140.7280   69.7420  226.2690 C   0  0  0  0  0  0  0  0  0  0  0  0
  139.8680   69.2300  225.2720 C   0  0  0  0  0  0  0  0  0  0  0  0
  139.2250   67.9990  225.4810 C   0  0  0  0  0  0  0  0  0  0  0  0
  138.5439   67.6012  224.7143 H   0  0  0  0  0  0  0  0  0  0  0  0
  139.5910   69.9870  223.9910 C   0  0  0  0  0  0  0  0  0  0  0  0
  138.5201   70.2355  223.9533 H   0  0  0  0  0  0  0  0  0  0  0  0
  139.8877   69.3408  223.1517 H   0  0  0  0  0  0  0  0  0  0  0  0
  140.3670   71.2320  223.8900 N   0  0  0  0  0  0  0  0  0  0  0  0
  140.5620   71.8450  222.5980 C   0  0  0  0  0  0  0  0  0  0  0  0
  140.1660   73.1240  222.3750 N   0  0  0  0  0  0  0  0  0  0  0  0
  140.3600   73.7140  221.1680 C   0  0  0  0  0  0  0  0  0  0  0  0
  139.9890   75.0960  220.9860 N   0  0  0  0  0  0  0  0  0  0  0  0
  139.8170   75.9780  222.1460 C   0  0  0  0  0  0  0  0  0  0  0  0
  140.1200   75.4404  223.0566 H   0  0  0  0  0  0  0  0  0  0  0  0
  138.7596   76.2739  222.2118 H   0  0  0  0  0  0  0  0  0  0  0  0
  140.6630   77.2240  222.0000 C   0  0  0  0  0  0  0  0  0  0  0  0
  140.8350   78.0640  223.1110 C   0  0  0  0  0  0  0  0  0  0  0  0
  140.3677   77.8032  224.0721 H   0  0  0  0  0  0  0  0  0  0  0  0
  141.5970   79.2300  223.0020 C   0  0  0  0  0  0  0  0  0  0  0  0
  141.7293   79.8819  223.8781 H   0  0  0  0  0  0  0  0  0  0  0  0
  142.1910   79.5710  221.7860 C   0  0  0  0  0  0  0  0  0  0  0  0
  142.7969   80.4858  221.7079 H   0  0  0  0  0  0  0  0  0  0  0  0
  142.0170   78.7520  220.6680 C   0  0  0  0  0  0  0  0  0  0  0  0
  142.4931   79.0218  219.7138 H   0  0  0  0  0  0  0  0  0  0  0  0
  141.2380   77.5860  220.7540 C   0  0  0  0  0  0  0  0  0  0  0  0
  141.1130   76.6960  219.5370 C   0  0  0  0  0  0  0  0  0  0  0  0
  142.0418   76.1183  219.4208 H   0  0  0  0  0  0  0  0  0  0  0  0
  140.9351   77.3363  218.6604 H   0  0  0  0  0  0  0  0  0  0  0  0
  139.9390   75.7260  219.6650 C   0  0  0  0  0  0  0  0  0  0  0  0
  140.0103   74.9542  218.8844 H   0  0  0  0  0  0  0  0  0  0  0  0
  138.9903   76.2698  219.5460 H   0  0  0  0  0  0  0  0  0  0  0  0
  140.9610   73.0090  220.1670 N   0  0  0  0  0  0  0  0  0  0  0  0
  141.1640   73.4660  219.2510 H   0  0  0  0  0  0  0  0  0  0  0  0
  141.3720   71.7270  220.3810 C   0  0  0  0  0  0  0  0  0  0  0  0
  141.9850   71.0680  219.4320 N   0  0  0  0  0  0  0  0  0  0  0  0
  141.4290   70.4650  218.7820 H   0  0  0  0  0  0  0  0  0  0  0  0
  143.4280   71.1510  219.1880 C   0  0  0  0  0  0  0  0  0  0  0  0
  143.8342   70.1330  219.0953 H   0  0  0  0  0  0  0  0  0  0  0  0
  143.5897   71.7223  218.2620 H   0  0  0  0  0  0  0  0  0  0  0  0
  144.1500   71.8740  220.3330 C   0  0  0  0  0  0  0  0  0  0  0  0
  143.4131   72.4260  220.9349 H   0  0  0  0  0  0  0  0  0  0  0  0
  144.6655   71.1289  220.9568 H   0  0  0  0  0  0  0  0  0  0  0  0
  145.1520   72.8260  219.7930 N   0  0  0  0  0  0  0  0  0  0  0  0
  145.0210   73.0300  218.3340 C   0  0  0  0  0  0  0  0  0  0  0  0
  145.9861   73.3793  217.9383 H   0  0  0  0  0  0  0  0  0  0  0  0
  144.7252   72.0696  217.8868 H   0  0  0  0  0  0  0  0  0  0  0  0
  143.9320   74.0710  217.9780 C   0  0  0  0  0  0  0  0  0  0  0  0
  144.4189   74.9934  217.6284 H   0  0  0  0  0  0  0  0  0  0  0  0
  143.2906   73.6468  217.1914 H   0  0  0  0  0  0  0  0  0  0  0  0
  143.1240   74.3730  219.0970 O   0  0  0  0  0  0  0  0  0  0  0  0
  143.9070   74.9820  220.1030 C   0  0  0  0  0  0  0  0  0  0  0  0
  144.2567   75.9581  219.7357 H   0  0  0  0  0  0  0  0  0  0  0  0
  143.2771   75.0896  220.9984 H   0  0  0  0  0  0  0  0  0  0  0  0
  145.1390   74.1270  220.4930 C   0  0  0  0  0  0  0  0  0  0  0  0
  146.0529   74.6805  220.2314 H   0  0  0  0  0  0  0  0  0  0  0  0
  145.0890   73.9313  221.5743 H   0  0  0  0  0  0  0  0  0  0  0  0
  141.1710   71.1570  221.5980 N   0  0  0  0  0  0  0  0  0  0  0  0
  140.7110   71.9570  225.1190 C   0  0  0  0  0  0  0  0  0  0  0  0
  139.7895   72.3018  225.6109 H   0  0  0  0  0  0  0  0  0  0  0  0
  141.3405   72.8236  224.8683 H   0  0  0  0  0  0  0  0  0  0  0  0
  141.4730   71.0330  226.0600 C   0  0  0  0  0  0  0  0  0  0  0  0
  141.6023   71.5348  227.0303 H   0  0  0  0  0  0  0  0  0  0  0  0
  142.4508   70.8045  225.6109 H   0  0  0  0  0  0  0  0  0  0  0  0
  1  2  1  0
  2  3  2  0
  3  4  1  0
  3  5  1  0
  5  6  1  0
  5  7  2  0
  7  8  1  0
  8  9  2  0
  9 10  1  0
  8 11  1  0
 11 12  1  0
 11 13  1  0
 11 14  1  0
 14 15  1  0
 15 16  1  0
 16 17  2  0
 17 18  1  0
 18 19  1  0
 19 20  1  0
 19 21  1  0
 19 22  1  0
 22 23  2  0
 23 24  1  0
 23 25  1  0
 25 26  1  0
 25 27  2  0
 27 28  1  0
 27 29  1  0
 29 30  1  0
 29 31  2  0
 31 32  1  0
 32 33  1  0
 32 34  1  0
 32 35  1  0
 35 36  1  0
 35 37  1  0
 17 38  1  0
 38 39  1  0
 38 40  1  0
 40 41  2  0
 41 42  1  0
 41 43  1  0
 43 44  1  0
 43 45  1  0
 43 46  1  0
 46 47  1  0
 46 48  1  0
 46 49  1  0
 49 50  1  0
 50 51  1  0
 50 52  1  0
 50 53  1  0
 53 54  1  0
 53 55  1  0
 53 56  1  0
 56 57  1  0
 57 58  1  0
 57 59  1  0
 57 60  1  0
 60 61  1  0
 60 62  1  0
 40 63  1  0
 14 64  1  0
 64 65  1  0
 64 66  1  0
 64 67  1  0
 67 68  1  0
 67 69  1  0
  9  2  1  0
 63 15  2  0
 67  7  1  0
 35 18  1  0
 60 49  1  0
 31 22  1  0
M  CHG  1  41   1
M  END
>  <UniqueID>  (56) 
284

>  <SMILES>  (56) 
c1ccc2c(c1)CCN(c1nc(N3CCc4ccccc4C3)[nH]/c(=[NH+]/CCN3CCOCC3)n1)C2

>  <Energy>  (56) 
93.46906350042954

>  <Genealogy>  (56) 
c1ccc2c(c1)CCN(c1nc([NH2+]CCN3CCOCC3)nc(N3CCc4ccccc4C3)n1)C2 (protonated)
c1ccc2c(c1)CCN(c1nc(N3CCc4ccccc4C3)[nH]c(=[NH+]CCN3CCOCC3)n1)C2 (tautomer)
c1ccc2c(c1)CCN(c1nc(N3CCc4ccccc4C3)[nH]/c(=[NH+]/CCN3CCOCC3)n1)C2 (cis-trans isomerization)
c1ccc2c(c1)CCN(c1nc(N3CCc4ccccc4C3)[nH]/c(=[NH+]/CCN3CCOCC3)n1)C2 (3D coordinates assigned)
c1ccc2c(c1)CCN(c1nc(N3CCc4ccccc4C3)[nH]/c(=[NH+]/CCN3CCOCC3)n1)C2 (nonaromatic ring conformer: 93.46906350042954 kcal/mol)

>  <smiles>  (56) 
c1ccc2c(c1)CCN(c1nc(NCCN3CCOCC3)nc(N3CCc4ccccc4C3)n1)C2

>  <score_type>  (56) 
oracle

>  <origin>  (56) 
autodockgpu

>  <m_score__min__energy>  (56) 
-9.3100000000000005

>  <m_primary>  (56) 
energy

>  <meeko>  (56) 
{"free_energy": -8.3, "intermolecular_energy": -10.09, "internal_energy": -2.14, "cluster_size": 11, "cluster_id": 1, "rank_in_cluster": 10}

>  <energy>  (56) 
-8.2

>  <cluster_rmsd>  (56) 
0.15

>  <rmsd>  (56) 
269.03

>  <cluster>  (56) 
2

$$$$
XKJAOWLAVYPRNA-DMHZYSPMNA-O
     RDKit          3D

 69 74  0  0  0  0  0  0  0  0999 V2000
  140.7733   81.3217  224.2308 H   0  0  0  0  0  0  0  0  0  0  0  0
  140.9150   80.4750  223.5430 C   0  0  0  0  0  0  0  0  0  0  0  0
  142.0040   80.4600  222.6720 C   0  0  0  0  0  0  0  0  0  0  0  0
  142.7184   81.2965  222.6714 H   0  0  0  0  0  0  0  0  0  0  0  0
  142.1890   79.3840  221.8000 C   0  0  0  0  0  0  0  0  0  0  0  0
  143.0580   79.3700  221.1258 H   0  0  0  0  0  0  0  0  0  0  0  0
  141.2730   78.3210  221.7790 C   0  0  0  0  0  0  0  0  0  0  0  0
  140.1770   78.3270  222.6720 C   0  0  0  0  0  0  0  0  0  0  0  0
  140.0030   79.4150  223.5430 C   0  0  0  0  0  0  0  0  0  0  0  0
  139.1438   79.4334  224.2296 H   0  0  0  0  0  0  0  0  0  0  0  0
  139.1590   77.2080  222.6940 C   0  0  0  0  0  0  0  0  0  0  0  0
  138.1774   77.6192  222.4157 H   0  0  0  0  0  0  0  0  0  0  0  0
  139.1490   76.7866  223.7100 H   0  0  0  0  0  0  0  0  0  0  0  0
  139.4950   76.1190  221.7630 N   0  0  0  0  0  0  0  0  0  0  0  0
  138.9050   74.8160  221.9520 C   0  0  0  0  0  0  0  0  0  0  0  0
  139.6610   73.7710  222.3740 N   0  0  0  0  0  0  0  0  0  0  0  0
  139.1120   72.5450  222.5700 C   0  0  0  0  0  0  0  0  0  0  0  0
  139.9300   71.4750  223.0850 N   0  0  0  0  0  0  0  0  0  0  0  0
  140.6910   71.6510  224.3270 C   0  0  0  0  0  0  0  0  0  0  0  0
  140.4265   72.6187  224.7783 H   0  0  0  0  0  0  0  0  0  0  0  0
  141.7649   71.6204  224.0907 H   0  0  0  0  0  0  0  0  0  0  0  0
  140.3780   70.5440  225.3080 C   0  0  0  0  0  0  0  0  0  0  0  0
  140.8030   70.6720  226.6390 C   0  0  0  0  0  0  0  0  0  0  0  0
  141.3439   71.5759  226.9559 H   0  0  0  0  0  0  0  0  0  0  0  0
  140.5430   69.6580  227.5640 C   0  0  0  0  0  0  0  0  0  0  0  0
  140.8778   69.7679  228.6060 H   0  0  0  0  0  0  0  0  0  0  0  0
  139.8600   68.5060  227.1710 C   0  0  0  0  0  0  0  0  0  0  0  0
  139.6500   67.7141  227.9051 H   0  0  0  0  0  0  0  0  0  0  0  0
  139.4430   68.3580  225.8460 C   0  0  0  0  0  0  0  0  0  0  0  0
  138.9000   67.4508  225.5424 H   0  0  0  0  0  0  0  0  0  0  0  0
  139.7120   69.3590  224.8990 C   0  0  0  0  0  0  0  0  0  0  0  0
  139.2010   69.1870  223.4850 C   0  0  0  0  0  0  0  0  0  0  0  0
  138.1223   69.4014  223.4672 H   0  0  0  0  0  0  0  0  0  0  0  0
  139.4024   68.1522  223.1711 H   0  0  0  0  0  0  0  0  0  0  0  0
  139.9090   70.1270  222.5100 C   0  0  0  0  0  0  0  0  0  0  0  0
  139.3683   70.1420  221.5522 H   0  0  0  0  0  0  0  0  0  0  0  0
  140.9378   69.7789  222.3354 H   0  0  0  0  0  0  0  0  0  0  0  0
  137.7800   72.3640  222.3380 N   0  0  0  0  0  0  0  0  0  0  0  0
  137.3330   71.4420  222.5340 H   0  0  0  0  0  0  0  0  0  0  0  0
  137.0070   73.4070  221.9220 C   0  0  0  0  0  0  0  0  0  0  0  0
  135.7230   73.2400  221.7400 N   0  0  0  0  0  0  0  0  0  0  0  0
  135.3060   73.4380  220.8010 H   0  0  0  0  0  0  0  0  0  0  0  0
  134.8140   72.7440  222.7780 C   0  0  0  0  0  0  0  0  0  0  0  0
  135.1988   73.0446  223.7637 H   0  0  0  0  0  0  0  0  0  0  0  0
  133.8177   73.1744  222.5990 H   0  0  0  0  0  0  0  0  0  0  0  0
  134.6930   71.2150  222.7350 C   0  0  0  0  0  0  0  0  0  0  0  0
  133.9735   70.8866  223.4995 H   0  0  0  0  0  0  0  0  0  0  0  0
  134.3468   70.9121  221.7358 H   0  0  0  0  0  0  0  0  0  0  0  0
  136.0100   70.5850  223.0000 N   0  0  0  0  0  0  0  0  0  0  0  0
  136.2480   70.3350  224.4380 C   0  0  0  0  0  0  0  0  0  0  0  0
  137.3326   70.2725  224.6106 H   0  0  0  0  0  0  0  0  0  0  0  0
  135.7965   71.1650  225.0012 H   0  0  0  0  0  0  0  0  0  0  0  0
  135.5910   69.0220  224.9270 C   0  0  0  0  0  0  0  0  0  0  0  0
  136.3770   68.2743  225.1089 H   0  0  0  0  0  0  0  0  0  0  0  0
  135.0352   69.2356  225.8519 H   0  0  0  0  0  0  0  0  0  0  0  0
  134.6840   68.5130  223.9690 O   0  0  0  0  0  0  0  0  0  0  0  0
  135.3790   68.1660  222.7880 C   0  0  0  0  0  0  0  0  0  0  0  0
  136.0552   67.3272  223.0097 H   0  0  0  0  0  0  0  0  0  0  0  0
  134.6324   67.8922  222.0279 H   0  0  0  0  0  0  0  0  0  0  0  0
  136.2150   69.3440  222.2260 C   0  0  0  0  0  0  0  0  0  0  0  0
  137.2805   69.0735  222.2639 H   0  0  0  0  0  0  0  0  0  0  0  0
  135.8889   69.5300  221.1920 H   0  0  0  0  0  0  0  0  0  0  0  0
  137.5780   74.6270  221.7360 N   0  0  0  0  0  0  0  0  0  0  0  0
  140.2170   76.4380  220.5270 C   0  0  0  0  0  0  0  0  0  0  0  0
  139.5949   77.0917  219.8979 H   0  0  0  0  0  0  0  0  0  0  0  0
  140.4401   75.5079  219.9837 H   0  0  0  0  0  0  0  0  0  0  0  0
  141.5200   77.1510  220.8660 C   0  0  0  0  0  0  0  0  0  0  0  0
  141.9849   77.5119  219.9367 H   0  0  0  0  0  0  0  0  0  0  0  0
  142.1849   76.4406  221.3790 H   0  0  0  0  0  0  0  0  0  0  0  0
  1  2  1  0
  2  3  2  0
  3  4  1  0
  3  5  1  0
  5  6  1  0
  5  7  2  0
  7  8  1  0
  8  9  2  0
  9 10  1  0
  8 11  1  0
 11 12  1  0
 11 13  1  0
 11 14  1  0
 14 15  1  0
 15 16  1  0
 16 17  2  0
 17 18  1  0
 18 19  1  0
 19 20  1  0
 19 21  1  0
 19 22  1  0
 22 23  2  0
 23 24  1  0
 23 25  1  0
 25 26  1  0
 25 27  2  0
 27 28  1  0
 27 29  1  0
 29 30  1  0
 29 31  2  0
 31 32  1  0
 32 33  1  0
 32 34  1  0
 32 35  1  0
 35 36  1  0
 35 37  1  0
 17 38  1  0
 38 39  1  0
 38 40  1  0
 40 41  2  0
 41 42  1  0
 41 43  1  0
 43 44  1  0
 43 45  1  0
 43 46  1  0
 46 47  1  0
 46 48  1  0
 46 49  1  0
 49 50  1  0
 50 51  1  0
 50 52  1  0
 50 53  1  0
 53 54  1  0
 53 55  1  0
 53 56  1  0
 56 57  1  0
 57 58  1  0
 57 59  1  0
 57 60  1  0
 60 61  1  0
 60 62  1  0
 40 63  1  0
 14 64  1  0
 64 65  1  0
 64 66  1  0
 64 67  1  0
 67 68  1  0
 67 69  1  0
  9  2  1  0
 63 15  2  0
 67  7  1  0
 35 18  1  0
 60 49  1  0
 31 22  1  0
M  CHG  1  41   1
M  END
>  <UniqueID>  (57) 
284

>  <SMILES>  (57) 
c1ccc2c(c1)CCN(c1nc(N3CCc4ccccc4C3)[nH]/c(=[NH+]/CCN3CCOCC3)n1)C2

>  <Energy>  (57) 
93.46906350042954

>  <Genealogy>  (57) 
c1ccc2c(c1)CCN(c1nc([NH2+]CCN3CCOCC3)nc(N3CCc4ccccc4C3)n1)C2 (protonated)
c1ccc2c(c1)CCN(c1nc(N3CCc4ccccc4C3)[nH]c(=[NH+]CCN3CCOCC3)n1)C2 (tautomer)
c1ccc2c(c1)CCN(c1nc(N3CCc4ccccc4C3)[nH]/c(=[NH+]/CCN3CCOCC3)n1)C2 (cis-trans isomerization)
c1ccc2c(c1)CCN(c1nc(N3CCc4ccccc4C3)[nH]/c(=[NH+]/CCN3CCOCC3)n1)C2 (3D coordinates assigned)
c1ccc2c(c1)CCN(c1nc(N3CCc4ccccc4C3)[nH]/c(=[NH+]/CCN3CCOCC3)n1)C2 (nonaromatic ring conformer: 93.46906350042954 kcal/mol)

>  <smiles>  (57) 
c1ccc2c(c1)CCN(c1nc(NCCN3CCOCC3)nc(N3CCc4ccccc4C3)n1)C2

>  <score_type>  (57) 
oracle

>  <origin>  (57) 
autodockgpu

>  <m_score__min__energy>  (57) 
-9.3100000000000005

>  <m_primary>  (57) 
energy

>  <meeko>  (57) 
{"free_energy": -8.21, "intermolecular_energy": -10.0, "internal_energy": -1.98, "cluster_size": 7, "cluster_id": 2, "rank_in_cluster": 3}

>  <energy>  (57) 
-8.19

>  <cluster_rmsd>  (57) 
0.1

>  <rmsd>  (57) 
268.97

>  <cluster>  (57) 
2

$$$$
XKJAOWLAVYPRNA-DMHZYSPMNA-O
     RDKit          3D

 69 74  0  0  0  0  0  0  0  0999 V2000
  140.6208   70.5783  228.6532 H   0  0  0  0  0  0  0  0  0  0  0  0
  140.2210   70.4250  227.6400 C   0  0  0  0  0  0  0  0  0  0  0  0
  139.2580   69.4410  227.4120 C   0  0  0  0  0  0  0  0  0  0  0  0
  138.9017   68.8175  228.2452 H   0  0  0  0  0  0  0  0  0  0  0  0
  138.7460   69.2470  226.1270 C   0  0  0  0  0  0  0  0  0  0  0  0
  137.9763   68.4801  225.9556 H   0  0  0  0  0  0  0  0  0  0  0  0
  139.2070   70.0240  225.0530 C   0  0  0  0  0  0  0  0  0  0  0  0
  140.1720   71.0310  225.2850 C   0  0  0  0  0  0  0  0  0  0  0  0
  140.6780   71.2160  226.5820 C   0  0  0  0  0  0  0  0  0  0  0  0
  141.4390   71.9885  226.7665 H   0  0  0  0  0  0  0  0  0  0  0  0
  140.7040   71.8990  224.1650 C   0  0  0  0  0  0  0  0  0  0  0  0
  141.7831   71.7143  224.0586 H   0  0  0  0  0  0  0  0  0  0  0  0
  140.4951   72.9465  224.4280 H   0  0  0  0  0  0  0  0  0  0  0  0
  140.0500   71.6250  222.8760 N   0  0  0  0  0  0  0  0  0  0  0  0
  140.1080   72.6130  221.8260 C   0  0  0  0  0  0  0  0  0  0  0  0
  139.8210   73.9140  222.0860 N   0  0  0  0  0  0  0  0  0  0  0  0
  139.8890   74.8530  221.1090 C   0  0  0  0  0  0  0  0  0  0  0  0
  139.6450   76.2360  221.4360 N   0  0  0  0  0  0  0  0  0  0  0  0
  140.0940   76.7880  222.7190 C   0  0  0  0  0  0  0  0  0  0  0  0
  140.6915   76.0311  223.2483 H   0  0  0  0  0  0  0  0  0  0  0  0
  139.2105   77.0621  223.3143 H   0  0  0  0  0  0  0  0  0  0  0  0
  140.9370   78.0240  222.5040 C   0  0  0  0  0  0  0  0  0  0  0  0
  141.6690   78.5460  223.5820 C   0  0  0  0  0  0  0  0  0  0  0  0
  141.6323   78.0462  224.5612 H   0  0  0  0  0  0  0  0  0  0  0  0
  142.4440   79.6970  223.4180 C   0  0  0  0  0  0  0  0  0  0  0  0
  143.0159   80.0984  224.2676 H   0  0  0  0  0  0  0  0  0  0  0  0
  142.4950   80.3390  222.1800 C   0  0  0  0  0  0  0  0  0  0  0  0
  143.1138   81.2396  222.0535 H   0  0  0  0  0  0  0  0  0  0  0  0
  141.7620   79.8400  221.1020 C   0  0  0  0  0  0  0  0  0  0  0  0
  141.8110   80.3466  220.1269 H   0  0  0  0  0  0  0  0  0  0  0  0
  140.9620   78.6950  221.2540 C   0  0  0  0  0  0  0  0  0  0  0  0
  140.2210   78.1530  220.0510 C   0  0  0  0  0  0  0  0  0  0  0  0
  140.9335   77.6212  219.4032 H   0  0  0  0  0  0  0  0  0  0  0  0
  139.7624   79.0003  219.5202 H   0  0  0  0  0  0  0  0  0  0  0  0
  139.1090   77.1890  220.4600 C   0  0  0  0  0  0  0  0  0  0  0  0
  138.7459   76.6465  219.5746 H   0  0  0  0  0  0  0  0  0  0  0  0
  138.2736   77.7494  220.9050 H   0  0  0  0  0  0  0  0  0  0  0  0
  140.2500   74.4810  219.8480 N   0  0  0  0  0  0  0  0  0  0  0  0
  140.3570   75.1990  219.0980 H   0  0  0  0  0  0  0  0  0  0  0  0
  140.5490   73.1790  219.5740 C   0  0  0  0  0  0  0  0  0  0  0  0
  140.9350   72.8330  218.3730 N   0  0  0  0  0  0  0  0  0  0  0  0
  140.2170   72.5790  217.6560 H   0  0  0  0  0  0  0  0  0  0  0  0
  142.3360   72.8160  217.9440 C   0  0  0  0  0  0  0  0  0  0  0  0
  142.7138   71.7843  217.9975 H   0  0  0  0  0  0  0  0  0  0  0  0
  142.3864   73.1982  216.9138 H   0  0  0  0  0  0  0  0  0  0  0  0
  143.2070   73.7130  218.8340 C   0  0  0  0  0  0  0  0  0  0  0  0
  144.1369   73.9595  218.3006 H   0  0  0  0  0  0  0  0  0  0  0  0
  142.6503   74.6325  219.0676 H   0  0  0  0  0  0  0  0  0  0  0  0
  143.5400   73.0170  220.1010 N   0  0  0  0  0  0  0  0  0  0  0  0
  143.8760   71.5900  219.9000 C   0  0  0  0  0  0  0  0  0  0  0  0
  143.7043   71.0508  220.8433 H   0  0  0  0  0  0  0  0  0  0  0  0
  143.2352   71.2061  219.0925 H   0  0  0  0  0  0  0  0  0  0  0  0
  145.3480   71.3830  219.4710 C   0  0  0  0  0  0  0  0  0  0  0  0
  145.9090   70.9509  220.3127 H   0  0  0  0  0  0  0  0  0  0  0  0
  145.3646   70.7067  218.6036 H   0  0  0  0  0  0  0  0  0  0  0  0
  145.9510   72.6050  219.0950 O   0  0  0  0  0  0  0  0  0  0  0  0
  146.0060   73.4750  220.2070 C   0  0  0  0  0  0  0  0  0  0  0  0
  146.6844   73.0452  220.9587 H   0  0  0  0  0  0  0  0  0  0  0  0
  146.3657   74.4518  219.8515 H   0  0  0  0  0  0  0  0  0  0  0  0
  144.6150   73.6910  220.8570 C   0  0  0  0  0  0  0  0  0  0  0  0
  144.6351   73.2888  221.8806 H   0  0  0  0  0  0  0  0  0  0  0  0
  144.4043   74.7706  220.8575 H   0  0  0  0  0  0  0  0  0  0  0  0
  140.4780   72.2560  220.5690 N   0  0  0  0  0  0  0  0  0  0  0  0
  139.5730   70.2660  222.5960 C   0  0  0  0  0  0  0  0  0  0  0  0
  140.4291   69.5758  222.5685 H   0  0  0  0  0  0  0  0  0  0  0  0
  139.0580   70.2522  221.6241 H   0  0  0  0  0  0  0  0  0  0  0  0
  138.6050   69.8300  223.6880 C   0  0  0  0  0  0  0  0  0  0  0  0
  138.3629   68.7659  223.5499 H   0  0  0  0  0  0  0  0  0  0  0  0
  137.6960   70.4453  223.6159 H   0  0  0  0  0  0  0  0  0  0  0  0
  1  2  1  0
  2  3  2  0
  3  4  1  0
  3  5  1  0
  5  6  1  0
  5  7  2  0
  7  8  1  0
  8  9  2  0
  9 10  1  0
  8 11  1  0
 11 12  1  0
 11 13  1  0
 11 14  1  0
 14 15  1  0
 15 16  1  0
 16 17  2  0
 17 18  1  0
 18 19  1  0
 19 20  1  0
 19 21  1  0
 19 22  1  0
 22 23  2  0
 23 24  1  0
 23 25  1  0
 25 26  1  0
 25 27  2  0
 27 28  1  0
 27 29  1  0
 29 30  1  0
 29 31  2  0
 31 32  1  0
 32 33  1  0
 32 34  1  0
 32 35  1  0
 35 36  1  0
 35 37  1  0
 17 38  1  0
 38 39  1  0
 38 40  1  0
 40 41  2  0
 41 42  1  0
 41 43  1  0
 43 44  1  0
 43 45  1  0
 43 46  1  0
 46 47  1  0
 46 48  1  0
 46 49  1  0
 49 50  1  0
 50 51  1  0
 50 52  1  0
 50 53  1  0
 53 54  1  0
 53 55  1  0
 53 56  1  0
 56 57  1  0
 57 58  1  0
 57 59  1  0
 57 60  1  0
 60 61  1  0
 60 62  1  0
 40 63  1  0
 14 64  1  0
 64 65  1  0
 64 66  1  0
 64 67  1  0
 67 68  1  0
 67 69  1  0
  9  2  1  0
 63 15  2  0
 67  7  1  0
 35 18  1  0
 60 49  1  0
 31 22  1  0
M  CHG  1  41   1
M  END
>  <UniqueID>  (58) 
284

>  <SMILES>  (58) 
c1ccc2c(c1)CCN(c1nc(N3CCc4ccccc4C3)[nH]/c(=[NH+]/CCN3CCOCC3)n1)C2

>  <Energy>  (58) 
93.46906350042954

>  <Genealogy>  (58) 
c1ccc2c(c1)CCN(c1nc([NH2+]CCN3CCOCC3)nc(N3CCc4ccccc4C3)n1)C2 (protonated)
c1ccc2c(c1)CCN(c1nc(N3CCc4ccccc4C3)[nH]c(=[NH+]CCN3CCOCC3)n1)C2 (tautomer)
c1ccc2c(c1)CCN(c1nc(N3CCc4ccccc4C3)[nH]/c(=[NH+]/CCN3CCOCC3)n1)C2 (cis-trans isomerization)
c1ccc2c(c1)CCN(c1nc(N3CCc4ccccc4C3)[nH]/c(=[NH+]/CCN3CCOCC3)n1)C2 (3D coordinates assigned)
c1ccc2c(c1)CCN(c1nc(N3CCc4ccccc4C3)[nH]/c(=[NH+]/CCN3CCOCC3)n1)C2 (nonaromatic ring conformer: 93.46906350042954 kcal/mol)

>  <smiles>  (58) 
c1ccc2c(c1)CCN(c1nc(NCCN3CCOCC3)nc(N3CCc4ccccc4C3)n1)C2

>  <score_type>  (58) 
oracle

>  <origin>  (58) 
autodockgpu

>  <m_score__min__energy>  (58) 
-9.3100000000000005

>  <m_primary>  (58) 
energy

>  <meeko>  (58) 
{"free_energy": -9.19, "intermolecular_energy": -10.98, "internal_energy": -1.03, "cluster_size": 11, "cluster_id": 1, "rank_in_cluster": 6}

>  <energy>  (58) 
-8.12

>  <cluster_rmsd>  (58) 
0.36

>  <rmsd>  (58) 
268.98

>  <cluster>  (58) 
2

$$$$
XKJAOWLAVYPRNA-DMHZYSPMNA-O
     RDKit          3D

 69 74  0  0  0  0  0  0  0  0999 V2000
  139.0246   66.2729  226.7129 H   0  0  0  0  0  0  0  0  0  0  0  0
  139.5120   67.2510  226.5870 C   0  0  0  0  0  0  0  0  0  0  0  0
  140.3690   67.7350  227.5760 C   0  0  0  0  0  0  0  0  0  0  0  0
  140.5539   67.1394  228.4822 H   0  0  0  0  0  0  0  0  0  0  0  0
  140.9920   68.9740  227.4170 C   0  0  0  0  0  0  0  0  0  0  0  0
  141.6784   69.3435  228.1931 H   0  0  0  0  0  0  0  0  0  0  0  0
  140.7490   69.7520  226.2740 C   0  0  0  0  0  0  0  0  0  0  0  0
  139.8930   69.2570  225.2640 C   0  0  0  0  0  0  0  0  0  0  0  0
  139.2720   68.0080  225.4360 C   0  0  0  0  0  0  0  0  0  0  0  0
  138.5931   67.6236  224.6606 H   0  0  0  0  0  0  0  0  0  0  0  0
  139.5950   70.0510  224.0110 C   0  0  0  0  0  0  0  0  0  0  0  0
  138.5196   70.2811  223.9875 H   0  0  0  0  0  0  0  0  0  0  0  0
  139.8985   69.4386  223.1491 H   0  0  0  0  0  0  0  0  0  0  0  0
  140.3480   71.3130  223.9470 N   0  0  0  0  0  0  0  0  0  0  0  0
  140.5250   71.9710  222.6760 C   0  0  0  0  0  0  0  0  0  0  0  0
  140.1040   73.2480  222.4960 N   0  0  0  0  0  0  0  0  0  0  0  0
  140.2800   73.8820  221.3080 C   0  0  0  0  0  0  0  0  0  0  0  0
  139.8830   75.2620  221.1740 N   0  0  0  0  0  0  0  0  0  0  0  0
  139.8930   76.1550  222.3380 C   0  0  0  0  0  0  0  0  0  0  0  0
  140.3364   75.6265  223.1947 H   0  0  0  0  0  0  0  0  0  0  0  0
  138.8582   76.4506  222.5657 H   0  0  0  0  0  0  0  0  0  0  0  0
  140.7020   77.4000  222.0500 C   0  0  0  0  0  0  0  0  0  0  0  0
  141.0440   78.2500  223.1130 C   0  0  0  0  0  0  0  0  0  0  0  0
  140.7337   77.9973  224.1376 H   0  0  0  0  0  0  0  0  0  0  0  0
  141.7770   79.4160  222.8760 C   0  0  0  0  0  0  0  0  0  0  0  0
  142.0426   80.0765  223.7145 H   0  0  0  0  0  0  0  0  0  0  0  0
  142.1730   79.7450  221.5790 C   0  0  0  0  0  0  0  0  0  0  0  0
  142.7580   80.6590  221.3989 H   0  0  0  0  0  0  0  0  0  0  0  0
  141.8280   78.9160  220.5090 C   0  0  0  0  0  0  0  0  0  0  0  0
  142.1478   79.1776  219.4895 H   0  0  0  0  0  0  0  0  0  0  0  0
  141.0750   77.7500  220.7270 C   0  0  0  0  0  0  0  0  0  0  0  0
  140.7630   76.8490  219.5520 C   0  0  0  0  0  0  0  0  0  0  0  0
  141.6636   76.2713  219.2966 H   0  0  0  0  0  0  0  0  0  0  0  0
  140.4484   77.4812  218.7086 H   0  0  0  0  0  0  0  0  0  0  0  0
  139.6260   75.8790  219.8710 C   0  0  0  0  0  0  0  0  0  0  0  0
  139.5767   75.0997  219.0963 H   0  0  0  0  0  0  0  0  0  0  0  0
  138.6690   76.4207  219.8965 H   0  0  0  0  0  0  0  0  0  0  0  0
  140.8890   73.2220  220.2820 N   0  0  0  0  0  0  0  0  0  0  0  0
  141.0790   73.7120  219.3810 H   0  0  0  0  0  0  0  0  0  0  0  0
  141.3250   71.9410  220.4510 C   0  0  0  0  0  0  0  0  0  0  0  0
  141.9450   71.3250  219.4790 N   0  0  0  0  0  0  0  0  0  0  0  0
  141.3900   70.7920  218.7710 H   0  0  0  0  0  0  0  0  0  0  0  0
  143.3990   71.3670  219.2880 C   0  0  0  0  0  0  0  0  0  0  0  0
  143.7897   70.3387  219.2891 H   0  0  0  0  0  0  0  0  0  0  0  0
  143.6073   71.8635  218.3288 H   0  0  0  0  0  0  0  0  0  0  0  0
  144.0890   72.1640  220.4030 C   0  0  0  0  0  0  0  0  0  0  0  0
  143.3276   72.6932  220.9949 H   0  0  0  0  0  0  0  0  0  0  0  0
  144.6499   71.4684  221.0445 H   0  0  0  0  0  0  0  0  0  0  0  0
  145.0320   73.1520  219.8240 N   0  0  0  0  0  0  0  0  0  0  0  0
  144.8800   73.3010  218.3600 C   0  0  0  0  0  0  0  0  0  0  0  0
  145.8211   73.6914  217.9453 H   0  0  0  0  0  0  0  0  0  0  0  0
  144.6362   72.3113  217.9463 H   0  0  0  0  0  0  0  0  0  0  0  0
  143.7320   74.2660  217.9800 C   0  0  0  0  0  0  0  0  0  0  0  0
  144.1635   75.2023  217.5964 H   0  0  0  0  0  0  0  0  0  0  0  0
  143.1104   73.7804  217.2133 H   0  0  0  0  0  0  0  0  0  0  0  0
  142.9150   74.5590  219.0960 O   0  0  0  0  0  0  0  0  0  0  0  0
  143.6690   75.2450  220.0750 C   0  0  0  0  0  0  0  0  0  0  0  0
  143.9608   76.2264  219.6729 H   0  0  0  0  0  0  0  0  0  0  0  0
  143.0405   75.3484  220.9718 H   0  0  0  0  0  0  0  0  0  0  0  0
  144.9500   74.4720  220.4810 C   0  0  0  0  0  0  0  0  0  0  0  0
  145.8296   75.0668  220.1937 H   0  0  0  0  0  0  0  0  0  0  0  0
  144.9176   74.3086  221.5683 H   0  0  0  0  0  0  0  0  0  0  0  0
  141.1410   71.3280  221.6510 N   0  0  0  0  0  0  0  0  0  0  0  0
  140.6870   72.0020  225.1970 C   0  0  0  0  0  0  0  0  0  0  0  0
  139.7626   72.3151  225.7044 H   0  0  0  0  0  0  0  0  0  0  0  0
  141.3014   72.8860  224.9712 H   0  0  0  0  0  0  0  0  0  0  0  0
  141.4690   71.0620  226.1040 C   0  0  0  0  0  0  0  0  0  0  0  0
  141.5935   71.5343  227.0896 H   0  0  0  0  0  0  0  0  0  0  0  0
  142.4485   70.8658  225.6435 H   0  0  0  0  0  0  0  0  0  0  0  0
  1  2  1  0
  2  3  2  0
  3  4  1  0
  3  5  1  0
  5  6  1  0
  5  7  2  0
  7  8  1  0
  8  9  2  0
  9 10  1  0
  8 11  1  0
 11 12  1  0
 11 13  1  0
 11 14  1  0
 14 15  1  0
 15 16  1  0
 16 17  2  0
 17 18  1  0
 18 19  1  0
 19 20  1  0
 19 21  1  0
 19 22  1  0
 22 23  2  0
 23 24  1  0
 23 25  1  0
 25 26  1  0
 25 27  2  0
 27 28  1  0
 27 29  1  0
 29 30  1  0
 29 31  2  0
 31 32  1  0
 32 33  1  0
 32 34  1  0
 32 35  1  0
 35 36  1  0
 35 37  1  0
 17 38  1  0
 38 39  1  0
 38 40  1  0
 40 41  2  0
 41 42  1  0
 41 43  1  0
 43 44  1  0
 43 45  1  0
 43 46  1  0
 46 47  1  0
 46 48  1  0
 46 49  1  0
 49 50  1  0
 50 51  1  0
 50 52  1  0
 50 53  1  0
 53 54  1  0
 53 55  1  0
 53 56  1  0
 56 57  1  0
 57 58  1  0
 57 59  1  0
 57 60  1  0
 60 61  1  0
 60 62  1  0
 40 63  1  0
 14 64  1  0
 64 65  1  0
 64 66  1  0
 64 67  1  0
 67 68  1  0
 67 69  1  0
  9  2  1  0
 63 15  2  0
 67  7  1  0
 35 18  1  0
 60 49  1  0
 31 22  1  0
M  CHG  1  41   1
M  END
>  <UniqueID>  (59) 
284

>  <SMILES>  (59) 
c1ccc2c(c1)CCN(c1nc(N3CCc4ccccc4C3)[nH]/c(=[NH+]/CCN3CCOCC3)n1)C2

>  <Energy>  (59) 
93.46906350042954

>  <Genealogy>  (59) 
c1ccc2c(c1)CCN(c1nc([NH2+]CCN3CCOCC3)nc(N3CCc4ccccc4C3)n1)C2 (protonated)
c1ccc2c(c1)CCN(c1nc(N3CCc4ccccc4C3)[nH]c(=[NH+]CCN3CCOCC3)n1)C2 (tautomer)
c1ccc2c(c1)CCN(c1nc(N3CCc4ccccc4C3)[nH]/c(=[NH+]/CCN3CCOCC3)n1)C2 (cis-trans isomerization)
c1ccc2c(c1)CCN(c1nc(N3CCc4ccccc4C3)[nH]/c(=[NH+]/CCN3CCOCC3)n1)C2 (3D coordinates assigned)
c1ccc2c(c1)CCN(c1nc(N3CCc4ccccc4C3)[nH]/c(=[NH+]/CCN3CCOCC3)n1)C2 (nonaromatic ring conformer: 93.46906350042954 kcal/mol)

>  <smiles>  (59) 
c1ccc2c(c1)CCN(c1nc(NCCN3CCOCC3)nc(N3CCc4ccccc4C3)n1)C2

>  <score_type>  (59) 
oracle

>  <origin>  (59) 
autodockgpu

>  <m_score__min__energy>  (59) 
-9.3100000000000005

>  <m_primary>  (59) 
energy

>  <meeko>  (59) 
{"free_energy": -8.34, "intermolecular_energy": -10.13, "internal_energy": -2.2, "cluster_size": 11, "cluster_id": 1, "rank_in_cluster": 8}

>  <energy>  (59) 
-7.76

>  <cluster_rmsd>  (59) 
0.0

>  <rmsd>  (59) 
269.16

>  <cluster>  (59) 
3

$$$$
XKJAOWLAVYPRNA-DMHZYSPMNA-O
     RDKit          3D

 69 74  0  0  0  0  0  0  0  0999 V2000
  140.7798   69.4230  227.7684 H   0  0  0  0  0  0  0  0  0  0  0  0
  140.3850   69.5060  226.7450 C   0  0  0  0  0  0  0  0  0  0  0  0
  139.5150   68.5330  226.2520 C   0  0  0  0  0  0  0  0  0  0  0  0
  139.2257   67.6826  226.8869 H   0  0  0  0  0  0  0  0  0  0  0  0
  139.0110   68.6370  224.9540 C   0  0  0  0  0  0  0  0  0  0  0  0
  138.3150   67.8738  224.5756 H   0  0  0  0  0  0  0  0  0  0  0  0
  139.3860   69.7080  224.1290 C   0  0  0  0  0  0  0  0  0  0  0  0
  140.2550   70.7030  224.6320 C   0  0  0  0  0  0  0  0  0  0  0  0
  140.7550   70.5860  225.9390 C   0  0  0  0  0  0  0  0  0  0  0  0
  141.4427   71.3498  226.3311 H   0  0  0  0  0  0  0  0  0  0  0  0
  140.6930   71.8810  223.7880 C   0  0  0  0  0  0  0  0  0  0  0  0
  141.7836   71.8318  223.6536 H   0  0  0  0  0  0  0  0  0  0  0  0
  140.3897   72.7984  224.3138 H   0  0  0  0  0  0  0  0  0  0  0  0
  140.0550   71.8960  222.4620 N   0  0  0  0  0  0  0  0  0  0  0  0
  140.0110   73.1260  221.7100 C   0  0  0  0  0  0  0  0  0  0  0  0
  139.9050   74.3200  222.3460 N   0  0  0  0  0  0  0  0  0  0  0  0
  139.8790   75.4840  221.6480 C   0  0  0  0  0  0  0  0  0  0  0  0
  139.8360   76.7380  222.3590 N   0  0  0  0  0  0  0  0  0  0  0  0
  141.0470   77.2770  222.9900 C   0  0  0  0  0  0  0  0  0  0  0  0
  141.9064   76.6456  222.7203 H   0  0  0  0  0  0  0  0  0  0  0  0
  140.9052   77.2824  224.0808 H   0  0  0  0  0  0  0  0  0  0  0  0
  141.3060   78.6930  222.5260 C   0  0  0  0  0  0  0  0  0  0  0  0
  142.5450   79.2870  222.8120 C   0  0  0  0  0  0  0  0  0  0  0  0
  143.3133   78.7166  223.3545 H   0  0  0  0  0  0  0  0  0  0  0  0
  142.8070   80.5990  222.4110 C   0  0  0  0  0  0  0  0  0  0  0  0
  143.7816   81.0565  222.6366 H   0  0  0  0  0  0  0  0  0  0  0  0
  141.8370   81.3320  221.7250 C   0  0  0  0  0  0  0  0  0  0  0  0
  142.0515   82.3622  221.4047 H   0  0  0  0  0  0  0  0  0  0  0  0
  140.5950   80.7590  221.4450 C   0  0  0  0  0  0  0  0  0  0  0  0
  139.8368   81.3387  220.8981 H   0  0  0  0  0  0  0  0  0  0  0  0
  140.3070   79.4470  221.8570 C   0  0  0  0  0  0  0  0  0  0  0  0
  138.9690   78.8410  221.4930 C   0  0  0  0  0  0  0  0  0  0  0  0
  138.9863   78.5493  220.4325 H   0  0  0  0  0  0  0  0  0  0  0  0
  138.1889   79.5931  221.6820 H   0  0  0  0  0  0  0  0  0  0  0  0
  138.6580   77.6080  222.3410 C   0  0  0  0  0  0  0  0  0  0  0  0
  137.8049   77.0662  221.9067 H   0  0  0  0  0  0  0  0  0  0  0  0
  138.4039   77.9142  223.3665 H   0  0  0  0  0  0  0  0  0  0  0  0
  139.9590   75.4490  220.2870 N   0  0  0  0  0  0  0  0  0  0  0  0
  139.9920   76.3370  219.7390 H   0  0  0  0  0  0  0  0  0  0  0  0
  140.0730   74.2570  219.6350 C   0  0  0  0  0  0  0  0  0  0  0  0
  140.1910   74.2300  218.3330 N   0  0  0  0  0  0  0  0  0  0  0  0
  139.3880   73.8950  217.7510 H   0  0  0  0  0  0  0  0  0  0  0  0
  141.3850   74.6860  217.6160 C   0  0  0  0  0  0  0  0  0  0  0  0
  142.2566   74.5989  218.2813 H   0  0  0  0  0  0  0  0  0  0  0  0
  141.5114   74.0585  216.7214 H   0  0  0  0  0  0  0  0  0  0  0  0
  141.2460   76.1450  217.1650 C   0  0  0  0  0  0  0  0  0  0  0  0
  140.9572   76.1703  216.1039 H   0  0  0  0  0  0  0  0  0  0  0  0
  140.4762   76.6360  217.7785 H   0  0  0  0  0  0  0  0  0  0  0  0
  142.5320   76.8660  217.3390 N   0  0  0  0  0  0  0  0  0  0  0  0
  142.3580   78.3310  217.4480 C   0  0  0  0  0  0  0  0  0  0  0  0
  143.3001   78.8205  217.1603 H   0  0  0  0  0  0  0  0  0  0  0  0
  141.5321   78.6201  216.7814 H   0  0  0  0  0  0  0  0  0  0  0  0
  141.9840   78.7780  218.8810 C   0  0  0  0  0  0  0  0  0  0  0  0
  142.8497   79.2807  219.3370 H   0  0  0  0  0  0  0  0  0  0  0  0
  141.1251   79.4624  218.8182 H   0  0  0  0  0  0  0  0  0  0  0  0
  141.6170   77.6740  219.6840 O   0  0  0  0  0  0  0  0  0  0  0  0
  142.7210   76.8060  219.8410 C   0  0  0  0  0  0  0  0  0  0  0  0
  143.5007   77.3265  220.4165 H   0  0  0  0  0  0  0  0  0  0  0  0
  142.3680   75.9051  220.3643 H   0  0  0  0  0  0  0  0  0  0  0  0
  143.3190   76.3600  218.4820 C   0  0  0  0  0  0  0  0  0  0  0  0
  144.3469   76.7437  218.4032 H   0  0  0  0  0  0  0  0  0  0  0  0
  143.3011   75.2607  218.4470 H   0  0  0  0  0  0  0  0  0  0  0  0
  140.1010   73.1040  220.3550 N   0  0  0  0  0  0  0  0  0  0  0  0
  139.7040   70.6200  221.8280 C   0  0  0  0  0  0  0  0  0  0  0  0
  140.6205   70.0438  221.6330 H   0  0  0  0  0  0  0  0  0  0  0  0
  139.1825   70.8149  220.8793 H   0  0  0  0  0  0  0  0  0  0  0  0
  138.7920   69.8240  222.7520 C   0  0  0  0  0  0  0  0  0  0  0  0
  138.6500   68.8158  222.3357 H   0  0  0  0  0  0  0  0  0  0  0  0
  137.8284   70.3489  222.8297 H   0  0  0  0  0  0  0  0  0  0  0  0
  1  2  1  0
  2  3  2  0
  3  4  1  0
  3  5  1  0
  5  6  1  0
  5  7  2  0
  7  8  1  0
  8  9  2  0
  9 10  1  0
  8 11  1  0
 11 12  1  0
 11 13  1  0
 11 14  1  0
 14 15  1  0
 15 16  1  0
 16 17  2  0
 17 18  1  0
 18 19  1  0
 19 20  1  0
 19 21  1  0
 19 22  1  0
 22 23  2  0
 23 24  1  0
 23 25  1  0
 25 26  1  0
 25 27  2  0
 27 28  1  0
 27 29  1  0
 29 30  1  0
 29 31  2  0
 31 32  1  0
 32 33  1  0
 32 34  1  0
 32 35  1  0
 35 36  1  0
 35 37  1  0
 17 38  1  0
 38 39  1  0
 38 40  1  0
 40 41  2  0
 41 42  1  0
 41 43  1  0
 43 44  1  0
 43 45  1  0
 43 46  1  0
 46 47  1  0
 46 48  1  0
 46 49  1  0
 49 50  1  0
 50 51  1  0
 50 52  1  0
 50 53  1  0
 53 54  1  0
 53 55  1  0
 53 56  1  0
 56 57  1  0
 57 58  1  0
 57 59  1  0
 57 60  1  0
 60 61  1  0
 60 62  1  0
 40 63  1  0
 14 64  1  0
 64 65  1  0
 64 66  1  0
 64 67  1  0
 67 68  1  0
 67 69  1  0
  9  2  1  0
 63 15  2  0
 67  7  1  0
 35 18  1  0
 60 49  1  0
 31 22  1  0
M  CHG  1  41   1
M  END
>  <UniqueID>  (60) 
284

>  <SMILES>  (60) 
c1ccc2c(c1)CCN(c1nc(N3CCc4ccccc4C3)[nH]/c(=[NH+]/CCN3CCOCC3)n1)C2

>  <Energy>  (60) 
93.46906350042954

>  <Genealogy>  (60) 
c1ccc2c(c1)CCN(c1nc([NH2+]CCN3CCOCC3)nc(N3CCc4ccccc4C3)n1)C2 (protonated)
c1ccc2c(c1)CCN(c1nc(N3CCc4ccccc4C3)[nH]c(=[NH+]CCN3CCOCC3)n1)C2 (tautomer)
c1ccc2c(c1)CCN(c1nc(N3CCc4ccccc4C3)[nH]/c(=[NH+]/CCN3CCOCC3)n1)C2 (cis-trans isomerization)
c1ccc2c(c1)CCN(c1nc(N3CCc4ccccc4C3)[nH]/c(=[NH+]/CCN3CCOCC3)n1)C2 (3D coordinates assigned)
c1ccc2c(c1)CCN(c1nc(N3CCc4ccccc4C3)[nH]/c(=[NH+]/CCN3CCOCC3)n1)C2 (nonaromatic ring conformer: 93.46906350042954 kcal/mol)

>  <smiles>  (60) 
c1ccc2c(c1)CCN(c1nc(NCCN3CCOCC3)nc(N3CCc4ccccc4C3)n1)C2

>  <score_type>  (60) 
oracle

>  <origin>  (60) 
autodockgpu

>  <m_score__min__energy>  (60) 
-9.3100000000000005

>  <m_primary>  (60) 
energy

>  <meeko>  (60) 
{"free_energy": -7.76, "intermolecular_energy": -9.55, "internal_energy": -2.38, "cluster_size": 2, "cluster_id": 3, "rank_in_cluster": 1}

>  <energy>  (60) 
-7.56

>  <cluster_rmsd>  (60) 
0.81

>  <rmsd>  (60) 
269.3

>  <cluster>  (60) 
3

$$$$
XKJAOWLAVYPRNA-HDZKEISTNA-P
     RDKit          3D

 70 75  0  0  0  0  0  0  0  0999 V2000
  140.0320   69.7890  227.9800 C   0  0  0  0  0  0  0  0  0  0  0  0
  141.0370   70.7510  227.8780 C   0  0  0  0  0  0  0  0  0  0  0  0
  141.2380   71.4290  226.6730 C   0  0  0  0  0  0  0  0  0  0  0  0
  140.4270   71.1580  225.5590 C   0  0  0  0  0  0  0  0  0  0  0  0
  139.4230   70.1650  225.6550 C   0  0  0  0  0  0  0  0  0  0  0  0
  139.2250   69.4990  226.8770 C   0  0  0  0  0  0  0  0  0  0  0  0
  138.4930   69.8730  224.5030 C   0  0  0  0  0  0  0  0  0  0  0  0
  139.1000   70.3010  223.1680 C   0  0  0  0  0  0  0  0  0  0  0  0
  139.6160   71.6680  223.2900 N   0  0  0  0  0  0  0  0  0  0  0  0
  139.1370   72.7350  222.4420 C   0  0  0  0  0  0  0  0  0  0  0  0
  137.9820   72.5910  221.7440 N   0  0  0  0  0  0  0  0  0  0  0  0
  137.5100   73.6020  220.9700 C   0  0  0  0  0  0  0  0  0  0  0  0
  136.2620   73.4540  220.2720 N   0  0  0  0  0  0  0  0  0  0  0  0
  135.1240   73.4620  221.2070 C   0  0  0  0  0  0  0  0  0  0  0  0
  135.2730   74.5610  222.2820 C   0  0  0  0  0  0  0  0  0  0  0  0
  135.7550   74.0880  223.6070 N   0  0  0  0  0  0  0  0  0  0  0  0
  135.8140   75.1450  224.6510 C   0  0  0  0  0  0  0  0  0  0  0  0
  134.5920   75.1460  225.5790 C   0  0  0  0  0  0  0  0  0  0  0  0
  134.3850   73.8610  226.1230 O   0  0  0  0  0  0  0  0  0  0  0  0
  134.0050   72.9870  225.0850 C   0  0  0  0  0  0  0  0  0  0  0  0
  135.1400   72.8100  224.0600 C   0  0  0  0  0  0  0  0  0  0  0  0
  138.2020   74.7680  220.8940 N   0  0  0  0  0  0  0  0  0  0  0  0
  139.3630   74.9260  221.5810 C   0  0  0  0  0  0  0  0  0  0  0  0
  140.0950   76.1670  221.5030 N   0  0  0  0  0  0  0  0  0  0  0  0
  140.0100   76.9780  220.2750 C   0  0  0  0  0  0  0  0  0  0  0  0
  141.2500   77.8550  220.0980 C   0  0  0  0  0  0  0  0  0  0  0  0
  141.4900   78.6570  221.3400 C   0  0  0  0  0  0  0  0  0  0  0  0
  141.9570   79.9790  221.2640 C   0  0  0  0  0  0  0  0  0  0  0  0
  142.1990   80.7050  222.4320 C   0  0  0  0  0  0  0  0  0  0  0  0
  141.9910   80.1130  223.6800 C   0  0  0  0  0  0  0  0  0  0  0  0
  141.5450   78.7910  223.7630 C   0  0  0  0  0  0  0  0  0  0  0  0
  141.2850   78.0580  222.5950 C   0  0  0  0  0  0  0  0  0  0  0  0
  140.8610   76.6130  222.6840 C   0  0  0  0  0  0  0  0  0  0  0  0
  139.8210   73.9060  222.3570 N   0  0  0  0  0  0  0  0  0  0  0  0
  140.6900   71.8980  224.2660 C   0  0  0  0  0  0  0  0  0  0  0  0
  139.8746   69.2579  228.9303 H   0  0  0  0  0  0  0  0  0  0  0  0
  141.6721   70.9761  228.7475 H   0  0  0  0  0  0  0  0  0  0  0  0
  142.0375   72.1807  226.5963 H   0  0  0  0  0  0  0  0  0  0  0  0
  138.4294   68.7445  226.9654 H   0  0  0  0  0  0  0  0  0  0  0  0
  138.2903   68.7923  224.4729 H   0  0  0  0  0  0  0  0  0  0  0  0
  137.5647   70.4426  224.6573 H   0  0  0  0  0  0  0  0  0  0  0  0
  139.9217   69.6198  222.9021 H   0  0  0  0  0  0  0  0  0  0  0  0
  138.3302   70.2649  222.3831 H   0  0  0  0  0  0  0  0  0  0  0  0
  136.2760   72.5380  219.7650 H   0  0  0  0  0  0  0  0  0  0  0  0
  136.1520   74.2150  219.5610 H   0  0  0  0  0  0  0  0  0  0  0  0
  134.1986   73.6415  220.6401 H   0  0  0  0  0  0  0  0  0  0  0  0
  135.0928   72.4874  221.7162 H   0  0  0  0  0  0  0  0  0  0  0  0
  135.9868   75.3093  221.9073 H   0  0  0  0  0  0  0  0  0  0  0  0
  134.2631   74.9634  222.4499 H   0  0  0  0  0  0  0  0  0  0  0  0
  136.7580   73.8440  223.4190 H   0  0  0  0  0  0  0  0  0  0  0  0
  136.7157   74.9848  225.2603 H   0  0  0  0  0  0  0  0  0  0  0  0
  135.8325   76.1154  224.1334 H   0  0  0  0  0  0  0  0  0  0  0  0
  134.7586   75.8629  226.3965 H   0  0  0  0  0  0  0  0  0  0  0  0
  133.7036   75.4342  224.9979 H   0  0  0  0  0  0  0  0  0  0  0  0
  133.7549   72.0062  225.5158 H   0  0  0  0  0  0  0  0  0  0  0  0
  133.1347   73.4183  224.5687 H   0  0  0  0  0  0  0  0  0  0  0  0
  135.9260   72.1918  224.5183 H   0  0  0  0  0  0  0  0  0  0  0  0
  134.6940   72.3401  223.1710 H   0  0  0  0  0  0  0  0  0  0  0  0
  139.9199   76.3066  219.4083 H   0  0  0  0  0  0  0  0  0  0  0  0
  139.1306   77.6341  220.3539 H   0  0  0  0  0  0  0  0  0  0  0  0
  142.1236   77.2159  219.9023 H   0  0  0  0  0  0  0  0  0  0  0  0
  141.0916   78.5387  219.2510 H   0  0  0  0  0  0  0  0  0  0  0  0
  142.1325   80.4436  220.2825 H   0  0  0  0  0  0  0  0  0  0  0  0
  142.5539   81.7443  222.3693 H   0  0  0  0  0  0  0  0  0  0  0  0
  142.1785   80.6881  224.5988 H   0  0  0  0  0  0  0  0  0  0  0  0
  141.3972   78.3234  224.7476 H   0  0  0  0  0  0  0  0  0  0  0  0
  141.7613   75.9877  222.7755 H   0  0  0  0  0  0  0  0  0  0  0  0
  140.2043   76.5142  223.5609 H   0  0  0  0  0  0  0  0  0  0  0  0
  141.6419   71.5478  223.8402 H   0  0  0  0  0  0  0  0  0  0  0  0
  140.7341   72.9749  224.4857 H   0  0  0  0  0  0  0  0  0  0  0  0
  1  2  2  0
  2  3  1  0
  3  4  2  0
  4  5  1  0
  5  6  2  0
  5  7  1  0
  7  8  1  0
  8  9  1  0
  9 10  1  0
 10 11  2  0
 11 12  1  0
 12 13  1  0
 13 14  1  0
 14 15  1  0
 15 16  1  0
 16 17  1  0
 17 18  1  0
 18 19  1  0
 19 20  1  0
 20 21  1  0
 12 22  2  0
 22 23  1  0
 23 24  1  0
 24 25  1  0
 25 26  1  0
 26 27  1  0
 27 28  2  0
 28 29  1  0
 29 30  2  0
 30 31  1  0
 31 32  2  0
 32 33  1  0
 23 34  2  0
  9 35  1  0
  6  1  1  0
 34 10  1  0
 35  4  1  0
 21 16  1  0
 33 24  1  0
 32 27  1  0
  1 36  1  0
  2 37  1  0
  3 38  1  0
  6 39  1  0
  7 40  1  0
  7 41  1  0
  8 42  1  0
  8 43  1  0
 13 44  1  0
 13 45  1  0
 14 46  1  0
 14 47  1  0
 15 48  1  0
 15 49  1  0
 16 50  1  0
 17 51  1  0
 17 52  1  0
 18 53  1  0
 18 54  1  0
 20 55  1  0
 20 56  1  0
 21 57  1  0
 21 58  1  0
 25 59  1  0
 25 60  1  0
 26 61  1  0
 26 62  1  0
 28 63  1  0
 29 64  1  0
 30 65  1  0
 31 66  1  0
 33 67  1  0
 33 68  1  0
 35 69  1  0
 35 70  1  0
M  CHG  2  13   1  16   1
M  END
>  <UniqueID>  (61) 
285

>  <SMILES>  (61) 
c1ccc2c(c1)CCN(c1nc([NH2+]CC[NH+]3CCOCC3)nc(N3CCc4ccccc4C3)n1)C2

>  <Energy>  (61) 
93.57553970320627

>  <Genealogy>  (61) 
c1ccc2c(c1)CCN(c1nc([NH2+]CC[NH+]3CCOCC3)nc(N3CCc4ccccc4C3)n1)C2 (protonated)
c1ccc2c(c1)CCN(c1nc([NH2+]CC[NH+]3CCOCC3)nc(N3CCc4ccccc4C3)n1)C2 (3D coordinates assigned)
c1ccc2c(c1)CCN(c1nc([NH2+]CC[NH+]3CCOCC3)nc(N3CCc4ccccc4C3)n1)C2 (nonaromatic ring conformer: 93.57553970320627 kcal/mol)

>  <smiles>  (61) 
c1ccc2c(c1)CCN(c1nc(NCCN3CCOCC3)nc(N3CCc4ccccc4C3)n1)C2

>  <score_type>  (61) 
oracle

>  <origin>  (61) 
autodockgpu

>  <m_score__min__energy>  (61) 
-9.8399999999999999

>  <m_primary>  (61) 
energy

>  <meeko>  (61) 
{"free_energy": -9.69, "intermolecular_energy": -11.48, "internal_energy": -1.13, "cluster_size": 15, "cluster_id": 1, "rank_in_cluster": 6}

>  <energy>  (61) 
-9.84

>  <cluster_rmsd>  (61) 
0.0

>  <rmsd>  (61) 
270.42

>  <cluster>  (61) 
1

$$$$
XKJAOWLAVYPRNA-HDZKEISTNA-P
     RDKit          3D

 70 75  0  0  0  0  0  0  0  0999 V2000
  139.9260   69.6690  228.0070 C   0  0  0  0  0  0  0  0  0  0  0  0
  140.8760   70.6900  227.9910 C   0  0  0  0  0  0  0  0  0  0  0  0
  141.1170   71.4050  226.8150 C   0  0  0  0  0  0  0  0  0  0  0  0
  140.3990   71.1120  225.6440 C   0  0  0  0  0  0  0  0  0  0  0  0
  139.4510   70.0600  225.6550 C   0  0  0  0  0  0  0  0  0  0  0  0
  139.2120   69.3580  226.8480 C   0  0  0  0  0  0  0  0  0  0  0  0
  138.6180   69.7410  224.4370 C   0  0  0  0  0  0  0  0  0  0  0  0
  139.2860   70.2320  223.1540 C   0  0  0  0  0  0  0  0  0  0  0  0
  139.7110   71.6230  223.3350 N   0  0  0  0  0  0  0  0  0  0  0  0
  139.2280   72.6790  222.4760 C   0  0  0  0  0  0  0  0  0  0  0  0
  138.0790   72.5180  221.7710 N   0  0  0  0  0  0  0  0  0  0  0  0
  137.6020   73.5190  220.9870 C   0  0  0  0  0  0  0  0  0  0  0  0
  136.3600   73.3530  220.2810 N   0  0  0  0  0  0  0  0  0  0  0  0
  135.2740   72.9660  221.1980 C   0  0  0  0  0  0  0  0  0  0  0  0
  134.9470   74.0880  222.2060 C   0  0  0  0  0  0  0  0  0  0  0  0
  135.6550   73.9920  223.5110 N   0  0  0  0  0  0  0  0  0  0  0  0
  135.7980   75.2860  224.2280 C   0  0  0  0  0  0  0  0  0  0  0  0
  134.7330   75.4960  225.3130 C   0  0  0  0  0  0  0  0  0  0  0  0
  134.7010   74.3930  226.1910 O   0  0  0  0  0  0  0  0  0  0  0  0
  134.2290   73.2680  225.4860 C   0  0  0  0  0  0  0  0  0  0  0  0
  135.2070   72.8600  224.3680 C   0  0  0  0  0  0  0  0  0  0  0  0
  138.2830   74.6910  220.9060 N   0  0  0  0  0  0  0  0  0  0  0  0
  139.4370   74.8660  221.6010 C   0  0  0  0  0  0  0  0  0  0  0  0
  140.1580   76.1140  221.5190 N   0  0  0  0  0  0  0  0  0  0  0  0
  140.1060   76.8950  220.2700 C   0  0  0  0  0  0  0  0  0  0  0  0
  141.3410   77.7830  220.1140 C   0  0  0  0  0  0  0  0  0  0  0  0
  141.5290   78.6160  221.3440 C   0  0  0  0  0  0  0  0  0  0  0  0
  141.9830   79.9410  221.2530 C   0  0  0  0  0  0  0  0  0  0  0  0
  142.1760   80.6970  222.4120 C   0  0  0  0  0  0  0  0  0  0  0  0
  141.9310   80.1320  223.6650 C   0  0  0  0  0  0  0  0  0  0  0  0
  141.4980   78.8070  223.7640 C   0  0  0  0  0  0  0  0  0  0  0  0
  141.2880   78.0440  222.6050 C   0  0  0  0  0  0  0  0  0  0  0  0
  140.8770   76.5960  222.7140 C   0  0  0  0  0  0  0  0  0  0  0  0
  139.9000   73.8570  222.3870 N   0  0  0  0  0  0  0  0  0  0  0  0
  140.7030   71.8940  224.3850 C   0  0  0  0  0  0  0  0  0  0  0  0
  139.7388   69.1077  228.9343 H   0  0  0  0  0  0  0  0  0  0  0  0
  141.4365   70.9328  228.9058 H   0  0  0  0  0  0  0  0  0  0  0  0
  141.8742   72.2028  226.8062 H   0  0  0  0  0  0  0  0  0  0  0  0
  138.4574   68.5580  226.8694 H   0  0  0  0  0  0  0  0  0  0  0  0
  138.4811   68.6514  224.3736 H   0  0  0  0  0  0  0  0  0  0  0  0
  137.6500   70.2535  224.5386 H   0  0  0  0  0  0  0  0  0  0  0  0
  140.1623   69.6053  222.9322 H   0  0  0  0  0  0  0  0  0  0  0  0
  138.5736   70.1686  222.3183 H   0  0  0  0  0  0  0  0  0  0  0  0
  136.4860   72.5970  219.5680 H   0  0  0  0  0  0  0  0  0  0  0  0
  136.1100   74.2360  219.7750 H   0  0  0  0  0  0  0  0  0  0  0  0
  134.3725   72.7435  220.6082 H   0  0  0  0  0  0  0  0  0  0  0  0
  135.6039   72.0829  221.7649 H   0  0  0  0  0  0  0  0  0  0  0  0
  135.2142   75.0496  221.7436 H   0  0  0  0  0  0  0  0  0  0  0  0
  133.8747   73.9927  222.4322 H   0  0  0  0  0  0  0  0  0  0  0  0
  136.6330   73.7360  223.2290 H   0  0  0  0  0  0  0  0  0  0  0  0
  136.7904   75.3156  224.7016 H   0  0  0  0  0  0  0  0  0  0  0  0
  135.6710   76.0874  223.4853 H   0  0  0  0  0  0  0  0  0  0  0  0
  134.9710   76.4061  225.8831 H   0  0  0  0  0  0  0  0  0  0  0  0
  133.7490   75.5976  224.8319 H   0  0  0  0  0  0  0  0  0  0  0  0
  134.1144   72.4278  226.1866 H   0  0  0  0  0  0  0  0  0  0  0  0
  133.2630   73.5250  225.0268 H   0  0  0  0  0  0  0  0  0  0  0  0
  136.0945   72.4066  224.8335 H   0  0  0  0  0  0  0  0  0  0  0  0
  134.6671   72.1601  223.7133 H   0  0  0  0  0  0  0  0  0  0  0  0
  140.0534   76.2024  219.4170 H   0  0  0  0  0  0  0  0  0  0  0  0
  139.2171   77.5420  220.3037 H   0  0  0  0  0  0  0  0  0  0  0  0
  142.2282   77.1505  219.9628 H   0  0  0  0  0  0  0  0  0  0  0  0
  141.2037   78.4448  219.2462 H   0  0  0  0  0  0  0  0  0  0  0  0
  142.1872   80.3850  220.2675 H   0  0  0  0  0  0  0  0  0  0  0  0
  142.5214   81.7387  222.3372 H   0  0  0  0  0  0  0  0  0  0  0  0
  142.0790   80.7308  224.5758 H   0  0  0  0  0  0  0  0  0  0  0  0
  141.3212   78.3606  224.7537 H   0  0  0  0  0  0  0  0  0  0  0  0
  141.7804   75.9837  222.8514 H   0  0  0  0  0  0  0  0  0  0  0  0
  140.1915   76.5099  223.5700 H   0  0  0  0  0  0  0  0  0  0  0  0
  141.7000   71.6088  224.0181 H   0  0  0  0  0  0  0  0  0  0  0  0
  140.6690   72.9667  224.6260 H   0  0  0  0  0  0  0  0  0  0  0  0
  1  2  2  0
  2  3  1  0
  3  4  2  0
  4  5  1  0
  5  6  2  0
  5  7  1  0
  7  8  1  0
  8  9  1  0
  9 10  1  0
 10 11  2  0
 11 12  1  0
 12 13  1  0
 13 14  1  0
 14 15  1  0
 15 16  1  0
 16 17  1  0
 17 18  1  0
 18 19  1  0
 19 20  1  0
 20 21  1  0
 12 22  2  0
 22 23  1  0
 23 24  1  0
 24 25  1  0
 25 26  1  0
 26 27  1  0
 27 28  2  0
 28 29  1  0
 29 30  2  0
 30 31  1  0
 31 32  2  0
 32 33  1  0
 23 34  2  0
  9 35  1  0
  6  1  1  0
 34 10  1  0
 35  4  1  0
 21 16  1  0
 33 24  1  0
 32 27  1  0
  1 36  1  0
  2 37  1  0
  3 38  1  0
  6 39  1  0
  7 40  1  0
  7 41  1  0
  8 42  1  0
  8 43  1  0
 13 44  1  0
 13 45  1  0
 14 46  1  0
 14 47  1  0
 15 48  1  0
 15 49  1  0
 16 50  1  0
 17 51  1  0
 17 52  1  0
 18 53  1  0
 18 54  1  0
 20 55  1  0
 20 56  1  0
 21 57  1  0
 21 58  1  0
 25 59  1  0
 25 60  1  0
 26 61  1  0
 26 62  1  0
 28 63  1  0
 29 64  1  0
 30 65  1  0
 31 66  1  0
 33 67  1  0
 33 68  1  0
 35 69  1  0
 35 70  1  0
M  CHG  2  13   1  16   1
M  END
>  <UniqueID>  (62) 
285

>  <SMILES>  (62) 
c1ccc2c(c1)CCN(c1nc([NH2+]CC[NH+]3CCOCC3)nc(N3CCc4ccccc4C3)n1)C2

>  <Energy>  (62) 
93.57553970320627

>  <Genealogy>  (62) 
c1ccc2c(c1)CCN(c1nc([NH2+]CC[NH+]3CCOCC3)nc(N3CCc4ccccc4C3)n1)C2 (protonated)
c1ccc2c(c1)CCN(c1nc([NH2+]CC[NH+]3CCOCC3)nc(N3CCc4ccccc4C3)n1)C2 (3D coordinates assigned)
c1ccc2c(c1)CCN(c1nc([NH2+]CC[NH+]3CCOCC3)nc(N3CCc4ccccc4C3)n1)C2 (nonaromatic ring conformer: 93.57553970320627 kcal/mol)

>  <smiles>  (62) 
c1ccc2c(c1)CCN(c1nc(NCCN3CCOCC3)nc(N3CCc4ccccc4C3)n1)C2

>  <score_type>  (62) 
oracle

>  <origin>  (62) 
autodockgpu

>  <m_score__min__energy>  (62) 
-9.8399999999999999

>  <m_primary>  (62) 
energy

>  <meeko>  (62) 
{"free_energy": -9.55, "intermolecular_energy": -11.34, "internal_energy": -1.11, "cluster_size": 15, "cluster_id": 1, "rank_in_cluster": 9}

>  <energy>  (62) 
-9.84

>  <cluster_rmsd>  (62) 
0.11

>  <rmsd>  (62) 
270.47

>  <cluster>  (62) 
1

$$$$
XKJAOWLAVYPRNA-HDZKEISTNA-P
     RDKit          3D

 70 75  0  0  0  0  0  0  0  0999 V2000
  140.0130   69.3490  228.0830 C   0  0  0  0  0  0  0  0  0  0  0  0
  140.8320   70.4780  228.1100 C   0  0  0  0  0  0  0  0  0  0  0  0
  141.0540   71.2110  226.9400 C   0  0  0  0  0  0  0  0  0  0  0  0
  140.4490   70.8260  225.7330 C   0  0  0  0  0  0  0  0  0  0  0  0
  139.6380   69.6670  225.7010 C   0  0  0  0  0  0  0  0  0  0  0  0
  139.4140   68.9470  226.8870 C   0  0  0  0  0  0  0  0  0  0  0  0
  138.9250   69.2420  224.4400 C   0  0  0  0  0  0  0  0  0  0  0  0
  139.6030   69.8030  223.1940 C   0  0  0  0  0  0  0  0  0  0  0  0
  139.8450   71.2380  223.3820 N   0  0  0  0  0  0  0  0  0  0  0  0
  139.2890   72.2210  222.4820 C   0  0  0  0  0  0  0  0  0  0  0  0
  138.5600   71.8330  221.4040 N   0  0  0  0  0  0  0  0  0  0  0  0
  138.0080   72.7530  220.5730 C   0  0  0  0  0  0  0  0  0  0  0  0
  137.2000   72.3300  219.4620 N   0  0  0  0  0  0  0  0  0  0  0  0
  135.7990   72.1280  219.8680 C   0  0  0  0  0  0  0  0  0  0  0  0
  135.4590   70.6310  220.0340 C   0  0  0  0  0  0  0  0  0  0  0  0
  136.1710   69.9400  221.1430 N   0  0  0  0  0  0  0  0  0  0  0  0
  135.8070   70.4230  222.5000 C   0  0  0  0  0  0  0  0  0  0  0  0
  134.7640   69.5390  223.1970 C   0  0  0  0  0  0  0  0  0  0  0  0
  135.1820   68.1930  223.1980 O   0  0  0  0  0  0  0  0  0  0  0  0
  135.1770   67.7170  221.8720 C   0  0  0  0  0  0  0  0  0  0  0  0
  136.2170   68.4570  221.0100 C   0  0  0  0  0  0  0  0  0  0  0  0
  138.1880   74.0760  220.8220 N   0  0  0  0  0  0  0  0  0  0  0  0
  138.9200   74.4820  221.8930 C   0  0  0  0  0  0  0  0  0  0  0  0
  139.1070   75.8880  222.1590 N   0  0  0  0  0  0  0  0  0  0  0  0
  137.9550   76.6990  222.5920 C   0  0  0  0  0  0  0  0  0  0  0  0
  138.1410   78.1730  222.2300 C   0  0  0  0  0  0  0  0  0  0  0  0
  139.4580   78.6630  222.7490 C   0  0  0  0  0  0  0  0  0  0  0  0
  139.5890   79.9620  223.2660 C   0  0  0  0  0  0  0  0  0  0  0  0
  140.8300   80.4120  223.7240 C   0  0  0  0  0  0  0  0  0  0  0  0
  141.9460   79.5760  223.6550 C   0  0  0  0  0  0  0  0  0  0  0  0
  141.8270   78.2890  223.1230 C   0  0  0  0  0  0  0  0  0  0  0  0
  140.5820   77.8220  222.6740 C   0  0  0  0  0  0  0  0  0  0  0  0
  140.4650   76.4550  222.0470 C   0  0  0  0  0  0  0  0  0  0  0  0
  139.4620   73.5480  222.7200 N   0  0  0  0  0  0  0  0  0  0  0  0
  140.7310   71.6330  224.4850 C   0  0  0  0  0  0  0  0  0  0  0  0
  139.8387   68.7746  229.0048 H   0  0  0  0  0  0  0  0  0  0  0  0
  141.3037   70.7920  229.0528 H   0  0  0  0  0  0  0  0  0  0  0  0
  141.7073   72.0956  226.9655 H   0  0  0  0  0  0  0  0  0  0  0  0
  138.7625   68.0608  226.8732 H   0  0  0  0  0  0  0  0  0  0  0  0
  138.9258   68.1435  224.3826 H   0  0  0  0  0  0  0  0  0  0  0  0
  137.8976   69.6332  224.4777 H   0  0  0  0  0  0  0  0  0  0  0  0
  140.5605   69.2864  223.0318 H   0  0  0  0  0  0  0  0  0  0  0  0
  138.9546   69.6488  222.3189 H   0  0  0  0  0  0  0  0  0  0  0  0
  137.5830   71.4230  219.1050 H   0  0  0  0  0  0  0  0  0  0  0  0
  137.2550   73.0310  218.6860 H   0  0  0  0  0  0  0  0  0  0  0  0
  135.6290   72.6399  220.8266 H   0  0  0  0  0  0  0  0  0  0  0  0
  135.1522   72.5396  219.0791 H   0  0  0  0  0  0  0  0  0  0  0  0
  134.3779   70.5457  220.2180 H   0  0  0  0  0  0  0  0  0  0  0  0
  135.7864   70.1384  219.1066 H   0  0  0  0  0  0  0  0  0  0  0  0
  137.1660   70.2460  221.0100 H   0  0  0  0  0  0  0  0  0  0  0  0
  136.7162   70.4450  223.1188 H   0  0  0  0  0  0  0  0  0  0  0  0
  135.3625   71.4223  222.3828 H   0  0  0  0  0  0  0  0  0  0  0  0
  134.6360   69.8795  224.2351 H   0  0  0  0  0  0  0  0  0  0  0  0
  133.8108   69.6160  222.6535 H   0  0  0  0  0  0  0  0  0  0  0  0
  135.4132   66.6427  221.8757 H   0  0  0  0  0  0  0  0  0  0  0  0
  134.1798   67.8937  221.4425 H   0  0  0  0  0  0  0  0  0  0  0  0
  137.2191   68.1142  221.3071 H   0  0  0  0  0  0  0  0  0  0  0  0
  135.9830   68.2247  219.9606 H   0  0  0  0  0  0  0  0  0  0  0  0
  137.0467   76.3217  222.0995 H   0  0  0  0  0  0  0  0  0  0  0  0
  137.8684   76.6200  223.6857 H   0  0  0  0  0  0  0  0  0  0  0  0
  138.1151   78.2860  221.1361 H   0  0  0  0  0  0  0  0  0  0  0  0
  137.3308   78.7625  222.6839 H   0  0  0  0  0  0  0  0  0  0  0  0
  138.7134   80.6263  223.3105 H   0  0  0  0  0  0  0  0  0  0  0  0
  140.9278   81.4259  224.1393 H   0  0  0  0  0  0  0  0  0  0  0  0
  142.9210   79.9309  224.0201 H   0  0  0  0  0  0  0  0  0  0  0  0
  142.7124   77.6397  223.0560 H   0  0  0  0  0  0  0  0  0  0  0  0
  140.7260   76.5338  220.9813 H   0  0  0  0  0  0  0  0  0  0  0  0
  141.1493   75.7838  222.5866 H   0  0  0  0  0  0  0  0  0  0  0  0
  141.7756   71.4700  224.1814 H   0  0  0  0  0  0  0  0  0  0  0  0
  140.5522   72.6947  224.7105 H   0  0  0  0  0  0  0  0  0  0  0  0
  1  2  2  0
  2  3  1  0
  3  4  2  0
  4  5  1  0
  5  6  2  0
  5  7  1  0
  7  8  1  0
  8  9  1  0
  9 10  1  0
 10 11  2  0
 11 12  1  0
 12 13  1  0
 13 14  1  0
 14 15  1  0
 15 16  1  0
 16 17  1  0
 17 18  1  0
 18 19  1  0
 19 20  1  0
 20 21  1  0
 12 22  2  0
 22 23  1  0
 23 24  1  0
 24 25  1  0
 25 26  1  0
 26 27  1  0
 27 28  2  0
 28 29  1  0
 29 30  2  0
 30 31  1  0
 31 32  2  0
 32 33  1  0
 23 34  2  0
  9 35  1  0
  6  1  1  0
 34 10  1  0
 35  4  1  0
 21 16  1  0
 33 24  1  0
 32 27  1  0
  1 36  1  0
  2 37  1  0
  3 38  1  0
  6 39  1  0
  7 40  1  0
  7 41  1  0
  8 42  1  0
  8 43  1  0
 13 44  1  0
 13 45  1  0
 14 46  1  0
 14 47  1  0
 15 48  1  0
 15 49  1  0
 16 50  1  0
 17 51  1  0
 17 52  1  0
 18 53  1  0
 18 54  1  0
 20 55  1  0
 20 56  1  0
 21 57  1  0
 21 58  1  0
 25 59  1  0
 25 60  1  0
 26 61  1  0
 26 62  1  0
 28 63  1  0
 29 64  1  0
 30 65  1  0
 31 66  1  0
 33 67  1  0
 33 68  1  0
 35 69  1  0
 35 70  1  0
M  CHG  2  13   1  16   1
M  END
>  <UniqueID>  (63) 
285

>  <SMILES>  (63) 
c1ccc2c(c1)CCN(c1nc([NH2+]CC[NH+]3CCOCC3)nc(N3CCc4ccccc4C3)n1)C2

>  <Energy>  (63) 
93.57553970320627

>  <Genealogy>  (63) 
c1ccc2c(c1)CCN(c1nc([NH2+]CC[NH+]3CCOCC3)nc(N3CCc4ccccc4C3)n1)C2 (protonated)
c1ccc2c(c1)CCN(c1nc([NH2+]CC[NH+]3CCOCC3)nc(N3CCc4ccccc4C3)n1)C2 (3D coordinates assigned)
c1ccc2c(c1)CCN(c1nc([NH2+]CC[NH+]3CCOCC3)nc(N3CCc4ccccc4C3)n1)C2 (nonaromatic ring conformer: 93.57553970320627 kcal/mol)

>  <smiles>  (63) 
c1ccc2c(c1)CCN(c1nc(NCCN3CCOCC3)nc(N3CCc4ccccc4C3)n1)C2

>  <score_type>  (63) 
oracle

>  <origin>  (63) 
autodockgpu

>  <m_score__min__energy>  (63) 
-9.8399999999999999

>  <m_primary>  (63) 
energy

>  <meeko>  (63) 
{"free_energy": -7.98, "intermolecular_energy": -9.77, "internal_energy": -1.3, "cluster_size": 1, "cluster_id": 4, "rank_in_cluster": 1}

>  <energy>  (63) 
-9.81

>  <cluster_rmsd>  (63) 
0.28

>  <rmsd>  (63) 
270.45

>  <cluster>  (63) 
1

$$$$
XKJAOWLAVYPRNA-HDZKEISTNA-P
     RDKit          3D

 70 75  0  0  0  0  0  0  0  0999 V2000
  139.9760   69.6030  227.9140 C   0  0  0  0  0  0  0  0  0  0  0  0
  140.9280   70.6220  227.9000 C   0  0  0  0  0  0  0  0  0  0  0  0
  141.1470   71.3600  226.7330 C   0  0  0  0  0  0  0  0  0  0  0  0
  140.4060   71.0920  225.5710 C   0  0  0  0  0  0  0  0  0  0  0  0
  139.4570   70.0420  225.5790 C   0  0  0  0  0  0  0  0  0  0  0  0
  139.2400   69.3160  226.7620 C   0  0  0  0  0  0  0  0  0  0  0  0
  138.6000   69.7480  224.3710 C   0  0  0  0  0  0  0  0  0  0  0  0
  139.2440   70.2630  223.0860 C   0  0  0  0  0  0  0  0  0  0  0  0
  139.6750   71.6500  223.2870 N   0  0  0  0  0  0  0  0  0  0  0  0
  139.1770   72.7240  222.4580 C   0  0  0  0  0  0  0  0  0  0  0  0
  138.0060   72.5850  221.7860 N   0  0  0  0  0  0  0  0  0  0  0  0
  137.5160   73.6020  221.0310 C   0  0  0  0  0  0  0  0  0  0  0  0
  136.2520   73.4600  220.3610 N   0  0  0  0  0  0  0  0  0  0  0  0
  135.1300   73.5980  221.3060 C   0  0  0  0  0  0  0  0  0  0  0  0
  135.3940   74.7020  222.3530 C   0  0  0  0  0  0  0  0  0  0  0  0
  135.8190   74.2140  223.6930 N   0  0  0  0  0  0  0  0  0  0  0  0
  135.8130   75.2550  224.7540 C   0  0  0  0  0  0  0  0  0  0  0  0
  134.5480   75.2250  225.6230 C   0  0  0  0  0  0  0  0  0  0  0  0
  134.3340   73.9300  226.1360 O   0  0  0  0  0  0  0  0  0  0  0  0
  134.0150   73.0680  225.0680 C   0  0  0  0  0  0  0  0  0  0  0  0
  135.2010   72.9210  224.0960 C   0  0  0  0  0  0  0  0  0  0  0  0
  138.2070   74.7690  220.9470 N   0  0  0  0  0  0  0  0  0  0  0  0
  139.3840   74.9210  221.6090 C   0  0  0  0  0  0  0  0  0  0  0  0
  140.1150   76.1620  221.5240 N   0  0  0  0  0  0  0  0  0  0  0  0
  140.0650   76.9440  220.2740 C   0  0  0  0  0  0  0  0  0  0  0  0
  141.3070   77.8210  220.1130 C   0  0  0  0  0  0  0  0  0  0  0  0
  141.5070   78.6530  221.3420 C   0  0  0  0  0  0  0  0  0  0  0  0
  141.9720   79.9740  221.2480 C   0  0  0  0  0  0  0  0  0  0  0  0
  142.1760   80.7290  222.4060 C   0  0  0  0  0  0  0  0  0  0  0  0
  141.9320   80.1670  223.6610 C   0  0  0  0  0  0  0  0  0  0  0  0
  141.4880   78.8450  223.7620 C   0  0  0  0  0  0  0  0  0  0  0  0
  141.2650   78.0830  222.6050 C   0  0  0  0  0  0  0  0  0  0  0  0
  140.8430   76.6400  222.7160 C   0  0  0  0  0  0  0  0  0  0  0  0
  139.8590   73.8950  222.3660 N   0  0  0  0  0  0  0  0  0  0  0  0
  140.6880   71.8980  224.3220 C   0  0  0  0  0  0  0  0  0  0  0  0
  139.8044   69.0244  228.8336 H   0  0  0  0  0  0  0  0  0  0  0  0
  141.5072   70.8453  228.8081 H   0  0  0  0  0  0  0  0  0  0  0  0
  141.9055   72.1566  226.7251 H   0  0  0  0  0  0  0  0  0  0  0  0
  138.4853   68.5160  226.7812 H   0  0  0  0  0  0  0  0  0  0  0  0
  138.4600   68.6600  224.2889 H   0  0  0  0  0  0  0  0  0  0  0  0
  137.6350   70.2596  224.5011 H   0  0  0  0  0  0  0  0  0  0  0  0
  140.1148   69.6395  222.8350 H   0  0  0  0  0  0  0  0  0  0  0  0
  138.5159   70.2171  222.2627 H   0  0  0  0  0  0  0  0  0  0  0  0
  136.2150   72.5080  219.9290 H   0  0  0  0  0  0  0  0  0  0  0  0
  136.1680   74.1670  219.5930 H   0  0  0  0  0  0  0  0  0  0  0  0
  134.2196   73.8516  220.7431 H   0  0  0  0  0  0  0  0  0  0  0  0
  135.0125   72.6428  221.8388 H   0  0  0  0  0  0  0  0  0  0  0  0
  136.1854   75.3589  221.9630 H   0  0  0  0  0  0  0  0  0  0  0  0
  134.4331   75.2154  222.5051 H   0  0  0  0  0  0  0  0  0  0  0  0
  136.8330   73.9870  223.5490 H   0  0  0  0  0  0  0  0  0  0  0  0
  136.6870   75.0977  225.4032 H   0  0  0  0  0  0  0  0  0  0  0  0
  135.8420   76.2335  224.2523 H   0  0  0  0  0  0  0  0  0  0  0  0
  134.6656   75.9308  226.4585 H   0  0  0  0  0  0  0  0  0  0  0  0
  133.6841   75.5108  225.0049 H   0  0  0  0  0  0  0  0  0  0  0  0
  133.7570   72.0776  225.4713 H   0  0  0  0  0  0  0  0  0  0  0  0
  133.1648   73.4966  224.5171 H   0  0  0  0  0  0  0  0  0  0  0  0
  135.9724   72.3059  224.5824 H   0  0  0  0  0  0  0  0  0  0  0  0
  134.8053   72.4587  223.1796 H   0  0  0  0  0  0  0  0  0  0  0  0
  140.0030   76.2518  219.4213 H   0  0  0  0  0  0  0  0  0  0  0  0
  139.1819   77.5988  220.3111 H   0  0  0  0  0  0  0  0  0  0  0  0
  142.1880   77.1807  219.9588 H   0  0  0  0  0  0  0  0  0  0  0  0
  141.1722   78.4836  219.2454 H   0  0  0  0  0  0  0  0  0  0  0  0
  142.1761   80.4155  220.2614 H   0  0  0  0  0  0  0  0  0  0  0  0
  142.5294   81.7678  222.3290 H   0  0  0  0  0  0  0  0  0  0  0  0
  142.0893   80.7649  224.5708 H   0  0  0  0  0  0  0  0  0  0  0  0
  141.3128   78.4004  224.7527 H   0  0  0  0  0  0  0  0  0  0  0  0
  141.7420   76.0205  222.8502 H   0  0  0  0  0  0  0  0  0  0  0  0
  140.1598   76.5605  223.5745 H   0  0  0  0  0  0  0  0  0  0  0  0
  141.6769   71.6176  223.9302 H   0  0  0  0  0  0  0  0  0  0  0  0
  140.6622   72.9659  224.5845 H   0  0  0  0  0  0  0  0  0  0  0  0
  1  2  2  0
  2  3  1  0
  3  4  2  0
  4  5  1  0
  5  6  2  0
  5  7  1  0
  7  8  1  0
  8  9  1  0
  9 10  1  0
 10 11  2  0
 11 12  1  0
 12 13  1  0
 13 14  1  0
 14 15  1  0
 15 16  1  0
 16 17  1  0
 17 18  1  0
 18 19  1  0
 19 20  1  0
 20 21  1  0
 12 22  2  0
 22 23  1  0
 23 24  1  0
 24 25  1  0
 25 26  1  0
 26 27  1  0
 27 28  2  0
 28 29  1  0
 29 30  2  0
 30 31  1  0
 31 32  2  0
 32 33  1  0
 23 34  2  0
  9 35  1  0
  6  1  1  0
 34 10  1  0
 35  4  1  0
 21 16  1  0
 33 24  1  0
 32 27  1  0
  1 36  1  0
  2 37  1  0
  3 38  1  0
  6 39  1  0
  7 40  1  0
  7 41  1  0
  8 42  1  0
  8 43  1  0
 13 44  1  0
 13 45  1  0
 14 46  1  0
 14 47  1  0
 15 48  1  0
 15 49  1  0
 16 50  1  0
 17 51  1  0
 17 52  1  0
 18 53  1  0
 18 54  1  0
 20 55  1  0
 20 56  1  0
 21 57  1  0
 21 58  1  0
 25 59  1  0
 25 60  1  0
 26 61  1  0
 26 62  1  0
 28 63  1  0
 29 64  1  0
 30 65  1  0
 31 66  1  0
 33 67  1  0
 33 68  1  0
 35 69  1  0
 35 70  1  0
M  CHG  2  13   1  16   1
M  END
>  <UniqueID>  (64) 
285

>  <SMILES>  (64) 
c1ccc2c(c1)CCN(c1nc([NH2+]CC[NH+]3CCOCC3)nc(N3CCc4ccccc4C3)n1)C2

>  <Energy>  (64) 
93.57553970320627

>  <Genealogy>  (64) 
c1ccc2c(c1)CCN(c1nc([NH2+]CC[NH+]3CCOCC3)nc(N3CCc4ccccc4C3)n1)C2 (protonated)
c1ccc2c(c1)CCN(c1nc([NH2+]CC[NH+]3CCOCC3)nc(N3CCc4ccccc4C3)n1)C2 (3D coordinates assigned)
c1ccc2c(c1)CCN(c1nc([NH2+]CC[NH+]3CCOCC3)nc(N3CCc4ccccc4C3)n1)C2 (nonaromatic ring conformer: 93.57553970320627 kcal/mol)

>  <smiles>  (64) 
c1ccc2c(c1)CCN(c1nc(NCCN3CCOCC3)nc(N3CCc4ccccc4C3)n1)C2

>  <score_type>  (64) 
oracle

>  <origin>  (64) 
autodockgpu

>  <m_score__min__energy>  (64) 
-9.8399999999999999

>  <m_primary>  (64) 
energy

>  <meeko>  (64) 
{"free_energy": -9.84, "intermolecular_energy": -11.63, "internal_energy": -0.99, "cluster_size": 15, "cluster_id": 1, "rank_in_cluster": 2}

>  <energy>  (64) 
-9.77

>  <cluster_rmsd>  (64) 
0.09

>  <rmsd>  (64) 
270.43

>  <cluster>  (64) 
1

$$$$
XKJAOWLAVYPRNA-HDZKEISTNA-P
     RDKit          3D

 70 75  0  0  0  0  0  0  0  0999 V2000
  142.4990   80.5310  222.6150 C   0  0  0  0  0  0  0  0  0  0  0  0
  142.2430   79.8970  223.8300 C   0  0  0  0  0  0  0  0  0  0  0  0
  141.6020   78.6550  223.8520 C   0  0  0  0  0  0  0  0  0  0  0  0
  141.2210   78.0300  222.6530 C   0  0  0  0  0  0  0  0  0  0  0  0
  141.4590   78.6850  221.4220 C   0  0  0  0  0  0  0  0  0  0  0  0
  142.1150   79.9280  221.4150 C   0  0  0  0  0  0  0  0  0  0  0  0
  141.1140   78.0320  220.1050 C   0  0  0  0  0  0  0  0  0  0  0  0
  140.0350   76.9650  220.2720 C   0  0  0  0  0  0  0  0  0  0  0  0
  140.3970   76.0850  221.3880 N   0  0  0  0  0  0  0  0  0  0  0  0
  140.5720   74.6630  221.2030 C   0  0  0  0  0  0  0  0  0  0  0  0
  141.0840   74.1790  220.0420 N   0  0  0  0  0  0  0  0  0  0  0  0
  141.2800   72.8470  219.8740 C   0  0  0  0  0  0  0  0  0  0  0  0
  141.8650   72.3510  218.6570 N   0  0  0  0  0  0  0  0  0  0  0  0
  142.2970   73.4570  217.7850 C   0  0  0  0  0  0  0  0  0  0  0  0
  143.2790   74.4070  218.5060 C   0  0  0  0  0  0  0  0  0  0  0  0
  144.7070   73.9930  218.4590 N   0  0  0  0  0  0  0  0  0  0  0  0
  145.3130   73.7310  219.7910 C   0  0  0  0  0  0  0  0  0  0  0  0
  145.3420   72.2420  220.1590 C   0  0  0  0  0  0  0  0  0  0  0  0
  145.9520   71.4930  219.1320 O   0  0  0  0  0  0  0  0  0  0  0  0
  145.1240   71.5300  217.9930 C   0  0  0  0  0  0  0  0  0  0  0  0
  145.0110   72.9590  217.4310 C   0  0  0  0  0  0  0  0  0  0  0  0
  140.9610   71.9890  220.8770 N   0  0  0  0  0  0  0  0  0  0  0  0
  140.4430   72.4560  222.0430 C   0  0  0  0  0  0  0  0  0  0  0  0
  140.1090   71.5450  223.1110 N   0  0  0  0  0  0  0  0  0  0  0  0
  139.4430   70.2700  222.7890 C   0  0  0  0  0  0  0  0  0  0  0  0
  138.6260   69.7500  223.9720 C   0  0  0  0  0  0  0  0  0  0  0  0
  139.4830   69.6940  225.1990 C   0  0  0  0  0  0  0  0  0  0  0  0
  139.3460   68.6490  226.1250 C   0  0  0  0  0  0  0  0  0  0  0  0
  140.1370   68.6240  227.2760 C   0  0  0  0  0  0  0  0  0  0  0  0
  141.0560   69.6480  227.5160 C   0  0  0  0  0  0  0  0  0  0  0  0
  141.1840   70.7030  226.6080 C   0  0  0  0  0  0  0  0  0  0  0  0
  140.4040   70.7280  225.4410 C   0  0  0  0  0  0  0  0  0  0  0  0
  140.5000   71.8960  224.4900 C   0  0  0  0  0  0  0  0  0  0  0  0
  140.2560   73.7950  222.1990 N   0  0  0  0  0  0  0  0  0  0  0  0
  140.5100   76.6960  222.7190 C   0  0  0  0  0  0  0  0  0  0  0  0
  143.0043   81.5080  222.6014 H   0  0  0  0  0  0  0  0  0  0  0  0
  142.5460   80.3751  224.7732 H   0  0  0  0  0  0  0  0  0  0  0  0
  141.3946   78.1639  224.8142 H   0  0  0  0  0  0  0  0  0  0  0  0
  142.3273   80.4289  220.4589 H   0  0  0  0  0  0  0  0  0  0  0  0
  140.7496   78.8022  219.4093 H   0  0  0  0  0  0  0  0  0  0  0  0
  142.0203   77.5464  219.7141 H   0  0  0  0  0  0  0  0  0  0  0  0
  139.0693   77.4478  220.4823 H   0  0  0  0  0  0  0  0  0  0  0  0
  139.9520   76.3749  219.3474 H   0  0  0  0  0  0  0  0  0  0  0  0
  141.1440   71.7850  218.1530 H   0  0  0  0  0  0  0  0  0  0  0  0
  142.6750   71.7230  218.8740 H   0  0  0  0  0  0  0  0  0  0  0  0
  142.7941   73.0375  216.8979 H   0  0  0  0  0  0  0  0  0  0  0  0
  141.4061   74.0370  217.5022 H   0  0  0  0  0  0  0  0  0  0  0  0
  143.1966   75.4000  218.0399 H   0  0  0  0  0  0  0  0  0  0  0  0
  142.9918   74.3961  219.5678 H   0  0  0  0  0  0  0  0  0  0  0  0
  145.1910   74.8570  218.1130 H   0  0  0  0  0  0  0  0  0  0  0  0
  146.3456   74.1102  219.7861 H   0  0  0  0  0  0  0  0  0  0  0  0
  144.6894   74.2409  220.5400 H   0  0  0  0  0  0  0  0  0  0  0  0
  145.9115   72.1101  221.0908 H   0  0  0  0  0  0  0  0  0  0  0  0
  144.3093   71.8878  220.2933 H   0  0  0  0  0  0  0  0  0  0  0  0
  145.5486   70.8731  217.2196 H   0  0  0  0  0  0  0  0  0  0  0  0
  144.1188   71.1899  218.2827 H   0  0  0  0  0  0  0  0  0  0  0  0
  145.9664   73.2185  216.9516 H   0  0  0  0  0  0  0  0  0  0  0  0
  144.1685   72.9567  216.7237 H   0  0  0  0  0  0  0  0  0  0  0  0
  138.7718   70.4240  221.9313 H   0  0  0  0  0  0  0  0  0  0  0  0
  140.2179   69.5263  222.5514 H   0  0  0  0  0  0  0  0  0  0  0  0
  137.7753   70.4238  224.1519 H   0  0  0  0  0  0  0  0  0  0  0  0
  138.2580   68.7394  223.7412 H   0  0  0  0  0  0  0  0  0  0  0  0
  138.6143   67.8478  225.9443 H   0  0  0  0  0  0  0  0  0  0  0  0
  140.0360   67.7969  227.9942 H   0  0  0  0  0  0  0  0  0  0  0  0
  141.6803   69.6242  228.4214 H   0  0  0  0  0  0  0  0  0  0  0  0
  141.8977   71.5157  226.8084 H   0  0  0  0  0  0  0  0  0  0  0  0
  139.8379   72.6973  224.8498 H   0  0  0  0  0  0  0  0  0  0  0  0
  141.5520   72.2163  224.4643 H   0  0  0  0  0  0  0  0  0  0  0  0
  139.5012   76.8476  223.1305 H   0  0  0  0  0  0  0  0  0  0  0  0
  141.0953   76.0221  223.3618 H   0  0  0  0  0  0  0  0  0  0  0  0
  1  2  2  0
  2  3  1  0
  3  4  2  0
  4  5  1  0
  5  6  2  0
  5  7  1  0
  7  8  1  0
  8  9  1  0
  9 10  1  0
 10 11  2  0
 11 12  1  0
 12 13  1  0
 13 14  1  0
 14 15  1  0
 15 16  1  0
 16 17  1  0
 17 18  1  0
 18 19  1  0
 19 20  1  0
 20 21  1  0
 12 22  2  0
 22 23  1  0
 23 24  1  0
 24 25  1  0
 25 26  1  0
 26 27  1  0
 27 28  2  0
 28 29  1  0
 29 30  2  0
 30 31  1  0
 31 32  2  0
 32 33  1  0
 23 34  2  0
  9 35  1  0
  6  1  1  0
 34 10  1  0
 35  4  1  0
 21 16  1  0
 33 24  1  0
 32 27  1  0
  1 36  1  0
  2 37  1  0
  3 38  1  0
  6 39  1  0
  7 40  1  0
  7 41  1  0
  8 42  1  0
  8 43  1  0
 13 44  1  0
 13 45  1  0
 14 46  1  0
 14 47  1  0
 15 48  1  0
 15 49  1  0
 16 50  1  0
 17 51  1  0
 17 52  1  0
 18 53  1  0
 18 54  1  0
 20 55  1  0
 20 56  1  0
 21 57  1  0
 21 58  1  0
 25 59  1  0
 25 60  1  0
 26 61  1  0
 26 62  1  0
 28 63  1  0
 29 64  1  0
 30 65  1  0
 31 66  1  0
 33 67  1  0
 33 68  1  0
 35 69  1  0
 35 70  1  0
M  CHG  2  13   1  16   1
M  END
>  <UniqueID>  (65) 
285

>  <SMILES>  (65) 
c1ccc2c(c1)CCN(c1nc([NH2+]CC[NH+]3CCOCC3)nc(N3CCc4ccccc4C3)n1)C2

>  <Energy>  (65) 
93.57553970320627

>  <Genealogy>  (65) 
c1ccc2c(c1)CCN(c1nc([NH2+]CC[NH+]3CCOCC3)nc(N3CCc4ccccc4C3)n1)C2 (protonated)
c1ccc2c(c1)CCN(c1nc([NH2+]CC[NH+]3CCOCC3)nc(N3CCc4ccccc4C3)n1)C2 (3D coordinates assigned)
c1ccc2c(c1)CCN(c1nc([NH2+]CC[NH+]3CCOCC3)nc(N3CCc4ccccc4C3)n1)C2 (nonaromatic ring conformer: 93.57553970320627 kcal/mol)

>  <smiles>  (65) 
c1ccc2c(c1)CCN(c1nc(NCCN3CCOCC3)nc(N3CCc4ccccc4C3)n1)C2

>  <score_type>  (65) 
oracle

>  <origin>  (65) 
autodockgpu

>  <m_score__min__energy>  (65) 
-9.8399999999999999

>  <m_primary>  (65) 
energy

>  <meeko>  (65) 
{"free_energy": -9.58, "intermolecular_energy": -11.37, "internal_energy": -0.3, "cluster_size": 2, "cluster_id": 2, "rank_in_cluster": 1}

>  <energy>  (65) 
-9.75

>  <cluster_rmsd>  (65) 
0.31

>  <rmsd>  (65) 
270.46

>  <cluster>  (65) 
1

$$$$
XKJAOWLAVYPRNA-HDZKEISTNA-P
     RDKit          3D

 70 75  0  0  0  0  0  0  0  0999 V2000
  140.0250   69.5620  227.5770 C   0  0  0  0  0  0  0  0  0  0  0  0
  141.0410   70.5180  227.5400 C   0  0  0  0  0  0  0  0  0  0  0  0
  141.2430   71.2830  226.3880 C   0  0  0  0  0  0  0  0  0  0  0  0
  140.4220   71.1060  225.2630 C   0  0  0  0  0  0  0  0  0  0  0  0
  139.4070   70.1200  225.2920 C   0  0  0  0  0  0  0  0  0  0  0  0
  139.2080   69.3660  226.4610 C   0  0  0  0  0  0  0  0  0  0  0  0
  138.4660   69.9270  224.1270 C   0  0  0  0  0  0  0  0  0  0  0  0
  139.0690   70.4460  222.8240 C   0  0  0  0  0  0  0  0  0  0  0  0
  139.6030   71.7940  223.0450 N   0  0  0  0  0  0  0  0  0  0  0  0
  139.1310   72.9270  222.2830 C   0  0  0  0  0  0  0  0  0  0  0  0
  137.9420   72.8690  221.6310 N   0  0  0  0  0  0  0  0  0  0  0  0
  137.4790   73.9420  220.9390 C   0  0  0  0  0  0  0  0  0  0  0  0
  136.1970   73.8840  220.2910 N   0  0  0  0  0  0  0  0  0  0  0  0
  135.1000   73.9770  221.2710 C   0  0  0  0  0  0  0  0  0  0  0  0
  135.1210   72.7990  222.2690 C   0  0  0  0  0  0  0  0  0  0  0  0
  135.6850   73.1160  223.6090 N   0  0  0  0  0  0  0  0  0  0  0  0
  135.4430   74.5100  224.0610 C   0  0  0  0  0  0  0  0  0  0  0  0
  134.2450   74.6370  225.0140 C   0  0  0  0  0  0  0  0  0  0  0  0
  134.3750   73.7350  226.0890 O   0  0  0  0  0  0  0  0  0  0  0  0
  134.2590   72.4210  225.5940 C   0  0  0  0  0  0  0  0  0  0  0  0
  135.4200   72.0780  224.6440 C   0  0  0  0  0  0  0  0  0  0  0  0
  138.2140   75.0830  220.8990 N   0  0  0  0  0  0  0  0  0  0  0  0
  139.4090   75.1550  221.5420 C   0  0  0  0  0  0  0  0  0  0  0  0
  140.1870   76.3700  221.5020 N   0  0  0  0  0  0  0  0  0  0  0  0
  140.2150   77.1690  220.2640 C   0  0  0  0  0  0  0  0  0  0  0  0
  141.4930   78.0020  220.1640 C   0  0  0  0  0  0  0  0  0  0  0  0
  141.6750   78.8100  221.4120 C   0  0  0  0  0  0  0  0  0  0  0  0
  142.1910   80.1140  221.3550 C   0  0  0  0  0  0  0  0  0  0  0  0
  142.3770   80.8450  222.5310 C   0  0  0  0  0  0  0  0  0  0  0  0
  142.0640   80.2760  223.7670 C   0  0  0  0  0  0  0  0  0  0  0  0
  141.5680   78.9700  223.8320 C   0  0  0  0  0  0  0  0  0  0  0  0
  141.3640   78.2330  222.6550 C   0  0  0  0  0  0  0  0  0  0  0  0
  140.8850   76.8040  222.7280 C   0  0  0  0  0  0  0  0  0  0  0  0
  139.8580   74.0750  222.2350 N   0  0  0  0  0  0  0  0  0  0  0  0
  140.6860   71.9380  224.0280 C   0  0  0  0  0  0  0  0  0  0  0  0
  139.8674   68.9624  228.4856 H   0  0  0  0  0  0  0  0  0  0  0  0
  141.6842   70.6697  228.4194 H   0  0  0  0  0  0  0  0  0  0  0  0
  142.0509   72.0290  226.3626 H   0  0  0  0  0  0  0  0  0  0  0  0
  138.4036   68.6166  226.4975 H   0  0  0  0  0  0  0  0  0  0  0  0
  138.2493   68.8541  224.0174 H   0  0  0  0  0  0  0  0  0  0  0  0
  137.5464   70.4954  224.3303 H   0  0  0  0  0  0  0  0  0  0  0  0
  139.8803   69.7768  222.5015 H   0  0  0  0  0  0  0  0  0  0  0  0
  138.2939   70.4780  222.0442 H   0  0  0  0  0  0  0  0  0  0  0  0
  136.1240   72.9680  219.7890 H   0  0  0  0  0  0  0  0  0  0  0  0
  136.1140   74.6500  219.5810 H   0  0  0  0  0  0  0  0  0  0  0  0
  135.2009   74.9190  221.8300 H   0  0  0  0  0  0  0  0  0  0  0  0
  134.1474   73.9430  220.7220 H   0  0  0  0  0  0  0  0  0  0  0  0
  134.0865   72.4521  222.4082 H   0  0  0  0  0  0  0  0  0  0  0  0
  135.7834   72.0381  221.8304 H   0  0  0  0  0  0  0  0  0  0  0  0
  136.7200   73.0650  223.4460 H   0  0  0  0  0  0  0  0  0  0  0  0
  136.3430   74.8704  224.5807 H   0  0  0  0  0  0  0  0  0  0  0  0
  135.2148   75.1089  223.1670 H   0  0  0  0  0  0  0  0  0  0  0  0
  134.2007   75.6639  225.4058 H   0  0  0  0  0  0  0  0  0  0  0  0
  133.3230   74.4033  224.4615 H   0  0  0  0  0  0  0  0  0  0  0  0
  134.2677   71.7173  226.4394 H   0  0  0  0  0  0  0  0  0  0  0  0
  133.3161   72.3428  225.0330 H   0  0  0  0  0  0  0  0  0  0  0  0
  136.3320   71.9489  225.2454 H   0  0  0  0  0  0  0  0  0  0  0  0
  135.1316   71.1617  224.1081 H   0  0  0  0  0  0  0  0  0  0  0  0
  140.1617   76.4908  219.3996 H   0  0  0  0  0  0  0  0  0  0  0  0
  139.3555   77.8554  220.2766 H   0  0  0  0  0  0  0  0  0  0  0  0
  142.3557   77.3319  220.0345 H   0  0  0  0  0  0  0  0  0  0  0  0
  141.4159   78.6806  219.3017 H   0  0  0  0  0  0  0  0  0  0  0  0
  142.4492   80.5608  220.3836 H   0  0  0  0  0  0  0  0  0  0  0  0
  142.7709   81.8710  222.4830 H   0  0  0  0  0  0  0  0  0  0  0  0
  142.2077   80.8556  224.6908 H   0  0  0  0  0  0  0  0  0  0  0  0
  141.3371   78.5190  224.8084 H   0  0  0  0  0  0  0  0  0  0  0  0
  141.7548   76.1497  222.8872 H   0  0  0  0  0  0  0  0  0  0  0  0
  140.1665   76.7382  223.5584 H   0  0  0  0  0  0  0  0  0  0  0  0
  141.6310   71.6101  223.5704 H   0  0  0  0  0  0  0  0  0  0  0  0
  140.7445   72.9948  224.3275 H   0  0  0  0  0  0  0  0  0  0  0  0
  1  2  2  0
  2  3  1  0
  3  4  2  0
  4  5  1  0
  5  6  2  0
  5  7  1  0
  7  8  1  0
  8  9  1  0
  9 10  1  0
 10 11  2  0
 11 12  1  0
 12 13  1  0
 13 14  1  0
 14 15  1  0
 15 16  1  0
 16 17  1  0
 17 18  1  0
 18 19  1  0
 19 20  1  0
 20 21  1  0
 12 22  2  0
 22 23  1  0
 23 24  1  0
 24 25  1  0
 25 26  1  0
 26 27  1  0
 27 28  2  0
 28 29  1  0
 29 30  2  0
 30 31  1  0
 31 32  2  0
 32 33  1  0
 23 34  2  0
  9 35  1  0
  6  1  1  0
 34 10  1  0
 35  4  1  0
 21 16  1  0
 33 24  1  0
 32 27  1  0
  1 36  1  0
  2 37  1  0
  3 38  1  0
  6 39  1  0
  7 40  1  0
  7 41  1  0
  8 42  1  0
  8 43  1  0
 13 44  1  0
 13 45  1  0
 14 46  1  0
 14 47  1  0
 15 48  1  0
 15 49  1  0
 16 50  1  0
 17 51  1  0
 17 52  1  0
 18 53  1  0
 18 54  1  0
 20 55  1  0
 20 56  1  0
 21 57  1  0
 21 58  1  0
 25 59  1  0
 25 60  1  0
 26 61  1  0
 26 62  1  0
 28 63  1  0
 29 64  1  0
 30 65  1  0
 31 66  1  0
 33 67  1  0
 33 68  1  0
 35 69  1  0
 35 70  1  0
M  CHG  2  13   1  16   1
M  END
>  <UniqueID>  (66) 
285

>  <SMILES>  (66) 
c1ccc2c(c1)CCN(c1nc([NH2+]CC[NH+]3CCOCC3)nc(N3CCc4ccccc4C3)n1)C2

>  <Energy>  (66) 
93.57553970320627

>  <Genealogy>  (66) 
c1ccc2c(c1)CCN(c1nc([NH2+]CC[NH+]3CCOCC3)nc(N3CCc4ccccc4C3)n1)C2 (protonated)
c1ccc2c(c1)CCN(c1nc([NH2+]CC[NH+]3CCOCC3)nc(N3CCc4ccccc4C3)n1)C2 (3D coordinates assigned)
c1ccc2c(c1)CCN(c1nc([NH2+]CC[NH+]3CCOCC3)nc(N3CCc4ccccc4C3)n1)C2 (nonaromatic ring conformer: 93.57553970320627 kcal/mol)

>  <smiles>  (66) 
c1ccc2c(c1)CCN(c1nc(NCCN3CCOCC3)nc(N3CCc4ccccc4C3)n1)C2

>  <score_type>  (66) 
oracle

>  <origin>  (66) 
autodockgpu

>  <m_score__min__energy>  (66) 
-9.8399999999999999

>  <m_primary>  (66) 
energy

>  <meeko>  (66) 
{"free_energy": -9.44, "intermolecular_energy": -11.23, "internal_energy": -1.33, "cluster_size": 15, "cluster_id": 1, "rank_in_cluster": 10}

>  <energy>  (66) 
-9.69

>  <cluster_rmsd>  (66) 
0.16

>  <rmsd>  (66) 
270.44

>  <cluster>  (66) 
1

$$$$
XKJAOWLAVYPRNA-HDZKEISTNA-P
     RDKit          3D

 70 75  0  0  0  0  0  0  0  0999 V2000
  139.9240   69.5050  227.9320 C   0  0  0  0  0  0  0  0  0  0  0  0
  140.8010   70.5880  227.9960 C   0  0  0  0  0  0  0  0  0  0  0  0
  141.0490   71.3570  226.8550 C   0  0  0  0  0  0  0  0  0  0  0  0
  140.4120   71.0550  225.6410 C   0  0  0  0  0  0  0  0  0  0  0  0
  139.5420   69.9410  225.5710 C   0  0  0  0  0  0  0  0  0  0  0  0
  139.2930   69.1840  226.7280 C   0  0  0  0  0  0  0  0  0  0  0  0
  138.7950   69.6060  224.3020 C   0  0  0  0  0  0  0  0  0  0  0  0
  139.4890   70.1840  223.0710 C   0  0  0  0  0  0  0  0  0  0  0  0
  139.8060   71.5950  223.3160 N   0  0  0  0  0  0  0  0  0  0  0  0
  139.2930   72.6430  222.4640 C   0  0  0  0  0  0  0  0  0  0  0  0
  138.1370   72.4640  221.7760 N   0  0  0  0  0  0  0  0  0  0  0  0
  137.6330   73.4570  220.9990 C   0  0  0  0  0  0  0  0  0  0  0  0
  136.3830   73.2720  220.3120 N   0  0  0  0  0  0  0  0  0  0  0  0
  135.2850   73.0240  221.2610 C   0  0  0  0  0  0  0  0  0  0  0  0
  135.0230   71.5150  221.4550 C   0  0  0  0  0  0  0  0  0  0  0  0
  135.9280   70.8350  222.4210 N   0  0  0  0  0  0  0  0  0  0  0  0
  135.5580   71.0290  223.8480 C   0  0  0  0  0  0  0  0  0  0  0  0
  134.7620   69.8530  224.4300 C   0  0  0  0  0  0  0  0  0  0  0  0
  135.4440   68.6390  224.2090 O   0  0  0  0  0  0  0  0  0  0  0  0
  135.4540   68.3710  222.8260 C   0  0  0  0  0  0  0  0  0  0  0  0
  136.2660   69.4310  222.0580 C   0  0  0  0  0  0  0  0  0  0  0  0
  138.2930   74.6400  220.9100 N   0  0  0  0  0  0  0  0  0  0  0  0
  139.4550   74.8330  221.5880 C   0  0  0  0  0  0  0  0  0  0  0  0
  140.1540   76.0920  221.4960 N   0  0  0  0  0  0  0  0  0  0  0  0
  140.0490   76.8870  220.2580 C   0  0  0  0  0  0  0  0  0  0  0  0
  141.2640   77.7950  220.0710 C   0  0  0  0  0  0  0  0  0  0  0  0
  141.4820   78.6170  221.3040 C   0  0  0  0  0  0  0  0  0  0  0  0
  141.9130   79.9500  221.2130 C   0  0  0  0  0  0  0  0  0  0  0  0
  142.1340   80.6960  222.3740 C   0  0  0  0  0  0  0  0  0  0  0  0
  141.9410   80.1130  223.6280 C   0  0  0  0  0  0  0  0  0  0  0  0
  141.5310   78.7800  223.7260 C   0  0  0  0  0  0  0  0  0  0  0  0
  141.2920   78.0270  222.5660 C   0  0  0  0  0  0  0  0  0  0  0  0
  140.9060   76.5730  222.6710 C   0  0  0  0  0  0  0  0  0  0  0  0
  139.9450   73.8310  222.3660 N   0  0  0  0  0  0  0  0  0  0  0  0
  140.7230   71.8970  224.4230 C   0  0  0  0  0  0  0  0  0  0  0  0
  139.7290   68.9027  228.8315 H   0  0  0  0  0  0  0  0  0  0  0  0
  141.2979   70.8372  228.9452 H   0  0  0  0  0  0  0  0  0  0  0  0
  141.7481   72.2046  226.9089 H   0  0  0  0  0  0  0  0  0  0  0  0
  138.5969   68.3333  226.6854 H   0  0  0  0  0  0  0  0  0  0  0  0
  138.7387   68.5123  224.1993 H   0  0  0  0  0  0  0  0  0  0  0  0
  137.7895   70.0471  224.3685 H   0  0  0  0  0  0  0  0  0  0  0  0
  140.4170   69.6266  222.8758 H   0  0  0  0  0  0  0  0  0  0  0  0
  138.8251   70.0999  222.1980 H   0  0  0  0  0  0  0  0  0  0  0  0
  136.4770   72.4430  219.6790 H   0  0  0  0  0  0  0  0  0  0  0  0
  136.1680   74.1090  219.7190 H   0  0  0  0  0  0  0  0  0  0  0  0
  135.5477   73.4674  222.2328 H   0  0  0  0  0  0  0  0  0  0  0  0
  134.3710   73.4794  220.8521 H   0  0  0  0  0  0  0  0  0  0  0  0
  133.9898   71.3919  221.8117 H   0  0  0  0  0  0  0  0  0  0  0  0
  135.2090   71.0443  220.4783 H   0  0  0  0  0  0  0  0  0  0  0  0
  136.8300   71.3600  222.3070 H   0  0  0  0  0  0  0  0  0  0  0  0
  136.4802   71.1519  224.4350 H   0  0  0  0  0  0  0  0  0  0  0  0
  134.9136   71.9189  223.9012 H   0  0  0  0  0  0  0  0  0  0  0  0
  134.6320   70.0037  225.5118 H   0  0  0  0  0  0  0  0  0  0  0  0
  133.7814   69.8062  223.9337 H   0  0  0  0  0  0  0  0  0  0  0  0
  135.9039   67.3818  222.6557 H   0  0  0  0  0  0  0  0  0  0  0  0
  134.4171   68.3943  222.4596 H   0  0  0  0  0  0  0  0  0  0  0  0
  137.3334   69.2673  222.2674 H   0  0  0  0  0  0  0  0  0  0  0  0
  136.0191   69.3101  220.9929 H   0  0  0  0  0  0  0  0  0  0  0  0
  139.9780   76.2034  219.3991 H   0  0  0  0  0  0  0  0  0  0  0  0
  139.1524   77.5203  220.3294 H   0  0  0  0  0  0  0  0  0  0  0  0
  142.1547   77.1778  219.8822 H   0  0  0  0  0  0  0  0  0  0  0  0
  141.0870   78.4646  219.2165 H   0  0  0  0  0  0  0  0  0  0  0  0
  142.0770   80.4080  220.2264 H   0  0  0  0  0  0  0  0  0  0  0  0
  142.4604   81.7438  222.2998 H   0  0  0  0  0  0  0  0  0  0  0  0
  142.1118   80.7035  224.5402 H   0  0  0  0  0  0  0  0  0  0  0  0
  141.3953   78.3197  224.7158 H   0  0  0  0  0  0  0  0  0  0  0  0
  141.8225   75.9729  222.7708 H   0  0  0  0  0  0  0  0  0  0  0  0
  140.2503   76.4681  223.5480 H   0  0  0  0  0  0  0  0  0  0  0  0
  141.7543   71.6921  224.0998 H   0  0  0  0  0  0  0  0  0  0  0  0
  140.6027   72.9563  224.6938 H   0  0  0  0  0  0  0  0  0  0  0  0
  1  2  2  0
  2  3  1  0
  3  4  2  0
  4  5  1  0
  5  6  2  0
  5  7  1  0
  7  8  1  0
  8  9  1  0
  9 10  1  0
 10 11  2  0
 11 12  1  0
 12 13  1  0
 13 14  1  0
 14 15  1  0
 15 16  1  0
 16 17  1  0
 17 18  1  0
 18 19  1  0
 19 20  1  0
 20 21  1  0
 12 22  2  0
 22 23  1  0
 23 24  1  0
 24 25  1  0
 25 26  1  0
 26 27  1  0
 27 28  2  0
 28 29  1  0
 29 30  2  0
 30 31  1  0
 31 32  2  0
 32 33  1  0
 23 34  2  0
  9 35  1  0
  6  1  1  0
 34 10  1  0
 35  4  1  0
 21 16  1  0
 33 24  1  0
 32 27  1  0
  1 36  1  0
  2 37  1  0
  3 38  1  0
  6 39  1  0
  7 40  1  0
  7 41  1  0
  8 42  1  0
  8 43  1  0
 13 44  1  0
 13 45  1  0
 14 46  1  0
 14 47  1  0
 15 48  1  0
 15 49  1  0
 16 50  1  0
 17 51  1  0
 17 52  1  0
 18 53  1  0
 18 54  1  0
 20 55  1  0
 20 56  1  0
 21 57  1  0
 21 58  1  0
 25 59  1  0
 25 60  1  0
 26 61  1  0
 26 62  1  0
 28 63  1  0
 29 64  1  0
 30 65  1  0
 31 66  1  0
 33 67  1  0
 33 68  1  0
 35 69  1  0
 35 70  1  0
M  CHG  2  13   1  16   1
M  END
>  <UniqueID>  (67) 
285

>  <SMILES>  (67) 
c1ccc2c(c1)CCN(c1nc([NH2+]CC[NH+]3CCOCC3)nc(N3CCc4ccccc4C3)n1)C2

>  <Energy>  (67) 
93.57553970320627

>  <Genealogy>  (67) 
c1ccc2c(c1)CCN(c1nc([NH2+]CC[NH+]3CCOCC3)nc(N3CCc4ccccc4C3)n1)C2 (protonated)
c1ccc2c(c1)CCN(c1nc([NH2+]CC[NH+]3CCOCC3)nc(N3CCc4ccccc4C3)n1)C2 (3D coordinates assigned)
c1ccc2c(c1)CCN(c1nc([NH2+]CC[NH+]3CCOCC3)nc(N3CCc4ccccc4C3)n1)C2 (nonaromatic ring conformer: 93.57553970320627 kcal/mol)

>  <smiles>  (67) 
c1ccc2c(c1)CCN(c1nc(NCCN3CCOCC3)nc(N3CCc4ccccc4C3)n1)C2

>  <score_type>  (67) 
oracle

>  <origin>  (67) 
autodockgpu

>  <m_score__min__energy>  (67) 
-9.8399999999999999

>  <m_primary>  (67) 
energy

>  <meeko>  (67) 
{"free_energy": -8.5, "intermolecular_energy": -10.29, "internal_energy": -1.51, "cluster_size": 15, "cluster_id": 1, "rank_in_cluster": 15}

>  <energy>  (67) 
-9.66

>  <cluster_rmsd>  (67) 
0.31

>  <rmsd>  (67) 
270.45

>  <cluster>  (67) 
1

$$$$
XKJAOWLAVYPRNA-HDZKEISTNA-P
     RDKit          3D

 70 75  0  0  0  0  0  0  0  0999 V2000
  140.0060   69.7000  227.7600 C   0  0  0  0  0  0  0  0  0  0  0  0
  141.0380   70.6350  227.6810 C   0  0  0  0  0  0  0  0  0  0  0  0
  141.2460   71.3510  226.4990 C   0  0  0  0  0  0  0  0  0  0  0  0
  140.4150   71.1450  225.3860 C   0  0  0  0  0  0  0  0  0  0  0  0
  139.3830   70.1790  225.4590 C   0  0  0  0  0  0  0  0  0  0  0  0
  139.1790   69.4760  226.6580 C   0  0  0  0  0  0  0  0  0  0  0  0
  138.4320   69.9580  224.3080 C   0  0  0  0  0  0  0  0  0  0  0  0
  139.0360   70.4160  222.9830 C   0  0  0  0  0  0  0  0  0  0  0  0
  139.5940   71.7610  223.1480 N   0  0  0  0  0  0  0  0  0  0  0  0
  139.1380   72.8720  222.3450 C   0  0  0  0  0  0  0  0  0  0  0  0
  137.9680   72.7910  221.6620 N   0  0  0  0  0  0  0  0  0  0  0  0
  137.5180   73.8430  220.9310 C   0  0  0  0  0  0  0  0  0  0  0  0
  136.2540   73.7610  220.2500 N   0  0  0  0  0  0  0  0  0  0  0  0
  135.1430   73.6130  221.2060 C   0  0  0  0  0  0  0  0  0  0  0  0
  135.2160   74.6600  222.3380 C   0  0  0  0  0  0  0  0  0  0  0  0
  135.7060   74.1440  223.6450 N   0  0  0  0  0  0  0  0  0  0  0  0
  135.8030   75.1730  224.7130 C   0  0  0  0  0  0  0  0  0  0  0  0
  134.5930   75.1780  225.6590 C   0  0  0  0  0  0  0  0  0  0  0  0
  134.3670   73.8850  226.1740 O   0  0  0  0  0  0  0  0  0  0  0  0
  133.9530   73.0450  225.1210 C   0  0  0  0  0  0  0  0  0  0  0  0
  135.0700   72.8680  224.0760 C   0  0  0  0  0  0  0  0  0  0  0  0
  138.2480   74.9870  220.8830 N   0  0  0  0  0  0  0  0  0  0  0  0
  139.4240   75.0830  221.5550 C   0  0  0  0  0  0  0  0  0  0  0  0
  140.1970   76.3010  221.5070 N   0  0  0  0  0  0  0  0  0  0  0  0
  140.1830   77.1150  220.2780 C   0  0  0  0  0  0  0  0  0  0  0  0
  141.4540   77.9540  220.1480 C   0  0  0  0  0  0  0  0  0  0  0  0
  141.6730   78.7470  221.3990 C   0  0  0  0  0  0  0  0  0  0  0  0
  142.1830   80.0530  221.3430 C   0  0  0  0  0  0  0  0  0  0  0  0
  142.4040   80.7710  222.5210 C   0  0  0  0  0  0  0  0  0  0  0  0
  142.1320   80.1850  223.7590 C   0  0  0  0  0  0  0  0  0  0  0  0
  141.6430   78.8770  223.8230 C   0  0  0  0  0  0  0  0  0  0  0  0
  141.4040   78.1530  222.6450 C   0  0  0  0  0  0  0  0  0  0  0  0
  140.9320   76.7220  222.7150 C   0  0  0  0  0  0  0  0  0  0  0  0
  139.8600   74.0220  222.2880 N   0  0  0  0  0  0  0  0  0  0  0  0
  140.6860   71.9240  224.1180 C   0  0  0  0  0  0  0  0  0  0  0  0
  139.8436   69.1385  228.6918 H   0  0  0  0  0  0  0  0  0  0  0  0
  141.6891   70.8091  228.5503 H   0  0  0  0  0  0  0  0  0  0  0  0
  142.0666   72.0812  226.4401 H   0  0  0  0  0  0  0  0  0  0  0  0
  138.3614   68.7435  226.7290 H   0  0  0  0  0  0  0  0  0  0  0  0
  138.1961   68.8857  224.2409 H   0  0  0  0  0  0  0  0  0  0  0  0
  137.5236   70.5496  224.4943 H   0  0  0  0  0  0  0  0  0  0  0  0
  139.8338   69.7209  222.6824 H   0  0  0  0  0  0  0  0  0  0  0  0
  138.2566   70.4315  222.2069 H   0  0  0  0  0  0  0  0  0  0  0  0
  136.2740   72.9240  219.6220 H   0  0  0  0  0  0  0  0  0  0  0  0
  136.1080   74.6100  219.6540 H   0  0  0  0  0  0  0  0  0  0  0  0
  134.1916   73.7365  220.6678 H   0  0  0  0  0  0  0  0  0  0  0  0
  135.2142   72.6136  221.6601 H   0  0  0  0  0  0  0  0  0  0  0  0
  135.8922   75.4650  222.0144 H   0  0  0  0  0  0  0  0  0  0  0  0
  134.1833   74.9976  222.5098 H   0  0  0  0  0  0  0  0  0  0  0  0
  136.7010   73.8840  223.4370 H   0  0  0  0  0  0  0  0  0  0  0  0
  136.7092   74.9780  225.3053 H   0  0  0  0  0  0  0  0  0  0  0  0
  135.8362   76.1552  224.2190 H   0  0  0  0  0  0  0  0  0  0  0  0
  134.7862   75.8710  226.4911 H   0  0  0  0  0  0  0  0  0  0  0  0
  133.7029   75.4997  225.0985 H   0  0  0  0  0  0  0  0  0  0  0  0
  133.6868   72.0599  225.5317 H   0  0  0  0  0  0  0  0  0  0  0  0
  133.0854   73.5076  224.6277 H   0  0  0  0  0  0  0  0  0  0  0  0
  135.8487   72.2225  224.5084 H   0  0  0  0  0  0  0  0  0  0  0  0
  134.6024   72.4285  223.1826 H   0  0  0  0  0  0  0  0  0  0  0  0
  140.1050   76.4470  219.4076 H   0  0  0  0  0  0  0  0  0  0  0  0
  139.3218   77.7977  220.3257 H   0  0  0  0  0  0  0  0  0  0  0  0
  142.3144   77.2889  219.9827 H   0  0  0  0  0  0  0  0  0  0  0  0
  141.3469   78.6430  219.2972 H   0  0  0  0  0  0  0  0  0  0  0  0
  142.4093   80.5125  220.3695 H   0  0  0  0  0  0  0  0  0  0  0  0
  142.7927   81.7989  222.4732 H   0  0  0  0  0  0  0  0  0  0  0  0
  142.3028   80.7534  224.6851 H   0  0  0  0  0  0  0  0  0  0  0  0
  141.4448   78.4135  224.8007 H   0  0  0  0  0  0  0  0  0  0  0  0
  141.8084   76.0688  222.8382 H   0  0  0  0  0  0  0  0  0  0  0  0
  140.2404   76.6434  223.5668 H   0  0  0  0  0  0  0  0  0  0  0  0
  141.6221   71.5618  223.6680 H   0  0  0  0  0  0  0  0  0  0  0  0
  140.7655   72.9904  224.3757 H   0  0  0  0  0  0  0  0  0  0  0  0
  1  2  2  0
  2  3  1  0
  3  4  2  0
  4  5  1  0
  5  6  2  0
  5  7  1  0
  7  8  1  0
  8  9  1  0
  9 10  1  0
 10 11  2  0
 11 12  1  0
 12 13  1  0
 13 14  1  0
 14 15  1  0
 15 16  1  0
 16 17  1  0
 17 18  1  0
 18 19  1  0
 19 20  1  0
 20 21  1  0
 12 22  2  0
 22 23  1  0
 23 24  1  0
 24 25  1  0
 25 26  1  0
 26 27  1  0
 27 28  2  0
 28 29  1  0
 29 30  2  0
 30 31  1  0
 31 32  2  0
 32 33  1  0
 23 34  2  0
  9 35  1  0
  6  1  1  0
 34 10  1  0
 35  4  1  0
 21 16  1  0
 33 24  1  0
 32 27  1  0
  1 36  1  0
  2 37  1  0
  3 38  1  0
  6 39  1  0
  7 40  1  0
  7 41  1  0
  8 42  1  0
  8 43  1  0
 13 44  1  0
 13 45  1  0
 14 46  1  0
 14 47  1  0
 15 48  1  0
 15 49  1  0
 16 50  1  0
 17 51  1  0
 17 52  1  0
 18 53  1  0
 18 54  1  0
 20 55  1  0
 20 56  1  0
 21 57  1  0
 21 58  1  0
 25 59  1  0
 25 60  1  0
 26 61  1  0
 26 62  1  0
 28 63  1  0
 29 64  1  0
 30 65  1  0
 31 66  1  0
 33 67  1  0
 33 68  1  0
 35 69  1  0
 35 70  1  0
M  CHG  2  13   1  16   1
M  END
>  <UniqueID>  (68) 
285

>  <SMILES>  (68) 
c1ccc2c(c1)CCN(c1nc([NH2+]CC[NH+]3CCOCC3)nc(N3CCc4ccccc4C3)n1)C2

>  <Energy>  (68) 
93.57553970320627

>  <Genealogy>  (68) 
c1ccc2c(c1)CCN(c1nc([NH2+]CC[NH+]3CCOCC3)nc(N3CCc4ccccc4C3)n1)C2 (protonated)
c1ccc2c(c1)CCN(c1nc([NH2+]CC[NH+]3CCOCC3)nc(N3CCc4ccccc4C3)n1)C2 (3D coordinates assigned)
c1ccc2c(c1)CCN(c1nc([NH2+]CC[NH+]3CCOCC3)nc(N3CCc4ccccc4C3)n1)C2 (nonaromatic ring conformer: 93.57553970320627 kcal/mol)

>  <smiles>  (68) 
c1ccc2c(c1)CCN(c1nc(NCCN3CCOCC3)nc(N3CCc4ccccc4C3)n1)C2

>  <score_type>  (68) 
oracle

>  <origin>  (68) 
autodockgpu

>  <m_score__min__energy>  (68) 
-9.8399999999999999

>  <m_primary>  (68) 
energy

>  <meeko>  (68) 
{"free_energy": -9.75, "intermolecular_energy": -11.54, "internal_energy": -1.08, "cluster_size": 15, "cluster_id": 1, "rank_in_cluster": 5}

>  <energy>  (68) 
-9.65

>  <cluster_rmsd>  (68) 
0.33

>  <rmsd>  (68) 
270.43

>  <cluster>  (68) 
1

$$$$
XKJAOWLAVYPRNA-HDZKEISTNA-P
     RDKit          3D

 70 75  0  0  0  0  0  0  0  0999 V2000
  137.4870   80.3620  223.8750 C   0  0  0  0  0  0  0  0  0  0  0  0
  138.7380   80.8790  224.2090 C   0  0  0  0  0  0  0  0  0  0  0  0
  139.9010   80.2240  223.7950 C   0  0  0  0  0  0  0  0  0  0  0  0
  139.8220   79.0490  223.0300 C   0  0  0  0  0  0  0  0  0  0  0  0
  138.5520   78.5110  222.7120 C   0  0  0  0  0  0  0  0  0  0  0  0
  137.3920   79.1870  223.1260 C   0  0  0  0  0  0  0  0  0  0  0  0
  138.4140   77.2790  221.8510 C   0  0  0  0  0  0  0  0  0  0  0  0
  139.6820   76.4290  221.8770 C   0  0  0  0  0  0  0  0  0  0  0  0
  140.8450   77.2910  221.6410 N   0  0  0  0  0  0  0  0  0  0  0  0
  141.7400   77.0650  220.5300 C   0  0  0  0  0  0  0  0  0  0  0  0
  141.8980   78.0130  219.5710 N   0  0  0  0  0  0  0  0  0  0  0  0
  142.7620   77.8200  218.5420 C   0  0  0  0  0  0  0  0  0  0  0  0
  142.9550   78.8510  217.5580 N   0  0  0  0  0  0  0  0  0  0  0  0
  142.6750   80.1830  218.1220 C   0  0  0  0  0  0  0  0  0  0  0  0
  141.1590   80.4400  218.2650 C   0  0  0  0  0  0  0  0  0  0  0  0
  140.6360   80.3740  219.6560 N   0  0  0  0  0  0  0  0  0  0  0  0
  141.5130   81.0140  220.6720 C   0  0  0  0  0  0  0  0  0  0  0  0
  141.0750   82.4390  221.0350 C   0  0  0  0  0  0  0  0  0  0  0  0
  139.7160   82.4570  221.4080 O   0  0  0  0  0  0  0  0  0  0  0  0
  138.9330   82.1550  220.2760 C   0  0  0  0  0  0  0  0  0  0  0  0
  139.1940   80.7200  219.7840 C   0  0  0  0  0  0  0  0  0  0  0  0
  143.4730   76.6650  218.4710 N   0  0  0  0  0  0  0  0  0  0  0  0
  143.3220   75.7040  219.4190 C   0  0  0  0  0  0  0  0  0  0  0  0
  144.0820   74.4790  219.3450 N   0  0  0  0  0  0  0  0  0  0  0  0
  144.6700   73.9200  220.5760 C   0  0  0  0  0  0  0  0  0  0  0  0
  145.8940   73.0560  220.2690 C   0  0  0  0  0  0  0  0  0  0  0  0
  145.5450   72.0250  219.2400 C   0  0  0  0  0  0  0  0  0  0  0  0
  146.0790   70.7290  219.3110 C   0  0  0  0  0  0  0  0  0  0  0  0
  145.7620   69.7860  218.3300 C   0  0  0  0  0  0  0  0  0  0  0  0
  144.9260   70.1340  217.2680 C   0  0  0  0  0  0  0  0  0  0  0  0
  144.4070   71.4290  217.1800 C   0  0  0  0  0  0  0  0  0  0  0  0
  144.7070   72.3790  218.1690 C   0  0  0  0  0  0  0  0  0  0  0  0
  144.1950   73.7930  218.0430 C   0  0  0  0  0  0  0  0  0  0  0  0
  142.4570   75.9140  220.4470 N   0  0  0  0  0  0  0  0  0  0  0  0
  141.1030   78.3570  222.6190 C   0  0  0  0  0  0  0  0  0  0  0  0
  136.5735   80.8803  224.2019 H   0  0  0  0  0  0  0  0  0  0  0  0
  138.8097   81.8043  224.7995 H   0  0  0  0  0  0  0  0  0  0  0  0
  140.8849   80.6316  224.0702 H   0  0  0  0  0  0  0  0  0  0  0  0
  136.4024   78.7882  222.8585 H   0  0  0  0  0  0  0  0  0  0  0  0
  137.5726   76.6761  222.2231 H   0  0  0  0  0  0  0  0  0  0  0  0
  138.2382   77.6022  220.8144 H   0  0  0  0  0  0  0  0  0  0  0  0
  139.7783   75.9417  222.8585 H   0  0  0  0  0  0  0  0  0  0  0  0
  139.6272   75.6592  221.0931 H   0  0  0  0  0  0  0  0  0  0  0  0
  142.2950   78.6740  216.7650 H   0  0  0  0  0  0  0  0  0  0  0  0
  143.9310   78.8140  217.1820 H   0  0  0  0  0  0  0  0  0  0  0  0
  143.1432   80.2545  219.1148 H   0  0  0  0  0  0  0  0  0  0  0  0
  143.0857   80.9376  217.4350 H   0  0  0  0  0  0  0  0  0  0  0  0
  140.9445   81.4430  217.8676 H   0  0  0  0  0  0  0  0  0  0  0  0
  140.6579   79.6327  217.7108 H   0  0  0  0  0  0  0  0  0  0  0  0
  140.6810   79.3490  219.8760 H   0  0  0  0  0  0  0  0  0  0  0  0
  141.4972   80.4000  221.5845 H   0  0  0  0  0  0  0  0  0  0  0  0
  142.5215   81.0819  220.2380 H   0  0  0  0  0  0  0  0  0  0  0  0
  141.6858   82.8028  221.8744 H   0  0  0  0  0  0  0  0  0  0  0  0
  141.2120   83.0881  220.1575 H   0  0  0  0  0  0  0  0  0  0  0  0
  137.8695   82.2563  220.5382 H   0  0  0  0  0  0  0  0  0  0  0  0
  139.2026   82.8535  219.4701 H   0  0  0  0  0  0  0  0  0  0  0  0
  138.7331   80.0211  220.4975 H   0  0  0  0  0  0  0  0  0  0  0  0
  138.7596   80.6464  218.7761 H   0  0  0  0  0  0  0  0  0  0  0  0
  144.9723   74.7469  221.2354 H   0  0  0  0  0  0  0  0  0  0  0  0
  143.9139   73.2872  221.0637 H   0  0  0  0  0  0  0  0  0  0  0  0
  146.7040   73.6940  219.8859 H   0  0  0  0  0  0  0  0  0  0  0  0
  146.2218   72.5519  221.1901 H   0  0  0  0  0  0  0  0  0  0  0  0
  146.7480   70.4553  220.1402 H   0  0  0  0  0  0  0  0  0  0  0  0
  146.1721   68.7674  218.3948 H   0  0  0  0  0  0  0  0  0  0  0  0
  144.6752   69.3883  216.4992 H   0  0  0  0  0  0  0  0  0  0  0  0
  143.7614   71.7045  216.3330 H   0  0  0  0  0  0  0  0  0  0  0  0
  144.8874   74.3619  217.4050 H   0  0  0  0  0  0  0  0  0  0  0  0
  143.1864   73.7422  217.6070 H   0  0  0  0  0  0  0  0  0  0  0  0
  141.5751   77.9185  223.5105 H   0  0  0  0  0  0  0  0  0  0  0  0
  141.7655   79.1017  222.1536 H   0  0  0  0  0  0  0  0  0  0  0  0
  1  2  2  0
  2  3  1  0
  3  4  2  0
  4  5  1  0
  5  6  2  0
  5  7  1  0
  7  8  1  0
  8  9  1  0
  9 10  1  0
 10 11  2  0
 11 12  1  0
 12 13  1  0
 13 14  1  0
 14 15  1  0
 15 16  1  0
 16 17  1  0
 17 18  1  0
 18 19  1  0
 19 20  1  0
 20 21  1  0
 12 22  2  0
 22 23  1  0
 23 24  1  0
 24 25  1  0
 25 26  1  0
 26 27  1  0
 27 28  2  0
 28 29  1  0
 29 30  2  0
 30 31  1  0
 31 32  2  0
 32 33  1  0
 23 34  2  0
  9 35  1  0
  6  1  1  0
 34 10  1  0
 35  4  1  0
 21 16  1  0
 33 24  1  0
 32 27  1  0
  1 36  1  0
  2 37  1  0
  3 38  1  0
  6 39  1  0
  7 40  1  0
  7 41  1  0
  8 42  1  0
  8 43  1  0
 13 44  1  0
 13 45  1  0
 14 46  1  0
 14 47  1  0
 15 48  1  0
 15 49  1  0
 16 50  1  0
 17 51  1  0
 17 52  1  0
 18 53  1  0
 18 54  1  0
 20 55  1  0
 20 56  1  0
 21 57  1  0
 21 58  1  0
 25 59  1  0
 25 60  1  0
 26 61  1  0
 26 62  1  0
 28 63  1  0
 29 64  1  0
 30 65  1  0
 31 66  1  0
 33 67  1  0
 33 68  1  0
 35 69  1  0
 35 70  1  0
M  CHG  2  13   1  16   1
M  END
>  <UniqueID>  (69) 
285

>  <SMILES>  (69) 
c1ccc2c(c1)CCN(c1nc([NH2+]CC[NH+]3CCOCC3)nc(N3CCc4ccccc4C3)n1)C2

>  <Energy>  (69) 
93.57553970320627

>  <Genealogy>  (69) 
c1ccc2c(c1)CCN(c1nc([NH2+]CC[NH+]3CCOCC3)nc(N3CCc4ccccc4C3)n1)C2 (protonated)
c1ccc2c(c1)CCN(c1nc([NH2+]CC[NH+]3CCOCC3)nc(N3CCc4ccccc4C3)n1)C2 (3D coordinates assigned)
c1ccc2c(c1)CCN(c1nc([NH2+]CC[NH+]3CCOCC3)nc(N3CCc4ccccc4C3)n1)C2 (nonaromatic ring conformer: 93.57553970320627 kcal/mol)

>  <smiles>  (69) 
c1ccc2c(c1)CCN(c1nc(NCCN3CCOCC3)nc(N3CCc4ccccc4C3)n1)C2

>  <score_type>  (69) 
oracle

>  <origin>  (69) 
autodockgpu

>  <m_score__min__energy>  (69) 
-9.8399999999999999

>  <m_primary>  (69) 
energy

>  <meeko>  (69) 
{"free_energy": -7.81, "intermolecular_energy": -9.6, "internal_energy": -1.91, "cluster_size": 1, "cluster_id": 5, "rank_in_cluster": 1}

>  <energy>  (69) 
-9.55

>  <cluster_rmsd>  (69) 
0.29

>  <rmsd>  (69) 
270.46

>  <cluster>  (69) 
1

$$$$
XKJAOWLAVYPRNA-HDZKEISTNA-P
     RDKit          3D

 70 75  0  0  0  0  0  0  0  0999 V2000
  141.7890   81.2620  221.6320 C   0  0  0  0  0  0  0  0  0  0  0  0
  142.4150   80.7230  222.7560 C   0  0  0  0  0  0  0  0  0  0  0  0
  142.1800   79.3940  223.1190 C   0  0  0  0  0  0  0  0  0  0  0  0
  141.3230   78.5870  222.3520 C   0  0  0  0  0  0  0  0  0  0  0  0
  140.6690   79.1420  221.2260 C   0  0  0  0  0  0  0  0  0  0  0  0
  140.9240   80.4770  220.8670 C   0  0  0  0  0  0  0  0  0  0  0  0
  139.7790   78.3030  220.3420 C   0  0  0  0  0  0  0  0  0  0  0  0
  139.2440   77.0790  221.0820 C   0  0  0  0  0  0  0  0  0  0  0  0
  140.3550   76.4020  221.7590 N   0  0  0  0  0  0  0  0  0  0  0  0
  140.6860   75.0250  221.4750 C   0  0  0  0  0  0  0  0  0  0  0  0
  141.4070   74.7060  220.3700 N   0  0  0  0  0  0  0  0  0  0  0  0
  141.7490   73.4170  220.1150 C   0  0  0  0  0  0  0  0  0  0  0  0
  142.5520   73.0980  218.9660 N   0  0  0  0  0  0  0  0  0  0  0  0
  142.1360   73.8820  217.7900 C   0  0  0  0  0  0  0  0  0  0  0  0
  142.7880   75.2820  217.7740 C   0  0  0  0  0  0  0  0  0  0  0  0
  141.9370   76.3830  218.3010 N   0  0  0  0  0  0  0  0  0  0  0  0
  142.6960   77.5140  218.8950 C   0  0  0  0  0  0  0  0  0  0  0  0
  142.8730   78.6950  217.9300 C   0  0  0  0  0  0  0  0  0  0  0  0
  141.6260   79.0960  217.4090 O   0  0  0  0  0  0  0  0  0  0  0  0
  141.1320   78.0700  216.5800 C   0  0  0  0  0  0  0  0  0  0  0  0
  140.8350   76.7930  217.3870 C   0  0  0  0  0  0  0  0  0  0  0  0
  141.3640   72.4380  220.9740 N   0  0  0  0  0  0  0  0  0  0  0  0
  140.6370   72.7400  222.0810 C   0  0  0  0  0  0  0  0  0  0  0  0
  140.2320   71.6990  222.9950 N   0  0  0  0  0  0  0  0  0  0  0  0
  139.5810   70.4870  222.4660 C   0  0  0  0  0  0  0  0  0  0  0  0
  138.6900   69.8260  223.5170 C   0  0  0  0  0  0  0  0  0  0  0  0
  139.4690   69.5960  224.7750 C   0  0  0  0  0  0  0  0  0  0  0  0
  139.2690   68.4390  225.5440 C   0  0  0  0  0  0  0  0  0  0  0  0
  139.9870   68.2510  226.7280 C   0  0  0  0  0  0  0  0  0  0  0  0
  140.8940   69.2220  227.1570 C   0  0  0  0  0  0  0  0  0  0  0  0
  141.0830   70.3860  226.4070 C   0  0  0  0  0  0  0  0  0  0  0  0
  140.3780   70.5770  225.2090 C   0  0  0  0  0  0  0  0  0  0  0  0
  140.5380   71.8590  224.4300 C   0  0  0  0  0  0  0  0  0  0  0  0
  140.3060   74.0360  222.3270 N   0  0  0  0  0  0  0  0  0  0  0  0
  141.0780   77.1600  222.7900 C   0  0  0  0  0  0  0  0  0  0  0  0
  141.9772   82.3078  221.3477 H   0  0  0  0  0  0  0  0  0  0  0  0
  143.0945   81.3448  223.3574 H   0  0  0  0  0  0  0  0  0  0  0  0
  142.6694   78.9769  224.0115 H   0  0  0  0  0  0  0  0  0  0  0  0
  140.4390   80.9060  219.9778 H   0  0  0  0  0  0  0  0  0  0  0  0
  138.9299   78.9161  220.0057 H   0  0  0  0  0  0  0  0  0  0  0  0
  140.3752   77.9539  219.4860 H   0  0  0  0  0  0  0  0  0  0  0  0
  138.4979   77.3956  221.8257 H   0  0  0  0  0  0  0  0  0  0  0  0
  138.7727   76.3903  220.3654 H   0  0  0  0  0  0  0  0  0  0  0  0
  142.4300   72.0800  218.7530 H   0  0  0  0  0  0  0  0  0  0  0  0
  143.5650   73.2660  219.1730 H   0  0  0  0  0  0  0  0  0  0  0  0
  142.4315   73.3412  216.8789 H   0  0  0  0  0  0  0  0  0  0  0  0
  141.0448   74.0135  217.8354 H   0  0  0  0  0  0  0  0  0  0  0  0
  143.7033   75.2382  218.3826 H   0  0  0  0  0  0  0  0  0  0  0  0
  142.9747   75.5198  216.7164 H   0  0  0  0  0  0  0  0  0  0  0  0
  141.4500   75.9340  219.1150 H   0  0  0  0  0  0  0  0  0  0  0  0
  142.1564   77.8679  219.7858 H   0  0  0  0  0  0  0  0  0  0  0  0
  143.7004   77.1401  219.1426 H   0  0  0  0  0  0  0  0  0  0  0  0
  143.3285   79.5385  218.4694 H   0  0  0  0  0  0  0  0  0  0  0  0
  143.5225   78.3822  217.0992 H   0  0  0  0  0  0  0  0  0  0  0  0
  140.2045   78.4136  216.0987 H   0  0  0  0  0  0  0  0  0  0  0  0
  141.8974   77.8341  215.8260 H   0  0  0  0  0  0  0  0  0  0  0  0
  139.9321   76.9676  217.9906 H   0  0  0  0  0  0  0  0  0  0  0  0
  140.7070   75.9790  216.6582 H   0  0  0  0  0  0  0  0  0  0  0  0
  138.9651   70.7623  221.5972 H   0  0  0  0  0  0  0  0  0  0  0  0
  140.3653   69.7712  222.1788 H   0  0  0  0  0  0  0  0  0  0  0  0
  137.8335   70.4815  223.7332 H   0  0  0  0  0  0  0  0  0  0  0  0
  138.3316   68.8600  223.1317 H   0  0  0  0  0  0  0  0  0  0  0  0
  138.5457   67.6788  225.2140 H   0  0  0  0  0  0  0  0  0  0  0  0
  139.8376   67.3375  227.3224 H   0  0  0  0  0  0  0  0  0  0  0  0
  141.4610   69.0705  228.0873 H   0  0  0  0  0  0  0  0  0  0  0  0
  141.7870   71.1552  226.7572 H   0  0  0  0  0  0  0  0  0  0  0  0
  139.8582   72.6138  224.8521 H   0  0  0  0  0  0  0  0  0  0  0  0
  141.5910   72.1665  224.5115 H   0  0  0  0  0  0  0  0  0  0  0  0
  140.4819   77.1662  223.7144 H   0  0  0  0  0  0  0  0  0  0  0  0
  142.0515   76.6763  222.9582 H   0  0  0  0  0  0  0  0  0  0  0  0
  1  2  2  0
  2  3  1  0
  3  4  2  0
  4  5  1  0
  5  6  2  0
  5  7  1  0
  7  8  1  0
  8  9  1  0
  9 10  1  0
 10 11  2  0
 11 12  1  0
 12 13  1  0
 13 14  1  0
 14 15  1  0
 15 16  1  0
 16 17  1  0
 17 18  1  0
 18 19  1  0
 19 20  1  0
 20 21  1  0
 12 22  2  0
 22 23  1  0
 23 24  1  0
 24 25  1  0
 25 26  1  0
 26 27  1  0
 27 28  2  0
 28 29  1  0
 29 30  2  0
 30 31  1  0
 31 32  2  0
 32 33  1  0
 23 34  2  0
  9 35  1  0
  6  1  1  0
 34 10  1  0
 35  4  1  0
 21 16  1  0
 33 24  1  0
 32 27  1  0
  1 36  1  0
  2 37  1  0
  3 38  1  0
  6 39  1  0
  7 40  1  0
  7 41  1  0
  8 42  1  0
  8 43  1  0
 13 44  1  0
 13 45  1  0
 14 46  1  0
 14 47  1  0
 15 48  1  0
 15 49  1  0
 16 50  1  0
 17 51  1  0
 17 52  1  0
 18 53  1  0
 18 54  1  0
 20 55  1  0
 20 56  1  0
 21 57  1  0
 21 58  1  0
 25 59  1  0
 25 60  1  0
 26 61  1  0
 26 62  1  0
 28 63  1  0
 29 64  1  0
 30 65  1  0
 31 66  1  0
 33 67  1  0
 33 68  1  0
 35 69  1  0
 35 70  1  0
M  CHG  2  13   1  16   1
M  END
>  <UniqueID>  (70) 
285

>  <SMILES>  (70) 
c1ccc2c(c1)CCN(c1nc([NH2+]CC[NH+]3CCOCC3)nc(N3CCc4ccccc4C3)n1)C2

>  <Energy>  (70) 
93.57553970320627

>  <Genealogy>  (70) 
c1ccc2c(c1)CCN(c1nc([NH2+]CC[NH+]3CCOCC3)nc(N3CCc4ccccc4C3)n1)C2 (protonated)
c1ccc2c(c1)CCN(c1nc([NH2+]CC[NH+]3CCOCC3)nc(N3CCc4ccccc4C3)n1)C2 (3D coordinates assigned)
c1ccc2c(c1)CCN(c1nc([NH2+]CC[NH+]3CCOCC3)nc(N3CCc4ccccc4C3)n1)C2 (nonaromatic ring conformer: 93.57553970320627 kcal/mol)

>  <smiles>  (70) 
c1ccc2c(c1)CCN(c1nc(NCCN3CCOCC3)nc(N3CCc4ccccc4C3)n1)C2

>  <score_type>  (70) 
oracle

>  <origin>  (70) 
autodockgpu

>  <m_score__min__energy>  (70) 
-9.8399999999999999

>  <m_primary>  (70) 
energy

>  <meeko>  (70) 
{"free_energy": -8.12, "intermolecular_energy": -9.91, "internal_energy": -1.75, "cluster_size": 1, "cluster_id": 3, "rank_in_cluster": 1}

>  <energy>  (70) 
-9.44

>  <cluster_rmsd>  (70) 
0.57

>  <rmsd>  (70) 
270.37

>  <cluster>  (70) 
1

$$$$
XKJAOWLAVYPRNA-HDZKEISTNA-P
     RDKit          3D

 70 75  0  0  0  0  0  0  0  0999 V2000
  139.8700   69.4240  227.6380 C   0  0  0  0  0  0  0  0  0  0  0  0
  140.8300   70.4340  227.6880 C   0  0  0  0  0  0  0  0  0  0  0  0
  141.0830   71.2170  226.5580 C   0  0  0  0  0  0  0  0  0  0  0  0
  140.3670   71.0030  225.3690 C   0  0  0  0  0  0  0  0  0  0  0  0
  139.4090   69.9630  225.3120 C   0  0  0  0  0  0  0  0  0  0  0  0
  139.1590   69.1910  226.4590 C   0  0  0  0  0  0  0  0  0  0  0  0
  138.5790   69.7260  224.0740 C   0  0  0  0  0  0  0  0  0  0  0  0
  139.2560   70.2880  222.8260 C   0  0  0  0  0  0  0  0  0  0  0  0
  139.6940   71.6610  223.0930 N   0  0  0  0  0  0  0  0  0  0  0  0
  139.2240   72.7720  222.2980 C   0  0  0  0  0  0  0  0  0  0  0  0
  138.0520   72.6830  221.6190 N   0  0  0  0  0  0  0  0  0  0  0  0
  137.5900   73.7350  220.8960 C   0  0  0  0  0  0  0  0  0  0  0  0
  136.3250   73.6440  220.2180 N   0  0  0  0  0  0  0  0  0  0  0  0
  135.2050   73.8810  221.1470 C   0  0  0  0  0  0  0  0  0  0  0  0
  135.0970   72.7670  222.2110 C   0  0  0  0  0  0  0  0  0  0  0  0
  135.6990   73.0950  223.5320 N   0  0  0  0  0  0  0  0  0  0  0  0
  135.4950   74.5020  223.9660 C   0  0  0  0  0  0  0  0  0  0  0  0
  134.3230   74.6680  224.9440 C   0  0  0  0  0  0  0  0  0  0  0  0
  134.4610   73.7820  226.0320 O   0  0  0  0  0  0  0  0  0  0  0  0
  134.3080   72.4620  225.5620 C   0  0  0  0  0  0  0  0  0  0  0  0
  135.4400   72.0810  224.5900 C   0  0  0  0  0  0  0  0  0  0  0  0
  138.3080   74.8870  220.8510 N   0  0  0  0  0  0  0  0  0  0  0  0
  139.4860   74.9900  221.5210 C   0  0  0  0  0  0  0  0  0  0  0  0
  140.2460   76.2160  221.4770 N   0  0  0  0  0  0  0  0  0  0  0  0
  140.3390   76.9610  220.2080 C   0  0  0  0  0  0  0  0  0  0  0  0
  141.6080   77.8120  220.1510 C   0  0  0  0  0  0  0  0  0  0  0  0
  141.6990   78.6760  221.3710 C   0  0  0  0  0  0  0  0  0  0  0  0
  142.1970   79.9860  221.2900 C   0  0  0  0  0  0  0  0  0  0  0  0
  142.2970   80.7700  222.4410 C   0  0  0  0  0  0  0  0  0  0  0  0
  141.9160   80.2490  223.6790 C   0  0  0  0  0  0  0  0  0  0  0  0
  141.4370   78.9380  223.7700 C   0  0  0  0  0  0  0  0  0  0  0  0
  141.3190   78.1470  222.6170 C   0  0  0  0  0  0  0  0  0  0  0  0
  140.8580   76.7150  222.7230 C   0  0  0  0  0  0  0  0  0  0  0  0
  139.9340   73.9300  222.2450 N   0  0  0  0  0  0  0  0  0  0  0  0
  140.6840   71.8570  224.1610 C   0  0  0  0  0  0  0  0  0  0  0  0
  139.6724   68.8097  228.5288 H   0  0  0  0  0  0  0  0  0  0  0  0
  141.3890   70.6149  228.6179 H   0  0  0  0  0  0  0  0  0  0  0  0
  141.8481   72.0062  226.6004 H   0  0  0  0  0  0  0  0  0  0  0  0
  138.3978   68.3975  226.4280 H   0  0  0  0  0  0  0  0  0  0  0  0
  138.4333   68.6435  223.9440 H   0  0  0  0  0  0  0  0  0  0  0  0
  137.6151   70.2400  224.2030 H   0  0  0  0  0  0  0  0  0  0  0  0
  140.1269   69.6673  222.5687 H   0  0  0  0  0  0  0  0  0  0  0  0
  138.5458   70.2831  221.9860 H   0  0  0  0  0  0  0  0  0  0  0  0
  136.2350   72.6810  219.8190 H   0  0  0  0  0  0  0  0  0  0  0  0
  136.2880   74.3280  219.4260 H   0  0  0  0  0  0  0  0  0  0  0  0
  135.3612   74.8443  221.6546 H   0  0  0  0  0  0  0  0  0  0  0  0
  134.2725   73.8882  220.5636 H   0  0  0  0  0  0  0  0  0  0  0  0
  134.0305   72.5476  222.3676 H   0  0  0  0  0  0  0  0  0  0  0  0
  135.6671   71.9121  221.8184 H   0  0  0  0  0  0  0  0  0  0  0  0
  136.7290   73.0220  223.3460 H   0  0  0  0  0  0  0  0  0  0  0  0
  136.4139   74.8530  224.4583 H   0  0  0  0  0  0  0  0  0  0  0  0
  135.2577   75.0907  223.0676 H   0  0  0  0  0  0  0  0  0  0  0  0
  134.3073   75.7021  225.3186 H   0  0  0  0  0  0  0  0  0  0  0  0
  133.3841   74.4423  224.4171 H   0  0  0  0  0  0  0  0  0  0  0  0
  134.3237   71.7722  226.4187 H   0  0  0  0  0  0  0  0  0  0  0  0
  133.3505   72.3928  225.0250 H   0  0  0  0  0  0  0  0  0  0  0  0
  136.3637   71.9449  225.1717 H   0  0  0  0  0  0  0  0  0  0  0  0
  135.1218   71.1614  224.0771 H   0  0  0  0  0  0  0  0  0  0  0  0
  140.3507   76.2450  219.3730 H   0  0  0  0  0  0  0  0  0  0  0  0
  139.4698   77.6313  220.1361 H   0  0  0  0  0  0  0  0  0  0  0  0
  142.4873   77.1527  220.1049 H   0  0  0  0  0  0  0  0  0  0  0  0
  141.5747   78.4515  219.2566 H   0  0  0  0  0  0  0  0  0  0  0  0
  142.5090   80.3956  220.3179 H   0  0  0  0  0  0  0  0  0  0  0  0
  142.6767   81.8001  222.3723 H   0  0  0  0  0  0  0  0  0  0  0  0
  141.9926   80.8701  224.5836 H   0  0  0  0  0  0  0  0  0  0  0  0
  141.1517   78.5256  224.7490 H   0  0  0  0  0  0  0  0  0  0  0  0
  141.7257   76.0838  222.9653 H   0  0  0  0  0  0  0  0  0  0  0  0
  140.0893   76.6726  223.5087 H   0  0  0  0  0  0  0  0  0  0  0  0
  141.6796   71.5844  223.7809 H   0  0  0  0  0  0  0  0  0  0  0  0
  140.6596   72.9133  224.4669 H   0  0  0  0  0  0  0  0  0  0  0  0
  1  2  2  0
  2  3  1  0
  3  4  2  0
  4  5  1  0
  5  6  2  0
  5  7  1  0
  7  8  1  0
  8  9  1  0
  9 10  1  0
 10 11  2  0
 11 12  1  0
 12 13  1  0
 13 14  1  0
 14 15  1  0
 15 16  1  0
 16 17  1  0
 17 18  1  0
 18 19  1  0
 19 20  1  0
 20 21  1  0
 12 22  2  0
 22 23  1  0
 23 24  1  0
 24 25  1  0
 25 26  1  0
 26 27  1  0
 27 28  2  0
 28 29  1  0
 29 30  2  0
 30 31  1  0
 31 32  2  0
 32 33  1  0
 23 34  2  0
  9 35  1  0
  6  1  1  0
 34 10  1  0
 35  4  1  0
 21 16  1  0
 33 24  1  0
 32 27  1  0
  1 36  1  0
  2 37  1  0
  3 38  1  0
  6 39  1  0
  7 40  1  0
  7 41  1  0
  8 42  1  0
  8 43  1  0
 13 44  1  0
 13 45  1  0
 14 46  1  0
 14 47  1  0
 15 48  1  0
 15 49  1  0
 16 50  1  0
 17 51  1  0
 17 52  1  0
 18 53  1  0
 18 54  1  0
 20 55  1  0
 20 56  1  0
 21 57  1  0
 21 58  1  0
 25 59  1  0
 25 60  1  0
 26 61  1  0
 26 62  1  0
 28 63  1  0
 29 64  1  0
 30 65  1  0
 31 66  1  0
 33 67  1  0
 33 68  1  0
 35 69  1  0
 35 70  1  0
M  CHG  2  13   1  16   1
M  END
>  <UniqueID>  (71) 
285

>  <SMILES>  (71) 
c1ccc2c(c1)CCN(c1nc([NH2+]CC[NH+]3CCOCC3)nc(N3CCc4ccccc4C3)n1)C2

>  <Energy>  (71) 
93.57553970320627

>  <Genealogy>  (71) 
c1ccc2c(c1)CCN(c1nc([NH2+]CC[NH+]3CCOCC3)nc(N3CCc4ccccc4C3)n1)C2 (protonated)
c1ccc2c(c1)CCN(c1nc([NH2+]CC[NH+]3CCOCC3)nc(N3CCc4ccccc4C3)n1)C2 (3D coordinates assigned)
c1ccc2c(c1)CCN(c1nc([NH2+]CC[NH+]3CCOCC3)nc(N3CCc4ccccc4C3)n1)C2 (nonaromatic ring conformer: 93.57553970320627 kcal/mol)

>  <smiles>  (71) 
c1ccc2c(c1)CCN(c1nc(NCCN3CCOCC3)nc(N3CCc4ccccc4C3)n1)C2

>  <score_type>  (71) 
oracle

>  <origin>  (71) 
autodockgpu

>  <m_score__min__energy>  (71) 
-9.8399999999999999

>  <m_primary>  (71) 
energy

>  <meeko>  (71) 
{"free_energy": -9.38, "intermolecular_energy": -11.17, "internal_energy": -1.35, "cluster_size": 15, "cluster_id": 1, "rank_in_cluster": 12}

>  <energy>  (71) 
-9.4

>  <cluster_rmsd>  (71) 
0.64

>  <rmsd>  (71) 
270.39

>  <cluster>  (71) 
1

$$$$
XKJAOWLAVYPRNA-HDZKEISTNA-P
     RDKit          3D

 70 75  0  0  0  0  0  0  0  0999 V2000
  140.0710   69.6990  228.0040 C   0  0  0  0  0  0  0  0  0  0  0  0
  141.0270   70.7110  227.9250 C   0  0  0  0  0  0  0  0  0  0  0  0
  141.2090   71.4120  226.7290 C   0  0  0  0  0  0  0  0  0  0  0  0
  140.4240   71.1140  225.6030 C   0  0  0  0  0  0  0  0  0  0  0  0
  139.4710   70.0710  225.6770 C   0  0  0  0  0  0  0  0  0  0  0  0
  139.2920   69.3820  226.8890 C   0  0  0  0  0  0  0  0  0  0  0  0
  138.5690   69.7460  224.5100 C   0  0  0  0  0  0  0  0  0  0  0  0
  139.1690   70.2180  223.1880 C   0  0  0  0  0  0  0  0  0  0  0  0
  139.6150   71.6080  223.3310 N   0  0  0  0  0  0  0  0  0  0  0  0
  139.0940   72.6590  222.4880 C   0  0  0  0  0  0  0  0  0  0  0  0
  137.9090   72.4990  221.8440 N   0  0  0  0  0  0  0  0  0  0  0  0
  137.3990   73.4950  221.0760 C   0  0  0  0  0  0  0  0  0  0  0  0
  136.1220   73.3310  220.4360 N   0  0  0  0  0  0  0  0  0  0  0  0
  135.0180   73.6530  221.3570 C   0  0  0  0  0  0  0  0  0  0  0  0
  135.4200   74.7430  222.3750 C   0  0  0  0  0  0  0  0  0  0  0  0
  135.8300   74.2370  223.7130 N   0  0  0  0  0  0  0  0  0  0  0  0
  135.8300   75.2670  224.7840 C   0  0  0  0  0  0  0  0  0  0  0  0
  134.5590   75.2450  225.6440 C   0  0  0  0  0  0  0  0  0  0  0  0
  134.3260   73.9470  226.1430 O   0  0  0  0  0  0  0  0  0  0  0  0
  134.0040   73.0990  225.0650 C   0  0  0  0  0  0  0  0  0  0  0  0
  135.1940   72.9470  224.1000 C   0  0  0  0  0  0  0  0  0  0  0  0
  138.0800   74.6640  220.9520 N   0  0  0  0  0  0  0  0  0  0  0  0
  139.2690   74.8380  221.5850 C   0  0  0  0  0  0  0  0  0  0  0  0
  139.9900   76.0810  221.4560 N   0  0  0  0  0  0  0  0  0  0  0  0
  139.8530   76.8690  220.2180 C   0  0  0  0  0  0  0  0  0  0  0  0
  141.0790   77.7500  219.9760 C   0  0  0  0  0  0  0  0  0  0  0  0
  141.3630   78.5750  221.1930 C   0  0  0  0  0  0  0  0  0  0  0  0
  141.8180   79.8980  221.0750 C   0  0  0  0  0  0  0  0  0  0  0  0
  142.1010   80.6460  222.2200 C   0  0  0  0  0  0  0  0  0  0  0  0
  141.9460   80.0760  223.4850 C   0  0  0  0  0  0  0  0  0  0  0  0
  141.5120   78.7530  223.6100 C   0  0  0  0  0  0  0  0  0  0  0  0
  141.2110   77.9980  222.4660 C   0  0  0  0  0  0  0  0  0  0  0  0
  140.7990   76.5530  222.5970 C   0  0  0  0  0  0  0  0  0  0  0  0
  139.7660   73.8320  222.3550 N   0  0  0  0  0  0  0  0  0  0  0  0
  140.6650   71.8800  224.3210 C   0  0  0  0  0  0  0  0  0  0  0  0
  139.9301   69.1493  228.9463 H   0  0  0  0  0  0  0  0  0  0  0  0
  141.6389   70.9582  228.8050 H   0  0  0  0  0  0  0  0  0  0  0  0
  141.9720   72.2021  226.6695 H   0  0  0  0  0  0  0  0  0  0  0  0
  138.5337   68.5883  226.9597 H   0  0  0  0  0  0  0  0  0  0  0  0
  138.4204   68.6570  224.4660 H   0  0  0  0  0  0  0  0  0  0  0  0
  137.6119   70.2672  224.6592 H   0  0  0  0  0  0  0  0  0  0  0  0
  140.0267   69.5814  222.9249 H   0  0  0  0  0  0  0  0  0  0  0  0
  138.4112   70.1524  222.3934 H   0  0  0  0  0  0  0  0  0  0  0  0
  136.0310   72.3320  220.1370 H   0  0  0  0  0  0  0  0  0  0  0  0
  136.0660   73.9310  219.5790 H   0  0  0  0  0  0  0  0  0  0  0  0
  134.1589   74.0122  220.7713 H   0  0  0  0  0  0  0  0  0  0  0  0
  134.7617   72.7409  221.9159 H   0  0  0  0  0  0  0  0  0  0  0  0
  136.2625   75.3099  221.9523 H   0  0  0  0  0  0  0  0  0  0  0  0
  134.5203   75.3537  222.5411 H   0  0  0  0  0  0  0  0  0  0  0  0
  136.8430   73.9990  223.5740 H   0  0  0  0  0  0  0  0  0  0  0  0
  136.6974   75.0919  225.4375 H   0  0  0  0  0  0  0  0  0  0  0  0
  135.8749   76.2499  224.2922 H   0  0  0  0  0  0  0  0  0  0  0  0
  134.6796   75.9412  226.4870 H   0  0  0  0  0  0  0  0  0  0  0  0
  133.7028   75.5479  225.0234 H   0  0  0  0  0  0  0  0  0  0  0  0
  133.7315   72.1081  225.4572 H   0  0  0  0  0  0  0  0  0  0  0  0
  133.1627   73.5428  224.5126 H   0  0  0  0  0  0  0  0  0  0  0  0
  135.9549   72.3184  224.5858 H   0  0  0  0  0  0  0  0  0  0  0  0
  134.7991   72.4978  223.1768 H   0  0  0  0  0  0  0  0  0  0  0  0
  139.7336   76.1812  219.3679 H   0  0  0  0  0  0  0  0  0  0  0  0
  138.9736   77.5218  220.3200 H   0  0  0  0  0  0  0  0  0  0  0  0
  141.9483   77.1127  219.7565 H   0  0  0  0  0  0  0  0  0  0  0  0
  140.8823   78.4176  219.1242 H   0  0  0  0  0  0  0  0  0  0  0  0
  141.9518   80.3460  220.0793 H   0  0  0  0  0  0  0  0  0  0  0  0
  142.4466   81.6860  222.1250 H   0  0  0  0  0  0  0  0  0  0  0  0
  142.1658   80.6690  224.3850 H   0  0  0  0  0  0  0  0  0  0  0  0
  141.4061   78.3025  224.6079 H   0  0  0  0  0  0  0  0  0  0  0  0
  141.7059   75.9341  222.6642 H   0  0  0  0  0  0  0  0  0  0  0  0
  140.1773   76.4674  223.5004 H   0  0  0  0  0  0  0  0  0  0  0  0
  141.6376   71.5816  223.9028 H   0  0  0  0  0  0  0  0  0  0  0  0
  140.6539   72.9554  224.5520 H   0  0  0  0  0  0  0  0  0  0  0  0
  1  2  2  0
  2  3  1  0
  3  4  2  0
  4  5  1  0
  5  6  2  0
  5  7  1  0
  7  8  1  0
  8  9  1  0
  9 10  1  0
 10 11  2  0
 11 12  1  0
 12 13  1  0
 13 14  1  0
 14 15  1  0
 15 16  1  0
 16 17  1  0
 17 18  1  0
 18 19  1  0
 19 20  1  0
 20 21  1  0
 12 22  2  0
 22 23  1  0
 23 24  1  0
 24 25  1  0
 25 26  1  0
 26 27  1  0
 27 28  2  0
 28 29  1  0
 29 30  2  0
 30 31  1  0
 31 32  2  0
 32 33  1  0
 23 34  2  0
  9 35  1  0
  6  1  1  0
 34 10  1  0
 35  4  1  0
 21 16  1  0
 33 24  1  0
 32 27  1  0
  1 36  1  0
  2 37  1  0
  3 38  1  0
  6 39  1  0
  7 40  1  0
  7 41  1  0
  8 42  1  0
  8 43  1  0
 13 44  1  0
 13 45  1  0
 14 46  1  0
 14 47  1  0
 15 48  1  0
 15 49  1  0
 16 50  1  0
 17 51  1  0
 17 52  1  0
 18 53  1  0
 18 54  1  0
 20 55  1  0
 20 56  1  0
 21 57  1  0
 21 58  1  0
 25 59  1  0
 25 60  1  0
 26 61  1  0
 26 62  1  0
 28 63  1  0
 29 64  1  0
 30 65  1  0
 31 66  1  0
 33 67  1  0
 33 68  1  0
 35 69  1  0
 35 70  1  0
M  CHG  2  13   1  16   1
M  END
>  <UniqueID>  (72) 
285

>  <SMILES>  (72) 
c1ccc2c(c1)CCN(c1nc([NH2+]CC[NH+]3CCOCC3)nc(N3CCc4ccccc4C3)n1)C2

>  <Energy>  (72) 
93.57553970320627

>  <Genealogy>  (72) 
c1ccc2c(c1)CCN(c1nc([NH2+]CC[NH+]3CCOCC3)nc(N3CCc4ccccc4C3)n1)C2 (protonated)
c1ccc2c(c1)CCN(c1nc([NH2+]CC[NH+]3CCOCC3)nc(N3CCc4ccccc4C3)n1)C2 (3D coordinates assigned)
c1ccc2c(c1)CCN(c1nc([NH2+]CC[NH+]3CCOCC3)nc(N3CCc4ccccc4C3)n1)C2 (nonaromatic ring conformer: 93.57553970320627 kcal/mol)

>  <smiles>  (72) 
c1ccc2c(c1)CCN(c1nc(NCCN3CCOCC3)nc(N3CCc4ccccc4C3)n1)C2

>  <score_type>  (72) 
oracle

>  <origin>  (72) 
autodockgpu

>  <m_score__min__energy>  (72) 
-9.8399999999999999

>  <m_primary>  (72) 
energy

>  <meeko>  (72) 
{"free_energy": -9.77, "intermolecular_energy": -11.56, "internal_energy": -1.0, "cluster_size": 15, "cluster_id": 1, "rank_in_cluster": 4}

>  <energy>  (72) 
-9.38

>  <cluster_rmsd>  (72) 
0.52

>  <rmsd>  (72) 
270.34

>  <cluster>  (72) 
1

$$$$
XKJAOWLAVYPRNA-HDZKEISTNA-P
     RDKit          3D

 70 75  0  0  0  0  0  0  0  0999 V2000
  139.9250   69.5500  227.9490 C   0  0  0  0  0  0  0  0  0  0  0  0
  140.8120   70.6260  227.9830 C   0  0  0  0  0  0  0  0  0  0  0  0
  141.0470   71.3770  226.8270 C   0  0  0  0  0  0  0  0  0  0  0  0
  140.3870   71.0630  225.6280 C   0  0  0  0  0  0  0  0  0  0  0  0
  139.5060   69.9560  225.5890 C   0  0  0  0  0  0  0  0  0  0  0  0
  139.2710   69.2180  226.7610 C   0  0  0  0  0  0  0  0  0  0  0  0
  138.7350   69.6100  224.3380 C   0  0  0  0  0  0  0  0  0  0  0  0
  139.4130   70.1650  223.0870 C   0  0  0  0  0  0  0  0  0  0  0  0
  139.7470   71.5760  223.3060 N   0  0  0  0  0  0  0  0  0  0  0  0
  139.2290   72.6160  222.4480 C   0  0  0  0  0  0  0  0  0  0  0  0
  138.0920   72.4140  221.7330 N   0  0  0  0  0  0  0  0  0  0  0  0
  137.5830   73.4000  220.9510 C   0  0  0  0  0  0  0  0  0  0  0  0
  136.3540   73.1890  220.2340 N   0  0  0  0  0  0  0  0  0  0  0  0
  135.1860   73.4330  221.0980 C   0  0  0  0  0  0  0  0  0  0  0  0
  135.5880   73.5730  222.5820 C   0  0  0  0  0  0  0  0  0  0  0  0
  136.1320   74.9030  222.9660 N   0  0  0  0  0  0  0  0  0  0  0  0
  135.8440   75.9880  221.9920 C   0  0  0  0  0  0  0  0  0  0  0  0
  134.6360   76.8490  222.3860 C   0  0  0  0  0  0  0  0  0  0  0  0
  134.7850   77.3320  223.7020 O   0  0  0  0  0  0  0  0  0  0  0  0
  134.7120   76.2430  224.5930 C   0  0  0  0  0  0  0  0  0  0  0  0
  135.8910   75.2740  224.3880 C   0  0  0  0  0  0  0  0  0  0  0  0
  138.2170   74.5980  220.8820 N   0  0  0  0  0  0  0  0  0  0  0  0
  139.3580   74.8150  221.5870 C   0  0  0  0  0  0  0  0  0  0  0  0
  140.0300   76.0900  221.5170 N   0  0  0  0  0  0  0  0  0  0  0  0
  139.8330   76.9450  220.3320 C   0  0  0  0  0  0  0  0  0  0  0  0
  141.0190   77.8850  220.1160 C   0  0  0  0  0  0  0  0  0  0  0  0
  141.3020   78.6470  221.3740 C   0  0  0  0  0  0  0  0  0  0  0  0
  141.7040   79.9900  221.3260 C   0  0  0  0  0  0  0  0  0  0  0  0
  141.9870   80.6800  222.5080 C   0  0  0  0  0  0  0  0  0  0  0  0
  141.8840   80.0300  223.7390 C   0  0  0  0  0  0  0  0  0  0  0  0
  141.5030   78.6870  223.7930 C   0  0  0  0  0  0  0  0  0  0  0  0
  141.2020   77.9890  222.6130 C   0  0  0  0  0  0  0  0  0  0  0  0
  140.8480   76.5240  222.6660 C   0  0  0  0  0  0  0  0  0  0  0  0
  139.8550   73.8200  222.3710 N   0  0  0  0  0  0  0  0  0  0  0  0
  140.6850   71.8850  224.3940 C   0  0  0  0  0  0  0  0  0  0  0  0
  139.7404   68.9618  228.8600 H   0  0  0  0  0  0  0  0  0  0  0  0
  141.3271   70.8840  228.9200 H   0  0  0  0  0  0  0  0  0  0  0  0
  141.7537   72.2194  226.8571 H   0  0  0  0  0  0  0  0  0  0  0  0
  138.5670   68.3729  226.7426 H   0  0  0  0  0  0  0  0  0  0  0  0
  138.6678   68.5155  224.2516 H   0  0  0  0  0  0  0  0  0  0  0  0
  137.7345   70.0607  224.4153 H   0  0  0  0  0  0  0  0  0  0  0  0
  140.3325   69.5964  222.8838 H   0  0  0  0  0  0  0  0  0  0  0  0
  138.7330   70.0751  222.2271 H   0  0  0  0  0  0  0  0  0  0  0  0
  136.3310   72.1950  219.9070 H   0  0  0  0  0  0  0  0  0  0  0  0
  136.3160   73.8080  219.3900 H   0  0  0  0  0  0  0  0  0  0  0  0
  134.6916   74.3608  220.7743 H   0  0  0  0  0  0  0  0  0  0  0  0
  134.5087   72.5709  221.0078 H   0  0  0  0  0  0  0  0  0  0  0  0
  134.6962   73.3794  223.1962 H   0  0  0  0  0  0  0  0  0  0  0  0
  136.4003   72.8503  222.7486 H   0  0  0  0  0  0  0  0  0  0  0  0
  137.1690   74.7600  222.9050 H   0  0  0  0  0  0  0  0  0  0  0  0
  136.7285   76.6381  221.9211 H   0  0  0  0  0  0  0  0  0  0  0  0
  135.6049   75.5095  221.0308 H   0  0  0  0  0  0  0  0  0  0  0  0
  134.5568   77.7005  221.6942 H   0  0  0  0  0  0  0  0  0  0  0  0
  133.7263   76.2329  222.3329 H   0  0  0  0  0  0  0  0  0  0  0  0
  134.7349   76.6222  225.6253 H   0  0  0  0  0  0  0  0  0  0  0  0
  133.7763   75.6979  224.4000 H   0  0  0  0  0  0  0  0  0  0  0  0
  136.8018   75.7501  224.7801 H   0  0  0  0  0  0  0  0  0  0  0  0
  135.6350   74.3455  224.9194 H   0  0  0  0  0  0  0  0  0  0  0  0
  139.7178   76.3051  219.4447 H   0  0  0  0  0  0  0  0  0  0  0  0
  138.9329   77.5564  220.4933 H   0  0  0  0  0  0  0  0  0  0  0  0
  141.9057   77.2957  219.8394 H   0  0  0  0  0  0  0  0  0  0  0  0
  140.7770   78.5937  219.3103 H   0  0  0  0  0  0  0  0  0  0  0  0
  141.7967   80.5010  220.3563 H   0  0  0  0  0  0  0  0  0  0  0  0
  142.2912   81.7363  222.4682 H   0  0  0  0  0  0  0  0  0  0  0  0
  142.1032   80.5762  224.6683 H   0  0  0  0  0  0  0  0  0  0  0  0
  141.4387   78.1745  224.7642 H   0  0  0  0  0  0  0  0  0  0  0  0
  141.7788   75.9379  222.6757 H   0  0  0  0  0  0  0  0  0  0  0  0
  140.2525   76.3606  223.5763 H   0  0  0  0  0  0  0  0  0  0  0  0
  141.7090   71.6665  224.0569 H   0  0  0  0  0  0  0  0  0  0  0  0
  140.5783   72.9490  224.6520 H   0  0  0  0  0  0  0  0  0  0  0  0
  1  2  2  0
  2  3  1  0
  3  4  2  0
  4  5  1  0
  5  6  2  0
  5  7  1  0
  7  8  1  0
  8  9  1  0
  9 10  1  0
 10 11  2  0
 11 12  1  0
 12 13  1  0
 13 14  1  0
 14 15  1  0
 15 16  1  0
 16 17  1  0
 17 18  1  0
 18 19  1  0
 19 20  1  0
 20 21  1  0
 12 22  2  0
 22 23  1  0
 23 24  1  0
 24 25  1  0
 25 26  1  0
 26 27  1  0
 27 28  2  0
 28 29  1  0
 29 30  2  0
 30 31  1  0
 31 32  2  0
 32 33  1  0
 23 34  2  0
  9 35  1  0
  6  1  1  0
 34 10  1  0
 35  4  1  0
 21 16  1  0
 33 24  1  0
 32 27  1  0
  1 36  1  0
  2 37  1  0
  3 38  1  0
  6 39  1  0
  7 40  1  0
  7 41  1  0
  8 42  1  0
  8 43  1  0
 13 44  1  0
 13 45  1  0
 14 46  1  0
 14 47  1  0
 15 48  1  0
 15 49  1  0
 16 50  1  0
 17 51  1  0
 17 52  1  0
 18 53  1  0
 18 54  1  0
 20 55  1  0
 20 56  1  0
 21 57  1  0
 21 58  1  0
 25 59  1  0
 25 60  1  0
 26 61  1  0
 26 62  1  0
 28 63  1  0
 29 64  1  0
 30 65  1  0
 31 66  1  0
 33 67  1  0
 33 68  1  0
 35 69  1  0
 35 70  1  0
M  CHG  2  13   1  16   1
M  END
>  <UniqueID>  (73) 
285

>  <SMILES>  (73) 
c1ccc2c(c1)CCN(c1nc([NH2+]CC[NH+]3CCOCC3)nc(N3CCc4ccccc4C3)n1)C2

>  <Energy>  (73) 
93.57553970320627

>  <Genealogy>  (73) 
c1ccc2c(c1)CCN(c1nc([NH2+]CC[NH+]3CCOCC3)nc(N3CCc4ccccc4C3)n1)C2 (protonated)
c1ccc2c(c1)CCN(c1nc([NH2+]CC[NH+]3CCOCC3)nc(N3CCc4ccccc4C3)n1)C2 (3D coordinates assigned)
c1ccc2c(c1)CCN(c1nc([NH2+]CC[NH+]3CCOCC3)nc(N3CCc4ccccc4C3)n1)C2 (nonaromatic ring conformer: 93.57553970320627 kcal/mol)

>  <smiles>  (73) 
c1ccc2c(c1)CCN(c1nc(NCCN3CCOCC3)nc(N3CCc4ccccc4C3)n1)C2

>  <score_type>  (73) 
oracle

>  <origin>  (73) 
autodockgpu

>  <m_score__min__energy>  (73) 
-9.8399999999999999

>  <m_primary>  (73) 
energy

>  <meeko>  (73) 
{"free_energy": -8.64, "intermolecular_energy": -10.43, "internal_energy": -1.19, "cluster_size": 15, "cluster_id": 1, "rank_in_cluster": 13}

>  <energy>  (73) 
-8.64

>  <cluster_rmsd>  (73) 
0.91

>  <rmsd>  (73) 
270.35

>  <cluster>  (73) 
1

$$$$
XKJAOWLAVYPRNA-HDZKEISTNA-P
     RDKit          3D

 70 75  0  0  0  0  0  0  0  0999 V2000
  142.3850   80.6580  222.6300 C   0  0  0  0  0  0  0  0  0  0  0  0
  141.9910   80.0810  223.8370 C   0  0  0  0  0  0  0  0  0  0  0  0
  141.4190   78.8060  223.8500 C   0  0  0  0  0  0  0  0  0  0  0  0
  141.2460   78.0910  222.6540 C   0  0  0  0  0  0  0  0  0  0  0  0
  141.6230   78.6870  221.4270 C   0  0  0  0  0  0  0  0  0  0  0  0
  142.2080   79.9650  221.4300 C   0  0  0  0  0  0  0  0  0  0  0  0
  141.5040   77.9400  220.1210 C   0  0  0  0  0  0  0  0  0  0  0  0
  140.4690   76.8210  220.2050 C   0  0  0  0  0  0  0  0  0  0  0  0
  140.7130   76.0300  221.4160 N   0  0  0  0  0  0  0  0  0  0  0  0
  140.9850   74.6130  221.3500 C   0  0  0  0  0  0  0  0  0  0  0  0
  141.7460   74.1060  220.3470 N   0  0  0  0  0  0  0  0  0  0  0  0
  142.0330   72.7800  220.2980 C   0  0  0  0  0  0  0  0  0  0  0  0
  142.8780   72.2620  219.2560 N   0  0  0  0  0  0  0  0  0  0  0  0
  143.7230   71.1630  219.7520 C   0  0  0  0  0  0  0  0  0  0  0  0
  143.9380   70.0740  218.6780 C   0  0  0  0  0  0  0  0  0  0  0  0
  143.7790   68.6740  219.1570 N   0  0  0  0  0  0  0  0  0  0  0  0
  143.4300   67.6980  218.0920 C   0  0  0  0  0  0  0  0  0  0  0  0
  144.6430   66.9220  217.5620 C   0  0  0  0  0  0  0  0  0  0  0  0
  145.3510   66.3280  218.6270 O   0  0  0  0  0  0  0  0  0  0  0  0
  145.9320   67.3470  219.4070 C   0  0  0  0  0  0  0  0  0  0  0  0
  144.8560   68.2190  220.0800 C   0  0  0  0  0  0  0  0  0  0  0  0
  141.5520   71.9530  221.2620 N   0  0  0  0  0  0  0  0  0  0  0  0
  140.7840   72.4440  222.2690 C   0  0  0  0  0  0  0  0  0  0  0  0
  140.2780   71.5650  223.2960 N   0  0  0  0  0  0  0  0  0  0  0  0
  139.4100   70.4360  222.9150 C   0  0  0  0  0  0  0  0  0  0  0  0
  138.4930   70.0220  224.0660 C   0  0  0  0  0  0  0  0  0  0  0  0
  139.3030   69.7750  225.3010 C   0  0  0  0  0  0  0  0  0  0  0  0
  138.9710   68.7350  226.1830 C   0  0  0  0  0  0  0  0  0  0  0  0
  139.7230   68.5330  227.3430 C   0  0  0  0  0  0  0  0  0  0  0  0
  140.7990   69.3730  227.6350 C   0  0  0  0  0  0  0  0  0  0  0  0
  141.1230   70.4230  226.7710 C   0  0  0  0  0  0  0  0  0  0  0  0
  140.3830   70.6250  225.5960 C   0  0  0  0  0  0  0  0  0  0  0  0
  140.6950   71.7930  224.6930 C   0  0  0  0  0  0  0  0  0  0  0  0
  140.5100   73.7750  222.3090 N   0  0  0  0  0  0  0  0  0  0  0  0
  140.6020   76.7230  222.7070 C   0  0  0  0  0  0  0  0  0  0  0  0
  142.8362   81.6612  222.6229 H   0  0  0  0  0  0  0  0  0  0  0  0
  142.1306   80.6301  224.7799 H   0  0  0  0  0  0  0  0  0  0  0  0
  141.1021   78.3594  224.8040 H   0  0  0  0  0  0  0  0  0  0  0  0
  142.5283   80.4221  220.4821 H   0  0  0  0  0  0  0  0  0  0  0  0
  141.2034   78.6456  219.3325 H   0  0  0  0  0  0  0  0  0  0  0  0
  142.4808   77.4883  219.8931 H   0  0  0  0  0  0  0  0  0  0  0  0
  139.4594   77.2557  220.2464 H   0  0  0  0  0  0  0  0  0  0  0  0
  140.5496   76.1749  219.3184 H   0  0  0  0  0  0  0  0  0  0  0  0
  143.4950   73.0370  218.9190 H   0  0  0  0  0  0  0  0  0  0  0  0
  142.2980   71.9360  218.4470 H   0  0  0  0  0  0  0  0  0  0  0  0
  144.7013   71.5711  220.0459 H   0  0  0  0  0  0  0  0  0  0  0  0
  143.2131   70.7006  220.6100 H   0  0  0  0  0  0  0  0  0  0  0  0
  143.2096   70.2428  217.8712 H   0  0  0  0  0  0  0  0  0  0  0  0
  144.9841   70.1687  218.3512 H   0  0  0  0  0  0  0  0  0  0  0  0
  142.9220   68.7270  219.7600 H   0  0  0  0  0  0  0  0  0  0  0  0
  142.7060   66.9780  218.5012 H   0  0  0  0  0  0  0  0  0  0  0  0
  143.0136   68.2690  217.2491 H   0  0  0  0  0  0  0  0  0  0  0  0
  144.2980   66.1365  216.8735 H   0  0  0  0  0  0  0  0  0  0  0  0
  145.3105   67.6201  217.0356 H   0  0  0  0  0  0  0  0  0  0  0  0
  146.5600   66.8886  220.1852 H   0  0  0  0  0  0  0  0  0  0  0  0
  146.5354   67.9878  218.7473 H   0  0  0  0  0  0  0  0  0  0  0  0
  144.3938   67.6346  220.8892 H   0  0  0  0  0  0  0  0  0  0  0  0
  145.3635   69.1235  220.4466 H   0  0  0  0  0  0  0  0  0  0  0  0
  138.7922   70.7343  222.0551 H   0  0  0  0  0  0  0  0  0  0  0  0
  140.0504   69.5793  222.6582 H   0  0  0  0  0  0  0  0  0  0  0  0
  137.7671   70.8252  224.2607 H   0  0  0  0  0  0  0  0  0  0  0  0
  137.9620   69.0987  223.7911 H   0  0  0  0  0  0  0  0  0  0  0  0
  138.1173   68.0779  225.9606 H   0  0  0  0  0  0  0  0  0  0  0  0
  139.4668   67.7107  228.0273 H   0  0  0  0  0  0  0  0  0  0  0  0
  141.3927   69.2084  228.5463 H   0  0  0  0  0  0  0  0  0  0  0  0
  141.9610   71.0932  227.0130 H   0  0  0  0  0  0  0  0  0  0  0  0
  140.1717   72.6819  225.0751 H   0  0  0  0  0  0  0  0  0  0  0  0
  141.7865   71.9292  224.6941 H   0  0  0  0  0  0  0  0  0  0  0  0
  139.5381   76.8375  222.9619 H   0  0  0  0  0  0  0  0  0  0  0  0
  141.1224   76.1236  223.4685 H   0  0  0  0  0  0  0  0  0  0  0  0
  1  2  2  0
  2  3  1  0
  3  4  2  0
  4  5  1  0
  5  6  2  0
  5  7  1  0
  7  8  1  0
  8  9  1  0
  9 10  1  0
 10 11  2  0
 11 12  1  0
 12 13  1  0
 13 14  1  0
 14 15  1  0
 15 16  1  0
 16 17  1  0
 17 18  1  0
 18 19  1  0
 19 20  1  0
 20 21  1  0
 12 22  2  0
 22 23  1  0
 23 24  1  0
 24 25  1  0
 25 26  1  0
 26 27  1  0
 27 28  2  0
 28 29  1  0
 29 30  2  0
 30 31  1  0
 31 32  2  0
 32 33  1  0
 23 34  2  0
  9 35  1  0
  6  1  1  0
 34 10  1  0
 35  4  1  0
 21 16  1  0
 33 24  1  0
 32 27  1  0
  1 36  1  0
  2 37  1  0
  3 38  1  0
  6 39  1  0
  7 40  1  0
  7 41  1  0
  8 42  1  0
  8 43  1  0
 13 44  1  0
 13 45  1  0
 14 46  1  0
 14 47  1  0
 15 48  1  0
 15 49  1  0
 16 50  1  0
 17 51  1  0
 17 52  1  0
 18 53  1  0
 18 54  1  0
 20 55  1  0
 20 56  1  0
 21 57  1  0
 21 58  1  0
 25 59  1  0
 25 60  1  0
 26 61  1  0
 26 62  1  0
 28 63  1  0
 29 64  1  0
 30 65  1  0
 31 66  1  0
 33 67  1  0
 33 68  1  0
 35 69  1  0
 35 70  1  0
M  CHG  2  13   1  16   1
M  END
>  <UniqueID>  (74) 
285

>  <SMILES>  (74) 
c1ccc2c(c1)CCN(c1nc([NH2+]CC[NH+]3CCOCC3)nc(N3CCc4ccccc4C3)n1)C2

>  <Energy>  (74) 
93.57553970320627

>  <Genealogy>  (74) 
c1ccc2c(c1)CCN(c1nc([NH2+]CC[NH+]3CCOCC3)nc(N3CCc4ccccc4C3)n1)C2 (protonated)
c1ccc2c(c1)CCN(c1nc([NH2+]CC[NH+]3CCOCC3)nc(N3CCc4ccccc4C3)n1)C2 (3D coordinates assigned)
c1ccc2c(c1)CCN(c1nc([NH2+]CC[NH+]3CCOCC3)nc(N3CCc4ccccc4C3)n1)C2 (nonaromatic ring conformer: 93.57553970320627 kcal/mol)

>  <smiles>  (74) 
c1ccc2c(c1)CCN(c1nc(NCCN3CCOCC3)nc(N3CCc4ccccc4C3)n1)C2

>  <score_type>  (74) 
oracle

>  <origin>  (74) 
autodockgpu

>  <m_score__min__energy>  (74) 
-9.8399999999999999

>  <m_primary>  (74) 
energy

>  <meeko>  (74) 
{"free_energy": -8.78, "intermolecular_energy": -10.57, "internal_energy": -0.22, "cluster_size": 2, "cluster_id": 2, "rank_in_cluster": 2}

>  <energy>  (74) 
-8.53

>  <cluster_rmsd>  (74) 
1.71

>  <rmsd>  (74) 
269.99

>  <cluster>  (74) 
1

$$$$
XKJAOWLAVYPRNA-HDZKEISTNA-P
     RDKit          3D

 70 75  0  0  0  0  0  0  0  0999 V2000
  140.0230   69.6990  227.7820 C   0  0  0  0  0  0  0  0  0  0  0  0
  141.0600   70.6280  227.6920 C   0  0  0  0  0  0  0  0  0  0  0  0
  141.2670   71.3340  226.5040 C   0  0  0  0  0  0  0  0  0  0  0  0
  140.4280   71.1250  225.3960 C   0  0  0  0  0  0  0  0  0  0  0  0
  139.3920   70.1660  225.4810 C   0  0  0  0  0  0  0  0  0  0  0  0
  139.1890   69.4710  226.6860 C   0  0  0  0  0  0  0  0  0  0  0  0
  138.4330   69.9420  224.3360 C   0  0  0  0  0  0  0  0  0  0  0  0
  139.0330   70.3870  223.0050 C   0  0  0  0  0  0  0  0  0  0  0  0
  139.6000   71.7310  223.1580 N   0  0  0  0  0  0  0  0  0  0  0  0
  139.1460   72.8380  222.3490 C   0  0  0  0  0  0  0  0  0  0  0  0
  137.9850   72.7490  221.6520 N   0  0  0  0  0  0  0  0  0  0  0  0
  137.5370   73.7990  220.9160 C   0  0  0  0  0  0  0  0  0  0  0  0
  136.2820   73.7080  220.2200 N   0  0  0  0  0  0  0  0  0  0  0  0
  135.1690   73.4730  221.1560 C   0  0  0  0  0  0  0  0  0  0  0  0
  135.1590   74.5040  222.3060 C   0  0  0  0  0  0  0  0  0  0  0  0
  135.6840   74.0060  223.6060 N   0  0  0  0  0  0  0  0  0  0  0  0
  135.7920   75.0450  224.6630 C   0  0  0  0  0  0  0  0  0  0  0  0
  134.6050   75.0440  225.6350 C   0  0  0  0  0  0  0  0  0  0  0  0
  134.4040   73.7540  226.1660 O   0  0  0  0  0  0  0  0  0  0  0  0
  133.9770   72.9000  225.1300 C   0  0  0  0  0  0  0  0  0  0  0  0
  135.0730   72.7270  224.0620 C   0  0  0  0  0  0  0  0  0  0  0  0
  138.2600   74.9480  220.8760 N   0  0  0  0  0  0  0  0  0  0  0  0
  139.4270   75.0510  221.5630 C   0  0  0  0  0  0  0  0  0  0  0  0
  140.1920   76.2740  221.5240 N   0  0  0  0  0  0  0  0  0  0  0  0
  140.1730   77.0980  220.3020 C   0  0  0  0  0  0  0  0  0  0  0  0
  141.4390   77.9450  220.1780 C   0  0  0  0  0  0  0  0  0  0  0  0
  141.6530   78.7300  221.4360 C   0  0  0  0  0  0  0  0  0  0  0  0
  142.1540   80.0400  221.3890 C   0  0  0  0  0  0  0  0  0  0  0  0
  142.3710   80.7500  222.5730 C   0  0  0  0  0  0  0  0  0  0  0  0
  142.1030   80.1530  223.8060 C   0  0  0  0  0  0  0  0  0  0  0  0
  141.6220   78.8410  223.8600 C   0  0  0  0  0  0  0  0  0  0  0  0
  141.3870   78.1250  222.6760 C   0  0  0  0  0  0  0  0  0  0  0  0
  140.9250   76.6900  222.7360 C   0  0  0  0  0  0  0  0  0  0  0  0
  139.8610   73.9930  222.3010 N   0  0  0  0  0  0  0  0  0  0  0  0
  140.6970   71.8930  224.1210 C   0  0  0  0  0  0  0  0  0  0  0  0
  139.8622   69.1450  228.7186 H   0  0  0  0  0  0  0  0  0  0  0  0
  141.7155   70.8049  228.5574 H   0  0  0  0  0  0  0  0  0  0  0  0
  142.0921   72.0582  226.4355 H   0  0  0  0  0  0  0  0  0  0  0  0
  138.3681   68.7432  226.7657 H   0  0  0  0  0  0  0  0  0  0  0  0
  138.1906   68.8706  224.2778 H   0  0  0  0  0  0  0  0  0  0  0  0
  137.5288   70.5399  224.5227 H   0  0  0  0  0  0  0  0  0  0  0  0
  139.8253   69.6852  222.7054 H   0  0  0  0  0  0  0  0  0  0  0  0
  138.2499   70.4015  222.2326 H   0  0  0  0  0  0  0  0  0  0  0  0
  136.3360   72.9050  219.5510 H   0  0  0  0  0  0  0  0  0  0  0  0
  136.1110   74.5810  219.6660 H   0  0  0  0  0  0  0  0  0  0  0  0
  134.2195   73.5447  220.6053 H   0  0  0  0  0  0  0  0  0  0  0  0
  135.2970   72.4725  221.5950 H   0  0  0  0  0  0  0  0  0  0  0  0
  135.7721   75.3638  221.9980 H   0  0  0  0  0  0  0  0  0  0  0  0
  134.1030   74.7582  222.4798 H   0  0  0  0  0  0  0  0  0  0  0  0
  136.6770   73.7550  223.3780 H   0  0  0  0  0  0  0  0  0  0  0  0
  136.7135   74.8660  225.2364 H   0  0  0  0  0  0  0  0  0  0  0  0
  135.8018   76.0232  224.1600 H   0  0  0  0  0  0  0  0  0  0  0  0
  134.8092   75.7461  226.4568 H   0  0  0  0  0  0  0  0  0  0  0  0
  133.6992   75.3504  225.0913 H   0  0  0  0  0  0  0  0  0  0  0  0
  133.7318   71.9155  225.5550 H   0  0  0  0  0  0  0  0  0  0  0  0
  133.0932   73.3478  224.6521 H   0  0  0  0  0  0  0  0  0  0  0  0
  135.8687   72.0946  224.4827 H   0  0  0  0  0  0  0  0  0  0  0  0
  134.5910   72.2743  223.1829 H   0  0  0  0  0  0  0  0  0  0  0  0
  140.0981   76.4368  219.4261 H   0  0  0  0  0  0  0  0  0  0  0  0
  139.3082   77.7757  220.3561 H   0  0  0  0  0  0  0  0  0  0  0  0
  142.3033   77.2862  220.0078 H   0  0  0  0  0  0  0  0  0  0  0  0
  141.3284   78.6396  219.3322 H   0  0  0  0  0  0  0  0  0  0  0  0
  142.3762   80.5086  220.4189 H   0  0  0  0  0  0  0  0  0  0  0  0
  142.7535   81.7806  222.5333 H   0  0  0  0  0  0  0  0  0  0  0  0
  142.2704   80.7153  224.7365 H   0  0  0  0  0  0  0  0  0  0  0  0
  141.4271   78.3684  224.8340 H   0  0  0  0  0  0  0  0  0  0  0  0
  141.8059   76.0418  222.8538 H   0  0  0  0  0  0  0  0  0  0  0  0
  140.2350   76.5995  223.5878 H   0  0  0  0  0  0  0  0  0  0  0  0
  141.6284   71.5214  223.6688 H   0  0  0  0  0  0  0  0  0  0  0  0
  140.7842   72.9606  224.3710 H   0  0  0  0  0  0  0  0  0  0  0  0
  1  2  2  0
  2  3  1  0
  3  4  2  0
  4  5  1  0
  5  6  2  0
  5  7  1  0
  7  8  1  0
  8  9  1  0
  9 10  1  0
 10 11  2  0
 11 12  1  0
 12 13  1  0
 13 14  1  0
 14 15  1  0
 15 16  1  0
 16 17  1  0
 17 18  1  0
 18 19  1  0
 19 20  1  0
 20 21  1  0
 12 22  2  0
 22 23  1  0
 23 24  1  0
 24 25  1  0
 25 26  1  0
 26 27  1  0
 27 28  2  0
 28 29  1  0
 29 30  2  0
 30 31  1  0
 31 32  2  0
 32 33  1  0
 23 34  2  0
  9 35  1  0
  6  1  1  0
 34 10  1  0
 35  4  1  0
 21 16  1  0
 33 24  1  0
 32 27  1  0
  1 36  1  0
  2 37  1  0
  3 38  1  0
  6 39  1  0
  7 40  1  0
  7 41  1  0
  8 42  1  0
  8 43  1  0
 13 44  1  0
 13 45  1  0
 14 46  1  0
 14 47  1  0
 15 48  1  0
 15 49  1  0
 16 50  1  0
 17 51  1  0
 17 52  1  0
 18 53  1  0
 18 54  1  0
 20 55  1  0
 20 56  1  0
 21 57  1  0
 21 58  1  0
 25 59  1  0
 25 60  1  0
 26 61  1  0
 26 62  1  0
 28 63  1  0
 29 64  1  0
 30 65  1  0
 31 66  1  0
 33 67  1  0
 33 68  1  0
 35 69  1  0
 35 70  1  0
M  CHG  2  13   1  16   1
M  END
>  <UniqueID>  (75) 
285

>  <SMILES>  (75) 
c1ccc2c(c1)CCN(c1nc([NH2+]CC[NH+]3CCOCC3)nc(N3CCc4ccccc4C3)n1)C2

>  <Energy>  (75) 
93.57553970320627

>  <Genealogy>  (75) 
c1ccc2c(c1)CCN(c1nc([NH2+]CC[NH+]3CCOCC3)nc(N3CCc4ccccc4C3)n1)C2 (protonated)
c1ccc2c(c1)CCN(c1nc([NH2+]CC[NH+]3CCOCC3)nc(N3CCc4ccccc4C3)n1)C2 (3D coordinates assigned)
c1ccc2c(c1)CCN(c1nc([NH2+]CC[NH+]3CCOCC3)nc(N3CCc4ccccc4C3)n1)C2 (nonaromatic ring conformer: 93.57553970320627 kcal/mol)

>  <smiles>  (75) 
c1ccc2c(c1)CCN(c1nc(NCCN3CCOCC3)nc(N3CCc4ccccc4C3)n1)C2

>  <score_type>  (75) 
oracle

>  <origin>  (75) 
autodockgpu

>  <m_score__min__energy>  (75) 
-9.8399999999999999

>  <m_primary>  (75) 
energy

>  <meeko>  (75) 
{"free_energy": -9.66, "intermolecular_energy": -11.45, "internal_energy": -1.14, "cluster_size": 15, "cluster_id": 1, "rank_in_cluster": 7}

>  <energy>  (75) 
-8.5

>  <cluster_rmsd>  (75) 
1.58

>  <rmsd>  (75) 
270.03

>  <cluster>  (75) 
1

$$$$
XKJAOWLAVYPRNA-HDZKEISTNA-P
     RDKit          3D

 70 75  0  0  0  0  0  0  0  0999 V2000
  139.9990   68.8660  227.3990 C   0  0  0  0  0  0  0  0  0  0  0  0
  140.7800   69.9920  227.6560 C   0  0  0  0  0  0  0  0  0  0  0  0
  140.9820   70.9480  226.6570 C   0  0  0  0  0  0  0  0  0  0  0  0
  140.3920   70.7920  225.3920 C   0  0  0  0  0  0  0  0  0  0  0  0
  139.6190   69.6370  225.1240 C   0  0  0  0  0  0  0  0  0  0  0  0
  139.4160   68.6890  226.1420 C   0  0  0  0  0  0  0  0  0  0  0  0
  138.9230   69.4470  223.7980 C   0  0  0  0  0  0  0  0  0  0  0  0
  139.5870   70.2660  222.6930 C   0  0  0  0  0  0  0  0  0  0  0  0
  139.7810   71.6410  223.1630 N   0  0  0  0  0  0  0  0  0  0  0  0
  139.1950   72.7660  222.4710 C   0  0  0  0  0  0  0  0  0  0  0  0
  137.9320   72.6890  221.9810 N   0  0  0  0  0  0  0  0  0  0  0  0
  137.3650   73.7540  221.3580 C   0  0  0  0  0  0  0  0  0  0  0  0
  136.0090   73.6750  220.8850 N   0  0  0  0  0  0  0  0  0  0  0  0
  135.1150   73.1270  221.9200 C   0  0  0  0  0  0  0  0  0  0  0  0
  134.8580   71.6180  221.7160 C   0  0  0  0  0  0  0  0  0  0  0  0
  135.7400   70.7140  222.5020 N   0  0  0  0  0  0  0  0  0  0  0  0
  135.6170   70.8670  223.9750 C   0  0  0  0  0  0  0  0  0  0  0  0
  134.6980   69.8180  224.6170 C   0  0  0  0  0  0  0  0  0  0  0  0
  135.0950   68.5200  224.2400 O   0  0  0  0  0  0  0  0  0  0  0  0
  134.8610   68.3570  222.8600 C   0  0  0  0  0  0  0  0  0  0  0  0
  135.7470   69.3030  222.0280 C   0  0  0  0  0  0  0  0  0  0  0  0
  138.0700   74.9060  221.2230 N   0  0  0  0  0  0  0  0  0  0  0  0
  139.3380   74.9980  221.7020 C   0  0  0  0  0  0  0  0  0  0  0  0
  140.0850   76.2240  221.5610 N   0  0  0  0  0  0  0  0  0  0  0  0
  139.9960   76.9830  220.3000 C   0  0  0  0  0  0  0  0  0  0  0  0
  141.2450   77.8350  220.0700 C   0  0  0  0  0  0  0  0  0  0  0  0
  141.5110   78.6860  221.2730 C   0  0  0  0  0  0  0  0  0  0  0  0
  141.9930   79.9970  221.1350 C   0  0  0  0  0  0  0  0  0  0  0  0
  142.2590   80.7690  222.2680 C   0  0  0  0  0  0  0  0  0  0  0  0
  142.0590   80.2350  223.5420 C   0  0  0  0  0  0  0  0  0  0  0  0
  141.5970   78.9230  223.6880 C   0  0  0  0  0  0  0  0  0  0  0  0
  141.3130   78.1440  222.5560 C   0  0  0  0  0  0  0  0  0  0  0  0
  140.8710   76.7100  222.7120 C   0  0  0  0  0  0  0  0  0  0  0  0
  139.8910   73.9250  222.3290 N   0  0  0  0  0  0  0  0  0  0  0  0
  140.6510   71.8380  224.3310 C   0  0  0  0  0  0  0  0  0  0  0  0
  139.8416   68.1155  228.1877 H   0  0  0  0  0  0  0  0  0  0  0  0
  141.2380   70.1281  228.6468 H   0  0  0  0  0  0  0  0  0  0  0  0
  141.6076   71.8291  226.8628 H   0  0  0  0  0  0  0  0  0  0  0  0
  138.7944   67.8026  225.9476 H   0  0  0  0  0  0  0  0  0  0  0  0
  138.9600   68.3822  223.5246 H   0  0  0  0  0  0  0  0  0  0  0  0
  137.8829   69.7894  223.9028 H   0  0  0  0  0  0  0  0  0  0  0  0
  140.5615   69.8223  222.4411 H   0  0  0  0  0  0  0  0  0  0  0  0
  138.9467   70.2679  221.7986 H   0  0  0  0  0  0  0  0  0  0  0  0
  135.9890   73.0420  220.0520 H   0  0  0  0  0  0  0  0  0  0  0  0
  135.6750   74.6210  220.5820 H   0  0  0  0  0  0  0  0  0  0  0  0
  135.5772   73.2792  222.9065 H   0  0  0  0  0  0  0  0  0  0  0  0
  134.1501   73.6505  221.8502 H   0  0  0  0  0  0  0  0  0  0  0  0
  133.8161   71.4087  222.0001 H   0  0  0  0  0  0  0  0  0  0  0  0
  135.0744   71.4116  220.6574 H   0  0  0  0  0  0  0  0  0  0  0  0
  136.7010   71.0710  222.2780 H   0  0  0  0  0  0  0  0  0  0  0  0
  136.6183   70.7745  224.4210 H   0  0  0  0  0  0  0  0  0  0  0  0
  135.1697   71.8538  224.1651 H   0  0  0  0  0  0  0  0  0  0  0  0
  134.7525   69.9100  225.7118 H   0  0  0  0  0  0  0  0  0  0  0  0
  133.6670   69.9893  224.2739 H   0  0  0  0  0  0  0  0  0  0  0  0
  135.0839   67.3172  222.5789 H   0  0  0  0  0  0  0  0  0  0  0  0
  133.8073   68.5975  222.6551 H   0  0  0  0  0  0  0  0  0  0  0  0
  136.7813   68.9306  222.0662 H   0  0  0  0  0  0  0  0  0  0  0  0
  135.3355   69.3085  221.0079 H   0  0  0  0  0  0  0  0  0  0  0  0
  139.8864   76.2762  219.4643 H   0  0  0  0  0  0  0  0  0  0  0  0
  139.1266   77.6541  220.3615 H   0  0  0  0  0  0  0  0  0  0  0  0
  142.1077   77.1764  219.8913 H   0  0  0  0  0  0  0  0  0  0  0  0
  141.0846   78.4837  219.1962 H   0  0  0  0  0  0  0  0  0  0  0  0
  142.1615   80.4172  220.1325 H   0  0  0  0  0  0  0  0  0  0  0  0
  142.6268   81.7997  222.1562 H   0  0  0  0  0  0  0  0  0  0  0  0
  142.2651   80.8470  224.4325 H   0  0  0  0  0  0  0  0  0  0  0  0
  141.4558   78.5003  224.6937 H   0  0  0  0  0  0  0  0  0  0  0  0
  141.7641   76.0769  222.8198 H   0  0  0  0  0  0  0  0  0  0  0  0
  140.2237   76.6583  223.5999 H   0  0  0  0  0  0  0  0  0  0  0  0
  141.7012   71.7711  224.0108 H   0  0  0  0  0  0  0  0  0  0  0  0
  140.4371   72.8280  224.7601 H   0  0  0  0  0  0  0  0  0  0  0  0
  1  2  2  0
  2  3  1  0
  3  4  2  0
  4  5  1  0
  5  6  2  0
  5  7  1  0
  7  8  1  0
  8  9  1  0
  9 10  1  0
 10 11  2  0
 11 12  1  0
 12 13  1  0
 13 14  1  0
 14 15  1  0
 15 16  1  0
 16 17  1  0
 17 18  1  0
 18 19  1  0
 19 20  1  0
 20 21  1  0
 12 22  2  0
 22 23  1  0
 23 24  1  0
 24 25  1  0
 25 26  1  0
 26 27  1  0
 27 28  2  0
 28 29  1  0
 29 30  2  0
 30 31  1  0
 31 32  2  0
 32 33  1  0
 23 34  2  0
  9 35  1  0
  6  1  1  0
 34 10  1  0
 35  4  1  0
 21 16  1  0
 33 24  1  0
 32 27  1  0
  1 36  1  0
  2 37  1  0
  3 38  1  0
  6 39  1  0
  7 40  1  0
  7 41  1  0
  8 42  1  0
  8 43  1  0
 13 44  1  0
 13 45  1  0
 14 46  1  0
 14 47  1  0
 15 48  1  0
 15 49  1  0
 16 50  1  0
 17 51  1  0
 17 52  1  0
 18 53  1  0
 18 54  1  0
 20 55  1  0
 20 56  1  0
 21 57  1  0
 21 58  1  0
 25 59  1  0
 25 60  1  0
 26 61  1  0
 26 62  1  0
 28 63  1  0
 29 64  1  0
 30 65  1  0
 31 66  1  0
 33 67  1  0
 33 68  1  0
 35 69  1  0
 35 70  1  0
M  CHG  2  13   1  16   1
M  END
>  <UniqueID>  (76) 
285

>  <SMILES>  (76) 
c1ccc2c(c1)CCN(c1nc([NH2+]CC[NH+]3CCOCC3)nc(N3CCc4ccccc4C3)n1)C2

>  <Energy>  (76) 
93.57553970320627

>  <Genealogy>  (76) 
c1ccc2c(c1)CCN(c1nc([NH2+]CC[NH+]3CCOCC3)nc(N3CCc4ccccc4C3)n1)C2 (protonated)
c1ccc2c(c1)CCN(c1nc([NH2+]CC[NH+]3CCOCC3)nc(N3CCc4ccccc4C3)n1)C2 (3D coordinates assigned)
c1ccc2c(c1)CCN(c1nc([NH2+]CC[NH+]3CCOCC3)nc(N3CCc4ccccc4C3)n1)C2 (nonaromatic ring conformer: 93.57553970320627 kcal/mol)

>  <smiles>  (76) 
c1ccc2c(c1)CCN(c1nc(NCCN3CCOCC3)nc(N3CCc4ccccc4C3)n1)C2

>  <score_type>  (76) 
oracle

>  <origin>  (76) 
autodockgpu

>  <m_score__min__energy>  (76) 
-9.8399999999999999

>  <m_primary>  (76) 
energy

>  <meeko>  (76) 
{"free_energy": -8.53, "intermolecular_energy": -10.32, "internal_energy": -1.5, "cluster_size": 15, "cluster_id": 1, "rank_in_cluster": 14}

>  <energy>  (76) 
-9.58

>  <cluster_rmsd>  (76) 
0.0

>  <rmsd>  (76) 
270.65

>  <cluster>  (76) 
2

$$$$
XKJAOWLAVYPRNA-HDZKEISTNA-P
     RDKit          3D

 70 75  0  0  0  0  0  0  0  0999 V2000
  139.9730   69.5150  227.4770 C   0  0  0  0  0  0  0  0  0  0  0  0
  140.9790   70.4820  227.4850 C   0  0  0  0  0  0  0  0  0  0  0  0
  141.1920   71.2810  226.3580 C   0  0  0  0  0  0  0  0  0  0  0  0
  140.3910   71.1270  225.2150 C   0  0  0  0  0  0  0  0  0  0  0  0
  139.3870   70.1300  225.1990 C   0  0  0  0  0  0  0  0  0  0  0  0
  139.1770   69.3420  226.3430 C   0  0  0  0  0  0  0  0  0  0  0  0
  138.4680   69.9600  224.0130 C   0  0  0  0  0  0  0  0  0  0  0  0
  139.0870   70.5220  222.7360 C   0  0  0  0  0  0  0  0  0  0  0  0
  139.6020   71.8680  223.0030 N   0  0  0  0  0  0  0  0  0  0  0  0
  139.1320   73.0170  222.2650 C   0  0  0  0  0  0  0  0  0  0  0  0
  137.9340   72.9800  221.6270 N   0  0  0  0  0  0  0  0  0  0  0  0
  137.4720   74.0670  220.9580 C   0  0  0  0  0  0  0  0  0  0  0  0
  136.1810   74.0300  220.3250 N   0  0  0  0  0  0  0  0  0  0  0  0
  135.0980   74.0140  221.3230 C   0  0  0  0  0  0  0  0  0  0  0  0
  135.2010   72.7920  222.2610 C   0  0  0  0  0  0  0  0  0  0  0  0
  135.7280   73.0810  223.6220 N   0  0  0  0  0  0  0  0  0  0  0  0
  135.4560   74.4600  224.1040 C   0  0  0  0  0  0  0  0  0  0  0  0
  134.2340   74.5460  225.0300 C   0  0  0  0  0  0  0  0  0  0  0  0
  134.3510   73.6190  226.0850 O   0  0  0  0  0  0  0  0  0  0  0  0
  134.2650   72.3160  225.5540 C   0  0  0  0  0  0  0  0  0  0  0  0
  135.4540   72.0140  224.6230 C   0  0  0  0  0  0  0  0  0  0  0  0
  138.2160   75.2030  220.9270 N   0  0  0  0  0  0  0  0  0  0  0  0
  139.4190   75.2550  221.5550 C   0  0  0  0  0  0  0  0  0  0  0  0
  140.2080   76.4630  221.5260 N   0  0  0  0  0  0  0  0  0  0  0  0
  140.1880   77.3080  220.3180 C   0  0  0  0  0  0  0  0  0  0  0  0
  141.4690   78.1320  220.1910 C   0  0  0  0  0  0  0  0  0  0  0  0
  141.7150   78.8920  221.4580 C   0  0  0  0  0  0  0  0  0  0  0  0
  142.2420   80.1920  221.4260 C   0  0  0  0  0  0  0  0  0  0  0  0
  142.4880   80.8780  222.6190 C   0  0  0  0  0  0  0  0  0  0  0  0
  142.2240   80.2650  223.8450 C   0  0  0  0  0  0  0  0  0  0  0  0
  141.7190   78.9630  223.8840 C   0  0  0  0  0  0  0  0  0  0  0  0
  141.4540   78.2710  222.6920 C   0  0  0  0  0  0  0  0  0  0  0  0
  140.9640   76.8450  222.7340 C   0  0  0  0  0  0  0  0  0  0  0  0
  139.8680   74.1590  222.2260 N   0  0  0  0  0  0  0  0  0  0  0  0
  140.6670   71.9960  224.0080 C   0  0  0  0  0  0  0  0  0  0  0  0
  139.8068   68.8881  228.3654 H   0  0  0  0  0  0  0  0  0  0  0  0
  141.6053   70.6157  228.3794 H   0  0  0  0  0  0  0  0  0  0  0  0
  141.9925   72.0355  226.3666 H   0  0  0  0  0  0  0  0  0  0  0  0
  138.3802   68.5837  226.3453 H   0  0  0  0  0  0  0  0  0  0  0  0
  138.2652   68.8884  223.8695 H   0  0  0  0  0  0  0  0  0  0  0  0
  137.5388   70.5125  224.2164 H   0  0  0  0  0  0  0  0  0  0  0  0
  139.9110   69.8708  222.4089 H   0  0  0  0  0  0  0  0  0  0  0  0
  138.3246   70.5679  221.9444 H   0  0  0  0  0  0  0  0  0  0  0  0
  136.1230   73.1580  219.7490 H   0  0  0  0  0  0  0  0  0  0  0  0
  136.0690   74.8500  219.6820 H   0  0  0  0  0  0  0  0  0  0  0  0
  135.1562   74.9319  221.9263 H   0  0  0  0  0  0  0  0  0  0  0  0
  134.1395   73.9536  220.7866 H   0  0  0  0  0  0  0  0  0  0  0  0
  134.1949   72.3609  222.3701 H   0  0  0  0  0  0  0  0  0  0  0  0
  135.9237   72.1077  221.7927 H   0  0  0  0  0  0  0  0  0  0  0  0
  136.7680   73.0490  223.4830 H   0  0  0  0  0  0  0  0  0  0  0  0
  136.3381   74.8184  224.6548 H   0  0  0  0  0  0  0  0  0  0  0  0
  135.2415   75.0792  223.2205 H   0  0  0  0  0  0  0  0  0  0  0  0
  134.1653   75.5619  225.4461 H   0  0  0  0  0  0  0  0  0  0  0  0
  133.3292   74.3135  224.4493 H   0  0  0  0  0  0  0  0  0  0  0  0
  134.2639   71.5909  226.3812 H   0  0  0  0  0  0  0  0  0  0  0  0
  133.3366   72.2390  224.9691 H   0  0  0  0  0  0  0  0  0  0  0  0
  136.3533   71.8824  225.2427 H   0  0  0  0  0  0  0  0  0  0  0  0
  135.1918   71.1078  224.0572 H   0  0  0  0  0  0  0  0  0  0  0  0
  140.0881   76.6634  219.4323 H   0  0  0  0  0  0  0  0  0  0  0  0
  139.3374   78.0012  220.3951 H   0  0  0  0  0  0  0  0  0  0  0  0
  142.3177   77.4592  219.9988 H   0  0  0  0  0  0  0  0  0  0  0  0
  141.3611   78.8424  219.3581 H   0  0  0  0  0  0  0  0  0  0  0  0
  142.4619   80.6720  220.4610 H   0  0  0  0  0  0  0  0  0  0  0  0
  142.8899   81.9016  222.5916 H   0  0  0  0  0  0  0  0  0  0  0  0
  142.4140   80.8083  224.7824 H   0  0  0  0  0  0  0  0  0  0  0  0
  141.5283   78.4782  224.8528 H   0  0  0  0  0  0  0  0  0  0  0  0
  141.8332   76.1777  222.8300 H   0  0  0  0  0  0  0  0  0  0  0  0
  140.2825   76.7548  223.5928 H   0  0  0  0  0  0  0  0  0  0  0  0
  141.6231   71.6907  223.5578 H   0  0  0  0  0  0  0  0  0  0  0  0
  140.7092   73.0446  224.3375 H   0  0  0  0  0  0  0  0  0  0  0  0
  1  2  2  0
  2  3  1  0
  3  4  2  0
  4  5  1  0
  5  6  2  0
  5  7  1  0
  7  8  1  0
  8  9  1  0
  9 10  1  0
 10 11  2  0
 11 12  1  0
 12 13  1  0
 13 14  1  0
 14 15  1  0
 15 16  1  0
 16 17  1  0
 17 18  1  0
 18 19  1  0
 19 20  1  0
 20 21  1  0
 12 22  2  0
 22 23  1  0
 23 24  1  0
 24 25  1  0
 25 26  1  0
 26 27  1  0
 27 28  2  0
 28 29  1  0
 29 30  2  0
 30 31  1  0
 31 32  2  0
 32 33  1  0
 23 34  2  0
  9 35  1  0
  6  1  1  0
 34 10  1  0
 35  4  1  0
 21 16  1  0
 33 24  1  0
 32 27  1  0
  1 36  1  0
  2 37  1  0
  3 38  1  0
  6 39  1  0
  7 40  1  0
  7 41  1  0
  8 42  1  0
  8 43  1  0
 13 44  1  0
 13 45  1  0
 14 46  1  0
 14 47  1  0
 15 48  1  0
 15 49  1  0
 16 50  1  0
 17 51  1  0
 17 52  1  0
 18 53  1  0
 18 54  1  0
 20 55  1  0
 20 56  1  0
 21 57  1  0
 21 58  1  0
 25 59  1  0
 25 60  1  0
 26 61  1  0
 26 62  1  0
 28 63  1  0
 29 64  1  0
 30 65  1  0
 31 66  1  0
 33 67  1  0
 33 68  1  0
 35 69  1  0
 35 70  1  0
M  CHG  2  13   1  16   1
M  END
>  <UniqueID>  (77) 
285

>  <SMILES>  (77) 
c1ccc2c(c1)CCN(c1nc([NH2+]CC[NH+]3CCOCC3)nc(N3CCc4ccccc4C3)n1)C2

>  <Energy>  (77) 
93.57553970320627

>  <Genealogy>  (77) 
c1ccc2c(c1)CCN(c1nc([NH2+]CC[NH+]3CCOCC3)nc(N3CCc4ccccc4C3)n1)C2 (protonated)
c1ccc2c(c1)CCN(c1nc([NH2+]CC[NH+]3CCOCC3)nc(N3CCc4ccccc4C3)n1)C2 (3D coordinates assigned)
c1ccc2c(c1)CCN(c1nc([NH2+]CC[NH+]3CCOCC3)nc(N3CCc4ccccc4C3)n1)C2 (nonaromatic ring conformer: 93.57553970320627 kcal/mol)

>  <smiles>  (77) 
c1ccc2c(c1)CCN(c1nc(NCCN3CCOCC3)nc(N3CCc4ccccc4C3)n1)C2

>  <score_type>  (77) 
oracle

>  <origin>  (77) 
autodockgpu

>  <m_score__min__energy>  (77) 
-9.8399999999999999

>  <m_primary>  (77) 
energy

>  <meeko>  (77) 
{"free_energy": -9.4, "intermolecular_energy": -11.19, "internal_energy": -1.31, "cluster_size": 15, "cluster_id": 1, "rank_in_cluster": 11}

>  <energy>  (77) 
-8.78

>  <cluster_rmsd>  (77) 
1.96

>  <rmsd>  (77) 
270.55

>  <cluster>  (77) 
2

$$$$
XKJAOWLAVYPRNA-HDZKEISTNA-P
     RDKit          3D

 70 75  0  0  0  0  0  0  0  0999 V2000
  140.0280   69.6390  227.9570 C   0  0  0  0  0  0  0  0  0  0  0  0
  140.9630   70.6740  227.9260 C   0  0  0  0  0  0  0  0  0  0  0  0
  141.1690   71.3970  226.7480 C   0  0  0  0  0  0  0  0  0  0  0  0
  140.4320   71.0990  225.5910 C   0  0  0  0  0  0  0  0  0  0  0  0
  139.5000   70.0330  225.6160 C   0  0  0  0  0  0  0  0  0  0  0  0
  139.2960   69.3220  226.8110 C   0  0  0  0  0  0  0  0  0  0  0  0
  138.6480   69.7070  224.4140 C   0  0  0  0  0  0  0  0  0  0  0  0
  139.2820   70.2130  223.1200 C   0  0  0  0  0  0  0  0  0  0  0  0
  139.6910   71.6100  223.2990 N   0  0  0  0  0  0  0  0  0  0  0  0
  139.1740   72.6620  222.4550 C   0  0  0  0  0  0  0  0  0  0  0  0
  137.9990   72.4980  221.7950 N   0  0  0  0  0  0  0  0  0  0  0  0
  137.4930   73.4950  221.0250 C   0  0  0  0  0  0  0  0  0  0  0  0
  136.2250   73.3270  220.3680 N   0  0  0  0  0  0  0  0  0  0  0  0
  135.1070   73.5410  221.3040 C   0  0  0  0  0  0  0  0  0  0  0  0
  135.4150   74.6660  222.3170 C   0  0  0  0  0  0  0  0  0  0  0  0
  135.8310   74.2030  223.6680 N   0  0  0  0  0  0  0  0  0  0  0  0
  135.8130   75.2610  224.7110 C   0  0  0  0  0  0  0  0  0  0  0  0
  134.5410   75.2420  225.5700 C   0  0  0  0  0  0  0  0  0  0  0  0
  134.3280   73.9550  226.1040 O   0  0  0  0  0  0  0  0  0  0  0  0
  134.0210   73.0730  225.0490 C   0  0  0  0  0  0  0  0  0  0  0  0
  135.2140   72.9140  224.0890 C   0  0  0  0  0  0  0  0  0  0  0  0
  138.1700   74.6670  220.9140 N   0  0  0  0  0  0  0  0  0  0  0  0
  139.3500   74.8450  221.5630 C   0  0  0  0  0  0  0  0  0  0  0  0
  140.0670   76.0920  221.4480 N   0  0  0  0  0  0  0  0  0  0  0  0
  139.9840   76.8580  220.1910 C   0  0  0  0  0  0  0  0  0  0  0  0
  141.2130   77.7450  219.9940 C   0  0  0  0  0  0  0  0  0  0  0  0
  141.4300   78.5940  221.2090 C   0  0  0  0  0  0  0  0  0  0  0  0
  141.8800   79.9180  221.0900 C   0  0  0  0  0  0  0  0  0  0  0  0
  142.1000   80.6890  222.2350 C   0  0  0  0  0  0  0  0  0  0  0  0
  141.8870   80.1390  223.5000 C   0  0  0  0  0  0  0  0  0  0  0  0
  141.4580   78.8150  223.6260 C   0  0  0  0  0  0  0  0  0  0  0  0
  141.2200   78.0370  222.4820 C   0  0  0  0  0  0  0  0  0  0  0  0
  140.8140   76.5910  222.6190 C   0  0  0  0  0  0  0  0  0  0  0  0
  139.8430   73.8390  222.3350 N   0  0  0  0  0  0  0  0  0  0  0  0
  140.6990   71.8900  224.3300 C   0  0  0  0  0  0  0  0  0  0  0  0
  139.8672   69.0718  228.8857 H   0  0  0  0  0  0  0  0  0  0  0  0
  141.5388   70.9213  228.8300 H   0  0  0  0  0  0  0  0  0  0  0  0
  141.9143   72.2058  226.7272 H   0  0  0  0  0  0  0  0  0  0  0  0
  138.5545   68.5101  226.8437 H   0  0  0  0  0  0  0  0  0  0  0  0
  138.5260   68.6157  224.3486 H   0  0  0  0  0  0  0  0  0  0  0  0
  137.6750   70.2050  224.5374 H   0  0  0  0  0  0  0  0  0  0  0  0
  140.1624   69.5999  222.8771 H   0  0  0  0  0  0  0  0  0  0  0  0
  138.5535   70.1430  222.2988 H   0  0  0  0  0  0  0  0  0  0  0  0
  136.1740   72.3490  220.0000 H   0  0  0  0  0  0  0  0  0  0  0  0
  136.1480   73.9830  219.5560 H   0  0  0  0  0  0  0  0  0  0  0  0
  134.2093   73.8145  220.7300 H   0  0  0  0  0  0  0  0  0  0  0  0
  134.9479   72.6088  221.8658 H   0  0  0  0  0  0  0  0  0  0  0  0
  136.2260   75.2837  221.9039 H   0  0  0  0  0  0  0  0  0  0  0  0
  134.4732   75.2165  222.4587 H   0  0  0  0  0  0  0  0  0  0  0  0
  136.8470   73.9760  223.5370 H   0  0  0  0  0  0  0  0  0  0  0  0
  136.6820   75.1171  225.3699 H   0  0  0  0  0  0  0  0  0  0  0  0
  135.8431   76.2310  224.1931 H   0  0  0  0  0  0  0  0  0  0  0  0
  134.6491   75.9629  226.3938 H   0  0  0  0  0  0  0  0  0  0  0  0
  133.6810   75.5139  224.9403 H   0  0  0  0  0  0  0  0  0  0  0  0
  133.7642   72.0888  225.4678 H   0  0  0  0  0  0  0  0  0  0  0  0
  133.1733   73.4883  224.4842 H   0  0  0  0  0  0  0  0  0  0  0  0
  135.9839   72.3102  224.5916 H   0  0  0  0  0  0  0  0  0  0  0  0
  134.8267   72.4348  223.1778 H   0  0  0  0  0  0  0  0  0  0  0  0
  139.9116   76.1550  219.3480 H   0  0  0  0  0  0  0  0  0  0  0  0
  139.0954   77.5047  220.2387 H   0  0  0  0  0  0  0  0  0  0  0  0
  142.0971   77.1116  219.8292 H   0  0  0  0  0  0  0  0  0  0  0  0
  141.0535   78.3958  219.1216 H   0  0  0  0  0  0  0  0  0  0  0  0
  142.0598   80.3496  220.0943 H   0  0  0  0  0  0  0  0  0  0  0  0
  142.4414   81.7303  222.1390 H   0  0  0  0  0  0  0  0  0  0  0  0
  142.0571   80.7489  224.3995 H   0  0  0  0  0  0  0  0  0  0  0  0
  141.3062   78.3809  224.6253 H   0  0  0  0  0  0  0  0  0  0  0  0
  141.7214   75.9816  222.7425 H   0  0  0  0  0  0  0  0  0  0  0  0
  140.1491   76.5156  223.4920 H   0  0  0  0  0  0  0  0  0  0  0  0
  141.6924   71.6206  223.9420 H   0  0  0  0  0  0  0  0  0  0  0  0
  140.6540   72.9610  224.5768 H   0  0  0  0  0  0  0  0  0  0  0  0
  1  2  2  0
  2  3  1  0
  3  4  2  0
  4  5  1  0
  5  6  2  0
  5  7  1  0
  7  8  1  0
  8  9  1  0
  9 10  1  0
 10 11  2  0
 11 12  1  0
 12 13  1  0
 13 14  1  0
 14 15  1  0
 15 16  1  0
 16 17  1  0
 17 18  1  0
 18 19  1  0
 19 20  1  0
 20 21  1  0
 12 22  2  0
 22 23  1  0
 23 24  1  0
 24 25  1  0
 25 26  1  0
 26 27  1  0
 27 28  2  0
 28 29  1  0
 29 30  2  0
 30 31  1  0
 31 32  2  0
 32 33  1  0
 23 34  2  0
  9 35  1  0
  6  1  1  0
 34 10  1  0
 35  4  1  0
 21 16  1  0
 33 24  1  0
 32 27  1  0
  1 36  1  0
  2 37  1  0
  3 38  1  0
  6 39  1  0
  7 40  1  0
  7 41  1  0
  8 42  1  0
  8 43  1  0
 13 44  1  0
 13 45  1  0
 14 46  1  0
 14 47  1  0
 15 48  1  0
 15 49  1  0
 16 50  1  0
 17 51  1  0
 17 52  1  0
 18 53  1  0
 18 54  1  0
 20 55  1  0
 20 56  1  0
 21 57  1  0
 21 58  1  0
 25 59  1  0
 25 60  1  0
 26 61  1  0
 26 62  1  0
 28 63  1  0
 29 64  1  0
 30 65  1  0
 31 66  1  0
 33 67  1  0
 33 68  1  0
 35 69  1  0
 35 70  1  0
M  CHG  2  13   1  16   1
M  END
>  <UniqueID>  (78) 
285

>  <SMILES>  (78) 
c1ccc2c(c1)CCN(c1nc([NH2+]CC[NH+]3CCOCC3)nc(N3CCc4ccccc4C3)n1)C2

>  <Energy>  (78) 
93.57553970320627

>  <Genealogy>  (78) 
c1ccc2c(c1)CCN(c1nc([NH2+]CC[NH+]3CCOCC3)nc(N3CCc4ccccc4C3)n1)C2 (protonated)
c1ccc2c(c1)CCN(c1nc([NH2+]CC[NH+]3CCOCC3)nc(N3CCc4ccccc4C3)n1)C2 (3D coordinates assigned)
c1ccc2c(c1)CCN(c1nc([NH2+]CC[NH+]3CCOCC3)nc(N3CCc4ccccc4C3)n1)C2 (nonaromatic ring conformer: 93.57553970320627 kcal/mol)

>  <smiles>  (78) 
c1ccc2c(c1)CCN(c1nc(NCCN3CCOCC3)nc(N3CCc4ccccc4C3)n1)C2

>  <score_type>  (78) 
oracle

>  <origin>  (78) 
autodockgpu

>  <m_score__min__energy>  (78) 
-9.8399999999999999

>  <m_primary>  (78) 
energy

>  <meeko>  (78) 
{"free_energy": -9.84, "intermolecular_energy": -11.63, "internal_energy": -0.97, "cluster_size": 15, "cluster_id": 1, "rank_in_cluster": 1}

>  <energy>  (78) 
-8.12

>  <cluster_rmsd>  (78) 
0.0

>  <rmsd>  (78) 
270.41

>  <cluster>  (78) 
3

$$$$
XKJAOWLAVYPRNA-HDZKEISTNA-P
     RDKit          3D

 70 75  0  0  0  0  0  0  0  0999 V2000
  139.9920   69.7110  227.7560 C   0  0  0  0  0  0  0  0  0  0  0  0
  141.0340   70.6330  227.6620 C   0  0  0  0  0  0  0  0  0  0  0  0
  141.2380   71.3420  226.4750 C   0  0  0  0  0  0  0  0  0  0  0  0
  140.3930   71.1410  225.3720 C   0  0  0  0  0  0  0  0  0  0  0  0
  139.3500   70.1880  225.4590 C   0  0  0  0  0  0  0  0  0  0  0  0
  139.1500   69.4910  226.6630 C   0  0  0  0  0  0  0  0  0  0  0  0
  138.3850   69.9720  224.3190 C   0  0  0  0  0  0  0  0  0  0  0  0
  138.9800   70.4170  222.9860 C   0  0  0  0  0  0  0  0  0  0  0  0
  139.5560   71.7570  223.1390 N   0  0  0  0  0  0  0  0  0  0  0  0
  139.1040   72.8700  222.3360 C   0  0  0  0  0  0  0  0  0  0  0  0
  137.9380   72.7910  221.6470 N   0  0  0  0  0  0  0  0  0  0  0  0
  137.4920   73.8440  220.9160 C   0  0  0  0  0  0  0  0  0  0  0  0
  136.2320   73.7640  220.2270 N   0  0  0  0  0  0  0  0  0  0  0  0
  135.1220   73.5530  221.1720 C   0  0  0  0  0  0  0  0  0  0  0  0
  135.1550   74.5710  222.3330 C   0  0  0  0  0  0  0  0  0  0  0  0
  135.6630   74.0390  223.6260 N   0  0  0  0  0  0  0  0  0  0  0  0
  135.7810   75.0550  224.7040 C   0  0  0  0  0  0  0  0  0  0  0  0
  134.5870   75.0540  225.6680 C   0  0  0  0  0  0  0  0  0  0  0  0
  134.3630   73.7570  226.1720 O   0  0  0  0  0  0  0  0  0  0  0  0
  133.9290   72.9300  225.1170 C   0  0  0  0  0  0  0  0  0  0  0  0
  135.0280   72.7610  224.0520 C   0  0  0  0  0  0  0  0  0  0  0  0
  138.2230   74.9890  220.8740 N   0  0  0  0  0  0  0  0  0  0  0  0
  139.3950   75.0820  221.5530 C   0  0  0  0  0  0  0  0  0  0  0  0
  140.1680   76.3000  221.5120 N   0  0  0  0  0  0  0  0  0  0  0  0
  140.1470   77.1270  220.2910 C   0  0  0  0  0  0  0  0  0  0  0  0
  141.4180   77.9660  220.1610 C   0  0  0  0  0  0  0  0  0  0  0  0
  141.6450   78.7460  221.4190 C   0  0  0  0  0  0  0  0  0  0  0  0
  142.1550   80.0530  221.3730 C   0  0  0  0  0  0  0  0  0  0  0  0
  142.3840   80.7590  222.5570 C   0  0  0  0  0  0  0  0  0  0  0  0
  142.1200   80.1610  223.7900 C   0  0  0  0  0  0  0  0  0  0  0  0
  141.6300   78.8530  223.8450 C   0  0  0  0  0  0  0  0  0  0  0  0
  141.3830   78.1410  222.6600 C   0  0  0  0  0  0  0  0  0  0  0  0
  140.9110   76.7090  222.7200 C   0  0  0  0  0  0  0  0  0  0  0  0
  139.8270   74.0200  222.2860 N   0  0  0  0  0  0  0  0  0  0  0  0
  140.6590   71.9110  224.0970 C   0  0  0  0  0  0  0  0  0  0  0  0
  139.8327   69.1560  228.6923 H   0  0  0  0  0  0  0  0  0  0  0  0
  141.6965   70.8025  228.5236 H   0  0  0  0  0  0  0  0  0  0  0  0
  142.0663   72.0624  226.4045 H   0  0  0  0  0  0  0  0  0  0  0  0
  138.3253   68.7677  226.7453 H   0  0  0  0  0  0  0  0  0  0  0  0
  138.1368   68.9020  224.2595 H   0  0  0  0  0  0  0  0  0  0  0  0
  137.4850   70.5744  224.5118 H   0  0  0  0  0  0  0  0  0  0  0  0
  139.7663   69.7112  222.6800 H   0  0  0  0  0  0  0  0  0  0  0  0
  138.1925   70.4384  222.2183 H   0  0  0  0  0  0  0  0  0  0  0  0
  136.2710   72.9540  219.5660 H   0  0  0  0  0  0  0  0  0  0  0  0
  136.0700   74.6330  219.6660 H   0  0  0  0  0  0  0  0  0  0  0  0
  134.1696   73.6597  220.6320 H   0  0  0  0  0  0  0  0  0  0  0  0
  135.2239   72.5444  221.5990 H   0  0  0  0  0  0  0  0  0  0  0  0
  135.8006   75.4094  222.0325 H   0  0  0  0  0  0  0  0  0  0  0  0
  134.1101   74.8643  222.5124 H   0  0  0  0  0  0  0  0  0  0  0  0
  136.6530   73.7760  223.3990 H   0  0  0  0  0  0  0  0  0  0  0  0
  136.6955   74.8495  225.2797 H   0  0  0  0  0  0  0  0  0  0  0  0
  135.8106   76.0428  224.2208 H   0  0  0  0  0  0  0  0  0  0  0  0
  134.7962   75.7368  226.5047 H   0  0  0  0  0  0  0  0  0  0  0  0
  133.6898   75.3854  225.1247 H   0  0  0  0  0  0  0  0  0  0  0  0
  133.6663   71.9413  225.5212 H   0  0  0  0  0  0  0  0  0  0  0  0
  133.0550   73.4007  224.6431 H   0  0  0  0  0  0  0  0  0  0  0  0
  135.8106   72.1068  224.4638 H   0  0  0  0  0  0  0  0  0  0  0  0
  134.5437   72.3348  223.1610 H   0  0  0  0  0  0  0  0  0  0  0  0
  140.0625   76.4680  219.4143 H   0  0  0  0  0  0  0  0  0  0  0  0
  139.2870   77.8102  220.3516 H   0  0  0  0  0  0  0  0  0  0  0  0
  142.2768   77.3019  219.9837 H   0  0  0  0  0  0  0  0  0  0  0  0
  141.3067   78.6634  219.3177 H   0  0  0  0  0  0  0  0  0  0  0  0
  142.3749   80.5225  220.4028 H   0  0  0  0  0  0  0  0  0  0  0  0
  142.7728   81.7872  222.5171 H   0  0  0  0  0  0  0  0  0  0  0  0
  142.2978   80.7201  224.7205 H   0  0  0  0  0  0  0  0  0  0  0  0
  141.4373   78.3800  224.8193 H   0  0  0  0  0  0  0  0  0  0  0  0
  141.7879   76.0544  222.8316 H   0  0  0  0  0  0  0  0  0  0  0  0
  140.2251   76.6222  223.5756 H   0  0  0  0  0  0  0  0  0  0  0  0
  141.5861   71.5359  223.6390 H   0  0  0  0  0  0  0  0  0  0  0  0
  140.7526   72.9776  224.3493 H   0  0  0  0  0  0  0  0  0  0  0  0
  1  2  2  0
  2  3  1  0
  3  4  2  0
  4  5  1  0
  5  6  2  0
  5  7  1  0
  7  8  1  0
  8  9  1  0
  9 10  1  0
 10 11  2  0
 11 12  1  0
 12 13  1  0
 13 14  1  0
 14 15  1  0
 15 16  1  0
 16 17  1  0
 17 18  1  0
 18 19  1  0
 19 20  1  0
 20 21  1  0
 12 22  2  0
 22 23  1  0
 23 24  1  0
 24 25  1  0
 25 26  1  0
 26 27  1  0
 27 28  2  0
 28 29  1  0
 29 30  2  0
 30 31  1  0
 31 32  2  0
 32 33  1  0
 23 34  2  0
  9 35  1  0
  6  1  1  0
 34 10  1  0
 35  4  1  0
 21 16  1  0
 33 24  1  0
 32 27  1  0
  1 36  1  0
  2 37  1  0
  3 38  1  0
  6 39  1  0
  7 40  1  0
  7 41  1  0
  8 42  1  0
  8 43  1  0
 13 44  1  0
 13 45  1  0
 14 46  1  0
 14 47  1  0
 15 48  1  0
 15 49  1  0
 16 50  1  0
 17 51  1  0
 17 52  1  0
 18 53  1  0
 18 54  1  0
 20 55  1  0
 20 56  1  0
 21 57  1  0
 21 58  1  0
 25 59  1  0
 25 60  1  0
 26 61  1  0
 26 62  1  0
 28 63  1  0
 29 64  1  0
 30 65  1  0
 31 66  1  0
 33 67  1  0
 33 68  1  0
 35 69  1  0
 35 70  1  0
M  CHG  2  13   1  16   1
M  END
>  <UniqueID>  (79) 
285

>  <SMILES>  (79) 
c1ccc2c(c1)CCN(c1nc([NH2+]CC[NH+]3CCOCC3)nc(N3CCc4ccccc4C3)n1)C2

>  <Energy>  (79) 
93.57553970320627

>  <Genealogy>  (79) 
c1ccc2c(c1)CCN(c1nc([NH2+]CC[NH+]3CCOCC3)nc(N3CCc4ccccc4C3)n1)C2 (protonated)
c1ccc2c(c1)CCN(c1nc([NH2+]CC[NH+]3CCOCC3)nc(N3CCc4ccccc4C3)n1)C2 (3D coordinates assigned)
c1ccc2c(c1)CCN(c1nc([NH2+]CC[NH+]3CCOCC3)nc(N3CCc4ccccc4C3)n1)C2 (nonaromatic ring conformer: 93.57553970320627 kcal/mol)

>  <smiles>  (79) 
c1ccc2c(c1)CCN(c1nc(NCCN3CCOCC3)nc(N3CCc4ccccc4C3)n1)C2

>  <score_type>  (79) 
oracle

>  <origin>  (79) 
autodockgpu

>  <m_score__min__energy>  (79) 
-9.8399999999999999

>  <m_primary>  (79) 
energy

>  <meeko>  (79) 
{"free_energy": -9.65, "intermolecular_energy": -11.44, "internal_energy": -1.14, "cluster_size": 15, "cluster_id": 1, "rank_in_cluster": 8}

>  <energy>  (79) 
-7.98

>  <cluster_rmsd>  (79) 
0.0

>  <rmsd>  (79) 
269.72

>  <cluster>  (79) 
4

$$$$
XKJAOWLAVYPRNA-HDZKEISTNA-P
     RDKit          3D

 70 75  0  0  0  0  0  0  0  0999 V2000
  139.9970   69.6130  227.7520 C   0  0  0  0  0  0  0  0  0  0  0  0
  141.0030   70.5780  227.7080 C   0  0  0  0  0  0  0  0  0  0  0  0
  141.2150   71.3160  226.5390 C   0  0  0  0  0  0  0  0  0  0  0  0
  140.4140   71.1010  225.4060 C   0  0  0  0  0  0  0  0  0  0  0  0
  139.4100   70.1040  225.4440 C   0  0  0  0  0  0  0  0  0  0  0  0
  139.2010   69.3790  226.6290 C   0  0  0  0  0  0  0  0  0  0  0  0
  138.4910   69.8710  224.2700 C   0  0  0  0  0  0  0  0  0  0  0  0
  139.1090   70.3640  222.9640 C   0  0  0  0  0  0  0  0  0  0  0  0
  139.6240   71.7230  223.1580 N   0  0  0  0  0  0  0  0  0  0  0  0
  139.1530   72.8300  222.3600 C   0  0  0  0  0  0  0  0  0  0  0  0
  137.9780   72.7400  221.6850 N   0  0  0  0  0  0  0  0  0  0  0  0
  137.5150   73.7890  220.9590 C   0  0  0  0  0  0  0  0  0  0  0  0
  136.2470   73.6970  220.2870 N   0  0  0  0  0  0  0  0  0  0  0  0
  135.1460   73.5120  221.2490 C   0  0  0  0  0  0  0  0  0  0  0  0
  135.1730   74.5800  222.3640 C   0  0  0  0  0  0  0  0  0  0  0  0
  135.6700   74.1040  223.6830 N   0  0  0  0  0  0  0  0  0  0  0  0
  135.7740   75.1660  224.7180 C   0  0  0  0  0  0  0  0  0  0  0  0
  134.5710   75.2010  225.6700 C   0  0  0  0  0  0  0  0  0  0  0  0
  134.3460   73.9260  226.2270 O   0  0  0  0  0  0  0  0  0  0  0  0
  133.9240   73.0540  225.2030 C   0  0  0  0  0  0  0  0  0  0  0  0
  135.0350   72.8430  224.1570 C   0  0  0  0  0  0  0  0  0  0  0  0
  138.2350   74.9400  220.9060 N   0  0  0  0  0  0  0  0  0  0  0  0
  139.4150   75.0440  221.5700 C   0  0  0  0  0  0  0  0  0  0  0  0
  140.1770   76.2680  221.5180 N   0  0  0  0  0  0  0  0  0  0  0  0
  140.1540   77.0800  220.2870 C   0  0  0  0  0  0  0  0  0  0  0  0
  141.4180   77.9290  220.1520 C   0  0  0  0  0  0  0  0  0  0  0  0
  141.6320   78.7270  221.4020 C   0  0  0  0  0  0  0  0  0  0  0  0
  142.1310   80.0380  221.3410 C   0  0  0  0  0  0  0  0  0  0  0  0
  142.3470   80.7600  222.5170 C   0  0  0  0  0  0  0  0  0  0  0  0
  142.0830   80.1750  223.7570 C   0  0  0  0  0  0  0  0  0  0  0  0
  141.6050   78.8630  223.8250 C   0  0  0  0  0  0  0  0  0  0  0  0
  141.3700   78.1340  222.6490 C   0  0  0  0  0  0  0  0  0  0  0  0
  140.9110   76.6990  222.7240 C   0  0  0  0  0  0  0  0  0  0  0  0
  139.8650   73.9870  222.2980 N   0  0  0  0  0  0  0  0  0  0  0  0
  140.6900   71.9040  224.1540 C   0  0  0  0  0  0  0  0  0  0  0  0
  139.8304   69.0352  228.6731 H   0  0  0  0  0  0  0  0  0  0  0  0
  141.6302   70.7588  228.5934 H   0  0  0  0  0  0  0  0  0  0  0  0
  142.0150   72.0703  226.5070 H   0  0  0  0  0  0  0  0  0  0  0  0
  138.4045   68.6215  226.6724 H   0  0  0  0  0  0  0  0  0  0  0  0
  138.2882   68.7933  224.1842 H   0  0  0  0  0  0  0  0  0  0  0  0
  137.5620   70.4337  224.4442 H   0  0  0  0  0  0  0  0  0  0  0  0
  139.9329   69.6964  222.6717 H   0  0  0  0  0  0  0  0  0  0  0  0
  138.3459   70.3672  222.1718 H   0  0  0  0  0  0  0  0  0  0  0  0
  136.2760   72.8720  219.6440 H   0  0  0  0  0  0  0  0  0  0  0  0
  136.0810   74.5540  219.7080 H   0  0  0  0  0  0  0  0  0  0  0  0
  134.1885   73.5820  220.7120 H   0  0  0  0  0  0  0  0  0  0  0  0
  135.2647   72.5244  221.7186 H   0  0  0  0  0  0  0  0  0  0  0  0
  135.8231   75.4028  222.0318 H   0  0  0  0  0  0  0  0  0  0  0  0
  134.1276   74.8836  222.5223 H   0  0  0  0  0  0  0  0  0  0  0  0
  136.6630   73.8360  223.4770 H   0  0  0  0  0  0  0  0  0  0  0  0
  136.6838   74.9891  225.3104 H   0  0  0  0  0  0  0  0  0  0  0  0
  135.8044   76.1324  224.1934 H   0  0  0  0  0  0  0  0  0  0  0  0
  134.7700   75.9195  226.4788 H   0  0  0  0  0  0  0  0  0  0  0  0
  133.6780   75.5051  225.1043 H   0  0  0  0  0  0  0  0  0  0  0  0
  133.6590   72.0825  225.6457 H   0  0  0  0  0  0  0  0  0  0  0  0
  133.0539   73.5021  224.7009 H   0  0  0  0  0  0  0  0  0  0  0  0
  135.8154   72.2101  224.6046 H   0  0  0  0  0  0  0  0  0  0  0  0
  134.5615   72.3768  223.2804 H   0  0  0  0  0  0  0  0  0  0  0  0
  140.0792   76.4097  219.4180 H   0  0  0  0  0  0  0  0  0  0  0  0
  139.2878   77.7562  220.3358 H   0  0  0  0  0  0  0  0  0  0  0  0
  142.2837   77.2707  219.9868 H   0  0  0  0  0  0  0  0  0  0  0  0
  141.3044   78.6148  219.2994 H   0  0  0  0  0  0  0  0  0  0  0  0
  142.3520   80.4970  220.3661 H   0  0  0  0  0  0  0  0  0  0  0  0
  142.7258   81.7915  222.4661 H   0  0  0  0  0  0  0  0  0  0  0  0
  142.2513   80.7470  224.6814 H   0  0  0  0  0  0  0  0  0  0  0  0
  141.4123   78.4002  224.8041 H   0  0  0  0  0  0  0  0  0  0  0  0
  141.7935   76.0540  222.8473 H   0  0  0  0  0  0  0  0  0  0  0  0
  140.2219   76.6165  223.5775 H   0  0  0  0  0  0  0  0  0  0  0  0
  141.6456   71.5743  223.7202 H   0  0  0  0  0  0  0  0  0  0  0  0
  140.7334   72.9688  224.4268 H   0  0  0  0  0  0  0  0  0  0  0  0
  1  2  2  0
  2  3  1  0
  3  4  2  0
  4  5  1  0
  5  6  2  0
  5  7  1  0
  7  8  1  0
  8  9  1  0
  9 10  1  0
 10 11  2  0
 11 12  1  0
 12 13  1  0
 13 14  1  0
 14 15  1  0
 15 16  1  0
 16 17  1  0
 17 18  1  0
 18 19  1  0
 19 20  1  0
 20 21  1  0
 12 22  2  0
 22 23  1  0
 23 24  1  0
 24 25  1  0
 25 26  1  0
 26 27  1  0
 27 28  2  0
 28 29  1  0
 29 30  2  0
 30 31  1  0
 31 32  2  0
 32 33  1  0
 23 34  2  0
  9 35  1  0
  6  1  1  0
 34 10  1  0
 35  4  1  0
 21 16  1  0
 33 24  1  0
 32 27  1  0
  1 36  1  0
  2 37  1  0
  3 38  1  0
  6 39  1  0
  7 40  1  0
  7 41  1  0
  8 42  1  0
  8 43  1  0
 13 44  1  0
 13 45  1  0
 14 46  1  0
 14 47  1  0
 15 48  1  0
 15 49  1  0
 16 50  1  0
 17 51  1  0
 17 52  1  0
 18 53  1  0
 18 54  1  0
 20 55  1  0
 20 56  1  0
 21 57  1  0
 21 58  1  0
 25 59  1  0
 25 60  1  0
 26 61  1  0
 26 62  1  0
 28 63  1  0
 29 64  1  0
 30 65  1  0
 31 66  1  0
 33 67  1  0
 33 68  1  0
 35 69  1  0
 35 70  1  0
M  CHG  2  13   1  16   1
M  END
>  <UniqueID>  (80) 
285

>  <SMILES>  (80) 
c1ccc2c(c1)CCN(c1nc([NH2+]CC[NH+]3CCOCC3)nc(N3CCc4ccccc4C3)n1)C2

>  <Energy>  (80) 
93.57553970320627

>  <Genealogy>  (80) 
c1ccc2c(c1)CCN(c1nc([NH2+]CC[NH+]3CCOCC3)nc(N3CCc4ccccc4C3)n1)C2 (protonated)
c1ccc2c(c1)CCN(c1nc([NH2+]CC[NH+]3CCOCC3)nc(N3CCc4ccccc4C3)n1)C2 (3D coordinates assigned)
c1ccc2c(c1)CCN(c1nc([NH2+]CC[NH+]3CCOCC3)nc(N3CCc4ccccc4C3)n1)C2 (nonaromatic ring conformer: 93.57553970320627 kcal/mol)

>  <smiles>  (80) 
c1ccc2c(c1)CCN(c1nc(NCCN3CCOCC3)nc(N3CCc4ccccc4C3)n1)C2

>  <score_type>  (80) 
oracle

>  <origin>  (80) 
autodockgpu

>  <m_score__min__energy>  (80) 
-9.8399999999999999

>  <m_primary>  (80) 
energy

>  <meeko>  (80) 
{"free_energy": -9.81, "intermolecular_energy": -11.6, "internal_energy": -1.01, "cluster_size": 15, "cluster_id": 1, "rank_in_cluster": 3}

>  <energy>  (80) 
-7.81

>  <cluster_rmsd>  (80) 
0.0

>  <rmsd>  (80) 
270.49

>  <cluster>  (80) 
5

$$$$
