BLHILRPTNSSYME-YFHWJHCCNA-N
     RDKit          3D

 57 61  0  0  0  0  0  0  0  0999 V2000
  137.6160   74.3040  222.7110 H   0  0  0  0  0  0  0  0  0  0  0  0
  137.1490   75.1430  222.3060 N   0  0  0  0  0  0  0  0  0  0  0  0
  137.3710   76.3700  222.6790 C   0  0  0  0  0  0  0  0  0  0  0  0
  138.6920   76.8780  222.7260 C   0  0  0  0  0  0  0  0  0  0  0  0
  139.8830   76.0500  222.4590 C   0  0  0  0  0  0  0  0  0  0  0  0
  141.0490   76.6220  222.3580 N   0  0  0  0  0  0  0  0  0  0  0  0
  141.4440   77.6020  221.3430 C   0  0  2  0  0  0  0  0  0  0  0  0
  142.3923   77.2844  220.8850 H   0  0  0  0  0  0  0  0  0  0  0  0
  141.6670   78.9650  221.9670 C   0  0  0  0  0  0  0  0  0  0  0  0
  142.1720   79.0660  223.2760 C   0  0  0  0  0  0  0  0  0  0  0  0
  142.3876   78.1539  223.8519 H   0  0  0  0  0  0  0  0  0  0  0  0
  142.4010   80.3210  223.8480 C   0  0  0  0  0  0  0  0  0  0  0  0
  142.7872   80.3929  224.8755 H   0  0  0  0  0  0  0  0  0  0  0  0
  142.1410   81.4840  223.1190 C   0  0  0  0  0  0  0  0  0  0  0  0
  142.3238   82.4696  223.5720 H   0  0  0  0  0  0  0  0  0  0  0  0
  141.6490   81.3950  221.8150 C   0  0  0  0  0  0  0  0  0  0  0  0
  141.4462   82.3109  221.2406 H   0  0  0  0  0  0  0  0  0  0  0  0
  141.4140   80.1430  221.2390 C   0  0  0  0  0  0  0  0  0  0  0  0
  141.0290   80.0780  220.2106 H   0  0  0  0  0  0  0  0  0  0  0  0
  140.3580   77.6760  220.2690 C   0  0  0  0  0  0  0  0  0  0  0  0
  139.3709   77.7433  220.7497 H   0  0  0  0  0  0  0  0  0  0  0  0
  140.5220   78.5651  219.6423 H   0  0  0  0  0  0  0  0  0  0  0  0
  140.3999   76.7729  219.6423 H   0  0  0  0  0  0  0  0  0  0  0  0
  139.7100   74.6790  222.2530 O   0  0  0  0  0  0  0  0  0  0  0  0
  139.0270   74.1210  222.7490 H   0  0  0  0  0  0  0  0  0  0  0  0
  138.8950   78.2170  223.0560 C   0  0  0  0  0  0  0  0  0  0  0  0
  139.9147   78.6296  223.0594 H   0  0  0  0  0  0  0  0  0  0  0  0
  137.8150   79.0380  223.3820 C   0  0  0  0  0  0  0  0  0  0  0  0
  137.9900   80.3870  223.7500 C   0  0  0  0  0  0  0  0  0  0  0  0
  139.1540   80.8800  223.7790 O   0  0  0  0  0  0  0  0  0  0  0  0
  136.9010   81.1590  224.0760 N   0  0  0  0  0  0  0  0  0  0  0  0
  137.0590   82.4740  224.4420 C   0  0  0  0  0  0  0  0  0  0  0  0
  138.0670   82.9133  224.4719 H   0  0  0  0  0  0  0  0  0  0  0  0
  135.9510   83.2600  224.7770 C   0  0  0  0  0  0  0  0  0  0  0  0
  136.1690   84.9360  225.2470 Cl  0  0  0  0  0  0  0  0  0  0  0  0
  134.6750   82.7020  224.7340 C   0  0  0  0  0  0  0  0  0  0  0  0
  133.7968   83.3116  224.9932 H   0  0  0  0  0  0  0  0  0  0  0  0
  134.5160   81.3710  224.3620 C   0  0  0  0  0  0  0  0  0  0  0  0
  133.5119   80.9234  224.3236 H   0  0  0  0  0  0  0  0  0  0  0  0
  135.6410   80.6050  224.0370 C   0  0  0  0  0  0  0  0  0  0  0  0
  135.4740   79.3080  223.6830 N   0  0  0  0  0  0  0  0  0  0  0  0
  136.5170   78.5020  223.3530 C   0  0  0  0  0  0  0  0  0  0  0  0
  136.3050   77.1870  223.0000 N   0  0  0  0  0  0  0  0  0  0  0  0
  134.9190   76.6680  222.9180 C   0  0  0  0  0  0  0  0  0  0  0  0
  134.2647   77.4495  222.5044 H   0  0  0  0  0  0  0  0  0  0  0  0
  134.9117   75.7805  222.2681 H   0  0  0  0  0  0  0  0  0  0  0  0
  134.4160   76.2730  224.2830 C   0  0  0  0  0  0  0  0  0  0  0  0
  134.7050   75.0010  224.8080 C   0  0  0  0  0  0  0  0  0  0  0  0
  135.2769   74.2780  224.2078 H   0  0  0  0  0  0  0  0  0  0  0  0
  134.2690   74.6510  226.0890 C   0  0  0  0  0  0  0  0  0  0  0  0
  134.5000   73.6548  226.4944 H   0  0  0  0  0  0  0  0  0  0  0  0
  133.5410   75.5630  226.8550 C   0  0  0  0  0  0  0  0  0  0  0  0
  133.1995   75.2852  227.8631 H   0  0  0  0  0  0  0  0  0  0  0  0
  133.2460   76.8280  226.3420 C   0  0  0  0  0  0  0  0  0  0  0  0
  132.6709   77.5455  226.9457 H   0  0  0  0  0  0  0  0  0  0  0  0
  133.6810   77.1830  225.0620 C   0  0  0  0  0  0  0  0  0  0  0  0
  133.4467   78.1805  224.6620 H   0  0  0  0  0  0  0  0  0  0  0  0
  1  2  1  0
  2  3  2  0
  3  4  1  0
  4  5  1  0
  5  6  2  0
  6  7  1  0
  7  8  1  6
  7  9  1  0
  9 10  2  0
 10 11  1  0
 10 12  1  0
 12 13  1  0
 12 14  2  0
 14 15  1  0
 14 16  1  0
 16 17  1  0
 16 18  2  0
 18 19  1  0
  7 20  1  0
 20 21  1  0
 20 22  1  0
 20 23  1  0
  5 24  1  0
 24 25  1  0
  4 26  2  0
 26 27  1  0
 26 28  1  0
 28 29  1  0
 29 30  2  0
 29 31  1  0
 31 32  1  0
 32 33  1  0
 32 34  2  0
 34 35  1  0
 34 36  1  0
 36 37  1  0
 36 38  2  0
 38 39  1  0
 38 40  1  0
 40 41  2  0
 41 42  1  0
 42 43  1  0
 43 44  1  0
 44 45  1  0
 44 46  1  0
 44 47  1  0
 47 48  2  0
 48 49  1  0
 48 50  1  0
 50 51  1  0
 50 52  2  0
 52 53  1  0
 52 54  1  0
 54 55  1  0
 54 56  2  0
 56 57  1  0
 43  3  1  0
 56 47  1  0
 18  9  1  0
 42 28  2  0
 40 31  1  0
M  END
>  <UniqueID>  (1) 
100

>  <SMILES>  (1) 
[H]/N=c1\c(/C(O)=N/[C@@H](C)c2ccccc2)cc2c(=O)n3cc(Cl)ccc3nc2n1Cc1ccccc1

>  <Energy>  (1) 
83.48587377213799

>  <Genealogy>  (1) 
C[C@H](N=C(O)c1cc2c(=O)n3cc(Cl)ccc3nc2n(Cc2ccccc2)c1=N)c1ccccc1 (tautomer)
[H]/N=c1\c(/C(O)=N/[C@@H](C)c2ccccc2)cc2c(=O)n3cc(Cl)ccc3nc2n1Cc1ccccc1 (cis-trans isomerization)
[H]/N=c1\c(/C(O)=N/[C@@H](C)c2ccccc2)cc2c(=O)n3cc(Cl)ccc3nc2n1Cc1ccccc1 (3D coordinates assigned)
[H]/N=c1\c(/C(O)=N/[C@@H](C)c2ccccc2)cc2c(=O)n3cc(Cl)ccc3nc2n1Cc1ccccc1 (optimized conformer: 83.48587377213799 kcal/mol)

>  <smiles>  (1) 
C[C@H](NC(=O)c1cc2c(=O)n3cc(Cl)ccc3nc2n(Cc2ccccc2)c1=N)c1ccccc1

>  <score_type>  (1) 
oracle

>  <origin>  (1) 
autodockgpu

>  <m_score__min__energy>  (1) 
-8.7100000000000009

>  <m_primary>  (1) 
energy

>  <meeko>  (1) 
{"free_energy": -7.66, "intermolecular_energy": -10.05, "internal_energy": -2.5, "cluster_size": 10, "cluster_id": 5, "rank_in_cluster": 1}

>  <energy>  (1) 
-8.71

>  <cluster_rmsd>  (1) 
0.0

>  <rmsd>  (1) 
268.81

>  <cluster>  (1) 
1

$$$$
BLHILRPTNSSYME-YFHWJHCCNA-N
     RDKit          3D

 57 61  0  0  0  0  0  0  0  0999 V2000
  137.6780   74.3360  222.6940 H   0  0  0  0  0  0  0  0  0  0  0  0
  137.2150   75.1760  222.2850 N   0  0  0  0  0  0  0  0  0  0  0  0
  137.4250   76.4020  222.6680 C   0  0  0  0  0  0  0  0  0  0  0  0
  138.7410   76.9220  222.7170 C   0  0  0  0  0  0  0  0  0  0  0  0
  139.9410   76.1070  222.4430 C   0  0  0  0  0  0  0  0  0  0  0  0
  141.0920   76.6970  222.2910 N   0  0  0  0  0  0  0  0  0  0  0  0
  141.4430   77.6460  221.2330 C   0  0  2  0  0  0  0  0  0  0  0  0
  142.3887   77.3318  220.7673 H   0  0  0  0  0  0  0  0  0  0  0  0
  141.6480   79.0360  221.8000 C   0  0  0  0  0  0  0  0  0  0  0  0
  141.2480   80.1650  221.0620 C   0  0  0  0  0  0  0  0  0  0  0  0
  140.8024   80.0369  220.0645 H   0  0  0  0  0  0  0  0  0  0  0  0
  141.4140   81.4490  221.5900 C   0  0  0  0  0  0  0  0  0  0  0  0
  141.1060   82.3274  221.0038 H   0  0  0  0  0  0  0  0  0  0  0  0
  141.9700   81.6190  222.8600 C   0  0  0  0  0  0  0  0  0  0  0  0
  142.0992   82.6304  223.2728 H   0  0  0  0  0  0  0  0  0  0  0  0
  142.3620   80.5050  223.6060 C   0  0  0  0  0  0  0  0  0  0  0  0
  142.7978   80.6396  224.6070 H   0  0  0  0  0  0  0  0  0  0  0  0
  142.2010   79.2200  223.0820 C   0  0  0  0  0  0  0  0  0  0  0  0
  142.5083   78.3459  223.6749 H   0  0  0  0  0  0  0  0  0  0  0  0
  140.3330   77.6560  220.1800 C   0  0  0  0  0  0  0  0  0  0  0  0
  139.3533   77.6648  220.6801 H   0  0  0  0  0  0  0  0  0  0  0  0
  140.4319   78.5533  219.5514 H   0  0  0  0  0  0  0  0  0  0  0  0
  140.4158   76.7571  219.5514 H   0  0  0  0  0  0  0  0  0  0  0  0
  139.7880   74.7280  222.2840 O   0  0  0  0  0  0  0  0  0  0  0  0
  139.0830   74.1840  222.7650 H   0  0  0  0  0  0  0  0  0  0  0  0
  138.9330   78.2600  223.0580 C   0  0  0  0  0  0  0  0  0  0  0  0
  139.9489   78.6817  223.0646 H   0  0  0  0  0  0  0  0  0  0  0  0
  137.8450   79.0680  223.3910 C   0  0  0  0  0  0  0  0  0  0  0  0
  138.0070   80.4160  223.7700 C   0  0  0  0  0  0  0  0  0  0  0  0
  139.1670   80.9190  223.8020 O   0  0  0  0  0  0  0  0  0  0  0  0
  136.9120   81.1750  224.1030 N   0  0  0  0  0  0  0  0  0  0  0  0
  137.0570   82.4890  224.4790 C   0  0  0  0  0  0  0  0  0  0  0  0
  138.0607   82.9380  224.5112 H   0  0  0  0  0  0  0  0  0  0  0  0
  135.9430   83.2610  224.8210 C   0  0  0  0  0  0  0  0  0  0  0  0
  136.1450   84.9350  225.3040 Cl  0  0  0  0  0  0  0  0  0  0  0  0
  134.6720   82.6920  224.7750 C   0  0  0  0  0  0  0  0  0  0  0  0
  133.7885   83.2916  225.0395 H   0  0  0  0  0  0  0  0  0  0  0  0
  134.5250   81.3620  224.3930 C   0  0  0  0  0  0  0  0  0  0  0  0
  133.5251   80.9053  224.3522 H   0  0  0  0  0  0  0  0  0  0  0  0
  135.6570   80.6090  224.0610 C   0  0  0  0  0  0  0  0  0  0  0  0
  135.5020   79.3130  223.6970 N   0  0  0  0  0  0  0  0  0  0  0  0
  136.5520   78.5200  223.3600 C   0  0  0  0  0  0  0  0  0  0  0  0
  136.3520   77.2070  222.9960 N   0  0  0  0  0  0  0  0  0  0  0  0
  134.9710   76.6750  222.9120 C   0  0  0  0  0  0  0  0  0  0  0  0
  134.3117   77.4475  222.4894 H   0  0  0  0  0  0  0  0  0  0  0  0
  134.9748   75.7824  222.2692 H   0  0  0  0  0  0  0  0  0  0  0  0
  134.4650   76.2860  224.2770 C   0  0  0  0  0  0  0  0  0  0  0  0
  134.7680   75.0240  224.8170 C   0  0  0  0  0  0  0  0  0  0  0  0
  135.3537   74.3032  224.2277 H   0  0  0  0  0  0  0  0  0  0  0  0
  134.3290   74.6800  226.0990 C   0  0  0  0  0  0  0  0  0  0  0  0
  134.5711   73.6913  226.5159 H   0  0  0  0  0  0  0  0  0  0  0  0
  133.5830   75.5910  226.8510 C   0  0  0  0  0  0  0  0  0  0  0  0
  133.2395   75.3194  227.8601 H   0  0  0  0  0  0  0  0  0  0  0  0
  133.2730   76.8460  226.3230 C   0  0  0  0  0  0  0  0  0  0  0  0
  132.6831   77.5611  226.9152 H   0  0  0  0  0  0  0  0  0  0  0  0
  133.7120   77.1940  225.0420 C   0  0  0  0  0  0  0  0  0  0  0  0
  133.4668   78.1841  224.6302 H   0  0  0  0  0  0  0  0  0  0  0  0
  1  2  1  0
  2  3  2  0
  3  4  1  0
  4  5  1  0
  5  6  2  0
  6  7  1  0
  7  8  1  6
  7  9  1  0
  9 10  2  0
 10 11  1  0
 10 12  1  0
 12 13  1  0
 12 14  2  0
 14 15  1  0
 14 16  1  0
 16 17  1  0
 16 18  2  0
 18 19  1  0
  7 20  1  0
 20 21  1  0
 20 22  1  0
 20 23  1  0
  5 24  1  0
 24 25  1  0
  4 26  2  0
 26 27  1  0
 26 28  1  0
 28 29  1  0
 29 30  2  0
 29 31  1  0
 31 32  1  0
 32 33  1  0
 32 34  2  0
 34 35  1  0
 34 36  1  0
 36 37  1  0
 36 38  2  0
 38 39  1  0
 38 40  1  0
 40 41  2  0
 41 42  1  0
 42 43  1  0
 43 44  1  0
 44 45  1  0
 44 46  1  0
 44 47  1  0
 47 48  2  0
 48 49  1  0
 48 50  1  0
 50 51  1  0
 50 52  2  0
 52 53  1  0
 52 54  1  0
 54 55  1  0
 54 56  2  0
 56 57  1  0
 43  3  1  0
 56 47  1  0
 18  9  1  0
 42 28  2  0
 40 31  1  0
M  END
>  <UniqueID>  (2) 
100

>  <SMILES>  (2) 
[H]/N=c1\c(/C(O)=N/[C@@H](C)c2ccccc2)cc2c(=O)n3cc(Cl)ccc3nc2n1Cc1ccccc1

>  <Energy>  (2) 
83.48587377213799

>  <Genealogy>  (2) 
C[C@H](N=C(O)c1cc2c(=O)n3cc(Cl)ccc3nc2n(Cc2ccccc2)c1=N)c1ccccc1 (tautomer)
[H]/N=c1\c(/C(O)=N/[C@@H](C)c2ccccc2)cc2c(=O)n3cc(Cl)ccc3nc2n1Cc1ccccc1 (cis-trans isomerization)
[H]/N=c1\c(/C(O)=N/[C@@H](C)c2ccccc2)cc2c(=O)n3cc(Cl)ccc3nc2n1Cc1ccccc1 (3D coordinates assigned)
[H]/N=c1\c(/C(O)=N/[C@@H](C)c2ccccc2)cc2c(=O)n3cc(Cl)ccc3nc2n1Cc1ccccc1 (optimized conformer: 83.48587377213799 kcal/mol)

>  <smiles>  (2) 
C[C@H](NC(=O)c1cc2c(=O)n3cc(Cl)ccc3nc2n(Cc2ccccc2)c1=N)c1ccccc1

>  <score_type>  (2) 
oracle

>  <origin>  (2) 
autodockgpu

>  <m_score__min__energy>  (2) 
-8.7100000000000009

>  <m_primary>  (2) 
energy

>  <meeko>  (2) 
{"free_energy": -7.6, "intermolecular_energy": -9.98, "internal_energy": -2.57, "cluster_size": 10, "cluster_id": 5, "rank_in_cluster": 7}

>  <energy>  (2) 
-8.71

>  <cluster_rmsd>  (2) 
0.0

>  <rmsd>  (2) 
268.69

>  <cluster>  (2) 
2

$$$$
BLHILRPTNSSYME-YFHWJHCCNA-N
     RDKit          3D

 57 61  0  0  0  0  0  0  0  0999 V2000
  135.0770   69.9310  223.4910 H   0  0  0  0  0  0  0  0  0  0  0  0
  135.4400   70.8990  223.6310 N   0  0  0  0  0  0  0  0  0  0  0  0
  136.6280   71.3050  223.2840 C   0  0  0  0  0  0  0  0  0  0  0  0
  137.7680   70.5210  223.5810 C   0  0  0  0  0  0  0  0  0  0  0  0
  137.7070   69.2740  224.3670 C   0  0  0  0  0  0  0  0  0  0  0  0
  138.8090   68.7600  224.8350 N   0  0  0  0  0  0  0  0  0  0  0  0
  139.2130   68.7190  226.2420 C   0  0  2  0  0  0  0  0  0  0  0  0
  138.3141   68.6576  226.8731 H   0  0  0  0  0  0  0  0  0  0  0  0
  139.9620   69.9800  226.6240 C   0  0  0  0  0  0  0  0  0  0  0  0
  139.8980   70.4640  227.9440 C   0  0  0  0  0  0  0  0  0  0  0  0
  139.2890   69.9352  228.6920 H   0  0  0  0  0  0  0  0  0  0  0  0
  140.6050   71.6140  228.3090 C   0  0  0  0  0  0  0  0  0  0  0  0
  140.5443   71.9911  229.3406 H   0  0  0  0  0  0  0  0  0  0  0  0
  141.3880   72.2850  227.3670 C   0  0  0  0  0  0  0  0  0  0  0  0
  141.9436   73.1888  227.6576 H   0  0  0  0  0  0  0  0  0  0  0  0
  141.4660   71.8090  226.0560 C   0  0  0  0  0  0  0  0  0  0  0  0
  142.0839   72.3375  225.3151 H   0  0  0  0  0  0  0  0  0  0  0  0
  140.7590   70.6610  225.6850 C   0  0  0  0  0  0  0  0  0  0  0  0
  140.8262   70.2878  224.6524 H   0  0  0  0  0  0  0  0  0  0  0  0
  140.0870   67.4860  226.4780 C   0  0  0  0  0  0  0  0  0  0  0  0
  140.2040   67.3210  227.5592 H   0  0  0  0  0  0  0  0  0  0  0  0
  139.6100   66.6058  226.0222 H   0  0  0  0  0  0  0  0  0  0  0  0
  141.0755   67.6446  226.0222 H   0  0  0  0  0  0  0  0  0  0  0  0
  136.4700   68.6450  224.5250 O   0  0  0  0  0  0  0  0  0  0  0  0
  135.6360   69.1230  224.8410 H   0  0  0  0  0  0  0  0  0  0  0  0
  139.0190   70.9410  223.1320 C   0  0  0  0  0  0  0  0  0  0  0  0
  139.9055   70.3191  223.3252 H   0  0  0  0  0  0  0  0  0  0  0  0
  139.1550   72.1450  222.4390 C   0  0  0  0  0  0  0  0  0  0  0  0
  140.4090   72.6140  221.9980 C   0  0  0  0  0  0  0  0  0  0  0  0
  141.4460   71.9270  222.2260 O   0  0  0  0  0  0  0  0  0  0  0  0
  140.5010   73.8100  221.3290 N   0  0  0  0  0  0  0  0  0  0  0  0
  141.7190   74.2810  220.9000 C   0  0  0  0  0  0  0  0  0  0  0  0
  142.6284   73.6927  221.0921 H   0  0  0  0  0  0  0  0  0  0  0  0
  141.8140   75.5000  220.2220 C   0  0  0  0  0  0  0  0  0  0  0  0
  143.3760   76.0900  219.6840 Cl  0  0  0  0  0  0  0  0  0  0  0  0
  140.6610   76.2410  219.9750 C   0  0  0  0  0  0  0  0  0  0  0  0
  140.7247   77.2000  219.4399 H   0  0  0  0  0  0  0  0  0  0  0  0
  139.4280   75.7630  220.4080 C   0  0  0  0  0  0  0  0  0  0  0  0
  138.5120   76.3408  220.2153 H   0  0  0  0  0  0  0  0  0  0  0  0
  139.3600   74.5430  221.0900 C   0  0  0  0  0  0  0  0  0  0  0  0
  138.1550   74.0920  221.5130 N   0  0  0  0  0  0  0  0  0  0  0  0
  138.0100   72.9170  222.1800 C   0  0  0  0  0  0  0  0  0  0  0  0
  136.7660   72.4940  222.5950 N   0  0  0  0  0  0  0  0  0  0  0  0
  135.5690   73.2980  222.2530 C   0  0  0  0  0  0  0  0  0  0  0  0
  135.7819   73.8997  221.3571 H   0  0  0  0  0  0  0  0  0  0  0  0
  134.7270   72.6161  222.0631 H   0  0  0  0  0  0  0  0  0  0  0  0
  135.2020   74.2170  223.3910 C   0  0  0  0  0  0  0  0  0  0  0  0
  134.8870   73.6930  224.6560 C   0  0  0  0  0  0  0  0  0  0  0  0
  134.8796   72.6039  224.8106 H   0  0  0  0  0  0  0  0  0  0  0  0
  134.5830   74.5480  225.7190 C   0  0  0  0  0  0  0  0  0  0  0  0
  134.3396   74.1311  226.7074 H   0  0  0  0  0  0  0  0  0  0  0  0
  134.5880   75.9320  225.5270 C   0  0  0  0  0  0  0  0  0  0  0  0
  134.3491   76.6038  226.3646 H   0  0  0  0  0  0  0  0  0  0  0  0
  134.8960   76.4630  224.2730 C   0  0  0  0  0  0  0  0  0  0  0  0
  134.8977   77.5527  224.1227 H   0  0  0  0  0  0  0  0  0  0  0  0
  135.2020   75.6110  223.2090 C   0  0  0  0  0  0  0  0  0  0  0  0
  135.4444   76.0335  222.2227 H   0  0  0  0  0  0  0  0  0  0  0  0
  1  2  1  0
  2  3  2  0
  3  4  1  0
  4  5  1  0
  5  6  2  0
  6  7  1  0
  7  8  1  1
  7  9  1  0
  9 10  2  0
 10 11  1  0
 10 12  1  0
 12 13  1  0
 12 14  2  0
 14 15  1  0
 14 16  1  0
 16 17  1  0
 16 18  2  0
 18 19  1  0
  7 20  1  0
 20 21  1  0
 20 22  1  0
 20 23  1  0
  5 24  1  0
 24 25  1  0
  4 26  2  0
 26 27  1  0
 26 28  1  0
 28 29  1  0
 29 30  2  0
 29 31  1  0
 31 32  1  0
 32 33  1  0
 32 34  2  0
 34 35  1  0
 34 36  1  0
 36 37  1  0
 36 38  2  0
 38 39  1  0
 38 40  1  0
 40 41  2  0
 41 42  1  0
 42 43  1  0
 43 44  1  0
 44 45  1  0
 44 46  1  0
 44 47  1  0
 47 48  2  0
 48 49  1  0
 48 50  1  0
 50 51  1  0
 50 52  2  0
 52 53  1  0
 52 54  1  0
 54 55  1  0
 54 56  2  0
 56 57  1  0
 43  3  1  0
 56 47  1  0
 18  9  1  0
 42 28  2  0
 40 31  1  0
M  END
>  <UniqueID>  (3) 
100

>  <SMILES>  (3) 
[H]/N=c1\c(/C(O)=N/[C@@H](C)c2ccccc2)cc2c(=O)n3cc(Cl)ccc3nc2n1Cc1ccccc1

>  <Energy>  (3) 
83.48587377213799

>  <Genealogy>  (3) 
C[C@H](N=C(O)c1cc2c(=O)n3cc(Cl)ccc3nc2n(Cc2ccccc2)c1=N)c1ccccc1 (tautomer)
[H]/N=c1\c(/C(O)=N/[C@@H](C)c2ccccc2)cc2c(=O)n3cc(Cl)ccc3nc2n1Cc1ccccc1 (cis-trans isomerization)
[H]/N=c1\c(/C(O)=N/[C@@H](C)c2ccccc2)cc2c(=O)n3cc(Cl)ccc3nc2n1Cc1ccccc1 (3D coordinates assigned)
[H]/N=c1\c(/C(O)=N/[C@@H](C)c2ccccc2)cc2c(=O)n3cc(Cl)ccc3nc2n1Cc1ccccc1 (optimized conformer: 83.48587377213799 kcal/mol)

>  <smiles>  (3) 
C[C@H](NC(=O)c1cc2c(=O)n3cc(Cl)ccc3nc2n(Cc2ccccc2)c1=N)c1ccccc1

>  <score_type>  (3) 
oracle

>  <origin>  (3) 
autodockgpu

>  <m_score__min__energy>  (3) 
-8.7100000000000009

>  <m_primary>  (3) 
energy

>  <meeko>  (3) 
{"free_energy": -7.74, "intermolecular_energy": -10.13, "internal_energy": -2.46, "cluster_size": 5, "cluster_id": 2, "rank_in_cluster": 4}

>  <energy>  (3) 
-8.0

>  <cluster_rmsd>  (3) 
1.35

>  <rmsd>  (3) 
268.58

>  <cluster>  (3) 
2

$$$$
BLHILRPTNSSYME-YFHWJHCCNA-N
     RDKit          3D

 57 61  0  0  0  0  0  0  0  0999 V2000
  137.6350   74.3050  222.6960 H   0  0  0  0  0  0  0  0  0  0  0  0
  137.1650   75.1450  222.2950 N   0  0  0  0  0  0  0  0  0  0  0  0
  137.3800   76.3710  222.6780 C   0  0  0  0  0  0  0  0  0  0  0  0
  138.6970   76.8860  222.7290 C   0  0  0  0  0  0  0  0  0  0  0  0
  139.8940   76.0670  222.4570 C   0  0  0  0  0  0  0  0  0  0  0  0
  141.0530   76.6500  222.3360 N   0  0  0  0  0  0  0  0  0  0  0  0
  141.4310   77.6120  221.2980 C   0  0  2  0  0  0  0  0  0  0  0  0
  142.3782   77.2929  220.8387 H   0  0  0  0  0  0  0  0  0  0  0  0
  141.6470   78.9890  221.8920 C   0  0  0  0  0  0  0  0  0  0  0  0
  141.2960   80.1360  221.1570 C   0  0  0  0  0  0  0  0  0  0  0  0
  140.8813   80.0312  220.1436 H   0  0  0  0  0  0  0  0  0  0  0  0
  141.4720   81.4090  221.7090 C   0  0  0  0  0  0  0  0  0  0  0  0
  141.2032   82.3018  221.1253 H   0  0  0  0  0  0  0  0  0  0  0  0
  141.9880   81.5500  222.9990 C   0  0  0  0  0  0  0  0  0  0  0  0
  142.1244   82.5528  223.4301 H   0  0  0  0  0  0  0  0  0  0  0  0
  142.3310   80.4180  223.7420 C   0  0  0  0  0  0  0  0  0  0  0  0
  142.7358   80.5296  224.7587 H   0  0  0  0  0  0  0  0  0  0  0  0
  142.1600   79.1430  223.1940 C   0  0  0  0  0  0  0  0  0  0  0  0
  142.4281   78.2543  223.7842 H   0  0  0  0  0  0  0  0  0  0  0  0
  140.3350   77.6550  220.2310 C   0  0  0  0  0  0  0  0  0  0  0  0
  139.3498   77.6937  220.7187 H   0  0  0  0  0  0  0  0  0  0  0  0
  140.4689   78.5486  219.6036 H   0  0  0  0  0  0  0  0  0  0  0  0
  140.3985   76.7537  219.6036 H   0  0  0  0  0  0  0  0  0  0  0  0
  139.7330   74.6920  222.2660 O   0  0  0  0  0  0  0  0  0  0  0  0
  139.0460   74.1360  222.7600 H   0  0  0  0  0  0  0  0  0  0  0  0
  138.8930   78.2230  223.0690 C   0  0  0  0  0  0  0  0  0  0  0  0
  139.9104   78.6413  223.0757 H   0  0  0  0  0  0  0  0  0  0  0  0
  137.8080   79.0350  223.4010 C   0  0  0  0  0  0  0  0  0  0  0  0
  137.9740   80.3830  223.7790 C   0  0  0  0  0  0  0  0  0  0  0  0
  139.1350   80.8820  223.8130 O   0  0  0  0  0  0  0  0  0  0  0  0
  136.8810   81.1450  224.1110 N   0  0  0  0  0  0  0  0  0  0  0  0
  137.0300   82.4590  224.4860 C   0  0  0  0  0  0  0  0  0  0  0  0
  138.0350   82.9049  224.5182 H   0  0  0  0  0  0  0  0  0  0  0  0
  135.9180   83.2350  224.8270 C   0  0  0  0  0  0  0  0  0  0  0  0
  136.1250   84.9090  225.3100 Cl  0  0  0  0  0  0  0  0  0  0  0  0
  134.6450   82.6710  224.7790 C   0  0  0  0  0  0  0  0  0  0  0  0
  133.7633   83.2739  225.0418 H   0  0  0  0  0  0  0  0  0  0  0  0
  134.4940   81.3410  224.3970 C   0  0  0  0  0  0  0  0  0  0  0  0
  133.4926   80.8877  224.3547 H   0  0  0  0  0  0  0  0  0  0  0  0
  135.6240   80.5840  224.0670 C   0  0  0  0  0  0  0  0  0  0  0  0
  135.4640   79.2890  223.7030 N   0  0  0  0  0  0  0  0  0  0  0  0
  136.5130   78.4920  223.3680 C   0  0  0  0  0  0  0  0  0  0  0  0
  136.3090   77.1790  223.0040 N   0  0  0  0  0  0  0  0  0  0  0  0
  134.9260   76.6510  222.9180 C   0  0  0  0  0  0  0  0  0  0  0  0
  134.2678   77.4289  222.5037 H   0  0  0  0  0  0  0  0  0  0  0  0
  134.9261   75.7643  222.2671 H   0  0  0  0  0  0  0  0  0  0  0  0
  134.4220   76.2510  224.2810 C   0  0  0  0  0  0  0  0  0  0  0  0
  134.7030   74.9740  224.7970 C   0  0  0  0  0  0  0  0  0  0  0  0
  135.2693   74.2511  224.1914 H   0  0  0  0  0  0  0  0  0  0  0  0
  134.2660   74.6190  226.0760 C   0  0  0  0  0  0  0  0  0  0  0  0
  134.4906   73.6187  226.4747 H   0  0  0  0  0  0  0  0  0  0  0  0
  133.5450   75.5310  226.8490 C   0  0  0  0  0  0  0  0  0  0  0  0
  133.2036   75.2493  227.8560 H   0  0  0  0  0  0  0  0  0  0  0  0
  133.2570   76.8010  226.3440 C   0  0  0  0  0  0  0  0  0  0  0  0
  132.6867   77.5182  226.9526 H   0  0  0  0  0  0  0  0  0  0  0  0
  133.6930   77.1610  225.0660 C   0  0  0  0  0  0  0  0  0  0  0  0
  133.4644   78.1623  224.6721 H   0  0  0  0  0  0  0  0  0  0  0  0
  1  2  1  0
  2  3  2  0
  3  4  1  0
  4  5  1  0
  5  6  2  0
  6  7  1  0
  7  8  1  6
  7  9  1  0
  9 10  2  0
 10 11  1  0
 10 12  1  0
 12 13  1  0
 12 14  2  0
 14 15  1  0
 14 16  1  0
 16 17  1  0
 16 18  2  0
 18 19  1  0
  7 20  1  0
 20 21  1  0
 20 22  1  0
 20 23  1  0
  5 24  1  0
 24 25  1  0
  4 26  2  0
 26 27  1  0
 26 28  1  0
 28 29  1  0
 29 30  2  0
 29 31  1  0
 31 32  1  0
 32 33  1  0
 32 34  2  0
 34 35  1  0
 34 36  1  0
 36 37  1  0
 36 38  2  0
 38 39  1  0
 38 40  1  0
 40 41  2  0
 41 42  1  0
 42 43  1  0
 43 44  1  0
 44 45  1  0
 44 46  1  0
 44 47  1  0
 47 48  2  0
 48 49  1  0
 48 50  1  0
 50 51  1  0
 50 52  2  0
 52 53  1  0
 52 54  1  0
 54 55  1  0
 54 56  2  0
 56 57  1  0
 43  3  1  0
 56 47  1  0
 18  9  1  0
 42 28  2  0
 40 31  1  0
M  END
>  <UniqueID>  (4) 
100

>  <SMILES>  (4) 
[H]/N=c1\c(/C(O)=N/[C@@H](C)c2ccccc2)cc2c(=O)n3cc(Cl)ccc3nc2n1Cc1ccccc1

>  <Energy>  (4) 
83.48587377213799

>  <Genealogy>  (4) 
C[C@H](N=C(O)c1cc2c(=O)n3cc(Cl)ccc3nc2n(Cc2ccccc2)c1=N)c1ccccc1 (tautomer)
[H]/N=c1\c(/C(O)=N/[C@@H](C)c2ccccc2)cc2c(=O)n3cc(Cl)ccc3nc2n1Cc1ccccc1 (cis-trans isomerization)
[H]/N=c1\c(/C(O)=N/[C@@H](C)c2ccccc2)cc2c(=O)n3cc(Cl)ccc3nc2n1Cc1ccccc1 (3D coordinates assigned)
[H]/N=c1\c(/C(O)=N/[C@@H](C)c2ccccc2)cc2c(=O)n3cc(Cl)ccc3nc2n1Cc1ccccc1 (optimized conformer: 83.48587377213799 kcal/mol)

>  <smiles>  (4) 
C[C@H](NC(=O)c1cc2c(=O)n3cc(Cl)ccc3nc2n(Cc2ccccc2)c1=N)c1ccccc1

>  <score_type>  (4) 
oracle

>  <origin>  (4) 
autodockgpu

>  <m_score__min__energy>  (4) 
-8.7100000000000009

>  <m_primary>  (4) 
energy

>  <meeko>  (4) 
{"free_energy": -7.61, "intermolecular_energy": -10.0, "internal_energy": -2.55, "cluster_size": 10, "cluster_id": 5, "rank_in_cluster": 5}

>  <energy>  (4) 
-7.96

>  <cluster_rmsd>  (4) 
1.2

>  <rmsd>  (4) 
268.62

>  <cluster>  (4) 
2

$$$$
BLHILRPTNSSYME-YFHWJHCCNA-N
     RDKit          3D

 57 61  0  0  0  0  0  0  0  0999 V2000
  135.0160   69.9550  223.8160 H   0  0  0  0  0  0  0  0  0  0  0  0
  135.4030   70.9200  223.9010 N   0  0  0  0  0  0  0  0  0  0  0  0
  136.5970   71.2790  223.5260 C   0  0  0  0  0  0  0  0  0  0  0  0
  137.7170   70.4690  223.8310 C   0  0  0  0  0  0  0  0  0  0  0  0
  137.6300   69.2500  224.6580 C   0  0  0  0  0  0  0  0  0  0  0  0
  138.7220   68.6160  224.9770 N   0  0  0  0  0  0  0  0  0  0  0  0
  139.3080   68.5270  226.3160 C   0  0  2  0  0  0  0  0  0  0  0  0
  138.5131   68.3019  227.0423 H   0  0  0  0  0  0  0  0  0  0  0  0
  139.9400   69.8440  226.7170 C   0  0  0  0  0  0  0  0  0  0  0  0
  139.6910   70.3860  227.9920 C   0  0  0  0  0  0  0  0  0  0  0  0
  139.0224   69.8600  228.6894 H   0  0  0  0  0  0  0  0  0  0  0  0
  140.2890   71.5890  228.3760 C   0  0  0  0  0  0  0  0  0  0  0  0
  140.0830   72.0107  229.3709 H   0  0  0  0  0  0  0  0  0  0  0  0
  141.1480   72.2580  227.5000 C   0  0  0  0  0  0  0  0  0  0  0  0
  141.6184   73.2041  227.8060 H   0  0  0  0  0  0  0  0  0  0  0  0
  141.4090   71.7250  226.2360 C   0  0  0  0  0  0  0  0  0  0  0  0
  142.0859   72.2514  225.5470 H   0  0  0  0  0  0  0  0  0  0  0  0
  140.8110   70.5230  225.8450 C   0  0  0  0  0  0  0  0  0  0  0  0
  141.0228   70.1056  224.8495 H   0  0  0  0  0  0  0  0  0  0  0  0
  140.3490   67.4060  226.3350 C   0  0  0  0  0  0  0  0  0  0  0  0
  140.5897   67.1468  227.3766 H   0  0  0  0  0  0  0  0  0  0  0  0
  139.9447   66.5214  225.8211 H   0  0  0  0  0  0  0  0  0  0  0  0
  141.2610   67.7438  225.8211 H   0  0  0  0  0  0  0  0  0  0  0  0
  136.3650   68.7740  225.0120 O   0  0  0  0  0  0  0  0  0  0  0  0
  135.6260   69.3640  225.3720 H   0  0  0  0  0  0  0  0  0  0  0  0
  138.9740   70.8370  223.3540 C   0  0  0  0  0  0  0  0  0  0  0  0
  139.8446   70.1958  223.5565 H   0  0  0  0  0  0  0  0  0  0  0  0
  139.1350   72.0140  222.6210 C   0  0  0  0  0  0  0  0  0  0  0  0
  140.3970   72.4300  222.1490 C   0  0  0  0  0  0  0  0  0  0  0  0
  141.4160   71.7200  222.3840 O   0  0  0  0  0  0  0  0  0  0  0  0
  140.5160   73.6010  221.4420 N   0  0  0  0  0  0  0  0  0  0  0  0
  141.7410   74.0210  220.9820 C   0  0  0  0  0  0  0  0  0  0  0  0
  142.6350   73.4117  221.1806 H   0  0  0  0  0  0  0  0  0  0  0  0
  141.8630   75.2150  220.2640 C   0  0  0  0  0  0  0  0  0  0  0  0
  143.4350   75.7410  219.6880 Cl  0  0  0  0  0  0  0  0  0  0  0  0
  140.7300   75.9840  220.0100 C   0  0  0  0  0  0  0  0  0  0  0  0
  140.8156   76.9240  219.4451 H   0  0  0  0  0  0  0  0  0  0  0  0
  139.4890   75.5580  220.4740 C   0  0  0  0  0  0  0  0  0  0  0  0
  138.5883   76.1575  220.2754 H   0  0  0  0  0  0  0  0  0  0  0  0
  139.3940   74.3620  221.1950 C   0  0  0  0  0  0  0  0  0  0  0  0
  138.1820   73.9610  221.6480 N   0  0  0  0  0  0  0  0  0  0  0  0
  138.0110   72.8120  222.3540 C   0  0  0  0  0  0  0  0  0  0  0  0
  136.7610   72.4400  222.7980 N   0  0  0  0  0  0  0  0  0  0  0  0
  135.5840   73.2710  222.4470 C   0  0  0  0  0  0  0  0  0  0  0  0
  135.8219   73.8783  221.5612 H   0  0  0  0  0  0  0  0  0  0  0  0
  134.7323   72.6073  222.2370 H   0  0  0  0  0  0  0  0  0  0  0  0
  135.2170   74.1840  223.5890 C   0  0  0  0  0  0  0  0  0  0  0  0
  135.4150   75.5710  223.4830 C   0  0  0  0  0  0  0  0  0  0  0  0
  135.8682   75.9910  222.5730 H   0  0  0  0  0  0  0  0  0  0  0  0
  135.0390   76.4200  224.5280 C   0  0  0  0  0  0  0  0  0  0  0  0
  135.1955   77.5051  224.4378 H   0  0  0  0  0  0  0  0  0  0  0  0
  134.4650   75.8920  225.6860 C   0  0  0  0  0  0  0  0  0  0  0  0
  134.1683   76.5618  226.5066 H   0  0  0  0  0  0  0  0  0  0  0  0
  134.2670   74.5150  225.8040 C   0  0  0  0  0  0  0  0  0  0  0  0
  133.8175   74.1004  226.7184 H   0  0  0  0  0  0  0  0  0  0  0  0
  134.6400   73.6630  224.7600 C   0  0  0  0  0  0  0  0  0  0  0  0
  134.4810   72.5788  224.8556 H   0  0  0  0  0  0  0  0  0  0  0  0
  1  2  1  0
  2  3  2  0
  3  4  1  0
  4  5  1  0
  5  6  2  0
  6  7  1  0
  7  8  1  1
  7  9  1  0
  9 10  2  0
 10 11  1  0
 10 12  1  0
 12 13  1  0
 12 14  2  0
 14 15  1  0
 14 16  1  0
 16 17  1  0
 16 18  2  0
 18 19  1  0
  7 20  1  0
 20 21  1  0
 20 22  1  0
 20 23  1  0
  5 24  1  0
 24 25  1  0
  4 26  2  0
 26 27  1  0
 26 28  1  0
 28 29  1  0
 29 30  2  0
 29 31  1  0
 31 32  1  0
 32 33  1  0
 32 34  2  0
 34 35  1  0
 34 36  1  0
 36 37  1  0
 36 38  2  0
 38 39  1  0
 38 40  1  0
 40 41  2  0
 41 42  1  0
 42 43  1  0
 43 44  1  0
 44 45  1  0
 44 46  1  0
 44 47  1  0
 47 48  2  0
 48 49  1  0
 48 50  1  0
 50 51  1  0
 50 52  2  0
 52 53  1  0
 52 54  1  0
 54 55  1  0
 54 56  2  0
 56 57  1  0
 43  3  1  0
 56 47  1  0
 18  9  1  0
 42 28  2  0
 40 31  1  0
M  END
>  <UniqueID>  (5) 
100

>  <SMILES>  (5) 
[H]/N=c1\c(/C(O)=N/[C@@H](C)c2ccccc2)cc2c(=O)n3cc(Cl)ccc3nc2n1Cc1ccccc1

>  <Energy>  (5) 
83.48587377213799

>  <Genealogy>  (5) 
C[C@H](N=C(O)c1cc2c(=O)n3cc(Cl)ccc3nc2n(Cc2ccccc2)c1=N)c1ccccc1 (tautomer)
[H]/N=c1\c(/C(O)=N/[C@@H](C)c2ccccc2)cc2c(=O)n3cc(Cl)ccc3nc2n1Cc1ccccc1 (cis-trans isomerization)
[H]/N=c1\c(/C(O)=N/[C@@H](C)c2ccccc2)cc2c(=O)n3cc(Cl)ccc3nc2n1Cc1ccccc1 (3D coordinates assigned)
[H]/N=c1\c(/C(O)=N/[C@@H](C)c2ccccc2)cc2c(=O)n3cc(Cl)ccc3nc2n1Cc1ccccc1 (optimized conformer: 83.48587377213799 kcal/mol)

>  <smiles>  (5) 
C[C@H](NC(=O)c1cc2c(=O)n3cc(Cl)ccc3nc2n(Cc2ccccc2)c1=N)c1ccccc1

>  <score_type>  (5) 
oracle

>  <origin>  (5) 
autodockgpu

>  <m_score__min__energy>  (5) 
-8.7100000000000009

>  <m_primary>  (5) 
energy

>  <meeko>  (5) 
{"free_energy": -8.0, "intermolecular_energy": -10.38, "internal_energy": -2.49, "cluster_size": 5, "cluster_id": 2, "rank_in_cluster": 2}

>  <energy>  (5) 
-7.74

>  <cluster_rmsd>  (5) 
1.38

>  <rmsd>  (5) 
268.48

>  <cluster>  (5) 
2

$$$$
BLHILRPTNSSYME-YFHWJHCCNA-N
     RDKit          3D

 57 61  0  0  0  0  0  0  0  0999 V2000
  137.6140   74.3600  222.6890 H   0  0  0  0  0  0  0  0  0  0  0  0
  137.1530   75.2050  222.2880 N   0  0  0  0  0  0  0  0  0  0  0  0
  137.3720   76.4270  222.6790 C   0  0  0  0  0  0  0  0  0  0  0  0
  138.6920   76.9360  222.7360 C   0  0  0  0  0  0  0  0  0  0  0  0
  139.8850   76.1140  222.4610 C   0  0  0  0  0  0  0  0  0  0  0  0
  141.0490   76.6900  222.3610 N   0  0  0  0  0  0  0  0  0  0  0  0
  141.4440   77.6660  221.3430 C   0  0  2  0  0  0  0  0  0  0  0  0
  142.4031   77.3575  220.9015 H   0  0  0  0  0  0  0  0  0  0  0  0
  141.6390   79.0380  221.9570 C   0  0  0  0  0  0  0  0  0  0  0  0
  142.1810   79.1610  223.2490 C   0  0  0  0  0  0  0  0  0  0  0  0
  142.4458   78.2585  223.8194 H   0  0  0  0  0  0  0  0  0  0  0  0
  142.3850   80.4240  223.8120 C   0  0  0  0  0  0  0  0  0  0  0  0
  142.8024   80.5119  224.8259 H   0  0  0  0  0  0  0  0  0  0  0  0
  142.0600   81.5750  223.0900 C   0  0  0  0  0  0  0  0  0  0  0  0
  142.2220   82.5677  223.5353 H   0  0  0  0  0  0  0  0  0  0  0  0
  141.5290   81.4650  221.8020 C   0  0  0  0  0  0  0  0  0  0  0  0
  141.2746   82.3715  221.2332 H   0  0  0  0  0  0  0  0  0  0  0  0
  141.3210   80.2040  221.2360 C   0  0  0  0  0  0  0  0  0  0  0  0
  140.9061   80.1225  220.2205 H   0  0  0  0  0  0  0  0  0  0  0  0
  140.3720   77.7150  220.2530 C   0  0  0  0  0  0  0  0  0  0  0  0
  139.3768   77.7605  220.7193 H   0  0  0  0  0  0  0  0  0  0  0  0
  140.5252   78.6071  219.6279 H   0  0  0  0  0  0  0  0  0  0  0  0
  140.4431   76.8127  219.6279 H   0  0  0  0  0  0  0  0  0  0  0  0
  139.7160   74.7440  222.2460 O   0  0  0  0  0  0  0  0  0  0  0  0
  139.0260   74.1830  222.7290 H   0  0  0  0  0  0  0  0  0  0  0  0
  138.8930   78.2710  223.0850 C   0  0  0  0  0  0  0  0  0  0  0  0
  139.9121   78.6848  223.0972 H   0  0  0  0  0  0  0  0  0  0  0  0
  137.8100   79.0860  223.4190 C   0  0  0  0  0  0  0  0  0  0  0  0
  137.9820   80.4300  223.8060 C   0  0  0  0  0  0  0  0  0  0  0  0
  139.1450   80.9240  223.8450 O   0  0  0  0  0  0  0  0  0  0  0  0
  136.8920   81.1960  224.1390 N   0  0  0  0  0  0  0  0  0  0  0  0
  137.0460   82.5060  224.5240 C   0  0  0  0  0  0  0  0  0  0  0  0
  138.0532   82.9465  224.5635 H   0  0  0  0  0  0  0  0  0  0  0  0
  135.9370   83.2850  224.8660 C   0  0  0  0  0  0  0  0  0  0  0  0
  136.1510   84.9550  225.3600 Cl  0  0  0  0  0  0  0  0  0  0  0  0
  134.6620   82.7270  224.8130 C   0  0  0  0  0  0  0  0  0  0  0  0
  133.7828   83.3321  225.0792 H   0  0  0  0  0  0  0  0  0  0  0  0
  134.5050   81.4010  224.4220 C   0  0  0  0  0  0  0  0  0  0  0  0
  133.5015   80.9530  224.3742 H   0  0  0  0  0  0  0  0  0  0  0  0
  135.6320   80.6410  224.0900 C   0  0  0  0  0  0  0  0  0  0  0  0
  135.4680   79.3480  223.7180 N   0  0  0  0  0  0  0  0  0  0  0  0
  136.5130   78.5480  223.3800 C   0  0  0  0  0  0  0  0  0  0  0  0
  136.3040   77.2380  223.0080 N   0  0  0  0  0  0  0  0  0  0  0  0
  134.9190   76.7180  222.9160 C   0  0  0  0  0  0  0  0  0  0  0  0
  134.2650   77.5030  222.5084 H   0  0  0  0  0  0  0  0  0  0  0  0
  134.9151   75.8374  222.2568 H   0  0  0  0  0  0  0  0  0  0  0  0
  134.4120   76.3080  224.2750 C   0  0  0  0  0  0  0  0  0  0  0  0
  134.7310   75.0460  224.8040 C   0  0  0  0  0  0  0  0  0  0  0  0
  135.3303   74.3398  224.2106 H   0  0  0  0  0  0  0  0  0  0  0  0
  134.2910   74.6830  226.0800 C   0  0  0  0  0  0  0  0  0  0  0  0
  134.5469   73.6944  226.4889 H   0  0  0  0  0  0  0  0  0  0  0  0
  133.5270   75.5740  226.8360 C   0  0  0  0  0  0  0  0  0  0  0  0
  133.1816   75.2868  227.8401 H   0  0  0  0  0  0  0  0  0  0  0  0
  133.2010   76.8290  226.3190 C   0  0  0  0  0  0  0  0  0  0  0  0
  132.5971   77.5289  226.9152 H   0  0  0  0  0  0  0  0  0  0  0  0
  133.6410   77.1970  225.0450 C   0  0  0  0  0  0  0  0  0  0  0  0
  133.3829   78.1875  224.6421 H   0  0  0  0  0  0  0  0  0  0  0  0
  1  2  1  0
  2  3  2  0
  3  4  1  0
  4  5  1  0
  5  6  2  0
  6  7  1  0
  7  8  1  6
  7  9  1  0
  9 10  2  0
 10 11  1  0
 10 12  1  0
 12 13  1  0
 12 14  2  0
 14 15  1  0
 14 16  1  0
 16 17  1  0
 16 18  2  0
 18 19  1  0
  7 20  1  0
 20 21  1  0
 20 22  1  0
 20 23  1  0
  5 24  1  0
 24 25  1  0
  4 26  2  0
 26 27  1  0
 26 28  1  0
 28 29  1  0
 29 30  2  0
 29 31  1  0
 31 32  1  0
 32 33  1  0
 32 34  2  0
 34 35  1  0
 34 36  1  0
 36 37  1  0
 36 38  2  0
 38 39  1  0
 38 40  1  0
 40 41  2  0
 41 42  1  0
 42 43  1  0
 43 44  1  0
 44 45  1  0
 44 46  1  0
 44 47  1  0
 47 48  2  0
 48 49  1  0
 48 50  1  0
 50 51  1  0
 50 52  2  0
 52 53  1  0
 52 54  1  0
 54 55  1  0
 54 56  2  0
 56 57  1  0
 43  3  1  0
 56 47  1  0
 18  9  1  0
 42 28  2  0
 40 31  1  0
M  END
>  <UniqueID>  (6) 
100

>  <SMILES>  (6) 
[H]/N=c1\c(/C(O)=N/[C@@H](C)c2ccccc2)cc2c(=O)n3cc(Cl)ccc3nc2n1Cc1ccccc1

>  <Energy>  (6) 
83.48587377213799

>  <Genealogy>  (6) 
C[C@H](N=C(O)c1cc2c(=O)n3cc(Cl)ccc3nc2n(Cc2ccccc2)c1=N)c1ccccc1 (tautomer)
[H]/N=c1\c(/C(O)=N/[C@@H](C)c2ccccc2)cc2c(=O)n3cc(Cl)ccc3nc2n1Cc1ccccc1 (cis-trans isomerization)
[H]/N=c1\c(/C(O)=N/[C@@H](C)c2ccccc2)cc2c(=O)n3cc(Cl)ccc3nc2n1Cc1ccccc1 (3D coordinates assigned)
[H]/N=c1\c(/C(O)=N/[C@@H](C)c2ccccc2)cc2c(=O)n3cc(Cl)ccc3nc2n1Cc1ccccc1 (optimized conformer: 83.48587377213799 kcal/mol)

>  <smiles>  (6) 
C[C@H](NC(=O)c1cc2c(=O)n3cc(Cl)ccc3nc2n(Cc2ccccc2)c1=N)c1ccccc1

>  <score_type>  (6) 
oracle

>  <origin>  (6) 
autodockgpu

>  <m_score__min__energy>  (6) 
-8.7100000000000009

>  <m_primary>  (6) 
energy

>  <meeko>  (6) 
{"free_energy": -7.62, "intermolecular_energy": -10.01, "internal_energy": -2.55, "cluster_size": 10, "cluster_id": 5, "rank_in_cluster": 3}

>  <energy>  (6) 
-7.73

>  <cluster_rmsd>  (6) 
1.85

>  <rmsd>  (6) 
268.47

>  <cluster>  (6) 
2

$$$$
BLHILRPTNSSYME-YFHWJHCCNA-N
     RDKit          3D

 57 61  0  0  0  0  0  0  0  0999 V2000
  137.6770   74.3390  222.7330 H   0  0  0  0  0  0  0  0  0  0  0  0
  137.2020   75.1760  222.3340 N   0  0  0  0  0  0  0  0  0  0  0  0
  137.4130   76.4030  222.7130 C   0  0  0  0  0  0  0  0  0  0  0  0
  138.7270   76.9270  222.7480 C   0  0  0  0  0  0  0  0  0  0  0  0
  139.9260   76.1160  222.4620 C   0  0  0  0  0  0  0  0  0  0  0  0
  141.0790   76.7060  222.3260 N   0  0  0  0  0  0  0  0  0  0  0  0
  141.4410   77.6620  221.2760 C   0  0  2  0  0  0  0  0  0  0  0  0
  142.3876   77.3473  220.8125 H   0  0  0  0  0  0  0  0  0  0  0  0
  141.6490   79.0460  221.8560 C   0  0  0  0  0  0  0  0  0  0  0  0
  141.2730   80.1830  221.1170 C   0  0  0  0  0  0  0  0  0  0  0  0
  140.8440   80.0647  220.1110 H   0  0  0  0  0  0  0  0  0  0  0  0
  141.4420   81.4620  221.6550 C   0  0  0  0  0  0  0  0  0  0  0  0
  141.1537   82.3465  221.0680 H   0  0  0  0  0  0  0  0  0  0  0  0
  141.9760   81.6200  222.9360 C   0  0  0  0  0  0  0  0  0  0  0  0
  142.1061   82.6279  223.3570 H   0  0  0  0  0  0  0  0  0  0  0  0
  142.3450   80.4980  223.6830 C   0  0  0  0  0  0  0  0  0  0  0  0
  142.7646   80.6229  224.6921 H   0  0  0  0  0  0  0  0  0  0  0  0
  142.1810   79.2170  223.1480 C   0  0  0  0  0  0  0  0  0  0  0  0
  142.4697   78.3365  223.7407 H   0  0  0  0  0  0  0  0  0  0  0  0
  140.3380   77.6850  220.2170 C   0  0  0  0  0  0  0  0  0  0  0  0
  139.3555   77.7055  220.7113 H   0  0  0  0  0  0  0  0  0  0  0  0
  140.4513   78.5810  219.5890 H   0  0  0  0  0  0  0  0  0  0  0  0
  140.4138   76.7851  219.5890 H   0  0  0  0  0  0  0  0  0  0  0  0
  139.7710   74.7400  222.2740 O   0  0  0  0  0  0  0  0  0  0  0  0
  139.0890   74.1810  222.7710 H   0  0  0  0  0  0  0  0  0  0  0  0
  138.9190   78.2660  223.0860 C   0  0  0  0  0  0  0  0  0  0  0  0
  139.9337   78.6908  223.0808 H   0  0  0  0  0  0  0  0  0  0  0  0
  137.8320   79.0710  223.4310 C   0  0  0  0  0  0  0  0  0  0  0  0
  137.9940   80.4200  223.8060 C   0  0  0  0  0  0  0  0  0  0  0  0
  139.1530   80.9260  223.8260 O   0  0  0  0  0  0  0  0  0  0  0  0
  136.9010   81.1750  224.1510 N   0  0  0  0  0  0  0  0  0  0  0  0
  137.0460   82.4900  224.5240 C   0  0  0  0  0  0  0  0  0  0  0  0
  138.0485   82.9424  224.5443 H   0  0  0  0  0  0  0  0  0  0  0  0
  135.9330   83.2590  224.8780 C   0  0  0  0  0  0  0  0  0  0  0  0
  136.1350   84.9340  225.3580 Cl  0  0  0  0  0  0  0  0  0  0  0  0
  134.6640   82.6860  224.8470 C   0  0  0  0  0  0  0  0  0  0  0  0
  133.7820   83.2827  225.1227 H   0  0  0  0  0  0  0  0  0  0  0  0
  134.5160   81.3560  224.4660 C   0  0  0  0  0  0  0  0  0  0  0  0
  133.5169   80.8970  224.4346 H   0  0  0  0  0  0  0  0  0  0  0  0
  135.6470   80.6060  224.1230 C   0  0  0  0  0  0  0  0  0  0  0  0
  135.4910   79.3090  223.7610 N   0  0  0  0  0  0  0  0  0  0  0  0
  136.5410   78.5190  223.4130 C   0  0  0  0  0  0  0  0  0  0  0  0
  136.3400   77.2050  223.0530 N   0  0  0  0  0  0  0  0  0  0  0  0
  134.9600   76.6690  222.9830 C   0  0  0  0  0  0  0  0  0  0  0  0
  134.2908   77.4453  222.5835 H   0  0  0  0  0  0  0  0  0  0  0  0
  134.9559   75.7868  222.3259 H   0  0  0  0  0  0  0  0  0  0  0  0
  134.4790   76.2570  224.3510 C   0  0  0  0  0  0  0  0  0  0  0  0
  133.7420   77.1510  225.1460 C   0  0  0  0  0  0  0  0  0  0  0  0
  133.5392   78.1686  224.7807 H   0  0  0  0  0  0  0  0  0  0  0  0
  133.2650   76.7540  226.3990 C   0  0  0  0  0  0  0  0  0  0  0  0
  132.6874   77.4586  227.0153 H   0  0  0  0  0  0  0  0  0  0  0  0
  133.5210   75.4640  226.8690 C   0  0  0  0  0  0  0  0  0  0  0  0
  133.1444   75.1533  227.8547 H   0  0  0  0  0  0  0  0  0  0  0  0
  134.2550   74.5680  226.0880 C   0  0  0  0  0  0  0  0  0  0  0  0
  134.4575   73.5527  226.4597 H   0  0  0  0  0  0  0  0  0  0  0  0
  134.7320   74.9610  224.8350 C   0  0  0  0  0  0  0  0  0  0  0  0
  135.3092   74.2522  224.2231 H   0  0  0  0  0  0  0  0  0  0  0  0
  1  2  1  0
  2  3  2  0
  3  4  1  0
  4  5  1  0
  5  6  2  0
  6  7  1  0
  7  8  1  6
  7  9  1  0
  9 10  2  0
 10 11  1  0
 10 12  1  0
 12 13  1  0
 12 14  2  0
 14 15  1  0
 14 16  1  0
 16 17  1  0
 16 18  2  0
 18 19  1  0
  7 20  1  0
 20 21  1  0
 20 22  1  0
 20 23  1  0
  5 24  1  0
 24 25  1  0
  4 26  2  0
 26 27  1  0
 26 28  1  0
 28 29  1  0
 29 30  2  0
 29 31  1  0
 31 32  1  0
 32 33  1  0
 32 34  2  0
 34 35  1  0
 34 36  1  0
 36 37  1  0
 36 38  2  0
 38 39  1  0
 38 40  1  0
 40 41  2  0
 41 42  1  0
 42 43  1  0
 43 44  1  0
 44 45  1  0
 44 46  1  0
 44 47  1  0
 47 48  2  0
 48 49  1  0
 48 50  1  0
 50 51  1  0
 50 52  2  0
 52 53  1  0
 52 54  1  0
 54 55  1  0
 54 56  2  0
 56 57  1  0
 43  3  1  0
 56 47  1  0
 18  9  1  0
 42 28  2  0
 40 31  1  0
M  END
>  <UniqueID>  (7) 
100

>  <SMILES>  (7) 
[H]/N=c1\c(/C(O)=N/[C@@H](C)c2ccccc2)cc2c(=O)n3cc(Cl)ccc3nc2n1Cc1ccccc1

>  <Energy>  (7) 
83.48587377213799

>  <Genealogy>  (7) 
C[C@H](N=C(O)c1cc2c(=O)n3cc(Cl)ccc3nc2n(Cc2ccccc2)c1=N)c1ccccc1 (tautomer)
[H]/N=c1\c(/C(O)=N/[C@@H](C)c2ccccc2)cc2c(=O)n3cc(Cl)ccc3nc2n1Cc1ccccc1 (cis-trans isomerization)
[H]/N=c1\c(/C(O)=N/[C@@H](C)c2ccccc2)cc2c(=O)n3cc(Cl)ccc3nc2n1Cc1ccccc1 (3D coordinates assigned)
[H]/N=c1\c(/C(O)=N/[C@@H](C)c2ccccc2)cc2c(=O)n3cc(Cl)ccc3nc2n1Cc1ccccc1 (optimized conformer: 83.48587377213799 kcal/mol)

>  <smiles>  (7) 
C[C@H](NC(=O)c1cc2c(=O)n3cc(Cl)ccc3nc2n(Cc2ccccc2)c1=N)c1ccccc1

>  <score_type>  (7) 
oracle

>  <origin>  (7) 
autodockgpu

>  <m_score__min__energy>  (7) 
-8.7100000000000009

>  <m_primary>  (7) 
energy

>  <meeko>  (7) 
{"free_energy": -7.61, "intermolecular_energy": -10.0, "internal_energy": -2.55, "cluster_size": 10, "cluster_id": 5, "rank_in_cluster": 6}

>  <energy>  (7) 
-8.57

>  <cluster_rmsd>  (7) 
0.0

>  <rmsd>  (7) 
268.9

>  <cluster>  (7) 
3

$$$$
BLHILRPTNSSYME-YFHWJHCCNA-N
     RDKit          3D

 57 61  0  0  0  0  0  0  0  0999 V2000
  137.6450   74.3980  222.7310 H   0  0  0  0  0  0  0  0  0  0  0  0
  137.1430   75.2260  222.3440 N   0  0  0  0  0  0  0  0  0  0  0  0
  137.3590   76.4600  222.7010 C   0  0  0  0  0  0  0  0  0  0  0  0
  138.6750   76.9800  222.7250 C   0  0  0  0  0  0  0  0  0  0  0  0
  139.8710   76.1590  222.4530 C   0  0  0  0  0  0  0  0  0  0  0  0
  141.0360   76.7370  222.3670 N   0  0  0  0  0  0  0  0  0  0  0  0
  141.4450   77.7060  221.3490 C   0  0  2  0  0  0  0  0  0  0  0  0
  142.3960   77.3793  220.9030 H   0  0  0  0  0  0  0  0  0  0  0  0
  141.6700   79.0720  221.9630 C   0  0  0  0  0  0  0  0  0  0  0  0
  142.1960   79.1820  223.2630 C   0  0  0  0  0  0  0  0  0  0  0  0
  142.4268   78.2736  223.8388 H   0  0  0  0  0  0  0  0  0  0  0  0
  142.4270   80.4410  223.8270 C   0  0  0  0  0  0  0  0  0  0  0  0
  142.8303   80.5193  224.8474 H   0  0  0  0  0  0  0  0  0  0  0  0
  142.1470   81.5990  223.0980 C   0  0  0  0  0  0  0  0  0  0  0  0
  142.3304   82.5875  223.5443 H   0  0  0  0  0  0  0  0  0  0  0  0
  141.6340   81.5020  221.8020 C   0  0  0  0  0  0  0  0  0  0  0  0
  141.4164   82.4144  221.2273 H   0  0  0  0  0  0  0  0  0  0  0  0
  141.3970   80.2460  221.2350 C   0  0  0  0  0  0  0  0  0  0  0  0
  140.9947   80.1746  220.2137 H   0  0  0  0  0  0  0  0  0  0  0  0
  140.3700   77.7770  220.2630 C   0  0  0  0  0  0  0  0  0  0  0  0
  139.3777   77.8425  220.7331 H   0  0  0  0  0  0  0  0  0  0  0  0
  140.5388   78.6660  219.6375 H   0  0  0  0  0  0  0  0  0  0  0  0
  140.4205   76.8736  219.6375 H   0  0  0  0  0  0  0  0  0  0  0  0
  139.7030   74.7910  222.2240 O   0  0  0  0  0  0  0  0  0  0  0  0
  139.0340   74.2190  222.7230 H   0  0  0  0  0  0  0  0  0  0  0  0
  138.8710   78.3240  223.0370 C   0  0  0  0  0  0  0  0  0  0  0  0
  139.8870   78.7454  223.0222 H   0  0  0  0  0  0  0  0  0  0  0  0
  137.7880   79.1390  223.3680 C   0  0  0  0  0  0  0  0  0  0  0  0
  137.9540   80.4940  223.7180 C   0  0  0  0  0  0  0  0  0  0  0  0
  139.1140   80.9970  223.7270 O   0  0  0  0  0  0  0  0  0  0  0  0
  136.8630   81.2590  224.0490 N   0  0  0  0  0  0  0  0  0  0  0  0
  137.0130   82.5810  224.3970 C   0  0  0  0  0  0  0  0  0  0  0  0
  138.0170   83.0303  224.4080 H   0  0  0  0  0  0  0  0  0  0  0  0
  135.9030   83.3600  224.7370 C   0  0  0  0  0  0  0  0  0  0  0  0
  136.1110   85.0430  225.1860 Cl  0  0  0  0  0  0  0  0  0  0  0  0
  134.6320   82.7910  224.7170 C   0  0  0  0  0  0  0  0  0  0  0  0
  133.7519   83.3961  224.9800 H   0  0  0  0  0  0  0  0  0  0  0  0
  134.4800   81.4540  224.3630 C   0  0  0  0  0  0  0  0  0  0  0  0
  133.4796   80.9970  224.3434 H   0  0  0  0  0  0  0  0  0  0  0  0
  135.6080   80.6940  224.0320 C   0  0  0  0  0  0  0  0  0  0  0  0
  135.4480   79.3910  223.6950 N   0  0  0  0  0  0  0  0  0  0  0  0
  136.4940   78.5910  223.3610 C   0  0  0  0  0  0  0  0  0  0  0  0
  136.2890   77.2710  223.0260 N   0  0  0  0  0  0  0  0  0  0  0  0
  134.9070   76.7380  222.9680 C   0  0  0  0  0  0  0  0  0  0  0  0
  134.2341   77.5203  222.5869 H   0  0  0  0  0  0  0  0  0  0  0  0
  134.8930   75.8638  222.3005 H   0  0  0  0  0  0  0  0  0  0  0  0
  134.4430   76.3100  224.3360 C   0  0  0  0  0  0  0  0  0  0  0  0
  133.6980   77.1870  225.1430 C   0  0  0  0  0  0  0  0  0  0  0  0
  133.4766   78.2036  224.7861 H   0  0  0  0  0  0  0  0  0  0  0  0
  133.2370   76.7750  226.3960 C   0  0  0  0  0  0  0  0  0  0  0  0
  132.6537   77.4667  227.0215 H   0  0  0  0  0  0  0  0  0  0  0  0
  133.5160   75.4860  226.8550 C   0  0  0  0  0  0  0  0  0  0  0  0
  133.1502   75.1626  227.8407 H   0  0  0  0  0  0  0  0  0  0  0  0
  134.2590   74.6070  226.0640 C   0  0  0  0  0  0  0  0  0  0  0  0
  134.4815   73.5933  226.4286 H   0  0  0  0  0  0  0  0  0  0  0  0
  134.7200   75.0150  224.8090 C   0  0  0  0  0  0  0  0  0  0  0  0
  135.3029   74.3190  224.1878 H   0  0  0  0  0  0  0  0  0  0  0  0
  1  2  1  0
  2  3  2  0
  3  4  1  0
  4  5  1  0
  5  6  2  0
  6  7  1  0
  7  8  1  6
  7  9  1  0
  9 10  2  0
 10 11  1  0
 10 12  1  0
 12 13  1  0
 12 14  2  0
 14 15  1  0
 14 16  1  0
 16 17  1  0
 16 18  2  0
 18 19  1  0
  7 20  1  0
 20 21  1  0
 20 22  1  0
 20 23  1  0
  5 24  1  0
 24 25  1  0
  4 26  2  0
 26 27  1  0
 26 28  1  0
 28 29  1  0
 29 30  2  0
 29 31  1  0
 31 32  1  0
 32 33  1  0
 32 34  2  0
 34 35  1  0
 34 36  1  0
 36 37  1  0
 36 38  2  0
 38 39  1  0
 38 40  1  0
 40 41  2  0
 41 42  1  0
 42 43  1  0
 43 44  1  0
 44 45  1  0
 44 46  1  0
 44 47  1  0
 47 48  2  0
 48 49  1  0
 48 50  1  0
 50 51  1  0
 50 52  2  0
 52 53  1  0
 52 54  1  0
 54 55  1  0
 54 56  2  0
 56 57  1  0
 43  3  1  0
 56 47  1  0
 18  9  1  0
 42 28  2  0
 40 31  1  0
M  END
>  <UniqueID>  (8) 
100

>  <SMILES>  (8) 
[H]/N=c1\c(/C(O)=N/[C@@H](C)c2ccccc2)cc2c(=O)n3cc(Cl)ccc3nc2n1Cc1ccccc1

>  <Energy>  (8) 
83.48587377213799

>  <Genealogy>  (8) 
C[C@H](N=C(O)c1cc2c(=O)n3cc(Cl)ccc3nc2n(Cc2ccccc2)c1=N)c1ccccc1 (tautomer)
[H]/N=c1\c(/C(O)=N/[C@@H](C)c2ccccc2)cc2c(=O)n3cc(Cl)ccc3nc2n1Cc1ccccc1 (cis-trans isomerization)
[H]/N=c1\c(/C(O)=N/[C@@H](C)c2ccccc2)cc2c(=O)n3cc(Cl)ccc3nc2n1Cc1ccccc1 (3D coordinates assigned)
[H]/N=c1\c(/C(O)=N/[C@@H](C)c2ccccc2)cc2c(=O)n3cc(Cl)ccc3nc2n1Cc1ccccc1 (optimized conformer: 83.48587377213799 kcal/mol)

>  <smiles>  (8) 
C[C@H](NC(=O)c1cc2c(=O)n3cc(Cl)ccc3nc2n(Cc2ccccc2)c1=N)c1ccccc1

>  <score_type>  (8) 
oracle

>  <origin>  (8) 
autodockgpu

>  <m_score__min__energy>  (8) 
-8.7100000000000009

>  <m_primary>  (8) 
energy

>  <meeko>  (8) 
{"free_energy": -7.64, "intermolecular_energy": -10.03, "internal_energy": -2.51, "cluster_size": 10, "cluster_id": 5, "rank_in_cluster": 2}

>  <energy>  (8) 
-8.56

>  <cluster_rmsd>  (8) 
0.03

>  <rmsd>  (8) 
268.89

>  <cluster>  (8) 
3

$$$$
BLHILRPTNSSYME-YFHWJHCCNA-N
     RDKit          3D

 57 61  0  0  0  0  0  0  0  0999 V2000
  137.6260   74.3230  222.7260 H   0  0  0  0  0  0  0  0  0  0  0  0
  137.1470   75.1590  222.3250 N   0  0  0  0  0  0  0  0  0  0  0  0
  137.3690   76.3890  222.6870 C   0  0  0  0  0  0  0  0  0  0  0  0
  138.6900   76.8990  222.7210 C   0  0  0  0  0  0  0  0  0  0  0  0
  139.8810   76.0700  222.4540 C   0  0  0  0  0  0  0  0  0  0  0  0
  141.0490   76.6400  222.3670 N   0  0  0  0  0  0  0  0  0  0  0  0
  141.4630   77.6060  221.3470 C   0  0  2  0  0  0  0  0  0  0  0  0
  142.4195   77.2816  220.9113 H   0  0  0  0  0  0  0  0  0  0  0  0
  141.6760   78.9770  221.9560 C   0  0  0  0  0  0  0  0  0  0  0  0
  142.1770   79.0960  223.2650 C   0  0  0  0  0  0  0  0  0  0  0  0
  142.3968   78.1915  223.8511 H   0  0  0  0  0  0  0  0  0  0  0  0
  142.3970   80.3580  223.8250 C   0  0  0  0  0  0  0  0  0  0  0  0
  142.7809   80.4435  224.8523 H   0  0  0  0  0  0  0  0  0  0  0  0
  142.1300   81.5110  223.0820 C   0  0  0  0  0  0  0  0  0  0  0  0
  142.3051   82.5028  223.5244 H   0  0  0  0  0  0  0  0  0  0  0  0
  141.6410   81.4050  221.7780 C   0  0  0  0  0  0  0  0  0  0  0  0
  141.4328   82.3133  221.1935 H   0  0  0  0  0  0  0  0  0  0  0  0
  141.4160   80.1450  221.2150 C   0  0  0  0  0  0  0  0  0  0  0  0
  141.0335   80.0662  220.1867 H   0  0  0  0  0  0  0  0  0  0  0  0
  140.3970   77.6660  220.2510 C   0  0  0  0  0  0  0  0  0  0  0  0
  139.3999   77.7221  220.7120 H   0  0  0  0  0  0  0  0  0  0  0  0
  140.5629   78.5562  219.6265 H   0  0  0  0  0  0  0  0  0  0  0  0
  140.4619   76.7628  219.6265 H   0  0  0  0  0  0  0  0  0  0  0  0
  139.7060   74.7020  222.2330 O   0  0  0  0  0  0  0  0  0  0  0  0
  139.0400   74.1340  222.7410 H   0  0  0  0  0  0  0  0  0  0  0  0
  138.8940   78.2400  223.0400 C   0  0  0  0  0  0  0  0  0  0  0  0
  139.9132   78.6537  223.0349 H   0  0  0  0  0  0  0  0  0  0  0  0
  137.8140   79.0620  223.3660 C   0  0  0  0  0  0  0  0  0  0  0  0
  137.9890   80.4150  223.7220 C   0  0  0  0  0  0  0  0  0  0  0  0
  139.1530   80.9090  223.7400 O   0  0  0  0  0  0  0  0  0  0  0  0
  136.9020   81.1880  224.0480 N   0  0  0  0  0  0  0  0  0  0  0  0
  137.0600   82.5060  224.4020 C   0  0  0  0  0  0  0  0  0  0  0  0
  138.0674   82.9472  224.4215 H   0  0  0  0  0  0  0  0  0  0  0  0
  135.9530   83.2930  224.7380 C   0  0  0  0  0  0  0  0  0  0  0  0
  136.1720   84.9730  225.1930 Cl  0  0  0  0  0  0  0  0  0  0  0  0
  134.6780   82.7340  224.7080 C   0  0  0  0  0  0  0  0  0  0  0  0
  133.8009   83.3447  224.9684 H   0  0  0  0  0  0  0  0  0  0  0  0
  134.5180   81.3990  224.3470 C   0  0  0  0  0  0  0  0  0  0  0  0
  133.5142   80.9501  224.3175 H   0  0  0  0  0  0  0  0  0  0  0  0
  135.6420   80.6320  224.0220 C   0  0  0  0  0  0  0  0  0  0  0  0
  135.4750   79.3320  223.6790 N   0  0  0  0  0  0  0  0  0  0  0  0
  136.5170   78.5250  223.3490 C   0  0  0  0  0  0  0  0  0  0  0  0
  136.3040   77.2070  223.0080 N   0  0  0  0  0  0  0  0  0  0  0  0
  134.9190   76.6850  222.9390 C   0  0  0  0  0  0  0  0  0  0  0  0
  134.2879   77.4064  222.3993 H   0  0  0  0  0  0  0  0  0  0  0  0
  134.9315   75.7192  222.4126 H   0  0  0  0  0  0  0  0  0  0  0  0
  134.3580   76.4750  224.3220 C   0  0  0  0  0  0  0  0  0  0  0  0
  134.8340   75.4300  225.1320 C   0  0  0  0  0  0  0  0  0  0  0  0
  135.5994   74.7418  224.7441 H   0  0  0  0  0  0  0  0  0  0  0  0
  134.3390   75.2610  226.4290 C   0  0  0  0  0  0  0  0  0  0  0  0
  134.7170   74.4420  227.0586 H   0  0  0  0  0  0  0  0  0  0  0  0
  133.3660   76.1300  226.9260 C   0  0  0  0  0  0  0  0  0  0  0  0
  132.9795   75.9961  227.9471 H   0  0  0  0  0  0  0  0  0  0  0  0
  132.8830   77.1690  226.1280 C   0  0  0  0  0  0  0  0  0  0  0  0
  132.1135   77.8508  226.5193 H   0  0  0  0  0  0  0  0  0  0  0  0
  133.3770   77.3430  224.8320 C   0  0  0  0  0  0  0  0  0  0  0  0
  132.9957   78.1643  224.2074 H   0  0  0  0  0  0  0  0  0  0  0  0
  1  2  1  0
  2  3  2  0
  3  4  1  0
  4  5  1  0
  5  6  2  0
  6  7  1  0
  7  8  1  6
  7  9  1  0
  9 10  2  0
 10 11  1  0
 10 12  1  0
 12 13  1  0
 12 14  2  0
 14 15  1  0
 14 16  1  0
 16 17  1  0
 16 18  2  0
 18 19  1  0
  7 20  1  0
 20 21  1  0
 20 22  1  0
 20 23  1  0
  5 24  1  0
 24 25  1  0
  4 26  2  0
 26 27  1  0
 26 28  1  0
 28 29  1  0
 29 30  2  0
 29 31  1  0
 31 32  1  0
 32 33  1  0
 32 34  2  0
 34 35  1  0
 34 36  1  0
 36 37  1  0
 36 38  2  0
 38 39  1  0
 38 40  1  0
 40 41  2  0
 41 42  1  0
 42 43  1  0
 43 44  1  0
 44 45  1  0
 44 46  1  0
 44 47  1  0
 47 48  2  0
 48 49  1  0
 48 50  1  0
 50 51  1  0
 50 52  2  0
 52 53  1  0
 52 54  1  0
 54 55  1  0
 54 56  2  0
 56 57  1  0
 43  3  1  0
 56 47  1  0
 18  9  1  0
 42 28  2  0
 40 31  1  0
M  END
>  <UniqueID>  (9) 
100

>  <SMILES>  (9) 
[H]/N=c1\c(/C(O)=N/[C@@H](C)c2ccccc2)cc2c(=O)n3cc(Cl)ccc3nc2n1Cc1ccccc1

>  <Energy>  (9) 
83.48587377213799

>  <Genealogy>  (9) 
C[C@H](N=C(O)c1cc2c(=O)n3cc(Cl)ccc3nc2n(Cc2ccccc2)c1=N)c1ccccc1 (tautomer)
[H]/N=c1\c(/C(O)=N/[C@@H](C)c2ccccc2)cc2c(=O)n3cc(Cl)ccc3nc2n1Cc1ccccc1 (cis-trans isomerization)
[H]/N=c1\c(/C(O)=N/[C@@H](C)c2ccccc2)cc2c(=O)n3cc(Cl)ccc3nc2n1Cc1ccccc1 (3D coordinates assigned)
[H]/N=c1\c(/C(O)=N/[C@@H](C)c2ccccc2)cc2c(=O)n3cc(Cl)ccc3nc2n1Cc1ccccc1 (optimized conformer: 83.48587377213799 kcal/mol)

>  <smiles>  (9) 
C[C@H](NC(=O)c1cc2c(=O)n3cc(Cl)ccc3nc2n(Cc2ccccc2)c1=N)c1ccccc1

>  <score_type>  (9) 
oracle

>  <origin>  (9) 
autodockgpu

>  <m_score__min__energy>  (9) 
-8.7100000000000009

>  <m_primary>  (9) 
energy

>  <meeko>  (9) 
{"free_energy": -7.57, "intermolecular_energy": -9.96, "internal_energy": -2.57, "cluster_size": 10, "cluster_id": 5, "rank_in_cluster": 8}

>  <energy>  (9) 
-7.7

>  <cluster_rmsd>  (9) 
0.0

>  <rmsd>  (9) 
268.66

>  <cluster>  (9) 
4

$$$$
BLHILRPTNSSYME-YFHWJHCCNA-N
     RDKit          3D

 57 61  0  0  0  0  0  0  0  0999 V2000
  136.0620   68.4040  225.1830 H   0  0  0  0  0  0  0  0  0  0  0  0
  135.9860   69.0780  224.3910 N   0  0  0  0  0  0  0  0  0  0  0  0
  136.9360   69.8790  224.0010 C   0  0  0  0  0  0  0  0  0  0  0  0
  138.2930   69.5000  224.1370 C   0  0  0  0  0  0  0  0  0  0  0  0
  138.7200   68.2530  224.8000 C   0  0  0  0  0  0  0  0  0  0  0  0
  138.6870   68.1780  226.1000 N   0  0  0  0  0  0  0  0  0  0  0  0
  139.8380   68.2780  227.0000 C   0  0  2  0  0  0  0  0  0  0  0  0
  139.5466   67.9214  227.9990 H   0  0  0  0  0  0  0  0  0  0  0  0
  140.2910   69.7170  227.1390 C   0  0  0  0  0  0  0  0  0  0  0  0
  141.0920   70.3020  226.1420 C   0  0  0  0  0  0  0  0  0  0  0  0
  141.4031   69.7070  225.2707 H   0  0  0  0  0  0  0  0  0  0  0  0
  141.4950   71.6370  226.2530 C   0  0  0  0  0  0  0  0  0  0  0  0
  142.1285   72.0854  225.4735 H   0  0  0  0  0  0  0  0  0  0  0  0
  141.0950   72.4020  227.3510 C   0  0  0  0  0  0  0  0  0  0  0  0
  141.4129   73.4517  227.4349 H   0  0  0  0  0  0  0  0  0  0  0  0
  140.2910   71.8340  228.3430 C   0  0  0  0  0  0  0  0  0  0  0  0
  139.9744   72.4373  229.2066 H   0  0  0  0  0  0  0  0  0  0  0  0
  139.8890   70.4990  228.2380 C   0  0  0  0  0  0  0  0  0  0  0  0
  139.2541   70.0567  229.0198 H   0  0  0  0  0  0  0  0  0  0  0  0
  140.9740   67.4080  226.4590 C   0  0  0  0  0  0  0  0  0  0  0  0
  141.5375   66.9765  227.2994 H   0  0  0  0  0  0  0  0  0  0  0  0
  140.5546   66.5979  225.8443 H   0  0  0  0  0  0  0  0  0  0  0  0
  141.6468   68.0240  225.8443 H   0  0  0  0  0  0  0  0  0  0  0  0
  139.2150   67.2130  224.0100 O   0  0  0  0  0  0  0  0  0  0  0  0
  139.5490   67.3400  223.0630 H   0  0  0  0  0  0  0  0  0  0  0  0
  139.2880   70.3420  223.6430 C   0  0  0  0  0  0  0  0  0  0  0  0
  140.3433   70.0393  223.7117 H   0  0  0  0  0  0  0  0  0  0  0  0
  138.9550   71.5660  223.0620 C   0  0  0  0  0  0  0  0  0  0  0  0
  139.9380   72.4550  222.5810 C   0  0  0  0  0  0  0  0  0  0  0  0
  141.1590   72.1370  222.6650 O   0  0  0  0  0  0  0  0  0  0  0  0
  139.5690   73.6560  222.0270 N   0  0  0  0  0  0  0  0  0  0  0  0
  140.5180   74.5330  221.5590 C   0  0  0  0  0  0  0  0  0  0  0  0
  141.5836   74.2684  221.6265 H   0  0  0  0  0  0  0  0  0  0  0  0
  140.1440   75.7580  220.9980 C   0  0  0  0  0  0  0  0  0  0  0  0
  141.3670   76.8690  220.4100 Cl  0  0  0  0  0  0  0  0  0  0  0  0
  138.7940   76.0890  220.9090 C   0  0  0  0  0  0  0  0  0  0  0  0
  138.4887   77.0491  220.4674 H   0  0  0  0  0  0  0  0  0  0  0  0
  137.8330   75.2000  221.3810 C   0  0  0  0  0  0  0  0  0  0  0  0
  136.7645   75.4523  221.3120 H   0  0  0  0  0  0  0  0  0  0  0  0
  138.2340   73.9830  221.9440 C   0  0  0  0  0  0  0  0  0  0  0  0
  137.2890   73.1290  222.4060 N   0  0  0  0  0  0  0  0  0  0  0  0
  137.6020   71.9300  222.9640 C   0  0  0  0  0  0  0  0  0  0  0  0
  136.6110   71.0900  223.4240 N   0  0  0  0  0  0  0  0  0  0  0  0
  135.1900   71.4730  223.2490 C   0  0  0  0  0  0  0  0  0  0  0  0
  135.0489   71.8850  222.2389 H   0  0  0  0  0  0  0  0  0  0  0  0
  134.5634   70.5797  223.3879 H   0  0  0  0  0  0  0  0  0  0  0  0
  134.7880   72.5100  224.2670 C   0  0  0  0  0  0  0  0  0  0  0  0
  134.9020   73.8790  223.9710 C   0  0  0  0  0  0  0  0  0  0  0  0
  135.3139   74.1974  223.0020 H   0  0  0  0  0  0  0  0  0  0  0  0
  134.4940   74.8380  224.9030 C   0  0  0  0  0  0  0  0  0  0  0  0
  134.5845   75.9081  224.6650 H   0  0  0  0  0  0  0  0  0  0  0  0
  133.9720   74.4400  226.1350 C   0  0  0  0  0  0  0  0  0  0  0  0
  133.6501   75.1967  226.8656 H   0  0  0  0  0  0  0  0  0  0  0  0
  133.8580   73.0820  226.4410 C   0  0  0  0  0  0  0  0  0  0  0  0
  133.4497   72.7695  227.4134 H   0  0  0  0  0  0  0  0  0  0  0  0
  134.2630   72.1200  225.5110 C   0  0  0  0  0  0  0  0  0  0  0  0
  134.1702   71.0513  225.7544 H   0  0  0  0  0  0  0  0  0  0  0  0
  1  2  1  0
  2  3  2  0
  3  4  1  0
  4  5  1  0
  5  6  2  0
  6  7  1  0
  7  8  1  1
  7  9  1  0
  9 10  2  0
 10 11  1  0
 10 12  1  0
 12 13  1  0
 12 14  2  0
 14 15  1  0
 14 16  1  0
 16 17  1  0
 16 18  2  0
 18 19  1  0
  7 20  1  0
 20 21  1  0
 20 22  1  0
 20 23  1  0
  5 24  1  0
 24 25  1  0
  4 26  2  0
 26 27  1  0
 26 28  1  0
 28 29  1  0
 29 30  2  0
 29 31  1  0
 31 32  1  0
 32 33  1  0
 32 34  2  0
 34 35  1  0
 34 36  1  0
 36 37  1  0
 36 38  2  0
 38 39  1  0
 38 40  1  0
 40 41  2  0
 41 42  1  0
 42 43  1  0
 43 44  1  0
 44 45  1  0
 44 46  1  0
 44 47  1  0
 47 48  2  0
 48 49  1  0
 48 50  1  0
 50 51  1  0
 50 52  2  0
 52 53  1  0
 52 54  1  0
 54 55  1  0
 54 56  2  0
 56 57  1  0
 43  3  1  0
 56 47  1  0
 18  9  1  0
 42 28  2  0
 40 31  1  0
M  END
>  <UniqueID>  (10) 
100

>  <SMILES>  (10) 
[H]/N=c1\c(/C(O)=N/[C@@H](C)c2ccccc2)cc2c(=O)n3cc(Cl)ccc3nc2n1Cc1ccccc1

>  <Energy>  (10) 
83.48587377213799

>  <Genealogy>  (10) 
C[C@H](N=C(O)c1cc2c(=O)n3cc(Cl)ccc3nc2n(Cc2ccccc2)c1=N)c1ccccc1 (tautomer)
[H]/N=c1\c(/C(O)=N/[C@@H](C)c2ccccc2)cc2c(=O)n3cc(Cl)ccc3nc2n1Cc1ccccc1 (cis-trans isomerization)
[H]/N=c1\c(/C(O)=N/[C@@H](C)c2ccccc2)cc2c(=O)n3cc(Cl)ccc3nc2n1Cc1ccccc1 (3D coordinates assigned)
[H]/N=c1\c(/C(O)=N/[C@@H](C)c2ccccc2)cc2c(=O)n3cc(Cl)ccc3nc2n1Cc1ccccc1 (optimized conformer: 83.48587377213799 kcal/mol)

>  <smiles>  (10) 
C[C@H](NC(=O)c1cc2c(=O)n3cc(Cl)ccc3nc2n(Cc2ccccc2)c1=N)c1ccccc1

>  <score_type>  (10) 
oracle

>  <origin>  (10) 
autodockgpu

>  <m_score__min__energy>  (10) 
-8.7100000000000009

>  <m_primary>  (10) 
energy

>  <meeko>  (10) 
{"free_energy": -8.71, "intermolecular_energy": -11.1, "internal_energy": -1.73, "cluster_size": 5, "cluster_id": 2, "rank_in_cluster": 1}

>  <energy>  (10) 
-7.66

>  <cluster_rmsd>  (10) 
0.0

>  <rmsd>  (10) 
269.58

>  <cluster>  (10) 
5

$$$$
BLHILRPTNSSYME-YFHWJHCCNA-N
     RDKit          3D

 57 61  0  0  0  0  0  0  0  0999 V2000
  139.5700   74.7580  223.0540 H   0  0  0  0  0  0  0  0  0  0  0  0
  139.4930   74.0400  222.3020 N   0  0  0  0  0  0  0  0  0  0  0  0
  140.4940   73.5750  221.6120 C   0  0  0  0  0  0  0  0  0  0  0  0
  141.4920   74.4490  221.1180 C   0  0  0  0  0  0  0  0  0  0  0  0
  141.4190   75.9160  221.2570 C   0  0  0  0  0  0  0  0  0  0  0  0
  140.5320   76.4380  222.0560 N   0  0  0  0  0  0  0  0  0  0  0  0
  139.9290   77.7660  221.9260 C   0  0  2  0  0  0  0  0  0  0  0  0
  139.7171   77.9623  220.8646 H   0  0  0  0  0  0  0  0  0  0  0  0
  140.8800   78.8410  222.4130 C   0  0  0  0  0  0  0  0  0  0  0  0
  141.1650   79.9510  221.5980 C   0  0  0  0  0  0  0  0  0  0  0  0
  140.7102   80.0279  220.5994 H   0  0  0  0  0  0  0  0  0  0  0  0
  142.0240   80.9580  222.0510 C   0  0  0  0  0  0  0  0  0  0  0  0
  142.2496   81.8190  221.4047 H   0  0  0  0  0  0  0  0  0  0  0  0
  142.5960   80.8720  223.3230 C   0  0  0  0  0  0  0  0  0  0  0  0
  143.2694   81.6661  223.6779 H   0  0  0  0  0  0  0  0  0  0  0  0
  142.3130   79.7780  224.1440 C   0  0  0  0  0  0  0  0  0  0  0  0
  142.7633   79.7113  225.1454 H   0  0  0  0  0  0  0  0  0  0  0  0
  141.4580   78.7680  223.6940 C   0  0  0  0  0  0  0  0  0  0  0  0
  141.2354   77.9102  224.3456 H   0  0  0  0  0  0  0  0  0  0  0  0
  138.6240   77.8050  222.7220 C   0  0  0  0  0  0  0  0  0  0  0  0
  138.8507   77.7982  223.7984 H   0  0  0  0  0  0  0  0  0  0  0  0
  138.0681   78.7202  222.4701 H   0  0  0  0  0  0  0  0  0  0  0  0
  138.0144   76.9247  222.4701 H   0  0  0  0  0  0  0  0  0  0  0  0
  142.2620   76.7040  220.4700 O   0  0  0  0  0  0  0  0  0  0  0  0
  142.9850   77.3010  220.8490 H   0  0  0  0  0  0  0  0  0  0  0  0
  142.5920   73.9170  220.4470 C   0  0  0  0  0  0  0  0  0  0  0  0
  143.3894   74.5854  220.0899 H   0  0  0  0  0  0  0  0  0  0  0  0
  142.6890   72.5430  220.2250 C   0  0  0  0  0  0  0  0  0  0  0  0
  143.7730   71.9770  219.5240 C   0  0  0  0  0  0  0  0  0  0  0  0
  144.6940   72.7260  219.0890 O   0  0  0  0  0  0  0  0  0  0  0  0
  143.8260   70.6200  219.3150 N   0  0  0  0  0  0  0  0  0  0  0  0
  144.8740   70.0560  218.6290 C   0  0  0  0  0  0  0  0  0  0  0  0
  145.6811   70.6974  218.2454 H   0  0  0  0  0  0  0  0  0  0  0  0
  144.9260   68.6760  218.4130 C   0  0  0  0  0  0  0  0  0  0  0  0
  146.2690   67.9720  217.5300 Cl  0  0  0  0  0  0  0  0  0  0  0  0
  143.9060   67.8640  218.9040 C   0  0  0  0  0  0  0  0  0  0  0  0
  143.9389   66.7765  218.7416 H   0  0  0  0  0  0  0  0  0  0  0  0
  142.8450   68.4350  219.6010 C   0  0  0  0  0  0  0  0  0  0  0  0
  142.0362   67.8016  219.9943 H   0  0  0  0  0  0  0  0  0  0  0  0
  142.8140   69.8200  219.7980 C   0  0  0  0  0  0  0  0  0  0  0  0
  141.7720   70.3650  220.4720 N   0  0  0  0  0  0  0  0  0  0  0  0
  141.6720   71.7010  220.7030 C   0  0  0  0  0  0  0  0  0  0  0  0
  140.5960   72.2150  221.3920 N   0  0  0  0  0  0  0  0  0  0  0  0
  139.5710   71.2950  221.9390 C   0  0  0  0  0  0  0  0  0  0  0  0
  138.5894   71.7908  221.9115 H   0  0  0  0  0  0  0  0  0  0  0  0
  139.5544   70.3807  221.3276 H   0  0  0  0  0  0  0  0  0  0  0  0
  139.8960   70.9200  223.3620 C   0  0  0  0  0  0  0  0  0  0  0  0
  140.6910   71.7630  224.1570 C   0  0  0  0  0  0  0  0  0  0  0  0
  141.1031   72.6891  223.7298 H   0  0  0  0  0  0  0  0  0  0  0  0
  140.9610   71.4310  225.4880 C   0  0  0  0  0  0  0  0  0  0  0  0
  141.5830   72.0963  226.1049 H   0  0  0  0  0  0  0  0  0  0  0  0
  140.4420   70.2560  226.0350 C   0  0  0  0  0  0  0  0  0  0  0  0
  140.6540   69.9972  227.0829 H   0  0  0  0  0  0  0  0  0  0  0  0
  139.6540   69.4090  225.2530 C   0  0  0  0  0  0  0  0  0  0  0  0
  139.2478   68.4823  225.6846 H   0  0  0  0  0  0  0  0  0  0  0  0
  139.3810   69.7380  223.9220 C   0  0  0  0  0  0  0  0  0  0  0  0
  138.7597   69.0681  223.3095 H   0  0  0  0  0  0  0  0  0  0  0  0
  1  2  1  0
  2  3  2  0
  3  4  1  0
  4  5  1  0
  5  6  2  0
  6  7  1  0
  7  8  1  6
  7  9  1  0
  9 10  2  0
 10 11  1  0
 10 12  1  0
 12 13  1  0
 12 14  2  0
 14 15  1  0
 14 16  1  0
 16 17  1  0
 16 18  2  0
 18 19  1  0
  7 20  1  0
 20 21  1  0
 20 22  1  0
 20 23  1  0
  5 24  1  0
 24 25  1  0
  4 26  2  0
 26 27  1  0
 26 28  1  0
 28 29  1  0
 29 30  2  0
 29 31  1  0
 31 32  1  0
 32 33  1  0
 32 34  2  0
 34 35  1  0
 34 36  1  0
 36 37  1  0
 36 38  2  0
 38 39  1  0
 38 40  1  0
 40 41  2  0
 41 42  1  0
 42 43  1  0
 43 44  1  0
 44 45  1  0
 44 46  1  0
 44 47  1  0
 47 48  2  0
 48 49  1  0
 48 50  1  0
 50 51  1  0
 50 52  2  0
 52 53  1  0
 52 54  1  0
 54 55  1  0
 54 56  2  0
 56 57  1  0
 43  3  1  0
 56 47  1  0
 18  9  1  0
 42 28  2  0
 40 31  1  0
M  END
>  <UniqueID>  (11) 
100

>  <SMILES>  (11) 
[H]/N=c1\c(/C(O)=N/[C@@H](C)c2ccccc2)cc2c(=O)n3cc(Cl)ccc3nc2n1Cc1ccccc1

>  <Energy>  (11) 
83.48587377213799

>  <Genealogy>  (11) 
C[C@H](N=C(O)c1cc2c(=O)n3cc(Cl)ccc3nc2n(Cc2ccccc2)c1=N)c1ccccc1 (tautomer)
[H]/N=c1\c(/C(O)=N/[C@@H](C)c2ccccc2)cc2c(=O)n3cc(Cl)ccc3nc2n1Cc1ccccc1 (cis-trans isomerization)
[H]/N=c1\c(/C(O)=N/[C@@H](C)c2ccccc2)cc2c(=O)n3cc(Cl)ccc3nc2n1Cc1ccccc1 (3D coordinates assigned)
[H]/N=c1\c(/C(O)=N/[C@@H](C)c2ccccc2)cc2c(=O)n3cc(Cl)ccc3nc2n1Cc1ccccc1 (optimized conformer: 83.48587377213799 kcal/mol)

>  <smiles>  (11) 
C[C@H](NC(=O)c1cc2c(=O)n3cc(Cl)ccc3nc2n(Cc2ccccc2)c1=N)c1ccccc1

>  <score_type>  (11) 
oracle

>  <origin>  (11) 
autodockgpu

>  <m_score__min__energy>  (11) 
-8.7100000000000009

>  <m_primary>  (11) 
energy

>  <meeko>  (11) 
{"free_energy": -8.71, "intermolecular_energy": -11.1, "internal_energy": -1.45, "cluster_size": 1, "cluster_id": 1, "rank_in_cluster": 1}

>  <energy>  (11) 
-7.64

>  <cluster_rmsd>  (11) 
0.1

>  <rmsd>  (11) 
269.59

>  <cluster>  (11) 
5

$$$$
BLHILRPTNSSYME-YFHWJHCCNA-N
     RDKit          3D

 57 61  0  0  0  0  0  0  0  0999 V2000
  140.2790   69.7480  221.7740 H   0  0  0  0  0  0  0  0  0  0  0  0
  140.7300   70.4450  221.1420 N   0  0  0  0  0  0  0  0  0  0  0  0
  140.5890   71.7350  221.2370 C   0  0  0  0  0  0  0  0  0  0  0  0
  139.7170   72.2930  222.2030 C   0  0  0  0  0  0  0  0  0  0  0  0
  138.8560   71.4750  223.0790 C   0  0  0  0  0  0  0  0  0  0  0  0
  139.3250   70.3680  223.5820 N   0  0  0  0  0  0  0  0  0  0  0  0
  138.9610   69.7870  224.8760 C   0  0  2  0  0  0  0  0  0  0  0  0
  137.8961   69.9813  225.0716 H   0  0  0  0  0  0  0  0  0  0  0  0
  139.7590   70.4230  225.9970 C   0  0  0  0  0  0  0  0  0  0  0  0
  139.6440   69.9320  227.3100 C   0  0  0  0  0  0  0  0  0  0  0  0
  138.9602   69.0974  227.5241 H   0  0  0  0  0  0  0  0  0  0  0  0
  140.3940   70.4990  228.3440 C   0  0  0  0  0  0  0  0  0  0  0  0
  140.2920   70.1153  229.3699 H   0  0  0  0  0  0  0  0  0  0  0  0
  141.2730   71.5520  228.0780 C   0  0  0  0  0  0  0  0  0  0  0  0
  141.8625   71.9959  228.8937 H   0  0  0  0  0  0  0  0  0  0  0  0
  141.4030   72.0410  226.7760 C   0  0  0  0  0  0  0  0  0  0  0  0
  142.0970   72.8683  226.5665 H   0  0  0  0  0  0  0  0  0  0  0  0
  140.6520   71.4800  225.7390 C   0  0  0  0  0  0  0  0  0  0  0  0
  140.7596   71.8670  224.7150 H   0  0  0  0  0  0  0  0  0  0  0  0
  139.2050   68.2780  224.8340 C   0  0  0  0  0  0  0  0  0  0  0  0
  139.2681   67.8881  225.8606 H   0  0  0  0  0  0  0  0  0  0  0  0
  138.3746   67.7869  224.3056 H   0  0  0  0  0  0  0  0  0  0  0  0
  140.1479   68.0736  224.3056 H   0  0  0  0  0  0  0  0  0  0  0  0
  137.5350   71.8810  223.2830 O   0  0  0  0  0  0  0  0  0  0  0  0
  137.2800   72.7280  223.7740 H   0  0  0  0  0  0  0  0  0  0  0  0
  139.6420   73.6780  222.3340 C   0  0  0  0  0  0  0  0  0  0  0  0
  138.9950   74.1191  223.1065 H   0  0  0  0  0  0  0  0  0  0  0  0
  140.3820   74.5100  221.4920 C   0  0  0  0  0  0  0  0  0  0  0  0
  140.3050   75.9150  221.5770 C   0  0  0  0  0  0  0  0  0  0  0  0
  139.5540   76.4460  222.4450 O   0  0  0  0  0  0  0  0  0  0  0  0
  141.0400   76.6980  220.7220 N   0  0  0  0  0  0  0  0  0  0  0  0
  140.9700   78.0690  220.7920 C   0  0  0  0  0  0  0  0  0  0  0  0
  140.3208   78.5429  221.5430 H   0  0  0  0  0  0  0  0  0  0  0  0
  141.7150   78.8680  219.9190 C   0  0  0  0  0  0  0  0  0  0  0  0
  141.6110   80.6160  220.0170 Cl  0  0  0  0  0  0  0  0  0  0  0  0
  142.5420   78.2660  218.9730 C   0  0  0  0  0  0  0  0  0  0  0  0
  143.1353   78.8850  218.2839 H   0  0  0  0  0  0  0  0  0  0  0  0
  142.6140   76.8780  218.9040 C   0  0  0  0  0  0  0  0  0  0  0  0
  143.2653   76.3942  218.1612 H   0  0  0  0  0  0  0  0  0  0  0  0
  141.8530   76.1010  219.7850 C   0  0  0  0  0  0  0  0  0  0  0  0
  141.9270   74.7500  219.7030 N   0  0  0  0  0  0  0  0  0  0  0  0
  141.2190   73.9310  220.5240 C   0  0  0  0  0  0  0  0  0  0  0  0
  141.3210   72.5620  220.4080 N   0  0  0  0  0  0  0  0  0  0  0  0
  142.2610   71.9810  219.4190 C   0  0  0  0  0  0  0  0  0  0  0  0
  142.2322   70.8840  219.4945 H   0  0  0  0  0  0  0  0  0  0  0  0
  141.9577   72.3021  218.4116 H   0  0  0  0  0  0  0  0  0  0  0  0
  143.6670   72.4580  219.6770 C   0  0  0  0  0  0  0  0  0  0  0  0
  144.4890   72.8610  218.6100 C   0  0  0  0  0  0  0  0  0  0  0  0
  144.1145   72.8007  217.5775 H   0  0  0  0  0  0  0  0  0  0  0  0
  145.7800   73.3380  218.8550 C   0  0  0  0  0  0  0  0  0  0  0  0
  146.4172   73.6539  218.0159 H   0  0  0  0  0  0  0  0  0  0  0  0
  146.2620   73.4140  220.1640 C   0  0  0  0  0  0  0  0  0  0  0  0
  147.2780   73.7900  220.3545 H   0  0  0  0  0  0  0  0  0  0  0  0
  145.4550   73.0130  221.2310 C   0  0  0  0  0  0  0  0  0  0  0  0
  145.8362   73.0718  222.2612 H   0  0  0  0  0  0  0  0  0  0  0  0
  144.1630   72.5370  220.9900 C   0  0  0  0  0  0  0  0  0  0  0  0
  143.5304   72.2223  221.8331 H   0  0  0  0  0  0  0  0  0  0  0  0
  1  2  1  0
  2  3  2  0
  3  4  1  0
  4  5  1  0
  5  6  2  0
  6  7  1  0
  7  8  1  1
  7  9  1  0
  9 10  2  0
 10 11  1  0
 10 12  1  0
 12 13  1  0
 12 14  2  0
 14 15  1  0
 14 16  1  0
 16 17  1  0
 16 18  2  0
 18 19  1  0
  7 20  1  0
 20 21  1  0
 20 22  1  0
 20 23  1  0
  5 24  1  0
 24 25  1  0
  4 26  2  0
 26 27  1  0
 26 28  1  0
 28 29  1  0
 29 30  2  0
 29 31  1  0
 31 32  1  0
 32 33  1  0
 32 34  2  0
 34 35  1  0
 34 36  1  0
 36 37  1  0
 36 38  2  0
 38 39  1  0
 38 40  1  0
 40 41  2  0
 41 42  1  0
 42 43  1  0
 43 44  1  0
 44 45  1  0
 44 46  1  0
 44 47  1  0
 47 48  2  0
 48 49  1  0
 48 50  1  0
 50 51  1  0
 50 52  2  0
 52 53  1  0
 52 54  1  0
 54 55  1  0
 54 56  2  0
 56 57  1  0
 43  3  1  0
 56 47  1  0
 18  9  1  0
 42 28  2  0
 40 31  1  0
M  END
>  <UniqueID>  (12) 
100

>  <SMILES>  (12) 
[H]/N=c1\c(/C(O)=N/[C@@H](C)c2ccccc2)cc2c(=O)n3cc(Cl)ccc3nc2n1Cc1ccccc1

>  <Energy>  (12) 
83.48587377213799

>  <Genealogy>  (12) 
C[C@H](N=C(O)c1cc2c(=O)n3cc(Cl)ccc3nc2n(Cc2ccccc2)c1=N)c1ccccc1 (tautomer)
[H]/N=c1\c(/C(O)=N/[C@@H](C)c2ccccc2)cc2c(=O)n3cc(Cl)ccc3nc2n1Cc1ccccc1 (cis-trans isomerization)
[H]/N=c1\c(/C(O)=N/[C@@H](C)c2ccccc2)cc2c(=O)n3cc(Cl)ccc3nc2n1Cc1ccccc1 (3D coordinates assigned)
[H]/N=c1\c(/C(O)=N/[C@@H](C)c2ccccc2)cc2c(=O)n3cc(Cl)ccc3nc2n1Cc1ccccc1 (optimized conformer: 83.48587377213799 kcal/mol)

>  <smiles>  (12) 
C[C@H](NC(=O)c1cc2c(=O)n3cc(Cl)ccc3nc2n(Cc2ccccc2)c1=N)c1ccccc1

>  <score_type>  (12) 
oracle

>  <origin>  (12) 
autodockgpu

>  <m_score__min__energy>  (12) 
-8.7100000000000009

>  <m_primary>  (12) 
energy

>  <meeko>  (12) 
{"free_energy": -8.56, "intermolecular_energy": -10.95, "internal_energy": -1.81, "cluster_size": 2, "cluster_id": 3, "rank_in_cluster": 2}

>  <energy>  (12) 
-7.62

>  <cluster_rmsd>  (12) 
0.07

>  <rmsd>  (12) 
269.59

>  <cluster>  (12) 
5

$$$$
BLHILRPTNSSYME-YFHWJHCCNA-N
     RDKit          3D

 57 61  0  0  0  0  0  0  0  0999 V2000
  137.6670   74.3030  222.7430 H   0  0  0  0  0  0  0  0  0  0  0  0
  137.1730   75.1270  222.3380 N   0  0  0  0  0  0  0  0  0  0  0  0
  137.3950   76.3650  222.6730 C   0  0  0  0  0  0  0  0  0  0  0  0
  138.7130   76.8820  222.6790 C   0  0  0  0  0  0  0  0  0  0  0  0
  139.9040   76.0540  222.4100 C   0  0  0  0  0  0  0  0  0  0  0  0
  141.0680   76.6280  222.2940 N   0  0  0  0  0  0  0  0  0  0  0  0
  141.4560   77.5900  221.2600 C   0  0  2  0  0  0  0  0  0  0  0  0
  142.3904   77.2536  220.7870 H   0  0  0  0  0  0  0  0  0  0  0  0
  141.7100   78.9570  221.8630 C   0  0  0  0  0  0  0  0  0  0  0  0
  141.4400   80.1180  221.1160 C   0  0  0  0  0  0  0  0  0  0  0  0
  141.0610   80.0309  220.0870 H   0  0  0  0  0  0  0  0  0  0  0  0
  141.6510   81.3820  221.6750 C   0  0  0  0  0  0  0  0  0  0  0  0
  141.4440   82.2853  221.0824 H   0  0  0  0  0  0  0  0  0  0  0  0
  142.1240   81.5010  222.9840 C   0  0  0  0  0  0  0  0  0  0  0  0
  142.2893   82.4969  223.4208 H   0  0  0  0  0  0  0  0  0  0  0  0
  142.3870   80.3550  223.7380 C   0  0  0  0  0  0  0  0  0  0  0  0
  142.7566   80.4490  224.7698 H   0  0  0  0  0  0  0  0  0  0  0  0
  142.1810   79.0890  223.1830 C   0  0  0  0  0  0  0  0  0  0  0  0
  142.3883   78.1897  223.7816 H   0  0  0  0  0  0  0  0  0  0  0  0
  140.3490   77.6670  220.2070 C   0  0  0  0  0  0  0  0  0  0  0  0
  139.3715   77.7350  220.7069 H   0  0  0  0  0  0  0  0  0  0  0  0
  140.5021   78.5567  219.5785 H   0  0  0  0  0  0  0  0  0  0  0  0
  140.3774   76.7647  219.5785 H   0  0  0  0  0  0  0  0  0  0  0  0
  139.7330   74.6810  222.2180 O   0  0  0  0  0  0  0  0  0  0  0  0
  139.0670   74.1230  222.7370 H   0  0  0  0  0  0  0  0  0  0  0  0
  138.9150   78.2300  222.9680 C   0  0  0  0  0  0  0  0  0  0  0  0
  139.9320   78.6481  222.9391 H   0  0  0  0  0  0  0  0  0  0  0  0
  137.8360   79.0540  223.2940 C   0  0  0  0  0  0  0  0  0  0  0  0
  138.0090   80.4140  223.6210 C   0  0  0  0  0  0  0  0  0  0  0  0
  139.1700   80.9140  223.6130 O   0  0  0  0  0  0  0  0  0  0  0  0
  136.9230   81.1870  223.9490 N   0  0  0  0  0  0  0  0  0  0  0  0
  137.0790   82.5130  224.2750 C   0  0  0  0  0  0  0  0  0  0  0  0
  138.0842   82.9596  224.2709 H   0  0  0  0  0  0  0  0  0  0  0  0
  135.9730   83.3010  224.6120 C   0  0  0  0  0  0  0  0  0  0  0  0
  136.1900   84.9910  225.0310 Cl  0  0  0  0  0  0  0  0  0  0  0  0
  134.7000   82.7350  224.6110 C   0  0  0  0  0  0  0  0  0  0  0  0
  133.8235   83.3462  224.8723 H   0  0  0  0  0  0  0  0  0  0  0  0
  134.5420   81.3930  224.2780 C   0  0  0  0  0  0  0  0  0  0  0  0
  133.5402   80.9387  224.2719 H   0  0  0  0  0  0  0  0  0  0  0  0
  135.6650   80.6250  223.9510 C   0  0  0  0  0  0  0  0  0  0  0  0
  135.4990   79.3180  223.6360 N   0  0  0  0  0  0  0  0  0  0  0  0
  136.5410   78.5090  223.3070 C   0  0  0  0  0  0  0  0  0  0  0  0
  136.3300   77.1850  222.9940 N   0  0  0  0  0  0  0  0  0  0  0  0
  134.9460   76.6550  222.9550 C   0  0  0  0  0  0  0  0  0  0  0  0
  134.3035   77.3627  222.4106 H   0  0  0  0  0  0  0  0  0  0  0  0
  134.9551   75.6793  222.4471 H   0  0  0  0  0  0  0  0  0  0  0  0
  134.4070   76.4700  224.3500 C   0  0  0  0  0  0  0  0  0  0  0  0
  134.8560   75.4070  225.1530 C   0  0  0  0  0  0  0  0  0  0  0  0
  135.5846   74.6877  224.7508 H   0  0  0  0  0  0  0  0  0  0  0  0
  134.3820   75.2590  226.4590 C   0  0  0  0  0  0  0  0  0  0  0  0
  134.7392   74.4256  227.0818 H   0  0  0  0  0  0  0  0  0  0  0  0
  133.4550   76.1680  226.9750 C   0  0  0  0  0  0  0  0  0  0  0  0
  133.0840   76.0505  228.0039 H   0  0  0  0  0  0  0  0  0  0  0  0
  132.9990   77.2260  226.1850 C   0  0  0  0  0  0  0  0  0  0  0  0
  132.2674   77.9399  226.5913 H   0  0  0  0  0  0  0  0  0  0  0  0
  133.4720   77.3780  224.8780 C   0  0  0  0  0  0  0  0  0  0  0  0
  133.1107   78.2126  224.2593 H   0  0  0  0  0  0  0  0  0  0  0  0
  1  2  1  0
  2  3  2  0
  3  4  1  0
  4  5  1  0
  5  6  2  0
  6  7  1  0
  7  8  1  6
  7  9  1  0
  9 10  2  0
 10 11  1  0
 10 12  1  0
 12 13  1  0
 12 14  2  0
 14 15  1  0
 14 16  1  0
 16 17  1  0
 16 18  2  0
 18 19  1  0
  7 20  1  0
 20 21  1  0
 20 22  1  0
 20 23  1  0
  5 24  1  0
 24 25  1  0
  4 26  2  0
 26 27  1  0
 26 28  1  0
 28 29  1  0
 29 30  2  0
 29 31  1  0
 31 32  1  0
 32 33  1  0
 32 34  2  0
 34 35  1  0
 34 36  1  0
 36 37  1  0
 36 38  2  0
 38 39  1  0
 38 40  1  0
 40 41  2  0
 41 42  1  0
 42 43  1  0
 43 44  1  0
 44 45  1  0
 44 46  1  0
 44 47  1  0
 47 48  2  0
 48 49  1  0
 48 50  1  0
 50 51  1  0
 50 52  2  0
 52 53  1  0
 52 54  1  0
 54 55  1  0
 54 56  2  0
 56 57  1  0
 43  3  1  0
 56 47  1  0
 18  9  1  0
 42 28  2  0
 40 31  1  0
M  END
>  <UniqueID>  (13) 
100

>  <SMILES>  (13) 
[H]/N=c1\c(/C(O)=N/[C@@H](C)c2ccccc2)cc2c(=O)n3cc(Cl)ccc3nc2n1Cc1ccccc1

>  <Energy>  (13) 
83.48587377213799

>  <Genealogy>  (13) 
C[C@H](N=C(O)c1cc2c(=O)n3cc(Cl)ccc3nc2n(Cc2ccccc2)c1=N)c1ccccc1 (tautomer)
[H]/N=c1\c(/C(O)=N/[C@@H](C)c2ccccc2)cc2c(=O)n3cc(Cl)ccc3nc2n1Cc1ccccc1 (cis-trans isomerization)
[H]/N=c1\c(/C(O)=N/[C@@H](C)c2ccccc2)cc2c(=O)n3cc(Cl)ccc3nc2n1Cc1ccccc1 (3D coordinates assigned)
[H]/N=c1\c(/C(O)=N/[C@@H](C)c2ccccc2)cc2c(=O)n3cc(Cl)ccc3nc2n1Cc1ccccc1 (optimized conformer: 83.48587377213799 kcal/mol)

>  <smiles>  (13) 
C[C@H](NC(=O)c1cc2c(=O)n3cc(Cl)ccc3nc2n(Cc2ccccc2)c1=N)c1ccccc1

>  <score_type>  (13) 
oracle

>  <origin>  (13) 
autodockgpu

>  <m_score__min__energy>  (13) 
-8.7100000000000009

>  <m_primary>  (13) 
energy

>  <meeko>  (13) 
{"free_energy": -7.62, "intermolecular_energy": -10.0, "internal_energy": -2.53, "cluster_size": 10, "cluster_id": 5, "rank_in_cluster": 4}

>  <energy>  (13) 
-7.62

>  <cluster_rmsd>  (13) 
0.23

>  <rmsd>  (13) 
269.56

>  <cluster>  (13) 
5

$$$$
BLHILRPTNSSYME-YFHWJHCCNA-N
     RDKit          3D

 57 61  0  0  0  0  0  0  0  0999 V2000
  137.6800   74.3410  222.7280 H   0  0  0  0  0  0  0  0  0  0  0  0
  137.1920   75.1720  222.3300 N   0  0  0  0  0  0  0  0  0  0  0  0
  137.3980   76.4030  222.6970 C   0  0  0  0  0  0  0  0  0  0  0  0
  138.7120   76.9310  222.7310 C   0  0  0  0  0  0  0  0  0  0  0  0
  139.9130   76.1190  222.4570 C   0  0  0  0  0  0  0  0  0  0  0  0
  141.0720   76.7070  222.3620 N   0  0  0  0  0  0  0  0  0  0  0  0
  141.4860   77.6330  221.3060 C   0  0  2  0  0  0  0  0  0  0  0  0
  142.4589   77.3113  220.9061 H   0  0  0  0  0  0  0  0  0  0  0  0
  141.6540   79.0360  221.8530 C   0  0  0  0  0  0  0  0  0  0  0  0
  141.1970   80.1410  221.1120 C   0  0  0  0  0  0  0  0  0  0  0  0
  140.7333   79.9850  220.1268 H   0  0  0  0  0  0  0  0  0  0  0  0
  141.3290   81.4360  221.6210 C   0  0  0  0  0  0  0  0  0  0  0  0
  140.9772   82.2957  221.0318 H   0  0  0  0  0  0  0  0  0  0  0  0
  141.9070   81.6410  222.8770 C   0  0  0  0  0  0  0  0  0  0  0  0
  142.0084   82.6611  223.2759 H   0  0  0  0  0  0  0  0  0  0  0  0
  142.3560   80.5500  223.6260 C   0  0  0  0  0  0  0  0  0  0  0  0
  142.8096   80.7115  224.6151 H   0  0  0  0  0  0  0  0  0  0  0  0
  142.2290   79.2540  223.1190 C   0  0  0  0  0  0  0  0  0  0  0  0
  142.5809   78.3981  223.7136 H   0  0  0  0  0  0  0  0  0  0  0  0
  140.4420   77.6160  220.1870 C   0  0  0  0  0  0  0  0  0  0  0  0
  139.4337   77.5996  220.6264 H   0  0  0  0  0  0  0  0  0  0  0  0
  140.5563   78.5161  219.5651 H   0  0  0  0  0  0  0  0  0  0  0  0
  140.5856   76.7201  219.5651 H   0  0  0  0  0  0  0  0  0  0  0  0
  139.7570   74.7490  222.2380 O   0  0  0  0  0  0  0  0  0  0  0  0
  139.1090   74.1700  222.7560 H   0  0  0  0  0  0  0  0  0  0  0  0
  138.8980   78.2730  223.0540 C   0  0  0  0  0  0  0  0  0  0  0  0
  139.9113   78.7009  223.0466 H   0  0  0  0  0  0  0  0  0  0  0  0
  137.8080   79.0790  223.3870 C   0  0  0  0  0  0  0  0  0  0  0  0
  137.9660   80.4330  223.7480 C   0  0  0  0  0  0  0  0  0  0  0  0
  139.1220   80.9420  223.7660 O   0  0  0  0  0  0  0  0  0  0  0  0
  136.8690   81.1890  224.0810 N   0  0  0  0  0  0  0  0  0  0  0  0
  137.0090   82.5080  224.4410 C   0  0  0  0  0  0  0  0  0  0  0  0
  138.0103   82.9629  224.4610 H   0  0  0  0  0  0  0  0  0  0  0  0
  135.8930   83.2780  224.7820 C   0  0  0  0  0  0  0  0  0  0  0  0
  136.0890   84.9590  225.2450 Cl  0  0  0  0  0  0  0  0  0  0  0  0
  134.6250   82.7020  224.7520 C   0  0  0  0  0  0  0  0  0  0  0  0
  133.7402   83.2996  225.0164 H   0  0  0  0  0  0  0  0  0  0  0  0
  134.4830   81.3670  224.3860 C   0  0  0  0  0  0  0  0  0  0  0  0
  133.4853   80.9047  224.3571 H   0  0  0  0  0  0  0  0  0  0  0  0
  135.6160   80.6160  224.0550 C   0  0  0  0  0  0  0  0  0  0  0  0
  135.4660   79.3150  223.7070 N   0  0  0  0  0  0  0  0  0  0  0  0
  136.5180   78.5240  223.3710 C   0  0  0  0  0  0  0  0  0  0  0  0
  136.3230   77.2050  223.0240 N   0  0  0  0  0  0  0  0  0  0  0  0
  134.9440   76.6650  222.9560 C   0  0  0  0  0  0  0  0  0  0  0  0
  134.2741   77.4361  222.5479 H   0  0  0  0  0  0  0  0  0  0  0  0
  134.9439   75.7767  222.3072 H   0  0  0  0  0  0  0  0  0  0  0  0
  134.4600   76.2640  224.3260 C   0  0  0  0  0  0  0  0  0  0  0  0
  133.7440   77.1740  225.1230 C   0  0  0  0  0  0  0  0  0  0  0  0
  133.5604   78.1951  224.7573 H   0  0  0  0  0  0  0  0  0  0  0  0
  133.2640   76.7880  226.3780 C   0  0  0  0  0  0  0  0  0  0  0  0
  132.7029   77.5046  226.9958 H   0  0  0  0  0  0  0  0  0  0  0  0
  133.4960   75.4940  226.8480 C   0  0  0  0  0  0  0  0  0  0  0  0
  133.1167   75.1918  227.8353 H   0  0  0  0  0  0  0  0  0  0  0  0
  134.2090   74.5830  226.0660 C   0  0  0  0  0  0  0  0  0  0  0  0
  134.3930   73.5646  226.4389 H   0  0  0  0  0  0  0  0  0  0  0  0
  134.6890   74.9640  224.8100 C   0  0  0  0  0  0  0  0  0  0  0  0
  135.2491   74.2428  224.1967 H   0  0  0  0  0  0  0  0  0  0  0  0
  1  2  1  0
  2  3  2  0
  3  4  1  0
  4  5  1  0
  5  6  2  0
  6  7  1  0
  7  8  1  6
  7  9  1  0
  9 10  2  0
 10 11  1  0
 10 12  1  0
 12 13  1  0
 12 14  2  0
 14 15  1  0
 14 16  1  0
 16 17  1  0
 16 18  2  0
 18 19  1  0
  7 20  1  0
 20 21  1  0
 20 22  1  0
 20 23  1  0
  5 24  1  0
 24 25  1  0
  4 26  2  0
 26 27  1  0
 26 28  1  0
 28 29  1  0
 29 30  2  0
 29 31  1  0
 31 32  1  0
 32 33  1  0
 32 34  2  0
 34 35  1  0
 34 36  1  0
 36 37  1  0
 36 38  2  0
 38 39  1  0
 38 40  1  0
 40 41  2  0
 41 42  1  0
 42 43  1  0
 43 44  1  0
 44 45  1  0
 44 46  1  0
 44 47  1  0
 47 48  2  0
 48 49  1  0
 48 50  1  0
 50 51  1  0
 50 52  2  0
 52 53  1  0
 52 54  1  0
 54 55  1  0
 54 56  2  0
 56 57  1  0
 43  3  1  0
 56 47  1  0
 18  9  1  0
 42 28  2  0
 40 31  1  0
M  END
>  <UniqueID>  (14) 
100

>  <SMILES>  (14) 
[H]/N=c1\c(/C(O)=N/[C@@H](C)c2ccccc2)cc2c(=O)n3cc(Cl)ccc3nc2n1Cc1ccccc1

>  <Energy>  (14) 
83.48587377213799

>  <Genealogy>  (14) 
C[C@H](N=C(O)c1cc2c(=O)n3cc(Cl)ccc3nc2n(Cc2ccccc2)c1=N)c1ccccc1 (tautomer)
[H]/N=c1\c(/C(O)=N/[C@@H](C)c2ccccc2)cc2c(=O)n3cc(Cl)ccc3nc2n1Cc1ccccc1 (cis-trans isomerization)
[H]/N=c1\c(/C(O)=N/[C@@H](C)c2ccccc2)cc2c(=O)n3cc(Cl)ccc3nc2n1Cc1ccccc1 (3D coordinates assigned)
[H]/N=c1\c(/C(O)=N/[C@@H](C)c2ccccc2)cc2c(=O)n3cc(Cl)ccc3nc2n1Cc1ccccc1 (optimized conformer: 83.48587377213799 kcal/mol)

>  <smiles>  (14) 
C[C@H](NC(=O)c1cc2c(=O)n3cc(Cl)ccc3nc2n(Cc2ccccc2)c1=N)c1ccccc1

>  <score_type>  (14) 
oracle

>  <origin>  (14) 
autodockgpu

>  <m_score__min__energy>  (14) 
-8.7100000000000009

>  <m_primary>  (14) 
energy

>  <meeko>  (14) 
{"free_energy": -7.57, "intermolecular_energy": -9.96, "internal_energy": -2.59, "cluster_size": 10, "cluster_id": 5, "rank_in_cluster": 9}

>  <energy>  (14) 
-7.61

>  <cluster_rmsd>  (14) 
0.07

>  <rmsd>  (14) 
269.56

>  <cluster>  (14) 
5

$$$$
BLHILRPTNSSYME-YFHWJHCCNA-N
     RDKit          3D

 57 61  0  0  0  0  0  0  0  0999 V2000
  135.2800   72.5730  221.9720 H   0  0  0  0  0  0  0  0  0  0  0  0
  135.4220   73.6050  221.9990 N   0  0  0  0  0  0  0  0  0  0  0  0
  136.5770   74.1940  222.1180 C   0  0  0  0  0  0  0  0  0  0  0  0
  137.7770   73.4610  221.9490 C   0  0  0  0  0  0  0  0  0  0  0  0
  137.8050   72.0010  221.7320 C   0  0  0  0  0  0  0  0  0  0  0  0
  138.7880   71.3020  222.2240 N   0  0  0  0  0  0  0  0  0  0  0  0
  138.6650   70.1720  223.1470 C   0  0  2  0  0  0  0  0  0  0  0  0
  137.6101   70.0563  223.4364 H   0  0  0  0  0  0  0  0  0  0  0  0
  139.4650   70.4170  224.4100 C   0  0  0  0  0  0  0  0  0  0  0  0
  140.3290   71.5240  224.4930 C   0  0  0  0  0  0  0  0  0  0  0  0
  140.4364   72.2006  223.6324 H   0  0  0  0  0  0  0  0  0  0  0  0
  141.0520   71.7680  225.6650 C   0  0  0  0  0  0  0  0  0  0  0  0
  141.7317   72.6311  225.7201 H   0  0  0  0  0  0  0  0  0  0  0  0
  140.9140   70.9200  226.7650 C   0  0  0  0  0  0  0  0  0  0  0  0
  141.4837   71.1159  227.6854 H   0  0  0  0  0  0  0  0  0  0  0  0
  140.0520   69.8220  226.6970 C   0  0  0  0  0  0  0  0  0  0  0  0
  139.9428   69.1543  227.5643 H   0  0  0  0  0  0  0  0  0  0  0  0
  139.3290   69.5720  225.5280 C   0  0  0  0  0  0  0  0  0  0  0  0
  138.6487   68.7089  225.4807 H   0  0  0  0  0  0  0  0  0  0  0  0
  139.1460   68.8990  222.4470 C   0  0  0  0  0  0  0  0  0  0  0  0
  139.4289   68.1502  223.2015 H   0  0  0  0  0  0  0  0  0  0  0  0
  138.3372   68.4984  221.8182 H   0  0  0  0  0  0  0  0  0  0  0  0
  140.0176   69.1333  221.8182 H   0  0  0  0  0  0  0  0  0  0  0  0
  136.8090   71.4250  220.9410 O   0  0  0  0  0  0  0  0  0  0  0  0
  135.9630   71.9080  220.6670 H   0  0  0  0  0  0  0  0  0  0  0  0
  138.9980   74.1300  222.0070 C   0  0  0  0  0  0  0  0  0  0  0  0
  139.9332   73.5748  221.8419 H   0  0  0  0  0  0  0  0  0  0  0  0
  139.0430   75.4990  222.2730 C   0  0  0  0  0  0  0  0  0  0  0  0
  140.2620   76.1990  222.3690 C   0  0  0  0  0  0  0  0  0  0  0  0
  141.3520   75.5800  222.2000 O   0  0  0  0  0  0  0  0  0  0  0  0
  140.2650   77.5440  222.6450 N   0  0  0  0  0  0  0  0  0  0  0  0
  141.4470   78.2380  222.7460 C   0  0  0  0  0  0  0  0  0  0  0  0
  142.4014   77.7104  222.6018 H   0  0  0  0  0  0  0  0  0  0  0  0
  141.4500   79.6070  223.0300 C   0  0  0  0  0  0  0  0  0  0  0  0
  142.9680   80.4770  223.1620 Cl  0  0  0  0  0  0  0  0  0  0  0  0
  140.2410   80.2750  223.2080 C   0  0  0  0  0  0  0  0  0  0  0  0
  140.2325   81.3524  223.4297 H   0  0  0  0  0  0  0  0  0  0  0  0
  139.0430   79.5730  223.1040 C   0  0  0  0  0  0  0  0  0  0  0  0
  138.0832   80.0926  223.2410 H   0  0  0  0  0  0  0  0  0  0  0  0
  139.0680   78.2020  222.8240 C   0  0  0  0  0  0  0  0  0  0  0  0
  137.8960   77.5280  222.7320 N   0  0  0  0  0  0  0  0  0  0  0  0
  137.8390   76.1980  222.4630 C   0  0  0  0  0  0  0  0  0  0  0  0
  136.6270   75.5490  222.3790 N   0  0  0  0  0  0  0  0  0  0  0  0
  135.3720   76.3250  222.5210 C   0  0  0  0  0  0  0  0  0  0  0  0
  135.5540   77.3653  222.2135 H   0  0  0  0  0  0  0  0  0  0  0  0
  134.5999   75.8683  221.8844 H   0  0  0  0  0  0  0  0  0  0  0  0
  134.8940   76.3080  223.9500 C   0  0  0  0  0  0  0  0  0  0  0  0
  134.0500   77.3240  224.4310 C   0  0  0  0  0  0  0  0  0  0  0  0
  133.7593   78.1531  223.7691 H   0  0  0  0  0  0  0  0  0  0  0  0
  133.5780   77.2860  225.7470 C   0  0  0  0  0  0  0  0  0  0  0  0
  132.9171   78.0837  226.1170 H   0  0  0  0  0  0  0  0  0  0  0  0
  133.9450   76.2360  226.5920 C   0  0  0  0  0  0  0  0  0  0  0  0
  133.5719   76.2071  227.6264 H   0  0  0  0  0  0  0  0  0  0  0  0
  134.7850   75.2230  226.1250 C   0  0  0  0  0  0  0  0  0  0  0  0
  135.0747   74.3978  226.7922 H   0  0  0  0  0  0  0  0  0  0  0  0
  135.2580   75.2570  224.8100 C   0  0  0  0  0  0  0  0  0  0  0  0
  135.9190   74.4567  224.4459 H   0  0  0  0  0  0  0  0  0  0  0  0
  1  2  1  0
  2  3  2  0
  3  4  1  0
  4  5  1  0
  5  6  2  0
  6  7  1  0
  7  8  1  1
  7  9  1  0
  9 10  2  0
 10 11  1  0
 10 12  1  0
 12 13  1  0
 12 14  2  0
 14 15  1  0
 14 16  1  0
 16 17  1  0
 16 18  2  0
 18 19  1  0
  7 20  1  0
 20 21  1  0
 20 22  1  0
 20 23  1  0
  5 24  1  0
 24 25  1  0
  4 26  2  0
 26 27  1  0
 26 28  1  0
 28 29  1  0
 29 30  2  0
 29 31  1  0
 31 32  1  0
 32 33  1  0
 32 34  2  0
 34 35  1  0
 34 36  1  0
 36 37  1  0
 36 38  2  0
 38 39  1  0
 38 40  1  0
 40 41  2  0
 41 42  1  0
 42 43  1  0
 43 44  1  0
 44 45  1  0
 44 46  1  0
 44 47  1  0
 47 48  2  0
 48 49  1  0
 48 50  1  0
 50 51  1  0
 50 52  2  0
 52 53  1  0
 52 54  1  0
 54 55  1  0
 54 56  2  0
 56 57  1  0
 43  3  1  0
 56 47  1  0
 18  9  1  0
 42 28  2  0
 40 31  1  0
M  END
>  <UniqueID>  (15) 
100

>  <SMILES>  (15) 
[H]/N=c1\c(/C(O)=N/[C@@H](C)c2ccccc2)cc2c(=O)n3cc(Cl)ccc3nc2n1Cc1ccccc1

>  <Energy>  (15) 
83.48587377213799

>  <Genealogy>  (15) 
C[C@H](N=C(O)c1cc2c(=O)n3cc(Cl)ccc3nc2n(Cc2ccccc2)c1=N)c1ccccc1 (tautomer)
[H]/N=c1\c(/C(O)=N/[C@@H](C)c2ccccc2)cc2c(=O)n3cc(Cl)ccc3nc2n1Cc1ccccc1 (cis-trans isomerization)
[H]/N=c1\c(/C(O)=N/[C@@H](C)c2ccccc2)cc2c(=O)n3cc(Cl)ccc3nc2n1Cc1ccccc1 (3D coordinates assigned)
[H]/N=c1\c(/C(O)=N/[C@@H](C)c2ccccc2)cc2c(=O)n3cc(Cl)ccc3nc2n1Cc1ccccc1 (optimized conformer: 83.48587377213799 kcal/mol)

>  <smiles>  (15) 
C[C@H](NC(=O)c1cc2c(=O)n3cc(Cl)ccc3nc2n(Cc2ccccc2)c1=N)c1ccccc1

>  <score_type>  (15) 
oracle

>  <origin>  (15) 
autodockgpu

>  <m_score__min__energy>  (15) 
-8.7100000000000009

>  <m_primary>  (15) 
energy

>  <meeko>  (15) 
{"free_energy": -7.7, "intermolecular_energy": -10.08, "internal_energy": -2.23, "cluster_size": 1, "cluster_id": 4, "rank_in_cluster": 1}

>  <energy>  (15) 
-7.61

>  <cluster_rmsd>  (15) 
0.12

>  <rmsd>  (15) 
269.59

>  <cluster>  (15) 
5

$$$$
BLHILRPTNSSYME-YFHWJHCCNA-N
     RDKit          3D

 57 61  0  0  0  0  0  0  0  0999 V2000
  137.6580   74.3280  222.7100 H   0  0  0  0  0  0  0  0  0  0  0  0
  137.1920   75.1680  222.3020 N   0  0  0  0  0  0  0  0  0  0  0  0
  137.4050   76.3950  222.6810 C   0  0  0  0  0  0  0  0  0  0  0  0
  138.7220   76.9140  222.7210 C   0  0  0  0  0  0  0  0  0  0  0  0
  139.9190   76.0980  222.4420 C   0  0  0  0  0  0  0  0  0  0  0  0
  141.0700   76.6870  222.2860 N   0  0  0  0  0  0  0  0  0  0  0  0
  141.4190   77.6340  221.2240 C   0  0  2  0  0  0  0  0  0  0  0  0
  142.3641   77.3197  220.7571 H   0  0  0  0  0  0  0  0  0  0  0  0
  141.6240   79.0260  221.7880 C   0  0  0  0  0  0  0  0  0  0  0  0
  141.2180   80.1510  221.0490 C   0  0  0  0  0  0  0  0  0  0  0  0
  140.7684   80.0190  220.0538 H   0  0  0  0  0  0  0  0  0  0  0  0
  141.3830   81.4370  221.5730 C   0  0  0  0  0  0  0  0  0  0  0  0
  141.0704   82.3130  220.9857 H   0  0  0  0  0  0  0  0  0  0  0  0
  141.9440   81.6120  222.8410 C   0  0  0  0  0  0  0  0  0  0  0  0
  142.0721   82.6246  223.2513 H   0  0  0  0  0  0  0  0  0  0  0  0
  142.3420   80.5000  223.5870 C   0  0  0  0  0  0  0  0  0  0  0  0
  142.7819   80.6375  224.5858 H   0  0  0  0  0  0  0  0  0  0  0  0
  142.1820   79.2130  223.0660 C   0  0  0  0  0  0  0  0  0  0  0  0
  142.4944   78.3407  223.6589 H   0  0  0  0  0  0  0  0  0  0  0  0
  140.3080   77.6400  220.1730 C   0  0  0  0  0  0  0  0  0  0  0  0
  139.3289   77.6453  220.6744 H   0  0  0  0  0  0  0  0  0  0  0  0
  140.4028   78.5376  219.5443 H   0  0  0  0  0  0  0  0  0  0  0  0
  140.3931   76.7414  219.5443 H   0  0  0  0  0  0  0  0  0  0  0  0
  139.7640   74.7190  222.2820 O   0  0  0  0  0  0  0  0  0  0  0  0
  139.0650   74.1750  222.7710 H   0  0  0  0  0  0  0  0  0  0  0  0
  138.9160   78.2530  223.0580 C   0  0  0  0  0  0  0  0  0  0  0  0
  139.9320   78.6747  223.0575 H   0  0  0  0  0  0  0  0  0  0  0  0
  137.8300   79.0620  223.3960 C   0  0  0  0  0  0  0  0  0  0  0  0
  137.9950   80.4110  223.7710 C   0  0  0  0  0  0  0  0  0  0  0  0
  139.1540   80.9140  223.7950 O   0  0  0  0  0  0  0  0  0  0  0  0
  136.9020   81.1700  224.1090 N   0  0  0  0  0  0  0  0  0  0  0  0
  137.0500   82.4850  224.4810 C   0  0  0  0  0  0  0  0  0  0  0  0
  138.0539   82.9340  224.5061 H   0  0  0  0  0  0  0  0  0  0  0  0
  135.9370   83.2580  224.8280 C   0  0  0  0  0  0  0  0  0  0  0  0
  136.1430   84.9340  225.3070 Cl  0  0  0  0  0  0  0  0  0  0  0  0
  134.6660   82.6900  224.7920 C   0  0  0  0  0  0  0  0  0  0  0  0
  133.7844   83.2901  225.0617 H   0  0  0  0  0  0  0  0  0  0  0  0
  134.5170   81.3590  224.4130 C   0  0  0  0  0  0  0  0  0  0  0  0
  133.5168   80.9025  224.3787 H   0  0  0  0  0  0  0  0  0  0  0  0
  135.6460   80.6050  224.0760 C   0  0  0  0  0  0  0  0  0  0  0  0
  135.4880   79.3080  223.7150 N   0  0  0  0  0  0  0  0  0  0  0  0
  136.5370   78.5140  223.3730 C   0  0  0  0  0  0  0  0  0  0  0  0
  136.3340   77.2000  223.0140 N   0  0  0  0  0  0  0  0  0  0  0  0
  134.9520   76.6680  222.9390 C   0  0  0  0  0  0  0  0  0  0  0  0
  134.3201   77.3808  222.3888 H   0  0  0  0  0  0  0  0  0  0  0  0
  134.9741   75.6982  222.4204 H   0  0  0  0  0  0  0  0  0  0  0  0
  134.3830   76.4660  224.3200 C   0  0  0  0  0  0  0  0  0  0  0  0
  134.8690   75.4400  225.1480 C   0  0  0  0  0  0  0  0  0  0  0  0
  135.6502   74.7607  224.7761 H   0  0  0  0  0  0  0  0  0  0  0  0
  134.3650   75.2780  226.4420 C   0  0  0  0  0  0  0  0  0  0  0  0
  134.7504   74.4730  227.0850 H   0  0  0  0  0  0  0  0  0  0  0  0
  133.3730   76.1370  226.9190 C   0  0  0  0  0  0  0  0  0  0  0  0
  132.9793   76.0093  227.9382 H   0  0  0  0  0  0  0  0  0  0  0  0
  132.8800   77.1580  226.1040 C   0  0  0  0  0  0  0  0  0  0  0  0
  132.0959   77.8317  226.4800 H   0  0  0  0  0  0  0  0  0  0  0  0
  133.3830   77.3240  224.8100 C   0  0  0  0  0  0  0  0  0  0  0  0
  132.9939   78.1308  224.1715 H   0  0  0  0  0  0  0  0  0  0  0  0
  1  2  1  0
  2  3  2  0
  3  4  1  0
  4  5  1  0
  5  6  2  0
  6  7  1  0
  7  8  1  6
  7  9  1  0
  9 10  2  0
 10 11  1  0
 10 12  1  0
 12 13  1  0
 12 14  2  0
 14 15  1  0
 14 16  1  0
 16 17  1  0
 16 18  2  0
 18 19  1  0
  7 20  1  0
 20 21  1  0
 20 22  1  0
 20 23  1  0
  5 24  1  0
 24 25  1  0
  4 26  2  0
 26 27  1  0
 26 28  1  0
 28 29  1  0
 29 30  2  0
 29 31  1  0
 31 32  1  0
 32 33  1  0
 32 34  2  0
 34 35  1  0
 34 36  1  0
 36 37  1  0
 36 38  2  0
 38 39  1  0
 38 40  1  0
 40 41  2  0
 41 42  1  0
 42 43  1  0
 43 44  1  0
 44 45  1  0
 44 46  1  0
 44 47  1  0
 47 48  2  0
 48 49  1  0
 48 50  1  0
 50 51  1  0
 50 52  2  0
 52 53  1  0
 52 54  1  0
 54 55  1  0
 54 56  2  0
 56 57  1  0
 43  3  1  0
 56 47  1  0
 18  9  1  0
 42 28  2  0
 40 31  1  0
M  END
>  <UniqueID>  (16) 
100

>  <SMILES>  (16) 
[H]/N=c1\c(/C(O)=N/[C@@H](C)c2ccccc2)cc2c(=O)n3cc(Cl)ccc3nc2n1Cc1ccccc1

>  <Energy>  (16) 
83.48587377213799

>  <Genealogy>  (16) 
C[C@H](N=C(O)c1cc2c(=O)n3cc(Cl)ccc3nc2n(Cc2ccccc2)c1=N)c1ccccc1 (tautomer)
[H]/N=c1\c(/C(O)=N/[C@@H](C)c2ccccc2)cc2c(=O)n3cc(Cl)ccc3nc2n1Cc1ccccc1 (cis-trans isomerization)
[H]/N=c1\c(/C(O)=N/[C@@H](C)c2ccccc2)cc2c(=O)n3cc(Cl)ccc3nc2n1Cc1ccccc1 (3D coordinates assigned)
[H]/N=c1\c(/C(O)=N/[C@@H](C)c2ccccc2)cc2c(=O)n3cc(Cl)ccc3nc2n1Cc1ccccc1 (optimized conformer: 83.48587377213799 kcal/mol)

>  <smiles>  (16) 
C[C@H](NC(=O)c1cc2c(=O)n3cc(Cl)ccc3nc2n(Cc2ccccc2)c1=N)c1ccccc1

>  <score_type>  (16) 
oracle

>  <origin>  (16) 
autodockgpu

>  <m_score__min__energy>  (16) 
-8.7100000000000009

>  <m_primary>  (16) 
energy

>  <meeko>  (16) 
{"free_energy": -7.53, "intermolecular_energy": -9.91, "internal_energy": -2.61, "cluster_size": 10, "cluster_id": 5, "rank_in_cluster": 10}

>  <energy>  (16) 
-7.6

>  <cluster_rmsd>  (16) 
0.13

>  <rmsd>  (16) 
269.56

>  <cluster>  (16) 
5

$$$$
BLHILRPTNSSYME-YFHWJHCCNA-N
     RDKit          3D

 57 61  0  0  0  0  0  0  0  0999 V2000
  136.7900   68.7300  225.5620 H   0  0  0  0  0  0  0  0  0  0  0  0
  137.6150   69.1080  225.0480 N   0  0  0  0  0  0  0  0  0  0  0  0
  137.5980   70.1630  224.2870 C   0  0  0  0  0  0  0  0  0  0  0  0
  136.3670   70.7420  223.8920 C   0  0  0  0  0  0  0  0  0  0  0  0
  135.0560   70.1520  224.2220 C   0  0  0  0  0  0  0  0  0  0  0  0
  134.0320   70.9350  224.4100 N   0  0  0  0  0  0  0  0  0  0  0  0
  133.4540   71.3030  225.7040 C   0  0  2  0  0  0  0  0  0  0  0  0
  132.3830   71.0522  225.7034 H   0  0  0  0  0  0  0  0  0  0  0  0
  133.5800   72.7940  225.9470 C   0  0  0  0  0  0  0  0  0  0  0  0
  132.7040   73.4380  226.8390 C   0  0  0  0  0  0  0  0  0  0  0  0
  131.9170   72.8607  227.3462 H   0  0  0  0  0  0  0  0  0  0  0  0
  132.8290   74.8090  227.0840 C   0  0  0  0  0  0  0  0  0  0  0  0
  132.1349   75.3079  227.7763 H   0  0  0  0  0  0  0  0  0  0  0  0
  133.8330   75.5470  226.4520 C   0  0  0  0  0  0  0  0  0  0  0  0
  133.9295   76.6250  226.6483 H   0  0  0  0  0  0  0  0  0  0  0  0
  134.7140   74.9160  225.5710 C   0  0  0  0  0  0  0  0  0  0  0  0
  135.5053   75.4971  225.0749 H   0  0  0  0  0  0  0  0  0  0  0  0
  134.5910   73.5460  225.3190 C   0  0  0  0  0  0  0  0  0  0  0  0
  135.2884   73.0529  224.6259 H   0  0  0  0  0  0  0  0  0  0  0  0
  134.1610   70.5200  226.8110 C   0  0  0  0  0  0  0  0  0  0  0  0
  133.8274   70.8895  227.7919 H   0  0  0  0  0  0  0  0  0  0  0  0
  133.9155   69.4517  226.7187 H   0  0  0  0  0  0  0  0  0  0  0  0
  135.2487   70.6555  226.7187 H   0  0  0  0  0  0  0  0  0  0  0  0
  134.9720   68.7680  224.3920 O   0  0  0  0  0  0  0  0  0  0  0  0
  135.7750   68.1520  224.3720 H   0  0  0  0  0  0  0  0  0  0  0  0
  136.3770   71.9150  223.1400 C   0  0  0  0  0  0  0  0  0  0  0  0
  135.4260   72.3917  222.8601 H   0  0  0  0  0  0  0  0  0  0  0  0
  137.5840   72.4900  222.7390 C   0  0  0  0  0  0  0  0  0  0  0  0
  137.6290   73.6580  221.9520 C   0  0  0  0  0  0  0  0  0  0  0  0
  136.5490   74.2140  221.6020 O   0  0  0  0  0  0  0  0  0  0  0  0
  138.8370   74.1850  221.5690 N   0  0  0  0  0  0  0  0  0  0  0  0
  138.8940   75.3210  220.7960 C   0  0  0  0  0  0  0  0  0  0  0  0
  137.9615   75.8139  220.4837 H   0  0  0  0  0  0  0  0  0  0  0  0
  140.1240   75.8560  220.4030 C   0  0  0  0  0  0  0  0  0  0  0  0
  140.1800   77.3030  219.4130 Cl  0  0  0  0  0  0  0  0  0  0  0  0
  141.3040   75.2330  220.8020 C   0  0  0  0  0  0  0  0  0  0  0  0
  142.2770   75.6468  220.4986 H   0  0  0  0  0  0  0  0  0  0  0  0
  141.2470   74.0850  221.5860 C   0  0  0  0  0  0  0  0  0  0  0  0
  142.1742   73.5891  221.9091 H   0  0  0  0  0  0  0  0  0  0  0  0
  140.0030   73.5650  221.9610 C   0  0  0  0  0  0  0  0  0  0  0  0
  139.9600   72.4420  222.7180 N   0  0  0  0  0  0  0  0  0  0  0  0
  138.7900   71.8800  223.1230 C   0  0  0  0  0  0  0  0  0  0  0  0
  138.7900   70.7370  223.8910 N   0  0  0  0  0  0  0  0  0  0  0  0
  140.0790   70.1520  224.3320 C   0  0  0  0  0  0  0  0  0  0  0  0
  139.9996   69.0549  224.3232 H   0  0  0  0  0  0  0  0  0  0  0  0
  140.8714   70.4825  223.6443 H   0  0  0  0  0  0  0  0  0  0  0  0
  140.4230   70.6120  225.7250 C   0  0  0  0  0  0  0  0  0  0  0  0
  141.0950   71.8300  225.9280 C   0  0  0  0  0  0  0  0  0  0  0  0
  141.3981   72.4384  225.0631 H   0  0  0  0  0  0  0  0  0  0  0  0
  141.3800   72.2720  227.2230 C   0  0  0  0  0  0  0  0  0  0  0  0
  141.9044   73.2270  227.3744 H   0  0  0  0  0  0  0  0  0  0  0  0
  141.0000   71.5030  228.3250 C   0  0  0  0  0  0  0  0  0  0  0  0
  141.2247   71.8531  229.3433 H   0  0  0  0  0  0  0  0  0  0  0  0
  140.3350   70.2900  228.1350 C   0  0  0  0  0  0  0  0  0  0  0  0
  140.0378   69.6839  229.0035 H   0  0  0  0  0  0  0  0  0  0  0  0
  140.0470   69.8460  226.8420 C   0  0  0  0  0  0  0  0  0  0  0  0
  139.5222   68.8902  226.6971 H   0  0  0  0  0  0  0  0  0  0  0  0
  1  2  1  0
  2  3  2  0
  3  4  1  0
  4  5  1  0
  5  6  2  0
  6  7  1  0
  7  8  1  6
  7  9  1  0
  9 10  2  0
 10 11  1  0
 10 12  1  0
 12 13  1  0
 12 14  2  0
 14 15  1  0
 14 16  1  0
 16 17  1  0
 16 18  2  0
 18 19  1  0
  7 20  1  0
 20 21  1  0
 20 22  1  0
 20 23  1  0
  5 24  1  0
 24 25  1  0
  4 26  2  0
 26 27  1  0
 26 28  1  0
 28 29  1  0
 29 30  2  0
 29 31  1  0
 31 32  1  0
 32 33  1  0
 32 34  2  0
 34 35  1  0
 34 36  1  0
 36 37  1  0
 36 38  2  0
 38 39  1  0
 38 40  1  0
 40 41  2  0
 41 42  1  0
 42 43  1  0
 43 44  1  0
 44 45  1  0
 44 46  1  0
 44 47  1  0
 47 48  2  0
 48 49  1  0
 48 50  1  0
 50 51  1  0
 50 52  2  0
 52 53  1  0
 52 54  1  0
 54 55  1  0
 54 56  2  0
 56 57  1  0
 43  3  1  0
 56 47  1  0
 18  9  1  0
 42 28  2  0
 40 31  1  0
M  END
>  <UniqueID>  (17) 
100

>  <SMILES>  (17) 
[H]/N=c1\c(/C(O)=N/[C@@H](C)c2ccccc2)cc2c(=O)n3cc(Cl)ccc3nc2n1Cc1ccccc1

>  <Energy>  (17) 
83.48587377213799

>  <Genealogy>  (17) 
C[C@H](N=C(O)c1cc2c(=O)n3cc(Cl)ccc3nc2n(Cc2ccccc2)c1=N)c1ccccc1 (tautomer)
[H]/N=c1\c(/C(O)=N/[C@@H](C)c2ccccc2)cc2c(=O)n3cc(Cl)ccc3nc2n1Cc1ccccc1 (cis-trans isomerization)
[H]/N=c1\c(/C(O)=N/[C@@H](C)c2ccccc2)cc2c(=O)n3cc(Cl)ccc3nc2n1Cc1ccccc1 (3D coordinates assigned)
[H]/N=c1\c(/C(O)=N/[C@@H](C)c2ccccc2)cc2c(=O)n3cc(Cl)ccc3nc2n1Cc1ccccc1 (optimized conformer: 83.48587377213799 kcal/mol)

>  <smiles>  (17) 
C[C@H](NC(=O)c1cc2c(=O)n3cc(Cl)ccc3nc2n(Cc2ccccc2)c1=N)c1ccccc1

>  <score_type>  (17) 
oracle

>  <origin>  (17) 
autodockgpu

>  <m_score__min__energy>  (17) 
-8.7100000000000009

>  <m_primary>  (17) 
energy

>  <meeko>  (17) 
{"free_energy": -7.73, "intermolecular_energy": -10.12, "internal_energy": -2.54, "cluster_size": 5, "cluster_id": 2, "rank_in_cluster": 5}

>  <energy>  (17) 
-7.57

>  <cluster_rmsd>  (17) 
0.21

>  <rmsd>  (17) 
269.59

>  <cluster>  (17) 
5

$$$$
BLHILRPTNSSYME-YFHWJHCCNA-N
     RDKit          3D

 57 61  0  0  0  0  0  0  0  0999 V2000
  143.5650   78.1790  216.9040 H   0  0  0  0  0  0  0  0  0  0  0  0
  143.6420   77.2700  217.4100 N   0  0  0  0  0  0  0  0  0  0  0  0
  142.7900   76.8370  218.2940 C   0  0  0  0  0  0  0  0  0  0  0  0
  141.8550   77.7220  218.8830 C   0  0  0  0  0  0  0  0  0  0  0  0
  141.8440   79.1740  218.6220 C   0  0  0  0  0  0  0  0  0  0  0  0
  141.0180   79.9350  219.2810 N   0  0  0  0  0  0  0  0  0  0  0  0
  141.3820   80.9260  220.2960 C   0  0  2  0  0  0  0  0  0  0  0  0
  142.3437   81.3848  220.0226 H   0  0  0  0  0  0  0  0  0  0  0  0
  141.5520   80.2720  221.6530 C   0  0  0  0  0  0  0  0  0  0  0  0
  142.5900   80.6840  222.5080 C   0  0  0  0  0  0  0  0  0  0  0  0
  143.2887   81.4687  222.1822 H   0  0  0  0  0  0  0  0  0  0  0  0
  142.7380   80.1010  223.7700 C   0  0  0  0  0  0  0  0  0  0  0  0
  143.5569   80.4228  224.4302 H   0  0  0  0  0  0  0  0  0  0  0  0
  141.8490   79.1110  224.1950 C   0  0  0  0  0  0  0  0  0  0  0  0
  141.9679   78.6548  225.1889 H   0  0  0  0  0  0  0  0  0  0  0  0
  140.8080   78.7000  223.3570 C   0  0  0  0  0  0  0  0  0  0  0  0
  140.1068   77.9216  223.6924 H   0  0  0  0  0  0  0  0  0  0  0  0
  140.6580   79.2780  222.0930 C   0  0  0  0  0  0  0  0  0  0  0  0
  139.8359   78.9538  221.4380 H   0  0  0  0  0  0  0  0  0  0  0  0
  140.2990   82.0050  220.3540 C   0  0  0  0  0  0  0  0  0  0  0  0
  140.0673   82.2358  221.4043 H   0  0  0  0  0  0  0  0  0  0  0  0
  140.6594   82.9137  219.8497 H   0  0  0  0  0  0  0  0  0  0  0  0
  139.3916   81.6412  219.8497 H   0  0  0  0  0  0  0  0  0  0  0  0
  142.6760   79.6770  217.6180 O   0  0  0  0  0  0  0  0  0  0  0  0
  143.6540   79.4320  217.5270 H   0  0  0  0  0  0  0  0  0  0  0  0
  140.9050   77.2180  219.7690 C   0  0  0  0  0  0  0  0  0  0  0  0
  140.1524   77.8922  220.2039 H   0  0  0  0  0  0  0  0  0  0  0  0
  140.9010   75.8640  220.1090 C   0  0  0  0  0  0  0  0  0  0  0  0
  139.9740   75.3280  221.0250 C   0  0  0  0  0  0  0  0  0  0  0  0
  139.1100   76.0860  221.5520 O   0  0  0  0  0  0  0  0  0  0  0  0
  140.0120   73.9930  221.3420 N   0  0  0  0  0  0  0  0  0  0  0  0
  139.1160   73.4590  222.2380 C   0  0  0  0  0  0  0  0  0  0  0  0
  138.3596   74.1081  222.7033 H   0  0  0  0  0  0  0  0  0  0  0  0
  139.1560   72.1000  222.5640 C   0  0  0  0  0  0  0  0  0  0  0  0
  138.0100   71.4350  223.7140 Cl  0  0  0  0  0  0  0  0  0  0  0  0
  140.1110   71.2780  221.9700 C   0  0  0  0  0  0  0  0  0  0  0  0
  140.1492   70.2070  222.2180 H   0  0  0  0  0  0  0  0  0  0  0  0
  141.0170   71.8180  221.0610 C   0  0  0  0  0  0  0  0  0  0  0  0
  141.7731   71.1763  220.5851 H   0  0  0  0  0  0  0  0  0  0  0  0
  140.9590   73.1830  220.7570 C   0  0  0  0  0  0  0  0  0  0  0  0
  141.8510   73.6980  219.8760 N   0  0  0  0  0  0  0  0  0  0  0  0
  141.8560   75.0130  219.5300 C   0  0  0  0  0  0  0  0  0  0  0  0
  142.7810   75.4980  218.6310 N   0  0  0  0  0  0  0  0  0  0  0  0
  143.7360   74.5630  217.9890 C   0  0  0  0  0  0  0  0  0  0  0  0
  143.1737   73.7896  217.4452 H   0  0  0  0  0  0  0  0  0  0  0  0
  144.3738   75.1304  217.2952 H   0  0  0  0  0  0  0  0  0  0  0  0
  144.6120   73.9030  219.0220 C   0  0  0  0  0  0  0  0  0  0  0  0
  144.8560   74.5310  220.2560 C   0  0  0  0  0  0  0  0  0  0  0  0
  144.4290   75.5244  220.4582 H   0  0  0  0  0  0  0  0  0  0  0  0
  145.6380   73.9000  221.2270 C   0  0  0  0  0  0  0  0  0  0  0  0
  145.8230   74.3963  222.1911 H   0  0  0  0  0  0  0  0  0  0  0  0
  146.1850   72.6400  220.9750 C   0  0  0  0  0  0  0  0  0  0  0  0
  146.8001   72.1449  221.7409 H   0  0  0  0  0  0  0  0  0  0  0  0
  145.9520   72.0080  219.7520 C   0  0  0  0  0  0  0  0  0  0  0  0
  146.3849   71.0163  219.5543 H   0  0  0  0  0  0  0  0  0  0  0  0
  145.1690   72.6350  218.7790 C   0  0  0  0  0  0  0  0  0  0  0  0
  144.9873   72.1334  217.8170 H   0  0  0  0  0  0  0  0  0  0  0  0
  1  2  1  0
  2  3  2  0
  3  4  1  0
  4  5  1  0
  5  6  2  0
  6  7  1  0
  7  8  1  6
  7  9  1  0
  9 10  2  0
 10 11  1  0
 10 12  1  0
 12 13  1  0
 12 14  2  0
 14 15  1  0
 14 16  1  0
 16 17  1  0
 16 18  2  0
 18 19  1  0
  7 20  1  0
 20 21  1  0
 20 22  1  0
 20 23  1  0
  5 24  1  0
 24 25  1  0
  4 26  2  0
 26 27  1  0
 26 28  1  0
 28 29  1  0
 29 30  2  0
 29 31  1  0
 31 32  1  0
 32 33  1  0
 32 34  2  0
 34 35  1  0
 34 36  1  0
 36 37  1  0
 36 38  2  0
 38 39  1  0
 38 40  1  0
 40 41  2  0
 41 42  1  0
 42 43  1  0
 43 44  1  0
 44 45  1  0
 44 46  1  0
 44 47  1  0
 47 48  2  0
 48 49  1  0
 48 50  1  0
 50 51  1  0
 50 52  2  0
 52 53  1  0
 52 54  1  0
 54 55  1  0
 54 56  2  0
 56 57  1  0
 43  3  1  0
 56 47  1  0
 18  9  1  0
 42 28  2  0
 40 31  1  0
M  END
>  <UniqueID>  (18) 
100

>  <SMILES>  (18) 
[H]/N=c1\c(/C(O)=N/[C@@H](C)c2ccccc2)cc2c(=O)n3cc(Cl)ccc3nc2n1Cc1ccccc1

>  <Energy>  (18) 
83.48587377213799

>  <Genealogy>  (18) 
C[C@H](N=C(O)c1cc2c(=O)n3cc(Cl)ccc3nc2n(Cc2ccccc2)c1=N)c1ccccc1 (tautomer)
[H]/N=c1\c(/C(O)=N/[C@@H](C)c2ccccc2)cc2c(=O)n3cc(Cl)ccc3nc2n1Cc1ccccc1 (cis-trans isomerization)
[H]/N=c1\c(/C(O)=N/[C@@H](C)c2ccccc2)cc2c(=O)n3cc(Cl)ccc3nc2n1Cc1ccccc1 (3D coordinates assigned)
[H]/N=c1\c(/C(O)=N/[C@@H](C)c2ccccc2)cc2c(=O)n3cc(Cl)ccc3nc2n1Cc1ccccc1 (optimized conformer: 83.48587377213799 kcal/mol)

>  <smiles>  (18) 
C[C@H](NC(=O)c1cc2c(=O)n3cc(Cl)ccc3nc2n(Cc2ccccc2)c1=N)c1ccccc1

>  <score_type>  (18) 
oracle

>  <origin>  (18) 
autodockgpu

>  <m_score__min__energy>  (18) 
-8.7100000000000009

>  <m_primary>  (18) 
energy

>  <meeko>  (18) 
{"free_energy": -7.48, "intermolecular_energy": -9.87, "internal_energy": -2.52, "cluster_size": 1, "cluster_id": 6, "rank_in_cluster": 1}

>  <energy>  (18) 
-7.57

>  <cluster_rmsd>  (18) 
0.13

>  <rmsd>  (18) 
269.56

>  <cluster>  (18) 
5

$$$$
BLHILRPTNSSYME-YFHWJHCCNA-N
     RDKit          3D

 57 61  0  0  0  0  0  0  0  0999 V2000
  140.2820   69.7470  221.7670 H   0  0  0  0  0  0  0  0  0  0  0  0
  140.7540   70.4460  221.1540 N   0  0  0  0  0  0  0  0  0  0  0  0
  140.6090   71.7370  221.2490 C   0  0  0  0  0  0  0  0  0  0  0  0
  139.7300   72.2900  222.2110 C   0  0  0  0  0  0  0  0  0  0  0  0
  138.8650   71.4690  223.0810 C   0  0  0  0  0  0  0  0  0  0  0  0
  139.3310   70.3600  223.5790 N   0  0  0  0  0  0  0  0  0  0  0  0
  138.9690   69.7760  224.8720 C   0  0  2  0  0  0  0  0  0  0  0  0
  137.9071   69.9799  225.0741 H   0  0  0  0  0  0  0  0  0  0  0  0
  139.7800   70.3980  225.9910 C   0  0  0  0  0  0  0  0  0  0  0  0
  140.6510   71.4690  225.7190 C   0  0  0  0  0  0  0  0  0  0  0  0
  140.7556   71.8415  224.6893 H   0  0  0  0  0  0  0  0  0  0  0  0
  141.3840   72.0620  226.7510 C   0  0  0  0  0  0  0  0  0  0  0  0
  142.0697   72.8931  226.5294 H   0  0  0  0  0  0  0  0  0  0  0  0
  141.2480   71.6020  228.0630 C   0  0  0  0  0  0  0  0  0  0  0  0
  141.8252   72.0721  228.8729 H   0  0  0  0  0  0  0  0  0  0  0  0
  140.3800   70.5460  228.3470 C   0  0  0  0  0  0  0  0  0  0  0  0
  140.2728   70.1851  229.3806 H   0  0  0  0  0  0  0  0  0  0  0  0
  139.6470   69.9470  227.3180 C   0  0  0  0  0  0  0  0  0  0  0  0
  138.9617   69.1176  227.5469 H   0  0  0  0  0  0  0  0  0  0  0  0
  139.1980   68.2640  224.8220 C   0  0  0  0  0  0  0  0  0  0  0  0
  139.2580   67.8682  225.8466 H   0  0  0  0  0  0  0  0  0  0  0  0
  138.3623   67.7839  224.2918 H   0  0  0  0  0  0  0  0  0  0  0  0
  140.1384   68.0529  224.2918 H   0  0  0  0  0  0  0  0  0  0  0  0
  137.5440   71.8760  223.2830 O   0  0  0  0  0  0  0  0  0  0  0  0
  137.2870   72.6930  223.8220 H   0  0  0  0  0  0  0  0  0  0  0  0
  139.6500   73.6750  222.3430 C   0  0  0  0  0  0  0  0  0  0  0  0
  138.9965   74.1134  223.1116 H   0  0  0  0  0  0  0  0  0  0  0  0
  140.3930   74.5100  221.5070 C   0  0  0  0  0  0  0  0  0  0  0  0
  140.3120   75.9150  221.5940 C   0  0  0  0  0  0  0  0  0  0  0  0
  139.5540   76.4430  222.4570 O   0  0  0  0  0  0  0  0  0  0  0  0
  141.0500   76.7010  220.7440 N   0  0  0  0  0  0  0  0  0  0  0  0
  140.9760   78.0720  220.8150 C   0  0  0  0  0  0  0  0  0  0  0  0
  140.3204   78.5434  221.5620 H   0  0  0  0  0  0  0  0  0  0  0  0
  141.7250   78.8740  219.9480 C   0  0  0  0  0  0  0  0  0  0  0  0
  141.6150   80.6220  220.0480 Cl  0  0  0  0  0  0  0  0  0  0  0  0
  142.5580   78.2750  219.0060 C   0  0  0  0  0  0  0  0  0  0  0  0
  143.1526   78.8963  218.3201 H   0  0  0  0  0  0  0  0  0  0  0  0
  142.6350   76.8870  218.9360 C   0  0  0  0  0  0  0  0  0  0  0  0
  143.2930   76.4056  218.1976 H   0  0  0  0  0  0  0  0  0  0  0  0
  141.8700   76.1080  219.8110 C   0  0  0  0  0  0  0  0  0  0  0  0
  141.9480   74.7570  219.7280 N   0  0  0  0  0  0  0  0  0  0  0  0
  141.2380   73.9350  220.5440 C   0  0  0  0  0  0  0  0  0  0  0  0
  141.3440   72.5660  220.4260 N   0  0  0  0  0  0  0  0  0  0  0  0
  142.2910   71.9890  219.4430 C   0  0  0  0  0  0  0  0  0  0  0  0
  142.2880   70.8932  219.5391 H   0  0  0  0  0  0  0  0  0  0  0  0
  141.9745   72.2845  218.4318 H   0  0  0  0  0  0  0  0  0  0  0  0
  143.6880   72.5030  219.6830 C   0  0  0  0  0  0  0  0  0  0  0  0
  144.2050   72.5770  220.9880 C   0  0  0  0  0  0  0  0  0  0  0  0
  143.5772   72.2857  221.8430 H   0  0  0  0  0  0  0  0  0  0  0  0
  145.5130   73.0190  221.2040 C   0  0  0  0  0  0  0  0  0  0  0  0
  145.9122   73.0731  222.2276 H   0  0  0  0  0  0  0  0  0  0  0  0
  146.3140   73.3920  220.1230 C   0  0  0  0  0  0  0  0  0  0  0  0
  147.3435   73.7389  220.2956 H   0  0  0  0  0  0  0  0  0  0  0  0
  145.8090   73.3250  218.8230 C   0  0  0  0  0  0  0  0  0  0  0  0
  146.4405   73.6204  217.9722 H   0  0  0  0  0  0  0  0  0  0  0  0
  144.5020   72.8830  218.6020 C   0  0  0  0  0  0  0  0  0  0  0  0
  144.1079   72.8322  217.5763 H   0  0  0  0  0  0  0  0  0  0  0  0
  1  2  1  0
  2  3  2  0
  3  4  1  0
  4  5  1  0
  5  6  2  0
  6  7  1  0
  7  8  1  1
  7  9  1  0
  9 10  2  0
 10 11  1  0
 10 12  1  0
 12 13  1  0
 12 14  2  0
 14 15  1  0
 14 16  1  0
 16 17  1  0
 16 18  2  0
 18 19  1  0
  7 20  1  0
 20 21  1  0
 20 22  1  0
 20 23  1  0
  5 24  1  0
 24 25  1  0
  4 26  2  0
 26 27  1  0
 26 28  1  0
 28 29  1  0
 29 30  2  0
 29 31  1  0
 31 32  1  0
 32 33  1  0
 32 34  2  0
 34 35  1  0
 34 36  1  0
 36 37  1  0
 36 38  2  0
 38 39  1  0
 38 40  1  0
 40 41  2  0
 41 42  1  0
 42 43  1  0
 43 44  1  0
 44 45  1  0
 44 46  1  0
 44 47  1  0
 47 48  2  0
 48 49  1  0
 48 50  1  0
 50 51  1  0
 50 52  2  0
 52 53  1  0
 52 54  1  0
 54 55  1  0
 54 56  2  0
 56 57  1  0
 43  3  1  0
 56 47  1  0
 18  9  1  0
 42 28  2  0
 40 31  1  0
M  END
>  <UniqueID>  (19) 
100

>  <SMILES>  (19) 
[H]/N=c1\c(/C(O)=N/[C@@H](C)c2ccccc2)cc2c(=O)n3cc(Cl)ccc3nc2n1Cc1ccccc1

>  <Energy>  (19) 
83.48587377213799

>  <Genealogy>  (19) 
C[C@H](N=C(O)c1cc2c(=O)n3cc(Cl)ccc3nc2n(Cc2ccccc2)c1=N)c1ccccc1 (tautomer)
[H]/N=c1\c(/C(O)=N/[C@@H](C)c2ccccc2)cc2c(=O)n3cc(Cl)ccc3nc2n1Cc1ccccc1 (cis-trans isomerization)
[H]/N=c1\c(/C(O)=N/[C@@H](C)c2ccccc2)cc2c(=O)n3cc(Cl)ccc3nc2n1Cc1ccccc1 (3D coordinates assigned)
[H]/N=c1\c(/C(O)=N/[C@@H](C)c2ccccc2)cc2c(=O)n3cc(Cl)ccc3nc2n1Cc1ccccc1 (optimized conformer: 83.48587377213799 kcal/mol)

>  <smiles>  (19) 
C[C@H](NC(=O)c1cc2c(=O)n3cc(Cl)ccc3nc2n(Cc2ccccc2)c1=N)c1ccccc1

>  <score_type>  (19) 
oracle

>  <origin>  (19) 
autodockgpu

>  <m_score__min__energy>  (19) 
-8.7100000000000009

>  <m_primary>  (19) 
energy

>  <meeko>  (19) 
{"free_energy": -8.57, "intermolecular_energy": -10.96, "internal_energy": -1.78, "cluster_size": 2, "cluster_id": 3, "rank_in_cluster": 1}

>  <energy>  (19) 
-7.53

>  <cluster_rmsd>  (19) 
0.25

>  <rmsd>  (19) 
269.57

>  <cluster>  (19) 
5

$$$$
BLHILRPTNSSYME-YFHWJHCCNA-N
     RDKit          3D

 57 61  0  0  0  0  0  0  0  0999 V2000
  135.0420   69.6930  224.0500 H   0  0  0  0  0  0  0  0  0  0  0  0
  135.3990   70.6700  224.1140 N   0  0  0  0  0  0  0  0  0  0  0  0
  136.5760   71.0590  223.7150 C   0  0  0  0  0  0  0  0  0  0  0  0
  137.7240   70.2840  224.0070 C   0  0  0  0  0  0  0  0  0  0  0  0
  137.6860   69.0700  224.8430 C   0  0  0  0  0  0  0  0  0  0  0  0
  138.7980   68.4520  225.1230 N   0  0  0  0  0  0  0  0  0  0  0  0
  139.4620   68.4200  226.4280 C   0  0  2  0  0  0  0  0  0  0  0  0
  138.7269   68.1450  227.1986 H   0  0  0  0  0  0  0  0  0  0  0  0
  140.0170   69.7840  226.7850 C   0  0  0  0  0  0  0  0  0  0  0  0
  139.6790   70.3830  228.0120 C   0  0  0  0  0  0  0  0  0  0  0  0
  138.9970   69.8668  228.7036 H   0  0  0  0  0  0  0  0  0  0  0  0
  140.2060   71.6320  228.3570 C   0  0  0  0  0  0  0  0  0  0  0  0
  139.9305   72.0980  229.3146 H   0  0  0  0  0  0  0  0  0  0  0  0
  141.0810   72.2890  227.4890 C   0  0  0  0  0  0  0  0  0  0  0  0
  141.4938   73.2710  227.7635 H   0  0  0  0  0  0  0  0  0  0  0  0
  141.4320   71.6990  226.2720 C   0  0  0  0  0  0  0  0  0  0  0  0
  142.1234   72.2154  225.5899 H   0  0  0  0  0  0  0  0  0  0  0  0
  140.9050   70.4530  225.9210 C   0  0  0  0  0  0  0  0  0  0  0  0
  141.1860   69.9916  224.9628 H   0  0  0  0  0  0  0  0  0  0  0  0
  140.5820   67.3790  226.3960 C   0  0  0  0  0  0  0  0  0  0  0  0
  140.8664   67.1147  227.4252 H   0  0  0  0  0  0  0  0  0  0  0  0
  140.2311   66.4789  225.8699 H   0  0  0  0  0  0  0  0  0  0  0  0
  141.4540   67.7947  225.8699 H   0  0  0  0  0  0  0  0  0  0  0  0
  136.4430   68.5790  225.2510 O   0  0  0  0  0  0  0  0  0  0  0  0
  135.7040   69.1650  225.6200 H   0  0  0  0  0  0  0  0  0  0  0  0
  138.9610   70.6840  223.5040 C   0  0  0  0  0  0  0  0  0  0  0  0
  139.8529   70.0694  223.6955 H   0  0  0  0  0  0  0  0  0  0  0  0
  139.0760   71.8590  222.7590 C   0  0  0  0  0  0  0  0  0  0  0  0
  140.3170   72.3070  222.2620 C   0  0  0  0  0  0  0  0  0  0  0  0
  141.3590   71.6270  222.4840 O   0  0  0  0  0  0  0  0  0  0  0  0
  140.3900   73.4750  221.5440 N   0  0  0  0  0  0  0  0  0  0  0  0
  141.5950   73.9260  221.0590 C   0  0  0  0  0  0  0  0  0  0  0  0
  142.5094   73.3440  221.2464 H   0  0  0  0  0  0  0  0  0  0  0  0
  141.6700   75.1170  220.3300 C   0  0  0  0  0  0  0  0  0  0  0  0
  143.2160   75.6820  219.7220 Cl  0  0  0  0  0  0  0  0  0  0  0  0
  140.5110   75.8510  220.0910 C   0  0  0  0  0  0  0  0  0  0  0  0
  140.5597   76.7886  219.5178 H   0  0  0  0  0  0  0  0  0  0  0  0
  139.2910   75.3940  220.5800 C   0  0  0  0  0  0  0  0  0  0  0  0
  138.3702   75.9659  220.3925 H   0  0  0  0  0  0  0  0  0  0  0  0
  139.2430   74.2020  221.3120 C   0  0  0  0  0  0  0  0  0  0  0  0
  138.0510   73.7700  221.7890 N   0  0  0  0  0  0  0  0  0  0  0  0
  137.9250   72.6230  222.5060 C   0  0  0  0  0  0  0  0  0  0  0  0
  136.6940   72.2200  222.9760 N   0  0  0  0  0  0  0  0  0  0  0  0
  135.4890   73.0130  222.6390 C   0  0  0  0  0  0  0  0  0  0  0  0
  135.7149   73.6681  221.7847 H   0  0  0  0  0  0  0  0  0  0  0  0
  134.6709   72.3231  222.3845 H   0  0  0  0  0  0  0  0  0  0  0  0
  135.0630   73.8590  223.8130 C   0  0  0  0  0  0  0  0  0  0  0  0
  134.3270   73.2940  224.8680 C   0  0  0  0  0  0  0  0  0  0  0  0
  134.0332   72.2349  224.8244 H   0  0  0  0  0  0  0  0  0  0  0  0
  133.9660   74.0710  225.9730 C   0  0  0  0  0  0  0  0  0  0  0  0
  133.3925   73.6216  226.7972 H   0  0  0  0  0  0  0  0  0  0  0  0
  134.3330   75.4170  226.0310 C   0  0  0  0  0  0  0  0  0  0  0  0
  134.0483   76.0269  226.9010 H   0  0  0  0  0  0  0  0  0  0  0  0
  135.0610   75.9900  224.9860 C   0  0  0  0  0  0  0  0  0  0  0  0
  135.3479   77.0509  225.0324 H   0  0  0  0  0  0  0  0  0  0  0  0
  135.4250   75.2150  223.8810 C   0  0  0  0  0  0  0  0  0  0  0  0
  135.9984   75.6695  223.0596 H   0  0  0  0  0  0  0  0  0  0  0  0
  1  2  1  0
  2  3  2  0
  3  4  1  0
  4  5  1  0
  5  6  2  0
  6  7  1  0
  7  8  1  1
  7  9  1  0
  9 10  2  0
 10 11  1  0
 10 12  1  0
 12 13  1  0
 12 14  2  0
 14 15  1  0
 14 16  1  0
 16 17  1  0
 16 18  2  0
 18 19  1  0
  7 20  1  0
 20 21  1  0
 20 22  1  0
 20 23  1  0
  5 24  1  0
 24 25  1  0
  4 26  2  0
 26 27  1  0
 26 28  1  0
 28 29  1  0
 29 30  2  0
 29 31  1  0
 31 32  1  0
 32 33  1  0
 32 34  2  0
 34 35  1  0
 34 36  1  0
 36 37  1  0
 36 38  2  0
 38 39  1  0
 38 40  1  0
 40 41  2  0
 41 42  1  0
 42 43  1  0
 43 44  1  0
 44 45  1  0
 44 46  1  0
 44 47  1  0
 47 48  2  0
 48 49  1  0
 48 50  1  0
 50 51  1  0
 50 52  2  0
 52 53  1  0
 52 54  1  0
 54 55  1  0
 54 56  2  0
 56 57  1  0
 43  3  1  0
 56 47  1  0
 18  9  1  0
 42 28  2  0
 40 31  1  0
M  END
>  <UniqueID>  (20) 
100

>  <SMILES>  (20) 
[H]/N=c1\c(/C(O)=N/[C@@H](C)c2ccccc2)cc2c(=O)n3cc(Cl)ccc3nc2n1Cc1ccccc1

>  <Energy>  (20) 
83.48587377213799

>  <Genealogy>  (20) 
C[C@H](N=C(O)c1cc2c(=O)n3cc(Cl)ccc3nc2n(Cc2ccccc2)c1=N)c1ccccc1 (tautomer)
[H]/N=c1\c(/C(O)=N/[C@@H](C)c2ccccc2)cc2c(=O)n3cc(Cl)ccc3nc2n1Cc1ccccc1 (cis-trans isomerization)
[H]/N=c1\c(/C(O)=N/[C@@H](C)c2ccccc2)cc2c(=O)n3cc(Cl)ccc3nc2n1Cc1ccccc1 (3D coordinates assigned)
[H]/N=c1\c(/C(O)=N/[C@@H](C)c2ccccc2)cc2c(=O)n3cc(Cl)ccc3nc2n1Cc1ccccc1 (optimized conformer: 83.48587377213799 kcal/mol)

>  <smiles>  (20) 
C[C@H](NC(=O)c1cc2c(=O)n3cc(Cl)ccc3nc2n(Cc2ccccc2)c1=N)c1ccccc1

>  <score_type>  (20) 
oracle

>  <origin>  (20) 
autodockgpu

>  <m_score__min__energy>  (20) 
-8.7100000000000009

>  <m_primary>  (20) 
energy

>  <meeko>  (20) 
{"free_energy": -7.96, "intermolecular_energy": -10.35, "internal_energy": -2.54, "cluster_size": 5, "cluster_id": 2, "rank_in_cluster": 3}

>  <energy>  (20) 
-7.48

>  <cluster_rmsd>  (20) 
0.0

>  <rmsd>  (20) 
268.68

>  <cluster>  (20) 
6

$$$$
BLHILRPTNSSYME-FZQKWJEZNA-N
     RDKit          3D

 57 61  0  0  0  0  0  0  0  0999 V2000
  137.7660   74.3030  222.8490 H   0  0  0  0  0  0  0  0  0  0  0  0
  137.2730   75.1100  222.4180 N   0  0  0  0  0  0  0  0  0  0  0  0
  137.4250   76.3760  222.6900 C   0  0  0  0  0  0  0  0  0  0  0  0
  138.7420   76.8990  222.7000 C   0  0  0  0  0  0  0  0  0  0  0  0
  139.9340   76.0900  222.3260 C   0  0  0  0  0  0  0  0  0  0  0  0
  141.0860   76.6780  222.1550 N   0  0  0  0  0  0  0  0  0  0  0  0
  141.4450   77.7400  221.2090 C   0  0  2  0  0  0  0  0  0  0  0  0
  142.4192   77.5198  220.7482 H   0  0  0  0  0  0  0  0  0  0  0  0
  141.6830   79.0670  221.9210 C   0  0  0  0  0  0  0  0  0  0  0  0
  142.2230   79.0450  223.2210 C   0  0  0  0  0  0  0  0  0  0  0  0
  142.4490   78.0811  223.7004 H   0  0  0  0  0  0  0  0  0  0  0  0
  142.4750   80.2360  223.9090 C   0  0  0  0  0  0  0  0  0  0  0  0
  142.8876   80.2046  224.9282 H   0  0  0  0  0  0  0  0  0  0  0  0
  142.2040   81.4640  223.3050 C   0  0  0  0  0  0  0  0  0  0  0  0
  142.4008   82.4000  223.8483 H   0  0  0  0  0  0  0  0  0  0  0  0
  141.6830   81.5040  222.0110 C   0  0  0  0  0  0  0  0  0  0  0  0
  141.4723   82.4729  221.5347 H   0  0  0  0  0  0  0  0  0  0  0  0
  141.4280   80.3170  221.3180 C   0  0  0  0  0  0  0  0  0  0  0  0
  141.0256   80.3577  220.2951 H   0  0  0  0  0  0  0  0  0  0  0  0
  140.4580   77.7690  220.0320 C   0  0  0  0  0  0  0  0  0  0  0  0
  139.4283   77.7993  220.4177 H   0  0  0  0  0  0  0  0  0  0  0  0
  140.6459   78.6620  219.4178 H   0  0  0  0  0  0  0  0  0  0  0  0
  140.5931   76.8665  219.4178 H   0  0  0  0  0  0  0  0  0  0  0  0
  139.7800   74.7070  222.1830 O   0  0  0  0  0  0  0  0  0  0  0  0
  139.1790   74.1420  222.7620 H   0  0  0  0  0  0  0  0  0  0  0  0
  138.9420   78.2220  223.0970 C   0  0  0  0  0  0  0  0  0  0  0  0
  139.9618   78.6334  223.1247 H   0  0  0  0  0  0  0  0  0  0  0  0
  137.8630   79.0280  223.4590 C   0  0  0  0  0  0  0  0  0  0  0  0
  138.0360   80.3630  223.8750 C   0  0  0  0  0  0  0  0  0  0  0  0
  139.2000   80.8540  223.9270 O   0  0  0  0  0  0  0  0  0  0  0  0
  136.9470   81.1250  224.2210 N   0  0  0  0  0  0  0  0  0  0  0  0
  137.1020   82.4260  224.6320 C   0  0  0  0  0  0  0  0  0  0  0  0
  138.1098   82.8639  224.6819 H   0  0  0  0  0  0  0  0  0  0  0  0
  135.9930   83.2010  224.9880 C   0  0  0  0  0  0  0  0  0  0  0  0
  136.2070   84.8630  225.5120 Cl  0  0  0  0  0  0  0  0  0  0  0  0
  134.7190   82.6450  224.9260 C   0  0  0  0  0  0  0  0  0  0  0  0
  133.8401   83.2447  225.2051 H   0  0  0  0  0  0  0  0  0  0  0  0
  134.5620   81.3260  224.5090 C   0  0  0  0  0  0  0  0  0  0  0  0
  133.5587   80.8782  224.4560 H   0  0  0  0  0  0  0  0  0  0  0  0
  135.6870   80.5740  224.1580 C   0  0  0  0  0  0  0  0  0  0  0  0
  135.5200   79.2920  223.7540 N   0  0  0  0  0  0  0  0  0  0  0  0
  136.5650   78.4950  223.4020 C   0  0  0  0  0  0  0  0  0  0  0  0
  136.3470   77.1930  223.0040 N   0  0  0  0  0  0  0  0  0  0  0  0
  134.9420   76.7200  222.9400 C   0  0  0  0  0  0  0  0  0  0  0  0
  134.3067   77.5318  222.5562 H   0  0  0  0  0  0  0  0  0  0  0  0
  134.8973   75.8463  222.2732 H   0  0  0  0  0  0  0  0  0  0  0  0
  134.4450   76.3080  224.3050 C   0  0  0  0  0  0  0  0  0  0  0  0
  133.6540   77.1780  225.0740 C   0  0  0  0  0  0  0  0  0  0  0  0
  133.4000   78.1749  224.6846 H   0  0  0  0  0  0  0  0  0  0  0  0
  133.1880   76.7830  226.3320 C   0  0  0  0  0  0  0  0  0  0  0  0
  132.5704   77.4703  226.9288 H   0  0  0  0  0  0  0  0  0  0  0  0
  133.5050   75.5170  226.8330 C   0  0  0  0  0  0  0  0  0  0  0  0
  133.1356   75.2080  227.8220 H   0  0  0  0  0  0  0  0  0  0  0  0
  134.2910   74.6450  226.0770 C   0  0  0  0  0  0  0  0  0  0  0  0
  134.5409   73.6488  226.4710 H   0  0  0  0  0  0  0  0  0  0  0  0
  134.7610   75.0370  224.8190 C   0  0  0  0  0  0  0  0  0  0  0  0
  135.3815   74.3472  224.2280 H   0  0  0  0  0  0  0  0  0  0  0  0
  1  2  1  0
  2  3  2  0
  3  4  1  0
  4  5  1  0
  5  6  2  0
  6  7  1  0
  7  8  1  6
  7  9  1  0
  9 10  2  0
 10 11  1  0
 10 12  1  0
 12 13  1  0
 12 14  2  0
 14 15  1  0
 14 16  1  0
 16 17  1  0
 16 18  2  0
 18 19  1  0
  7 20  1  0
 20 21  1  0
 20 22  1  0
 20 23  1  0
  5 24  1  0
 24 25  1  0
  4 26  2  0
 26 27  1  0
 26 28  1  0
 28 29  1  0
 29 30  2  0
 29 31  1  0
 31 32  1  0
 32 33  1  0
 32 34  2  0
 34 35  1  0
 34 36  1  0
 36 37  1  0
 36 38  2  0
 38 39  1  0
 38 40  1  0
 40 41  2  0
 41 42  1  0
 42 43  1  0
 43 44  1  0
 44 45  1  0
 44 46  1  0
 44 47  1  0
 47 48  2  0
 48 49  1  0
 48 50  1  0
 50 51  1  0
 50 52  2  0
 52 53  1  0
 52 54  1  0
 54 55  1  0
 54 56  2  0
 56 57  1  0
 43  3  1  0
 56 47  1  0
 18  9  1  0
 42 28  2  0
 40 31  1  0
M  END
>  <UniqueID>  (21) 
101

>  <SMILES>  (21) 
[H]/N=c1/c(/C(O)=N/[C@@H](C)c2ccccc2)cc2c(=O)n3cc(Cl)ccc3nc2n1Cc1ccccc1

>  <Energy>  (21) 
90.18701297646199

>  <Genealogy>  (21) 
C[C@H](N=C(O)c1cc2c(=O)n3cc(Cl)ccc3nc2n(Cc2ccccc2)c1=N)c1ccccc1 (tautomer)
[H]/N=c1/c(/C(O)=N/[C@@H](C)c2ccccc2)cc2c(=O)n3cc(Cl)ccc3nc2n1Cc1ccccc1 (cis-trans isomerization)
[H]/N=c1/c(/C(O)=N/[C@@H](C)c2ccccc2)cc2c(=O)n3cc(Cl)ccc3nc2n1Cc1ccccc1 (3D coordinates assigned)
[H]/N=c1/c(/C(O)=N/[C@@H](C)c2ccccc2)cc2c(=O)n3cc(Cl)ccc3nc2n1Cc1ccccc1 (optimized conformer: 90.18701297646199 kcal/mol)

>  <smiles>  (21) 
C[C@H](NC(=O)c1cc2c(=O)n3cc(Cl)ccc3nc2n(Cc2ccccc2)c1=N)c1ccccc1

>  <score_type>  (21) 
oracle

>  <origin>  (21) 
autodockgpu

>  <m_score__min__energy>  (21) 
-8.0399999999999991

>  <m_primary>  (21) 
energy

>  <meeko>  (21) 
{"free_energy": -7.87, "intermolecular_energy": -10.26, "internal_energy": -2.6, "cluster_size": 18, "cluster_id": 2, "rank_in_cluster": 6}

>  <energy>  (21) 
-8.04

>  <cluster_rmsd>  (21) 
0.0

>  <rmsd>  (21) 
269.65

>  <cluster>  (21) 
1

$$$$
BLHILRPTNSSYME-FZQKWJEZNA-N
     RDKit          3D

 57 61  0  0  0  0  0  0  0  0999 V2000
  137.7850   74.3160  222.8210 H   0  0  0  0  0  0  0  0  0  0  0  0
  137.3000   75.1270  222.3870 N   0  0  0  0  0  0  0  0  0  0  0  0
  137.4470   76.3910  222.6720 C   0  0  0  0  0  0  0  0  0  0  0  0
  138.7630   76.9160  222.6970 C   0  0  0  0  0  0  0  0  0  0  0  0
  139.9590   76.1130  222.3230 C   0  0  0  0  0  0  0  0  0  0  0  0
  141.0850   76.7170  222.0580 N   0  0  0  0  0  0  0  0  0  0  0  0
  141.3380   77.8250  221.1300 C   0  0  2  0  0  0  0  0  0  0  0  0
  142.2781   77.6529  220.5854 H   0  0  0  0  0  0  0  0  0  0  0  0
  141.5950   79.1300  221.8740 C   0  0  0  0  0  0  0  0  0  0  0  0
  142.1810   79.0710  223.1530 C   0  0  0  0  0  0  0  0  0  0  0  0
  142.4281   78.0940  223.5940 H   0  0  0  0  0  0  0  0  0  0  0  0
  142.4520   80.2410  223.8680 C   0  0  0  0  0  0  0  0  0  0  0  0
  142.9008   80.1805  224.8704 H   0  0  0  0  0  0  0  0  0  0  0  0
  142.1540   81.4860  223.3120 C   0  0  0  0  0  0  0  0  0  0  0  0
  142.3659   82.4059  223.8767 H   0  0  0  0  0  0  0  0  0  0  0  0
  141.5870   81.5630  222.0390 C   0  0  0  0  0  0  0  0  0  0  0  0
  141.3550   82.5449  221.6009 H   0  0  0  0  0  0  0  0  0  0  0  0
  141.3130   80.3970  221.3190 C   0  0  0  0  0  0  0  0  0  0  0  0
  140.8745   80.4670  220.3126 H   0  0  0  0  0  0  0  0  0  0  0  0
  140.2600   77.8680  220.0360 C   0  0  0  0  0  0  0  0  0  0  0  0
  139.2649   77.9077  220.5031 H   0  0  0  0  0  0  0  0  0  0  0  0
  140.4075   78.7610  219.4108 H   0  0  0  0  0  0  0  0  0  0  0  0
  140.3359   76.9661  219.4108 H   0  0  0  0  0  0  0  0  0  0  0  0
  139.8380   74.7200  222.2840 O   0  0  0  0  0  0  0  0  0  0  0  0
  139.1950   74.1920  222.8530 H   0  0  0  0  0  0  0  0  0  0  0  0
  138.9580   78.2360  223.1070 C   0  0  0  0  0  0  0  0  0  0  0  0
  139.9766   78.6497  223.1443 H   0  0  0  0  0  0  0  0  0  0  0  0
  137.8740   79.0360  223.4700 C   0  0  0  0  0  0  0  0  0  0  0  0
  138.0410   80.3680  223.8990 C   0  0  0  0  0  0  0  0  0  0  0  0
  139.2040   80.8600  223.9640 O   0  0  0  0  0  0  0  0  0  0  0  0
  136.9480   81.1250  224.2450 N   0  0  0  0  0  0  0  0  0  0  0  0
  137.0980   82.4220  224.6690 C   0  0  0  0  0  0  0  0  0  0  0  0
  138.1046   82.8615  224.7295 H   0  0  0  0  0  0  0  0  0  0  0  0
  135.9850   83.1910  225.0250 C   0  0  0  0  0  0  0  0  0  0  0  0
  136.1910   84.8480  225.5660 Cl  0  0  0  0  0  0  0  0  0  0  0  0
  134.7120   82.6330  224.9480 C   0  0  0  0  0  0  0  0  0  0  0  0
  133.8298   83.2285  225.2256 H   0  0  0  0  0  0  0  0  0  0  0  0
  134.5610   81.3180  224.5180 C   0  0  0  0  0  0  0  0  0  0  0  0
  133.5590   80.8688  224.4538 H   0  0  0  0  0  0  0  0  0  0  0  0
  135.6900   80.5710  224.1680 C   0  0  0  0  0  0  0  0  0  0  0  0
  135.5290   79.2930  223.7510 N   0  0  0  0  0  0  0  0  0  0  0  0
  136.5770   78.5020  223.3980 C   0  0  0  0  0  0  0  0  0  0  0  0
  136.3650   77.2030  222.9860 N   0  0  0  0  0  0  0  0  0  0  0  0
  134.9610   76.7270  222.9080 C   0  0  0  0  0  0  0  0  0  0  0  0
  134.3304   77.5320  222.5027 H   0  0  0  0  0  0  0  0  0  0  0  0
  134.9267   75.8435  222.2536 H   0  0  0  0  0  0  0  0  0  0  0  0
  134.4450   76.3350  224.2720 C   0  0  0  0  0  0  0  0  0  0  0  0
  133.6050   77.1970  224.9960 C   0  0  0  0  0  0  0  0  0  0  0  0
  133.3277   78.1737  224.5727 H   0  0  0  0  0  0  0  0  0  0  0  0
  133.1190   76.8200  226.2530 C   0  0  0  0  0  0  0  0  0  0  0  0
  132.4621   77.5006  226.8146 H   0  0  0  0  0  0  0  0  0  0  0  0
  133.4670   75.5800  226.7960 C   0  0  0  0  0  0  0  0  0  0  0  0
  133.0834   75.2847  227.7837 H   0  0  0  0  0  0  0  0  0  0  0  0
  134.3020   74.7160  226.0840 C   0  0  0  0  0  0  0  0  0  0  0  0
  134.5761   73.7403  226.5117 H   0  0  0  0  0  0  0  0  0  0  0  0
  134.7900   75.0900  224.8280 C   0  0  0  0  0  0  0  0  0  0  0  0
  135.4478   74.4062  224.2714 H   0  0  0  0  0  0  0  0  0  0  0  0
  1  2  1  0
  2  3  2  0
  3  4  1  0
  4  5  1  0
  5  6  2  0
  6  7  1  0
  7  8  1  6
  7  9  1  0
  9 10  2  0
 10 11  1  0
 10 12  1  0
 12 13  1  0
 12 14  2  0
 14 15  1  0
 14 16  1  0
 16 17  1  0
 16 18  2  0
 18 19  1  0
  7 20  1  0
 20 21  1  0
 20 22  1  0
 20 23  1  0
  5 24  1  0
 24 25  1  0
  4 26  2  0
 26 27  1  0
 26 28  1  0
 28 29  1  0
 29 30  2  0
 29 31  1  0
 31 32  1  0
 32 33  1  0
 32 34  2  0
 34 35  1  0
 34 36  1  0
 36 37  1  0
 36 38  2  0
 38 39  1  0
 38 40  1  0
 40 41  2  0
 41 42  1  0
 42 43  1  0
 43 44  1  0
 44 45  1  0
 44 46  1  0
 44 47  1  0
 47 48  2  0
 48 49  1  0
 48 50  1  0
 50 51  1  0
 50 52  2  0
 52 53  1  0
 52 54  1  0
 54 55  1  0
 54 56  2  0
 56 57  1  0
 43  3  1  0
 56 47  1  0
 18  9  1  0
 42 28  2  0
 40 31  1  0
M  END
>  <UniqueID>  (22) 
101

>  <SMILES>  (22) 
[H]/N=c1/c(/C(O)=N/[C@@H](C)c2ccccc2)cc2c(=O)n3cc(Cl)ccc3nc2n1Cc1ccccc1

>  <Energy>  (22) 
90.18701297646199

>  <Genealogy>  (22) 
C[C@H](N=C(O)c1cc2c(=O)n3cc(Cl)ccc3nc2n(Cc2ccccc2)c1=N)c1ccccc1 (tautomer)
[H]/N=c1/c(/C(O)=N/[C@@H](C)c2ccccc2)cc2c(=O)n3cc(Cl)ccc3nc2n1Cc1ccccc1 (cis-trans isomerization)
[H]/N=c1/c(/C(O)=N/[C@@H](C)c2ccccc2)cc2c(=O)n3cc(Cl)ccc3nc2n1Cc1ccccc1 (3D coordinates assigned)
[H]/N=c1/c(/C(O)=N/[C@@H](C)c2ccccc2)cc2c(=O)n3cc(Cl)ccc3nc2n1Cc1ccccc1 (optimized conformer: 90.18701297646199 kcal/mol)

>  <smiles>  (22) 
C[C@H](NC(=O)c1cc2c(=O)n3cc(Cl)ccc3nc2n(Cc2ccccc2)c1=N)c1ccccc1

>  <score_type>  (22) 
oracle

>  <origin>  (22) 
autodockgpu

>  <m_score__min__energy>  (22) 
-8.0399999999999991

>  <m_primary>  (22) 
energy

>  <meeko>  (22) 
{"free_energy": -7.87, "intermolecular_energy": -10.25, "internal_energy": -2.57, "cluster_size": 18, "cluster_id": 2, "rank_in_cluster": 7}

>  <energy>  (22) 
-7.88

>  <cluster_rmsd>  (22) 
0.0

>  <rmsd>  (22) 
270.63

>  <cluster>  (22) 
2

$$$$
BLHILRPTNSSYME-FZQKWJEZNA-N
     RDKit          3D

 57 61  0  0  0  0  0  0  0  0999 V2000
  137.7840   74.2800  222.8180 H   0  0  0  0  0  0  0  0  0  0  0  0
  137.3060   75.0910  222.3780 N   0  0  0  0  0  0  0  0  0  0  0  0
  137.4520   76.3550  222.6620 C   0  0  0  0  0  0  0  0  0  0  0  0
  138.7690   76.8790  222.6920 C   0  0  0  0  0  0  0  0  0  0  0  0
  139.9660   76.0740  222.3250 C   0  0  0  0  0  0  0  0  0  0  0  0
  141.1030   76.6730  222.1020 N   0  0  0  0  0  0  0  0  0  0  0  0
  141.3970   77.7740  221.1770 C   0  0  2  0  0  0  0  0  0  0  0  0
  142.3389   77.5771  220.6440 H   0  0  0  0  0  0  0  0  0  0  0  0
  141.6800   79.0720  221.9240 C   0  0  0  0  0  0  0  0  0  0  0  0
  141.2950   80.2880  221.3280 C   0  0  0  0  0  0  0  0  0  0  0  0
  140.8137   80.2810  220.3389 H   0  0  0  0  0  0  0  0  0  0  0  0
  141.5180   81.5040  221.9800 C   0  0  0  0  0  0  0  0  0  0  0  0
  141.2217   82.4476  221.4985 H   0  0  0  0  0  0  0  0  0  0  0  0
  142.1160   81.5230  223.2410 C   0  0  0  0  0  0  0  0  0  0  0  0
  142.2924   82.4810  223.7521 H   0  0  0  0  0  0  0  0  0  0  0  0
  142.4900   80.3260  223.8530 C   0  0  0  0  0  0  0  0  0  0  0  0
  142.9594   80.3422  224.8477 H   0  0  0  0  0  0  0  0  0  0  0  0
  142.2700   79.1060  223.2060 C   0  0  0  0  0  0  0  0  0  0  0  0
  142.5587   78.1662  223.6994 H   0  0  0  0  0  0  0  0  0  0  0  0
  140.3340   77.8450  220.0700 C   0  0  0  0  0  0  0  0  0  0  0  0
  139.3347   77.9117  220.5250 H   0  0  0  0  0  0  0  0  0  0  0  0
  140.5130   78.7332  219.4462 H   0  0  0  0  0  0  0  0  0  0  0  0
  140.3932   76.9409  219.4462 H   0  0  0  0  0  0  0  0  0  0  0  0
  139.8330   74.6840  222.2460 O   0  0  0  0  0  0  0  0  0  0  0  0
  139.1940   74.1440  222.8090 H   0  0  0  0  0  0  0  0  0  0  0  0
  138.9640   78.1990  223.1020 C   0  0  0  0  0  0  0  0  0  0  0  0
  139.9830   78.6110  223.1449 H   0  0  0  0  0  0  0  0  0  0  0  0
  137.8790   79.0010  223.4580 C   0  0  0  0  0  0  0  0  0  0  0  0
  138.0450   80.3330  223.8870 C   0  0  0  0  0  0  0  0  0  0  0  0
  139.2090   80.8240  223.9570 O   0  0  0  0  0  0  0  0  0  0  0  0
  136.9520   81.0910  224.2270 N   0  0  0  0  0  0  0  0  0  0  0  0
  137.1000   82.3890  224.6500 C   0  0  0  0  0  0  0  0  0  0  0  0
  138.1066   82.8278  224.7143 H   0  0  0  0  0  0  0  0  0  0  0  0
  135.9870   83.1600  225.0000 C   0  0  0  0  0  0  0  0  0  0  0  0
  136.1930   84.8170  225.5400 Cl  0  0  0  0  0  0  0  0  0  0  0  0
  134.7140   82.6020  224.9180 C   0  0  0  0  0  0  0  0  0  0  0  0
  133.8311   83.1984  225.1913 H   0  0  0  0  0  0  0  0  0  0  0  0
  134.5630   81.2870  224.4890 C   0  0  0  0  0  0  0  0  0  0  0  0
  133.5608   80.8387  224.4209 H   0  0  0  0  0  0  0  0  0  0  0  0
  135.6930   80.5390  224.1450 C   0  0  0  0  0  0  0  0  0  0  0  0
  135.5330   79.2600  223.7280 N   0  0  0  0  0  0  0  0  0  0  0  0
  136.5820   78.4680  223.3810 C   0  0  0  0  0  0  0  0  0  0  0  0
  136.3700   77.1690  222.9700 N   0  0  0  0  0  0  0  0  0  0  0  0
  134.9670   76.6940  222.8850 C   0  0  0  0  0  0  0  0  0  0  0  0
  134.3406   77.4959  222.4671 H   0  0  0  0  0  0  0  0  0  0  0  0
  134.9372   75.8045  222.2386 H   0  0  0  0  0  0  0  0  0  0  0  0
  134.4390   76.3150  224.2490 C   0  0  0  0  0  0  0  0  0  0  0  0
  133.5470   77.1580  224.9340 C   0  0  0  0  0  0  0  0  0  0  0  0
  133.2360   78.1106  224.4803 H   0  0  0  0  0  0  0  0  0  0  0  0
  133.0530   76.7910  226.1900 C   0  0  0  0  0  0  0  0  0  0  0  0
  132.3550   77.4552  226.7206 H   0  0  0  0  0  0  0  0  0  0  0  0
  133.4440   75.5830  226.7720 C   0  0  0  0  0  0  0  0  0  0  0  0
  133.0544   75.2974  227.7603 H   0  0  0  0  0  0  0  0  0  0  0  0
  134.3290   74.7380  226.1000 C   0  0  0  0  0  0  0  0  0  0  0  0
  134.6348   73.7859  226.5582 H   0  0  0  0  0  0  0  0  0  0  0  0
  134.8270   75.1010  224.8450 C   0  0  0  0  0  0  0  0  0  0  0  0
  135.5264   74.4334  224.3204 H   0  0  0  0  0  0  0  0  0  0  0  0
  1  2  1  0
  2  3  2  0
  3  4  1  0
  4  5  1  0
  5  6  2  0
  6  7  1  0
  7  8  1  6
  7  9  1  0
  9 10  2  0
 10 11  1  0
 10 12  1  0
 12 13  1  0
 12 14  2  0
 14 15  1  0
 14 16  1  0
 16 17  1  0
 16 18  2  0
 18 19  1  0
  7 20  1  0
 20 21  1  0
 20 22  1  0
 20 23  1  0
  5 24  1  0
 24 25  1  0
  4 26  2  0
 26 27  1  0
 26 28  1  0
 28 29  1  0
 29 30  2  0
 29 31  1  0
 31 32  1  0
 32 33  1  0
 32 34  2  0
 34 35  1  0
 34 36  1  0
 36 37  1  0
 36 38  2  0
 38 39  1  0
 38 40  1  0
 40 41  2  0
 41 42  1  0
 42 43  1  0
 43 44  1  0
 44 45  1  0
 44 46  1  0
 44 47  1  0
 47 48  2  0
 48 49  1  0
 48 50  1  0
 50 51  1  0
 50 52  2  0
 52 53  1  0
 52 54  1  0
 54 55  1  0
 54 56  2  0
 56 57  1  0
 43  3  1  0
 56 47  1  0
 18  9  1  0
 42 28  2  0
 40 31  1  0
M  END
>  <UniqueID>  (23) 
101

>  <SMILES>  (23) 
[H]/N=c1/c(/C(O)=N/[C@@H](C)c2ccccc2)cc2c(=O)n3cc(Cl)ccc3nc2n1Cc1ccccc1

>  <Energy>  (23) 
90.18701297646199

>  <Genealogy>  (23) 
C[C@H](N=C(O)c1cc2c(=O)n3cc(Cl)ccc3nc2n(Cc2ccccc2)c1=N)c1ccccc1 (tautomer)
[H]/N=c1/c(/C(O)=N/[C@@H](C)c2ccccc2)cc2c(=O)n3cc(Cl)ccc3nc2n1Cc1ccccc1 (cis-trans isomerization)
[H]/N=c1/c(/C(O)=N/[C@@H](C)c2ccccc2)cc2c(=O)n3cc(Cl)ccc3nc2n1Cc1ccccc1 (3D coordinates assigned)
[H]/N=c1/c(/C(O)=N/[C@@H](C)c2ccccc2)cc2c(=O)n3cc(Cl)ccc3nc2n1Cc1ccccc1 (optimized conformer: 90.18701297646199 kcal/mol)

>  <smiles>  (23) 
C[C@H](NC(=O)c1cc2c(=O)n3cc(Cl)ccc3nc2n(Cc2ccccc2)c1=N)c1ccccc1

>  <score_type>  (23) 
oracle

>  <origin>  (23) 
autodockgpu

>  <m_score__min__energy>  (23) 
-8.0399999999999991

>  <m_primary>  (23) 
energy

>  <meeko>  (23) 
{"free_energy": -7.82, "intermolecular_energy": -10.21, "internal_energy": -2.59, "cluster_size": 18, "cluster_id": 2, "rank_in_cluster": 17}

>  <energy>  (23) 
-7.88

>  <cluster_rmsd>  (23) 
0.02

>  <rmsd>  (23) 
270.63

>  <cluster>  (23) 
2

$$$$
BLHILRPTNSSYME-FZQKWJEZNA-N
     RDKit          3D

 57 61  0  0  0  0  0  0  0  0999 V2000
  137.7530   74.3100  222.8420 H   0  0  0  0  0  0  0  0  0  0  0  0
  137.2620   75.1190  222.4120 N   0  0  0  0  0  0  0  0  0  0  0  0
  137.4140   76.3840  222.6870 C   0  0  0  0  0  0  0  0  0  0  0  0
  138.7320   76.9060  222.6980 C   0  0  0  0  0  0  0  0  0  0  0  0
  139.9230   76.0970  222.3210 C   0  0  0  0  0  0  0  0  0  0  0  0
  141.0780   76.6820  222.1650 N   0  0  0  0  0  0  0  0  0  0  0  0
  141.4470   77.7590  221.2400 C   0  0  2  0  0  0  0  0  0  0  0  0
  142.4077   77.5271  220.7569 H   0  0  0  0  0  0  0  0  0  0  0  0
  141.7300   79.0610  221.9800 C   0  0  0  0  0  0  0  0  0  0  0  0
  141.4190   80.2780  221.3440 C   0  0  0  0  0  0  0  0  0  0  0  0
  140.9940   80.2691  220.3295 H   0  0  0  0  0  0  0  0  0  0  0  0
  141.6450   81.4980  221.9890 C   0  0  0  0  0  0  0  0  0  0  0  0
  141.4061   82.4422  221.4777 H   0  0  0  0  0  0  0  0  0  0  0  0
  142.1730   81.5190  223.2800 C   0  0  0  0  0  0  0  0  0  0  0  0
  142.3529   82.4796  223.7849 H   0  0  0  0  0  0  0  0  0  0  0  0
  142.4730   80.3220  223.9310 C   0  0  0  0  0  0  0  0  0  0  0  0
  142.8866   80.3411  224.9501 H   0  0  0  0  0  0  0  0  0  0  0  0
  142.2500   79.0990  223.2930 C   0  0  0  0  0  0  0  0  0  0  0  0
  142.4809   78.1596  223.8166 H   0  0  0  0  0  0  0  0  0  0  0  0
  140.4400   77.8420  220.0820 C   0  0  0  0  0  0  0  0  0  0  0  0
  139.4210   77.9260  220.4876 H   0  0  0  0  0  0  0  0  0  0  0  0
  140.6629   78.7248  219.4648 H   0  0  0  0  0  0  0  0  0  0  0  0
  140.5154   76.9346  219.4648 H   0  0  0  0  0  0  0  0  0  0  0  0
  139.7640   74.7170  222.1590 O   0  0  0  0  0  0  0  0  0  0  0  0
  139.1770   74.1420  222.7430 H   0  0  0  0  0  0  0  0  0  0  0  0
  138.9340   78.2280  223.0980 C   0  0  0  0  0  0  0  0  0  0  0  0
  139.9541   78.6386  223.1258 H   0  0  0  0  0  0  0  0  0  0  0  0
  137.8550   79.0340  223.4630 C   0  0  0  0  0  0  0  0  0  0  0  0
  138.0300   80.3680  223.8820 C   0  0  0  0  0  0  0  0  0  0  0  0
  139.1950   80.8570  223.9340 O   0  0  0  0  0  0  0  0  0  0  0  0
  136.9420   81.1300  224.2310 N   0  0  0  0  0  0  0  0  0  0  0  0
  137.0980   82.4300  224.6450 C   0  0  0  0  0  0  0  0  0  0  0  0
  138.1063   82.8668  224.6955 H   0  0  0  0  0  0  0  0  0  0  0  0
  135.9910   83.2050  225.0030 C   0  0  0  0  0  0  0  0  0  0  0  0
  136.2060   84.8650  225.5310 Cl  0  0  0  0  0  0  0  0  0  0  0  0
  134.7160   82.6500  224.9400 C   0  0  0  0  0  0  0  0  0  0  0  0
  133.8378   83.2503  225.2201 H   0  0  0  0  0  0  0  0  0  0  0  0
  134.5570   81.3320  224.5210 C   0  0  0  0  0  0  0  0  0  0  0  0
  133.5532   80.8853  224.4681 H   0  0  0  0  0  0  0  0  0  0  0  0
  135.6810   80.5800  224.1680 C   0  0  0  0  0  0  0  0  0  0  0  0
  135.5130   79.2990  223.7600 N   0  0  0  0  0  0  0  0  0  0  0  0
  136.5570   78.5030  223.4050 C   0  0  0  0  0  0  0  0  0  0  0  0
  136.3370   77.2020  223.0040 N   0  0  0  0  0  0  0  0  0  0  0  0
  134.9320   76.7290  222.9400 C   0  0  0  0  0  0  0  0  0  0  0  0
  134.2958   77.5423  222.5609 H   0  0  0  0  0  0  0  0  0  0  0  0
  134.8860   75.8584  222.2692 H   0  0  0  0  0  0  0  0  0  0  0  0
  134.4380   76.3110  224.3040 C   0  0  0  0  0  0  0  0  0  0  0  0
  134.7520   75.0430  224.8240 C   0  0  0  0  0  0  0  0  0  0  0  0
  135.3554   74.3416  224.2290 H   0  0  0  0  0  0  0  0  0  0  0  0
  134.3010   74.6690  226.0940 C   0  0  0  0  0  0  0  0  0  0  0  0
  134.5499   73.6750  226.4939 H   0  0  0  0  0  0  0  0  0  0  0  0
  133.5350   75.5550  226.8560 C   0  0  0  0  0  0  0  0  0  0  0  0
  133.1825   75.2587  227.8550 H   0  0  0  0  0  0  0  0  0  0  0  0
  133.2170   76.8170  226.3490 C   0  0  0  0  0  0  0  0  0  0  0  0
  132.6137   77.5142  226.9490 H   0  0  0  0  0  0  0  0  0  0  0  0
  133.6650   77.1950  225.0790 C   0  0  0  0  0  0  0  0  0  0  0  0
  133.4114   78.1897  224.6836 H   0  0  0  0  0  0  0  0  0  0  0  0
  1  2  1  0
  2  3  2  0
  3  4  1  0
  4  5  1  0
  5  6  2  0
  6  7  1  0
  7  8  1  6
  7  9  1  0
  9 10  2  0
 10 11  1  0
 10 12  1  0
 12 13  1  0
 12 14  2  0
 14 15  1  0
 14 16  1  0
 16 17  1  0
 16 18  2  0
 18 19  1  0
  7 20  1  0
 20 21  1  0
 20 22  1  0
 20 23  1  0
  5 24  1  0
 24 25  1  0
  4 26  2  0
 26 27  1  0
 26 28  1  0
 28 29  1  0
 29 30  2  0
 29 31  1  0
 31 32  1  0
 32 33  1  0
 32 34  2  0
 34 35  1  0
 34 36  1  0
 36 37  1  0
 36 38  2  0
 38 39  1  0
 38 40  1  0
 40 41  2  0
 41 42  1  0
 42 43  1  0
 43 44  1  0
 44 45  1  0
 44 46  1  0
 44 47  1  0
 47 48  2  0
 48 49  1  0
 48 50  1  0
 50 51  1  0
 50 52  2  0
 52 53  1  0
 52 54  1  0
 54 55  1  0
 54 56  2  0
 56 57  1  0
 43  3  1  0
 56 47  1  0
 18  9  1  0
 42 28  2  0
 40 31  1  0
M  END
>  <UniqueID>  (24) 
101

>  <SMILES>  (24) 
[H]/N=c1/c(/C(O)=N/[C@@H](C)c2ccccc2)cc2c(=O)n3cc(Cl)ccc3nc2n1Cc1ccccc1

>  <Energy>  (24) 
90.18701297646199

>  <Genealogy>  (24) 
C[C@H](N=C(O)c1cc2c(=O)n3cc(Cl)ccc3nc2n(Cc2ccccc2)c1=N)c1ccccc1 (tautomer)
[H]/N=c1/c(/C(O)=N/[C@@H](C)c2ccccc2)cc2c(=O)n3cc(Cl)ccc3nc2n1Cc1ccccc1 (cis-trans isomerization)
[H]/N=c1/c(/C(O)=N/[C@@H](C)c2ccccc2)cc2c(=O)n3cc(Cl)ccc3nc2n1Cc1ccccc1 (3D coordinates assigned)
[H]/N=c1/c(/C(O)=N/[C@@H](C)c2ccccc2)cc2c(=O)n3cc(Cl)ccc3nc2n1Cc1ccccc1 (optimized conformer: 90.18701297646199 kcal/mol)

>  <smiles>  (24) 
C[C@H](NC(=O)c1cc2c(=O)n3cc(Cl)ccc3nc2n(Cc2ccccc2)c1=N)c1ccccc1

>  <score_type>  (24) 
oracle

>  <origin>  (24) 
autodockgpu

>  <m_score__min__energy>  (24) 
-8.0399999999999991

>  <m_primary>  (24) 
energy

>  <meeko>  (24) 
{"free_energy": -7.86, "intermolecular_energy": -10.25, "internal_energy": -2.61, "cluster_size": 18, "cluster_id": 2, "rank_in_cluster": 9}

>  <energy>  (24) 
-7.88

>  <cluster_rmsd>  (24) 
0.03

>  <rmsd>  (24) 
270.62

>  <cluster>  (24) 
2

$$$$
BLHILRPTNSSYME-FZQKWJEZNA-N
     RDKit          3D

 57 61  0  0  0  0  0  0  0  0999 V2000
  137.7630   74.3430  222.8330 H   0  0  0  0  0  0  0  0  0  0  0  0
  137.2690   75.1500  222.4020 N   0  0  0  0  0  0  0  0  0  0  0  0
  137.4180   76.4160  222.6760 C   0  0  0  0  0  0  0  0  0  0  0  0
  138.7340   76.9410  222.6870 C   0  0  0  0  0  0  0  0  0  0  0  0
  139.9270   76.1350  222.3100 C   0  0  0  0  0  0  0  0  0  0  0  0
  141.0760   76.7270  222.1290 N   0  0  0  0  0  0  0  0  0  0  0  0
  141.4190   77.8040  221.1940 C   0  0  2  0  0  0  0  0  0  0  0  0
  142.3745   77.5809  220.6968 H   0  0  0  0  0  0  0  0  0  0  0  0
  141.6990   79.1120  221.9250 C   0  0  0  0  0  0  0  0  0  0  0  0
  141.3240   80.3210  221.3090 C   0  0  0  0  0  0  0  0  0  0  0  0
  140.8526   80.3019  220.3153 H   0  0  0  0  0  0  0  0  0  0  0  0
  141.5440   81.5450  221.9460 C   0  0  0  0  0  0  0  0  0  0  0  0
  141.2548   82.4826  221.4487 H   0  0  0  0  0  0  0  0  0  0  0  0
  142.1300   81.5800  223.2120 C   0  0  0  0  0  0  0  0  0  0  0  0
  142.3050   82.5446  223.7109 H   0  0  0  0  0  0  0  0  0  0  0  0
  142.4940   80.3900  223.8450 C   0  0  0  0  0  0  0  0  0  0  0  0
  142.9537   80.4186  224.8439 H   0  0  0  0  0  0  0  0  0  0  0  0
  142.2760   79.1620  223.2130 C   0  0  0  0  0  0  0  0  0  0  0  0
  142.5559   78.2282  223.7226 H   0  0  0  0  0  0  0  0  0  0  0  0
  140.3940   77.8710  220.0510 C   0  0  0  0  0  0  0  0  0  0  0  0
  139.3797   77.9373  220.4715 H   0  0  0  0  0  0  0  0  0  0  0  0
  140.5929   78.7581  219.4317 H   0  0  0  0  0  0  0  0  0  0  0  0
  140.4757   76.9656  219.4317 H   0  0  0  0  0  0  0  0  0  0  0  0
  139.7780   74.7510  222.1750 O   0  0  0  0  0  0  0  0  0  0  0  0
  139.1710   74.1890  222.7510 H   0  0  0  0  0  0  0  0  0  0  0  0
  138.9330   78.2650  223.0850 C   0  0  0  0  0  0  0  0  0  0  0  0
  139.9518   78.6790  223.1108 H   0  0  0  0  0  0  0  0  0  0  0  0
  137.8520   79.0670  223.4500 C   0  0  0  0  0  0  0  0  0  0  0  0
  138.0230   80.4020  223.8670 C   0  0  0  0  0  0  0  0  0  0  0  0
  139.1870   80.8950  223.9190 O   0  0  0  0  0  0  0  0  0  0  0  0
  136.9330   81.1620  224.2160 N   0  0  0  0  0  0  0  0  0  0  0  0
  137.0860   82.4630  224.6290 C   0  0  0  0  0  0  0  0  0  0  0  0
  138.0930   82.9028  224.6788 H   0  0  0  0  0  0  0  0  0  0  0  0
  135.9760   83.2350  224.9870 C   0  0  0  0  0  0  0  0  0  0  0  0
  136.1870   84.8960  225.5130 Cl  0  0  0  0  0  0  0  0  0  0  0  0
  134.7030   82.6760  224.9250 C   0  0  0  0  0  0  0  0  0  0  0  0
  133.8231   83.2734  225.2060 H   0  0  0  0  0  0  0  0  0  0  0  0
  134.5480   81.3580  224.5060 C   0  0  0  0  0  0  0  0  0  0  0  0
  133.5455   80.9085  224.4529 H   0  0  0  0  0  0  0  0  0  0  0  0
  135.6740   80.6090  224.1530 C   0  0  0  0  0  0  0  0  0  0  0  0
  135.5090   79.3270  223.7470 N   0  0  0  0  0  0  0  0  0  0  0  0
  136.5550   78.5330  223.3930 C   0  0  0  0  0  0  0  0  0  0  0  0
  136.3390   77.2310  222.9930 N   0  0  0  0  0  0  0  0  0  0  0  0
  134.9350   76.7550  222.9290 C   0  0  0  0  0  0  0  0  0  0  0  0
  134.2980   77.5649  222.5439 H   0  0  0  0  0  0  0  0  0  0  0  0
  134.8919   75.8804  222.2632 H   0  0  0  0  0  0  0  0  0  0  0  0
  134.4390   76.3440  224.2950 C   0  0  0  0  0  0  0  0  0  0  0  0
  134.7730   75.0890  224.8330 C   0  0  0  0  0  0  0  0  0  0  0  0
  135.3929   74.3913  224.2507 H   0  0  0  0  0  0  0  0  0  0  0  0
  134.3210   74.7230  226.1050 C   0  0  0  0  0  0  0  0  0  0  0  0
  134.5865   73.7394  226.5198 H   0  0  0  0  0  0  0  0  0  0  0  0
  133.5330   75.6040  226.8500 C   0  0  0  0  0  0  0  0  0  0  0  0
  133.1791   75.3139  227.8503 H   0  0  0  0  0  0  0  0  0  0  0  0
  133.1950   76.8520  226.3250 C   0  0  0  0  0  0  0  0  0  0  0  0
  132.5746   77.5451  226.9122 H   0  0  0  0  0  0  0  0  0  0  0  0
  133.6440   77.2230  225.0530 C   0  0  0  0  0  0  0  0  0  0  0  0
  133.3739   78.2075  224.6432 H   0  0  0  0  0  0  0  0  0  0  0  0
  1  2  1  0
  2  3  2  0
  3  4  1  0
  4  5  1  0
  5  6  2  0
  6  7  1  0
  7  8  1  6
  7  9  1  0
  9 10  2  0
 10 11  1  0
 10 12  1  0
 12 13  1  0
 12 14  2  0
 14 15  1  0
 14 16  1  0
 16 17  1  0
 16 18  2  0
 18 19  1  0
  7 20  1  0
 20 21  1  0
 20 22  1  0
 20 23  1  0
  5 24  1  0
 24 25  1  0
  4 26  2  0
 26 27  1  0
 26 28  1  0
 28 29  1  0
 29 30  2  0
 29 31  1  0
 31 32  1  0
 32 33  1  0
 32 34  2  0
 34 35  1  0
 34 36  1  0
 36 37  1  0
 36 38  2  0
 38 39  1  0
 38 40  1  0
 40 41  2  0
 41 42  1  0
 42 43  1  0
 43 44  1  0
 44 45  1  0
 44 46  1  0
 44 47  1  0
 47 48  2  0
 48 49  1  0
 48 50  1  0
 50 51  1  0
 50 52  2  0
 52 53  1  0
 52 54  1  0
 54 55  1  0
 54 56  2  0
 56 57  1  0
 43  3  1  0
 56 47  1  0
 18  9  1  0
 42 28  2  0
 40 31  1  0
M  END
>  <UniqueID>  (25) 
101

>  <SMILES>  (25) 
[H]/N=c1/c(/C(O)=N/[C@@H](C)c2ccccc2)cc2c(=O)n3cc(Cl)ccc3nc2n1Cc1ccccc1

>  <Energy>  (25) 
90.18701297646199

>  <Genealogy>  (25) 
C[C@H](N=C(O)c1cc2c(=O)n3cc(Cl)ccc3nc2n(Cc2ccccc2)c1=N)c1ccccc1 (tautomer)
[H]/N=c1/c(/C(O)=N/[C@@H](C)c2ccccc2)cc2c(=O)n3cc(Cl)ccc3nc2n1Cc1ccccc1 (cis-trans isomerization)
[H]/N=c1/c(/C(O)=N/[C@@H](C)c2ccccc2)cc2c(=O)n3cc(Cl)ccc3nc2n1Cc1ccccc1 (3D coordinates assigned)
[H]/N=c1/c(/C(O)=N/[C@@H](C)c2ccccc2)cc2c(=O)n3cc(Cl)ccc3nc2n1Cc1ccccc1 (optimized conformer: 90.18701297646199 kcal/mol)

>  <smiles>  (25) 
C[C@H](NC(=O)c1cc2c(=O)n3cc(Cl)ccc3nc2n(Cc2ccccc2)c1=N)c1ccccc1

>  <score_type>  (25) 
oracle

>  <origin>  (25) 
autodockgpu

>  <m_score__min__energy>  (25) 
-8.0399999999999991

>  <m_primary>  (25) 
energy

>  <meeko>  (25) 
{"free_energy": -7.85, "intermolecular_energy": -10.24, "internal_energy": -2.61, "cluster_size": 18, "cluster_id": 2, "rank_in_cluster": 14}

>  <energy>  (25) 
-7.88

>  <cluster_rmsd>  (25) 
0.04

>  <rmsd>  (25) 
270.62

>  <cluster>  (25) 
2

$$$$
BLHILRPTNSSYME-FZQKWJEZNA-N
     RDKit          3D

 57 61  0  0  0  0  0  0  0  0999 V2000
  137.7580   74.3230  222.8100 H   0  0  0  0  0  0  0  0  0  0  0  0
  137.2730   75.1340  222.3770 N   0  0  0  0  0  0  0  0  0  0  0  0
  137.4260   76.3980  222.6560 C   0  0  0  0  0  0  0  0  0  0  0  0
  138.7450   76.9180  222.6710 C   0  0  0  0  0  0  0  0  0  0  0  0
  139.9350   76.1090  222.2920 C   0  0  0  0  0  0  0  0  0  0  0  0
  141.0810   76.7000  222.0950 N   0  0  0  0  0  0  0  0  0  0  0  0
  141.4120   77.7760  221.1540 C   0  0  2  0  0  0  0  0  0  0  0  0
  142.3766   77.5678  220.6681 H   0  0  0  0  0  0  0  0  0  0  0  0
  141.6590   79.0950  221.8760 C   0  0  0  0  0  0  0  0  0  0  0  0
  142.2090   79.0590  223.1710 C   0  0  0  0  0  0  0  0  0  0  0  0
  142.4358   78.0900  223.6396 H   0  0  0  0  0  0  0  0  0  0  0  0
  142.4700   80.2430  223.8680 C   0  0  0  0  0  0  0  0  0  0  0  0
  142.8910   80.2013  224.8834 H   0  0  0  0  0  0  0  0  0  0  0  0
  142.1970   81.4770  223.2770 C   0  0  0  0  0  0  0  0  0  0  0  0
  142.4005   82.4074  223.8274 H   0  0  0  0  0  0  0  0  0  0  0  0
  141.6660   81.5310  221.9880 C   0  0  0  0  0  0  0  0  0  0  0  0
  141.4537   82.5050  221.5229 H   0  0  0  0  0  0  0  0  0  0  0  0
  141.4030   80.3520  221.2860 C   0  0  0  0  0  0  0  0  0  0  0  0
  140.9936   80.4034  220.2663 H   0  0  0  0  0  0  0  0  0  0  0  0
  140.3970   77.8130  220.0010 C   0  0  0  0  0  0  0  0  0  0  0  0
  139.3771   77.8502  220.4114 H   0  0  0  0  0  0  0  0  0  0  0  0
  140.5764   78.7052  219.3831 H   0  0  0  0  0  0  0  0  0  0  0  0
  140.5109   76.9101  219.3831 H   0  0  0  0  0  0  0  0  0  0  0  0
  139.7860   74.7230  222.1740 O   0  0  0  0  0  0  0  0  0  0  0  0
  139.1730   74.1690  222.7510 H   0  0  0  0  0  0  0  0  0  0  0  0
  138.9480   78.2390  223.0750 C   0  0  0  0  0  0  0  0  0  0  0  0
  139.9683   78.6490  223.1042 H   0  0  0  0  0  0  0  0  0  0  0  0
  137.8690   79.0440  223.4420 C   0  0  0  0  0  0  0  0  0  0  0  0
  138.0450   80.3770  223.8660 C   0  0  0  0  0  0  0  0  0  0  0  0
  139.2100   80.8650  223.9210 O   0  0  0  0  0  0  0  0  0  0  0  0
  136.9570   81.1390  224.2160 N   0  0  0  0  0  0  0  0  0  0  0  0
  137.1150   82.4370  224.6350 C   0  0  0  0  0  0  0  0  0  0  0  0
  138.1238   82.8724  224.6882 H   0  0  0  0  0  0  0  0  0  0  0  0
  136.0070   83.2120  224.9950 C   0  0  0  0  0  0  0  0  0  0  0  0
  136.2240   84.8700  225.5290 Cl  0  0  0  0  0  0  0  0  0  0  0  0
  134.7320   82.6590  224.9280 C   0  0  0  0  0  0  0  0  0  0  0  0
  133.8539   83.2591  225.2088 H   0  0  0  0  0  0  0  0  0  0  0  0
  134.5730   81.3430  224.5040 C   0  0  0  0  0  0  0  0  0  0  0  0
  133.5689   80.8973  224.4486 H   0  0  0  0  0  0  0  0  0  0  0  0
  135.6960   80.5910  224.1490 C   0  0  0  0  0  0  0  0  0  0  0  0
  135.5270   79.3110  223.7370 N   0  0  0  0  0  0  0  0  0  0  0  0
  136.5700   78.5150  223.3810 C   0  0  0  0  0  0  0  0  0  0  0  0
  136.3500   77.2160  222.9750 N   0  0  0  0  0  0  0  0  0  0  0  0
  134.9440   76.7450  222.9070 C   0  0  0  0  0  0  0  0  0  0  0  0
  134.3110   77.5571  222.5201 H   0  0  0  0  0  0  0  0  0  0  0  0
  134.8994   75.8706  222.2411 H   0  0  0  0  0  0  0  0  0  0  0  0
  134.4430   76.3360  224.2720 C   0  0  0  0  0  0  0  0  0  0  0  0
  134.7650   75.0780  224.8080 C   0  0  0  0  0  0  0  0  0  0  0  0
  135.3797   74.3762  224.2253 H   0  0  0  0  0  0  0  0  0  0  0  0
  134.3080   74.7130  226.0790 C   0  0  0  0  0  0  0  0  0  0  0  0
  134.5644   73.7263  226.4921 H   0  0  0  0  0  0  0  0  0  0  0  0
  133.5260   75.6000  226.8250 C   0  0  0  0  0  0  0  0  0  0  0  0
  133.1679   75.3114  227.8242 H   0  0  0  0  0  0  0  0  0  0  0  0
  133.2000   76.8520  226.3010 C   0  0  0  0  0  0  0  0  0  0  0  0
  132.5848   77.5496  226.8882 H   0  0  0  0  0  0  0  0  0  0  0  0
  133.6540   77.2210  225.0310 C   0  0  0  0  0  0  0  0  0  0  0  0
  133.3932   78.2085  224.6226 H   0  0  0  0  0  0  0  0  0  0  0  0
  1  2  1  0
  2  3  2  0
  3  4  1  0
  4  5  1  0
  5  6  2  0
  6  7  1  0
  7  8  1  6
  7  9  1  0
  9 10  2  0
 10 11  1  0
 10 12  1  0
 12 13  1  0
 12 14  2  0
 14 15  1  0
 14 16  1  0
 16 17  1  0
 16 18  2  0
 18 19  1  0
  7 20  1  0
 20 21  1  0
 20 22  1  0
 20 23  1  0
  5 24  1  0
 24 25  1  0
  4 26  2  0
 26 27  1  0
 26 28  1  0
 28 29  1  0
 29 30  2  0
 29 31  1  0
 31 32  1  0
 32 33  1  0
 32 34  2  0
 34 35  1  0
 34 36  1  0
 36 37  1  0
 36 38  2  0
 38 39  1  0
 38 40  1  0
 40 41  2  0
 41 42  1  0
 42 43  1  0
 43 44  1  0
 44 45  1  0
 44 46  1  0
 44 47  1  0
 47 48  2  0
 48 49  1  0
 48 50  1  0
 50 51  1  0
 50 52  2  0
 52 53  1  0
 52 54  1  0
 54 55  1  0
 54 56  2  0
 56 57  1  0
 43  3  1  0
 56 47  1  0
 18  9  1  0
 42 28  2  0
 40 31  1  0
M  END
>  <UniqueID>  (26) 
101

>  <SMILES>  (26) 
[H]/N=c1/c(/C(O)=N/[C@@H](C)c2ccccc2)cc2c(=O)n3cc(Cl)ccc3nc2n1Cc1ccccc1

>  <Energy>  (26) 
90.18701297646199

>  <Genealogy>  (26) 
C[C@H](N=C(O)c1cc2c(=O)n3cc(Cl)ccc3nc2n(Cc2ccccc2)c1=N)c1ccccc1 (tautomer)
[H]/N=c1/c(/C(O)=N/[C@@H](C)c2ccccc2)cc2c(=O)n3cc(Cl)ccc3nc2n1Cc1ccccc1 (cis-trans isomerization)
[H]/N=c1/c(/C(O)=N/[C@@H](C)c2ccccc2)cc2c(=O)n3cc(Cl)ccc3nc2n1Cc1ccccc1 (3D coordinates assigned)
[H]/N=c1/c(/C(O)=N/[C@@H](C)c2ccccc2)cc2c(=O)n3cc(Cl)ccc3nc2n1Cc1ccccc1 (optimized conformer: 90.18701297646199 kcal/mol)

>  <smiles>  (26) 
C[C@H](NC(=O)c1cc2c(=O)n3cc(Cl)ccc3nc2n(Cc2ccccc2)c1=N)c1ccccc1

>  <score_type>  (26) 
oracle

>  <origin>  (26) 
autodockgpu

>  <m_score__min__energy>  (26) 
-8.0399999999999991

>  <m_primary>  (26) 
energy

>  <meeko>  (26) 
{"free_energy": -7.88, "intermolecular_energy": -10.27, "internal_energy": -2.6, "cluster_size": 18, "cluster_id": 2, "rank_in_cluster": 1}

>  <energy>  (26) 
-7.87

>  <cluster_rmsd>  (26) 
0.04

>  <rmsd>  (26) 
270.63

>  <cluster>  (26) 
2

$$$$
BLHILRPTNSSYME-FZQKWJEZNA-N
     RDKit          3D

 57 61  0  0  0  0  0  0  0  0999 V2000
  137.7340   74.3100  222.8210 H   0  0  0  0  0  0  0  0  0  0  0  0
  137.2470   75.1220  222.3920 N   0  0  0  0  0  0  0  0  0  0  0  0
  137.4040   76.3850  222.6730 C   0  0  0  0  0  0  0  0  0  0  0  0
  138.7230   76.9030  222.6880 C   0  0  0  0  0  0  0  0  0  0  0  0
  139.9120   76.0910  222.3090 C   0  0  0  0  0  0  0  0  0  0  0  0
  141.0630   76.6780  222.1290 N   0  0  0  0  0  0  0  0  0  0  0  0
  141.4150   77.7460  221.1860 C   0  0  2  0  0  0  0  0  0  0  0  0
  142.3861   77.5302  220.7165 H   0  0  0  0  0  0  0  0  0  0  0  0
  141.6570   79.0680  221.9040 C   0  0  0  0  0  0  0  0  0  0  0  0
  142.1870   79.0390  223.2070 C   0  0  0  0  0  0  0  0  0  0  0  0
  142.4031   78.0722  223.6850 H   0  0  0  0  0  0  0  0  0  0  0  0
  142.4420   80.2260  223.9010 C   0  0  0  0  0  0  0  0  0  0  0  0
  142.8473   80.1885  224.9229 H   0  0  0  0  0  0  0  0  0  0  0  0
  142.1830   81.4580  223.2990 C   0  0  0  0  0  0  0  0  0  0  0  0
  142.3820   82.3911  223.8465 H   0  0  0  0  0  0  0  0  0  0  0  0
  141.6710   81.5050  222.0010 C   0  0  0  0  0  0  0  0  0  0  0  0
  141.4698   82.4767  221.5264 H   0  0  0  0  0  0  0  0  0  0  0  0
  141.4130   80.3220  221.3020 C   0  0  0  0  0  0  0  0  0  0  0  0
  141.0174   80.3683  220.2766 H   0  0  0  0  0  0  0  0  0  0  0  0
  140.4190   77.7800  220.0160 C   0  0  0  0  0  0  0  0  0  0  0  0
  139.3923   77.8150  220.4094 H   0  0  0  0  0  0  0  0  0  0  0  0
  140.6066   78.6723  219.4006 H   0  0  0  0  0  0  0  0  0  0  0  0
  140.5453   76.8770  219.4006 H   0  0  0  0  0  0  0  0  0  0  0  0
  139.7560   74.7080  222.1710 O   0  0  0  0  0  0  0  0  0  0  0  0
  139.1490   74.1470  222.7480 H   0  0  0  0  0  0  0  0  0  0  0  0
  138.9290   78.2230  223.0940 C   0  0  0  0  0  0  0  0  0  0  0  0
  139.9504   78.6302  223.1246 H   0  0  0  0  0  0  0  0  0  0  0  0
  137.8530   79.0300  223.4610 C   0  0  0  0  0  0  0  0  0  0  0  0
  138.0310   80.3620  223.8860 C   0  0  0  0  0  0  0  0  0  0  0  0
  139.1980   80.8470  223.9420 O   0  0  0  0  0  0  0  0  0  0  0  0
  136.9460   81.1260  224.2370 N   0  0  0  0  0  0  0  0  0  0  0  0
  137.1060   82.4240  224.6570 C   0  0  0  0  0  0  0  0  0  0  0  0
  138.1155   82.8576  224.7101 H   0  0  0  0  0  0  0  0  0  0  0  0
  136.0000   83.2010  225.0180 C   0  0  0  0  0  0  0  0  0  0  0  0
  136.2210   84.8580  225.5530 Cl  0  0  0  0  0  0  0  0  0  0  0  0
  134.7240   82.6500  224.9510 C   0  0  0  0  0  0  0  0  0  0  0  0
  133.8474   83.2514  225.2337 H   0  0  0  0  0  0  0  0  0  0  0  0
  134.5610   81.3350  224.5250 C   0  0  0  0  0  0  0  0  0  0  0  0
  133.5557   80.8921  224.4681 H   0  0  0  0  0  0  0  0  0  0  0  0
  135.6830   80.5810  224.1700 C   0  0  0  0  0  0  0  0  0  0  0  0
  135.5110   79.3020  223.7570 N   0  0  0  0  0  0  0  0  0  0  0  0
  136.5530   78.5040  223.3990 C   0  0  0  0  0  0  0  0  0  0  0  0
  136.3300   77.2050  222.9920 N   0  0  0  0  0  0  0  0  0  0  0  0
  134.9230   76.7380  222.9240 C   0  0  0  0  0  0  0  0  0  0  0  0
  134.2924   77.5523  222.5377 H   0  0  0  0  0  0  0  0  0  0  0  0
  134.8765   75.8640  222.2577 H   0  0  0  0  0  0  0  0  0  0  0  0
  134.4200   76.3290  224.2880 C   0  0  0  0  0  0  0  0  0  0  0  0
  133.6030   77.1900  225.0410 C   0  0  0  0  0  0  0  0  0  0  0  0
  133.3327   78.1779  224.6397 H   0  0  0  0  0  0  0  0  0  0  0  0
  133.1320   76.7970  226.2980 C   0  0  0  0  0  0  0  0  0  0  0  0
  132.4942   77.4766  226.8823 H   0  0  0  0  0  0  0  0  0  0  0  0
  133.4700   75.5430  226.8130 C   0  0  0  0  0  0  0  0  0  0  0  0
  133.0969   75.2356  227.8011 H   0  0  0  0  0  0  0  0  0  0  0  0
  134.2810   74.6800  226.0740 C   0  0  0  0  0  0  0  0  0  0  0  0
  134.5466   73.6929  226.4803 H   0  0  0  0  0  0  0  0  0  0  0  0
  134.7560   75.0690  224.8180 C   0  0  0  0  0  0  0  0  0  0  0  0
  135.3963   74.3862  224.2403 H   0  0  0  0  0  0  0  0  0  0  0  0
  1  2  1  0
  2  3  2  0
  3  4  1  0
  4  5  1  0
  5  6  2  0
  6  7  1  0
  7  8  1  6
  7  9  1  0
  9 10  2  0
 10 11  1  0
 10 12  1  0
 12 13  1  0
 12 14  2  0
 14 15  1  0
 14 16  1  0
 16 17  1  0
 16 18  2  0
 18 19  1  0
  7 20  1  0
 20 21  1  0
 20 22  1  0
 20 23  1  0
  5 24  1  0
 24 25  1  0
  4 26  2  0
 26 27  1  0
 26 28  1  0
 28 29  1  0
 29 30  2  0
 29 31  1  0
 31 32  1  0
 32 33  1  0
 32 34  2  0
 34 35  1  0
 34 36  1  0
 36 37  1  0
 36 38  2  0
 38 39  1  0
 38 40  1  0
 40 41  2  0
 41 42  1  0
 42 43  1  0
 43 44  1  0
 44 45  1  0
 44 46  1  0
 44 47  1  0
 47 48  2  0
 48 49  1  0
 48 50  1  0
 50 51  1  0
 50 52  2  0
 52 53  1  0
 52 54  1  0
 54 55  1  0
 54 56  2  0
 56 57  1  0
 43  3  1  0
 56 47  1  0
 18  9  1  0
 42 28  2  0
 40 31  1  0
M  END
>  <UniqueID>  (27) 
101

>  <SMILES>  (27) 
[H]/N=c1/c(/C(O)=N/[C@@H](C)c2ccccc2)cc2c(=O)n3cc(Cl)ccc3nc2n1Cc1ccccc1

>  <Energy>  (27) 
90.18701297646199

>  <Genealogy>  (27) 
C[C@H](N=C(O)c1cc2c(=O)n3cc(Cl)ccc3nc2n(Cc2ccccc2)c1=N)c1ccccc1 (tautomer)
[H]/N=c1/c(/C(O)=N/[C@@H](C)c2ccccc2)cc2c(=O)n3cc(Cl)ccc3nc2n1Cc1ccccc1 (cis-trans isomerization)
[H]/N=c1/c(/C(O)=N/[C@@H](C)c2ccccc2)cc2c(=O)n3cc(Cl)ccc3nc2n1Cc1ccccc1 (3D coordinates assigned)
[H]/N=c1/c(/C(O)=N/[C@@H](C)c2ccccc2)cc2c(=O)n3cc(Cl)ccc3nc2n1Cc1ccccc1 (optimized conformer: 90.18701297646199 kcal/mol)

>  <smiles>  (27) 
C[C@H](NC(=O)c1cc2c(=O)n3cc(Cl)ccc3nc2n(Cc2ccccc2)c1=N)c1ccccc1

>  <score_type>  (27) 
oracle

>  <origin>  (27) 
autodockgpu

>  <m_score__min__energy>  (27) 
-8.0399999999999991

>  <m_primary>  (27) 
energy

>  <meeko>  (27) 
{"free_energy": -7.87, "intermolecular_energy": -10.25, "internal_energy": -2.6, "cluster_size": 18, "cluster_id": 2, "rank_in_cluster": 8}

>  <energy>  (27) 
-7.87

>  <cluster_rmsd>  (27) 
0.04

>  <rmsd>  (27) 
270.64

>  <cluster>  (27) 
2

$$$$
BLHILRPTNSSYME-FZQKWJEZNA-N
     RDKit          3D

 57 61  0  0  0  0  0  0  0  0999 V2000
  137.7650   74.3190  222.8440 H   0  0  0  0  0  0  0  0  0  0  0  0
  137.2730   75.1270  222.4120 N   0  0  0  0  0  0  0  0  0  0  0  0
  137.4250   76.3920  222.6870 C   0  0  0  0  0  0  0  0  0  0  0  0
  138.7420   76.9160  222.6960 C   0  0  0  0  0  0  0  0  0  0  0  0
  139.9330   76.1080  222.3170 C   0  0  0  0  0  0  0  0  0  0  0  0
  141.0830   76.6980  222.1390 N   0  0  0  0  0  0  0  0  0  0  0  0
  141.4290   77.7770  221.2080 C   0  0  2  0  0  0  0  0  0  0  0  0
  142.3845   77.5536  220.7109 H   0  0  0  0  0  0  0  0  0  0  0  0
  141.7100   79.0820  221.9440 C   0  0  0  0  0  0  0  0  0  0  0  0
  141.3890   80.2960  221.3060 C   0  0  0  0  0  0  0  0  0  0  0  0
  140.9581   80.2822  220.2940 H   0  0  0  0  0  0  0  0  0  0  0  0
  141.6130   81.5190  221.9470 C   0  0  0  0  0  0  0  0  0  0  0  0
  141.3669   82.4608  221.4347 H   0  0  0  0  0  0  0  0  0  0  0  0
  142.1480   81.5460  223.2350 C   0  0  0  0  0  0  0  0  0  0  0  0
  142.3262   82.5087  223.7365 H   0  0  0  0  0  0  0  0  0  0  0  0
  142.4570   80.3520  223.8870 C   0  0  0  0  0  0  0  0  0  0  0  0
  142.8761   80.3754  224.9037 H   0  0  0  0  0  0  0  0  0  0  0  0
  142.2360   79.1260  223.2530 C   0  0  0  0  0  0  0  0  0  0  0  0
  142.4737   78.1890  223.7779 H   0  0  0  0  0  0  0  0  0  0  0  0
  140.4050   77.8500  220.0640 C   0  0  0  0  0  0  0  0  0  0  0  0
  139.3908   77.9223  220.4838 H   0  0  0  0  0  0  0  0  0  0  0  0
  140.6095   78.7358  219.4448 H   0  0  0  0  0  0  0  0  0  0  0  0
  140.4818   76.9441  219.4448 H   0  0  0  0  0  0  0  0  0  0  0  0
  139.7810   74.7250  222.1790 O   0  0  0  0  0  0  0  0  0  0  0  0
  139.1800   74.1610  222.7590 H   0  0  0  0  0  0  0  0  0  0  0  0
  138.9430   78.2380  223.0950 C   0  0  0  0  0  0  0  0  0  0  0  0
  139.9627   78.6498  223.1205 H   0  0  0  0  0  0  0  0  0  0  0  0
  137.8640   79.0430  223.4620 C   0  0  0  0  0  0  0  0  0  0  0  0
  138.0370   80.3770  223.8810 C   0  0  0  0  0  0  0  0  0  0  0  0
  139.2010   80.8680  223.9310 O   0  0  0  0  0  0  0  0  0  0  0  0
  136.9490   81.1380  224.2310 N   0  0  0  0  0  0  0  0  0  0  0  0
  137.1040   82.4380  224.6440 C   0  0  0  0  0  0  0  0  0  0  0  0
  138.1117   82.8764  224.6916 H   0  0  0  0  0  0  0  0  0  0  0  0
  135.9960   83.2120  225.0050 C   0  0  0  0  0  0  0  0  0  0  0  0
  136.2100   84.8720  225.5320 Cl  0  0  0  0  0  0  0  0  0  0  0  0
  134.7220   82.6550  224.9430 C   0  0  0  0  0  0  0  0  0  0  0  0
  133.8430   83.2538  225.2239 H   0  0  0  0  0  0  0  0  0  0  0  0
  134.5650   81.3370  224.5240 C   0  0  0  0  0  0  0  0  0  0  0  0
  133.5619   80.8885  224.4727 H   0  0  0  0  0  0  0  0  0  0  0  0
  135.6890   80.5870  224.1690 C   0  0  0  0  0  0  0  0  0  0  0  0
  135.5220   79.3050  223.7620 N   0  0  0  0  0  0  0  0  0  0  0  0
  136.5660   78.5100  223.4060 C   0  0  0  0  0  0  0  0  0  0  0  0
  136.3470   77.2090  223.0050 N   0  0  0  0  0  0  0  0  0  0  0  0
  134.9420   76.7350  222.9430 C   0  0  0  0  0  0  0  0  0  0  0  0
  134.3069   77.5432  222.5513 H   0  0  0  0  0  0  0  0  0  0  0  0
  134.8980   75.8557  222.2836 H   0  0  0  0  0  0  0  0  0  0  0  0
  134.4440   76.3350  224.3110 C   0  0  0  0  0  0  0  0  0  0  0  0
  133.6780   77.2240  225.0840 C   0  0  0  0  0  0  0  0  0  0  0  0
  133.4466   78.2269  224.6959 H   0  0  0  0  0  0  0  0  0  0  0  0
  133.2080   76.8400  226.3450 C   0  0  0  0  0  0  0  0  0  0  0  0
  132.6092   77.5413  226.9446 H   0  0  0  0  0  0  0  0  0  0  0  0
  133.4980   75.5670  226.8440 C   0  0  0  0  0  0  0  0  0  0  0  0
  133.1268   75.2666  227.8350 H   0  0  0  0  0  0  0  0  0  0  0  0
  134.2590   74.6770  226.0840 C   0  0  0  0  0  0  0  0  0  0  0  0
  134.4879   73.6755  226.4772 H   0  0  0  0  0  0  0  0  0  0  0  0
  134.7310   75.0570  224.8230 C   0  0  0  0  0  0  0  0  0  0  0  0
  135.3303   74.3518  224.2283 H   0  0  0  0  0  0  0  0  0  0  0  0
  1  2  1  0
  2  3  2  0
  3  4  1  0
  4  5  1  0
  5  6  2  0
  6  7  1  0
  7  8  1  6
  7  9  1  0
  9 10  2  0
 10 11  1  0
 10 12  1  0
 12 13  1  0
 12 14  2  0
 14 15  1  0
 14 16  1  0
 16 17  1  0
 16 18  2  0
 18 19  1  0
  7 20  1  0
 20 21  1  0
 20 22  1  0
 20 23  1  0
  5 24  1  0
 24 25  1  0
  4 26  2  0
 26 27  1  0
 26 28  1  0
 28 29  1  0
 29 30  2  0
 29 31  1  0
 31 32  1  0
 32 33  1  0
 32 34  2  0
 34 35  1  0
 34 36  1  0
 36 37  1  0
 36 38  2  0
 38 39  1  0
 38 40  1  0
 40 41  2  0
 41 42  1  0
 42 43  1  0
 43 44  1  0
 44 45  1  0
 44 46  1  0
 44 47  1  0
 47 48  2  0
 48 49  1  0
 48 50  1  0
 50 51  1  0
 50 52  2  0
 52 53  1  0
 52 54  1  0
 54 55  1  0
 54 56  2  0
 56 57  1  0
 43  3  1  0
 56 47  1  0
 18  9  1  0
 42 28  2  0
 40 31  1  0
M  END
>  <UniqueID>  (28) 
101

>  <SMILES>  (28) 
[H]/N=c1/c(/C(O)=N/[C@@H](C)c2ccccc2)cc2c(=O)n3cc(Cl)ccc3nc2n1Cc1ccccc1

>  <Energy>  (28) 
90.18701297646199

>  <Genealogy>  (28) 
C[C@H](N=C(O)c1cc2c(=O)n3cc(Cl)ccc3nc2n(Cc2ccccc2)c1=N)c1ccccc1 (tautomer)
[H]/N=c1/c(/C(O)=N/[C@@H](C)c2ccccc2)cc2c(=O)n3cc(Cl)ccc3nc2n1Cc1ccccc1 (cis-trans isomerization)
[H]/N=c1/c(/C(O)=N/[C@@H](C)c2ccccc2)cc2c(=O)n3cc(Cl)ccc3nc2n1Cc1ccccc1 (3D coordinates assigned)
[H]/N=c1/c(/C(O)=N/[C@@H](C)c2ccccc2)cc2c(=O)n3cc(Cl)ccc3nc2n1Cc1ccccc1 (optimized conformer: 90.18701297646199 kcal/mol)

>  <smiles>  (28) 
C[C@H](NC(=O)c1cc2c(=O)n3cc(Cl)ccc3nc2n(Cc2ccccc2)c1=N)c1ccccc1

>  <score_type>  (28) 
oracle

>  <origin>  (28) 
autodockgpu

>  <m_score__min__energy>  (28) 
-8.0399999999999991

>  <m_primary>  (28) 
energy

>  <meeko>  (28) 
{"free_energy": -7.86, "intermolecular_energy": -10.25, "internal_energy": -2.6, "cluster_size": 18, "cluster_id": 2, "rank_in_cluster": 11}

>  <energy>  (28) 
-7.87

>  <cluster_rmsd>  (28) 
0.06

>  <rmsd>  (28) 
270.63

>  <cluster>  (28) 
2

$$$$
BLHILRPTNSSYME-FZQKWJEZNA-N
     RDKit          3D

 57 61  0  0  0  0  0  0  0  0999 V2000
  140.6490   68.8830  221.0690 H   0  0  0  0  0  0  0  0  0  0  0  0
  140.8350   69.7290  220.4950 N   0  0  0  0  0  0  0  0  0  0  0  0
  140.7250   70.9780  220.8550 C   0  0  0  0  0  0  0  0  0  0  0  0
  139.7840   71.2960  221.8660 C   0  0  0  0  0  0  0  0  0  0  0  0
  138.9960   70.2600  222.5890 C   0  0  0  0  0  0  0  0  0  0  0  0
  138.6240   70.4750  223.8210 N   0  0  0  0  0  0  0  0  0  0  0  0
  138.8390   69.6390  225.0060 C   0  0  2  0  0  0  0  0  0  0  0  0
  137.8911   69.5029  225.5472 H   0  0  0  0  0  0  0  0  0  0  0  0
  139.7320   70.3340  226.0270 C   0  0  0  0  0  0  0  0  0  0  0  0
  140.5950   71.3530  225.5820 C   0  0  0  0  0  0  0  0  0  0  0  0
  140.6201   71.6173  224.5145 H   0  0  0  0  0  0  0  0  0  0  0  0
  141.4210   72.0330  226.4830 C   0  0  0  0  0  0  0  0  0  0  0  0
  142.0967   72.8219  226.1209 H   0  0  0  0  0  0  0  0  0  0  0  0
  141.3890   71.7120  227.8400 C   0  0  0  0  0  0  0  0  0  0  0  0
  142.0423   72.2446  228.5468 H   0  0  0  0  0  0  0  0  0  0  0  0
  140.5280   70.7150  228.3010 C   0  0  0  0  0  0  0  0  0  0  0  0
  140.5010   70.4660  229.3721 H   0  0  0  0  0  0  0  0  0  0  0  0
  139.7000   70.0320  227.4060 C   0  0  0  0  0  0  0  0  0  0  0  0
  139.0182   69.2533  227.7786 H   0  0  0  0  0  0  0  0  0  0  0  0
  139.2580   68.2190  224.5940 C   0  0  0  0  0  0  0  0  0  0  0  0
  139.4366   67.6135  225.4948 H   0  0  0  0  0  0  0  0  0  0  0  0
  138.4572   67.7594  223.9961 H   0  0  0  0  0  0  0  0  0  0  0  0
  140.1801   68.2677  223.9961 H   0  0  0  0  0  0  0  0  0  0  0  0
  138.6640   69.0840  221.9100 O   0  0  0  0  0  0  0  0  0  0  0  0
  138.8830   68.9080  220.9410 H   0  0  0  0  0  0  0  0  0  0  0  0
  139.5650   72.6360  222.1910 C   0  0  0  0  0  0  0  0  0  0  0  0
  138.8252   72.8953  222.9626 H   0  0  0  0  0  0  0  0  0  0  0  0
  140.2750   73.6490  221.5470 C   0  0  0  0  0  0  0  0  0  0  0  0
  140.0670   75.0100  221.8450 C   0  0  0  0  0  0  0  0  0  0  0  0
  139.2130   75.3330  222.7200 O   0  0  0  0  0  0  0  0  0  0  0  0
  140.7870   75.9790  221.1900 N   0  0  0  0  0  0  0  0  0  0  0  0
  140.5910   77.3090  221.4690 C   0  0  0  0  0  0  0  0  0  0  0  0
  139.8507   77.6019  222.2280 H   0  0  0  0  0  0  0  0  0  0  0  0
  141.3220   78.2960  220.7990 C   0  0  0  0  0  0  0  0  0  0  0  0
  141.0610   79.9920  221.1660 Cl  0  0  0  0  0  0  0  0  0  0  0  0
  142.2580   77.9230  219.8390 C   0  0  0  0  0  0  0  0  0  0  0  0
  142.8385   78.6902  219.3057 H   0  0  0  0  0  0  0  0  0  0  0  0
  142.4560   76.5750  219.5570 C   0  0  0  0  0  0  0  0  0  0  0  0
  143.1936   76.2712  218.7996 H   0  0  0  0  0  0  0  0  0  0  0  0
  141.7130   75.6090  220.2410 C   0  0  0  0  0  0  0  0  0  0  0  0
  141.9160   74.3000  219.9570 N   0  0  0  0  0  0  0  0  0  0  0  0
  141.2290   73.3030  220.5760 C   0  0  0  0  0  0  0  0  0  0  0  0
  141.4640   71.9840  220.2490 N   0  0  0  0  0  0  0  0  0  0  0  0
  142.5130   71.7040  219.2360 C   0  0  0  0  0  0  0  0  0  0  0  0
  142.6475   70.6157  219.1490 H   0  0  0  0  0  0  0  0  0  0  0  0
  142.1937   72.1314  218.2740 H   0  0  0  0  0  0  0  0  0  0  0  0
  143.8280   72.3340  219.6290 C   0  0  0  0  0  0  0  0  0  0  0  0
  144.1970   72.4420  220.9800 C   0  0  0  0  0  0  0  0  0  0  0  0
  143.5183   72.0744  221.7637 H   0  0  0  0  0  0  0  0  0  0  0  0
  145.4240   73.0150  221.3340 C   0  0  0  0  0  0  0  0  0  0  0  0
  145.7065   73.0964  222.3940 H   0  0  0  0  0  0  0  0  0  0  0  0
  146.2910   73.4840  220.3430 C   0  0  0  0  0  0  0  0  0  0  0  0
  147.2549   73.9340  220.6231 H   0  0  0  0  0  0  0  0  0  0  0  0
  145.9330   73.3810  218.9970 C   0  0  0  0  0  0  0  0  0  0  0  0
  146.6158   73.7496  218.2173 H   0  0  0  0  0  0  0  0  0  0  0  0
  144.7080   72.8100  218.6390 C   0  0  0  0  0  0  0  0  0  0  0  0
  144.4303   72.7323  217.5775 H   0  0  0  0  0  0  0  0  0  0  0  0
  1  2  1  0
  2  3  2  0
  3  4  1  0
  4  5  1  0
  5  6  2  0
  6  7  1  0
  7  8  1  1
  7  9  1  0
  9 10  2  0
 10 11  1  0
 10 12  1  0
 12 13  1  0
 12 14  2  0
 14 15  1  0
 14 16  1  0
 16 17  1  0
 16 18  2  0
 18 19  1  0
  7 20  1  0
 20 21  1  0
 20 22  1  0
 20 23  1  0
  5 24  1  0
 24 25  1  0
  4 26  2  0
 26 27  1  0
 26 28  1  0
 28 29  1  0
 29 30  2  0
 29 31  1  0
 31 32  1  0
 32 33  1  0
 32 34  2  0
 34 35  1  0
 34 36  1  0
 36 37  1  0
 36 38  2  0
 38 39  1  0
 38 40  1  0
 40 41  2  0
 41 42  1  0
 42 43  1  0
 43 44  1  0
 44 45  1  0
 44 46  1  0
 44 47  1  0
 47 48  2  0
 48 49  1  0
 48 50  1  0
 50 51  1  0
 50 52  2  0
 52 53  1  0
 52 54  1  0
 54 55  1  0
 54 56  2  0
 56 57  1  0
 43  3  1  0
 56 47  1  0
 18  9  1  0
 42 28  2  0
 40 31  1  0
M  END
>  <UniqueID>  (29) 
101

>  <SMILES>  (29) 
[H]/N=c1/c(/C(O)=N/[C@@H](C)c2ccccc2)cc2c(=O)n3cc(Cl)ccc3nc2n1Cc1ccccc1

>  <Energy>  (29) 
90.18701297646199

>  <Genealogy>  (29) 
C[C@H](N=C(O)c1cc2c(=O)n3cc(Cl)ccc3nc2n(Cc2ccccc2)c1=N)c1ccccc1 (tautomer)
[H]/N=c1/c(/C(O)=N/[C@@H](C)c2ccccc2)cc2c(=O)n3cc(Cl)ccc3nc2n1Cc1ccccc1 (cis-trans isomerization)
[H]/N=c1/c(/C(O)=N/[C@@H](C)c2ccccc2)cc2c(=O)n3cc(Cl)ccc3nc2n1Cc1ccccc1 (3D coordinates assigned)
[H]/N=c1/c(/C(O)=N/[C@@H](C)c2ccccc2)cc2c(=O)n3cc(Cl)ccc3nc2n1Cc1ccccc1 (optimized conformer: 90.18701297646199 kcal/mol)

>  <smiles>  (29) 
C[C@H](NC(=O)c1cc2c(=O)n3cc(Cl)ccc3nc2n(Cc2ccccc2)c1=N)c1ccccc1

>  <score_type>  (29) 
oracle

>  <origin>  (29) 
autodockgpu

>  <m_score__min__energy>  (29) 
-8.0399999999999991

>  <m_primary>  (29) 
energy

>  <meeko>  (29) 
{"free_energy": -8.04, "intermolecular_energy": -10.43, "internal_energy": -2.29, "cluster_size": 1, "cluster_id": 1, "rank_in_cluster": 1}

>  <energy>  (29) 
-7.87

>  <cluster_rmsd>  (29) 
0.04

>  <rmsd>  (29) 
270.63

>  <cluster>  (29) 
2

$$$$
BLHILRPTNSSYME-FZQKWJEZNA-N
     RDKit          3D

 57 61  0  0  0  0  0  0  0  0999 V2000
  137.7370   74.3080  222.8530 H   0  0  0  0  0  0  0  0  0  0  0  0
  137.2490   75.1150  222.4160 N   0  0  0  0  0  0  0  0  0  0  0  0
  137.4050   76.3820  222.6830 C   0  0  0  0  0  0  0  0  0  0  0  0
  138.7250   76.8990  222.6940 C   0  0  0  0  0  0  0  0  0  0  0  0
  139.9140   76.0830  222.3260 C   0  0  0  0  0  0  0  0  0  0  0  0
  141.0700   76.6650  222.1590 N   0  0  0  0  0  0  0  0  0  0  0  0
  141.4370   77.7280  221.2180 C   0  0  2  0  0  0  0  0  0  0  0  0
  142.3988   77.4912  220.7396 H   0  0  0  0  0  0  0  0  0  0  0  0
  141.7160   79.0420  221.9380 C   0  0  0  0  0  0  0  0  0  0  0  0
  141.3910   80.2480  221.2870 C   0  0  0  0  0  0  0  0  0  0  0  0
  140.9592   80.2219  220.2756 H   0  0  0  0  0  0  0  0  0  0  0  0
  141.6120   81.4780  221.9140 C   0  0  0  0  0  0  0  0  0  0  0  0
  141.3619   82.4131  221.3915 H   0  0  0  0  0  0  0  0  0  0  0  0
  142.1490   81.5220  223.2010 C   0  0  0  0  0  0  0  0  0  0  0  0
  142.3248   82.4909  223.6912 H   0  0  0  0  0  0  0  0  0  0  0  0
  142.4630   80.3360  223.8660 C   0  0  0  0  0  0  0  0  0  0  0  0
  142.8843   80.3720  224.8815 H   0  0  0  0  0  0  0  0  0  0  0  0
  142.2440   79.1020  223.2460 C   0  0  0  0  0  0  0  0  0  0  0  0
  142.4848   78.1715  223.7811 H   0  0  0  0  0  0  0  0  0  0  0  0
  140.4320   77.7900  220.0570 C   0  0  0  0  0  0  0  0  0  0  0  0
  139.4102   77.8530  220.4595 H   0  0  0  0  0  0  0  0  0  0  0  0
  140.6385   78.6771  219.4403 H   0  0  0  0  0  0  0  0  0  0  0  0
  140.5279   76.8842  219.4403 H   0  0  0  0  0  0  0  0  0  0  0  0
  139.7530   74.7010  222.1840 O   0  0  0  0  0  0  0  0  0  0  0  0
  139.1550   74.1380  222.7690 H   0  0  0  0  0  0  0  0  0  0  0  0
  138.9310   78.2230  223.0860 C   0  0  0  0  0  0  0  0  0  0  0  0
  139.9526   78.6299  223.1144 H   0  0  0  0  0  0  0  0  0  0  0  0
  137.8540   79.0350  223.4420 C   0  0  0  0  0  0  0  0  0  0  0  0
  138.0320   80.3710  223.8530 C   0  0  0  0  0  0  0  0  0  0  0  0
  139.1980   80.8570  223.9050 O   0  0  0  0  0  0  0  0  0  0  0  0
  136.9460   81.1400  224.1940 N   0  0  0  0  0  0  0  0  0  0  0  0
  137.1050   82.4420  224.6000 C   0  0  0  0  0  0  0  0  0  0  0  0
  138.1145   82.8760  224.6506 H   0  0  0  0  0  0  0  0  0  0  0  0
  135.9990   83.2230  224.9500 C   0  0  0  0  0  0  0  0  0  0  0  0
  136.2190   84.8860  225.4670 Cl  0  0  0  0  0  0  0  0  0  0  0  0
  134.7230   82.6710  224.8870 C   0  0  0  0  0  0  0  0  0  0  0  0
  133.8458   83.2755  225.1612 H   0  0  0  0  0  0  0  0  0  0  0  0
  134.5610   81.3520  224.4760 C   0  0  0  0  0  0  0  0  0  0  0  0
  133.5558   80.9084  224.4229 H   0  0  0  0  0  0  0  0  0  0  0  0
  135.6830   80.5940  224.1310 C   0  0  0  0  0  0  0  0  0  0  0  0
  135.5120   79.3100  223.7320 N   0  0  0  0  0  0  0  0  0  0  0  0
  136.5530   78.5080  223.3850 C   0  0  0  0  0  0  0  0  0  0  0  0
  136.3310   77.2050  222.9920 N   0  0  0  0  0  0  0  0  0  0  0  0
  134.9240   76.7370  222.9270 C   0  0  0  0  0  0  0  0  0  0  0  0
  134.2924   77.5497  222.5389 H   0  0  0  0  0  0  0  0  0  0  0  0
  134.8771   75.8610  222.2634 H   0  0  0  0  0  0  0  0  0  0  0  0
  134.4230   76.3320  224.2930 C   0  0  0  0  0  0  0  0  0  0  0  0
  134.7380   75.0700  224.8270 C   0  0  0  0  0  0  0  0  0  0  0  0
  135.3460   74.3639  224.2424 H   0  0  0  0  0  0  0  0  0  0  0  0
  134.2810   74.7090  226.0990 C   0  0  0  0  0  0  0  0  0  0  0  0
  134.5303   73.7201  226.5112 H   0  0  0  0  0  0  0  0  0  0  0  0
  133.5090   75.6010  226.8470 C   0  0  0  0  0  0  0  0  0  0  0  0
  133.1516   75.3141  227.8470 H   0  0  0  0  0  0  0  0  0  0  0  0
  133.1910   76.8560  226.3260 C   0  0  0  0  0  0  0  0  0  0  0  0
  132.5836   77.5581  226.9160 H   0  0  0  0  0  0  0  0  0  0  0  0
  133.6440   77.2220  225.0540 C   0  0  0  0  0  0  0  0  0  0  0  0
  133.3894   78.2116  224.6467 H   0  0  0  0  0  0  0  0  0  0  0  0
  1  2  1  0
  2  3  2  0
  3  4  1  0
  4  5  1  0
  5  6  2  0
  6  7  1  0
  7  8  1  6
  7  9  1  0
  9 10  2  0
 10 11  1  0
 10 12  1  0
 12 13  1  0
 12 14  2  0
 14 15  1  0
 14 16  1  0
 16 17  1  0
 16 18  2  0
 18 19  1  0
  7 20  1  0
 20 21  1  0
 20 22  1  0
 20 23  1  0
  5 24  1  0
 24 25  1  0
  4 26  2  0
 26 27  1  0
 26 28  1  0
 28 29  1  0
 29 30  2  0
 29 31  1  0
 31 32  1  0
 32 33  1  0
 32 34  2  0
 34 35  1  0
 34 36  1  0
 36 37  1  0
 36 38  2  0
 38 39  1  0
 38 40  1  0
 40 41  2  0
 41 42  1  0
 42 43  1  0
 43 44  1  0
 44 45  1  0
 44 46  1  0
 44 47  1  0
 47 48  2  0
 48 49  1  0
 48 50  1  0
 50 51  1  0
 50 52  2  0
 52 53  1  0
 52 54  1  0
 54 55  1  0
 54 56  2  0
 56 57  1  0
 43  3  1  0
 56 47  1  0
 18  9  1  0
 42 28  2  0
 40 31  1  0
M  END
>  <UniqueID>  (30) 
101

>  <SMILES>  (30) 
[H]/N=c1/c(/C(O)=N/[C@@H](C)c2ccccc2)cc2c(=O)n3cc(Cl)ccc3nc2n1Cc1ccccc1

>  <Energy>  (30) 
90.18701297646199

>  <Genealogy>  (30) 
C[C@H](N=C(O)c1cc2c(=O)n3cc(Cl)ccc3nc2n(Cc2ccccc2)c1=N)c1ccccc1 (tautomer)
[H]/N=c1/c(/C(O)=N/[C@@H](C)c2ccccc2)cc2c(=O)n3cc(Cl)ccc3nc2n1Cc1ccccc1 (cis-trans isomerization)
[H]/N=c1/c(/C(O)=N/[C@@H](C)c2ccccc2)cc2c(=O)n3cc(Cl)ccc3nc2n1Cc1ccccc1 (3D coordinates assigned)
[H]/N=c1/c(/C(O)=N/[C@@H](C)c2ccccc2)cc2c(=O)n3cc(Cl)ccc3nc2n1Cc1ccccc1 (optimized conformer: 90.18701297646199 kcal/mol)

>  <smiles>  (30) 
C[C@H](NC(=O)c1cc2c(=O)n3cc(Cl)ccc3nc2n(Cc2ccccc2)c1=N)c1ccccc1

>  <score_type>  (30) 
oracle

>  <origin>  (30) 
autodockgpu

>  <m_score__min__energy>  (30) 
-8.0399999999999991

>  <m_primary>  (30) 
energy

>  <meeko>  (30) 
{"free_energy": -7.85, "intermolecular_energy": -10.24, "internal_energy": -2.62, "cluster_size": 18, "cluster_id": 2, "rank_in_cluster": 15}

>  <energy>  (30) 
-7.86

>  <cluster_rmsd>  (30) 
0.06

>  <rmsd>  (30) 
270.65

>  <cluster>  (30) 
2

$$$$
BLHILRPTNSSYME-FZQKWJEZNA-N
     RDKit          3D

 57 61  0  0  0  0  0  0  0  0999 V2000
  137.7660   74.3110  222.8610 H   0  0  0  0  0  0  0  0  0  0  0  0
  137.2740   75.1160  222.4240 N   0  0  0  0  0  0  0  0  0  0  0  0
  137.4230   76.3830  222.6910 C   0  0  0  0  0  0  0  0  0  0  0  0
  138.7390   76.9080  222.7040 C   0  0  0  0  0  0  0  0  0  0  0  0
  139.9330   76.0990  222.3370 C   0  0  0  0  0  0  0  0  0  0  0  0
  141.0850   76.6880  222.1650 N   0  0  0  0  0  0  0  0  0  0  0  0
  141.4460   77.7420  221.2090 C   0  0  2  0  0  0  0  0  0  0  0  0
  142.4236   77.5216  220.7555 H   0  0  0  0  0  0  0  0  0  0  0  0
  141.6750   79.0760  221.9080 C   0  0  0  0  0  0  0  0  0  0  0  0
  142.2050   79.0700  223.2120 C   0  0  0  0  0  0  0  0  0  0  0  0
  142.4288   78.1122  223.7044 H   0  0  0  0  0  0  0  0  0  0  0  0
  142.4500   80.2700  223.8880 C   0  0  0  0  0  0  0  0  0  0  0  0
  142.8562   80.2515  224.9101 H   0  0  0  0  0  0  0  0  0  0  0  0
  142.1800   81.4900  223.2680 C   0  0  0  0  0  0  0  0  0  0  0  0
  142.3700   82.4325  223.8025 H   0  0  0  0  0  0  0  0  0  0  0  0
  141.6690   81.5150  221.9700 C   0  0  0  0  0  0  0  0  0  0  0  0
  141.4598   82.4782  221.4817 H   0  0  0  0  0  0  0  0  0  0  0  0
  141.4220   80.3200  221.2880 C   0  0  0  0  0  0  0  0  0  0  0  0
  141.0279   80.3485  220.2614 H   0  0  0  0  0  0  0  0  0  0  0  0
  140.4640   77.7540  220.0260 C   0  0  0  0  0  0  0  0  0  0  0  0
  139.4319   77.7666  220.4063 H   0  0  0  0  0  0  0  0  0  0  0  0
  140.6397   78.6501  219.4127 H   0  0  0  0  0  0  0  0  0  0  0  0
  140.6178   76.8539  219.4127 H   0  0  0  0  0  0  0  0  0  0  0  0
  139.7830   74.7150  222.2020 O   0  0  0  0  0  0  0  0  0  0  0  0
  139.1800   74.1530  222.7820 H   0  0  0  0  0  0  0  0  0  0  0  0
  138.9370   78.2340  223.0950 C   0  0  0  0  0  0  0  0  0  0  0  0
  139.9560   78.6473  223.1232 H   0  0  0  0  0  0  0  0  0  0  0  0
  137.8550   79.0390  223.4500 C   0  0  0  0  0  0  0  0  0  0  0  0
  138.0250   80.3770  223.8600 C   0  0  0  0  0  0  0  0  0  0  0  0
  139.1880   80.8690  223.9130 O   0  0  0  0  0  0  0  0  0  0  0  0
  136.9330   81.1390  224.1990 N   0  0  0  0  0  0  0  0  0  0  0  0
  137.0850   82.4420  224.6050 C   0  0  0  0  0  0  0  0  0  0  0  0
  138.0922   82.8813  224.6571 H   0  0  0  0  0  0  0  0  0  0  0  0
  135.9740   83.2170  224.9530 C   0  0  0  0  0  0  0  0  0  0  0  0
  136.1840   84.8810  225.4700 Cl  0  0  0  0  0  0  0  0  0  0  0  0
  134.7010   82.6580  224.8890 C   0  0  0  0  0  0  0  0  0  0  0  0
  133.8202   83.2576  225.1623 H   0  0  0  0  0  0  0  0  0  0  0  0
  134.5470   81.3380  224.4780 C   0  0  0  0  0  0  0  0  0  0  0  0
  133.5444   80.8888  224.4233 H   0  0  0  0  0  0  0  0  0  0  0  0
  135.6740   80.5860  224.1350 C   0  0  0  0  0  0  0  0  0  0  0  0
  135.5110   79.3010  223.7360 N   0  0  0  0  0  0  0  0  0  0  0  0
  136.5580   78.5050  223.3900 C   0  0  0  0  0  0  0  0  0  0  0  0
  136.3430   77.2010  222.9980 N   0  0  0  0  0  0  0  0  0  0  0  0
  134.9390   76.7250  222.9310 C   0  0  0  0  0  0  0  0  0  0  0  0
  134.3022   77.5362  222.5483 H   0  0  0  0  0  0  0  0  0  0  0  0
  134.8966   75.8529  222.2620 H   0  0  0  0  0  0  0  0  0  0  0  0
  134.4420   76.3090  224.2950 C   0  0  0  0  0  0  0  0  0  0  0  0
  134.7570   75.0430  224.8190 C   0  0  0  0  0  0  0  0  0  0  0  0
  135.3630   74.3413  224.2271 H   0  0  0  0  0  0  0  0  0  0  0  0
  134.3040   74.6710  226.0890 C   0  0  0  0  0  0  0  0  0  0  0  0
  134.5543   73.6787  226.4925 H   0  0  0  0  0  0  0  0  0  0  0  0
  133.5340   75.5580  226.8460 C   0  0  0  0  0  0  0  0  0  0  0  0
  133.1790   75.2637  227.8447 H   0  0  0  0  0  0  0  0  0  0  0  0
  133.2150   76.8180  226.3350 C   0  0  0  0  0  0  0  0  0  0  0  0
  132.6094   77.5159  226.9318 H   0  0  0  0  0  0  0  0  0  0  0  0
  133.6650   77.1930  225.0650 C   0  0  0  0  0  0  0  0  0  0  0  0
  133.4096   78.1857  224.6658 H   0  0  0  0  0  0  0  0  0  0  0  0
  1  2  1  0
  2  3  2  0
  3  4  1  0
  4  5  1  0
  5  6  2  0
  6  7  1  0
  7  8  1  6
  7  9  1  0
  9 10  2  0
 10 11  1  0
 10 12  1  0
 12 13  1  0
 12 14  2  0
 14 15  1  0
 14 16  1  0
 16 17  1  0
 16 18  2  0
 18 19  1  0
  7 20  1  0
 20 21  1  0
 20 22  1  0
 20 23  1  0
  5 24  1  0
 24 25  1  0
  4 26  2  0
 26 27  1  0
 26 28  1  0
 28 29  1  0
 29 30  2  0
 29 31  1  0
 31 32  1  0
 32 33  1  0
 32 34  2  0
 34 35  1  0
 34 36  1  0
 36 37  1  0
 36 38  2  0
 38 39  1  0
 38 40  1  0
 40 41  2  0
 41 42  1  0
 42 43  1  0
 43 44  1  0
 44 45  1  0
 44 46  1  0
 44 47  1  0
 47 48  2  0
 48 49  1  0
 48 50  1  0
 50 51  1  0
 50 52  2  0
 52 53  1  0
 52 54  1  0
 54 55  1  0
 54 56  2  0
 56 57  1  0
 43  3  1  0
 56 47  1  0
 18  9  1  0
 42 28  2  0
 40 31  1  0
M  END
>  <UniqueID>  (31) 
101

>  <SMILES>  (31) 
[H]/N=c1/c(/C(O)=N/[C@@H](C)c2ccccc2)cc2c(=O)n3cc(Cl)ccc3nc2n1Cc1ccccc1

>  <Energy>  (31) 
90.18701297646199

>  <Genealogy>  (31) 
C[C@H](N=C(O)c1cc2c(=O)n3cc(Cl)ccc3nc2n(Cc2ccccc2)c1=N)c1ccccc1 (tautomer)
[H]/N=c1/c(/C(O)=N/[C@@H](C)c2ccccc2)cc2c(=O)n3cc(Cl)ccc3nc2n1Cc1ccccc1 (cis-trans isomerization)
[H]/N=c1/c(/C(O)=N/[C@@H](C)c2ccccc2)cc2c(=O)n3cc(Cl)ccc3nc2n1Cc1ccccc1 (3D coordinates assigned)
[H]/N=c1/c(/C(O)=N/[C@@H](C)c2ccccc2)cc2c(=O)n3cc(Cl)ccc3nc2n1Cc1ccccc1 (optimized conformer: 90.18701297646199 kcal/mol)

>  <smiles>  (31) 
C[C@H](NC(=O)c1cc2c(=O)n3cc(Cl)ccc3nc2n(Cc2ccccc2)c1=N)c1ccccc1

>  <score_type>  (31) 
oracle

>  <origin>  (31) 
autodockgpu

>  <m_score__min__energy>  (31) 
-8.0399999999999991

>  <m_primary>  (31) 
energy

>  <meeko>  (31) 
{"free_energy": -7.87, "intermolecular_energy": -10.26, "internal_energy": -2.61, "cluster_size": 18, "cluster_id": 2, "rank_in_cluster": 5}

>  <energy>  (31) 
-7.86

>  <cluster_rmsd>  (31) 
0.05

>  <rmsd>  (31) 
270.61

>  <cluster>  (31) 
2

$$$$
BLHILRPTNSSYME-FZQKWJEZNA-N
     RDKit          3D

 57 61  0  0  0  0  0  0  0  0999 V2000
  137.7430   74.2930  222.8490 H   0  0  0  0  0  0  0  0  0  0  0  0
  137.2600   75.1020  222.4090 N   0  0  0  0  0  0  0  0  0  0  0  0
  137.4160   76.3670  222.6790 C   0  0  0  0  0  0  0  0  0  0  0  0
  138.7350   76.8850  222.6910 C   0  0  0  0  0  0  0  0  0  0  0  0
  139.9250   76.0700  222.3210 C   0  0  0  0  0  0  0  0  0  0  0  0
  141.0720   76.6580  222.1180 N   0  0  0  0  0  0  0  0  0  0  0  0
  141.4020   77.7320  221.1750 C   0  0  2  0  0  0  0  0  0  0  0  0
  142.3658   77.5231  220.6877 H   0  0  0  0  0  0  0  0  0  0  0  0
  141.6510   79.0520  221.8950 C   0  0  0  0  0  0  0  0  0  0  0  0
  142.2000   79.0190  223.1900 C   0  0  0  0  0  0  0  0  0  0  0  0
  142.4254   78.0509  223.6612 H   0  0  0  0  0  0  0  0  0  0  0  0
  142.4620   80.2040  223.8840 C   0  0  0  0  0  0  0  0  0  0  0  0
  142.8827   80.1639  224.8996 H   0  0  0  0  0  0  0  0  0  0  0  0
  142.1910   81.4370  223.2910 C   0  0  0  0  0  0  0  0  0  0  0  0
  142.3956   82.3682  223.8397 H   0  0  0  0  0  0  0  0  0  0  0  0
  141.6600   81.4890  222.0010 C   0  0  0  0  0  0  0  0  0  0  0  0
  141.4488   82.4621  221.5335 H   0  0  0  0  0  0  0  0  0  0  0  0
  141.3960   80.3080  221.3020 C   0  0  0  0  0  0  0  0  0  0  0  0
  140.9865   80.3571  220.2823 H   0  0  0  0  0  0  0  0  0  0  0  0
  140.3860   77.7670  220.0230 C   0  0  0  0  0  0  0  0  0  0  0  0
  139.3664   77.8021  220.4343 H   0  0  0  0  0  0  0  0  0  0  0  0
  140.5630   78.6596  219.4050 H   0  0  0  0  0  0  0  0  0  0  0  0
  140.5012   76.8644  219.4050 H   0  0  0  0  0  0  0  0  0  0  0  0
  139.7740   74.6840  222.2150 O   0  0  0  0  0  0  0  0  0  0  0  0
  139.1580   74.1360  222.7960 H   0  0  0  0  0  0  0  0  0  0  0  0
  138.9400   78.2080  223.0860 C   0  0  0  0  0  0  0  0  0  0  0  0
  139.9614   78.6154  223.1145 H   0  0  0  0  0  0  0  0  0  0  0  0
  137.8630   79.0190  223.4450 C   0  0  0  0  0  0  0  0  0  0  0  0
  138.0410   80.3540  223.8590 C   0  0  0  0  0  0  0  0  0  0  0  0
  139.2070   80.8400  223.9120 O   0  0  0  0  0  0  0  0  0  0  0  0
  136.9540   81.1210  224.2020 N   0  0  0  0  0  0  0  0  0  0  0  0
  137.1130   82.4220  224.6110 C   0  0  0  0  0  0  0  0  0  0  0  0
  138.1225   82.8559  224.6624 H   0  0  0  0  0  0  0  0  0  0  0  0
  136.0070   83.2020  224.9630 C   0  0  0  0  0  0  0  0  0  0  0  0
  136.2270   84.8640  225.4850 Cl  0  0  0  0  0  0  0  0  0  0  0  0
  134.7310   82.6510  224.8990 C   0  0  0  0  0  0  0  0  0  0  0  0
  133.8538   83.2546  225.1750 H   0  0  0  0  0  0  0  0  0  0  0  0
  134.5700   81.3320  224.4840 C   0  0  0  0  0  0  0  0  0  0  0  0
  133.5650   80.8881  224.4295 H   0  0  0  0  0  0  0  0  0  0  0  0
  135.6920   80.5750  224.1370 C   0  0  0  0  0  0  0  0  0  0  0  0
  135.5210   79.2930  223.7350 N   0  0  0  0  0  0  0  0  0  0  0  0
  136.5630   78.4910  223.3860 C   0  0  0  0  0  0  0  0  0  0  0  0
  136.3410   77.1900  222.9890 N   0  0  0  0  0  0  0  0  0  0  0  0
  134.9340   76.7210  222.9230 C   0  0  0  0  0  0  0  0  0  0  0  0
  134.3034   77.5306  222.5270 H   0  0  0  0  0  0  0  0  0  0  0  0
  134.8892   75.8402  222.2657 H   0  0  0  0  0  0  0  0  0  0  0  0
  134.4290   76.3260  224.2910 C   0  0  0  0  0  0  0  0  0  0  0  0
  133.6090   77.1950  225.0310 C   0  0  0  0  0  0  0  0  0  0  0  0
  133.3395   78.1782  224.6178 H   0  0  0  0  0  0  0  0  0  0  0  0
  133.1340   76.8150  226.2910 C   0  0  0  0  0  0  0  0  0  0  0  0
  132.4924   77.4997  226.8650 H   0  0  0  0  0  0  0  0  0  0  0  0
  133.4730   75.5670  226.8220 C   0  0  0  0  0  0  0  0  0  0  0  0
  133.0986   75.2706  227.8129 H   0  0  0  0  0  0  0  0  0  0  0  0
  134.2870   74.6970  226.0940 C   0  0  0  0  0  0  0  0  0  0  0  0
  134.5528   73.7147  226.5116 H   0  0  0  0  0  0  0  0  0  0  0  0
  134.7650   75.0730  224.8340 C   0  0  0  0  0  0  0  0  0  0  0  0
  135.4072   74.3847  224.2649 H   0  0  0  0  0  0  0  0  0  0  0  0
  1  2  1  0
  2  3  2  0
  3  4  1  0
  4  5  1  0
  5  6  2  0
  6  7  1  0
  7  8  1  6
  7  9  1  0
  9 10  2  0
 10 11  1  0
 10 12  1  0
 12 13  1  0
 12 14  2  0
 14 15  1  0
 14 16  1  0
 16 17  1  0
 16 18  2  0
 18 19  1  0
  7 20  1  0
 20 21  1  0
 20 22  1  0
 20 23  1  0
  5 24  1  0
 24 25  1  0
  4 26  2  0
 26 27  1  0
 26 28  1  0
 28 29  1  0
 29 30  2  0
 29 31  1  0
 31 32  1  0
 32 33  1  0
 32 34  2  0
 34 35  1  0
 34 36  1  0
 36 37  1  0
 36 38  2  0
 38 39  1  0
 38 40  1  0
 40 41  2  0
 41 42  1  0
 42 43  1  0
 43 44  1  0
 44 45  1  0
 44 46  1  0
 44 47  1  0
 47 48  2  0
 48 49  1  0
 48 50  1  0
 50 51  1  0
 50 52  2  0
 52 53  1  0
 52 54  1  0
 54 55  1  0
 54 56  2  0
 56 57  1  0
 43  3  1  0
 56 47  1  0
 18  9  1  0
 42 28  2  0
 40 31  1  0
M  END
>  <UniqueID>  (32) 
101

>  <SMILES>  (32) 
[H]/N=c1/c(/C(O)=N/[C@@H](C)c2ccccc2)cc2c(=O)n3cc(Cl)ccc3nc2n1Cc1ccccc1

>  <Energy>  (32) 
90.18701297646199

>  <Genealogy>  (32) 
C[C@H](N=C(O)c1cc2c(=O)n3cc(Cl)ccc3nc2n(Cc2ccccc2)c1=N)c1ccccc1 (tautomer)
[H]/N=c1/c(/C(O)=N/[C@@H](C)c2ccccc2)cc2c(=O)n3cc(Cl)ccc3nc2n1Cc1ccccc1 (cis-trans isomerization)
[H]/N=c1/c(/C(O)=N/[C@@H](C)c2ccccc2)cc2c(=O)n3cc(Cl)ccc3nc2n1Cc1ccccc1 (3D coordinates assigned)
[H]/N=c1/c(/C(O)=N/[C@@H](C)c2ccccc2)cc2c(=O)n3cc(Cl)ccc3nc2n1Cc1ccccc1 (optimized conformer: 90.18701297646199 kcal/mol)

>  <smiles>  (32) 
C[C@H](NC(=O)c1cc2c(=O)n3cc(Cl)ccc3nc2n(Cc2ccccc2)c1=N)c1ccccc1

>  <score_type>  (32) 
oracle

>  <origin>  (32) 
autodockgpu

>  <m_score__min__energy>  (32) 
-8.0399999999999991

>  <m_primary>  (32) 
energy

>  <meeko>  (32) 
{"free_energy": -7.88, "intermolecular_energy": -10.26, "internal_energy": -2.6, "cluster_size": 18, "cluster_id": 2, "rank_in_cluster": 4}

>  <energy>  (32) 
-7.86

>  <cluster_rmsd>  (32) 
0.05

>  <rmsd>  (32) 
270.64

>  <cluster>  (32) 
2

$$$$
BLHILRPTNSSYME-FZQKWJEZNA-N
     RDKit          3D

 57 61  0  0  0  0  0  0  0  0999 V2000
  137.7190   74.3240  222.8230 H   0  0  0  0  0  0  0  0  0  0  0  0
  137.2320   75.1330  222.3890 N   0  0  0  0  0  0  0  0  0  0  0  0
  137.3880   76.3990  222.6620 C   0  0  0  0  0  0  0  0  0  0  0  0
  138.7080   76.9150  222.6780 C   0  0  0  0  0  0  0  0  0  0  0  0
  139.8970   76.1010  222.3080 C   0  0  0  0  0  0  0  0  0  0  0  0
  141.0560   76.6810  222.1590 N   0  0  0  0  0  0  0  0  0  0  0  0
  141.4440   77.7350  221.2150 C   0  0  2  0  0  0  0  0  0  0  0  0
  142.4266   77.5051  220.7772 H   0  0  0  0  0  0  0  0  0  0  0  0
  141.6770   79.0640  221.9230 C   0  0  0  0  0  0  0  0  0  0  0  0
  142.1960   79.0460  223.2320 C   0  0  0  0  0  0  0  0  0  0  0  0
  142.4084   78.0835  223.7203 H   0  0  0  0  0  0  0  0  0  0  0  0
  142.4440   80.2390  223.9170 C   0  0  0  0  0  0  0  0  0  0  0  0
  142.8425   80.2110  224.9419 H   0  0  0  0  0  0  0  0  0  0  0  0
  142.1870   81.4650  223.3030 C   0  0  0  0  0  0  0  0  0  0  0  0
  142.3782   82.4028  223.8452 H   0  0  0  0  0  0  0  0  0  0  0  0
  141.6870   81.5010  222.0000 C   0  0  0  0  0  0  0  0  0  0  0  0
  141.4891   82.4685  221.5155 H   0  0  0  0  0  0  0  0  0  0  0  0
  141.4370   80.3120  221.3090 C   0  0  0  0  0  0  0  0  0  0  0  0
  141.0506   80.3492  220.2798 H   0  0  0  0  0  0  0  0  0  0  0  0
  140.4810   77.7640  220.0170 C   0  0  0  0  0  0  0  0  0  0  0  0
  139.4435   77.7952  220.3812 H   0  0  0  0  0  0  0  0  0  0  0  0
  140.6823   78.6565  219.4063 H   0  0  0  0  0  0  0  0  0  0  0  0
  140.6282   76.8610  219.4063 H   0  0  0  0  0  0  0  0  0  0  0  0
  139.7330   74.7220  222.1440 O   0  0  0  0  0  0  0  0  0  0  0  0
  139.1400   74.1500  222.7250 H   0  0  0  0  0  0  0  0  0  0  0  0
  138.9130   78.2380  223.0760 C   0  0  0  0  0  0  0  0  0  0  0  0
  139.9344   78.6451  223.1074 H   0  0  0  0  0  0  0  0  0  0  0  0
  137.8360   79.0480  223.4340 C   0  0  0  0  0  0  0  0  0  0  0  0
  138.0140   80.3830  223.8510 C   0  0  0  0  0  0  0  0  0  0  0  0
  139.1800   80.8680  223.9070 O   0  0  0  0  0  0  0  0  0  0  0  0
  136.9270   81.1500  224.1940 N   0  0  0  0  0  0  0  0  0  0  0  0
  137.0870   82.4500  224.6050 C   0  0  0  0  0  0  0  0  0  0  0  0
  138.0966   82.8834  224.6575 H   0  0  0  0  0  0  0  0  0  0  0  0
  135.9800   83.2300  224.9580 C   0  0  0  0  0  0  0  0  0  0  0  0
  136.2000   84.8900  225.4820 Cl  0  0  0  0  0  0  0  0  0  0  0  0
  134.7040   82.6790  224.8900 C   0  0  0  0  0  0  0  0  0  0  0  0
  133.8266   83.2828  225.1650 H   0  0  0  0  0  0  0  0  0  0  0  0
  134.5420   81.3620  224.4730 C   0  0  0  0  0  0  0  0  0  0  0  0
  133.5366   80.9192  224.4165 H   0  0  0  0  0  0  0  0  0  0  0  0
  135.6650   80.6040  224.1260 C   0  0  0  0  0  0  0  0  0  0  0  0
  135.4940   79.3230  223.7210 N   0  0  0  0  0  0  0  0  0  0  0  0
  136.5360   78.5220  223.3720 C   0  0  0  0  0  0  0  0  0  0  0  0
  136.3130   77.2210  222.9730 N   0  0  0  0  0  0  0  0  0  0  0  0
  134.9060   76.7540  222.9030 C   0  0  0  0  0  0  0  0  0  0  0  0
  134.2737   77.5723  222.5281 H   0  0  0  0  0  0  0  0  0  0  0  0
  134.8576   75.8882  222.2262 H   0  0  0  0  0  0  0  0  0  0  0  0
  134.4080   76.3290  224.2640 C   0  0  0  0  0  0  0  0  0  0  0  0
  134.7140   75.0570  224.7760 C   0  0  0  0  0  0  0  0  0  0  0  0
  135.3140   74.3561  224.1770 H   0  0  0  0  0  0  0  0  0  0  0  0
  134.2600   74.6770  226.0430 C   0  0  0  0  0  0  0  0  0  0  0  0
  134.5030   73.6790  226.4367 H   0  0  0  0  0  0  0  0  0  0  0  0
  133.4980   75.5630  226.8100 C   0  0  0  0  0  0  0  0  0  0  0  0
  133.1427   75.2625  227.8067 H   0  0  0  0  0  0  0  0  0  0  0  0
  133.1880   76.8290  226.3110 C   0  0  0  0  0  0  0  0  0  0  0  0
  132.5882   77.5257  226.9150 H   0  0  0  0  0  0  0  0  0  0  0  0
  133.6390   77.2130  225.0440 C   0  0  0  0  0  0  0  0  0  0  0  0
  133.3913   78.2116  224.6549 H   0  0  0  0  0  0  0  0  0  0  0  0
  1  2  1  0
  2  3  2  0
  3  4  1  0
  4  5  1  0
  5  6  2  0
  6  7  1  0
  7  8  1  6
  7  9  1  0
  9 10  2  0
 10 11  1  0
 10 12  1  0
 12 13  1  0
 12 14  2  0
 14 15  1  0
 14 16  1  0
 16 17  1  0
 16 18  2  0
 18 19  1  0
  7 20  1  0
 20 21  1  0
 20 22  1  0
 20 23  1  0
  5 24  1  0
 24 25  1  0
  4 26  2  0
 26 27  1  0
 26 28  1  0
 28 29  1  0
 29 30  2  0
 29 31  1  0
 31 32  1  0
 32 33  1  0
 32 34  2  0
 34 35  1  0
 34 36  1  0
 36 37  1  0
 36 38  2  0
 38 39  1  0
 38 40  1  0
 40 41  2  0
 41 42  1  0
 42 43  1  0
 43 44  1  0
 44 45  1  0
 44 46  1  0
 44 47  1  0
 47 48  2  0
 48 49  1  0
 48 50  1  0
 50 51  1  0
 50 52  2  0
 52 53  1  0
 52 54  1  0
 54 55  1  0
 54 56  2  0
 56 57  1  0
 43  3  1  0
 56 47  1  0
 18  9  1  0
 42 28  2  0
 40 31  1  0
M  END
>  <UniqueID>  (33) 
101

>  <SMILES>  (33) 
[H]/N=c1/c(/C(O)=N/[C@@H](C)c2ccccc2)cc2c(=O)n3cc(Cl)ccc3nc2n1Cc1ccccc1

>  <Energy>  (33) 
90.18701297646199

>  <Genealogy>  (33) 
C[C@H](N=C(O)c1cc2c(=O)n3cc(Cl)ccc3nc2n(Cc2ccccc2)c1=N)c1ccccc1 (tautomer)
[H]/N=c1/c(/C(O)=N/[C@@H](C)c2ccccc2)cc2c(=O)n3cc(Cl)ccc3nc2n1Cc1ccccc1 (cis-trans isomerization)
[H]/N=c1/c(/C(O)=N/[C@@H](C)c2ccccc2)cc2c(=O)n3cc(Cl)ccc3nc2n1Cc1ccccc1 (3D coordinates assigned)
[H]/N=c1/c(/C(O)=N/[C@@H](C)c2ccccc2)cc2c(=O)n3cc(Cl)ccc3nc2n1Cc1ccccc1 (optimized conformer: 90.18701297646199 kcal/mol)

>  <smiles>  (33) 
C[C@H](NC(=O)c1cc2c(=O)n3cc(Cl)ccc3nc2n(Cc2ccccc2)c1=N)c1ccccc1

>  <score_type>  (33) 
oracle

>  <origin>  (33) 
autodockgpu

>  <m_score__min__energy>  (33) 
-8.0399999999999991

>  <m_primary>  (33) 
energy

>  <meeko>  (33) 
{"free_energy": -7.86, "intermolecular_energy": -10.25, "internal_energy": -2.62, "cluster_size": 18, "cluster_id": 2, "rank_in_cluster": 10}

>  <energy>  (33) 
-7.86

>  <cluster_rmsd>  (33) 
0.05

>  <rmsd>  (33) 
270.63

>  <cluster>  (33) 
2

$$$$
BLHILRPTNSSYME-FZQKWJEZNA-N
     RDKit          3D

 57 61  0  0  0  0  0  0  0  0999 V2000
  137.7430   74.3050  222.8300 H   0  0  0  0  0  0  0  0  0  0  0  0
  137.2550   75.1170  222.4010 N   0  0  0  0  0  0  0  0  0  0  0  0
  137.4090   76.3800  222.6800 C   0  0  0  0  0  0  0  0  0  0  0  0
  138.7280   76.8990  222.6970 C   0  0  0  0  0  0  0  0  0  0  0  0
  139.9180   76.0880  222.3210 C   0  0  0  0  0  0  0  0  0  0  0  0
  141.0690   76.6760  222.1410 N   0  0  0  0  0  0  0  0  0  0  0  0
  141.4170   77.7510  221.2050 C   0  0  2  0  0  0  0  0  0  0  0  0
  142.3746   77.5258  220.7128 H   0  0  0  0  0  0  0  0  0  0  0  0
  141.6960   79.0600  221.9330 C   0  0  0  0  0  0  0  0  0  0  0  0
  141.3750   80.2690  221.2890 C   0  0  0  0  0  0  0  0  0  0  0  0
  140.9458   80.2491  220.2764 H   0  0  0  0  0  0  0  0  0  0  0  0
  141.5960   81.4960  221.9230 C   0  0  0  0  0  0  0  0  0  0  0  0
  141.3493   82.4344  221.4048 H   0  0  0  0  0  0  0  0  0  0  0  0
  142.1290   81.5310  223.2120 C   0  0  0  0  0  0  0  0  0  0  0  0
  142.3056   82.4968  223.7080 H   0  0  0  0  0  0  0  0  0  0  0  0
  142.4380   80.3410  223.8720 C   0  0  0  0  0  0  0  0  0  0  0  0
  142.8545   80.3707  224.8897 H   0  0  0  0  0  0  0  0  0  0  0  0
  142.2200   79.1110  223.2440 C   0  0  0  0  0  0  0  0  0  0  0  0
  142.4580   78.1770  223.7741 H   0  0  0  0  0  0  0  0  0  0  0  0
  140.3970   77.8160  220.0570 C   0  0  0  0  0  0  0  0  0  0  0  0
  139.3807   77.8808  220.4728 H   0  0  0  0  0  0  0  0  0  0  0  0
  140.5973   78.7032  219.4383 H   0  0  0  0  0  0  0  0  0  0  0  0
  140.4831   76.9106  219.4383 H   0  0  0  0  0  0  0  0  0  0  0  0
  139.7640   74.7050  222.1870 O   0  0  0  0  0  0  0  0  0  0  0  0
  139.1530   74.1450  222.7610 H   0  0  0  0  0  0  0  0  0  0  0  0
  138.9320   78.2200  223.1020 C   0  0  0  0  0  0  0  0  0  0  0  0
  139.9530   78.6281  223.1343 H   0  0  0  0  0  0  0  0  0  0  0  0
  137.8540   79.0270  223.4660 C   0  0  0  0  0  0  0  0  0  0  0  0
  138.0300   80.3590  223.8900 C   0  0  0  0  0  0  0  0  0  0  0  0
  139.1960   80.8460  223.9470 O   0  0  0  0  0  0  0  0  0  0  0  0
  136.9430   81.1230  224.2380 N   0  0  0  0  0  0  0  0  0  0  0  0
  137.1000   82.4210  224.6560 C   0  0  0  0  0  0  0  0  0  0  0  0
  138.1088   82.8561  224.7100 H   0  0  0  0  0  0  0  0  0  0  0  0
  135.9930   83.1970  225.0140 C   0  0  0  0  0  0  0  0  0  0  0  0
  136.2110   84.8550  225.5480 Cl  0  0  0  0  0  0  0  0  0  0  0  0
  134.7180   82.6450  224.9450 C   0  0  0  0  0  0  0  0  0  0  0  0
  133.8400   83.2460  225.2243 H   0  0  0  0  0  0  0  0  0  0  0  0
  134.5580   81.3290  224.5210 C   0  0  0  0  0  0  0  0  0  0  0  0
  133.5535   80.8845  224.4634 H   0  0  0  0  0  0  0  0  0  0  0  0
  135.6810   80.5760  224.1690 C   0  0  0  0  0  0  0  0  0  0  0  0
  135.5110   79.2960  223.7570 N   0  0  0  0  0  0  0  0  0  0  0  0
  136.5540   78.4990  223.4020 C   0  0  0  0  0  0  0  0  0  0  0  0
  136.3330   77.1990  222.9960 N   0  0  0  0  0  0  0  0  0  0  0  0
  134.9270   76.7310  222.9260 C   0  0  0  0  0  0  0  0  0  0  0  0
  134.2964   77.5444  222.5378 H   0  0  0  0  0  0  0  0  0  0  0  0
  134.8822   75.8563  222.2604 H   0  0  0  0  0  0  0  0  0  0  0  0
  134.4220   76.3230  224.2900 C   0  0  0  0  0  0  0  0  0  0  0  0
  134.7430   75.0650  224.8270 C   0  0  0  0  0  0  0  0  0  0  0  0
  135.3595   74.3630  224.2464 H   0  0  0  0  0  0  0  0  0  0  0  0
  134.2820   74.7010  226.0970 C   0  0  0  0  0  0  0  0  0  0  0  0
  134.5361   73.7141  226.5110 H   0  0  0  0  0  0  0  0  0  0  0  0
  133.5000   75.5880  226.8400 C   0  0  0  0  0  0  0  0  0  0  0  0
  133.1402   75.3001  227.8388 H   0  0  0  0  0  0  0  0  0  0  0  0
  133.1750   76.8400  226.3150 C   0  0  0  0  0  0  0  0  0  0  0  0
  132.5585   77.5379  226.9005 H   0  0  0  0  0  0  0  0  0  0  0  0
  133.6320   77.2080  225.0460 C   0  0  0  0  0  0  0  0  0  0  0  0
  133.3723   78.1953  224.6364 H   0  0  0  0  0  0  0  0  0  0  0  0
  1  2  1  0
  2  3  2  0
  3  4  1  0
  4  5  1  0
  5  6  2  0
  6  7  1  0
  7  8  1  6
  7  9  1  0
  9 10  2  0
 10 11  1  0
 10 12  1  0
 12 13  1  0
 12 14  2  0
 14 15  1  0
 14 16  1  0
 16 17  1  0
 16 18  2  0
 18 19  1  0
  7 20  1  0
 20 21  1  0
 20 22  1  0
 20 23  1  0
  5 24  1  0
 24 25  1  0
  4 26  2  0
 26 27  1  0
 26 28  1  0
 28 29  1  0
 29 30  2  0
 29 31  1  0
 31 32  1  0
 32 33  1  0
 32 34  2  0
 34 35  1  0
 34 36  1  0
 36 37  1  0
 36 38  2  0
 38 39  1  0
 38 40  1  0
 40 41  2  0
 41 42  1  0
 42 43  1  0
 43 44  1  0
 44 45  1  0
 44 46  1  0
 44 47  1  0
 47 48  2  0
 48 49  1  0
 48 50  1  0
 50 51  1  0
 50 52  2  0
 52 53  1  0
 52 54  1  0
 54 55  1  0
 54 56  2  0
 56 57  1  0
 43  3  1  0
 56 47  1  0
 18  9  1  0
 42 28  2  0
 40 31  1  0
M  END
>  <UniqueID>  (34) 
101

>  <SMILES>  (34) 
[H]/N=c1/c(/C(O)=N/[C@@H](C)c2ccccc2)cc2c(=O)n3cc(Cl)ccc3nc2n1Cc1ccccc1

>  <Energy>  (34) 
90.18701297646199

>  <Genealogy>  (34) 
C[C@H](N=C(O)c1cc2c(=O)n3cc(Cl)ccc3nc2n(Cc2ccccc2)c1=N)c1ccccc1 (tautomer)
[H]/N=c1/c(/C(O)=N/[C@@H](C)c2ccccc2)cc2c(=O)n3cc(Cl)ccc3nc2n1Cc1ccccc1 (cis-trans isomerization)
[H]/N=c1/c(/C(O)=N/[C@@H](C)c2ccccc2)cc2c(=O)n3cc(Cl)ccc3nc2n1Cc1ccccc1 (3D coordinates assigned)
[H]/N=c1/c(/C(O)=N/[C@@H](C)c2ccccc2)cc2c(=O)n3cc(Cl)ccc3nc2n1Cc1ccccc1 (optimized conformer: 90.18701297646199 kcal/mol)

>  <smiles>  (34) 
C[C@H](NC(=O)c1cc2c(=O)n3cc(Cl)ccc3nc2n(Cc2ccccc2)c1=N)c1ccccc1

>  <score_type>  (34) 
oracle

>  <origin>  (34) 
autodockgpu

>  <m_score__min__energy>  (34) 
-8.0399999999999991

>  <m_primary>  (34) 
energy

>  <meeko>  (34) 
{"free_energy": -7.85, "intermolecular_energy": -10.24, "internal_energy": -2.61, "cluster_size": 18, "cluster_id": 2, "rank_in_cluster": 13}

>  <energy>  (34) 
-7.85

>  <cluster_rmsd>  (34) 
0.05

>  <rmsd>  (34) 
270.63

>  <cluster>  (34) 
2

$$$$
BLHILRPTNSSYME-FZQKWJEZNA-N
     RDKit          3D

 57 61  0  0  0  0  0  0  0  0999 V2000
  137.7260   74.3290  222.8550 H   0  0  0  0  0  0  0  0  0  0  0  0
  137.2420   75.1390  222.4200 N   0  0  0  0  0  0  0  0  0  0  0  0
  137.4010   76.4040  222.6900 C   0  0  0  0  0  0  0  0  0  0  0  0
  138.7220   76.9180  222.7030 C   0  0  0  0  0  0  0  0  0  0  0  0
  139.9090   76.1000  222.3320 C   0  0  0  0  0  0  0  0  0  0  0  0
  141.0660   76.6800  222.1640 N   0  0  0  0  0  0  0  0  0  0  0  0
  141.4330   77.7450  221.2240 C   0  0  2  0  0  0  0  0  0  0  0  0
  142.3907   77.5055  220.7388 H   0  0  0  0  0  0  0  0  0  0  0  0
  141.7220   79.0550  221.9480 C   0  0  0  0  0  0  0  0  0  0  0  0
  141.4020   80.2640  221.3020 C   0  0  0  0  0  0  0  0  0  0  0  0
  140.9659   80.2430  220.2924 H   0  0  0  0  0  0  0  0  0  0  0  0
  141.6330   81.4920  221.9310 C   0  0  0  0  0  0  0  0  0  0  0  0
  141.3887   82.4301  221.4112 H   0  0  0  0  0  0  0  0  0  0  0  0
  142.1730   81.5280  223.2170 C   0  0  0  0  0  0  0  0  0  0  0  0
  142.3560   82.4942  223.7099 H   0  0  0  0  0  0  0  0  0  0  0  0
  142.4810   80.3380  223.8780 C   0  0  0  0  0  0  0  0  0  0  0  0
  142.9039   80.3685  224.8930 H   0  0  0  0  0  0  0  0  0  0  0  0
  142.2540   79.1080  223.2550 C   0  0  0  0  0  0  0  0  0  0  0  0
  142.4913   78.1746  223.7864 H   0  0  0  0  0  0  0  0  0  0  0  0
  140.4220   77.8160  220.0690 C   0  0  0  0  0  0  0  0  0  0  0  0
  139.4031   77.8876  220.4774 H   0  0  0  0  0  0  0  0  0  0  0  0
  140.6325   78.7016  219.4514 H   0  0  0  0  0  0  0  0  0  0  0  0
  140.5066   76.9097  219.4514 H   0  0  0  0  0  0  0  0  0  0  0  0
  139.7460   74.7190  222.1900 O   0  0  0  0  0  0  0  0  0  0  0  0
  139.1440   74.1570  222.7720 H   0  0  0  0  0  0  0  0  0  0  0  0
  138.9320   78.2410  223.0990 C   0  0  0  0  0  0  0  0  0  0  0  0
  139.9546   78.6454  223.1280 H   0  0  0  0  0  0  0  0  0  0  0  0
  137.8570   79.0540  223.4580 C   0  0  0  0  0  0  0  0  0  0  0  0
  138.0380   80.3890  223.8720 C   0  0  0  0  0  0  0  0  0  0  0  0
  139.2060   80.8710  223.9260 O   0  0  0  0  0  0  0  0  0  0  0  0
  136.9540   81.1590  224.2160 N   0  0  0  0  0  0  0  0  0  0  0  0
  137.1170   82.4590  224.6250 C   0  0  0  0  0  0  0  0  0  0  0  0
  138.1278   82.8898  224.6759 H   0  0  0  0  0  0  0  0  0  0  0  0
  136.0130   83.2430  224.9780 C   0  0  0  0  0  0  0  0  0  0  0  0
  136.2370   84.9030  225.5000 Cl  0  0  0  0  0  0  0  0  0  0  0  0
  134.7350   82.6950  224.9130 C   0  0  0  0  0  0  0  0  0  0  0  0
  133.8594   83.3011  225.1885 H   0  0  0  0  0  0  0  0  0  0  0  0
  134.5700   81.3770  224.4980 C   0  0  0  0  0  0  0  0  0  0  0  0
  133.5638   80.9359  224.4442 H   0  0  0  0  0  0  0  0  0  0  0  0
  135.6900   80.6170  224.1500 C   0  0  0  0  0  0  0  0  0  0  0  0
  135.5150   79.3350  223.7470 N   0  0  0  0  0  0  0  0  0  0  0  0
  136.5550   78.5310  223.3980 C   0  0  0  0  0  0  0  0  0  0  0  0
  136.3290   77.2300  223.0010 N   0  0  0  0  0  0  0  0  0  0  0  0
  134.9210   76.7660  222.9350 C   0  0  0  0  0  0  0  0  0  0  0  0
  134.2912   77.5824  222.5518 H   0  0  0  0  0  0  0  0  0  0  0  0
  134.8714   75.8936  222.2669 H   0  0  0  0  0  0  0  0  0  0  0  0
  134.4200   76.3550  224.2990 C   0  0  0  0  0  0  0  0  0  0  0  0
  134.7190   75.0850  224.8210 C   0  0  0  0  0  0  0  0  0  0  0  0
  135.3154   74.3760  224.2279 H   0  0  0  0  0  0  0  0  0  0  0  0
  134.2620   74.7180  226.0910 C   0  0  0  0  0  0  0  0  0  0  0  0
  134.4990   73.7217  226.4926 H   0  0  0  0  0  0  0  0  0  0  0  0
  133.5050   75.6140  226.8510 C   0  0  0  0  0  0  0  0  0  0  0  0
  133.1482   75.3236  227.8502 H   0  0  0  0  0  0  0  0  0  0  0  0
  133.2020   76.8780  226.3410 C   0  0  0  0  0  0  0  0  0  0  0  0
  132.6055   77.5829  226.9387 H   0  0  0  0  0  0  0  0  0  0  0  0
  133.6560   77.2490  225.0710 C   0  0  0  0  0  0  0  0  0  0  0  0
  133.4142   78.2458  224.6736 H   0  0  0  0  0  0  0  0  0  0  0  0
  1  2  1  0
  2  3  2  0
  3  4  1  0
  4  5  1  0
  5  6  2  0
  6  7  1  0
  7  8  1  6
  7  9  1  0
  9 10  2  0
 10 11  1  0
 10 12  1  0
 12 13  1  0
 12 14  2  0
 14 15  1  0
 14 16  1  0
 16 17  1  0
 16 18  2  0
 18 19  1  0
  7 20  1  0
 20 21  1  0
 20 22  1  0
 20 23  1  0
  5 24  1  0
 24 25  1  0
  4 26  2  0
 26 27  1  0
 26 28  1  0
 28 29  1  0
 29 30  2  0
 29 31  1  0
 31 32  1  0
 32 33  1  0
 32 34  2  0
 34 35  1  0
 34 36  1  0
 36 37  1  0
 36 38  2  0
 38 39  1  0
 38 40  1  0
 40 41  2  0
 41 42  1  0
 42 43  1  0
 43 44  1  0
 44 45  1  0
 44 46  1  0
 44 47  1  0
 47 48  2  0
 48 49  1  0
 48 50  1  0
 50 51  1  0
 50 52  2  0
 52 53  1  0
 52 54  1  0
 54 55  1  0
 54 56  2  0
 56 57  1  0
 43  3  1  0
 56 47  1  0
 18  9  1  0
 42 28  2  0
 40 31  1  0
M  END
>  <UniqueID>  (35) 
101

>  <SMILES>  (35) 
[H]/N=c1/c(/C(O)=N/[C@@H](C)c2ccccc2)cc2c(=O)n3cc(Cl)ccc3nc2n1Cc1ccccc1

>  <Energy>  (35) 
90.18701297646199

>  <Genealogy>  (35) 
C[C@H](N=C(O)c1cc2c(=O)n3cc(Cl)ccc3nc2n(Cc2ccccc2)c1=N)c1ccccc1 (tautomer)
[H]/N=c1/c(/C(O)=N/[C@@H](C)c2ccccc2)cc2c(=O)n3cc(Cl)ccc3nc2n1Cc1ccccc1 (cis-trans isomerization)
[H]/N=c1/c(/C(O)=N/[C@@H](C)c2ccccc2)cc2c(=O)n3cc(Cl)ccc3nc2n1Cc1ccccc1 (3D coordinates assigned)
[H]/N=c1/c(/C(O)=N/[C@@H](C)c2ccccc2)cc2c(=O)n3cc(Cl)ccc3nc2n1Cc1ccccc1 (optimized conformer: 90.18701297646199 kcal/mol)

>  <smiles>  (35) 
C[C@H](NC(=O)c1cc2c(=O)n3cc(Cl)ccc3nc2n(Cc2ccccc2)c1=N)c1ccccc1

>  <score_type>  (35) 
oracle

>  <origin>  (35) 
autodockgpu

>  <m_score__min__energy>  (35) 
-8.0399999999999991

>  <m_primary>  (35) 
energy

>  <meeko>  (35) 
{"free_energy": -7.85, "intermolecular_energy": -10.24, "internal_energy": -2.61, "cluster_size": 18, "cluster_id": 2, "rank_in_cluster": 16}

>  <energy>  (35) 
-7.85

>  <cluster_rmsd>  (35) 
0.06

>  <rmsd>  (35) 
270.64

>  <cluster>  (35) 
2

$$$$
BLHILRPTNSSYME-FZQKWJEZNA-N
     RDKit          3D

 57 61  0  0  0  0  0  0  0  0999 V2000
  136.7570   68.6280  225.4200 H   0  0  0  0  0  0  0  0  0  0  0  0
  137.5400   69.0230  224.8620 N   0  0  0  0  0  0  0  0  0  0  0  0
  137.5740   70.1620  224.2280 C   0  0  0  0  0  0  0  0  0  0  0  0
  136.3390   70.7520  223.8600 C   0  0  0  0  0  0  0  0  0  0  0  0
  135.0220   70.1750  224.2460 C   0  0  0  0  0  0  0  0  0  0  0  0
  134.0140   70.9690  224.4840 N   0  0  0  0  0  0  0  0  0  0  0  0
  133.4980   71.4380  225.7750 C   0  0  2  0  0  0  0  0  0  0  0  0
  132.4076   71.2994  225.8181 H   0  0  0  0  0  0  0  0  0  0  0  0
  133.6680   72.9440  225.9310 C   0  0  0  0  0  0  0  0  0  0  0  0
  132.7990   73.6320  226.7990 C   0  0  0  0  0  0  0  0  0  0  0  0
  132.0127   73.0786  227.3333 H   0  0  0  0  0  0  0  0  0  0  0  0
  132.9250   75.0120  226.9890 C   0  0  0  0  0  0  0  0  0  0  0  0
  132.2330   75.5391  227.6622 H   0  0  0  0  0  0  0  0  0  0  0  0
  133.9270   75.7210  226.3260 C   0  0  0  0  0  0  0  0  0  0  0  0
  134.0230   76.8067  226.4744 H   0  0  0  0  0  0  0  0  0  0  0  0
  134.8080   75.0520  225.4740 C   0  0  0  0  0  0  0  0  0  0  0  0
  135.5997   75.6118  224.9546 H   0  0  0  0  0  0  0  0  0  0  0  0
  134.6870   73.6730  225.2790 C   0  0  0  0  0  0  0  0  0  0  0  0
  135.3905   73.1519  224.6130 H   0  0  0  0  0  0  0  0  0  0  0  0
  134.0430   70.5700  226.9200 C   0  0  0  0  0  0  0  0  0  0  0  0
  133.7621   71.0173  227.8849 H   0  0  0  0  0  0  0  0  0  0  0  0
  133.6178   69.5581  226.8474 H   0  0  0  0  0  0  0  0  0  0  0  0
  135.1391   70.5133  226.8474 H   0  0  0  0  0  0  0  0  0  0  0  0
  134.9040   68.7840  224.3260 O   0  0  0  0  0  0  0  0  0  0  0  0
  135.6620   68.1410  224.1560 H   0  0  0  0  0  0  0  0  0  0  0  0
  136.3470   71.9130  223.0850 C   0  0  0  0  0  0  0  0  0  0  0  0
  135.3944   72.3710  222.7805 H   0  0  0  0  0  0  0  0  0  0  0  0
  137.5510   72.4980  222.6930 C   0  0  0  0  0  0  0  0  0  0  0  0
  137.5910   73.6630  221.9010 C   0  0  0  0  0  0  0  0  0  0  0  0
  136.5090   74.2000  221.5270 O   0  0  0  0  0  0  0  0  0  0  0  0
  138.7970   74.2110  221.5380 N   0  0  0  0  0  0  0  0  0  0  0  0
  138.8500   75.3430  220.7630 C   0  0  0  0  0  0  0  0  0  0  0  0
  137.9152   75.8186  220.4313 H   0  0  0  0  0  0  0  0  0  0  0  0
  140.0780   75.8990  220.3900 C   0  0  0  0  0  0  0  0  0  0  0  0
  140.1300   77.3460  219.3990 Cl  0  0  0  0  0  0  0  0  0  0  0  0
  141.2600   75.2950  220.8110 C   0  0  0  0  0  0  0  0  0  0  0  0
  142.2319   75.7232  220.5245 H   0  0  0  0  0  0  0  0  0  0  0  0
  141.2060   74.1470  221.5960 C   0  0  0  0  0  0  0  0  0  0  0  0
  142.1347   73.6626  221.9320 H   0  0  0  0  0  0  0  0  0  0  0  0
  139.9650   73.6130  221.9550 C   0  0  0  0  0  0  0  0  0  0  0  0
  139.9270   72.4960  222.7200 N   0  0  0  0  0  0  0  0  0  0  0  0
  138.7600   71.9140  223.1050 C   0  0  0  0  0  0  0  0  0  0  0  0
  138.7710   70.7730  223.8790 N   0  0  0  0  0  0  0  0  0  0  0  0
  140.0900   70.2390  224.2990 C   0  0  0  0  0  0  0  0  0  0  0  0
  140.0631   69.1402  224.2556 H   0  0  0  0  0  0  0  0  0  0  0  0
  140.8595   70.6339  223.6193 H   0  0  0  0  0  0  0  0  0  0  0  0
  140.4270   70.6690  225.7070 C   0  0  0  0  0  0  0  0  0  0  0  0
  140.0770   69.8660  226.8060 C   0  0  0  0  0  0  0  0  0  0  0  0
  139.5426   68.9184  226.6433 H   0  0  0  0  0  0  0  0  0  0  0  0
  140.4050   70.2660  228.1060 C   0  0  0  0  0  0  0  0  0  0  0  0
  140.1281   69.6327  228.9618 H   0  0  0  0  0  0  0  0  0  0  0  0
  141.0840   71.4690  228.3190 C   0  0  0  0  0  0  0  0  0  0  0  0
  141.3418   71.7814  229.3417 H   0  0  0  0  0  0  0  0  0  0  0  0
  141.4350   72.2740  227.2340 C   0  0  0  0  0  0  0  0  0  0  0  0
  141.9687   73.2210  227.4025 H   0  0  0  0  0  0  0  0  0  0  0  0
  141.1090   71.8780  225.9330 C   0  0  0  0  0  0  0  0  0  0  0  0
  141.3877   72.5160  225.0813 H   0  0  0  0  0  0  0  0  0  0  0  0
  1  2  1  0
  2  3  2  0
  3  4  1  0
  4  5  1  0
  5  6  2  0
  6  7  1  0
  7  8  1  6
  7  9  1  0
  9 10  2  0
 10 11  1  0
 10 12  1  0
 12 13  1  0
 12 14  2  0
 14 15  1  0
 14 16  1  0
 16 17  1  0
 16 18  2  0
 18 19  1  0
  7 20  1  0
 20 21  1  0
 20 22  1  0
 20 23  1  0
  5 24  1  0
 24 25  1  0
  4 26  2  0
 26 27  1  0
 26 28  1  0
 28 29  1  0
 29 30  2  0
 29 31  1  0
 31 32  1  0
 32 33  1  0
 32 34  2  0
 34 35  1  0
 34 36  1  0
 36 37  1  0
 36 38  2  0
 38 39  1  0
 38 40  1  0
 40 41  2  0
 41 42  1  0
 42 43  1  0
 43 44  1  0
 44 45  1  0
 44 46  1  0
 44 47  1  0
 47 48  2  0
 48 49  1  0
 48 50  1  0
 50 51  1  0
 50 52  2  0
 52 53  1  0
 52 54  1  0
 54 55  1  0
 54 56  2  0
 56 57  1  0
 43  3  1  0
 56 47  1  0
 18  9  1  0
 42 28  2  0
 40 31  1  0
M  END
>  <UniqueID>  (36) 
101

>  <SMILES>  (36) 
[H]/N=c1/c(/C(O)=N/[C@@H](C)c2ccccc2)cc2c(=O)n3cc(Cl)ccc3nc2n1Cc1ccccc1

>  <Energy>  (36) 
90.18701297646199

>  <Genealogy>  (36) 
C[C@H](N=C(O)c1cc2c(=O)n3cc(Cl)ccc3nc2n(Cc2ccccc2)c1=N)c1ccccc1 (tautomer)
[H]/N=c1/c(/C(O)=N/[C@@H](C)c2ccccc2)cc2c(=O)n3cc(Cl)ccc3nc2n1Cc1ccccc1 (cis-trans isomerization)
[H]/N=c1/c(/C(O)=N/[C@@H](C)c2ccccc2)cc2c(=O)n3cc(Cl)ccc3nc2n1Cc1ccccc1 (3D coordinates assigned)
[H]/N=c1/c(/C(O)=N/[C@@H](C)c2ccccc2)cc2c(=O)n3cc(Cl)ccc3nc2n1Cc1ccccc1 (optimized conformer: 90.18701297646199 kcal/mol)

>  <smiles>  (36) 
C[C@H](NC(=O)c1cc2c(=O)n3cc(Cl)ccc3nc2n(Cc2ccccc2)c1=N)c1ccccc1

>  <score_type>  (36) 
oracle

>  <origin>  (36) 
autodockgpu

>  <m_score__min__energy>  (36) 
-8.0399999999999991

>  <m_primary>  (36) 
energy

>  <meeko>  (36) 
{"free_energy": -7.74, "intermolecular_energy": -10.13, "internal_energy": -2.53, "cluster_size": 1, "cluster_id": 3, "rank_in_cluster": 1}

>  <energy>  (36) 
-7.85

>  <cluster_rmsd>  (36) 
0.05

>  <rmsd>  (36) 
270.62

>  <cluster>  (36) 
2

$$$$
BLHILRPTNSSYME-FZQKWJEZNA-N
     RDKit          3D

 57 61  0  0  0  0  0  0  0  0999 V2000
  137.9450   74.5190  221.8230 H   0  0  0  0  0  0  0  0  0  0  0  0
  137.2890   75.1360  222.3420 N   0  0  0  0  0  0  0  0  0  0  0  0
  137.4400   76.3970  222.6340 C   0  0  0  0  0  0  0  0  0  0  0  0
  138.7590   76.9130  222.6810 C   0  0  0  0  0  0  0  0  0  0  0  0
  139.9550   76.1030  222.3220 C   0  0  0  0  0  0  0  0  0  0  0  0
  141.0770   76.7020  222.0310 N   0  0  0  0  0  0  0  0  0  0  0  0
  141.3080   77.8350  221.1290 C   0  0  2  0  0  0  0  0  0  0  0  0
  142.2173   77.6636  220.5342 H   0  0  0  0  0  0  0  0  0  0  0  0
  141.6270   79.1100  221.9020 C   0  0  0  0  0  0  0  0  0  0  0  0
  141.3020   80.3490  221.3190 C   0  0  0  0  0  0  0  0  0  0  0  0
  140.8408   80.3764  220.3207 H   0  0  0  0  0  0  0  0  0  0  0  0
  141.5590   81.5450  221.9950 C   0  0  0  0  0  0  0  0  0  0  0  0
  141.3085   82.5068  221.5237 H   0  0  0  0  0  0  0  0  0  0  0  0
  142.1330   81.5210  223.2670 C   0  0  0  0  0  0  0  0  0  0  0  0
  142.3376   82.4631  223.7967 H   0  0  0  0  0  0  0  0  0  0  0  0
  142.4470   80.3000  223.8660 C   0  0  0  0  0  0  0  0  0  0  0  0
  142.8964   80.2819  224.8699 H   0  0  0  0  0  0  0  0  0  0  0  0
  142.1930   79.1010  223.1960 C   0  0  0  0  0  0  0  0  0  0  0  0
  142.4354   78.1432  223.6795 H   0  0  0  0  0  0  0  0  0  0  0  0
  140.1790   77.9350  220.0910 C   0  0  0  0  0  0  0  0  0  0  0  0
  139.2120   78.0207  220.6082 H   0  0  0  0  0  0  0  0  0  0  0  0
  140.3377   78.8226  219.4610 H   0  0  0  0  0  0  0  0  0  0  0  0
  140.1793   77.0333  219.4610 H   0  0  0  0  0  0  0  0  0  0  0  0
  139.8380   74.7090  222.3240 O   0  0  0  0  0  0  0  0  0  0  0  0
  139.1600   74.1990  222.8680 H   0  0  0  0  0  0  0  0  0  0  0  0
  138.9570   78.2300  223.1000 C   0  0  0  0  0  0  0  0  0  0  0  0
  139.9778   78.6360  223.1554 H   0  0  0  0  0  0  0  0  0  0  0  0
  137.8740   79.0360  223.4490 C   0  0  0  0  0  0  0  0  0  0  0  0
  138.0440   80.3650  223.8860 C   0  0  0  0  0  0  0  0  0  0  0  0
  139.2090   80.8490  223.9700 O   0  0  0  0  0  0  0  0  0  0  0  0
  136.9510   81.1280  224.2190 N   0  0  0  0  0  0  0  0  0  0  0  0
  137.1030   82.4230  224.6500 C   0  0  0  0  0  0  0  0  0  0  0  0
  138.1116   82.8551  224.7271 H   0  0  0  0  0  0  0  0  0  0  0  0
  135.9910   83.1990  224.9920 C   0  0  0  0  0  0  0  0  0  0  0  0
  136.2010   84.8520  225.5420 Cl  0  0  0  0  0  0  0  0  0  0  0  0
  134.7150   82.6490  224.8940 C   0  0  0  0  0  0  0  0  0  0  0  0
  133.8326   83.2491  225.1608 H   0  0  0  0  0  0  0  0  0  0  0  0
  134.5620   81.3370  224.4570 C   0  0  0  0  0  0  0  0  0  0  0  0
  133.5581   80.8947  224.3764 H   0  0  0  0  0  0  0  0  0  0  0  0
  135.6900   80.5840  224.1210 C   0  0  0  0  0  0  0  0  0  0  0  0
  135.5260   79.3080  223.6960 N   0  0  0  0  0  0  0  0  0  0  0  0
  136.5750   78.5110  223.3560 C   0  0  0  0  0  0  0  0  0  0  0  0
  136.3590   77.2160  222.9360 N   0  0  0  0  0  0  0  0  0  0  0  0
  134.9540   76.7500  222.8340 C   0  0  0  0  0  0  0  0  0  0  0  0
  134.3224   77.5840  222.4942 H   0  0  0  0  0  0  0  0  0  0  0  0
  134.9126   75.9173  222.1164 H   0  0  0  0  0  0  0  0  0  0  0  0
  134.4470   76.2590  224.1700 C   0  0  0  0  0  0  0  0  0  0  0  0
  133.6750   77.0940  224.9950 C   0  0  0  0  0  0  0  0  0  0  0  0
  133.4437   78.1200  224.6728 H   0  0  0  0  0  0  0  0  0  0  0  0
  133.1990   76.6260  226.2250 C   0  0  0  0  0  0  0  0  0  0  0  0
  132.5966   77.2854  226.8671 H   0  0  0  0  0  0  0  0  0  0  0  0
  133.4870   75.3240  226.6390 C   0  0  0  0  0  0  0  0  0  0  0  0
  133.1094   74.9579  227.6051 H   0  0  0  0  0  0  0  0  0  0  0  0
  134.2540   74.4870  225.8270 C   0  0  0  0  0  0  0  0  0  0  0  0
  134.4821   73.4620  226.1547 H   0  0  0  0  0  0  0  0  0  0  0  0
  134.7330   74.9500  224.5970 C   0  0  0  0  0  0  0  0  0  0  0  0
  135.3367   74.2866  223.9603 H   0  0  0  0  0  0  0  0  0  0  0  0
  1  2  1  0
  2  3  2  0
  3  4  1  0
  4  5  1  0
  5  6  2  0
  6  7  1  0
  7  8  1  6
  7  9  1  0
  9 10  2  0
 10 11  1  0
 10 12  1  0
 12 13  1  0
 12 14  2  0
 14 15  1  0
 14 16  1  0
 16 17  1  0
 16 18  2  0
 18 19  1  0
  7 20  1  0
 20 21  1  0
 20 22  1  0
 20 23  1  0
  5 24  1  0
 24 25  1  0
  4 26  2  0
 26 27  1  0
 26 28  1  0
 28 29  1  0
 29 30  2  0
 29 31  1  0
 31 32  1  0
 32 33  1  0
 32 34  2  0
 34 35  1  0
 34 36  1  0
 36 37  1  0
 36 38  2  0
 38 39  1  0
 38 40  1  0
 40 41  2  0
 41 42  1  0
 42 43  1  0
 43 44  1  0
 44 45  1  0
 44 46  1  0
 44 47  1  0
 47 48  2  0
 48 49  1  0
 48 50  1  0
 50 51  1  0
 50 52  2  0
 52 53  1  0
 52 54  1  0
 54 55  1  0
 54 56  2  0
 56 57  1  0
 43  3  1  0
 56 47  1  0
 18  9  1  0
 42 28  2  0
 40 31  1  0
M  END
>  <UniqueID>  (37) 
101

>  <SMILES>  (37) 
[H]/N=c1/c(/C(O)=N/[C@@H](C)c2ccccc2)cc2c(=O)n3cc(Cl)ccc3nc2n1Cc1ccccc1

>  <Energy>  (37) 
90.18701297646199

>  <Genealogy>  (37) 
C[C@H](N=C(O)c1cc2c(=O)n3cc(Cl)ccc3nc2n(Cc2ccccc2)c1=N)c1ccccc1 (tautomer)
[H]/N=c1/c(/C(O)=N/[C@@H](C)c2ccccc2)cc2c(=O)n3cc(Cl)ccc3nc2n1Cc1ccccc1 (cis-trans isomerization)
[H]/N=c1/c(/C(O)=N/[C@@H](C)c2ccccc2)cc2c(=O)n3cc(Cl)ccc3nc2n1Cc1ccccc1 (3D coordinates assigned)
[H]/N=c1/c(/C(O)=N/[C@@H](C)c2ccccc2)cc2c(=O)n3cc(Cl)ccc3nc2n1Cc1ccccc1 (optimized conformer: 90.18701297646199 kcal/mol)

>  <smiles>  (37) 
C[C@H](NC(=O)c1cc2c(=O)n3cc(Cl)ccc3nc2n(Cc2ccccc2)c1=N)c1ccccc1

>  <score_type>  (37) 
oracle

>  <origin>  (37) 
autodockgpu

>  <m_score__min__energy>  (37) 
-8.0399999999999991

>  <m_primary>  (37) 
energy

>  <meeko>  (37) 
{"free_energy": -7.31, "intermolecular_energy": -9.7, "internal_energy": -2.67, "cluster_size": 18, "cluster_id": 2, "rank_in_cluster": 18}

>  <energy>  (37) 
-7.85

>  <cluster_rmsd>  (37) 
0.05

>  <rmsd>  (37) 
270.64

>  <cluster>  (37) 
2

$$$$
BLHILRPTNSSYME-FZQKWJEZNA-N
     RDKit          3D

 57 61  0  0  0  0  0  0  0  0999 V2000
  137.7660   74.3050  222.8640 H   0  0  0  0  0  0  0  0  0  0  0  0
  137.2830   75.1110  222.4200 N   0  0  0  0  0  0  0  0  0  0  0  0
  137.4360   76.3780  222.6840 C   0  0  0  0  0  0  0  0  0  0  0  0
  138.7540   76.8990  222.6960 C   0  0  0  0  0  0  0  0  0  0  0  0
  139.9450   76.0850  222.3310 C   0  0  0  0  0  0  0  0  0  0  0  0
  141.0900   76.6750  222.1210 N   0  0  0  0  0  0  0  0  0  0  0  0
  141.4050   77.7680  221.1950 C   0  0  2  0  0  0  0  0  0  0  0  0
  142.3485   77.5565  220.6706 H   0  0  0  0  0  0  0  0  0  0  0  0
  141.6980   79.0660  221.9400 C   0  0  0  0  0  0  0  0  0  0  0  0
  141.3960   80.2860  221.3080 C   0  0  0  0  0  0  0  0  0  0  0  0
  140.9706   80.2828  220.2936 H   0  0  0  0  0  0  0  0  0  0  0  0
  141.6310   81.5030  221.9560 C   0  0  0  0  0  0  0  0  0  0  0  0
  141.4001   82.4502  221.4466 H   0  0  0  0  0  0  0  0  0  0  0  0
  142.1580   81.5170  223.2480 C   0  0  0  0  0  0  0  0  0  0  0  0
  142.3449   82.4748  223.7557 H   0  0  0  0  0  0  0  0  0  0  0  0
  142.4480   80.3150  223.8960 C   0  0  0  0  0  0  0  0  0  0  0  0
  142.8603   80.3275  224.9157 H   0  0  0  0  0  0  0  0  0  0  0  0
  142.2160   79.0950  223.2530 C   0  0  0  0  0  0  0  0  0  0  0  0
  142.4386   78.1519  223.7736 H   0  0  0  0  0  0  0  0  0  0  0  0
  140.3520   77.8490  220.0790 C   0  0  0  0  0  0  0  0  0  0  0  0
  139.3497   77.9261  220.5255 H   0  0  0  0  0  0  0  0  0  0  0  0
  140.5451   78.7349  219.4563 H   0  0  0  0  0  0  0  0  0  0  0  0
  140.4074   76.9439  219.4563 H   0  0  0  0  0  0  0  0  0  0  0  0
  139.8000   74.6970  222.2400 O   0  0  0  0  0  0  0  0  0  0  0  0
  139.1770   74.1550  222.8190 H   0  0  0  0  0  0  0  0  0  0  0  0
  138.9550   78.2250  223.0850 C   0  0  0  0  0  0  0  0  0  0  0  0
  139.9752   78.6354  223.1132 H   0  0  0  0  0  0  0  0  0  0  0  0
  137.8760   79.0340  223.4380 C   0  0  0  0  0  0  0  0  0  0  0  0
  138.0500   80.3720  223.8460 C   0  0  0  0  0  0  0  0  0  0  0  0
  139.2150   80.8610  223.8990 O   0  0  0  0  0  0  0  0  0  0  0  0
  136.9610   81.1380  224.1840 N   0  0  0  0  0  0  0  0  0  0  0  0
  137.1170   82.4420  224.5870 C   0  0  0  0  0  0  0  0  0  0  0  0
  138.1255   82.8784  224.6373 H   0  0  0  0  0  0  0  0  0  0  0  0
  136.0090   83.2210  224.9340 C   0  0  0  0  0  0  0  0  0  0  0  0
  136.2230   84.8850  225.4480 Cl  0  0  0  0  0  0  0  0  0  0  0  0
  134.7330   82.6660  224.8700 C   0  0  0  0  0  0  0  0  0  0  0  0
  133.8538   83.2691  225.1407 H   0  0  0  0  0  0  0  0  0  0  0  0
  134.5760   81.3450  224.4620 C   0  0  0  0  0  0  0  0  0  0  0  0
  133.5722   80.8983  224.4090 H   0  0  0  0  0  0  0  0  0  0  0  0
  135.7000   80.5890  224.1200 C   0  0  0  0  0  0  0  0  0  0  0  0
  135.5330   79.3040  223.7230 N   0  0  0  0  0  0  0  0  0  0  0  0
  136.5770   78.5040  223.3800 C   0  0  0  0  0  0  0  0  0  0  0  0
  136.3580   77.2000  222.9890 N   0  0  0  0  0  0  0  0  0  0  0  0
  134.9530   76.7280  222.9230 C   0  0  0  0  0  0  0  0  0  0  0  0
  134.3197   77.5382  222.5325 H   0  0  0  0  0  0  0  0  0  0  0  0
  134.9097   75.8506  222.2610 H   0  0  0  0  0  0  0  0  0  0  0  0
  134.4510   76.3240  224.2890 C   0  0  0  0  0  0  0  0  0  0  0  0
  133.6670   77.2030  225.0550 C   0  0  0  0  0  0  0  0  0  0  0  0
  133.4232   78.2015  224.6632 H   0  0  0  0  0  0  0  0  0  0  0  0
  133.1950   76.8150  226.3130 C   0  0  0  0  0  0  0  0  0  0  0  0
  132.5817   77.5085  226.9070 H   0  0  0  0  0  0  0  0  0  0  0  0
  133.5010   75.5480  226.8170 C   0  0  0  0  0  0  0  0  0  0  0  0
  133.1284   75.2448  227.8065 H   0  0  0  0  0  0  0  0  0  0  0  0
  134.2800   74.6670  226.0640 C   0  0  0  0  0  0  0  0  0  0  0  0
  134.5209   73.6698  226.4610 H   0  0  0  0  0  0  0  0  0  0  0  0
  134.7540   75.0510  224.8060 C   0  0  0  0  0  0  0  0  0  0  0  0
  135.3676   74.3536  224.2168 H   0  0  0  0  0  0  0  0  0  0  0  0
  1  2  1  0
  2  3  2  0
  3  4  1  0
  4  5  1  0
  5  6  2  0
  6  7  1  0
  7  8  1  6
  7  9  1  0
  9 10  2  0
 10 11  1  0
 10 12  1  0
 12 13  1  0
 12 14  2  0
 14 15  1  0
 14 16  1  0
 16 17  1  0
 16 18  2  0
 18 19  1  0
  7 20  1  0
 20 21  1  0
 20 22  1  0
 20 23  1  0
  5 24  1  0
 24 25  1  0
  4 26  2  0
 26 27  1  0
 26 28  1  0
 28 29  1  0
 29 30  2  0
 29 31  1  0
 31 32  1  0
 32 33  1  0
 32 34  2  0
 34 35  1  0
 34 36  1  0
 36 37  1  0
 36 38  2  0
 38 39  1  0
 38 40  1  0
 40 41  2  0
 41 42  1  0
 42 43  1  0
 43 44  1  0
 44 45  1  0
 44 46  1  0
 44 47  1  0
 47 48  2  0
 48 49  1  0
 48 50  1  0
 50 51  1  0
 50 52  2  0
 52 53  1  0
 52 54  1  0
 54 55  1  0
 54 56  2  0
 56 57  1  0
 43  3  1  0
 56 47  1  0
 18  9  1  0
 42 28  2  0
 40 31  1  0
M  END
>  <UniqueID>  (38) 
101

>  <SMILES>  (38) 
[H]/N=c1/c(/C(O)=N/[C@@H](C)c2ccccc2)cc2c(=O)n3cc(Cl)ccc3nc2n1Cc1ccccc1

>  <Energy>  (38) 
90.18701297646199

>  <Genealogy>  (38) 
C[C@H](N=C(O)c1cc2c(=O)n3cc(Cl)ccc3nc2n(Cc2ccccc2)c1=N)c1ccccc1 (tautomer)
[H]/N=c1/c(/C(O)=N/[C@@H](C)c2ccccc2)cc2c(=O)n3cc(Cl)ccc3nc2n1Cc1ccccc1 (cis-trans isomerization)
[H]/N=c1/c(/C(O)=N/[C@@H](C)c2ccccc2)cc2c(=O)n3cc(Cl)ccc3nc2n1Cc1ccccc1 (3D coordinates assigned)
[H]/N=c1/c(/C(O)=N/[C@@H](C)c2ccccc2)cc2c(=O)n3cc(Cl)ccc3nc2n1Cc1ccccc1 (optimized conformer: 90.18701297646199 kcal/mol)

>  <smiles>  (38) 
C[C@H](NC(=O)c1cc2c(=O)n3cc(Cl)ccc3nc2n(Cc2ccccc2)c1=N)c1ccccc1

>  <score_type>  (38) 
oracle

>  <origin>  (38) 
autodockgpu

>  <m_score__min__energy>  (38) 
-8.0399999999999991

>  <m_primary>  (38) 
energy

>  <meeko>  (38) 
{"free_energy": -7.86, "intermolecular_energy": -10.24, "internal_energy": -2.58, "cluster_size": 18, "cluster_id": 2, "rank_in_cluster": 12}

>  <energy>  (38) 
-7.82

>  <cluster_rmsd>  (38) 
0.08

>  <rmsd>  (38) 
270.62

>  <cluster>  (38) 
2

$$$$
BLHILRPTNSSYME-FZQKWJEZNA-N
     RDKit          3D

 57 61  0  0  0  0  0  0  0  0999 V2000
  137.7730   74.3190  222.8370 H   0  0  0  0  0  0  0  0  0  0  0  0
  137.2850   75.1280  222.4030 N   0  0  0  0  0  0  0  0  0  0  0  0
  137.4360   76.3930  222.6780 C   0  0  0  0  0  0  0  0  0  0  0  0
  138.7540   76.9150  222.6940 C   0  0  0  0  0  0  0  0  0  0  0  0
  139.9470   76.1060  222.3220 C   0  0  0  0  0  0  0  0  0  0  0  0
  141.0890   76.7000  222.1120 N   0  0  0  0  0  0  0  0  0  0  0  0
  141.4090   77.7730  221.1640 C   0  0  2  0  0  0  0  0  0  0  0  0
  142.3724   77.5681  220.6742 H   0  0  0  0  0  0  0  0  0  0  0  0
  141.6520   79.0970  221.8780 C   0  0  0  0  0  0  0  0  0  0  0  0
  142.1980   79.0710  223.1750 C   0  0  0  0  0  0  0  0  0  0  0  0
  142.4249   78.1055  223.6508 H   0  0  0  0  0  0  0  0  0  0  0  0
  142.4550   80.2600  223.8650 C   0  0  0  0  0  0  0  0  0  0  0  0
  142.8735   80.2258  224.8817 H   0  0  0  0  0  0  0  0  0  0  0  0
  142.1810   81.4900  223.2650 C   0  0  0  0  0  0  0  0  0  0  0  0
  142.3805   82.4245  223.8099 H   0  0  0  0  0  0  0  0  0  0  0  0
  141.6540   81.5340  221.9740 C   0  0  0  0  0  0  0  0  0  0  0  0
  141.4416   82.5044  221.5016 H   0  0  0  0  0  0  0  0  0  0  0  0
  141.3950   80.3500  221.2790 C   0  0  0  0  0  0  0  0  0  0  0  0
  140.9880   80.3940  220.2580 H   0  0  0  0  0  0  0  0  0  0  0  0
  140.3880   77.7980  220.0160 C   0  0  0  0  0  0  0  0  0  0  0  0
  139.3698   77.8229  220.4314 H   0  0  0  0  0  0  0  0  0  0  0  0
  140.5536   78.6924  219.3974 H   0  0  0  0  0  0  0  0  0  0  0  0
  140.5097   76.8966  219.3974 H   0  0  0  0  0  0  0  0  0  0  0  0
  139.8040   74.7190  222.2230 O   0  0  0  0  0  0  0  0  0  0  0  0
  139.1840   74.1710  222.7990 H   0  0  0  0  0  0  0  0  0  0  0  0
  138.9540   78.2380  223.0940 C   0  0  0  0  0  0  0  0  0  0  0  0
  139.9738   78.6493  223.1246 H   0  0  0  0  0  0  0  0  0  0  0  0
  137.8740   79.0430  223.4550 C   0  0  0  0  0  0  0  0  0  0  0  0
  138.0460   80.3770  223.8740 C   0  0  0  0  0  0  0  0  0  0  0  0
  139.2100   80.8670  223.9310 O   0  0  0  0  0  0  0  0  0  0  0  0
  136.9560   81.1390  224.2190 N   0  0  0  0  0  0  0  0  0  0  0  0
  137.1110   82.4390  224.6330 C   0  0  0  0  0  0  0  0  0  0  0  0
  138.1190   82.8762  224.6862 H   0  0  0  0  0  0  0  0  0  0  0  0
  136.0010   83.2140  224.9880 C   0  0  0  0  0  0  0  0  0  0  0  0
  136.2140   84.8740  225.5160 Cl  0  0  0  0  0  0  0  0  0  0  0  0
  134.7270   82.6580  224.9190 C   0  0  0  0  0  0  0  0  0  0  0  0
  133.8471   83.2577  225.1947 H   0  0  0  0  0  0  0  0  0  0  0  0
  134.5710   81.3410  224.5000 C   0  0  0  0  0  0  0  0  0  0  0  0
  133.5676   80.8938  224.4436 H   0  0  0  0  0  0  0  0  0  0  0  0
  135.6960   80.5890  224.1510 C   0  0  0  0  0  0  0  0  0  0  0  0
  135.5300   79.3080  223.7430 N   0  0  0  0  0  0  0  0  0  0  0  0
  136.5750   78.5110  223.3920 C   0  0  0  0  0  0  0  0  0  0  0  0
  136.3580   77.2100  222.9900 N   0  0  0  0  0  0  0  0  0  0  0  0
  134.9530   76.7380  222.9210 C   0  0  0  0  0  0  0  0  0  0  0  0
  134.3195   77.5506  222.5358 H   0  0  0  0  0  0  0  0  0  0  0  0
  134.9100   75.8648  222.2534 H   0  0  0  0  0  0  0  0  0  0  0  0
  134.4510   76.3250  224.2840 C   0  0  0  0  0  0  0  0  0  0  0  0
  134.7700   75.0640  224.8150 C   0  0  0  0  0  0  0  0  0  0  0  0
  135.3830   74.3630  224.2295 H   0  0  0  0  0  0  0  0  0  0  0  0
  134.3120   74.6950  226.0850 C   0  0  0  0  0  0  0  0  0  0  0  0
  134.5647   73.7057  226.4941 H   0  0  0  0  0  0  0  0  0  0  0  0
  133.5340   75.5820  226.8340 C   0  0  0  0  0  0  0  0  0  0  0  0
  133.1753   75.2907  227.8323 H   0  0  0  0  0  0  0  0  0  0  0  0
  133.2120   76.8370  226.3160 C   0  0  0  0  0  0  0  0  0  0  0  0
  132.6002   77.5346  226.9068 H   0  0  0  0  0  0  0  0  0  0  0  0
  133.6660   77.2090  225.0470 C   0  0  0  0  0  0  0  0  0  0  0  0
  133.4079   78.1989  224.6426 H   0  0  0  0  0  0  0  0  0  0  0  0
  1  2  1  0
  2  3  2  0
  3  4  1  0
  4  5  1  0
  5  6  2  0
  6  7  1  0
  7  8  1  6
  7  9  1  0
  9 10  2  0
 10 11  1  0
 10 12  1  0
 12 13  1  0
 12 14  2  0
 14 15  1  0
 14 16  1  0
 16 17  1  0
 16 18  2  0
 18 19  1  0
  7 20  1  0
 20 21  1  0
 20 22  1  0
 20 23  1  0
  5 24  1  0
 24 25  1  0
  4 26  2  0
 26 27  1  0
 26 28  1  0
 28 29  1  0
 29 30  2  0
 29 31  1  0
 31 32  1  0
 32 33  1  0
 32 34  2  0
 34 35  1  0
 34 36  1  0
 36 37  1  0
 36 38  2  0
 38 39  1  0
 38 40  1  0
 40 41  2  0
 41 42  1  0
 42 43  1  0
 43 44  1  0
 44 45  1  0
 44 46  1  0
 44 47  1  0
 47 48  2  0
 48 49  1  0
 48 50  1  0
 50 51  1  0
 50 52  2  0
 52 53  1  0
 52 54  1  0
 54 55  1  0
 54 56  2  0
 56 57  1  0
 43  3  1  0
 56 47  1  0
 18  9  1  0
 42 28  2  0
 40 31  1  0
M  END
>  <UniqueID>  (39) 
101

>  <SMILES>  (39) 
[H]/N=c1/c(/C(O)=N/[C@@H](C)c2ccccc2)cc2c(=O)n3cc(Cl)ccc3nc2n1Cc1ccccc1

>  <Energy>  (39) 
90.18701297646199

>  <Genealogy>  (39) 
C[C@H](N=C(O)c1cc2c(=O)n3cc(Cl)ccc3nc2n(Cc2ccccc2)c1=N)c1ccccc1 (tautomer)
[H]/N=c1/c(/C(O)=N/[C@@H](C)c2ccccc2)cc2c(=O)n3cc(Cl)ccc3nc2n1Cc1ccccc1 (cis-trans isomerization)
[H]/N=c1/c(/C(O)=N/[C@@H](C)c2ccccc2)cc2c(=O)n3cc(Cl)ccc3nc2n1Cc1ccccc1 (3D coordinates assigned)
[H]/N=c1/c(/C(O)=N/[C@@H](C)c2ccccc2)cc2c(=O)n3cc(Cl)ccc3nc2n1Cc1ccccc1 (optimized conformer: 90.18701297646199 kcal/mol)

>  <smiles>  (39) 
C[C@H](NC(=O)c1cc2c(=O)n3cc(Cl)ccc3nc2n(Cc2ccccc2)c1=N)c1ccccc1

>  <score_type>  (39) 
oracle

>  <origin>  (39) 
autodockgpu

>  <m_score__min__energy>  (39) 
-8.0399999999999991

>  <m_primary>  (39) 
energy

>  <meeko>  (39) 
{"free_energy": -7.88, "intermolecular_energy": -10.27, "internal_energy": -2.6, "cluster_size": 18, "cluster_id": 2, "rank_in_cluster": 2}

>  <energy>  (39) 
-7.31

>  <cluster_rmsd>  (39) 
0.21

>  <rmsd>  (39) 
270.58

>  <cluster>  (39) 
2

$$$$
BLHILRPTNSSYME-FZQKWJEZNA-N
     RDKit          3D

 57 61  0  0  0  0  0  0  0  0999 V2000
  137.7580   74.2980  222.8300 H   0  0  0  0  0  0  0  0  0  0  0  0
  137.2710   75.1070  222.3940 N   0  0  0  0  0  0  0  0  0  0  0  0
  137.4230   76.3720  222.6680 C   0  0  0  0  0  0  0  0  0  0  0  0
  138.7400   76.8950  222.6780 C   0  0  0  0  0  0  0  0  0  0  0  0
  139.9320   76.0870  222.3010 C   0  0  0  0  0  0  0  0  0  0  0  0
  141.0770   76.6790  222.1040 N   0  0  0  0  0  0  0  0  0  0  0  0
  141.4100   77.7450  221.1520 C   0  0  2  0  0  0  0  0  0  0  0  0
  142.3763   77.5328  220.6711 H   0  0  0  0  0  0  0  0  0  0  0  0
  141.6530   79.0720  221.8610 C   0  0  0  0  0  0  0  0  0  0  0  0
  142.2030   79.0520  223.1570 C   0  0  0  0  0  0  0  0  0  0  0  0
  142.4327   78.0888  223.6360 H   0  0  0  0  0  0  0  0  0  0  0  0
  142.4600   80.2430  223.8410 C   0  0  0  0  0  0  0  0  0  0  0  0
  142.8821   80.2129  224.8564 H   0  0  0  0  0  0  0  0  0  0  0  0
  142.1820   81.4710  223.2380 C   0  0  0  0  0  0  0  0  0  0  0  0
  142.3813   82.4077  223.7792 H   0  0  0  0  0  0  0  0  0  0  0  0
  141.6510   81.5090  221.9480 C   0  0  0  0  0  0  0  0  0  0  0  0
  141.4355   82.4773  221.4726 H   0  0  0  0  0  0  0  0  0  0  0  0
  141.3920   80.3220  221.2580 C   0  0  0  0  0  0  0  0  0  0  0  0
  140.9820   80.3614  220.2380 H   0  0  0  0  0  0  0  0  0  0  0  0
  140.3990   77.7680  219.9950 C   0  0  0  0  0  0  0  0  0  0  0  0
  139.3771   77.7912  220.4014 H   0  0  0  0  0  0  0  0  0  0  0  0
  140.5685   78.6625  219.3777 H   0  0  0  0  0  0  0  0  0  0  0  0
  140.5277   76.8667  219.3777 H   0  0  0  0  0  0  0  0  0  0  0  0
  139.7850   74.7010  222.1860 O   0  0  0  0  0  0  0  0  0  0  0  0
  139.1730   74.1460  222.7640 H   0  0  0  0  0  0  0  0  0  0  0  0
  138.9410   78.2180  223.0770 C   0  0  0  0  0  0  0  0  0  0  0  0
  139.9608   78.6294  223.1045 H   0  0  0  0  0  0  0  0  0  0  0  0
  137.8620   79.0230  223.4410 C   0  0  0  0  0  0  0  0  0  0  0  0
  138.0350   80.3570  223.8590 C   0  0  0  0  0  0  0  0  0  0  0  0
  139.1990   80.8480  223.9110 O   0  0  0  0  0  0  0  0  0  0  0  0
  136.9460   81.1190  224.2080 N   0  0  0  0  0  0  0  0  0  0  0  0
  137.1010   82.4190  224.6210 C   0  0  0  0  0  0  0  0  0  0  0  0
  138.1090   82.8566  224.6710 H   0  0  0  0  0  0  0  0  0  0  0  0
  135.9930   83.1940  224.9790 C   0  0  0  0  0  0  0  0  0  0  0  0
  136.2070   84.8540  225.5050 Cl  0  0  0  0  0  0  0  0  0  0  0  0
  134.7190   82.6370  224.9160 C   0  0  0  0  0  0  0  0  0  0  0  0
  133.8399   83.2362  225.1955 H   0  0  0  0  0  0  0  0  0  0  0  0
  134.5620   81.3190  224.4980 C   0  0  0  0  0  0  0  0  0  0  0  0
  133.5587   80.8710  224.4458 H   0  0  0  0  0  0  0  0  0  0  0  0
  135.6860   80.5680  224.1450 C   0  0  0  0  0  0  0  0  0  0  0  0
  135.5190   79.2860  223.7390 N   0  0  0  0  0  0  0  0  0  0  0  0
  136.5640   78.4900  223.3840 C   0  0  0  0  0  0  0  0  0  0  0  0
  136.3450   77.1890  222.9840 N   0  0  0  0  0  0  0  0  0  0  0  0
  134.9400   76.7150  222.9200 C   0  0  0  0  0  0  0  0  0  0  0  0
  134.3040   77.5262  222.5361 H   0  0  0  0  0  0  0  0  0  0  0  0
  134.8953   75.8413  222.2532 H   0  0  0  0  0  0  0  0  0  0  0  0
  134.4440   76.3030  224.2860 C   0  0  0  0  0  0  0  0  0  0  0  0
  134.7640   75.0410  224.8140 C   0  0  0  0  0  0  0  0  0  0  0  0
  135.3731   74.3393  224.2252 H   0  0  0  0  0  0  0  0  0  0  0  0
  134.3110   74.6730  226.0860 C   0  0  0  0  0  0  0  0  0  0  0  0
  134.5641   73.6830  226.4933 H   0  0  0  0  0  0  0  0  0  0  0  0
  133.5380   75.5600  226.8400 C   0  0  0  0  0  0  0  0  0  0  0  0
  133.1842   75.2684  227.8399 H   0  0  0  0  0  0  0  0  0  0  0  0
  133.2150   76.8160  226.3240 C   0  0  0  0  0  0  0  0  0  0  0  0
  132.6068   77.5142  226.9179 H   0  0  0  0  0  0  0  0  0  0  0  0
  133.6640   77.1880  225.0520 C   0  0  0  0  0  0  0  0  0  0  0  0
  133.4055   78.1783  224.6488 H   0  0  0  0  0  0  0  0  0  0  0  0
  1  2  1  0
  2  3  2  0
  3  4  1  0
  4  5  1  0
  5  6  2  0
  6  7  1  0
  7  8  1  6
  7  9  1  0
  9 10  2  0
 10 11  1  0
 10 12  1  0
 12 13  1  0
 12 14  2  0
 14 15  1  0
 14 16  1  0
 16 17  1  0
 16 18  2  0
 18 19  1  0
  7 20  1  0
 20 21  1  0
 20 22  1  0
 20 23  1  0
  5 24  1  0
 24 25  1  0
  4 26  2  0
 26 27  1  0
 26 28  1  0
 28 29  1  0
 29 30  2  0
 29 31  1  0
 31 32  1  0
 32 33  1  0
 32 34  2  0
 34 35  1  0
 34 36  1  0
 36 37  1  0
 36 38  2  0
 38 39  1  0
 38 40  1  0
 40 41  2  0
 41 42  1  0
 42 43  1  0
 43 44  1  0
 44 45  1  0
 44 46  1  0
 44 47  1  0
 47 48  2  0
 48 49  1  0
 48 50  1  0
 50 51  1  0
 50 52  2  0
 52 53  1  0
 52 54  1  0
 54 55  1  0
 54 56  2  0
 56 57  1  0
 43  3  1  0
 56 47  1  0
 18  9  1  0
 42 28  2  0
 40 31  1  0
M  END
>  <UniqueID>  (40) 
101

>  <SMILES>  (40) 
[H]/N=c1/c(/C(O)=N/[C@@H](C)c2ccccc2)cc2c(=O)n3cc(Cl)ccc3nc2n1Cc1ccccc1

>  <Energy>  (40) 
90.18701297646199

>  <Genealogy>  (40) 
C[C@H](N=C(O)c1cc2c(=O)n3cc(Cl)ccc3nc2n(Cc2ccccc2)c1=N)c1ccccc1 (tautomer)
[H]/N=c1/c(/C(O)=N/[C@@H](C)c2ccccc2)cc2c(=O)n3cc(Cl)ccc3nc2n1Cc1ccccc1 (cis-trans isomerization)
[H]/N=c1/c(/C(O)=N/[C@@H](C)c2ccccc2)cc2c(=O)n3cc(Cl)ccc3nc2n1Cc1ccccc1 (3D coordinates assigned)
[H]/N=c1/c(/C(O)=N/[C@@H](C)c2ccccc2)cc2c(=O)n3cc(Cl)ccc3nc2n1Cc1ccccc1 (optimized conformer: 90.18701297646199 kcal/mol)

>  <smiles>  (40) 
C[C@H](NC(=O)c1cc2c(=O)n3cc(Cl)ccc3nc2n(Cc2ccccc2)c1=N)c1ccccc1

>  <score_type>  (40) 
oracle

>  <origin>  (40) 
autodockgpu

>  <m_score__min__energy>  (40) 
-8.0399999999999991

>  <m_primary>  (40) 
energy

>  <meeko>  (40) 
{"free_energy": -7.88, "intermolecular_energy": -10.26, "internal_energy": -2.6, "cluster_size": 18, "cluster_id": 2, "rank_in_cluster": 3}

>  <energy>  (40) 
-7.74

>  <cluster_rmsd>  (40) 
0.0

>  <rmsd>  (40) 
269.37

>  <cluster>  (40) 
3

$$$$
BLHILRPTNSSYME-OCGWMCMZNA-N
     RDKit          3D

 57 61  0  0  0  0  0  0  0  0999 V2000
  140.7820   70.1260  220.5950 H   0  0  0  0  0  0  0  0  0  0  0  0
  141.1370   71.0350  220.2300 N   0  0  0  0  0  0  0  0  0  0  0  0
  140.8590   72.2060  220.7300 C   0  0  0  0  0  0  0  0  0  0  0  0
  139.9430   72.3290  221.8060 C   0  0  0  0  0  0  0  0  0  0  0  0
  139.3770   71.1610  222.5160 C   0  0  0  0  0  0  0  0  0  0  0  0
  139.6990   69.9980  222.1500 O   0  0  0  0  0  0  0  0  0  0  0  0
  138.4170   71.3480  223.5680 N   0  0  0  0  0  0  0  0  0  0  0  0
  138.0420   72.3110  223.7200 H   0  0  0  0  0  0  0  0  0  0  0  0
  137.9360   70.2370  224.3990 C   0  0  2  0  0  0  0  0  0  0  0  0
  137.1174   70.6079  225.0332 H   0  0  0  0  0  0  0  0  0  0  0  0
  139.0410   69.7260  225.3040 C   0  0  0  0  0  0  0  0  0  0  0  0
  139.1040   68.3670  225.6710 C   0  0  0  0  0  0  0  0  0  0  0  0
  138.3491   67.6626  225.2917 H   0  0  0  0  0  0  0  0  0  0  0  0
  140.1200   67.9090  226.5140 C   0  0  0  0  0  0  0  0  0  0  0  0
  140.1639   66.8458  226.7928 H   0  0  0  0  0  0  0  0  0  0  0  0
  141.0790   68.7970  227.0030 C   0  0  0  0  0  0  0  0  0  0  0  0
  141.8769   68.4336  227.6673 H   0  0  0  0  0  0  0  0  0  0  0  0
  141.0260   70.1480  226.6490 C   0  0  0  0  0  0  0  0  0  0  0  0
  141.7827   70.8471  227.0346 H   0  0  0  0  0  0  0  0  0  0  0  0
  140.0120   70.6120  225.8050 C   0  0  0  0  0  0  0  0  0  0  0  0
  139.9735   71.6767  225.5311 H   0  0  0  0  0  0  0  0  0  0  0  0
  137.3940   69.1060  223.5180 C   0  0  0  0  0  0  0  0  0  0  0  0
  137.0067   68.2978  224.1559 H   0  0  0  0  0  0  0  0  0  0  0  0
  136.5832   69.4924  222.8829 H   0  0  0  0  0  0  0  0  0  0  0  0
  138.2031   68.7161  222.8829 H   0  0  0  0  0  0  0  0  0  0  0  0
  139.5800   73.6020  222.2470 C   0  0  0  0  0  0  0  0  0  0  0  0
  138.8400   73.7096  223.0537 H   0  0  0  0  0  0  0  0  0  0  0  0
  140.1490   74.7410  221.6720 C   0  0  0  0  0  0  0  0  0  0  0  0
  139.8280   76.0400  222.1120 C   0  0  0  0  0  0  0  0  0  0  0  0
  138.9850   76.1920  223.0420 O   0  0  0  0  0  0  0  0  0  0  0  0
  140.4300   77.1320  221.5360 N   0  0  0  0  0  0  0  0  0  0  0  0
  140.1290   78.4040  221.9600 C   0  0  0  0  0  0  0  0  0  0  0  0
  139.3967   78.5489  222.7680 H   0  0  0  0  0  0  0  0  0  0  0  0
  140.7430   79.5160  221.3760 C   0  0  0  0  0  0  0  0  0  0  0  0
  140.3510   81.1350  221.9280 Cl  0  0  0  0  0  0  0  0  0  0  0  0
  141.6700   79.3310  220.3530 C   0  0  0  0  0  0  0  0  0  0  0  0
  142.1593   80.1988  219.8866 H   0  0  0  0  0  0  0  0  0  0  0  0
  141.9740   78.0420  219.9240 C   0  0  0  0  0  0  0  0  0  0  0  0
  142.7052   77.8858  219.1172 H   0  0  0  0  0  0  0  0  0  0  0  0
  141.3450   76.9470  220.5240 C   0  0  0  0  0  0  0  0  0  0  0  0
  141.6520   75.6970  220.0980 N   0  0  0  0  0  0  0  0  0  0  0  0
  141.0860   74.5870  220.6370 C   0  0  0  0  0  0  0  0  0  0  0  0
  141.4280   73.3360  220.1760 N   0  0  0  0  0  0  0  0  0  0  0  0
  142.4450   73.2210  219.1030 C   0  0  0  0  0  0  0  0  0  0  0  0
  142.3125   72.2629  218.5791 H   0  0  0  0  0  0  0  0  0  0  0  0
  142.3178   74.0570  218.3994 H   0  0  0  0  0  0  0  0  0  0  0  0
  143.8330   73.2800  219.6870 C   0  0  0  0  0  0  0  0  0  0  0  0
  144.7020   72.1800  219.5790 C   0  0  0  0  0  0  0  0  0  0  0  0
  144.3607   71.2593  219.0831 H   0  0  0  0  0  0  0  0  0  0  0  0
  145.9980   72.2510  220.0990 C   0  0  0  0  0  0  0  0  0  0  0  0
  146.6736   71.3874  220.0106 H   0  0  0  0  0  0  0  0  0  0  0  0
  146.4360   73.4180  220.7310 C   0  0  0  0  0  0  0  0  0  0  0  0
  147.4556   73.4725  221.1402 H   0  0  0  0  0  0  0  0  0  0  0  0
  145.5780   74.5160  220.8430 C   0  0  0  0  0  0  0  0  0  0  0  0
  145.9235   75.4343  221.3404 H   0  0  0  0  0  0  0  0  0  0  0  0
  144.2820   74.4490  220.3240 C   0  0  0  0  0  0  0  0  0  0  0  0
  143.6105   75.3155  220.4147 H   0  0  0  0  0  0  0  0  0  0  0  0
  1  2  1  0
  2  3  2  0
  3  4  1  0
  4  5  1  0
  5  6  2  0
  5  7  1  0
  7  8  1  0
  7  9  1  0
  9 10  1  1
  9 11  1  0
 11 12  2  0
 12 13  1  0
 12 14  1  0
 14 15  1  0
 14 16  2  0
 16 17  1  0
 16 18  1  0
 18 19  1  0
 18 20  2  0
 20 21  1  0
  9 22  1  0
 22 23  1  0
 22 24  1  0
 22 25  1  0
  4 26  2  0
 26 27  1  0
 26 28  1  0
 28 29  1  0
 29 30  2  0
 29 31  1  0
 31 32  1  0
 32 33  1  0
 32 34  2  0
 34 35  1  0
 34 36  1  0
 36 37  1  0
 36 38  2  0
 38 39  1  0
 38 40  1  0
 40 41  2  0
 41 42  1  0
 42 43  1  0
 43 44  1  0
 44 45  1  0
 44 46  1  0
 44 47  1  0
 47 48  2  0
 48 49  1  0
 48 50  1  0
 50 51  1  0
 50 52  2  0
 52 53  1  0
 52 54  1  0
 54 55  1  0
 54 56  2  0
 56 57  1  0
 43  3  1  0
 56 47  1  0
 20 11  1  0
 42 28  2  0
 40 31  1  0
M  END
>  <UniqueID>  (41) 
102

>  <SMILES>  (41) 
[H]/N=c1\c(C(=O)N[C@@H](C)c2ccccc2)cc2c(=O)n3cc(Cl)ccc3nc2n1Cc1ccccc1

>  <Energy>  (41) 
82.31487178615336

>  <Genealogy>  (41) 
[H]/N=c1\c(C(=O)N[C@@H](C)c2ccccc2)cc2c(=O)n3cc(Cl)ccc3nc2n1Cc1ccccc1 (cis-trans isomerization)
[H]/N=c1\c(C(=O)N[C@@H](C)c2ccccc2)cc2c(=O)n3cc(Cl)ccc3nc2n1Cc1ccccc1 (3D coordinates assigned)
[H]/N=c1\c(C(=O)N[C@@H](C)c2ccccc2)cc2c(=O)n3cc(Cl)ccc3nc2n1Cc1ccccc1 (optimized conformer: 82.31487178615336 kcal/mol)

>  <smiles>  (41) 
C[C@H](NC(=O)c1cc2c(=O)n3cc(Cl)ccc3nc2n(Cc2ccccc2)c1=N)c1ccccc1

>  <score_type>  (41) 
oracle

>  <origin>  (41) 
autodockgpu

>  <m_score__min__energy>  (41) 
-8.9000000000000004

>  <m_primary>  (41) 
energy

>  <meeko>  (41) 
{"free_energy": -8.87, "intermolecular_energy": -10.66, "internal_energy": -1.64, "cluster_size": 12, "cluster_id": 1, "rank_in_cluster": 6}

>  <energy>  (41) 
-8.9

>  <cluster_rmsd>  (41) 
0.0

>  <rmsd>  (41) 
270.98

>  <cluster>  (41) 
1

$$$$
BLHILRPTNSSYME-OCGWMCMZNA-N
     RDKit          3D

 57 61  0  0  0  0  0  0  0  0999 V2000
  135.6440   78.0750  222.8830 H   0  0  0  0  0  0  0  0  0  0  0  0
  136.6600   78.2260  222.7030 N   0  0  0  0  0  0  0  0  0  0  0  0
  137.5090   77.2960  222.3680 C   0  0  0  0  0  0  0  0  0  0  0  0
  137.2140   75.9300  222.6120 C   0  0  0  0  0  0  0  0  0  0  0  0
  135.8970   75.4690  223.1060 C   0  0  0  0  0  0  0  0  0  0  0  0
  134.8730   76.1710  222.8850 O   0  0  0  0  0  0  0  0  0  0  0  0
  135.7960   74.2680  223.8860 N   0  0  0  0  0  0  0  0  0  0  0  0
  136.6830   73.8130  224.1980 H   0  0  0  0  0  0  0  0  0  0  0  0
  134.5030   73.6900  224.2750 C   0  0  2  0  0  0  0  0  0  0  0  0
  133.8268   73.7396  223.4088 H   0  0  0  0  0  0  0  0  0  0  0  0
  133.8790   74.4830  225.4070 C   0  0  0  0  0  0  0  0  0  0  0  0
  134.5010   75.6460  225.9020 C   0  0  0  0  0  0  0  0  0  0  0  0
  135.4464   75.9919  225.4585 H   0  0  0  0  0  0  0  0  0  0  0  0
  133.9230   76.3630  226.9540 C   0  0  0  0  0  0  0  0  0  0  0  0
  134.4126   77.2723  227.3328 H   0  0  0  0  0  0  0  0  0  0  0  0
  132.7250   75.9270  227.5250 C   0  0  0  0  0  0  0  0  0  0  0  0
  132.2728   76.4926  228.3530 H   0  0  0  0  0  0  0  0  0  0  0  0
  132.1010   74.7730  227.0450 C   0  0  0  0  0  0  0  0  0  0  0  0
  131.1579   74.4303  227.4958 H   0  0  0  0  0  0  0  0  0  0  0  0
  132.6740   74.0530  225.9920 C   0  0  0  0  0  0  0  0  0  0  0  0
  132.1792   73.1443  225.6186 H   0  0  0  0  0  0  0  0  0  0  0  0
  134.6730   72.2200  224.6750 C   0  0  0  0  0  0  0  0  0  0  0  0
  134.6826   72.1372  225.7718 H   0  0  0  0  0  0  0  0  0  0  0  0
  133.8370   71.6308  224.2701 H   0  0  0  0  0  0  0  0  0  0  0  0
  135.6214   71.8371  224.2701 H   0  0  0  0  0  0  0  0  0  0  0  0
  138.1860   74.9660  222.3450 C   0  0  0  0  0  0  0  0  0  0  0  0
  137.9820   73.9084  222.5683 H   0  0  0  0  0  0  0  0  0  0  0  0
  139.4170   75.3340  221.7960 C   0  0  0  0  0  0  0  0  0  0  0  0
  140.4110   74.3840  221.4860 C   0  0  0  0  0  0  0  0  0  0  0  0
  140.2000   73.1610  221.7270 O   0  0  0  0  0  0  0  0  0  0  0  0
  141.5980   74.7860  220.9240 N   0  0  0  0  0  0  0  0  0  0  0  0
  142.5730   73.8690  220.6130 C   0  0  0  0  0  0  0  0  0  0  0  0
  142.4018   72.8021  220.8188 H   0  0  0  0  0  0  0  0  0  0  0  0
  143.7800   74.2770  220.0380 C   0  0  0  0  0  0  0  0  0  0  0  0
  145.0160   73.0950  219.6440 Cl  0  0  0  0  0  0  0  0  0  0  0  0
  143.9960   75.6280  219.7790 C   0  0  0  0  0  0  0  0  0  0  0  0
  144.9424   75.9597  219.3270 H   0  0  0  0  0  0  0  0  0  0  0  0
  143.0080   76.5570  220.0950 C   0  0  0  0  0  0  0  0  0  0  0  0
  143.1693   77.6263  219.8933 H   0  0  0  0  0  0  0  0  0  0  0  0
  141.8100   76.1230  220.6700 C   0  0  0  0  0  0  0  0  0  0  0  0
  140.8550   77.0370  220.9710 N   0  0  0  0  0  0  0  0  0  0  0  0
  139.6650   76.6900  221.5240 C   0  0  0  0  0  0  0  0  0  0  0  0
  138.7220   77.6500  221.8120 N   0  0  0  0  0  0  0  0  0  0  0  0
  139.0160   79.0650  221.4800 C   0  0  0  0  0  0  0  0  0  0  0  0
  139.1718   79.1579  220.3950 H   0  0  0  0  0  0  0  0  0  0  0  0
  138.1668   79.6893  221.7948 H   0  0  0  0  0  0  0  0  0  0  0  0
  140.2560   79.5270  222.2010 C   0  0  0  0  0  0  0  0  0  0  0  0
  140.5740   79.0210  223.4740 C   0  0  0  0  0  0  0  0  0  0  0  0
  139.9031   78.2964  223.9586 H   0  0  0  0  0  0  0  0  0  0  0  0
  141.7390   79.4350  224.1260 C   0  0  0  0  0  0  0  0  0  0  0  0
  141.9826   79.0350  225.1213 H   0  0  0  0  0  0  0  0  0  0  0  0
  142.5950   80.3560  223.5160 C   0  0  0  0  0  0  0  0  0  0  0  0
  143.5118   80.6799  224.0303 H   0  0  0  0  0  0  0  0  0  0  0  0
  142.2850   80.8650  222.2520 C   0  0  0  0  0  0  0  0  0  0  0  0
  142.9583   81.5906  221.7722 H   0  0  0  0  0  0  0  0  0  0  0  0
  141.1210   80.4540  221.5960 C   0  0  0  0  0  0  0  0  0  0  0  0
  140.8813   80.8583  220.6015 H   0  0  0  0  0  0  0  0  0  0  0  0
  1  2  1  0
  2  3  2  0
  3  4  1  0
  4  5  1  0
  5  6  2  0
  5  7  1  0
  7  8  1  0
  7  9  1  0
  9 10  1  6
  9 11  1  0
 11 12  2  0
 12 13  1  0
 12 14  1  0
 14 15  1  0
 14 16  2  0
 16 17  1  0
 16 18  1  0
 18 19  1  0
 18 20  2  0
 20 21  1  0
  9 22  1  0
 22 23  1  0
 22 24  1  0
 22 25  1  0
  4 26  2  0
 26 27  1  0
 26 28  1  0
 28 29  1  0
 29 30  2  0
 29 31  1  0
 31 32  1  0
 32 33  1  0
 32 34  2  0
 34 35  1  0
 34 36  1  0
 36 37  1  0
 36 38  2  0
 38 39  1  0
 38 40  1  0
 40 41  2  0
 41 42  1  0
 42 43  1  0
 43 44  1  0
 44 45  1  0
 44 46  1  0
 44 47  1  0
 47 48  2  0
 48 49  1  0
 48 50  1  0
 50 51  1  0
 50 52  2  0
 52 53  1  0
 52 54  1  0
 54 55  1  0
 54 56  2  0
 56 57  1  0
 43  3  1  0
 56 47  1  0
 20 11  1  0
 42 28  2  0
 40 31  1  0
M  END
>  <UniqueID>  (42) 
102

>  <SMILES>  (42) 
[H]/N=c1\c(C(=O)N[C@@H](C)c2ccccc2)cc2c(=O)n3cc(Cl)ccc3nc2n1Cc1ccccc1

>  <Energy>  (42) 
82.31487178615336

>  <Genealogy>  (42) 
[H]/N=c1\c(C(=O)N[C@@H](C)c2ccccc2)cc2c(=O)n3cc(Cl)ccc3nc2n1Cc1ccccc1 (cis-trans isomerization)
[H]/N=c1\c(C(=O)N[C@@H](C)c2ccccc2)cc2c(=O)n3cc(Cl)ccc3nc2n1Cc1ccccc1 (3D coordinates assigned)
[H]/N=c1\c(C(=O)N[C@@H](C)c2ccccc2)cc2c(=O)n3cc(Cl)ccc3nc2n1Cc1ccccc1 (optimized conformer: 82.31487178615336 kcal/mol)

>  <smiles>  (42) 
C[C@H](NC(=O)c1cc2c(=O)n3cc(Cl)ccc3nc2n(Cc2ccccc2)c1=N)c1ccccc1

>  <score_type>  (42) 
oracle

>  <origin>  (42) 
autodockgpu

>  <m_score__min__energy>  (42) 
-8.9000000000000004

>  <m_primary>  (42) 
energy

>  <meeko>  (42) 
{"free_energy": -8.55, "intermolecular_energy": -10.33, "internal_energy": -1.71, "cluster_size": 8, "cluster_id": 2, "rank_in_cluster": 5}

>  <energy>  (42) 
-8.9

>  <cluster_rmsd>  (42) 
0.77

>  <rmsd>  (42) 
270.71

>  <cluster>  (42) 
1

$$$$
BLHILRPTNSSYME-OCGWMCMZNA-N
     RDKit          3D

 57 61  0  0  0  0  0  0  0  0999 V2000
  140.5810   70.1120  220.4280 H   0  0  0  0  0  0  0  0  0  0  0  0
  141.1420   70.9740  220.2610 N   0  0  0  0  0  0  0  0  0  0  0  0
  140.8780   72.1500  220.7570 C   0  0  0  0  0  0  0  0  0  0  0  0
  139.9650   72.2870  221.8340 C   0  0  0  0  0  0  0  0  0  0  0  0
  139.3870   71.1280  222.5500 C   0  0  0  0  0  0  0  0  0  0  0  0
  139.7060   69.9610  222.1970 O   0  0  0  0  0  0  0  0  0  0  0  0
  138.4210   71.3290  223.5930 N   0  0  0  0  0  0  0  0  0  0  0  0
  138.0500   72.2960  223.7350 H   0  0  0  0  0  0  0  0  0  0  0  0
  137.9280   70.2280  224.4300 C   0  0  2  0  0  0  0  0  0  0  0  0
  137.1331   70.6178  225.0828 H   0  0  0  0  0  0  0  0  0  0  0  0
  139.0380   69.6840  225.3090 C   0  0  0  0  0  0  0  0  0  0  0  0
  140.0350   70.5360  225.8240 C   0  0  0  0  0  0  0  0  0  0  0  0
  140.0068   71.6116  225.5954 H   0  0  0  0  0  0  0  0  0  0  0  0
  141.0600   70.0220  226.6240 C   0  0  0  0  0  0  0  0  0  0  0  0
  141.8327   70.6944  227.0251 H   0  0  0  0  0  0  0  0  0  0  0  0
  141.1050   68.6570  226.9150 C   0  0  0  0  0  0  0  0  0  0  0  0
  141.9132   68.2551  227.5436 H   0  0  0  0  0  0  0  0  0  0  0  0
  140.1240   67.8020  226.4080 C   0  0  0  0  0  0  0  0  0  0  0  0
  140.1605   66.7270  226.6382 H   0  0  0  0  0  0  0  0  0  0  0  0
  139.0950   68.3100  225.6080 C   0  0  0  0  0  0  0  0  0  0  0  0
  138.3259   67.6315  225.2103 H   0  0  0  0  0  0  0  0  0  0  0  0
  137.3380   69.1160  223.5570 C   0  0  0  0  0  0  0  0  0  0  0  0
  136.9198   68.3278  224.2003 H   0  0  0  0  0  0  0  0  0  0  0  0
  136.5419   69.5318  222.9219 H   0  0  0  0  0  0  0  0  0  0  0  0
  138.1287   68.6899  222.9219 H   0  0  0  0  0  0  0  0  0  0  0  0
  139.6170   73.5660  222.2710 C   0  0  0  0  0  0  0  0  0  0  0  0
  138.8799   73.6848  223.0788 H   0  0  0  0  0  0  0  0  0  0  0  0
  140.1970   74.6960  221.6910 C   0  0  0  0  0  0  0  0  0  0  0  0
  139.8910   76.0010  222.1260 C   0  0  0  0  0  0  0  0  0  0  0  0
  139.0520   76.1660  223.0570 O   0  0  0  0  0  0  0  0  0  0  0  0
  140.5040   77.0840  221.5450 N   0  0  0  0  0  0  0  0  0  0  0  0
  140.2170   78.3610  221.9640 C   0  0  0  0  0  0  0  0  0  0  0  0
  139.4867   78.5174  222.7716 H   0  0  0  0  0  0  0  0  0  0  0  0
  140.8430   79.4630  221.3750 C   0  0  0  0  0  0  0  0  0  0  0  0
  140.4690   81.0880  221.9210 Cl  0  0  0  0  0  0  0  0  0  0  0  0
  141.7650   79.2640  220.3510 C   0  0  0  0  0  0  0  0  0  0  0  0
  142.2620   80.1248  219.8799 H   0  0  0  0  0  0  0  0  0  0  0  0
  142.0550   77.9700  219.9260 C   0  0  0  0  0  0  0  0  0  0  0  0
  142.7835   77.8029  219.1189 H   0  0  0  0  0  0  0  0  0  0  0  0
  141.4150   76.8850  220.5310 C   0  0  0  0  0  0  0  0  0  0  0  0
  141.7070   75.6300  220.1100 N   0  0  0  0  0  0  0  0  0  0  0  0
  141.1310   74.5280  220.6550 C   0  0  0  0  0  0  0  0  0  0  0  0
  141.4580   73.2720  220.1980 N   0  0  0  0  0  0  0  0  0  0  0  0
  142.4710   73.1410  219.1240 C   0  0  0  0  0  0  0  0  0  0  0  0
  142.3438   72.1703  218.6223 H   0  0  0  0  0  0  0  0  0  0  0  0
  142.3341   73.9602  218.4028 H   0  0  0  0  0  0  0  0  0  0  0  0
  143.8620   73.2240  219.7000 C   0  0  0  0  0  0  0  0  0  0  0  0
  144.7440   72.1350  219.5980 C   0  0  0  0  0  0  0  0  0  0  0  0
  144.4125   71.2053  219.1124 H   0  0  0  0  0  0  0  0  0  0  0  0
  146.0410   72.2280  220.1110 C   0  0  0  0  0  0  0  0  0  0  0  0
  146.7273   71.3725  220.0272 H   0  0  0  0  0  0  0  0  0  0  0  0
  146.4670   73.4060  220.7300 C   0  0  0  0  0  0  0  0  0  0  0  0
  147.4880   73.4778  221.1328 H   0  0  0  0  0  0  0  0  0  0  0  0
  145.5950   74.4930  220.8370 C   0  0  0  0  0  0  0  0  0  0  0  0
  145.9303   75.4200  221.3251 H   0  0  0  0  0  0  0  0  0  0  0  0
  144.2980   74.4040  220.3250 C   0  0  0  0  0  0  0  0  0  0  0  0
  143.6152   75.2620  220.4118 H   0  0  0  0  0  0  0  0  0  0  0  0
  1  2  1  0
  2  3  2  0
  3  4  1  0
  4  5  1  0
  5  6  2  0
  5  7  1  0
  7  8  1  0
  7  9  1  0
  9 10  1  1
  9 11  1  0
 11 12  2  0
 12 13  1  0
 12 14  1  0
 14 15  1  0
 14 16  2  0
 16 17  1  0
 16 18  1  0
 18 19  1  0
 18 20  2  0
 20 21  1  0
  9 22  1  0
 22 23  1  0
 22 24  1  0
 22 25  1  0
  4 26  2  0
 26 27  1  0
 26 28  1  0
 28 29  1  0
 29 30  2  0
 29 31  1  0
 31 32  1  0
 32 33  1  0
 32 34  2  0
 34 35  1  0
 34 36  1  0
 36 37  1  0
 36 38  2  0
 38 39  1  0
 38 40  1  0
 40 41  2  0
 41 42  1  0
 42 43  1  0
 43 44  1  0
 44 45  1  0
 44 46  1  0
 44 47  1  0
 47 48  2  0
 48 49  1  0
 48 50  1  0
 50 51  1  0
 50 52  2  0
 52 53  1  0
 52 54  1  0
 54 55  1  0
 54 56  2  0
 56 57  1  0
 43  3  1  0
 56 47  1  0
 20 11  1  0
 42 28  2  0
 40 31  1  0
M  END
>  <UniqueID>  (43) 
102

>  <SMILES>  (43) 
[H]/N=c1\c(C(=O)N[C@@H](C)c2ccccc2)cc2c(=O)n3cc(Cl)ccc3nc2n1Cc1ccccc1

>  <Energy>  (43) 
82.31487178615336

>  <Genealogy>  (43) 
[H]/N=c1\c(C(=O)N[C@@H](C)c2ccccc2)cc2c(=O)n3cc(Cl)ccc3nc2n1Cc1ccccc1 (cis-trans isomerization)
[H]/N=c1\c(C(=O)N[C@@H](C)c2ccccc2)cc2c(=O)n3cc(Cl)ccc3nc2n1Cc1ccccc1 (3D coordinates assigned)
[H]/N=c1\c(C(=O)N[C@@H](C)c2ccccc2)cc2c(=O)n3cc(Cl)ccc3nc2n1Cc1ccccc1 (optimized conformer: 82.31487178615336 kcal/mol)

>  <smiles>  (43) 
C[C@H](NC(=O)c1cc2c(=O)n3cc(Cl)ccc3nc2n(Cc2ccccc2)c1=N)c1ccccc1

>  <score_type>  (43) 
oracle

>  <origin>  (43) 
autodockgpu

>  <m_score__min__energy>  (43) 
-8.9000000000000004

>  <m_primary>  (43) 
energy

>  <meeko>  (43) 
{"free_energy": -8.87, "intermolecular_energy": -10.66, "internal_energy": -1.63, "cluster_size": 12, "cluster_id": 1, "rank_in_cluster": 7}

>  <energy>  (43) 
-8.89

>  <cluster_rmsd>  (43) 
0.8

>  <rmsd>  (43) 
270.72

>  <cluster>  (43) 
1

$$$$
BLHILRPTNSSYME-OCGWMCMZNA-N
     RDKit          3D

 57 61  0  0  0  0  0  0  0  0999 V2000
  135.7460   78.0070  223.0580 H   0  0  0  0  0  0  0  0  0  0  0  0
  136.7290   78.1640  222.7490 N   0  0  0  0  0  0  0  0  0  0  0  0
  137.5630   77.2270  222.3960 C   0  0  0  0  0  0  0  0  0  0  0  0
  137.2520   75.8620  222.6260 C   0  0  0  0  0  0  0  0  0  0  0  0
  135.9330   75.4130  223.1240 C   0  0  0  0  0  0  0  0  0  0  0  0
  134.9150   76.1220  222.9050 O   0  0  0  0  0  0  0  0  0  0  0  0
  135.8250   74.2130  223.9060 N   0  0  0  0  0  0  0  0  0  0  0  0
  136.7090   73.7510  224.2160 H   0  0  0  0  0  0  0  0  0  0  0  0
  134.5280   73.6460  224.2980 C   0  0  2  0  0  0  0  0  0  0  0  0
  133.8466   73.7105  223.4369 H   0  0  0  0  0  0  0  0  0  0  0  0
  133.9210   74.4360  225.4420 C   0  0  0  0  0  0  0  0  0  0  0  0
  134.5180   75.6300  225.8910 C   0  0  0  0  0  0  0  0  0  0  0  0
  135.4313   76.0020  225.4036 H   0  0  0  0  0  0  0  0  0  0  0  0
  133.9560   76.3450  226.9530 C   0  0  0  0  0  0  0  0  0  0  0  0
  134.4258   77.2788  227.2955 H   0  0  0  0  0  0  0  0  0  0  0  0
  132.7990   75.8760  227.5800 C   0  0  0  0  0  0  0  0  0  0  0  0
  132.3591   76.4397  228.4159 H   0  0  0  0  0  0  0  0  0  0  0  0
  132.2010   74.6910  227.1450 C   0  0  0  0  0  0  0  0  0  0  0  0
  131.2906   74.3219  227.6399 H   0  0  0  0  0  0  0  0  0  0  0  0
  132.7570   73.9730  226.0820 C   0  0  0  0  0  0  0  0  0  0  0  0
  132.2814   73.0405  225.7441 H   0  0  0  0  0  0  0  0  0  0  0  0
  134.6850   72.1710  224.6850 C   0  0  0  0  0  0  0  0  0  0  0  0
  134.6948   72.0785  225.7811 H   0  0  0  0  0  0  0  0  0  0  0  0
  133.8433   71.5930  224.2758 H   0  0  0  0  0  0  0  0  0  0  0  0
  135.6295   71.7831  224.2758 H   0  0  0  0  0  0  0  0  0  0  0  0
  138.2100   74.8890  222.3390 C   0  0  0  0  0  0  0  0  0  0  0  0
  137.9937   73.8314  222.5501 H   0  0  0  0  0  0  0  0  0  0  0  0
  139.4410   75.2470  221.7860 C   0  0  0  0  0  0  0  0  0  0  0  0
  140.4210   74.2890  221.4570 C   0  0  0  0  0  0  0  0  0  0  0  0
  140.1950   73.0650  221.6840 O   0  0  0  0  0  0  0  0  0  0  0  0
  141.6080   74.6820  220.8910 N   0  0  0  0  0  0  0  0  0  0  0  0
  142.5690   73.7570  220.5610 C   0  0  0  0  0  0  0  0  0  0  0  0
  142.3852   72.6900  220.7550 H   0  0  0  0  0  0  0  0  0  0  0  0
  143.7770   74.1550  219.9820 C   0  0  0  0  0  0  0  0  0  0  0  0
  144.9940   72.9630  219.5640 Cl  0  0  0  0  0  0  0  0  0  0  0  0
  144.0090   75.5070  219.7380 C   0  0  0  0  0  0  0  0  0  0  0  0
  144.9563   75.8324  219.2833 H   0  0  0  0  0  0  0  0  0  0  0  0
  143.0350   76.4440  220.0730 C   0  0  0  0  0  0  0  0  0  0  0  0
  143.2086   77.5136  219.8835 H   0  0  0  0  0  0  0  0  0  0  0  0
  141.8360   76.0190  220.6510 C   0  0  0  0  0  0  0  0  0  0  0  0
  140.8960   76.9420  220.9710 N   0  0  0  0  0  0  0  0  0  0  0  0
  139.7060   76.6030  221.5290 C   0  0  0  0  0  0  0  0  0  0  0  0
  138.7780   77.5720  221.8360 N   0  0  0  0  0  0  0  0  0  0  0  0
  139.0880   78.9870  221.5180 C   0  0  0  0  0  0  0  0  0  0  0  0
  139.2129   79.0953  220.4305 H   0  0  0  0  0  0  0  0  0  0  0  0
  138.2603   79.6213  221.8680 H   0  0  0  0  0  0  0  0  0  0  0  0
  140.3580   79.4140  222.2090 C   0  0  0  0  0  0  0  0  0  0  0  0
  140.6140   79.0290  223.5360 C   0  0  0  0  0  0  0  0  0  0  0  0
  139.8734   78.4285  224.0846 H   0  0  0  0  0  0  0  0  0  0  0  0
  141.8060   79.4060  224.1620 C   0  0  0  0  0  0  0  0  0  0  0  0
  142.0017   79.0998  225.2002 H   0  0  0  0  0  0  0  0  0  0  0  0
  142.7490   80.1710  223.4710 C   0  0  0  0  0  0  0  0  0  0  0  0
  143.6858   80.4678  223.9652 H   0  0  0  0  0  0  0  0  0  0  0  0
  142.5010   80.5590  222.1510 C   0  0  0  0  0  0  0  0  0  0  0  0
  143.2440   81.1607  221.6070 H   0  0  0  0  0  0  0  0  0  0  0  0
  141.3110   80.1840  221.5210 C   0  0  0  0  0  0  0  0  0  0  0  0
  141.1198   80.4928  220.4827 H   0  0  0  0  0  0  0  0  0  0  0  0
  1  2  1  0
  2  3  2  0
  3  4  1  0
  4  5  1  0
  5  6  2  0
  5  7  1  0
  7  8  1  0
  7  9  1  0
  9 10  1  6
  9 11  1  0
 11 12  2  0
 12 13  1  0
 12 14  1  0
 14 15  1  0
 14 16  2  0
 16 17  1  0
 16 18  1  0
 18 19  1  0
 18 20  2  0
 20 21  1  0
  9 22  1  0
 22 23  1  0
 22 24  1  0
 22 25  1  0
  4 26  2  0
 26 27  1  0
 26 28  1  0
 28 29  1  0
 29 30  2  0
 29 31  1  0
 31 32  1  0
 32 33  1  0
 32 34  2  0
 34 35  1  0
 34 36  1  0
 36 37  1  0
 36 38  2  0
 38 39  1  0
 38 40  1  0
 40 41  2  0
 41 42  1  0
 42 43  1  0
 43 44  1  0
 44 45  1  0
 44 46  1  0
 44 47  1  0
 47 48  2  0
 48 49  1  0
 48 50  1  0
 50 51  1  0
 50 52  2  0
 52 53  1  0
 52 54  1  0
 54 55  1  0
 54 56  2  0
 56 57  1  0
 43  3  1  0
 56 47  1  0
 20 11  1  0
 42 28  2  0
 40 31  1  0
M  END
>  <UniqueID>  (44) 
102

>  <SMILES>  (44) 
[H]/N=c1\c(C(=O)N[C@@H](C)c2ccccc2)cc2c(=O)n3cc(Cl)ccc3nc2n1Cc1ccccc1

>  <Energy>  (44) 
82.31487178615336

>  <Genealogy>  (44) 
[H]/N=c1\c(C(=O)N[C@@H](C)c2ccccc2)cc2c(=O)n3cc(Cl)ccc3nc2n1Cc1ccccc1 (cis-trans isomerization)
[H]/N=c1\c(C(=O)N[C@@H](C)c2ccccc2)cc2c(=O)n3cc(Cl)ccc3nc2n1Cc1ccccc1 (3D coordinates assigned)
[H]/N=c1\c(C(=O)N[C@@H](C)c2ccccc2)cc2c(=O)n3cc(Cl)ccc3nc2n1Cc1ccccc1 (optimized conformer: 82.31487178615336 kcal/mol)

>  <smiles>  (44) 
C[C@H](NC(=O)c1cc2c(=O)n3cc(Cl)ccc3nc2n(Cc2ccccc2)c1=N)c1ccccc1

>  <score_type>  (44) 
oracle

>  <origin>  (44) 
autodockgpu

>  <m_score__min__energy>  (44) 
-8.9000000000000004

>  <m_primary>  (44) 
energy

>  <meeko>  (44) 
{"free_energy": -8.52, "intermolecular_energy": -10.31, "internal_energy": -1.73, "cluster_size": 8, "cluster_id": 2, "rank_in_cluster": 7}

>  <energy>  (44) 
-8.88

>  <cluster_rmsd>  (44) 
0.79

>  <rmsd>  (44) 
270.71

>  <cluster>  (44) 
1

$$$$
BLHILRPTNSSYME-OCGWMCMZNA-N
     RDKit          3D

 57 61  0  0  0  0  0  0  0  0999 V2000
  140.5240   70.6210  220.2250 H   0  0  0  0  0  0  0  0  0  0  0  0
  141.0630   71.4960  220.0490 N   0  0  0  0  0  0  0  0  0  0  0  0
  140.8100   72.6550  220.5880 C   0  0  0  0  0  0  0  0  0  0  0  0
  139.9150   72.7590  221.6830 C   0  0  0  0  0  0  0  0  0  0  0  0
  139.3430   71.5780  222.3680 C   0  0  0  0  0  0  0  0  0  0  0  0
  138.8070   70.6650  221.6840 O   0  0  0  0  0  0  0  0  0  0  0  0
  139.3400   71.5040  223.8020 N   0  0  0  0  0  0  0  0  0  0  0  0
  139.6280   72.3560  224.3360 H   0  0  0  0  0  0  0  0  0  0  0  0
  138.9200   70.2970  224.5260 C   0  0  2  0  0  0  0  0  0  0  0  0
  137.8419   70.3727  224.7307 H   0  0  0  0  0  0  0  0  0  0  0  0
  139.6460   70.1870  225.8530 C   0  0  0  0  0  0  0  0  0  0  0  0
  139.6090   68.9930  226.5990 C   0  0  0  0  0  0  0  0  0  0  0  0
  139.0555   68.1241  226.2135 H   0  0  0  0  0  0  0  0  0  0  0  0
  140.2720   68.9060  227.8270 C   0  0  0  0  0  0  0  0  0  0  0  0
  140.2412   67.9688  228.4020 H   0  0  0  0  0  0  0  0  0  0  0  0
  140.9730   70.0060  228.3250 C   0  0  0  0  0  0  0  0  0  0  0  0
  141.4932   69.9348  229.2916 H   0  0  0  0  0  0  0  0  0  0  0  0
  141.0140   71.1970  227.5960 C   0  0  0  0  0  0  0  0  0  0  0  0
  141.5658   72.0634  227.9896 H   0  0  0  0  0  0  0  0  0  0  0  0
  140.3540   71.2890  226.3660 C   0  0  0  0  0  0  0  0  0  0  0  0
  140.3889   72.2293  225.7962 H   0  0  0  0  0  0  0  0  0  0  0  0
  139.1670   69.0490  223.6710 C   0  0  0  0  0  0  0  0  0  0  0  0
  139.3384   68.1830  224.3272 H   0  0  0  0  0  0  0  0  0  0  0  0
  138.2889   68.8598  223.0361 H   0  0  0  0  0  0  0  0  0  0  0  0
  140.0510   69.2086  223.0361 H   0  0  0  0  0  0  0  0  0  0  0  0
  139.5780   74.0230  222.1680 C   0  0  0  0  0  0  0  0  0  0  0  0
  138.8534   74.1168  222.9903 H   0  0  0  0  0  0  0  0  0  0  0  0
  140.1540   75.1710  221.6170 C   0  0  0  0  0  0  0  0  0  0  0  0
  139.8590   76.4610  222.1010 C   0  0  0  0  0  0  0  0  0  0  0  0
  139.0340   76.5970  223.0500 O   0  0  0  0  0  0  0  0  0  0  0  0
  140.4670   77.5610  221.5470 N   0  0  0  0  0  0  0  0  0  0  0  0
  140.1920   78.8240  222.0130 C   0  0  0  0  0  0  0  0  0  0  0  0
  139.4755   78.9554  222.8372 H   0  0  0  0  0  0  0  0  0  0  0  0
  140.8120   79.9430  221.4520 C   0  0  0  0  0  0  0  0  0  0  0  0
  140.4540   81.5500  222.0580 Cl  0  0  0  0  0  0  0  0  0  0  0  0
  141.7190   79.7760  220.4080 C   0  0  0  0  0  0  0  0  0  0  0  0
  142.2130   80.6506  219.9596 H   0  0  0  0  0  0  0  0  0  0  0  0
  141.9970   78.4960  219.9350 C   0  0  0  0  0  0  0  0  0  0  0  0
  142.7117   78.3536  219.1110 H   0  0  0  0  0  0  0  0  0  0  0  0
  141.3620   77.3930  220.5140 C   0  0  0  0  0  0  0  0  0  0  0  0
  141.6430   76.1520  220.0460 N   0  0  0  0  0  0  0  0  0  0  0  0
  141.0710   75.0340  220.5620 C   0  0  0  0  0  0  0  0  0  0  0  0
  141.3860   73.7930  220.0580 N   0  0  0  0  0  0  0  0  0  0  0  0
  142.3830   73.6950  218.9650 C   0  0  0  0  0  0  0  0  0  0  0  0
  142.1007   72.8739  218.2897 H   0  0  0  0  0  0  0  0  0  0  0  0
  142.4036   74.6473  218.4148 H   0  0  0  0  0  0  0  0  0  0  0  0
  143.7550   73.4260  219.5270 C   0  0  0  0  0  0  0  0  0  0  0  0
  144.4360   72.2360  219.2140 C   0  0  0  0  0  0  0  0  0  0  0  0
  143.9565   71.4838  218.5704 H   0  0  0  0  0  0  0  0  0  0  0  0
  145.7190   72.0050  219.7170 C   0  0  0  0  0  0  0  0  0  0  0  0
  146.2472   71.0732  219.4667 H   0  0  0  0  0  0  0  0  0  0  0  0
  146.3320   72.9550  220.5370 C   0  0  0  0  0  0  0  0  0  0  0  0
  147.3418   72.7708  220.9325 H   0  0  0  0  0  0  0  0  0  0  0  0
  145.6620   74.1400  220.8550 C   0  0  0  0  0  0  0  0  0  0  0  0
  146.1451   74.8877  221.5011 H   0  0  0  0  0  0  0  0  0  0  0  0
  144.3790   74.3760  220.3530 C   0  0  0  0  0  0  0  0  0  0  0  0
  143.8554   75.3098  220.6058 H   0  0  0  0  0  0  0  0  0  0  0  0
  1  2  1  0
  2  3  2  0
  3  4  1  0
  4  5  1  0
  5  6  2  0
  5  7  1  0
  7  8  1  0
  7  9  1  0
  9 10  1  1
  9 11  1  0
 11 12  2  0
 12 13  1  0
 12 14  1  0
 14 15  1  0
 14 16  2  0
 16 17  1  0
 16 18  1  0
 18 19  1  0
 18 20  2  0
 20 21  1  0
  9 22  1  0
 22 23  1  0
 22 24  1  0
 22 25  1  0
  4 26  2  0
 26 27  1  0
 26 28  1  0
 28 29  1  0
 29 30  2  0
 29 31  1  0
 31 32  1  0
 32 33  1  0
 32 34  2  0
 34 35  1  0
 34 36  1  0
 36 37  1  0
 36 38  2  0
 38 39  1  0
 38 40  1  0
 40 41  2  0
 41 42  1  0
 42 43  1  0
 43 44  1  0
 44 45  1  0
 44 46  1  0
 44 47  1  0
 47 48  2  0
 48 49  1  0
 48 50  1  0
 50 51  1  0
 50 52  2  0
 52 53  1  0
 52 54  1  0
 54 55  1  0
 54 56  2  0
 56 57  1  0
 43  3  1  0
 56 47  1  0
 20 11  1  0
 42 28  2  0
 40 31  1  0
M  END
>  <UniqueID>  (45) 
102

>  <SMILES>  (45) 
[H]/N=c1\c(C(=O)N[C@@H](C)c2ccccc2)cc2c(=O)n3cc(Cl)ccc3nc2n1Cc1ccccc1

>  <Energy>  (45) 
82.31487178615336

>  <Genealogy>  (45) 
[H]/N=c1\c(C(=O)N[C@@H](C)c2ccccc2)cc2c(=O)n3cc(Cl)ccc3nc2n1Cc1ccccc1 (cis-trans isomerization)
[H]/N=c1\c(C(=O)N[C@@H](C)c2ccccc2)cc2c(=O)n3cc(Cl)ccc3nc2n1Cc1ccccc1 (3D coordinates assigned)
[H]/N=c1\c(C(=O)N[C@@H](C)c2ccccc2)cc2c(=O)n3cc(Cl)ccc3nc2n1Cc1ccccc1 (optimized conformer: 82.31487178615336 kcal/mol)

>  <smiles>  (45) 
C[C@H](NC(=O)c1cc2c(=O)n3cc(Cl)ccc3nc2n(Cc2ccccc2)c1=N)c1ccccc1

>  <score_type>  (45) 
oracle

>  <origin>  (45) 
autodockgpu

>  <m_score__min__energy>  (45) 
-8.9000000000000004

>  <m_primary>  (45) 
energy

>  <meeko>  (45) 
{"free_energy": -8.9, "intermolecular_energy": -10.69, "internal_energy": -1.31, "cluster_size": 12, "cluster_id": 1, "rank_in_cluster": 1}

>  <energy>  (45) 
-8.88

>  <cluster_rmsd>  (45) 
0.75

>  <rmsd>  (45) 
270.71

>  <cluster>  (45) 
1

$$$$
BLHILRPTNSSYME-OCGWMCMZNA-N
     RDKit          3D

 57 61  0  0  0  0  0  0  0  0999 V2000
  135.5130   78.2130  223.0370 H   0  0  0  0  0  0  0  0  0  0  0  0
  136.5350   78.3530  222.8830 N   0  0  0  0  0  0  0  0  0  0  0  0
  137.3690   77.4320  222.4920 C   0  0  0  0  0  0  0  0  0  0  0  0
  137.0650   76.0600  222.6790 C   0  0  0  0  0  0  0  0  0  0  0  0
  135.7520   75.5890  223.1730 C   0  0  0  0  0  0  0  0  0  0  0  0
  134.7070   76.2120  222.8450 O   0  0  0  0  0  0  0  0  0  0  0  0
  135.6750   74.4710  224.0720 N   0  0  0  0  0  0  0  0  0  0  0  0
  136.5690   74.0950  224.4610 H   0  0  0  0  0  0  0  0  0  0  0  0
  134.3950   73.8740  224.4750 C   0  0  2  0  0  0  0  0  0  0  0  0
  133.7328   73.8473  223.5970 H   0  0  0  0  0  0  0  0  0  0  0  0
  133.7260   74.7130  225.5470 C   0  0  0  0  0  0  0  0  0  0  0  0
  134.2140   75.9930  225.8730 C   0  0  0  0  0  0  0  0  0  0  0  0
  135.0867   76.3973  225.3392 H   0  0  0  0  0  0  0  0  0  0  0  0
  133.5970   76.7530  226.8700 C   0  0  0  0  0  0  0  0  0  0  0  0
  133.9831   77.7533  227.1158 H   0  0  0  0  0  0  0  0  0  0  0  0
  132.4910   76.2450  227.5550 C   0  0  0  0  0  0  0  0  0  0  0  0
  132.0073   76.8450  228.3399 H   0  0  0  0  0  0  0  0  0  0  0  0
  131.9990   74.9760  227.2440 C   0  0  0  0  0  0  0  0  0  0  0  0
  131.1280   74.5771  227.7846 H   0  0  0  0  0  0  0  0  0  0  0  0
  132.6120   74.2110  226.2460 C   0  0  0  0  0  0  0  0  0  0  0  0
  132.2212   73.2112  226.0060 H   0  0  0  0  0  0  0  0  0  0  0  0
  134.6070   72.4390  224.9680 C   0  0  0  0  0  0  0  0  0  0  0  0
  134.6090   72.4257  226.0679 H   0  0  0  0  0  0  0  0  0  0  0  0
  133.7936   71.7992  224.5950 H   0  0  0  0  0  0  0  0  0  0  0  0
  135.5706   72.0618  224.5950 H   0  0  0  0  0  0  0  0  0  0  0  0
  138.0230   75.1000  222.3510 C   0  0  0  0  0  0  0  0  0  0  0  0
  137.8118   74.0352  222.5285 H   0  0  0  0  0  0  0  0  0  0  0  0
  139.2480   75.4810  221.7990 C   0  0  0  0  0  0  0  0  0  0  0  0
  140.2280   74.5380  221.4300 C   0  0  0  0  0  0  0  0  0  0  0  0
  140.0090   73.3070  221.6180 O   0  0  0  0  0  0  0  0  0  0  0  0
  141.4090   74.9540  220.8660 N   0  0  0  0  0  0  0  0  0  0  0  0
  142.3700   74.0440  220.4980 C   0  0  0  0  0  0  0  0  0  0  0  0
  142.1922   72.9705  220.6593 H   0  0  0  0  0  0  0  0  0  0  0  0
  143.5710   74.4660  219.9210 C   0  0  0  0  0  0  0  0  0  0  0  0
  144.7880   73.2930  219.4530 Cl  0  0  0  0  0  0  0  0  0  0  0  0
  143.7960   75.8260  219.7200 C   0  0  0  0  0  0  0  0  0  0  0  0
  144.7382   76.1697  219.2682 H   0  0  0  0  0  0  0  0  0  0  0  0
  142.8220   76.7480  220.0940 C   0  0  0  0  0  0  0  0  0  0  0  0
  142.9898   77.8238  219.9377 H   0  0  0  0  0  0  0  0  0  0  0  0
  141.6300   76.2990  220.6690 C   0  0  0  0  0  0  0  0  0  0  0  0
  140.6900   77.2070  221.0270 N   0  0  0  0  0  0  0  0  0  0  0  0
  139.5050   76.8460  221.5850 C   0  0  0  0  0  0  0  0  0  0  0  0
  138.5770   77.8000  221.9320 N   0  0  0  0  0  0  0  0  0  0  0  0
  138.8790   79.2260  221.6590 C   0  0  0  0  0  0  0  0  0  0  0  0
  138.9600   79.3777  220.5725 H   0  0  0  0  0  0  0  0  0  0  0  0
  138.0684   79.8470  222.0680 H   0  0  0  0  0  0  0  0  0  0  0  0
  140.1770   79.6230  222.3140 C   0  0  0  0  0  0  0  0  0  0  0  0
  140.5510   79.0720  223.5520 C   0  0  0  0  0  0  0  0  0  0  0  0
  139.8825   78.3607  224.0590 H   0  0  0  0  0  0  0  0  0  0  0  0
  141.7690   79.4240  224.1420 C   0  0  0  0  0  0  0  0  0  0  0  0
  142.0565   78.9886  225.1104 H   0  0  0  0  0  0  0  0  0  0  0  0
  142.6210   80.3280  223.5030 C   0  0  0  0  0  0  0  0  0  0  0  0
  143.5790   80.6037  223.9679 H   0  0  0  0  0  0  0  0  0  0  0  0
  142.2560   80.8820  222.2730 C   0  0  0  0  0  0  0  0  0  0  0  0
  142.9269   81.5946  221.7709 H   0  0  0  0  0  0  0  0  0  0  0  0
  141.0400   80.5320  221.6800 C   0  0  0  0  0  0  0  0  0  0  0  0
  140.7572   80.9706  220.7117 H   0  0  0  0  0  0  0  0  0  0  0  0
  1  2  1  0
  2  3  2  0
  3  4  1  0
  4  5  1  0
  5  6  2  0
  5  7  1  0
  7  8  1  0
  7  9  1  0
  9 10  1  6
  9 11  1  0
 11 12  2  0
 12 13  1  0
 12 14  1  0
 14 15  1  0
 14 16  2  0
 16 17  1  0
 16 18  1  0
 18 19  1  0
 18 20  2  0
 20 21  1  0
  9 22  1  0
 22 23  1  0
 22 24  1  0
 22 25  1  0
  4 26  2  0
 26 27  1  0
 26 28  1  0
 28 29  1  0
 29 30  2  0
 29 31  1  0
 31 32  1  0
 32 33  1  0
 32 34  2  0
 34 35  1  0
 34 36  1  0
 36 37  1  0
 36 38  2  0
 38 39  1  0
 38 40  1  0
 40 41  2  0
 41 42  1  0
 42 43  1  0
 43 44  1  0
 44 45  1  0
 44 46  1  0
 44 47  1  0
 47 48  2  0
 48 49  1  0
 48 50  1  0
 50 51  1  0
 50 52  2  0
 52 53  1  0
 52 54  1  0
 54 55  1  0
 54 56  2  0
 56 57  1  0
 43  3  1  0
 56 47  1  0
 20 11  1  0
 42 28  2  0
 40 31  1  0
M  END
>  <UniqueID>  (46) 
102

>  <SMILES>  (46) 
[H]/N=c1\c(C(=O)N[C@@H](C)c2ccccc2)cc2c(=O)n3cc(Cl)ccc3nc2n1Cc1ccccc1

>  <Energy>  (46) 
82.31487178615336

>  <Genealogy>  (46) 
[H]/N=c1\c(C(=O)N[C@@H](C)c2ccccc2)cc2c(=O)n3cc(Cl)ccc3nc2n1Cc1ccccc1 (cis-trans isomerization)
[H]/N=c1\c(C(=O)N[C@@H](C)c2ccccc2)cc2c(=O)n3cc(Cl)ccc3nc2n1Cc1ccccc1 (3D coordinates assigned)
[H]/N=c1\c(C(=O)N[C@@H](C)c2ccccc2)cc2c(=O)n3cc(Cl)ccc3nc2n1Cc1ccccc1 (optimized conformer: 82.31487178615336 kcal/mol)

>  <smiles>  (46) 
C[C@H](NC(=O)c1cc2c(=O)n3cc(Cl)ccc3nc2n(Cc2ccccc2)c1=N)c1ccccc1

>  <score_type>  (46) 
oracle

>  <origin>  (46) 
autodockgpu

>  <m_score__min__energy>  (46) 
-8.9000000000000004

>  <m_primary>  (46) 
energy

>  <meeko>  (46) 
{"free_energy": -8.57, "intermolecular_energy": -10.36, "internal_energy": -1.68, "cluster_size": 8, "cluster_id": 2, "rank_in_cluster": 2}

>  <energy>  (46) 
-8.87

>  <cluster_rmsd>  (46) 
0.77

>  <rmsd>  (46) 
270.72

>  <cluster>  (46) 
1

$$$$
BLHILRPTNSSYME-OCGWMCMZNA-N
     RDKit          3D

 57 61  0  0  0  0  0  0  0  0999 V2000
  141.0070   70.6550  220.3950 H   0  0  0  0  0  0  0  0  0  0  0  0
  141.2620   71.6000  220.0350 N   0  0  0  0  0  0  0  0  0  0  0  0
  140.9290   72.7300  220.5910 C   0  0  0  0  0  0  0  0  0  0  0  0
  139.9940   72.7610  221.6560 C   0  0  0  0  0  0  0  0  0  0  0  0
  139.4650   71.5350  222.2960 C   0  0  0  0  0  0  0  0  0  0  0  0
  139.8680   70.4080  221.9010 O   0  0  0  0  0  0  0  0  0  0  0  0
  138.4530   71.6260  223.3110 N   0  0  0  0  0  0  0  0  0  0  0  0
  138.0180   72.5610  223.4830 H   0  0  0  0  0  0  0  0  0  0  0  0
  138.0020   70.4580  224.0770 C   0  0  2  0  0  0  0  0  0  0  0  0
  137.1036   70.7418  224.6447 H   0  0  0  0  0  0  0  0  0  0  0  0
  139.0660   70.0200  225.0650 C   0  0  0  0  0  0  0  0  0  0  0  0
  140.0230   70.9340  225.5480 C   0  0  0  0  0  0  0  0  0  0  0  0
  139.9965   71.9816  225.2135 H   0  0  0  0  0  0  0  0  0  0  0  0
  141.0060   70.5170  226.4500 C   0  0  0  0  0  0  0  0  0  0  0  0
  141.7468   71.2379  226.8261 H   0  0  0  0  0  0  0  0  0  0  0  0
  141.0500   69.1870  226.8750 C   0  0  0  0  0  0  0  0  0  0  0  0
  141.8257   68.8613  227.5837 H   0  0  0  0  0  0  0  0  0  0  0  0
  140.1090   68.2710  226.4000 C   0  0  0  0  0  0  0  0  0  0  0  0
  140.1442   67.2239  226.7350 H   0  0  0  0  0  0  0  0  0  0  0  0
  139.1220   68.6830  225.4990 C   0  0  0  0  0  0  0  0  0  0  0  0
  138.3844   67.9566  225.1271 H   0  0  0  0  0  0  0  0  0  0  0  0
  137.6370   69.3080  223.1320 C   0  0  0  0  0  0  0  0  0  0  0  0
  137.3562   68.4233  223.7224 H   0  0  0  0  0  0  0  0  0  0  0  0
  136.7903   69.6093  222.4977 H   0  0  0  0  0  0  0  0  0  0  0  0
  138.5025   69.0659  222.4977 H   0  0  0  0  0  0  0  0  0  0  0  0
  139.5740   73.9930  222.1580 C   0  0  0  0  0  0  0  0  0  0  0  0
  138.8200   74.0282  222.9581 H   0  0  0  0  0  0  0  0  0  0  0  0
  140.1040   75.1820  221.6520 C   0  0  0  0  0  0  0  0  0  0  0  0
  139.7250   76.4430  222.1540 C   0  0  0  0  0  0  0  0  0  0  0  0
  138.8640   76.5130  223.0770 O   0  0  0  0  0  0  0  0  0  0  0  0
  140.2900   77.5870  221.6450 N   0  0  0  0  0  0  0  0  0  0  0  0
  139.9320   78.8220  222.1290 C   0  0  0  0  0  0  0  0  0  0  0  0
  139.1827   78.8954  222.9310 H   0  0  0  0  0  0  0  0  0  0  0  0
  140.5090   79.9860  221.6140 C   0  0  0  0  0  0  0  0  0  0  0  0
  140.0450   81.5570  222.2430 Cl  0  0  0  0  0  0  0  0  0  0  0  0
  141.4570   79.8920  220.5980 C   0  0  0  0  0  0  0  0  0  0  0  0
  141.9174   80.8019  220.1855 H   0  0  0  0  0  0  0  0  0  0  0  0
  141.8190   78.6400  220.1070 C   0  0  0  0  0  0  0  0  0  0  0  0
  142.5669   78.5558  219.3047 H   0  0  0  0  0  0  0  0  0  0  0  0
  141.2270   77.4910  220.6390 C   0  0  0  0  0  0  0  0  0  0  0  0
  141.5890   76.2790  220.1540 N   0  0  0  0  0  0  0  0  0  0  0  0
  141.0620   75.1200  220.6250 C   0  0  0  0  0  0  0  0  0  0  0  0
  141.4600   73.9100  220.1060 N   0  0  0  0  0  0  0  0  0  0  0  0
  142.4950   73.8920  219.0450 C   0  0  0  0  0  0  0  0  0  0  0  0
  142.2256   73.1401  218.2886 H   0  0  0  0  0  0  0  0  0  0  0  0
  142.5506   74.8890  218.5837 H   0  0  0  0  0  0  0  0  0  0  0  0
  143.8410   73.5480  219.6300 C   0  0  0  0  0  0  0  0  0  0  0  0
  144.5150   74.4620  220.4580 C   0  0  0  0  0  0  0  0  0  0  0  0
  144.0680   75.4454  220.6656 H   0  0  0  0  0  0  0  0  0  0  0  0
  145.7510   74.1270  221.0190 C   0  0  0  0  0  0  0  0  0  0  0  0
  146.2731   74.8465  221.6669 H   0  0  0  0  0  0  0  0  0  0  0  0
  146.3240   72.8800  220.7580 C   0  0  0  0  0  0  0  0  0  0  0  0
  147.2961   72.6176  221.2010 H   0  0  0  0  0  0  0  0  0  0  0  0
  145.6620   71.9660  219.9340 C   0  0  0  0  0  0  0  0  0  0  0  0
  146.1143   70.9847  219.7278 H   0  0  0  0  0  0  0  0  0  0  0  0
  144.4250   72.2970  219.3710 C   0  0  0  0  0  0  0  0  0  0  0  0
  143.9074   71.5746  218.7227 H   0  0  0  0  0  0  0  0  0  0  0  0
  1  2  1  0
  2  3  2  0
  3  4  1  0
  4  5  1  0
  5  6  2  0
  5  7  1  0
  7  8  1  0
  7  9  1  0
  9 10  1  1
  9 11  1  0
 11 12  2  0
 12 13  1  0
 12 14  1  0
 14 15  1  0
 14 16  2  0
 16 17  1  0
 16 18  1  0
 18 19  1  0
 18 20  2  0
 20 21  1  0
  9 22  1  0
 22 23  1  0
 22 24  1  0
 22 25  1  0
  4 26  2  0
 26 27  1  0
 26 28  1  0
 28 29  1  0
 29 30  2  0
 29 31  1  0
 31 32  1  0
 32 33  1  0
 32 34  2  0
 34 35  1  0
 34 36  1  0
 36 37  1  0
 36 38  2  0
 38 39  1  0
 38 40  1  0
 40 41  2  0
 41 42  1  0
 42 43  1  0
 43 44  1  0
 44 45  1  0
 44 46  1  0
 44 47  1  0
 47 48  2  0
 48 49  1  0
 48 50  1  0
 50 51  1  0
 50 52  2  0
 52 53  1  0
 52 54  1  0
 54 55  1  0
 54 56  2  0
 56 57  1  0
 43  3  1  0
 56 47  1  0
 20 11  1  0
 42 28  2  0
 40 31  1  0
M  END
>  <UniqueID>  (47) 
102

>  <SMILES>  (47) 
[H]/N=c1\c(C(=O)N[C@@H](C)c2ccccc2)cc2c(=O)n3cc(Cl)ccc3nc2n1Cc1ccccc1

>  <Energy>  (47) 
82.31487178615336

>  <Genealogy>  (47) 
[H]/N=c1\c(C(=O)N[C@@H](C)c2ccccc2)cc2c(=O)n3cc(Cl)ccc3nc2n1Cc1ccccc1 (cis-trans isomerization)
[H]/N=c1\c(C(=O)N[C@@H](C)c2ccccc2)cc2c(=O)n3cc(Cl)ccc3nc2n1Cc1ccccc1 (3D coordinates assigned)
[H]/N=c1\c(C(=O)N[C@@H](C)c2ccccc2)cc2c(=O)n3cc(Cl)ccc3nc2n1Cc1ccccc1 (optimized conformer: 82.31487178615336 kcal/mol)

>  <smiles>  (47) 
C[C@H](NC(=O)c1cc2c(=O)n3cc(Cl)ccc3nc2n(Cc2ccccc2)c1=N)c1ccccc1

>  <score_type>  (47) 
oracle

>  <origin>  (47) 
autodockgpu

>  <m_score__min__energy>  (47) 
-8.9000000000000004

>  <m_primary>  (47) 
energy

>  <meeko>  (47) 
{"free_energy": -8.75, "intermolecular_energy": -10.54, "internal_energy": -1.67, "cluster_size": 12, "cluster_id": 1, "rank_in_cluster": 10}

>  <energy>  (47) 
-8.87

>  <cluster_rmsd>  (47) 
0.81

>  <rmsd>  (47) 
270.72

>  <cluster>  (47) 
1

$$$$
BLHILRPTNSSYME-OCGWMCMZNA-N
     RDKit          3D

 57 61  0  0  0  0  0  0  0  0999 V2000
  135.5090   78.1880  222.9980 H   0  0  0  0  0  0  0  0  0  0  0  0
  136.5290   78.3280  222.8350 N   0  0  0  0  0  0  0  0  0  0  0  0
  137.3640   77.4010  222.4600 C   0  0  0  0  0  0  0  0  0  0  0  0
  137.0620   76.0320  222.6750 C   0  0  0  0  0  0  0  0  0  0  0  0
  135.7510   75.5690  223.1810 C   0  0  0  0  0  0  0  0  0  0  0  0
  134.7050   76.1850  222.8430 O   0  0  0  0  0  0  0  0  0  0  0  0
  135.6780   74.4680  224.1010 N   0  0  0  0  0  0  0  0  0  0  0  0
  136.5730   74.1010  224.4950 H   0  0  0  0  0  0  0  0  0  0  0  0
  134.4000   73.8770  224.5180 C   0  0  2  0  0  0  0  0  0  0  0  0
  133.7259   73.8599  223.6489 H   0  0  0  0  0  0  0  0  0  0  0  0
  133.7500   74.7140  225.6030 C   0  0  0  0  0  0  0  0  0  0  0  0
  132.6090   74.2500  226.2870 C   0  0  0  0  0  0  0  0  0  0  0  0
  132.1862   73.2650  226.0398 H   0  0  0  0  0  0  0  0  0  0  0  0
  132.0110   75.0340  227.2780 C   0  0  0  0  0  0  0  0  0  0  0  0
  131.1226   74.6628  227.8099 H   0  0  0  0  0  0  0  0  0  0  0  0
  132.5390   76.2870  227.5940 C   0  0  0  0  0  0  0  0  0  0  0  0
  132.0658   76.9026  228.3731 H   0  0  0  0  0  0  0  0  0  0  0  0
  133.6680   76.7590  226.9210 C   0  0  0  0  0  0  0  0  0  0  0  0
  134.0835   77.7463  227.1712 H   0  0  0  0  0  0  0  0  0  0  0  0
  134.2710   75.9790  225.9300 C   0  0  0  0  0  0  0  0  0  0  0  0
  135.1590   76.3571  225.4023 H   0  0  0  0  0  0  0  0  0  0  0  0
  134.6090   72.4370  224.9990 C   0  0  0  0  0  0  0  0  0  0  0  0
  134.6122   72.4146  226.0988 H   0  0  0  0  0  0  0  0  0  0  0  0
  133.7935   71.8024  224.6217 H   0  0  0  0  0  0  0  0  0  0  0  0
  135.5712   72.0604  224.6217 H   0  0  0  0  0  0  0  0  0  0  0  0
  138.0220   75.0670  222.3640 C   0  0  0  0  0  0  0  0  0  0  0  0
  137.8136   74.0054  222.5630 H   0  0  0  0  0  0  0  0  0  0  0  0
  139.2450   75.4400  221.8020 C   0  0  0  0  0  0  0  0  0  0  0  0
  140.2250   74.4910  221.4490 C   0  0  0  0  0  0  0  0  0  0  0  0
  140.0090   73.2640  221.6620 O   0  0  0  0  0  0  0  0  0  0  0  0
  141.4050   74.8980  220.8760 N   0  0  0  0  0  0  0  0  0  0  0  0
  142.3660   73.9820  220.5230 C   0  0  0  0  0  0  0  0  0  0  0  0
  142.1898   72.9114  220.7040 H   0  0  0  0  0  0  0  0  0  0  0  0
  143.5660   74.3960  219.9360 C   0  0  0  0  0  0  0  0  0  0  0  0
  144.7840   73.2150  219.4880 Cl  0  0  0  0  0  0  0  0  0  0  0  0
  143.7880   75.7510  219.7070 C   0  0  0  0  0  0  0  0  0  0  0  0
  144.7281   76.0871  219.2451 H   0  0  0  0  0  0  0  0  0  0  0  0
  142.8130   76.6790  220.0660 C   0  0  0  0  0  0  0  0  0  0  0  0
  142.9791   77.7519  219.8890 H   0  0  0  0  0  0  0  0  0  0  0  0
  141.6230   76.2400  220.6520 C   0  0  0  0  0  0  0  0  0  0  0  0
  140.6820   77.1530  220.9940 N   0  0  0  0  0  0  0  0  0  0  0  0
  139.4990   76.8000  221.5610 C   0  0  0  0  0  0  0  0  0  0  0  0
  138.5700   77.7600  221.8910 N   0  0  0  0  0  0  0  0  0  0  0  0
  138.8690   79.1810  221.5900 C   0  0  0  0  0  0  0  0  0  0  0  0
  138.9396   79.3137  220.5003 H   0  0  0  0  0  0  0  0  0  0  0  0
  138.0623   79.8093  221.9955 H   0  0  0  0  0  0  0  0  0  0  0  0
  140.1740   79.5890  222.2260 C   0  0  0  0  0  0  0  0  0  0  0  0
  141.0280   80.5020  221.5830 C   0  0  0  0  0  0  0  0  0  0  0  0
  140.7547   80.9071  220.5975 H   0  0  0  0  0  0  0  0  0  0  0  0
  142.2230   80.8970  222.1910 C   0  0  0  0  0  0  0  0  0  0  0  0
  142.8865   81.6131  221.6841 H   0  0  0  0  0  0  0  0  0  0  0  0
  142.5760   80.3840  223.4410 C   0  0  0  0  0  0  0  0  0  0  0  0
  143.5172   80.6953  223.9177 H   0  0  0  0  0  0  0  0  0  0  0  0
  141.7330   79.4750  224.0860 C   0  0  0  0  0  0  0  0  0  0  0  0
  142.0118   79.0713  225.0705 H   0  0  0  0  0  0  0  0  0  0  0  0
  140.5370   79.0780  223.4830 C   0  0  0  0  0  0  0  0  0  0  0  0
  139.8768   78.3623  223.9947 H   0  0  0  0  0  0  0  0  0  0  0  0
  1  2  1  0
  2  3  2  0
  3  4  1  0
  4  5  1  0
  5  6  2  0
  5  7  1  0
  7  8  1  0
  7  9  1  0
  9 10  1  6
  9 11  1  0
 11 12  2  0
 12 13  1  0
 12 14  1  0
 14 15  1  0
 14 16  2  0
 16 17  1  0
 16 18  1  0
 18 19  1  0
 18 20  2  0
 20 21  1  0
  9 22  1  0
 22 23  1  0
 22 24  1  0
 22 25  1  0
  4 26  2  0
 26 27  1  0
 26 28  1  0
 28 29  1  0
 29 30  2  0
 29 31  1  0
 31 32  1  0
 32 33  1  0
 32 34  2  0
 34 35  1  0
 34 36  1  0
 36 37  1  0
 36 38  2  0
 38 39  1  0
 38 40  1  0
 40 41  2  0
 41 42  1  0
 42 43  1  0
 43 44  1  0
 44 45  1  0
 44 46  1  0
 44 47  1  0
 47 48  2  0
 48 49  1  0
 48 50  1  0
 50 51  1  0
 50 52  2  0
 52 53  1  0
 52 54  1  0
 54 55  1  0
 54 56  2  0
 56 57  1  0
 43  3  1  0
 56 47  1  0
 20 11  1  0
 42 28  2  0
 40 31  1  0
M  END
>  <UniqueID>  (48) 
102

>  <SMILES>  (48) 
[H]/N=c1\c(C(=O)N[C@@H](C)c2ccccc2)cc2c(=O)n3cc(Cl)ccc3nc2n1Cc1ccccc1

>  <Energy>  (48) 
82.31487178615336

>  <Genealogy>  (48) 
[H]/N=c1\c(C(=O)N[C@@H](C)c2ccccc2)cc2c(=O)n3cc(Cl)ccc3nc2n1Cc1ccccc1 (cis-trans isomerization)
[H]/N=c1\c(C(=O)N[C@@H](C)c2ccccc2)cc2c(=O)n3cc(Cl)ccc3nc2n1Cc1ccccc1 (3D coordinates assigned)
[H]/N=c1\c(C(=O)N[C@@H](C)c2ccccc2)cc2c(=O)n3cc(Cl)ccc3nc2n1Cc1ccccc1 (optimized conformer: 82.31487178615336 kcal/mol)

>  <smiles>  (48) 
C[C@H](NC(=O)c1cc2c(=O)n3cc(Cl)ccc3nc2n(Cc2ccccc2)c1=N)c1ccccc1

>  <score_type>  (48) 
oracle

>  <origin>  (48) 
autodockgpu

>  <m_score__min__energy>  (48) 
-8.9000000000000004

>  <m_primary>  (48) 
energy

>  <meeko>  (48) 
{"free_energy": -8.53, "intermolecular_energy": -10.32, "internal_energy": -1.68, "cluster_size": 8, "cluster_id": 2, "rank_in_cluster": 6}

>  <energy>  (48) 
-8.87

>  <cluster_rmsd>  (48) 
0.79

>  <rmsd>  (48) 
270.74

>  <cluster>  (48) 
1

$$$$
BLHILRPTNSSYME-OCGWMCMZNA-N
     RDKit          3D

 57 61  0  0  0  0  0  0  0  0999 V2000
  140.6010   69.5240  220.6370 H   0  0  0  0  0  0  0  0  0  0  0  0
  141.2230   70.3400  220.4520 N   0  0  0  0  0  0  0  0  0  0  0  0
  140.9930   71.5630  220.8370 C   0  0  0  0  0  0  0  0  0  0  0  0
  140.0610   71.8270  221.8730 C   0  0  0  0  0  0  0  0  0  0  0  0
  139.4210   70.7570  222.6700 C   0  0  0  0  0  0  0  0  0  0  0  0
  139.6390   69.5520  222.3750 O   0  0  0  0  0  0  0  0  0  0  0  0
  138.5080   71.0890  223.7280 N   0  0  0  0  0  0  0  0  0  0  0  0
  138.2170   72.0880  223.8250 H   0  0  0  0  0  0  0  0  0  0  0  0
  137.9620   70.0770  224.6400 C   0  0  2  0  0  0  0  0  0  0  0  0
  137.2378   70.5677  225.3069 H   0  0  0  0  0  0  0  0  0  0  0  0
  139.0610   69.4750  225.4960 C   0  0  0  0  0  0  0  0  0  0  0  0
  139.1690   68.0800  225.6550 C   0  0  0  0  0  0  0  0  0  0  0  0
  138.4552   67.4146  225.1473 H   0  0  0  0  0  0  0  0  0  0  0  0
  140.1790   67.5360  226.4550 C   0  0  0  0  0  0  0  0  0  0  0  0
  140.2591   66.4451  226.5717 H   0  0  0  0  0  0  0  0  0  0  0  0
  141.0860   68.3750  227.1060 C   0  0  0  0  0  0  0  0  0  0  0  0
  141.8791   67.9449  227.7353 H   0  0  0  0  0  0  0  0  0  0  0  0
  140.9860   69.7610  226.9580 C   0  0  0  0  0  0  0  0  0  0  0  0
  141.7005   70.4211  227.4716 H   0  0  0  0  0  0  0  0  0  0  0  0
  139.9790   70.3100  226.1580 C   0  0  0  0  0  0  0  0  0  0  0  0
  139.9044   71.4017  226.0458 H   0  0  0  0  0  0  0  0  0  0  0  0
  137.2340   68.9830  223.8510 C   0  0  0  0  0  0  0  0  0  0  0  0
  136.7641   68.2769  224.5514 H   0  0  0  0  0  0  0  0  0  0  0  0
  136.4600   69.4411  223.2177 H   0  0  0  0  0  0  0  0  0  0  0  0
  137.9554   68.4459  223.2177 H   0  0  0  0  0  0  0  0  0  0  0  0
  139.7530   73.1510  222.1890 C   0  0  0  0  0  0  0  0  0  0  0  0
  139.0023   73.3670  222.9635 H   0  0  0  0  0  0  0  0  0  0  0  0
  140.3910   74.2040  221.5290 C   0  0  0  0  0  0  0  0  0  0  0  0
  140.1260   75.5530  221.8420 C   0  0  0  0  0  0  0  0  0  0  0  0
  139.2720   75.8290  222.7320 O   0  0  0  0  0  0  0  0  0  0  0  0
  140.7950   76.5570  221.1870 N   0  0  0  0  0  0  0  0  0  0  0  0
  140.5490   77.8750  221.4860 C   0  0  0  0  0  0  0  0  0  0  0  0
  139.8069   78.1280  222.2575 H   0  0  0  0  0  0  0  0  0  0  0  0
  141.2310   78.8990  220.8210 C   0  0  0  0  0  0  0  0  0  0  0  0
  140.9090   80.5780  221.2160 Cl  0  0  0  0  0  0  0  0  0  0  0  0
  142.1690   78.5770  219.8440 C   0  0  0  0  0  0  0  0  0  0  0  0
  142.7111   79.3744  219.3145 H   0  0  0  0  0  0  0  0  0  0  0  0
  142.4180   77.2410  219.5400 C   0  0  0  0  0  0  0  0  0  0  0  0
  143.1584   76.9772  218.7705 H   0  0  0  0  0  0  0  0  0  0  0  0
  141.7210   76.2370  220.2190 C   0  0  0  0  0  0  0  0  0  0  0  0
  141.9740   74.9400  219.9150 N   0  0  0  0  0  0  0  0  0  0  0  0
  141.3420   73.9120  220.5370 C   0  0  0  0  0  0  0  0  0  0  0  0
  141.6300   72.6090  220.1990 N   0  0  0  0  0  0  0  0  0  0  0  0
  142.6630   72.3480  219.1680 C   0  0  0  0  0  0  0  0  0  0  0  0
  142.6403   71.2830  218.8935 H   0  0  0  0  0  0  0  0  0  0  0  0
  142.4519   72.9702  218.2857 H   0  0  0  0  0  0  0  0  0  0  0  0
  144.0320   72.6960  219.6960 C   0  0  0  0  0  0  0  0  0  0  0  0
  145.0740   73.0310  218.8140 C   0  0  0  0  0  0  0  0  0  0  0  0
  144.8974   73.0201  217.7283 H   0  0  0  0  0  0  0  0  0  0  0  0
  146.3340   73.3780  219.3110 C   0  0  0  0  0  0  0  0  0  0  0  0
  147.1453   73.6403  218.6161 H   0  0  0  0  0  0  0  0  0  0  0  0
  146.5640   73.3920  220.6890 C   0  0  0  0  0  0  0  0  0  0  0  0
  147.5557   73.6656  221.0785 H   0  0  0  0  0  0  0  0  0  0  0  0
  145.5330   73.0580  221.5730 C   0  0  0  0  0  0  0  0  0  0  0  0
  145.7148   73.0684  222.6578 H   0  0  0  0  0  0  0  0  0  0  0  0
  144.2720   72.7110  221.0800 C   0  0  0  0  0  0  0  0  0  0  0  0
  143.4640   72.4485  221.7788 H   0  0  0  0  0  0  0  0  0  0  0  0
  1  2  1  0
  2  3  2  0
  3  4  1  0
  4  5  1  0
  5  6  2  0
  5  7  1  0
  7  8  1  0
  7  9  1  0
  9 10  1  1
  9 11  1  0
 11 12  2  0
 12 13  1  0
 12 14  1  0
 14 15  1  0
 14 16  2  0
 16 17  1  0
 16 18  1  0
 18 19  1  0
 18 20  2  0
 20 21  1  0
  9 22  1  0
 22 23  1  0
 22 24  1  0
 22 25  1  0
  4 26  2  0
 26 27  1  0
 26 28  1  0
 28 29  1  0
 29 30  2  0
 29 31  1  0
 31 32  1  0
 32 33  1  0
 32 34  2  0
 34 35  1  0
 34 36  1  0
 36 37  1  0
 36 38  2  0
 38 39  1  0
 38 40  1  0
 40 41  2  0
 41 42  1  0
 42 43  1  0
 43 44  1  0
 44 45  1  0
 44 46  1  0
 44 47  1  0
 47 48  2  0
 48 49  1  0
 48 50  1  0
 50 51  1  0
 50 52  2  0
 52 53  1  0
 52 54  1  0
 54 55  1  0
 54 56  2  0
 56 57  1  0
 43  3  1  0
 56 47  1  0
 20 11  1  0
 42 28  2  0
 40 31  1  0
M  END
>  <UniqueID>  (49) 
102

>  <SMILES>  (49) 
[H]/N=c1\c(C(=O)N[C@@H](C)c2ccccc2)cc2c(=O)n3cc(Cl)ccc3nc2n1Cc1ccccc1

>  <Energy>  (49) 
82.31487178615336

>  <Genealogy>  (49) 
[H]/N=c1\c(C(=O)N[C@@H](C)c2ccccc2)cc2c(=O)n3cc(Cl)ccc3nc2n1Cc1ccccc1 (cis-trans isomerization)
[H]/N=c1\c(C(=O)N[C@@H](C)c2ccccc2)cc2c(=O)n3cc(Cl)ccc3nc2n1Cc1ccccc1 (3D coordinates assigned)
[H]/N=c1\c(C(=O)N[C@@H](C)c2ccccc2)cc2c(=O)n3cc(Cl)ccc3nc2n1Cc1ccccc1 (optimized conformer: 82.31487178615336 kcal/mol)

>  <smiles>  (49) 
C[C@H](NC(=O)c1cc2c(=O)n3cc(Cl)ccc3nc2n(Cc2ccccc2)c1=N)c1ccccc1

>  <score_type>  (49) 
oracle

>  <origin>  (49) 
autodockgpu

>  <m_score__min__energy>  (49) 
-8.9000000000000004

>  <m_primary>  (49) 
energy

>  <meeko>  (49) 
{"free_energy": -8.55, "intermolecular_energy": -10.34, "internal_energy": -1.77, "cluster_size": 12, "cluster_id": 1, "rank_in_cluster": 11}

>  <energy>  (49) 
-8.86

>  <cluster_rmsd>  (49) 
0.71

>  <rmsd>  (49) 
270.73

>  <cluster>  (49) 
1

$$$$
BLHILRPTNSSYME-OCGWMCMZNA-N
     RDKit          3D

 57 61  0  0  0  0  0  0  0  0999 V2000
  140.6050   70.1320  220.4750 H   0  0  0  0  0  0  0  0  0  0  0  0
  141.1270   71.0090  220.2580 N   0  0  0  0  0  0  0  0  0  0  0  0
  140.8660   72.1820  220.7610 C   0  0  0  0  0  0  0  0  0  0  0  0
  139.9520   72.3160  221.8370 C   0  0  0  0  0  0  0  0  0  0  0  0
  139.3680   71.1550  222.5440 C   0  0  0  0  0  0  0  0  0  0  0  0
  139.6760   69.9890  222.1770 O   0  0  0  0  0  0  0  0  0  0  0  0
  138.4100   71.3540  223.5950 N   0  0  0  0  0  0  0  0  0  0  0  0
  138.0480   72.3220  223.7490 H   0  0  0  0  0  0  0  0  0  0  0  0
  137.9130   70.2480  224.4240 C   0  0  2  0  0  0  0  0  0  0  0  0
  137.1115   70.6333  225.0715 H   0  0  0  0  0  0  0  0  0  0  0  0
  139.0160   69.7040  225.3110 C   0  0  0  0  0  0  0  0  0  0  0  0
  140.0350   70.5480  225.7960 C   0  0  0  0  0  0  0  0  0  0  0  0
  140.0292   71.6171  225.5373 H   0  0  0  0  0  0  0  0  0  0  0  0
  141.0530   70.0340  226.6040 C   0  0  0  0  0  0  0  0  0  0  0  0
  141.8427   70.7000  226.9817 H   0  0  0  0  0  0  0  0  0  0  0  0
  141.0700   68.6770  226.9330 C   0  0  0  0  0  0  0  0  0  0  0  0
  141.8734   68.2751  227.5679 H   0  0  0  0  0  0  0  0  0  0  0  0
  140.0670   67.8300  226.4560 C   0  0  0  0  0  0  0  0  0  0  0  0
  140.0809   66.7613  226.7161 H   0  0  0  0  0  0  0  0  0  0  0  0
  139.0450   68.3390  225.6480 C   0  0  0  0  0  0  0  0  0  0  0  0
  138.2586   67.6671  225.2736 H   0  0  0  0  0  0  0  0  0  0  0  0
  137.3330   69.1370  223.5410 C   0  0  0  0  0  0  0  0  0  0  0  0
  136.9178   68.3418  224.1776 H   0  0  0  0  0  0  0  0  0  0  0  0
  136.5363   69.5517  222.9059 H   0  0  0  0  0  0  0  0  0  0  0  0
  138.1287   68.7204  222.9059 H   0  0  0  0  0  0  0  0  0  0  0  0
  139.6080   73.5930  222.2820 C   0  0  0  0  0  0  0  0  0  0  0  0
  138.8703   73.7095  223.0896 H   0  0  0  0  0  0  0  0  0  0  0  0
  140.1940   74.7250  221.7090 C   0  0  0  0  0  0  0  0  0  0  0  0
  139.8920   76.0280  222.1520 C   0  0  0  0  0  0  0  0  0  0  0  0
  139.0520   76.1900  223.0830 O   0  0  0  0  0  0  0  0  0  0  0  0
  140.5100   77.1120  221.5790 N   0  0  0  0  0  0  0  0  0  0  0  0
  140.2280   78.3880  222.0050 C   0  0  0  0  0  0  0  0  0  0  0  0
  139.4976   78.5421  222.8130 H   0  0  0  0  0  0  0  0  0  0  0  0
  140.8580   79.4920  221.4240 C   0  0  0  0  0  0  0  0  0  0  0  0
  140.4910   81.1140  221.9800 Cl  0  0  0  0  0  0  0  0  0  0  0  0
  141.7820   79.2950  220.4010 C   0  0  0  0  0  0  0  0  0  0  0  0
  142.2845   80.1565  219.9371 H   0  0  0  0  0  0  0  0  0  0  0  0
  142.0670   78.0030  219.9680 C   0  0  0  0  0  0  0  0  0  0  0  0
  142.7953   77.8382  219.1602 H   0  0  0  0  0  0  0  0  0  0  0  0
  141.4220   76.9160  220.5660 C   0  0  0  0  0  0  0  0  0  0  0  0
  141.7100   75.6630  220.1360 N   0  0  0  0  0  0  0  0  0  0  0  0
  141.1290   74.5600  220.6730 C   0  0  0  0  0  0  0  0  0  0  0  0
  141.4520   73.3050  220.2090 N   0  0  0  0  0  0  0  0  0  0  0  0
  142.4660   73.1770  219.1360 C   0  0  0  0  0  0  0  0  0  0  0  0
  142.3305   72.2139  218.6221 H   0  0  0  0  0  0  0  0  0  0  0  0
  142.3392   74.0060  218.4242 H   0  0  0  0  0  0  0  0  0  0  0  0
  143.8560   73.2390  219.7170 C   0  0  0  0  0  0  0  0  0  0  0  0
  144.7290   72.1430  219.6010 C   0  0  0  0  0  0  0  0  0  0  0  0
  144.3901   71.2237  219.1009 H   0  0  0  0  0  0  0  0  0  0  0  0
  146.0250   72.2160  220.1180 C   0  0  0  0  0  0  0  0  0  0  0  0
  146.7037   71.3556  220.0225 H   0  0  0  0  0  0  0  0  0  0  0  0
  146.4600   73.3800  220.7560 C   0  0  0  0  0  0  0  0  0  0  0  0
  147.4804   73.4358  221.1630 H   0  0  0  0  0  0  0  0  0  0  0  0
  145.5980   74.4740  220.8770 C   0  0  0  0  0  0  0  0  0  0  0  0
  145.9412   75.3906  221.3791 H   0  0  0  0  0  0  0  0  0  0  0  0
  144.3010   74.4050  220.3610 C   0  0  0  0  0  0  0  0  0  0  0  0
  143.6258   75.2677  220.4597 H   0  0  0  0  0  0  0  0  0  0  0  0
  1  2  1  0
  2  3  2  0
  3  4  1  0
  4  5  1  0
  5  6  2  0
  5  7  1  0
  7  8  1  0
  7  9  1  0
  9 10  1  1
  9 11  1  0
 11 12  2  0
 12 13  1  0
 12 14  1  0
 14 15  1  0
 14 16  2  0
 16 17  1  0
 16 18  1  0
 18 19  1  0
 18 20  2  0
 20 21  1  0
  9 22  1  0
 22 23  1  0
 22 24  1  0
 22 25  1  0
  4 26  2  0
 26 27  1  0
 26 28  1  0
 28 29  1  0
 29 30  2  0
 29 31  1  0
 31 32  1  0
 32 33  1  0
 32 34  2  0
 34 35  1  0
 34 36  1  0
 36 37  1  0
 36 38  2  0
 38 39  1  0
 38 40  1  0
 40 41  2  0
 41 42  1  0
 42 43  1  0
 43 44  1  0
 44 45  1  0
 44 46  1  0
 44 47  1  0
 47 48  2  0
 48 49  1  0
 48 50  1  0
 50 51  1  0
 50 52  2  0
 52 53  1  0
 52 54  1  0
 54 55  1  0
 54 56  2  0
 56 57  1  0
 43  3  1  0
 56 47  1  0
 20 11  1  0
 42 28  2  0
 40 31  1  0
M  END
>  <UniqueID>  (50) 
102

>  <SMILES>  (50) 
[H]/N=c1\c(C(=O)N[C@@H](C)c2ccccc2)cc2c(=O)n3cc(Cl)ccc3nc2n1Cc1ccccc1

>  <Energy>  (50) 
82.31487178615336

>  <Genealogy>  (50) 
[H]/N=c1\c(C(=O)N[C@@H](C)c2ccccc2)cc2c(=O)n3cc(Cl)ccc3nc2n1Cc1ccccc1 (cis-trans isomerization)
[H]/N=c1\c(C(=O)N[C@@H](C)c2ccccc2)cc2c(=O)n3cc(Cl)ccc3nc2n1Cc1ccccc1 (3D coordinates assigned)
[H]/N=c1\c(C(=O)N[C@@H](C)c2ccccc2)cc2c(=O)n3cc(Cl)ccc3nc2n1Cc1ccccc1 (optimized conformer: 82.31487178615336 kcal/mol)

>  <smiles>  (50) 
C[C@H](NC(=O)c1cc2c(=O)n3cc(Cl)ccc3nc2n(Cc2ccccc2)c1=N)c1ccccc1

>  <score_type>  (50) 
oracle

>  <origin>  (50) 
autodockgpu

>  <m_score__min__energy>  (50) 
-8.9000000000000004

>  <m_primary>  (50) 
energy

>  <meeko>  (50) 
{"free_energy": -8.87, "intermolecular_energy": -10.66, "internal_energy": -1.63, "cluster_size": 12, "cluster_id": 1, "rank_in_cluster": 8}

>  <energy>  (50) 
-8.75

>  <cluster_rmsd>  (50) 
0.69

>  <rmsd>  (50) 
270.75

>  <cluster>  (50) 
1

$$$$
BLHILRPTNSSYME-OCGWMCMZNA-N
     RDKit          3D

 57 61  0  0  0  0  0  0  0  0999 V2000
  140.6990   70.0840  220.5720 H   0  0  0  0  0  0  0  0  0  0  0  0
  141.1160   70.9820  220.2450 N   0  0  0  0  0  0  0  0  0  0  0  0
  140.8560   72.1570  220.7460 C   0  0  0  0  0  0  0  0  0  0  0  0
  139.9450   72.2930  221.8240 C   0  0  0  0  0  0  0  0  0  0  0  0
  139.3630   71.1340  222.5360 C   0  0  0  0  0  0  0  0  0  0  0  0
  139.6600   69.9670  222.1630 O   0  0  0  0  0  0  0  0  0  0  0  0
  138.4180   71.3350  223.5990 N   0  0  0  0  0  0  0  0  0  0  0  0
  138.0630   72.3050  223.7580 H   0  0  0  0  0  0  0  0  0  0  0  0
  137.9250   70.2300  224.4310 C   0  0  2  0  0  0  0  0  0  0  0  0
  137.1278   70.6161  225.0832 H   0  0  0  0  0  0  0  0  0  0  0  0
  139.0330   69.6850  225.3120 C   0  0  0  0  0  0  0  0  0  0  0  0
  139.0820   68.3180  225.6460 C   0  0  0  0  0  0  0  0  0  0  0  0
  138.3145   67.6321  225.2581 H   0  0  0  0  0  0  0  0  0  0  0  0
  140.1010   67.8280  226.4680 C   0  0  0  0  0  0  0  0  0  0  0  0
  140.1341   66.7583  226.7224 H   0  0  0  0  0  0  0  0  0  0  0  0
  141.0770   68.6930  226.9670 C   0  0  0  0  0  0  0  0  0  0  0  0
  141.8779   68.3046  227.6134 H   0  0  0  0  0  0  0  0  0  0  0  0
  141.0360   70.0520  226.6450 C   0  0  0  0  0  0  0  0  0  0  0  0
  141.8045   70.7332  227.0391 H   0  0  0  0  0  0  0  0  0  0  0  0
  140.0200   70.5470  225.8230 C   0  0  0  0  0  0  0  0  0  0  0  0
  139.9920   71.6181  225.5739 H   0  0  0  0  0  0  0  0  0  0  0  0
  137.3390   69.1200  223.5520 C   0  0  0  0  0  0  0  0  0  0  0  0
  136.9211   68.3283  224.1912 H   0  0  0  0  0  0  0  0  0  0  0  0
  136.5434   69.5368  222.9169 H   0  0  0  0  0  0  0  0  0  0  0  0
  138.1319   68.6981  222.9169 H   0  0  0  0  0  0  0  0  0  0  0  0
  139.6010   73.5720  222.2670 C   0  0  0  0  0  0  0  0  0  0  0  0
  138.8650   73.6903  223.0759 H   0  0  0  0  0  0  0  0  0  0  0  0
  140.1850   74.7020  221.6900 C   0  0  0  0  0  0  0  0  0  0  0  0
  139.8850   76.0060  222.1310 C   0  0  0  0  0  0  0  0  0  0  0  0
  139.0460   76.1700  223.0630 O   0  0  0  0  0  0  0  0  0  0  0  0
  140.5000   77.0890  221.5530 N   0  0  0  0  0  0  0  0  0  0  0  0
  140.2190   78.3650  221.9770 C   0  0  0  0  0  0  0  0  0  0  0  0
  139.4905   78.5208  222.7863 H   0  0  0  0  0  0  0  0  0  0  0  0
  140.8480   79.4680  221.3920 C   0  0  0  0  0  0  0  0  0  0  0  0
  140.4810   81.0920  221.9450 Cl  0  0  0  0  0  0  0  0  0  0  0  0
  141.7690   79.2690  220.3660 C   0  0  0  0  0  0  0  0  0  0  0  0
  142.2694   80.1295  219.8979 H   0  0  0  0  0  0  0  0  0  0  0  0
  142.0530   77.9760  219.9360 C   0  0  0  0  0  0  0  0  0  0  0  0
  142.7794   77.8094  219.1269 H   0  0  0  0  0  0  0  0  0  0  0  0
  141.4100   76.8900  220.5380 C   0  0  0  0  0  0  0  0  0  0  0  0
  141.6970   75.6370  220.1110 N   0  0  0  0  0  0  0  0  0  0  0  0
  141.1180   74.5340  220.6520 C   0  0  0  0  0  0  0  0  0  0  0  0
  141.4400   73.2780  220.1900 N   0  0  0  0  0  0  0  0  0  0  0  0
  142.4510   73.1490  219.1150 C   0  0  0  0  0  0  0  0  0  0  0  0
  142.3176   72.1830  218.6060 H   0  0  0  0  0  0  0  0  0  0  0  0
  142.3188   73.9745  218.4001 H   0  0  0  0  0  0  0  0  0  0  0  0
  143.8430   73.2190  219.6910 C   0  0  0  0  0  0  0  0  0  0  0  0
  144.7180   72.1250  219.5820 C   0  0  0  0  0  0  0  0  0  0  0  0
  144.3798   71.2004  219.0914 H   0  0  0  0  0  0  0  0  0  0  0  0
  146.0160   72.2060  220.0940 C   0  0  0  0  0  0  0  0  0  0  0  0
  146.6969   71.3468  220.0033 H   0  0  0  0  0  0  0  0  0  0  0  0
  146.4500   73.3770  220.7210 C   0  0  0  0  0  0  0  0  0  0  0  0
  147.4714   73.4393  221.1245 H   0  0  0  0  0  0  0  0  0  0  0  0
  145.5850   74.4690  220.8350 C   0  0  0  0  0  0  0  0  0  0  0  0
  145.9266   75.3907  221.3287 H   0  0  0  0  0  0  0  0  0  0  0  0
  144.2870   74.3920  220.3230 C   0  0  0  0  0  0  0  0  0  0  0  0
  143.6100   75.2540  220.4154 H   0  0  0  0  0  0  0  0  0  0  0  0
  1  2  1  0
  2  3  2  0
  3  4  1  0
  4  5  1  0
  5  6  2  0
  5  7  1  0
  7  8  1  0
  7  9  1  0
  9 10  1  1
  9 11  1  0
 11 12  2  0
 12 13  1  0
 12 14  1  0
 14 15  1  0
 14 16  2  0
 16 17  1  0
 16 18  1  0
 18 19  1  0
 18 20  2  0
 20 21  1  0
  9 22  1  0
 22 23  1  0
 22 24  1  0
 22 25  1  0
  4 26  2  0
 26 27  1  0
 26 28  1  0
 28 29  1  0
 29 30  2  0
 29 31  1  0
 31 32  1  0
 32 33  1  0
 32 34  2  0
 34 35  1  0
 34 36  1  0
 36 37  1  0
 36 38  2  0
 38 39  1  0
 38 40  1  0
 40 41  2  0
 41 42  1  0
 42 43  1  0
 43 44  1  0
 44 45  1  0
 44 46  1  0
 44 47  1  0
 47 48  2  0
 48 49  1  0
 48 50  1  0
 50 51  1  0
 50 52  2  0
 52 53  1  0
 52 54  1  0
 54 55  1  0
 54 56  2  0
 56 57  1  0
 43  3  1  0
 56 47  1  0
 20 11  1  0
 42 28  2  0
 40 31  1  0
M  END
>  <UniqueID>  (51) 
102

>  <SMILES>  (51) 
[H]/N=c1\c(C(=O)N[C@@H](C)c2ccccc2)cc2c(=O)n3cc(Cl)ccc3nc2n1Cc1ccccc1

>  <Energy>  (51) 
82.31487178615336

>  <Genealogy>  (51) 
[H]/N=c1\c(C(=O)N[C@@H](C)c2ccccc2)cc2c(=O)n3cc(Cl)ccc3nc2n1Cc1ccccc1 (cis-trans isomerization)
[H]/N=c1\c(C(=O)N[C@@H](C)c2ccccc2)cc2c(=O)n3cc(Cl)ccc3nc2n1Cc1ccccc1 (3D coordinates assigned)
[H]/N=c1\c(C(=O)N[C@@H](C)c2ccccc2)cc2c(=O)n3cc(Cl)ccc3nc2n1Cc1ccccc1 (optimized conformer: 82.31487178615336 kcal/mol)

>  <smiles>  (51) 
C[C@H](NC(=O)c1cc2c(=O)n3cc(Cl)ccc3nc2n(Cc2ccccc2)c1=N)c1ccccc1

>  <score_type>  (51) 
oracle

>  <origin>  (51) 
autodockgpu

>  <m_score__min__energy>  (51) 
-8.9000000000000004

>  <m_primary>  (51) 
energy

>  <meeko>  (51) 
{"free_energy": -8.89, "intermolecular_energy": -10.68, "internal_energy": -1.62, "cluster_size": 12, "cluster_id": 1, "rank_in_cluster": 3}

>  <energy>  (51) 
-8.55

>  <cluster_rmsd>  (51) 
1.18

>  <rmsd>  (51) 
270.64

>  <cluster>  (51) 
1

$$$$
BLHILRPTNSSYME-OCGWMCMZNA-N
     RDKit          3D

 57 61  0  0  0  0  0  0  0  0999 V2000
  140.7550   70.1850  220.4700 H   0  0  0  0  0  0  0  0  0  0  0  0
  141.1530   71.0950  220.1540 N   0  0  0  0  0  0  0  0  0  0  0  0
  140.8760   72.2570  220.6750 C   0  0  0  0  0  0  0  0  0  0  0  0
  139.9660   72.3610  221.7580 C   0  0  0  0  0  0  0  0  0  0  0  0
  139.4070   71.1810  222.4530 C   0  0  0  0  0  0  0  0  0  0  0  0
  139.7500   70.0250  222.0840 O   0  0  0  0  0  0  0  0  0  0  0  0
  138.4310   71.3470  223.4930 N   0  0  0  0  0  0  0  0  0  0  0  0
  138.0410   72.3050  223.6480 H   0  0  0  0  0  0  0  0  0  0  0  0
  137.9540   70.2240  224.3110 C   0  0  2  0  0  0  0  0  0  0  0  0
  137.1092   70.5741  224.9224 H   0  0  0  0  0  0  0  0  0  0  0  0
  139.0450   69.7400  225.2460 C   0  0  0  0  0  0  0  0  0  0  0  0
  140.0280   70.6260  225.7290 C   0  0  0  0  0  0  0  0  0  0  0  0
  140.0023   71.6852  225.4332 H   0  0  0  0  0  0  0  0  0  0  0  0
  141.0360   70.1670  226.5820 C   0  0  0  0  0  0  0  0  0  0  0  0
  141.7976   70.8661  226.9577 H   0  0  0  0  0  0  0  0  0  0  0  0
  141.0780   68.8230  226.9580 C   0  0  0  0  0  0  0  0  0  0  0  0
  141.8726   68.4644  227.6288 H   0  0  0  0  0  0  0  0  0  0  0  0
  140.1120   67.9340  226.4830 C   0  0  0  0  0  0  0  0  0  0  0  0
  140.1465   66.8753  226.7797 H   0  0  0  0  0  0  0  0  0  0  0  0
  139.1000   68.3880  225.6300 C   0  0  0  0  0  0  0  0  0  0  0  0
  138.3424   67.6829  225.2573 H   0  0  0  0  0  0  0  0  0  0  0  0
  137.4650   69.0810  223.4150 C   0  0  0  0  0  0  0  0  0  0  0  0
  137.1095   68.2500  224.0420 H   0  0  0  0  0  0  0  0  0  0  0  0
  136.6415   69.4395  222.7799 H   0  0  0  0  0  0  0  0  0  0  0  0
  138.2930   68.7330  222.7799 H   0  0  0  0  0  0  0  0  0  0  0  0
  139.6040   73.6260  222.2230 C   0  0  0  0  0  0  0  0  0  0  0  0
  138.8693   73.7191  223.0363 H   0  0  0  0  0  0  0  0  0  0  0  0
  140.1680   74.7750  221.6630 C   0  0  0  0  0  0  0  0  0  0  0  0
  139.8480   76.0670  222.1260 C   0  0  0  0  0  0  0  0  0  0  0  0
  139.0110   76.2020  223.0650 O   0  0  0  0  0  0  0  0  0  0  0  0
  140.4440   77.1690  221.5650 N   0  0  0  0  0  0  0  0  0  0  0  0
  140.1440   78.4340  222.0110 C   0  0  0  0  0  0  0  0  0  0  0  0
  139.4165   78.5647  222.8257 H   0  0  0  0  0  0  0  0  0  0  0  0
  140.7520   79.5560  221.4420 C   0  0  0  0  0  0  0  0  0  0  0  0
  140.3610   81.1640  222.0230 Cl  0  0  0  0  0  0  0  0  0  0  0  0
  141.6730   79.3890  220.4100 C   0  0  0  0  0  0  0  0  0  0  0  0
  142.1584   80.2652  219.9553 H   0  0  0  0  0  0  0  0  0  0  0  0
  141.9760   78.1080  219.9570 C   0  0  0  0  0  0  0  0  0  0  0  0
  142.7016   77.9667  219.1424 H   0  0  0  0  0  0  0  0  0  0  0  0
  141.3530   77.0020  220.5430 C   0  0  0  0  0  0  0  0  0  0  0  0
  141.6590   75.7600  220.0950 N   0  0  0  0  0  0  0  0  0  0  0  0
  141.0990   74.6400  220.6200 C   0  0  0  0  0  0  0  0  0  0  0  0
  141.4390   73.3970  220.1360 N   0  0  0  0  0  0  0  0  0  0  0  0
  142.4490   73.3020  219.0550 C   0  0  0  0  0  0  0  0  0  0  0  0
  142.3109   72.3551  218.5124 H   0  0  0  0  0  0  0  0  0  0  0  0
  142.3192   74.1530  218.3702 H   0  0  0  0  0  0  0  0  0  0  0  0
  143.8410   73.3460  219.6300 C   0  0  0  0  0  0  0  0  0  0  0  0
  144.3050   74.4960  220.2930 C   0  0  0  0  0  0  0  0  0  0  0  0
  143.6552   75.3798  220.3751 H   0  0  0  0  0  0  0  0  0  0  0  0
  145.5870   74.5220  220.8480 C   0  0  0  0  0  0  0  0  0  0  0  0
  145.9434   75.4244  221.3663 H   0  0  0  0  0  0  0  0  0  0  0  0
  146.4170   73.4020  220.7450 C   0  0  0  0  0  0  0  0  0  0  0  0
  147.4263   73.4235  221.1820 H   0  0  0  0  0  0  0  0  0  0  0  0
  145.9650   72.2550  220.0870 C   0  0  0  0  0  0  0  0  0  0  0  0
  146.6188   71.3741  220.0066 H   0  0  0  0  0  0  0  0  0  0  0  0
  144.6830   72.2260  219.5310 C   0  0  0  0  0  0  0  0  0  0  0  0
  144.3316   71.3214  219.0132 H   0  0  0  0  0  0  0  0  0  0  0  0
  1  2  1  0
  2  3  2  0
  3  4  1  0
  4  5  1  0
  5  6  2  0
  5  7  1  0
  7  8  1  0
  7  9  1  0
  9 10  1  1
  9 11  1  0
 11 12  2  0
 12 13  1  0
 12 14  1  0
 14 15  1  0
 14 16  2  0
 16 17  1  0
 16 18  1  0
 18 19  1  0
 18 20  2  0
 20 21  1  0
  9 22  1  0
 22 23  1  0
 22 24  1  0
 22 25  1  0
  4 26  2  0
 26 27  1  0
 26 28  1  0
 28 29  1  0
 29 30  2  0
 29 31  1  0
 31 32  1  0
 32 33  1  0
 32 34  2  0
 34 35  1  0
 34 36  1  0
 36 37  1  0
 36 38  2  0
 38 39  1  0
 38 40  1  0
 40 41  2  0
 41 42  1  0
 42 43  1  0
 43 44  1  0
 44 45  1  0
 44 46  1  0
 44 47  1  0
 47 48  2  0
 48 49  1  0
 48 50  1  0
 50 51  1  0
 50 52  2  0
 52 53  1  0
 52 54  1  0
 54 55  1  0
 54 56  2  0
 56 57  1  0
 43  3  1  0
 56 47  1  0
 20 11  1  0
 42 28  2  0
 40 31  1  0
M  END
>  <UniqueID>  (52) 
102

>  <SMILES>  (52) 
[H]/N=c1\c(C(=O)N[C@@H](C)c2ccccc2)cc2c(=O)n3cc(Cl)ccc3nc2n1Cc1ccccc1

>  <Energy>  (52) 
82.31487178615336

>  <Genealogy>  (52) 
[H]/N=c1\c(C(=O)N[C@@H](C)c2ccccc2)cc2c(=O)n3cc(Cl)ccc3nc2n1Cc1ccccc1 (cis-trans isomerization)
[H]/N=c1\c(C(=O)N[C@@H](C)c2ccccc2)cc2c(=O)n3cc(Cl)ccc3nc2n1Cc1ccccc1 (3D coordinates assigned)
[H]/N=c1\c(C(=O)N[C@@H](C)c2ccccc2)cc2c(=O)n3cc(Cl)ccc3nc2n1Cc1ccccc1 (optimized conformer: 82.31487178615336 kcal/mol)

>  <smiles>  (52) 
C[C@H](NC(=O)c1cc2c(=O)n3cc(Cl)ccc3nc2n(Cc2ccccc2)c1=N)c1ccccc1

>  <score_type>  (52) 
oracle

>  <origin>  (52) 
autodockgpu

>  <m_score__min__energy>  (52) 
-8.9000000000000004

>  <m_primary>  (52) 
energy

>  <meeko>  (52) 
{"free_energy": -8.88, "intermolecular_energy": -10.67, "internal_energy": -1.65, "cluster_size": 12, "cluster_id": 1, "rank_in_cluster": 5}

>  <energy>  (52) 
-8.52

>  <cluster_rmsd>  (52) 
1.19

>  <rmsd>  (52) 
270.69

>  <cluster>  (52) 
1

$$$$
BLHILRPTNSSYME-OCGWMCMZNA-N
     RDKit          3D

 57 61  0  0  0  0  0  0  0  0999 V2000
  140.5810   70.1320  220.4340 H   0  0  0  0  0  0  0  0  0  0  0  0
  141.1060   71.0070  220.2230 N   0  0  0  0  0  0  0  0  0  0  0  0
  140.8460   72.1790  220.7280 C   0  0  0  0  0  0  0  0  0  0  0  0
  139.9430   72.3100  221.8150 C   0  0  0  0  0  0  0  0  0  0  0  0
  139.3730   71.1460  222.5290 C   0  0  0  0  0  0  0  0  0  0  0  0
  139.7130   69.9820  222.1850 O   0  0  0  0  0  0  0  0  0  0  0  0
  138.3900   71.3380  223.5580 N   0  0  0  0  0  0  0  0  0  0  0  0
  138.0030   72.3000  223.6900 H   0  0  0  0  0  0  0  0  0  0  0  0
  137.9010   70.2340  224.3940 C   0  0  2  0  0  0  0  0  0  0  0  0
  137.0865   70.6135  225.0285 H   0  0  0  0  0  0  0  0  0  0  0  0
  139.0040   69.7170  225.2980 C   0  0  0  0  0  0  0  0  0  0  0  0
  140.0040   70.5830  225.7840 C   0  0  0  0  0  0  0  0  0  0  0  0
  139.9834   71.6491  225.5136 H   0  0  0  0  0  0  0  0  0  0  0  0
  141.0220   70.0940  226.6080 C   0  0  0  0  0  0  0  0  0  0  0  0
  141.7972   70.7766  226.9863 H   0  0  0  0  0  0  0  0  0  0  0  0
  141.0570   68.7410  226.9520 C   0  0  0  0  0  0  0  0  0  0  0  0
  141.8599   68.3589  227.5996 H   0  0  0  0  0  0  0  0  0  0  0  0
  140.0730   67.8730  226.4740 C   0  0  0  0  0  0  0  0  0  0  0  0
  140.1016   66.8075  226.7459 H   0  0  0  0  0  0  0  0  0  0  0  0
  139.0510   68.3560  225.6500 C   0  0  0  0  0  0  0  0  0  0  0  0
  138.2795   67.6674  225.2751 H   0  0  0  0  0  0  0  0  0  0  0  0
  137.3490   69.1050  223.5180 C   0  0  0  0  0  0  0  0  0  0  0  0
  136.9564   68.3020  224.1591 H   0  0  0  0  0  0  0  0  0  0  0  0
  136.5403   69.4957  222.8829 H   0  0  0  0  0  0  0  0  0  0  0  0
  138.1540   68.7067  222.8829 H   0  0  0  0  0  0  0  0  0  0  0  0
  139.5990   73.5860  222.2640 C   0  0  0  0  0  0  0  0  0  0  0  0
  138.8698   73.6996  223.0797 H   0  0  0  0  0  0  0  0  0  0  0  0
  140.1740   74.7200  221.6850 C   0  0  0  0  0  0  0  0  0  0  0  0
  139.8720   76.0220  222.1310 C   0  0  0  0  0  0  0  0  0  0  0  0
  139.0410   76.1800  223.0710 O   0  0  0  0  0  0  0  0  0  0  0  0
  140.4780   77.1080  221.5510 N   0  0  0  0  0  0  0  0  0  0  0  0
  140.1960   78.3820  221.9810 C   0  0  0  0  0  0  0  0  0  0  0  0
  139.4746   78.5328  222.7976 H   0  0  0  0  0  0  0  0  0  0  0  0
  140.8150   79.4890  221.3930 C   0  0  0  0  0  0  0  0  0  0  0  0
  140.4470   81.1100  221.9540 Cl  0  0  0  0  0  0  0  0  0  0  0  0
  141.7290   79.2970  220.3590 C   0  0  0  0  0  0  0  0  0  0  0  0
  142.2224   80.1606  219.8891 H   0  0  0  0  0  0  0  0  0  0  0  0
  142.0140   78.0050  219.9240 C   0  0  0  0  0  0  0  0  0  0  0  0
  142.7347   77.8426  219.1090 H   0  0  0  0  0  0  0  0  0  0  0  0
  141.3800   76.9160  220.5280 C   0  0  0  0  0  0  0  0  0  0  0  0
  141.6690   75.6640  220.0960 N   0  0  0  0  0  0  0  0  0  0  0  0
  141.0980   74.5580  220.6390 C   0  0  0  0  0  0  0  0  0  0  0  0
  141.4200   73.3050  220.1710 N   0  0  0  0  0  0  0  0  0  0  0  0
  142.4240   73.1820  219.0860 C   0  0  0  0  0  0  0  0  0  0  0  0
  142.2909   72.2160  218.5770 H   0  0  0  0  0  0  0  0  0  0  0  0
  142.2819   74.0078  218.3733 H   0  0  0  0  0  0  0  0  0  0  0  0
  143.8200   73.2580  219.6500 C   0  0  0  0  0  0  0  0  0  0  0  0
  144.2670   74.4250  220.2950 C   0  0  0  0  0  0  0  0  0  0  0  0
  143.6018   75.2977  220.3718 H   0  0  0  0  0  0  0  0  0  0  0  0
  145.5540   74.4800  220.8390 C   0  0  0  0  0  0  0  0  0  0  0  0
  145.8986   75.3949  221.3431 H   0  0  0  0  0  0  0  0  0  0  0  0
  146.4030   73.3740  220.7430 C   0  0  0  0  0  0  0  0  0  0  0  0
  147.4152   73.4186  221.1714 H   0  0  0  0  0  0  0  0  0  0  0  0
  145.9660   72.2120  220.1030 C   0  0  0  0  0  0  0  0  0  0  0  0
  146.6351   71.3422  220.0276 H   0  0  0  0  0  0  0  0  0  0  0  0
  144.6800   72.1520  219.5580 C   0  0  0  0  0  0  0  0  0  0  0  0
  144.3405   71.2345  219.0550 H   0  0  0  0  0  0  0  0  0  0  0  0
  1  2  1  0
  2  3  2  0
  3  4  1  0
  4  5  1  0
  5  6  2  0
  5  7  1  0
  7  8  1  0
  7  9  1  0
  9 10  1  1
  9 11  1  0
 11 12  2  0
 12 13  1  0
 12 14  1  0
 14 15  1  0
 14 16  2  0
 16 17  1  0
 16 18  1  0
 18 19  1  0
 18 20  2  0
 20 21  1  0
  9 22  1  0
 22 23  1  0
 22 24  1  0
 22 25  1  0
  4 26  2  0
 26 27  1  0
 26 28  1  0
 28 29  1  0
 29 30  2  0
 29 31  1  0
 31 32  1  0
 32 33  1  0
 32 34  2  0
 34 35  1  0
 34 36  1  0
 36 37  1  0
 36 38  2  0
 38 39  1  0
 38 40  1  0
 40 41  2  0
 41 42  1  0
 42 43  1  0
 43 44  1  0
 44 45  1  0
 44 46  1  0
 44 47  1  0
 47 48  2  0
 48 49  1  0
 48 50  1  0
 50 51  1  0
 50 52  2  0
 52 53  1  0
 52 54  1  0
 54 55  1  0
 54 56  2  0
 56 57  1  0
 43  3  1  0
 56 47  1  0
 20 11  1  0
 42 28  2  0
 40 31  1  0
M  END
>  <UniqueID>  (53) 
102

>  <SMILES>  (53) 
[H]/N=c1\c(C(=O)N[C@@H](C)c2ccccc2)cc2c(=O)n3cc(Cl)ccc3nc2n1Cc1ccccc1

>  <Energy>  (53) 
82.31487178615336

>  <Genealogy>  (53) 
[H]/N=c1\c(C(=O)N[C@@H](C)c2ccccc2)cc2c(=O)n3cc(Cl)ccc3nc2n1Cc1ccccc1 (cis-trans isomerization)
[H]/N=c1\c(C(=O)N[C@@H](C)c2ccccc2)cc2c(=O)n3cc(Cl)ccc3nc2n1Cc1ccccc1 (3D coordinates assigned)
[H]/N=c1\c(C(=O)N[C@@H](C)c2ccccc2)cc2c(=O)n3cc(Cl)ccc3nc2n1Cc1ccccc1 (optimized conformer: 82.31487178615336 kcal/mol)

>  <smiles>  (53) 
C[C@H](NC(=O)c1cc2c(=O)n3cc(Cl)ccc3nc2n(Cc2ccccc2)c1=N)c1ccccc1

>  <score_type>  (53) 
oracle

>  <origin>  (53) 
autodockgpu

>  <m_score__min__energy>  (53) 
-8.9000000000000004

>  <m_primary>  (53) 
energy

>  <meeko>  (53) 
{"free_energy": -8.88, "intermolecular_energy": -10.67, "internal_energy": -1.64, "cluster_size": 12, "cluster_id": 1, "rank_in_cluster": 4}

>  <energy>  (53) 
-8.6

>  <cluster_rmsd>  (53) 
0.0

>  <rmsd>  (53) 
270.96

>  <cluster>  (53) 
2

$$$$
BLHILRPTNSSYME-OCGWMCMZNA-N
     RDKit          3D

 57 61  0  0  0  0  0  0  0  0999 V2000
  135.2440   78.4160  222.7590 H   0  0  0  0  0  0  0  0  0  0  0  0
  136.2780   78.5320  222.8290 N   0  0  0  0  0  0  0  0  0  0  0  0
  137.1590   77.6280  222.5070 C   0  0  0  0  0  0  0  0  0  0  0  0
  136.9380   76.2630  222.8240 C   0  0  0  0  0  0  0  0  0  0  0  0
  135.6620   75.7650  223.3830 C   0  0  0  0  0  0  0  0  0  0  0  0
  134.5990   76.4080  223.1680 O   0  0  0  0  0  0  0  0  0  0  0  0
  135.6440   74.5970  224.2190 N   0  0  0  0  0  0  0  0  0  0  0  0
  136.5620   74.1980  224.5190 H   0  0  0  0  0  0  0  0  0  0  0  0
  134.3930   73.9790  224.6780 C   0  0  2  0  0  0  0  0  0  0  0  0
  133.7210   73.8731  223.8136 H   0  0  0  0  0  0  0  0  0  0  0  0
  133.7060   74.8570  225.7050 C   0  0  0  0  0  0  0  0  0  0  0  0
  134.3250   76.0290  226.1840 C   0  0  0  0  0  0  0  0  0  0  0  0
  135.3158   76.3188  225.8040 H   0  0  0  0  0  0  0  0  0  0  0  0
  133.6870   76.8250  227.1390 C   0  0  0  0  0  0  0  0  0  0  0  0
  134.1748   77.7408  227.5042 H   0  0  0  0  0  0  0  0  0  0  0  0
  132.4320   76.4610  227.6310 C   0  0  0  0  0  0  0  0  0  0  0  0
  131.9333   77.0888  228.3841 H   0  0  0  0  0  0  0  0  0  0  0  0
  131.8100   75.3000  227.1670 C   0  0  0  0  0  0  0  0  0  0  0  0
  130.8211   75.0143  227.5550 H   0  0  0  0  0  0  0  0  0  0  0  0
  132.4420   74.5000  226.2100 C   0  0  0  0  0  0  0  0  0  0  0  0
  131.9479   73.5857  225.8496 H   0  0  0  0  0  0  0  0  0  0  0  0
  134.6660   72.5860  225.2550 C   0  0  0  0  0  0  0  0  0  0  0  0
  134.6562   72.6359  226.3538 H   0  0  0  0  0  0  0  0  0  0  0  0
  133.8875   71.8883  224.9127 H   0  0  0  0  0  0  0  0  0  0  0  0
  135.6503   72.2338  224.9127 H   0  0  0  0  0  0  0  0  0  0  0  0
  137.9460   75.3330  222.5670 C   0  0  0  0  0  0  0  0  0  0  0  0
  137.8002   74.2787  222.8447 H   0  0  0  0  0  0  0  0  0  0  0  0
  139.1400   75.7320  221.9590 C   0  0  0  0  0  0  0  0  0  0  0  0
  140.1680   74.8160  221.6590 C   0  0  0  0  0  0  0  0  0  0  0  0
  140.0230   73.5970  221.9620 O   0  0  0  0  0  0  0  0  0  0  0  0
  141.3150   75.2450  221.0380 N   0  0  0  0  0  0  0  0  0  0  0  0
  142.3220   74.3610  220.7350 C   0  0  0  0  0  0  0  0  0  0  0  0
  142.2087   73.2980  220.9943 H   0  0  0  0  0  0  0  0  0  0  0  0
  143.4890   74.7970  220.1010 C   0  0  0  0  0  0  0  0  0  0  0  0
  144.7660   73.6560  219.7180 Cl  0  0  0  0  0  0  0  0  0  0  0  0
  143.6310   76.1430  219.7730 C   0  0  0  0  0  0  0  0  0  0  0  0
  144.5452   76.4967  219.2738 H   0  0  0  0  0  0  0  0  0  0  0  0
  142.6100   77.0390  220.0800 C   0  0  0  0  0  0  0  0  0  0  0  0
  142.7126   78.1038  219.8236 H   0  0  0  0  0  0  0  0  0  0  0  0
  141.4540   76.5770  220.7160 C   0  0  0  0  0  0  0  0  0  0  0  0
  140.4670   77.4590  221.0080 N   0  0  0  0  0  0  0  0  0  0  0  0
  139.3140   77.0830  221.6180 C   0  0  0  0  0  0  0  0  0  0  0  0
  138.3360   78.0110  221.8940 N   0  0  0  0  0  0  0  0  0  0  0  0
  138.5500   79.4210  221.4870 C   0  0  0  0  0  0  0  0  0  0  0  0
  138.5971   79.4785  220.3895 H   0  0  0  0  0  0  0  0  0  0  0  0
  137.7151   80.0315  221.8615 H   0  0  0  0  0  0  0  0  0  0  0  0
  139.8390   79.9450  222.0680 C   0  0  0  0  0  0  0  0  0  0  0  0
  140.2880   79.5040  223.3250 C   0  0  0  0  0  0  0  0  0  0  0  0
  139.6855   78.7862  223.9010 H   0  0  0  0  0  0  0  0  0  0  0  0
  141.4970   79.9740  223.8460 C   0  0  0  0  0  0  0  0  0  0  0  0
  141.8436   79.6243  224.8296 H   0  0  0  0  0  0  0  0  0  0  0  0
  142.2660   80.8870  223.1200 C   0  0  0  0  0  0  0  0  0  0  0  0
  143.2169   81.2560  223.5319 H   0  0  0  0  0  0  0  0  0  0  0  0
  141.8260   81.3310  221.8700 C   0  0  0  0  0  0  0  0  0  0  0  0
  142.4314   82.0502  221.2987 H   0  0  0  0  0  0  0  0  0  0  0  0
  140.6180   80.8630  221.3440 C   0  0  0  0  0  0  0  0  0  0  0  0
  140.2762   81.2150  220.3595 H   0  0  0  0  0  0  0  0  0  0  0  0
  1  2  1  0
  2  3  2  0
  3  4  1  0
  4  5  1  0
  5  6  2  0
  5  7  1  0
  7  8  1  0
  7  9  1  0
  9 10  1  6
  9 11  1  0
 11 12  2  0
 12 13  1  0
 12 14  1  0
 14 15  1  0
 14 16  2  0
 16 17  1  0
 16 18  1  0
 18 19  1  0
 18 20  2  0
 20 21  1  0
  9 22  1  0
 22 23  1  0
 22 24  1  0
 22 25  1  0
  4 26  2  0
 26 27  1  0
 26 28  1  0
 28 29  1  0
 29 30  2  0
 29 31  1  0
 31 32  1  0
 32 33  1  0
 32 34  2  0
 34 35  1  0
 34 36  1  0
 36 37  1  0
 36 38  2  0
 38 39  1  0
 38 40  1  0
 40 41  2  0
 41 42  1  0
 42 43  1  0
 43 44  1  0
 44 45  1  0
 44 46  1  0
 44 47  1  0
 47 48  2  0
 48 49  1  0
 48 50  1  0
 50 51  1  0
 50 52  2  0
 52 53  1  0
 52 54  1  0
 54 55  1  0
 54 56  2  0
 56 57  1  0
 43  3  1  0
 56 47  1  0
 20 11  1  0
 42 28  2  0
 40 31  1  0
M  END
>  <UniqueID>  (54) 
102

>  <SMILES>  (54) 
[H]/N=c1\c(C(=O)N[C@@H](C)c2ccccc2)cc2c(=O)n3cc(Cl)ccc3nc2n1Cc1ccccc1

>  <Energy>  (54) 
82.31487178615336

>  <Genealogy>  (54) 
[H]/N=c1\c(C(=O)N[C@@H](C)c2ccccc2)cc2c(=O)n3cc(Cl)ccc3nc2n1Cc1ccccc1 (cis-trans isomerization)
[H]/N=c1\c(C(=O)N[C@@H](C)c2ccccc2)cc2c(=O)n3cc(Cl)ccc3nc2n1Cc1ccccc1 (3D coordinates assigned)
[H]/N=c1\c(C(=O)N[C@@H](C)c2ccccc2)cc2c(=O)n3cc(Cl)ccc3nc2n1Cc1ccccc1 (optimized conformer: 82.31487178615336 kcal/mol)

>  <smiles>  (54) 
C[C@H](NC(=O)c1cc2c(=O)n3cc(Cl)ccc3nc2n(Cc2ccccc2)c1=N)c1ccccc1

>  <score_type>  (54) 
oracle

>  <origin>  (54) 
autodockgpu

>  <m_score__min__energy>  (54) 
-8.9000000000000004

>  <m_primary>  (54) 
energy

>  <meeko>  (54) 
{"free_energy": -8.6, "intermolecular_energy": -10.39, "internal_energy": -1.64, "cluster_size": 8, "cluster_id": 2, "rank_in_cluster": 1}

>  <energy>  (54) 
-8.57

>  <cluster_rmsd>  (54) 
0.41

>  <rmsd>  (54) 
270.92

>  <cluster>  (54) 
2

$$$$
BLHILRPTNSSYME-OCGWMCMZNA-N
     RDKit          3D

 57 61  0  0  0  0  0  0  0  0999 V2000
  135.6510   78.0940  222.8570 H   0  0  0  0  0  0  0  0  0  0  0  0
  136.6710   78.2420  222.7010 N   0  0  0  0  0  0  0  0  0  0  0  0
  137.5220   77.3150  222.3670 C   0  0  0  0  0  0  0  0  0  0  0  0
  137.2320   75.9490  222.6140 C   0  0  0  0  0  0  0  0  0  0  0  0
  135.9170   75.4840  223.1100 C   0  0  0  0  0  0  0  0  0  0  0  0
  134.8910   76.1810  222.8860 O   0  0  0  0  0  0  0  0  0  0  0  0
  135.8210   74.2860  223.8960 N   0  0  0  0  0  0  0  0  0  0  0  0
  136.7110   73.8360  224.2100 H   0  0  0  0  0  0  0  0  0  0  0  0
  134.5310   73.7050  224.2870 C   0  0  2  0  0  0  0  0  0  0  0  0
  133.8529   73.7532  223.4222 H   0  0  0  0  0  0  0  0  0  0  0  0
  133.9080   74.4960  225.4220 C   0  0  0  0  0  0  0  0  0  0  0  0
  134.5160   75.6730  225.9000 C   0  0  0  0  0  0  0  0  0  0  0  0
  135.4495   76.0316  225.4418 H   0  0  0  0  0  0  0  0  0  0  0  0
  133.9390   76.3880  226.9540 C   0  0  0  0  0  0  0  0  0  0  0  0
  134.4181   77.3080  227.3201 H   0  0  0  0  0  0  0  0  0  0  0  0
  132.7560   75.9370  227.5430 C   0  0  0  0  0  0  0  0  0  0  0  0
  132.3044   76.5013  228.3722 H   0  0  0  0  0  0  0  0  0  0  0  0
  132.1460   74.7690  227.0790 C   0  0  0  0  0  0  0  0  0  0  0  0
  131.2141   74.4144  227.5436 H   0  0  0  0  0  0  0  0  0  0  0  0
  132.7180   74.0500  226.0250 C   0  0  0  0  0  0  0  0  0  0  0  0
  132.2344   73.1299  225.6651 H   0  0  0  0  0  0  0  0  0  0  0  0
  134.7060   72.2360  224.6870 C   0  0  0  0  0  0  0  0  0  0  0  0
  134.7158   72.1533  225.7838 H   0  0  0  0  0  0  0  0  0  0  0  0
  133.8720   71.6439  224.2821 H   0  0  0  0  0  0  0  0  0  0  0  0
  135.6557   71.8564  224.2821 H   0  0  0  0  0  0  0  0  0  0  0  0
  138.2070   74.9870  222.3470 C   0  0  0  0  0  0  0  0  0  0  0  0
  138.0064   73.9293  222.5729 H   0  0  0  0  0  0  0  0  0  0  0  0
  139.4360   75.3570  221.7950 C   0  0  0  0  0  0  0  0  0  0  0  0
  140.4320   74.4100  221.4860 C   0  0  0  0  0  0  0  0  0  0  0  0
  140.2250   73.1870  221.7290 O   0  0  0  0  0  0  0  0  0  0  0  0
  141.6170   74.8140  220.9220 N   0  0  0  0  0  0  0  0  0  0  0  0
  142.5950   73.9000  220.6110 C   0  0  0  0  0  0  0  0  0  0  0  0
  142.4276   72.8328  220.8185 H   0  0  0  0  0  0  0  0  0  0  0  0
  143.8000   74.3110  220.0340 C   0  0  0  0  0  0  0  0  0  0  0  0
  145.0380   73.1320  219.6400 Cl  0  0  0  0  0  0  0  0  0  0  0  0
  144.0110   75.6620  219.7710 C   0  0  0  0  0  0  0  0  0  0  0  0
  144.9552   75.9960  219.3161 H   0  0  0  0  0  0  0  0  0  0  0  0
  143.0200   76.5880  220.0870 C   0  0  0  0  0  0  0  0  0  0  0  0
  143.1778   77.6574  219.8835 H   0  0  0  0  0  0  0  0  0  0  0  0
  141.8240   76.1520  220.6640 C   0  0  0  0  0  0  0  0  0  0  0  0
  140.8680   77.0640  220.9650 N   0  0  0  0  0  0  0  0  0  0  0  0
  139.6800   76.7130  221.5210 C   0  0  0  0  0  0  0  0  0  0  0  0
  138.7340   77.6710  221.8080 N   0  0  0  0  0  0  0  0  0  0  0  0
  139.0230   79.0860  221.4730 C   0  0  0  0  0  0  0  0  0  0  0  0
  139.1762   79.1774  220.3876 H   0  0  0  0  0  0  0  0  0  0  0  0
  138.1725   79.7080  221.7887 H   0  0  0  0  0  0  0  0  0  0  0  0
  140.2640   79.5540  222.1910 C   0  0  0  0  0  0  0  0  0  0  0  0
  140.5800   79.0580  223.4680 C   0  0  0  0  0  0  0  0  0  0  0  0
  139.9077   78.3386  223.9583 H   0  0  0  0  0  0  0  0  0  0  0  0
  141.7460   79.4760  224.1170 C   0  0  0  0  0  0  0  0  0  0  0  0
  141.9896   79.0839  225.1155 H   0  0  0  0  0  0  0  0  0  0  0  0
  142.6020   80.3910  223.4990 C   0  0  0  0  0  0  0  0  0  0  0  0
  143.5188   80.7186  224.0110 H   0  0  0  0  0  0  0  0  0  0  0  0
  142.2940   80.8900  222.2310 C   0  0  0  0  0  0  0  0  0  0  0  0
  142.9682   81.6111  221.7458 H   0  0  0  0  0  0  0  0  0  0  0  0
  141.1300   80.4740  221.5780 C   0  0  0  0  0  0  0  0  0  0  0  0
  140.8914   80.8691  220.5795 H   0  0  0  0  0  0  0  0  0  0  0  0
  1  2  1  0
  2  3  2  0
  3  4  1  0
  4  5  1  0
  5  6  2  0
  5  7  1  0
  7  8  1  0
  7  9  1  0
  9 10  1  6
  9 11  1  0
 11 12  2  0
 12 13  1  0
 12 14  1  0
 14 15  1  0
 14 16  2  0
 16 17  1  0
 16 18  1  0
 18 19  1  0
 18 20  2  0
 20 21  1  0
  9 22  1  0
 22 23  1  0
 22 24  1  0
 22 25  1  0
  4 26  2  0
 26 27  1  0
 26 28  1  0
 28 29  1  0
 29 30  2  0
 29 31  1  0
 31 32  1  0
 32 33  1  0
 32 34  2  0
 34 35  1  0
 34 36  1  0
 36 37  1  0
 36 38  2  0
 38 39  1  0
 38 40  1  0
 40 41  2  0
 41 42  1  0
 42 43  1  0
 43 44  1  0
 44 45  1  0
 44 46  1  0
 44 47  1  0
 47 48  2  0
 48 49  1  0
 48 50  1  0
 50 51  1  0
 50 52  2  0
 52 53  1  0
 52 54  1  0
 54 55  1  0
 54 56  2  0
 56 57  1  0
 43  3  1  0
 56 47  1  0
 20 11  1  0
 42 28  2  0
 40 31  1  0
M  END
>  <UniqueID>  (55) 
102

>  <SMILES>  (55) 
[H]/N=c1\c(C(=O)N[C@@H](C)c2ccccc2)cc2c(=O)n3cc(Cl)ccc3nc2n1Cc1ccccc1

>  <Energy>  (55) 
82.31487178615336

>  <Genealogy>  (55) 
[H]/N=c1\c(C(=O)N[C@@H](C)c2ccccc2)cc2c(=O)n3cc(Cl)ccc3nc2n1Cc1ccccc1 (cis-trans isomerization)
[H]/N=c1\c(C(=O)N[C@@H](C)c2ccccc2)cc2c(=O)n3cc(Cl)ccc3nc2n1Cc1ccccc1 (3D coordinates assigned)
[H]/N=c1\c(C(=O)N[C@@H](C)c2ccccc2)cc2c(=O)n3cc(Cl)ccc3nc2n1Cc1ccccc1 (optimized conformer: 82.31487178615336 kcal/mol)

>  <smiles>  (55) 
C[C@H](NC(=O)c1cc2c(=O)n3cc(Cl)ccc3nc2n(Cc2ccccc2)c1=N)c1ccccc1

>  <score_type>  (55) 
oracle

>  <origin>  (55) 
autodockgpu

>  <m_score__min__energy>  (55) 
-8.9000000000000004

>  <m_primary>  (55) 
energy

>  <meeko>  (55) 
{"free_energy": -8.55, "intermolecular_energy": -10.34, "internal_energy": -1.71, "cluster_size": 8, "cluster_id": 2, "rank_in_cluster": 4}

>  <energy>  (55) 
-8.55

>  <cluster_rmsd>  (55) 
0.12

>  <rmsd>  (55) 
270.92

>  <cluster>  (55) 
2

$$$$
BLHILRPTNSSYME-OCGWMCMZNA-N
     RDKit          3D

 57 61  0  0  0  0  0  0  0  0999 V2000
  140.6310   70.1420  220.4170 H   0  0  0  0  0  0  0  0  0  0  0  0
  141.1420   71.0220  220.1940 N   0  0  0  0  0  0  0  0  0  0  0  0
  140.8780   72.1930  220.7010 C   0  0  0  0  0  0  0  0  0  0  0  0
  139.9710   72.3200  221.7830 C   0  0  0  0  0  0  0  0  0  0  0  0
  139.3990   71.1550  222.4920 C   0  0  0  0  0  0  0  0  0  0  0  0
  139.7120   69.9910  222.1230 O   0  0  0  0  0  0  0  0  0  0  0  0
  138.4440   71.3450  223.5480 N   0  0  0  0  0  0  0  0  0  0  0  0
  138.0760   72.3110  223.7040 H   0  0  0  0  0  0  0  0  0  0  0  0
  137.9580   70.2360  224.3780 C   0  0  2  0  0  0  0  0  0  0  0  0
  137.1434   70.6113  225.0149 H   0  0  0  0  0  0  0  0  0  0  0  0
  139.0610   69.7160  225.2790 C   0  0  0  0  0  0  0  0  0  0  0  0
  139.1150   68.3570  225.6440 C   0  0  0  0  0  0  0  0  0  0  0  0
  138.3542   67.6586  225.2653 H   0  0  0  0  0  0  0  0  0  0  0  0
  140.1300   67.8900  226.4850 C   0  0  0  0  0  0  0  0  0  0  0  0
  140.1670   66.8263  226.7627 H   0  0  0  0  0  0  0  0  0  0  0  0
  141.0970   68.7720  226.9730 C   0  0  0  0  0  0  0  0  0  0  0  0
  141.8940   68.4028  227.6353 H   0  0  0  0  0  0  0  0  0  0  0  0
  141.0520   70.1230  226.6200 C   0  0  0  0  0  0  0  0  0  0  0  0
  141.8143   70.8166  227.0045 H   0  0  0  0  0  0  0  0  0  0  0  0
  140.0400   70.5950  225.7790 C   0  0  0  0  0  0  0  0  0  0  0  0
  140.0086   71.6602  225.5063 H   0  0  0  0  0  0  0  0  0  0  0  0
  137.4070   69.1100  223.4960 C   0  0  0  0  0  0  0  0  0  0  0  0
  137.0129   68.3046  224.1332 H   0  0  0  0  0  0  0  0  0  0  0  0
  136.5996   69.5034  222.8609 H   0  0  0  0  0  0  0  0  0  0  0  0
  138.2131   68.7139  222.8609 H   0  0  0  0  0  0  0  0  0  0  0  0
  139.6230   73.5950  222.2330 C   0  0  0  0  0  0  0  0  0  0  0  0
  138.8899   73.7059  223.0455 H   0  0  0  0  0  0  0  0  0  0  0  0
  140.1990   74.7310  221.6590 C   0  0  0  0  0  0  0  0  0  0  0  0
  139.8930   76.0310  222.1070 C   0  0  0  0  0  0  0  0  0  0  0  0
  139.0580   76.1870  223.0440 O   0  0  0  0  0  0  0  0  0  0  0  0
  140.5010   77.1200  221.5320 N   0  0  0  0  0  0  0  0  0  0  0  0
  140.2150   78.3930  221.9630 C   0  0  0  0  0  0  0  0  0  0  0  0
  139.4891   78.5417  222.7760 H   0  0  0  0  0  0  0  0  0  0  0  0
  140.8360   79.5010  221.3800 C   0  0  0  0  0  0  0  0  0  0  0  0
  140.4630   81.1210  221.9420 Cl  0  0  0  0  0  0  0  0  0  0  0  0
  141.7540   79.3120  220.3500 C   0  0  0  0  0  0  0  0  0  0  0  0
  142.2484   80.1774  219.8846 H   0  0  0  0  0  0  0  0  0  0  0  0
  142.0430   78.0220  219.9120 C   0  0  0  0  0  0  0  0  0  0  0  0
  142.7665   77.8627  219.0989 H   0  0  0  0  0  0  0  0  0  0  0  0
  141.4080   76.9310  220.5120 C   0  0  0  0  0  0  0  0  0  0  0  0
  141.6990   75.6800  220.0780 N   0  0  0  0  0  0  0  0  0  0  0  0
  141.1280   74.5730  220.6170 C   0  0  0  0  0  0  0  0  0  0  0  0
  141.4540   73.3210  220.1480 N   0  0  0  0  0  0  0  0  0  0  0  0
  142.4620   73.2010  219.0670 C   0  0  0  0  0  0  0  0  0  0  0  0
  142.3323   72.2356  218.5560 H   0  0  0  0  0  0  0  0  0  0  0  0
  142.3216   74.0274  218.3548 H   0  0  0  0  0  0  0  0  0  0  0  0
  143.8550   73.2780  219.6370 C   0  0  0  0  0  0  0  0  0  0  0  0
  144.2970   74.4420  220.2900 C   0  0  0  0  0  0  0  0  0  0  0  0
  143.6297   75.3130  220.3684 H   0  0  0  0  0  0  0  0  0  0  0  0
  145.5810   74.4970  220.8400 C   0  0  0  0  0  0  0  0  0  0  0  0
  145.9204   75.4100  221.3511 H   0  0  0  0  0  0  0  0  0  0  0  0
  146.4340   73.3950  220.7420 C   0  0  0  0  0  0  0  0  0  0  0  0
  147.4438   73.4401  221.1759 H   0  0  0  0  0  0  0  0  0  0  0  0
  146.0030   72.2350  220.0920 C   0  0  0  0  0  0  0  0  0  0  0  0
  146.6751   71.3678  220.0133 H   0  0  0  0  0  0  0  0  0  0  0  0
  144.7200   72.1750  219.5420 C   0  0  0  0  0  0  0  0  0  0  0  0
  144.3855   71.2596  219.0321 H   0  0  0  0  0  0  0  0  0  0  0  0
  1  2  1  0
  2  3  2  0
  3  4  1  0
  4  5  1  0
  5  6  2  0
  5  7  1  0
  7  8  1  0
  7  9  1  0
  9 10  1  1
  9 11  1  0
 11 12  2  0
 12 13  1  0
 12 14  1  0
 14 15  1  0
 14 16  2  0
 16 17  1  0
 16 18  1  0
 18 19  1  0
 18 20  2  0
 20 21  1  0
  9 22  1  0
 22 23  1  0
 22 24  1  0
 22 25  1  0
  4 26  2  0
 26 27  1  0
 26 28  1  0
 28 29  1  0
 29 30  2  0
 29 31  1  0
 31 32  1  0
 32 33  1  0
 32 34  2  0
 34 35  1  0
 34 36  1  0
 36 37  1  0
 36 38  2  0
 38 39  1  0
 38 40  1  0
 40 41  2  0
 41 42  1  0
 42 43  1  0
 43 44  1  0
 44 45  1  0
 44 46  1  0
 44 47  1  0
 47 48  2  0
 48 49  1  0
 48 50  1  0
 50 51  1  0
 50 52  2  0
 52 53  1  0
 52 54  1  0
 54 55  1  0
 54 56  2  0
 56 57  1  0
 43  3  1  0
 56 47  1  0
 20 11  1  0
 42 28  2  0
 40 31  1  0
M  END
>  <UniqueID>  (56) 
102

>  <SMILES>  (56) 
[H]/N=c1\c(C(=O)N[C@@H](C)c2ccccc2)cc2c(=O)n3cc(Cl)ccc3nc2n1Cc1ccccc1

>  <Energy>  (56) 
82.31487178615336

>  <Genealogy>  (56) 
[H]/N=c1\c(C(=O)N[C@@H](C)c2ccccc2)cc2c(=O)n3cc(Cl)ccc3nc2n1Cc1ccccc1 (cis-trans isomerization)
[H]/N=c1\c(C(=O)N[C@@H](C)c2ccccc2)cc2c(=O)n3cc(Cl)ccc3nc2n1Cc1ccccc1 (3D coordinates assigned)
[H]/N=c1\c(C(=O)N[C@@H](C)c2ccccc2)cc2c(=O)n3cc(Cl)ccc3nc2n1Cc1ccccc1 (optimized conformer: 82.31487178615336 kcal/mol)

>  <smiles>  (56) 
C[C@H](NC(=O)c1cc2c(=O)n3cc(Cl)ccc3nc2n(Cc2ccccc2)c1=N)c1ccccc1

>  <score_type>  (56) 
oracle

>  <origin>  (56) 
autodockgpu

>  <m_score__min__energy>  (56) 
-8.9000000000000004

>  <m_primary>  (56) 
energy

>  <meeko>  (56) 
{"free_energy": -8.9, "intermolecular_energy": -10.69, "internal_energy": -1.62, "cluster_size": 12, "cluster_id": 1, "rank_in_cluster": 2}

>  <energy>  (56) 
-8.55

>  <cluster_rmsd>  (56) 
0.56

>  <rmsd>  (56) 
270.92

>  <cluster>  (56) 
2

$$$$
BLHILRPTNSSYME-OCGWMCMZNA-N
     RDKit          3D

 57 61  0  0  0  0  0  0  0  0999 V2000
  140.7520   69.4780  220.8870 H   0  0  0  0  0  0  0  0  0  0  0  0
  141.2190   70.3270  220.5010 N   0  0  0  0  0  0  0  0  0  0  0  0
  140.9950   71.5500  220.8890 C   0  0  0  0  0  0  0  0  0  0  0  0
  140.0640   71.8160  221.9260 C   0  0  0  0  0  0  0  0  0  0  0  0
  139.4190   70.7470  222.7200 C   0  0  0  0  0  0  0  0  0  0  0  0
  139.6550   69.5410  222.4400 O   0  0  0  0  0  0  0  0  0  0  0  0
  138.4830   71.0790  223.7570 N   0  0  0  0  0  0  0  0  0  0  0  0
  138.1800   72.0760  223.8400 H   0  0  0  0  0  0  0  0  0  0  0  0
  137.9290   70.0700  224.6680 C   0  0  2  0  0  0  0  0  0  0  0  0
  137.1859   70.5585  225.3154 H   0  0  0  0  0  0  0  0  0  0  0  0
  139.0170   69.4890  225.5520 C   0  0  0  0  0  0  0  0  0  0  0  0
  140.0130   70.3160  226.1080 C   0  0  0  0  0  0  0  0  0  0  0  0
  140.0004   71.3977  225.9083 H   0  0  0  0  0  0  0  0  0  0  0  0
  141.0170   69.7690  226.9120 C   0  0  0  0  0  0  0  0  0  0  0  0
  141.7885   70.4217  227.3465 H   0  0  0  0  0  0  0  0  0  0  0  0
  141.0430   68.3960  227.1650 C   0  0  0  0  0  0  0  0  0  0  0  0
  141.8354   67.9684  227.7968 H   0  0  0  0  0  0  0  0  0  0  0  0
  140.0630   67.5650  226.6160 C   0  0  0  0  0  0  0  0  0  0  0  0
  140.0847   66.4836  226.8160 H   0  0  0  0  0  0  0  0  0  0  0  0
  139.0540   68.1070  225.8120 C   0  0  0  0  0  0  0  0  0  0  0  0
  138.2854   67.4486  225.3809 H   0  0  0  0  0  0  0  0  0  0  0  0
  137.2290   68.9610  223.8750 C   0  0  0  0  0  0  0  0  0  0  0  0
  136.7751   68.2419  224.5727 H   0  0  0  0  0  0  0  0  0  0  0  0
  136.4452   69.4020  223.2415 H   0  0  0  0  0  0  0  0  0  0  0  0
  137.9642   68.4432  223.2415 H   0  0  0  0  0  0  0  0  0  0  0  0
  139.7620   73.1410  222.2450 C   0  0  0  0  0  0  0  0  0  0  0  0
  139.0127   73.3585  223.0204 H   0  0  0  0  0  0  0  0  0  0  0  0
  140.4040   74.1930  221.5870 C   0  0  0  0  0  0  0  0  0  0  0  0
  140.1450   75.5410  221.9030 C   0  0  0  0  0  0  0  0  0  0  0  0
  139.2920   75.8190  222.7940 O   0  0  0  0  0  0  0  0  0  0  0  0
  140.8180   76.5450  221.2500 N   0  0  0  0  0  0  0  0  0  0  0  0
  140.5780   77.8630  221.5520 C   0  0  0  0  0  0  0  0  0  0  0  0
  139.8370   78.1174  222.3242 H   0  0  0  0  0  0  0  0  0  0  0  0
  141.2640   78.8850  220.8900 C   0  0  0  0  0  0  0  0  0  0  0  0
  140.9490   80.5640  221.2880 Cl  0  0  0  0  0  0  0  0  0  0  0  0
  142.2010   78.5610  219.9120 C   0  0  0  0  0  0  0  0  0  0  0  0
  142.7467   79.3572  219.3844 H   0  0  0  0  0  0  0  0  0  0  0  0
  142.4440   77.2250  219.6050 C   0  0  0  0  0  0  0  0  0  0  0  0
  143.1830   76.9599  218.8345 H   0  0  0  0  0  0  0  0  0  0  0  0
  141.7430   76.2220  220.2820 C   0  0  0  0  0  0  0  0  0  0  0  0
  141.9900   74.9260  219.9750 N   0  0  0  0  0  0  0  0  0  0  0  0
  141.3540   73.8990  220.5940 C   0  0  0  0  0  0  0  0  0  0  0  0
  141.6360   72.5950  220.2540 N   0  0  0  0  0  0  0  0  0  0  0  0
  142.6680   72.3320  219.2220 C   0  0  0  0  0  0  0  0  0  0  0  0
  142.6513   71.2647  218.9564 H   0  0  0  0  0  0  0  0  0  0  0  0
  142.4505   72.9455  218.3353 H   0  0  0  0  0  0  0  0  0  0  0  0
  144.0360   72.6930  219.7430 C   0  0  0  0  0  0  0  0  0  0  0  0
  145.0700   73.0390  218.8560 C   0  0  0  0  0  0  0  0  0  0  0  0
  144.8880   73.0273  217.7712 H   0  0  0  0  0  0  0  0  0  0  0  0
  146.3290   73.3980  219.3470 C   0  0  0  0  0  0  0  0  0  0  0  0
  147.1341   73.6690  218.6482 H   0  0  0  0  0  0  0  0  0  0  0  0
  146.5660   73.4130  220.7240 C   0  0  0  0  0  0  0  0  0  0  0  0
  147.5568   73.6961  221.1089 H   0  0  0  0  0  0  0  0  0  0  0  0
  145.5430   73.0680  221.6120 C   0  0  0  0  0  0  0  0  0  0  0  0
  145.7303   73.0791  222.6959 H   0  0  0  0  0  0  0  0  0  0  0  0
  144.2830   72.7090  221.1260 C   0  0  0  0  0  0  0  0  0  0  0  0
  143.4815   72.4379  221.8289 H   0  0  0  0  0  0  0  0  0  0  0  0
  1  2  1  0
  2  3  2  0
  3  4  1  0
  4  5  1  0
  5  6  2  0
  5  7  1  0
  7  8  1  0
  7  9  1  0
  9 10  1  1
  9 11  1  0
 11 12  2  0
 12 13  1  0
 12 14  1  0
 14 15  1  0
 14 16  2  0
 16 17  1  0
 16 18  1  0
 18 19  1  0
 18 20  2  0
 20 21  1  0
  9 22  1  0
 22 23  1  0
 22 24  1  0
 22 25  1  0
  4 26  2  0
 26 27  1  0
 26 28  1  0
 28 29  1  0
 29 30  2  0
 29 31  1  0
 31 32  1  0
 32 33  1  0
 32 34  2  0
 34 35  1  0
 34 36  1  0
 36 37  1  0
 36 38  2  0
 38 39  1  0
 38 40  1  0
 40 41  2  0
 41 42  1  0
 42 43  1  0
 43 44  1  0
 44 45  1  0
 44 46  1  0
 44 47  1  0
 47 48  2  0
 48 49  1  0
 48 50  1  0
 50 51  1  0
 50 52  2  0
 52 53  1  0
 52 54  1  0
 54 55  1  0
 54 56  2  0
 56 57  1  0
 43  3  1  0
 56 47  1  0
 20 11  1  0
 42 28  2  0
 40 31  1  0
M  END
>  <UniqueID>  (57) 
102

>  <SMILES>  (57) 
[H]/N=c1\c(C(=O)N[C@@H](C)c2ccccc2)cc2c(=O)n3cc(Cl)ccc3nc2n1Cc1ccccc1

>  <Energy>  (57) 
82.31487178615336

>  <Genealogy>  (57) 
[H]/N=c1\c(C(=O)N[C@@H](C)c2ccccc2)cc2c(=O)n3cc(Cl)ccc3nc2n1Cc1ccccc1 (cis-trans isomerization)
[H]/N=c1\c(C(=O)N[C@@H](C)c2ccccc2)cc2c(=O)n3cc(Cl)ccc3nc2n1Cc1ccccc1 (3D coordinates assigned)
[H]/N=c1\c(C(=O)N[C@@H](C)c2ccccc2)cc2c(=O)n3cc(Cl)ccc3nc2n1Cc1ccccc1 (optimized conformer: 82.31487178615336 kcal/mol)

>  <smiles>  (57) 
C[C@H](NC(=O)c1cc2c(=O)n3cc(Cl)ccc3nc2n(Cc2ccccc2)c1=N)c1ccccc1

>  <score_type>  (57) 
oracle

>  <origin>  (57) 
autodockgpu

>  <m_score__min__energy>  (57) 
-8.9000000000000004

>  <m_primary>  (57) 
energy

>  <meeko>  (57) 
{"free_energy": -8.52, "intermolecular_energy": -10.31, "internal_energy": -1.79, "cluster_size": 12, "cluster_id": 1, "rank_in_cluster": 12}

>  <energy>  (57) 
-8.55

>  <cluster_rmsd>  (57) 
0.57

>  <rmsd>  (57) 
270.9

>  <cluster>  (57) 
2

$$$$
BLHILRPTNSSYME-OCGWMCMZNA-N
     RDKit          3D

 57 61  0  0  0  0  0  0  0  0999 V2000
  135.2680   78.2890  222.9510 H   0  0  0  0  0  0  0  0  0  0  0  0
  136.2690   78.4810  222.7360 N   0  0  0  0  0  0  0  0  0  0  0  0
  137.1560   77.5800  222.4210 C   0  0  0  0  0  0  0  0  0  0  0  0
  136.9370   76.2140  222.7350 C   0  0  0  0  0  0  0  0  0  0  0  0
  135.6580   75.7120  223.2840 C   0  0  0  0  0  0  0  0  0  0  0  0
  134.5840   76.3050  222.9920 O   0  0  0  0  0  0  0  0  0  0  0  0
  135.6460   74.6010  224.1940 N   0  0  0  0  0  0  0  0  0  0  0  0
  136.5640   74.2520  224.5500 H   0  0  0  0  0  0  0  0  0  0  0  0
  134.3990   73.9740  224.6510 C   0  0  2  0  0  0  0  0  0  0  0  0
  133.7165   73.8929  223.7922 H   0  0  0  0  0  0  0  0  0  0  0  0
  133.7260   74.8260  225.7100 C   0  0  0  0  0  0  0  0  0  0  0  0
  132.5930   74.3550  226.4020 C   0  0  0  0  0  0  0  0  0  0  0  0
  132.1940   73.3540  226.1811 H   0  0  0  0  0  0  0  0  0  0  0  0
  131.9730   75.1530  227.3680 C   0  0  0  0  0  0  0  0  0  0  0  0
  131.0900   74.7773  227.9057 H   0  0  0  0  0  0  0  0  0  0  0  0
  132.4720   76.4260  227.6520 C   0  0  0  0  0  0  0  0  0  0  0  0
  131.9823   77.0516  228.4128 H   0  0  0  0  0  0  0  0  0  0  0  0
  133.5930   76.9050  226.9700 C   0  0  0  0  0  0  0  0  0  0  0  0
  133.9848   77.9083  227.1934 H   0  0  0  0  0  0  0  0  0  0  0  0
  134.2180   76.1100  226.0030 C   0  0  0  0  0  0  0  0  0  0  0  0
  135.1002   76.4922  225.4685 H   0  0  0  0  0  0  0  0  0  0  0  0
  134.6760   72.5650  225.1880 C   0  0  0  0  0  0  0  0  0  0  0  0
  134.6722   72.5845  226.2878 H   0  0  0  0  0  0  0  0  0  0  0  0
  133.8960   71.8765  224.8307 H   0  0  0  0  0  0  0  0  0  0  0  0
  135.6586   72.2230  224.8307 H   0  0  0  0  0  0  0  0  0  0  0  0
  137.9500   75.2880  222.4860 C   0  0  0  0  0  0  0  0  0  0  0  0
  137.8050   74.2331  222.7619 H   0  0  0  0  0  0  0  0  0  0  0  0
  139.1470   75.6900  221.8890 C   0  0  0  0  0  0  0  0  0  0  0  0
  140.1800   74.7770  221.5970 C   0  0  0  0  0  0  0  0  0  0  0  0
  140.0370   73.5570  221.8990 O   0  0  0  0  0  0  0  0  0  0  0  0
  141.3310   75.2100  220.9860 N   0  0  0  0  0  0  0  0  0  0  0  0
  142.3440   74.3290  220.6910 C   0  0  0  0  0  0  0  0  0  0  0  0
  142.2325   73.2657  220.9498 H   0  0  0  0  0  0  0  0  0  0  0  0
  143.5140   74.7690  220.0660 C   0  0  0  0  0  0  0  0  0  0  0  0
  144.7980   73.6320  219.6940 Cl  0  0  0  0  0  0  0  0  0  0  0  0
  143.6550   76.1150  219.7390 C   0  0  0  0  0  0  0  0  0  0  0  0
  144.5720   76.4715  219.2471 H   0  0  0  0  0  0  0  0  0  0  0  0
  142.6290   77.0070  220.0380 C   0  0  0  0  0  0  0  0  0  0  0  0
  142.7306   78.0722  219.7830 H   0  0  0  0  0  0  0  0  0  0  0  0
  141.4690   76.5420  220.6640 C   0  0  0  0  0  0  0  0  0  0  0  0
  140.4770   77.4210  220.9480 N   0  0  0  0  0  0  0  0  0  0  0  0
  139.3200   77.0420  221.5490 C   0  0  0  0  0  0  0  0  0  0  0  0
  138.3370   77.9670  221.8170 N   0  0  0  0  0  0  0  0  0  0  0  0
  138.5500   79.3770  221.4130 C   0  0  0  0  0  0  0  0  0  0  0  0
  138.6074   79.4350  220.3160 H   0  0  0  0  0  0  0  0  0  0  0  0
  137.7095   79.9842  221.7802 H   0  0  0  0  0  0  0  0  0  0  0  0
  139.8310   79.9060  222.0060 C   0  0  0  0  0  0  0  0  0  0  0  0
  140.2300   79.5260  223.2990 C   0  0  0  0  0  0  0  0  0  0  0  0
  139.5936   78.8539  223.8933 H   0  0  0  0  0  0  0  0  0  0  0  0
  141.4330   79.9990  223.8330 C   0  0  0  0  0  0  0  0  0  0  0  0
  141.7409   79.6973  224.8450 H   0  0  0  0  0  0  0  0  0  0  0  0
  142.2440   80.8540  223.0830 C   0  0  0  0  0  0  0  0  0  0  0  0
  143.1895   81.2257  223.5047 H   0  0  0  0  0  0  0  0  0  0  0  0
  141.8540   81.2370  221.7970 C   0  0  0  0  0  0  0  0  0  0  0  0
  142.4932   81.9103  221.2071 H   0  0  0  0  0  0  0  0  0  0  0  0
  140.6530   80.7660  221.2590 C   0  0  0  0  0  0  0  0  0  0  0  0
  140.3502   81.0701  220.2462 H   0  0  0  0  0  0  0  0  0  0  0  0
  1  2  1  0
  2  3  2  0
  3  4  1  0
  4  5  1  0
  5  6  2  0
  5  7  1  0
  7  8  1  0
  7  9  1  0
  9 10  1  6
  9 11  1  0
 11 12  2  0
 12 13  1  0
 12 14  1  0
 14 15  1  0
 14 16  2  0
 16 17  1  0
 16 18  1  0
 18 19  1  0
 18 20  2  0
 20 21  1  0
  9 22  1  0
 22 23  1  0
 22 24  1  0
 22 25  1  0
  4 26  2  0
 26 27  1  0
 26 28  1  0
 28 29  1  0
 29 30  2  0
 29 31  1  0
 31 32  1  0
 32 33  1  0
 32 34  2  0
 34 35  1  0
 34 36  1  0
 36 37  1  0
 36 38  2  0
 38 39  1  0
 38 40  1  0
 40 41  2  0
 41 42  1  0
 42 43  1  0
 43 44  1  0
 44 45  1  0
 44 46  1  0
 44 47  1  0
 47 48  2  0
 48 49  1  0
 48 50  1  0
 50 51  1  0
 50 52  2  0
 52 53  1  0
 52 54  1  0
 54 55  1  0
 54 56  2  0
 56 57  1  0
 43  3  1  0
 56 47  1  0
 20 11  1  0
 42 28  2  0
 40 31  1  0
M  END
>  <UniqueID>  (58) 
102

>  <SMILES>  (58) 
[H]/N=c1\c(C(=O)N[C@@H](C)c2ccccc2)cc2c(=O)n3cc(Cl)ccc3nc2n1Cc1ccccc1

>  <Energy>  (58) 
82.31487178615336

>  <Genealogy>  (58) 
[H]/N=c1\c(C(=O)N[C@@H](C)c2ccccc2)cc2c(=O)n3cc(Cl)ccc3nc2n1Cc1ccccc1 (cis-trans isomerization)
[H]/N=c1\c(C(=O)N[C@@H](C)c2ccccc2)cc2c(=O)n3cc(Cl)ccc3nc2n1Cc1ccccc1 (3D coordinates assigned)
[H]/N=c1\c(C(=O)N[C@@H](C)c2ccccc2)cc2c(=O)n3cc(Cl)ccc3nc2n1Cc1ccccc1 (optimized conformer: 82.31487178615336 kcal/mol)

>  <smiles>  (58) 
C[C@H](NC(=O)c1cc2c(=O)n3cc(Cl)ccc3nc2n(Cc2ccccc2)c1=N)c1ccccc1

>  <score_type>  (58) 
oracle

>  <origin>  (58) 
autodockgpu

>  <m_score__min__energy>  (58) 
-8.9000000000000004

>  <m_primary>  (58) 
energy

>  <meeko>  (58) 
{"free_energy": -8.55, "intermolecular_energy": -10.34, "internal_energy": -1.68, "cluster_size": 8, "cluster_id": 2, "rank_in_cluster": 3}

>  <energy>  (58) 
-8.53

>  <cluster_rmsd>  (58) 
0.4

>  <rmsd>  (58) 
270.91

>  <cluster>  (58) 
2

$$$$
BLHILRPTNSSYME-OCGWMCMZNA-N
     RDKit          3D

 57 61  0  0  0  0  0  0  0  0999 V2000
  136.4930   79.1100  222.7060 H   0  0  0  0  0  0  0  0  0  0  0  0
  137.5180   79.0450  222.5300 N   0  0  0  0  0  0  0  0  0  0  0  0
  138.1690   77.9450  222.2780 C   0  0  0  0  0  0  0  0  0  0  0  0
  137.6620   76.6940  222.7130 C   0  0  0  0  0  0  0  0  0  0  0  0
  136.3250   76.5390  223.3270 C   0  0  0  0  0  0  0  0  0  0  0  0
  135.5700   77.5440  223.4270 O   0  0  0  0  0  0  0  0  0  0  0  0
  135.9160   75.2710  223.8630 N   0  0  0  0  0  0  0  0  0  0  0  0
  136.6320   74.5130  223.9230 H   0  0  0  0  0  0  0  0  0  0  0  0
  134.5520   75.0260  224.3480 C   0  0  2  0  0  0  0  0  0  0  0  0
  134.3195   75.7736  225.1206 H   0  0  0  0  0  0  0  0  0  0  0  0
  134.4440   73.6500  224.9760 C   0  0  0  0  0  0  0  0  0  0  0  0
  135.0580   72.5330  224.3760 C   0  0  0  0  0  0  0  0  0  0  0  0
  135.6313   72.6584  223.4456 H   0  0  0  0  0  0  0  0  0  0  0  0
  134.9430   71.2660  224.9560 C   0  0  0  0  0  0  0  0  0  0  0  0
  135.4282   70.3994  224.4831 H   0  0  0  0  0  0  0  0  0  0  0  0
  134.2130   71.0990  226.1350 C   0  0  0  0  0  0  0  0  0  0  0  0
  134.1239   70.1013  226.5897 H   0  0  0  0  0  0  0  0  0  0  0  0
  133.5960   72.1980  226.7370 C   0  0  0  0  0  0  0  0  0  0  0  0
  133.0203   72.0645  227.6648 H   0  0  0  0  0  0  0  0  0  0  0  0
  133.7090   73.4680  226.1620 C   0  0  0  0  0  0  0  0  0  0  0  0
  133.2203   74.3298  226.6399 H   0  0  0  0  0  0  0  0  0  0  0  0
  133.5430   75.1790  223.2050 C   0  0  0  0  0  0  0  0  0  0  0  0
  132.5367   75.3316  223.6222 H   0  0  0  0  0  0  0  0  0  0  0  0
  133.8186   76.0456  222.5861 H   0  0  0  0  0  0  0  0  0  0  0  0
  133.5493   74.2696  222.5861 H   0  0  0  0  0  0  0  0  0  0  0  0
  138.4330   75.5450  222.5270 C   0  0  0  0  0  0  0  0  0  0  0  0
  138.0667   74.5757  222.8961 H   0  0  0  0  0  0  0  0  0  0  0  0
  139.6670   75.6180  221.8750 C   0  0  0  0  0  0  0  0  0  0  0  0
  140.4580   74.4750  221.6440 C   0  0  0  0  0  0  0  0  0  0  0  0
  140.0580   73.3480  222.0530 O   0  0  0  0  0  0  0  0  0  0  0  0
  141.6530   74.5870  220.9770 N   0  0  0  0  0  0  0  0  0  0  0  0
  142.4320   73.4800  220.7410 C   0  0  0  0  0  0  0  0  0  0  0  0
  142.0954   72.4937  221.0930 H   0  0  0  0  0  0  0  0  0  0  0  0
  143.6470   73.5920  220.0590 C   0  0  0  0  0  0  0  0  0  0  0  0
  144.6300   72.1700  219.7630 Cl  0  0  0  0  0  0  0  0  0  0  0  0
  144.0720   74.8420  219.6150 C   0  0  0  0  0  0  0  0  0  0  0  0
  145.0267   74.9422  219.0779 H   0  0  0  0  0  0  0  0  0  0  0  0
  143.2830   75.9640  219.8540 C   0  0  0  0  0  0  0  0  0  0  0  0
  143.6102   76.9548  219.5057 H   0  0  0  0  0  0  0  0  0  0  0  0
  142.0730   75.8240  220.5390 C   0  0  0  0  0  0  0  0  0  0  0  0
  141.3130   76.9240  220.7640 N   0  0  0  0  0  0  0  0  0  0  0  0
  140.1240   76.8650  221.4160 C   0  0  0  0  0  0  0  0  0  0  0  0
  139.3830   78.0060  221.6220 N   0  0  0  0  0  0  0  0  0  0  0  0
  139.8910   79.2950  221.0930 C   0  0  0  0  0  0  0  0  0  0  0  0
  140.3468   79.1273  220.1060 H   0  0  0  0  0  0  0  0  0  0  0  0
  139.0518   80.0009  221.0068 H   0  0  0  0  0  0  0  0  0  0  0  0
  140.9240   79.8750  222.0250 C   0  0  0  0  0  0  0  0  0  0  0  0
  140.5560   80.8160  223.0020 C   0  0  0  0  0  0  0  0  0  0  0  0
  139.5101   81.1487  223.0755 H   0  0  0  0  0  0  0  0  0  0  0  0
  141.5140   81.3310  223.8810 C   0  0  0  0  0  0  0  0  0  0  0  0
  141.2202   82.0668  224.6441 H   0  0  0  0  0  0  0  0  0  0  0  0
  142.8440   80.9120  223.7910 C   0  0  0  0  0  0  0  0  0  0  0  0
  143.5966   81.3177  224.4831 H   0  0  0  0  0  0  0  0  0  0  0  0
  143.2180   79.9770  222.8210 C   0  0  0  0  0  0  0  0  0  0  0  0
  144.2652   79.6478  222.7503 H   0  0  0  0  0  0  0  0  0  0  0  0
  142.2630   79.4600  221.9410 C   0  0  0  0  0  0  0  0  0  0  0  0
  142.5616   78.7248  221.1792 H   0  0  0  0  0  0  0  0  0  0  0  0
  1  2  1  0
  2  3  2  0
  3  4  1  0
  4  5  1  0
  5  6  2  0
  5  7  1  0
  7  8  1  0
  7  9  1  0
  9 10  1  1
  9 11  1  0
 11 12  2  0
 12 13  1  0
 12 14  1  0
 14 15  1  0
 14 16  2  0
 16 17  1  0
 16 18  1  0
 18 19  1  0
 18 20  2  0
 20 21  1  0
  9 22  1  0
 22 23  1  0
 22 24  1  0
 22 25  1  0
  4 26  2  0
 26 27  1  0
 26 28  1  0
 28 29  1  0
 29 30  2  0
 29 31  1  0
 31 32  1  0
 32 33  1  0
 32 34  2  0
 34 35  1  0
 34 36  1  0
 36 37  1  0
 36 38  2  0
 38 39  1  0
 38 40  1  0
 40 41  2  0
 41 42  1  0
 42 43  1  0
 43 44  1  0
 44 45  1  0
 44 46  1  0
 44 47  1  0
 47 48  2  0
 48 49  1  0
 48 50  1  0
 50 51  1  0
 50 52  2  0
 52 53  1  0
 52 54  1  0
 54 55  1  0
 54 56  2  0
 56 57  1  0
 43  3  1  0
 56 47  1  0
 20 11  1  0
 42 28  2  0
 40 31  1  0
M  END
>  <UniqueID>  (59) 
102

>  <SMILES>  (59) 
[H]/N=c1\c(C(=O)N[C@@H](C)c2ccccc2)cc2c(=O)n3cc(Cl)ccc3nc2n1Cc1ccccc1

>  <Energy>  (59) 
82.31487178615336

>  <Genealogy>  (59) 
[H]/N=c1\c(C(=O)N[C@@H](C)c2ccccc2)cc2c(=O)n3cc(Cl)ccc3nc2n1Cc1ccccc1 (cis-trans isomerization)
[H]/N=c1\c(C(=O)N[C@@H](C)c2ccccc2)cc2c(=O)n3cc(Cl)ccc3nc2n1Cc1ccccc1 (3D coordinates assigned)
[H]/N=c1\c(C(=O)N[C@@H](C)c2ccccc2)cc2c(=O)n3cc(Cl)ccc3nc2n1Cc1ccccc1 (optimized conformer: 82.31487178615336 kcal/mol)

>  <smiles>  (59) 
C[C@H](NC(=O)c1cc2c(=O)n3cc(Cl)ccc3nc2n(Cc2ccccc2)c1=N)c1ccccc1

>  <score_type>  (59) 
oracle

>  <origin>  (59) 
autodockgpu

>  <m_score__min__energy>  (59) 
-8.9000000000000004

>  <m_primary>  (59) 
energy

>  <meeko>  (59) 
{"free_energy": -8.48, "intermolecular_energy": -10.27, "internal_energy": -1.58, "cluster_size": 8, "cluster_id": 2, "rank_in_cluster": 8}

>  <energy>  (59) 
-8.52

>  <cluster_rmsd>  (59) 
0.67

>  <rmsd>  (59) 
270.91

>  <cluster>  (59) 
2

$$$$
BLHILRPTNSSYME-OCGWMCMZNA-N
     RDKit          3D

 57 61  0  0  0  0  0  0  0  0999 V2000
  140.6880   70.2750  220.3720 H   0  0  0  0  0  0  0  0  0  0  0  0
  141.1720   71.1750  220.1650 N   0  0  0  0  0  0  0  0  0  0  0  0
  140.8690   72.3290  220.6890 C   0  0  0  0  0  0  0  0  0  0  0  0
  139.9530   72.4100  221.7680 C   0  0  0  0  0  0  0  0  0  0  0  0
  139.4130   71.2160  222.4550 C   0  0  0  0  0  0  0  0  0  0  0  0
  139.7550   70.0680  222.0610 O   0  0  0  0  0  0  0  0  0  0  0  0
  138.4580   71.3610  223.5180 N   0  0  0  0  0  0  0  0  0  0  0  0
  138.0660   72.3130  223.6950 H   0  0  0  0  0  0  0  0  0  0  0  0
  138.0050   70.2220  224.3270 C   0  0  2  0  0  0  0  0  0  0  0  0
  137.1385   70.5438  224.9234 H   0  0  0  0  0  0  0  0  0  0  0  0
  139.0940   69.7740  225.2820 C   0  0  0  0  0  0  0  0  0  0  0  0
  139.1810   68.4310  225.6990 C   0  0  0  0  0  0  0  0  0  0  0  0
  138.4567   67.6934  225.3231 H   0  0  0  0  0  0  0  0  0  0  0  0
  140.1830   68.0310  226.5880 C   0  0  0  0  0  0  0  0  0  0  0  0
  140.2466   66.9799  226.9061 H   0  0  0  0  0  0  0  0  0  0  0  0
  141.1030   68.9620  227.0730 C   0  0  0  0  0  0  0  0  0  0  0  0
  141.8898   68.6441  227.7729 H   0  0  0  0  0  0  0  0  0  0  0  0
  141.0250   70.2970  226.6700 C   0  0  0  0  0  0  0  0  0  0  0  0
  141.7499   71.0300  227.0537 H   0  0  0  0  0  0  0  0  0  0  0  0
  140.0260   70.7030  225.7790 C   0  0  0  0  0  0  0  0  0  0  0  0
  139.9689   71.7557  225.4649 H   0  0  0  0  0  0  0  0  0  0  0  0
  137.5690   69.0640  223.4230 C   0  0  0  0  0  0  0  0  0  0  0  0
  137.2491   68.2144  224.0441 H   0  0  0  0  0  0  0  0  0  0  0  0
  136.7319   69.3897  222.7880 H   0  0  0  0  0  0  0  0  0  0  0  0
  138.4130   68.7567  222.7880 H   0  0  0  0  0  0  0  0  0  0  0  0
  139.5630   73.6660  222.2360 C   0  0  0  0  0  0  0  0  0  0  0  0
  138.8231   73.7409  223.0465 H   0  0  0  0  0  0  0  0  0  0  0  0
  140.1050   74.8280  221.6830 C   0  0  0  0  0  0  0  0  0  0  0  0
  139.7570   76.1110  222.1500 C   0  0  0  0  0  0  0  0  0  0  0  0
  138.9130   76.2260  223.0840 O   0  0  0  0  0  0  0  0  0  0  0  0
  140.3330   77.2270  221.5950 N   0  0  0  0  0  0  0  0  0  0  0  0
  140.0060   78.4840  222.0450 C   0  0  0  0  0  0  0  0  0  0  0  0
  139.2727   78.5969  222.8572 H   0  0  0  0  0  0  0  0  0  0  0  0
  140.5940   79.6200  221.4830 C   0  0  0  0  0  0  0  0  0  0  0  0
  140.1680   81.2180  222.0690 Cl  0  0  0  0  0  0  0  0  0  0  0  0
  141.5230   79.4760  220.4550 C   0  0  0  0  0  0  0  0  0  0  0  0
  141.9926   80.3636  220.0059 H   0  0  0  0  0  0  0  0  0  0  0  0
  141.8540   78.2030  219.9990 C   0  0  0  0  0  0  0  0  0  0  0  0
  142.5861   78.0793  219.1874 H   0  0  0  0  0  0  0  0  0  0  0  0
  141.2510   77.0830  220.5780 C   0  0  0  0  0  0  0  0  0  0  0  0
  141.5830   75.8490  220.1260 N   0  0  0  0  0  0  0  0  0  0  0  0
  141.0440   74.7160  220.6440 C   0  0  0  0  0  0  0  0  0  0  0  0
  141.4120   73.4820  220.1570 N   0  0  0  0  0  0  0  0  0  0  0  0
  142.4280   73.4110  219.0800 C   0  0  0  0  0  0  0  0  0  0  0  0
  142.2714   72.4935  218.4937 H   0  0  0  0  0  0  0  0  0  0  0  0
  142.3250   74.2948  218.4332 H   0  0  0  0  0  0  0  0  0  0  0  0
  143.8160   73.3940  219.6680 C   0  0  0  0  0  0  0  0  0  0  0  0
  144.6280   72.2520  219.5520 C   0  0  0  0  0  0  0  0  0  0  0  0
  144.2415   71.3548  219.0464 H   0  0  0  0  0  0  0  0  0  0  0  0
  145.9240   72.2510  220.0760 C   0  0  0  0  0  0  0  0  0  0  0  0
  146.5546   71.3548  219.9804 H   0  0  0  0  0  0  0  0  0  0  0  0
  146.4190   73.3870  220.7210 C   0  0  0  0  0  0  0  0  0  0  0  0
  147.4390   73.3852  221.1328 H   0  0  0  0  0  0  0  0  0  0  0  0
  145.6180   74.5260  220.8430 C   0  0  0  0  0  0  0  0  0  0  0  0
  146.0080   75.4197  221.3521 H   0  0  0  0  0  0  0  0  0  0  0  0
  144.3220   74.5310  220.3190 C   0  0  0  0  0  0  0  0  0  0  0  0
  143.6955   75.4298  220.4170 H   0  0  0  0  0  0  0  0  0  0  0  0
  1  2  1  0
  2  3  2  0
  3  4  1  0
  4  5  1  0
  5  6  2  0
  5  7  1  0
  7  8  1  0
  7  9  1  0
  9 10  1  1
  9 11  1  0
 11 12  2  0
 12 13  1  0
 12 14  1  0
 14 15  1  0
 14 16  2  0
 16 17  1  0
 16 18  1  0
 18 19  1  0
 18 20  2  0
 20 21  1  0
  9 22  1  0
 22 23  1  0
 22 24  1  0
 22 25  1  0
  4 26  2  0
 26 27  1  0
 26 28  1  0
 28 29  1  0
 29 30  2  0
 29 31  1  0
 31 32  1  0
 32 33  1  0
 32 34  2  0
 34 35  1  0
 34 36  1  0
 36 37  1  0
 36 38  2  0
 38 39  1  0
 38 40  1  0
 40 41  2  0
 41 42  1  0
 42 43  1  0
 43 44  1  0
 44 45  1  0
 44 46  1  0
 44 47  1  0
 47 48  2  0
 48 49  1  0
 48 50  1  0
 50 51  1  0
 50 52  2  0
 52 53  1  0
 52 54  1  0
 54 55  1  0
 54 56  2  0
 56 57  1  0
 43  3  1  0
 56 47  1  0
 20 11  1  0
 42 28  2  0
 40 31  1  0
M  END
>  <UniqueID>  (60) 
102

>  <SMILES>  (60) 
[H]/N=c1\c(C(=O)N[C@@H](C)c2ccccc2)cc2c(=O)n3cc(Cl)ccc3nc2n1Cc1ccccc1

>  <Energy>  (60) 
82.31487178615336

>  <Genealogy>  (60) 
[H]/N=c1\c(C(=O)N[C@@H](C)c2ccccc2)cc2c(=O)n3cc(Cl)ccc3nc2n1Cc1ccccc1 (cis-trans isomerization)
[H]/N=c1\c(C(=O)N[C@@H](C)c2ccccc2)cc2c(=O)n3cc(Cl)ccc3nc2n1Cc1ccccc1 (3D coordinates assigned)
[H]/N=c1\c(C(=O)N[C@@H](C)c2ccccc2)cc2c(=O)n3cc(Cl)ccc3nc2n1Cc1ccccc1 (optimized conformer: 82.31487178615336 kcal/mol)

>  <smiles>  (60) 
C[C@H](NC(=O)c1cc2c(=O)n3cc(Cl)ccc3nc2n(Cc2ccccc2)c1=N)c1ccccc1

>  <score_type>  (60) 
oracle

>  <origin>  (60) 
autodockgpu

>  <m_score__min__energy>  (60) 
-8.9000000000000004

>  <m_primary>  (60) 
energy

>  <meeko>  (60) 
{"free_energy": -8.86, "intermolecular_energy": -10.65, "internal_energy": -1.64, "cluster_size": 12, "cluster_id": 1, "rank_in_cluster": 9}

>  <energy>  (60) 
-8.48

>  <cluster_rmsd>  (60) 
1.55

>  <rmsd>  (60) 
270.91

>  <cluster>  (60) 
2

$$$$
BLHILRPTNSSYME-JHJFBCDHNA-M
     RDKit          3D

 56 60  0  0  0  0  0  0  0  0999 V2000
  143.0950   75.2900  221.3400 H   0  0  0  0  0  0  0  0  0  0  0  0
  142.1970   75.3040  220.8070 N   0  0  0  0  0  0  0  0  0  0  0  0
  141.0340   75.5810  221.3240 C   0  0  0  0  0  0  0  0  0  0  0  0
  140.2270   74.5480  221.8580 C   0  0  0  0  0  0  0  0  0  0  0  0
  140.6540   73.1360  221.8730 C   0  0  0  0  0  0  0  0  0  0  0  0
  140.9520   72.5810  220.7840 O   0  0  0  0  0  0  0  0  0  0  0  0
  140.6950   72.3610  223.0800 N   0  0  0  0  0  0  0  0  0  0  0  0
  139.6480   71.4900  223.6280 C   0  0  2  0  0  0  0  0  0  0  0  0
  138.7136   72.0601  223.7375 H   0  0  0  0  0  0  0  0  0  0  0  0
  139.9740   71.0440  225.0480 C   0  0  0  0  0  0  0  0  0  0  0  0
  139.5070   69.8280  225.5990 C   0  0  0  0  0  0  0  0  0  0  0  0
  138.8635   69.1677  224.9991 H   0  0  0  0  0  0  0  0  0  0  0  0
  139.8580   69.4600  226.9010 C   0  0  0  0  0  0  0  0  0  0  0  0
  139.4938   68.5102  227.3196 H   0  0  0  0  0  0  0  0  0  0  0  0
  140.6690   70.2940  227.6710 C   0  0  0  0  0  0  0  0  0  0  0  0
  140.9439   70.0010  228.6950 H   0  0  0  0  0  0  0  0  0  0  0  0
  141.1320   71.5010  227.1420 C   0  0  0  0  0  0  0  0  0  0  0  0
  141.7692   72.1590  227.7511 H   0  0  0  0  0  0  0  0  0  0  0  0
  140.7870   71.8740  225.8400 C   0  0  0  0  0  0  0  0  0  0  0  0
  141.1552   72.8264  225.4308 H   0  0  0  0  0  0  0  0  0  0  0  0
  139.3210   70.3610  222.6430 C   0  0  0  0  0  0  0  0  0  0  0  0
  139.0575   69.4512  223.2024 H   0  0  0  0  0  0  0  0  0  0  0  0
  138.4728   70.6608  222.0101 H   0  0  0  0  0  0  0  0  0  0  0  0
  140.1982   70.1611  222.0101 H   0  0  0  0  0  0  0  0  0  0  0  0
  138.9560   74.8540  222.3420 C   0  0  0  0  0  0  0  0  0  0  0  0
  138.2981   74.0483  222.6997 H   0  0  0  0  0  0  0  0  0  0  0  0
  138.5140   76.1770  222.3750 C   0  0  0  0  0  0  0  0  0  0  0  0
  137.2550   76.5300  222.8990 C   0  0  0  0  0  0  0  0  0  0  0  0
  136.4890   75.6270  223.3410 O   0  0  0  0  0  0  0  0  0  0  0  0
  136.8670   77.8480  222.9340 N   0  0  0  0  0  0  0  0  0  0  0  0
  135.6460   78.2060  223.4490 C   0  0  0  0  0  0  0  0  0  0  0  0
  134.9716   77.4290  223.8382 H   0  0  0  0  0  0  0  0  0  0  0  0
  135.2490   79.5460  223.4850 C   0  0  0  0  0  0  0  0  0  0  0  0
  133.6860   79.9900  224.1470 Cl  0  0  0  0  0  0  0  0  0  0  0  0
  136.1030   80.5280  222.9900 C   0  0  0  0  0  0  0  0  0  0  0  0
  135.8009   81.5855  223.0121 H   0  0  0  0  0  0  0  0  0  0  0  0
  137.3410   80.1650  222.4670 C   0  0  0  0  0  0  0  0  0  0  0  0
  138.0215   80.9339  222.0724 H   0  0  0  0  0  0  0  0  0  0  0  0
  137.7150   78.8170  222.4460 C   0  0  0  0  0  0  0  0  0  0  0  0
  138.9240   78.4780  221.9370 N   0  0  0  0  0  0  0  0  0  0  0  0
  139.3550   77.1910  221.8850 C   0  0  0  0  0  0  0  0  0  0  0  0
  140.5910   76.8880  221.3570 N   0  0  0  0  0  0  0  0  0  0  0  0
  141.4200   77.9810  220.7980 C   0  0  0  0  0  0  0  0  0  0  0  0
  142.3695   77.5637  220.4315 H   0  0  0  0  0  0  0  0  0  0  0  0
  140.8704   78.4570  219.9725 H   0  0  0  0  0  0  0  0  0  0  0  0
  141.7090   79.0190  221.8530 C   0  0  0  0  0  0  0  0  0  0  0  0
  141.8450   78.6470  223.2010 C   0  0  0  0  0  0  0  0  0  0  0  0
  141.7591   77.5887  223.4883 H   0  0  0  0  0  0  0  0  0  0  0  0
  142.0890   79.6160  224.1790 C   0  0  0  0  0  0  0  0  0  0  0  0
  142.1945   79.3183  225.2327 H   0  0  0  0  0  0  0  0  0  0  0  0
  142.1990   80.9620  223.8200 C   0  0  0  0  0  0  0  0  0  0  0  0
  142.3912   81.7227  224.5910 H   0  0  0  0  0  0  0  0  0  0  0  0
  142.0650   81.3420  222.4820 C   0  0  0  0  0  0  0  0  0  0  0  0
  142.1514   82.4017  222.2000 H   0  0  0  0  0  0  0  0  0  0  0  0
  141.8210   80.3750  221.5010 C   0  0  0  0  0  0  0  0  0  0  0  0
  141.7162   80.6775  220.4486 H   0  0  0  0  0  0  0  0  0  0  0  0
  1  2  1  0
  2  3  2  0
  3  4  1  0
  4  5  1  0
  5  6  2  0
  5  7  1  0
  7  8  1  0
  8  9  1  1
  8 10  1  0
 10 11  2  0
 11 12  1  0
 11 13  1  0
 13 14  1  0
 13 15  2  0
 15 16  1  0
 15 17  1  0
 17 18  1  0
 17 19  2  0
 19 20  1  0
  8 21  1  0
 21 22  1  0
 21 23  1  0
 21 24  1  0
  4 25  2  0
 25 26  1  0
 25 27  1  0
 27 28  1  0
 28 29  2  0
 28 30  1  0
 30 31  1  0
 31 32  1  0
 31 33  2  0
 33 34  1  0
 33 35  1  0
 35 36  1  0
 35 37  2  0
 37 38  1  0
 37 39  1  0
 39 40  2  0
 40 41  1  0
 41 42  1  0
 42 43  1  0
 43 44  1  0
 43 45  1  0
 43 46  1  0
 46 47  2  0
 47 48  1  0
 47 49  1  0
 49 50  1  0
 49 51  2  0
 51 52  1  0
 51 53  1  0
 53 54  1  0
 53 55  2  0
 55 56  1  0
 42  3  1  0
 55 46  1  0
 19 10  1  0
 41 27  2  0
 39 30  1  0
M  CHG  1   7  -1
M  END
>  <UniqueID>  (61) 
103

>  <SMILES>  (61) 
[H]/N=c1\c(C(=O)[N-][C@@H](C)c2ccccc2)cc2c(=O)n3cc(Cl)ccc3nc2n1Cc1ccccc1

>  <Energy>  (61) 
83.12217000565826

>  <Genealogy>  (61) 
C[C@H]([N-]C(=O)c1cc2c(=O)n3cc(Cl)ccc3nc2n(Cc2ccccc2)c1=N)c1ccccc1 (protonated)
[H]/N=c1\c(C(=O)[N-][C@@H](C)c2ccccc2)cc2c(=O)n3cc(Cl)ccc3nc2n1Cc1ccccc1 (cis-trans isomerization)
[H]/N=c1\c(C(=O)[N-][C@@H](C)c2ccccc2)cc2c(=O)n3cc(Cl)ccc3nc2n1Cc1ccccc1 (3D coordinates assigned)
[H]/N=c1\c(C(=O)[N-][C@@H](C)c2ccccc2)cc2c(=O)n3cc(Cl)ccc3nc2n1Cc1ccccc1 (optimized conformer: 83.12217000565826 kcal/mol)

>  <smiles>  (61) 
C[C@H](NC(=O)c1cc2c(=O)n3cc(Cl)ccc3nc2n(Cc2ccccc2)c1=N)c1ccccc1

>  <score_type>  (61) 
oracle

>  <origin>  (61) 
autodockgpu

>  <m_score__min__energy>  (61) 
-8.75

>  <m_primary>  (61) 
energy

>  <meeko>  (61) 
{"free_energy": -8.75, "intermolecular_energy": -10.84, "internal_energy": -1.07, "cluster_size": 2, "cluster_id": 1, "rank_in_cluster": 1}

>  <energy>  (61) 
-8.75

>  <cluster_rmsd>  (61) 
0.0

>  <rmsd>  (61) 
270.84

>  <cluster>  (61) 
1

$$$$
BLHILRPTNSSYME-JHJFBCDHNA-M
     RDKit          3D

 56 60  0  0  0  0  0  0  0  0999 V2000
  140.6880   70.1650  220.2820 H   0  0  0  0  0  0  0  0  0  0  0  0
  141.1470   71.0800  220.0750 N   0  0  0  0  0  0  0  0  0  0  0  0
  140.8030   72.2170  220.6080 C   0  0  0  0  0  0  0  0  0  0  0  0
  139.8310   72.2570  221.6360 C   0  0  0  0  0  0  0  0  0  0  0  0
  139.1810   71.0410  222.1600 C   0  0  0  0  0  0  0  0  0  0  0  0
  139.1010   70.0280  221.4170 O   0  0  0  0  0  0  0  0  0  0  0  0
  138.5950   70.9880  223.4690 N   0  0  0  0  0  0  0  0  0  0  0  0
  138.7190   69.9220  224.4700 C   0  0  2  0  0  0  0  0  0  0  0  0
  137.7310   69.7062  224.9028 H   0  0  0  0  0  0  0  0  0  0  0  0
  139.5540   70.3660  225.6640 C   0  0  0  0  0  0  0  0  0  0  0  0
  139.5340   69.6980  226.9100 C   0  0  0  0  0  0  0  0  0  0  0  0
  138.8787   68.8259  227.0517 H   0  0  0  0  0  0  0  0  0  0  0  0
  140.3410   70.1380  227.9630 C   0  0  0  0  0  0  0  0  0  0  0  0
  140.3226   69.6079  228.9267 H   0  0  0  0  0  0  0  0  0  0  0  0
  141.1700   71.2480  227.7950 C   0  0  0  0  0  0  0  0  0  0  0  0
  141.8037   71.5920  228.6257 H   0  0  0  0  0  0  0  0  0  0  0  0
  141.1950   71.9220  226.5720 C   0  0  0  0  0  0  0  0  0  0  0  0
  141.8466   72.7986  226.4415 H   0  0  0  0  0  0  0  0  0  0  0  0
  140.3940   71.4850  225.5140 C   0  0  0  0  0  0  0  0  0  0  0  0
  140.4202   72.0212  224.5539 H   0  0  0  0  0  0  0  0  0  0  0  0
  139.1670   68.6140  223.8060 C   0  0  0  0  0  0  0  0  0  0  0  0
  139.4196   67.8766  224.5821 H   0  0  0  0  0  0  0  0  0  0  0  0
  138.3517   68.2226  223.1798 H   0  0  0  0  0  0  0  0  0  0  0  0
  140.0511   68.8047  223.1798 H   0  0  0  0  0  0  0  0  0  0  0  0
  139.4230   73.4890  222.1440 C   0  0  0  0  0  0  0  0  0  0  0  0
  138.6224   73.5324  222.8971 H   0  0  0  0  0  0  0  0  0  0  0  0
  140.0250   74.6680  221.7020 C   0  0  0  0  0  0  0  0  0  0  0  0
  139.6720   75.9270  222.2270 C   0  0  0  0  0  0  0  0  0  0  0  0
  138.7740   76.0030  223.1120 O   0  0  0  0  0  0  0  0  0  0  0  0
  140.3050   77.0620  221.7800 N   0  0  0  0  0  0  0  0  0  0  0  0
  139.9770   78.2950  222.2880 C   0  0  0  0  0  0  0  0  0  0  0  0
  139.1993   78.3743  223.0618 H   0  0  0  0  0  0  0  0  0  0  0  0
  140.6190   79.4500  221.8340 C   0  0  0  0  0  0  0  0  0  0  0  0
  140.1890   81.0180  222.4920 Cl  0  0  0  0  0  0  0  0  0  0  0  0
  141.6040   79.3490  220.8540 C   0  0  0  0  0  0  0  0  0  0  0  0
  142.1158   80.2517  220.4891 H   0  0  0  0  0  0  0  0  0  0  0  0
  141.9370   78.0990  220.3390 C   0  0  0  0  0  0  0  0  0  0  0  0
  142.7122   78.0089  219.5638 H   0  0  0  0  0  0  0  0  0  0  0  0
  141.2800   76.9580  220.8130 C   0  0  0  0  0  0  0  0  0  0  0  0
  141.6170   75.7480  220.3050 N   0  0  0  0  0  0  0  0  0  0  0  0
  141.0240   74.5970  220.7160 C   0  0  0  0  0  0  0  0  0  0  0  0
  141.3930   73.3860  220.1730 N   0  0  0  0  0  0  0  0  0  0  0  0
  142.4090   73.3640  219.0940 C   0  0  0  0  0  0  0  0  0  0  0  0
  142.2736   72.4559  218.4882 H   0  0  0  0  0  0  0  0  0  0  0  0
  142.2825   74.2602  218.4688 H   0  0  0  0  0  0  0  0  0  0  0  0
  143.8000   73.3690  219.6760 C   0  0  0  0  0  0  0  0  0  0  0  0
  144.2970   74.5110  220.3260 C   0  0  0  0  0  0  0  0  0  0  0  0
  143.6613   75.4028  220.4286 H   0  0  0  0  0  0  0  0  0  0  0  0
  145.5960   74.5190  220.8430 C   0  0  0  0  0  0  0  0  0  0  0  0
  145.9794   75.4164  221.3506 H   0  0  0  0  0  0  0  0  0  0  0  0
  146.4080   73.3890  220.7160 C   0  0  0  0  0  0  0  0  0  0  0  0
  147.4299   73.3976  221.1230 H   0  0  0  0  0  0  0  0  0  0  0  0
  145.9220   72.2480  220.0720 C   0  0  0  0  0  0  0  0  0  0  0  0
  146.5611   71.3581  219.9734 H   0  0  0  0  0  0  0  0  0  0  0  0
  144.6240   72.2370  219.5530 C   0  0  0  0  0  0  0  0  0  0  0  0
  144.2454   71.3375  219.0455 H   0  0  0  0  0  0  0  0  0  0  0  0
  1  2  1  0
  2  3  2  0
  3  4  1  0
  4  5  1  0
  5  6  2  0
  5  7  1  0
  7  8  1  0
  8  9  1  1
  8 10  1  0
 10 11  2  0
 11 12  1  0
 11 13  1  0
 13 14  1  0
 13 15  2  0
 15 16  1  0
 15 17  1  0
 17 18  1  0
 17 19  2  0
 19 20  1  0
  8 21  1  0
 21 22  1  0
 21 23  1  0
 21 24  1  0
  4 25  2  0
 25 26  1  0
 25 27  1  0
 27 28  1  0
 28 29  2  0
 28 30  1  0
 30 31  1  0
 31 32  1  0
 31 33  2  0
 33 34  1  0
 33 35  1  0
 35 36  1  0
 35 37  2  0
 37 38  1  0
 37 39  1  0
 39 40  2  0
 40 41  1  0
 41 42  1  0
 42 43  1  0
 43 44  1  0
 43 45  1  0
 43 46  1  0
 46 47  2  0
 47 48  1  0
 47 49  1  0
 49 50  1  0
 49 51  2  0
 51 52  1  0
 51 53  1  0
 53 54  1  0
 53 55  2  0
 55 56  1  0
 42  3  1  0
 55 46  1  0
 19 10  1  0
 41 27  2  0
 39 30  1  0
M  CHG  1   7  -1
M  END
>  <UniqueID>  (62) 
103

>  <SMILES>  (62) 
[H]/N=c1\c(C(=O)[N-][C@@H](C)c2ccccc2)cc2c(=O)n3cc(Cl)ccc3nc2n1Cc1ccccc1

>  <Energy>  (62) 
83.12217000565826

>  <Genealogy>  (62) 
C[C@H]([N-]C(=O)c1cc2c(=O)n3cc(Cl)ccc3nc2n(Cc2ccccc2)c1=N)c1ccccc1 (protonated)
[H]/N=c1\c(C(=O)[N-][C@@H](C)c2ccccc2)cc2c(=O)n3cc(Cl)ccc3nc2n1Cc1ccccc1 (cis-trans isomerization)
[H]/N=c1\c(C(=O)[N-][C@@H](C)c2ccccc2)cc2c(=O)n3cc(Cl)ccc3nc2n1Cc1ccccc1 (3D coordinates assigned)
[H]/N=c1\c(C(=O)[N-][C@@H](C)c2ccccc2)cc2c(=O)n3cc(Cl)ccc3nc2n1Cc1ccccc1 (optimized conformer: 83.12217000565826 kcal/mol)

>  <smiles>  (62) 
C[C@H](NC(=O)c1cc2c(=O)n3cc(Cl)ccc3nc2n(Cc2ccccc2)c1=N)c1ccccc1

>  <score_type>  (62) 
oracle

>  <origin>  (62) 
autodockgpu

>  <m_score__min__energy>  (62) 
-8.75

>  <m_primary>  (62) 
energy

>  <meeko>  (62) 
{"free_energy": -8.36, "intermolecular_energy": -10.45, "internal_energy": -1.71, "cluster_size": 3, "cluster_id": 3, "rank_in_cluster": 2}

>  <energy>  (62) 
-8.03

>  <cluster_rmsd>  (62) 
0.53

>  <rmsd>  (62) 
270.68

>  <cluster>  (62) 
1

$$$$
BLHILRPTNSSYME-JHJFBCDHNA-M
     RDKit          3D

 56 60  0  0  0  0  0  0  0  0999 V2000
  135.9720   68.6660  223.3930 H   0  0  0  0  0  0  0  0  0  0  0  0
  135.8750   69.7050  223.3700 N   0  0  0  0  0  0  0  0  0  0  0  0
  136.8430   70.5320  223.0930 C   0  0  0  0  0  0  0  0  0  0  0  0
  138.1890   70.1010  223.1580 C   0  0  0  0  0  0  0  0  0  0  0  0
  138.5630   68.7200  223.5180 C   0  0  0  0  0  0  0  0  0  0  0  0
  138.0270   67.7650  222.8980 O   0  0  0  0  0  0  0  0  0  0  0  0
  139.4810   68.4270  224.5810 N   0  0  0  0  0  0  0  0  0  0  0  0
  139.3000   68.6620  226.0190 C   0  0  2  0  0  0  0  0  0  0  0  0
  138.2413   68.8753  226.2277 H   0  0  0  0  0  0  0  0  0  0  0  0
  140.0250   69.9200  226.4790 C   0  0  0  0  0  0  0  0  0  0  0  0
  140.8150   70.7140  225.6150 C   0  0  0  0  0  0  0  0  0  0  0  0
  140.9405   70.4179  224.5631 H   0  0  0  0  0  0  0  0  0  0  0  0
  141.4370   71.8720  226.0890 C   0  0  0  0  0  0  0  0  0  0  0  0
  142.0450   72.4859  225.4082 H   0  0  0  0  0  0  0  0  0  0  0  0
  141.2890   72.2520  227.4240 C   0  0  0  0  0  0  0  0  0  0  0  0
  141.7803   73.1640  227.7940 H   0  0  0  0  0  0  0  0  0  0  0  0
  140.5170   71.4740  228.2900 C   0  0  0  0  0  0  0  0  0  0  0  0
  140.4032   71.7725  229.3426 H   0  0  0  0  0  0  0  0  0  0  0  0
  139.8890   70.3170  227.8210 C   0  0  0  0  0  0  0  0  0  0  0  0
  139.2818   69.7104  228.5090 H   0  0  0  0  0  0  0  0  0  0  0  0
  139.6240   67.3900  226.8130 C   0  0  0  0  0  0  0  0  0  0  0  0
  139.5689   67.6061  227.8902 H   0  0  0  0  0  0  0  0  0  0  0  0
  138.8973   66.6042  226.5591 H   0  0  0  0  0  0  0  0  0  0  0  0
  140.6380   67.0476  226.5591 H   0  0  0  0  0  0  0  0  0  0  0  0
  139.2130   71.0180  222.9290 C   0  0  0  0  0  0  0  0  0  0  0  0
  140.2620   70.7061  223.0402 H   0  0  0  0  0  0  0  0  0  0  0  0
  138.9140   72.3310  222.5590 C   0  0  0  0  0  0  0  0  0  0  0  0
  139.9220   73.2730  222.2740 C   0  0  0  0  0  0  0  0  0  0  0  0
  141.1350   72.9340  222.3680 O   0  0  0  0  0  0  0  0  0  0  0  0
  139.5840   74.5490  221.8910 N   0  0  0  0  0  0  0  0  0  0  0  0
  140.5560   75.4750  221.6030 C   0  0  0  0  0  0  0  0  0  0  0  0
  141.6162   75.1918  221.6791 H   0  0  0  0  0  0  0  0  0  0  0  0
  140.2140   76.7740  221.2140 C   0  0  0  0  0  0  0  0  0  0  0  0
  141.4660   77.9460  220.8480 Cl  0  0  0  0  0  0  0  0  0  0  0  0
  138.8720   77.1310  221.1200 C   0  0  0  0  0  0  0  0  0  0  0  0
  138.5917   78.1504  220.8161 H   0  0  0  0  0  0  0  0  0  0  0  0
  137.8860   76.1930  221.4120 C   0  0  0  0  0  0  0  0  0  0  0  0
  136.8231   76.4671  221.3406 H   0  0  0  0  0  0  0  0  0  0  0  0
  138.2550   74.8990  221.7970 C   0  0  0  0  0  0  0  0  0  0  0  0
  137.2850   73.9940  222.0750 N   0  0  0  0  0  0  0  0  0  0  0  0
  137.5680   72.7200  222.4520 C   0  0  0  0  0  0  0  0  0  0  0  0
  136.5530   71.8310  222.7300 N   0  0  0  0  0  0  0  0  0  0  0  0
  135.1490   72.3010  222.6620 C   0  0  0  0  0  0  0  0  0  0  0  0
  135.0123   72.9016  221.7506 H   0  0  0  0  0  0  0  0  0  0  0  0
  134.4822   71.4263  222.6442 H   0  0  0  0  0  0  0  0  0  0  0  0
  134.8140   73.1440  223.8660 C   0  0  0  0  0  0  0  0  0  0  0  0
  134.2490   72.5590  225.0110 C   0  0  0  0  0  0  0  0  0  0  0  0
  134.0666   71.4746  225.0380 H   0  0  0  0  0  0  0  0  0  0  0  0
  133.9170   73.3480  226.1170 C   0  0  0  0  0  0  0  0  0  0  0  0
  133.4746   72.8834  227.0105 H   0  0  0  0  0  0  0  0  0  0  0  0
  134.1470   74.7270  226.0880 C   0  0  0  0  0  0  0  0  0  0  0  0
  133.8863   75.3465  226.9588 H   0  0  0  0  0  0  0  0  0  0  0  0
  134.7080   75.3180  224.9530 C   0  0  0  0  0  0  0  0  0  0  0  0
  134.8880   76.4029  224.9305 H   0  0  0  0  0  0  0  0  0  0  0  0
  135.0410   74.5310  223.8450 C   0  0  0  0  0  0  0  0  0  0  0  0
  135.4825   75.0000  222.9533 H   0  0  0  0  0  0  0  0  0  0  0  0
  1  2  1  0
  2  3  2  0
  3  4  1  0
  4  5  1  0
  5  6  2  0
  5  7  1  0
  7  8  1  0
  8  9  1  6
  8 10  1  0
 10 11  2  0
 11 12  1  0
 11 13  1  0
 13 14  1  0
 13 15  2  0
 15 16  1  0
 15 17  1  0
 17 18  1  0
 17 19  2  0
 19 20  1  0
  8 21  1  0
 21 22  1  0
 21 23  1  0
 21 24  1  0
  4 25  2  0
 25 26  1  0
 25 27  1  0
 27 28  1  0
 28 29  2  0
 28 30  1  0
 30 31  1  0
 31 32  1  0
 31 33  2  0
 33 34  1  0
 33 35  1  0
 35 36  1  0
 35 37  2  0
 37 38  1  0
 37 39  1  0
 39 40  2  0
 40 41  1  0
 41 42  1  0
 42 43  1  0
 43 44  1  0
 43 45  1  0
 43 46  1  0
 46 47  2  0
 47 48  1  0
 47 49  1  0
 49 50  1  0
 49 51  2  0
 51 52  1  0
 51 53  1  0
 53 54  1  0
 53 55  2  0
 55 56  1  0
 42  3  1  0
 55 46  1  0
 19 10  1  0
 41 27  2  0
 39 30  1  0
M  CHG  1   7  -1
M  END
>  <UniqueID>  (63) 
103

>  <SMILES>  (63) 
[H]/N=c1\c(C(=O)[N-][C@@H](C)c2ccccc2)cc2c(=O)n3cc(Cl)ccc3nc2n1Cc1ccccc1

>  <Energy>  (63) 
83.12217000565826

>  <Genealogy>  (63) 
C[C@H]([N-]C(=O)c1cc2c(=O)n3cc(Cl)ccc3nc2n(Cc2ccccc2)c1=N)c1ccccc1 (protonated)
[H]/N=c1\c(C(=O)[N-][C@@H](C)c2ccccc2)cc2c(=O)n3cc(Cl)ccc3nc2n1Cc1ccccc1 (cis-trans isomerization)
[H]/N=c1\c(C(=O)[N-][C@@H](C)c2ccccc2)cc2c(=O)n3cc(Cl)ccc3nc2n1Cc1ccccc1 (3D coordinates assigned)
[H]/N=c1\c(C(=O)[N-][C@@H](C)c2ccccc2)cc2c(=O)n3cc(Cl)ccc3nc2n1Cc1ccccc1 (optimized conformer: 83.12217000565826 kcal/mol)

>  <smiles>  (63) 
C[C@H](NC(=O)c1cc2c(=O)n3cc(Cl)ccc3nc2n(Cc2ccccc2)c1=N)c1ccccc1

>  <score_type>  (63) 
oracle

>  <origin>  (63) 
autodockgpu

>  <m_score__min__energy>  (63) 
-8.75

>  <m_primary>  (63) 
energy

>  <meeko>  (63) 
{"free_energy": -8.04, "intermolecular_energy": -10.13, "internal_energy": -2.11, "cluster_size": 3, "cluster_id": 6, "rank_in_cluster": 2}

>  <energy>  (63) 
-8.73

>  <cluster_rmsd>  (63) 
0.0

>  <rmsd>  (63) 
270.01

>  <cluster>  (63) 
2

$$$$
BLHILRPTNSSYME-JHJFBCDHNA-M
     RDKit          3D

 56 60  0  0  0  0  0  0  0  0999 V2000
  136.8370   68.5640  225.2890 H   0  0  0  0  0  0  0  0  0  0  0  0
  137.6790   69.1100  224.9970 N   0  0  0  0  0  0  0  0  0  0  0  0
  137.6470   70.1620  224.2300 C   0  0  0  0  0  0  0  0  0  0  0  0
  136.4080   70.6790  223.7800 C   0  0  0  0  0  0  0  0  0  0  0  0
  135.1150   70.0790  224.1570 C   0  0  0  0  0  0  0  0  0  0  0  0
  135.0800   68.8600  224.4690 O   0  0  0  0  0  0  0  0  0  0  0  0
  133.8880   70.8230  224.1340 N   0  0  0  0  0  0  0  0  0  0  0  0
  133.1390   71.3620  225.2760 C   0  0  2  0  0  0  0  0  0  0  0  0
  132.0663   71.3904  225.0341 H   0  0  0  0  0  0  0  0  0  0  0  0
  133.4920   72.8190  225.5430 C   0  0  0  0  0  0  0  0  0  0  0  0
  132.8220   73.6100  226.5050 C   0  0  0  0  0  0  0  0  0  0  0  0
  131.9928   73.1787  227.0850 H   0  0  0  0  0  0  0  0  0  0  0  0
  133.2060   74.9360  226.7240 C   0  0  0  0  0  0  0  0  0  0  0  0
  132.6827   75.5413  227.4789 H   0  0  0  0  0  0  0  0  0  0  0  0
  134.2520   75.4940  225.9870 C   0  0  0  0  0  0  0  0  0  0  0  0
  134.5516   76.5380  226.1610 H   0  0  0  0  0  0  0  0  0  0  0  0
  134.9180   74.7270  225.0290 C   0  0  0  0  0  0  0  0  0  0  0  0
  135.7403   75.1687  224.4470 H   0  0  0  0  0  0  0  0  0  0  0  0
  134.5420   73.3990  224.8080 C   0  0  0  0  0  0  0  0  0  0  0  0
  135.0724   72.8015  224.0519 H   0  0  0  0  0  0  0  0  0  0  0  0
  133.2590   70.4240  226.4840 C   0  0  0  0  0  0  0  0  0  0  0  0
  133.1841   71.0098  227.4120 H   0  0  0  0  0  0  0  0  0  0  0  0
  132.4486   69.6808  226.4531 H   0  0  0  0  0  0  0  0  0  0  0  0
  134.2304   69.9088  226.4531 H   0  0  0  0  0  0  0  0  0  0  0  0
  136.3970   71.7610  222.9020 C   0  0  0  0  0  0  0  0  0  0  0  0
  135.4422   72.1271  222.4967 H   0  0  0  0  0  0  0  0  0  0  0  0
  137.5920   72.3830  222.5340 C   0  0  0  0  0  0  0  0  0  0  0  0
  137.6170   73.5080  221.6870 C   0  0  0  0  0  0  0  0  0  0  0  0
  136.5320   73.9660  221.2280 O   0  0  0  0  0  0  0  0  0  0  0  0
  138.8130   74.1040  221.3680 N   0  0  0  0  0  0  0  0  0  0  0  0
  138.8510   75.2060  220.5490 C   0  0  0  0  0  0  0  0  0  0  0  0
  137.9134   75.6156  220.1450 H   0  0  0  0  0  0  0  0  0  0  0  0
  140.0670   75.8130  220.2230 C   0  0  0  0  0  0  0  0  0  0  0  0
  140.1000   77.2210  219.1770 Cl  0  0  0  0  0  0  0  0  0  0  0  0
  141.2530   75.2930  220.7340 C   0  0  0  0  0  0  0  0  0  0  0  0
  142.2156   75.7629  220.4836 H   0  0  0  0  0  0  0  0  0  0  0  0
  141.2150   74.1760  221.5630 C   0  0  0  0  0  0  0  0  0  0  0  0
  142.1471   73.7570  221.9698 H   0  0  0  0  0  0  0  0  0  0  0  0
  139.9840   73.5890  221.8760 C   0  0  0  0  0  0  0  0  0  0  0  0
  139.9610   72.5040  222.6880 N   0  0  0  0  0  0  0  0  0  0  0  0
  138.8050   71.8820  223.0370 C   0  0  0  0  0  0  0  0  0  0  0  0
  138.8250   70.7790  223.8620 N   0  0  0  0  0  0  0  0  0  0  0  0
  140.1310   70.2490  224.3200 C   0  0  0  0  0  0  0  0  0  0  0  0
  140.1022   69.1495  224.3008 H   0  0  0  0  0  0  0  0  0  0  0  0
  140.9201   70.6198  223.6493 H   0  0  0  0  0  0  0  0  0  0  0  0
  140.4270   70.7130  225.7240 C   0  0  0  0  0  0  0  0  0  0  0  0
  141.1500   71.8980  225.9460 C   0  0  0  0  0  0  0  0  0  0  0  0
  141.4867   72.5023  225.0908 H   0  0  0  0  0  0  0  0  0  0  0  0
  141.4430   72.3120  227.2490 C   0  0  0  0  0  0  0  0  0  0  0  0
  142.0088   73.2404  227.4162 H   0  0  0  0  0  0  0  0  0  0  0  0
  141.0180   71.5480  228.3390 C   0  0  0  0  0  0  0  0  0  0  0  0
  141.2493   71.8752  229.3634 H   0  0  0  0  0  0  0  0  0  0  0  0
  140.2990   70.3680  228.1280 C   0  0  0  0  0  0  0  0  0  0  0  0
  139.9650   69.7669  228.9866 H   0  0  0  0  0  0  0  0  0  0  0  0
  140.0040   69.9510  226.8260 C   0  0  0  0  0  0  0  0  0  0  0  0
  139.4380   69.0218  226.6640 H   0  0  0  0  0  0  0  0  0  0  0  0
  1  2  1  0
  2  3  2  0
  3  4  1  0
  4  5  1  0
  5  6  2  0
  5  7  1  0
  7  8  1  0
  8  9  1  6
  8 10  1  0
 10 11  2  0
 11 12  1  0
 11 13  1  0
 13 14  1  0
 13 15  2  0
 15 16  1  0
 15 17  1  0
 17 18  1  0
 17 19  2  0
 19 20  1  0
  8 21  1  0
 21 22  1  0
 21 23  1  0
 21 24  1  0
  4 25  2  0
 25 26  1  0
 25 27  1  0
 27 28  1  0
 28 29  2  0
 28 30  1  0
 30 31  1  0
 31 32  1  0
 31 33  2  0
 33 34  1  0
 33 35  1  0
 35 36  1  0
 35 37  2  0
 37 38  1  0
 37 39  1  0
 39 40  2  0
 40 41  1  0
 41 42  1  0
 42 43  1  0
 43 44  1  0
 43 45  1  0
 43 46  1  0
 46 47  2  0
 47 48  1  0
 47 49  1  0
 49 50  1  0
 49 51  2  0
 51 52  1  0
 51 53  1  0
 53 54  1  0
 53 55  2  0
 55 56  1  0
 42  3  1  0
 55 46  1  0
 19 10  1  0
 41 27  2  0
 39 30  1  0
M  CHG  1   7  -1
M  END
>  <UniqueID>  (64) 
103

>  <SMILES>  (64) 
[H]/N=c1\c(C(=O)[N-][C@@H](C)c2ccccc2)cc2c(=O)n3cc(Cl)ccc3nc2n1Cc1ccccc1

>  <Energy>  (64) 
83.12217000565826

>  <Genealogy>  (64) 
C[C@H]([N-]C(=O)c1cc2c(=O)n3cc(Cl)ccc3nc2n(Cc2ccccc2)c1=N)c1ccccc1 (protonated)
[H]/N=c1\c(C(=O)[N-][C@@H](C)c2ccccc2)cc2c(=O)n3cc(Cl)ccc3nc2n1Cc1ccccc1 (cis-trans isomerization)
[H]/N=c1\c(C(=O)[N-][C@@H](C)c2ccccc2)cc2c(=O)n3cc(Cl)ccc3nc2n1Cc1ccccc1 (3D coordinates assigned)
[H]/N=c1\c(C(=O)[N-][C@@H](C)c2ccccc2)cc2c(=O)n3cc(Cl)ccc3nc2n1Cc1ccccc1 (optimized conformer: 83.12217000565826 kcal/mol)

>  <smiles>  (64) 
C[C@H](NC(=O)c1cc2c(=O)n3cc(Cl)ccc3nc2n(Cc2ccccc2)c1=N)c1ccccc1

>  <score_type>  (64) 
oracle

>  <origin>  (64) 
autodockgpu

>  <m_score__min__energy>  (64) 
-8.75

>  <m_primary>  (64) 
energy

>  <meeko>  (64) 
{"free_energy": -7.81, "intermolecular_energy": -9.9, "internal_energy": -2.04, "cluster_size": 3, "cluster_id": 6, "rank_in_cluster": 3}

>  <energy>  (64) 
-8.71

>  <cluster_rmsd>  (64) 
0.35

>  <rmsd>  (64) 
270.0

>  <cluster>  (64) 
2

$$$$
BLHILRPTNSSYME-JHJFBCDHNA-M
     RDKit          3D

 56 60  0  0  0  0  0  0  0  0999 V2000
  140.3580   69.8630  220.4240 H   0  0  0  0  0  0  0  0  0  0  0  0
  140.9400   70.7180  220.2760 N   0  0  0  0  0  0  0  0  0  0  0  0
  140.6580   71.8960  220.7550 C   0  0  0  0  0  0  0  0  0  0  0  0
  139.7060   72.0350  221.7930 C   0  0  0  0  0  0  0  0  0  0  0  0
  139.0090   70.8800  222.3890 C   0  0  0  0  0  0  0  0  0  0  0  0
  138.8240   69.8530  221.6840 O   0  0  0  0  0  0  0  0  0  0  0  0
  138.4930   70.9030  223.7280 N   0  0  0  0  0  0  0  0  0  0  0  0
  138.7310   69.9320  224.8020 C   0  0  2  0  0  0  0  0  0  0  0  0
  137.7901   69.7363  225.3371 H   0  0  0  0  0  0  0  0  0  0  0  0
  139.6540   70.4960  225.8750 C   0  0  0  0  0  0  0  0  0  0  0  0
  140.5620   71.5530  225.6330 C   0  0  0  0  0  0  0  0  0  0  0  0
  140.6341   71.9915  224.6268 H   0  0  0  0  0  0  0  0  0  0  0  0
  141.3680   72.0440  226.6630 C   0  0  0  0  0  0  0  0  0  0  0  0
  142.0676   72.8696  226.4659 H   0  0  0  0  0  0  0  0  0  0  0  0
  141.2880   71.4900  227.9410 C   0  0  0  0  0  0  0  0  0  0  0  0
  141.9237   71.8795  228.7498 H   0  0  0  0  0  0  0  0  0  0  0  0
  140.4010   70.4410  228.1940 C   0  0  0  0  0  0  0  0  0  0  0  0
  140.3406   70.0033  229.2013 H   0  0  0  0  0  0  0  0  0  0  0  0
  139.5900   69.9470  227.1680 C   0  0  0  0  0  0  0  0  0  0  0  0
  138.8945   69.1201  227.3743 H   0  0  0  0  0  0  0  0  0  0  0  0
  139.1540   68.5790  224.2170 C   0  0  0  0  0  0  0  0  0  0  0  0
  139.3732   67.8779  225.0358 H   0  0  0  0  0  0  0  0  0  0  0  0
  138.3389   68.1763  223.5978 H   0  0  0  0  0  0  0  0  0  0  0  0
  140.0533   68.7123  223.5978 H   0  0  0  0  0  0  0  0  0  0  0  0
  139.3650   73.3090  222.2410 C   0  0  0  0  0  0  0  0  0  0  0  0
  138.5801   73.4289  223.0023 H   0  0  0  0  0  0  0  0  0  0  0  0
  140.0130   74.4340  221.7300 C   0  0  0  0  0  0  0  0  0  0  0  0
  139.7280   75.7340  222.1920 C   0  0  0  0  0  0  0  0  0  0  0  0
  138.8490   75.8980  223.0850 O   0  0  0  0  0  0  0  0  0  0  0  0
  140.4060   76.8130  221.6780 N   0  0  0  0  0  0  0  0  0  0  0  0
  140.1430   78.0840  222.1250 C   0  0  0  0  0  0  0  0  0  0  0  0
  139.3816   78.2395  222.9035 H   0  0  0  0  0  0  0  0  0  0  0  0
  140.8310   79.1830  221.6030 C   0  0  0  0  0  0  0  0  0  0  0  0
  140.4860   80.8020  222.1840 Cl  0  0  0  0  0  0  0  0  0  0  0  0
  141.7940   78.9850  220.6160 C   0  0  0  0  0  0  0  0  0  0  0  0
  142.3411   79.8424  220.1970 H   0  0  0  0  0  0  0  0  0  0  0  0
  142.0600   77.6960  220.1630 C   0  0  0  0  0  0  0  0  0  0  0  0
  142.8182   77.5295  219.3836 H   0  0  0  0  0  0  0  0  0  0  0  0
  141.3580   76.6130  220.7040 C   0  0  0  0  0  0  0  0  0  0  0  0
  141.6300   75.3640  220.2560 N   0  0  0  0  0  0  0  0  0  0  0  0
  140.9920   74.2650  220.7350 C   0  0  0  0  0  0  0  0  0  0  0  0
  141.2950   73.0120  220.2510 N   0  0  0  0  0  0  0  0  0  0  0  0
  142.2910   72.8860  219.1600 C   0  0  0  0  0  0  0  0  0  0  0  0
  142.1107   71.9495  218.6119 H   0  0  0  0  0  0  0  0  0  0  0  0
  142.1882   73.7476  218.4839 H   0  0  0  0  0  0  0  0  0  0  0  0
  143.6900   72.8710  219.7200 C   0  0  0  0  0  0  0  0  0  0  0  0
  144.0810   73.8120  220.6890 C   0  0  0  0  0  0  0  0  0  0  0  0
  143.3562   74.5536  221.0560 H   0  0  0  0  0  0  0  0  0  0  0  0
  145.3870   73.8090  221.1880 C   0  0  0  0  0  0  0  0  0  0  0  0
  145.6866   74.5477  221.9460 H   0  0  0  0  0  0  0  0  0  0  0  0
  146.3120   72.8700  220.7260 C   0  0  0  0  0  0  0  0  0  0  0  0
  147.3390   72.8701  221.1200 H   0  0  0  0  0  0  0  0  0  0  0  0
  145.9330   71.9300  219.7630 C   0  0  0  0  0  0  0  0  0  0  0  0
  146.6617   71.1902  219.4001 H   0  0  0  0  0  0  0  0  0  0  0  0
  144.6280   71.9300  219.2610 C   0  0  0  0  0  0  0  0  0  0  0  0
  144.3337   71.1895  218.5027 H   0  0  0  0  0  0  0  0  0  0  0  0
  1  2  1  0
  2  3  2  0
  3  4  1  0
  4  5  1  0
  5  6  2  0
  5  7  1  0
  7  8  1  0
  8  9  1  1
  8 10  1  0
 10 11  2  0
 11 12  1  0
 11 13  1  0
 13 14  1  0
 13 15  2  0
 15 16  1  0
 15 17  1  0
 17 18  1  0
 17 19  2  0
 19 20  1  0
  8 21  1  0
 21 22  1  0
 21 23  1  0
 21 24  1  0
  4 25  2  0
 25 26  1  0
 25 27  1  0
 27 28  1  0
 28 29  2  0
 28 30  1  0
 30 31  1  0
 31 32  1  0
 31 33  2  0
 33 34  1  0
 33 35  1  0
 35 36  1  0
 35 37  2  0
 37 38  1  0
 37 39  1  0
 39 40  2  0
 40 41  1  0
 41 42  1  0
 42 43  1  0
 43 44  1  0
 43 45  1  0
 43 46  1  0
 46 47  2  0
 47 48  1  0
 47 49  1  0
 49 50  1  0
 49 51  2  0
 51 52  1  0
 51 53  1  0
 53 54  1  0
 53 55  2  0
 55 56  1  0
 42  3  1  0
 55 46  1  0
 19 10  1  0
 41 27  2  0
 39 30  1  0
M  CHG  1   7  -1
M  END
>  <UniqueID>  (65) 
103

>  <SMILES>  (65) 
[H]/N=c1\c(C(=O)[N-][C@@H](C)c2ccccc2)cc2c(=O)n3cc(Cl)ccc3nc2n1Cc1ccccc1

>  <Energy>  (65) 
83.12217000565826

>  <Genealogy>  (65) 
C[C@H]([N-]C(=O)c1cc2c(=O)n3cc(Cl)ccc3nc2n(Cc2ccccc2)c1=N)c1ccccc1 (protonated)
[H]/N=c1\c(C(=O)[N-][C@@H](C)c2ccccc2)cc2c(=O)n3cc(Cl)ccc3nc2n1Cc1ccccc1 (cis-trans isomerization)
[H]/N=c1\c(C(=O)[N-][C@@H](C)c2ccccc2)cc2c(=O)n3cc(Cl)ccc3nc2n1Cc1ccccc1 (3D coordinates assigned)
[H]/N=c1\c(C(=O)[N-][C@@H](C)c2ccccc2)cc2c(=O)n3cc(Cl)ccc3nc2n1Cc1ccccc1 (optimized conformer: 83.12217000565826 kcal/mol)

>  <smiles>  (65) 
C[C@H](NC(=O)c1cc2c(=O)n3cc(Cl)ccc3nc2n(Cc2ccccc2)c1=N)c1ccccc1

>  <score_type>  (65) 
oracle

>  <origin>  (65) 
autodockgpu

>  <m_score__min__energy>  (65) 
-8.75

>  <m_primary>  (65) 
energy

>  <meeko>  (65) 
{"free_energy": -8.23, "intermolecular_energy": -10.31, "internal_energy": -1.73, "cluster_size": 3, "cluster_id": 3, "rank_in_cluster": 3}

>  <energy>  (65) 
-8.62

>  <cluster_rmsd>  (65) 
0.51

>  <rmsd>  (65) 
270.0

>  <cluster>  (65) 
2

$$$$
BLHILRPTNSSYME-JHJFBCDHNA-M
     RDKit          3D

 56 60  0  0  0  0  0  0  0  0999 V2000
  136.3350   79.1020  222.4650 H   0  0  0  0  0  0  0  0  0  0  0  0
  137.3550   79.0860  222.2410 N   0  0  0  0  0  0  0  0  0  0  0  0
  138.0610   78.0030  222.0840 C   0  0  0  0  0  0  0  0  0  0  0  0
  137.5610   76.7560  222.5290 C   0  0  0  0  0  0  0  0  0  0  0  0
  136.2380   76.6140  223.1670 C   0  0  0  0  0  0  0  0  0  0  0  0
  135.3210   77.4140  222.8450 O   0  0  0  0  0  0  0  0  0  0  0  0
  135.9740   75.6260  224.1740 N   0  0  0  0  0  0  0  0  0  0  0  0
  135.0100   74.5210  224.1230 C   0  0  2  0  0  0  0  0  0  0  0  0
  134.3227   74.6692  223.2770 H   0  0  0  0  0  0  0  0  0  0  0  0
  134.0960   74.5160  225.3410 C   0  0  0  0  0  0  0  0  0  0  0  0
  133.4730   73.3450  225.8320 C   0  0  0  0  0  0  0  0  0  0  0  0
  133.6279   72.3864  225.3152 H   0  0  0  0  0  0  0  0  0  0  0  0
  132.6620   73.3970  226.9690 C   0  0  0  0  0  0  0  0  0  0  0  0
  132.1859   72.4798  227.3460 H   0  0  0  0  0  0  0  0  0  0  0  0
  132.4550   74.6100  227.6270 C   0  0  0  0  0  0  0  0  0  0  0  0
  131.8165   74.6479  228.5219 H   0  0  0  0  0  0  0  0  0  0  0  0
  133.0580   75.7760  227.1500 C   0  0  0  0  0  0  0  0  0  0  0  0
  132.8920   76.7319  227.6684 H   0  0  0  0  0  0  0  0  0  0  0  0
  133.8720   75.7300  226.0150 C   0  0  0  0  0  0  0  0  0  0  0  0
  134.3424   76.6529  225.6449 H   0  0  0  0  0  0  0  0  0  0  0  0
  135.7290   73.1970  223.8350 C   0  0  0  0  0  0  0  0  0  0  0  0
  135.9938   72.7094  224.7848 H   0  0  0  0  0  0  0  0  0  0  0  0
  135.0651   72.5374  223.2568 H   0  0  0  0  0  0  0  0  0  0  0  0
  136.6437   73.3947  223.2568 H   0  0  0  0  0  0  0  0  0  0  0  0
  138.3590   75.6190  222.4170 C   0  0  0  0  0  0  0  0  0  0  0  0
  138.0026   74.6586  222.8177 H   0  0  0  0  0  0  0  0  0  0  0  0
  139.6080   75.6930  221.7990 C   0  0  0  0  0  0  0  0  0  0  0  0
  140.4230   74.5570  221.6260 C   0  0  0  0  0  0  0  0  0  0  0  0
  140.0280   73.4360  222.0540 O   0  0  0  0  0  0  0  0  0  0  0  0
  141.6370   74.6700  220.9910 N   0  0  0  0  0  0  0  0  0  0  0  0
  142.4370   73.5690  220.8090 C   0  0  0  0  0  0  0  0  0  0  0  0
  142.1025   72.5872  221.1752 H   0  0  0  0  0  0  0  0  0  0  0  0
  143.6730   73.6820  220.1630 C   0  0  0  0  0  0  0  0  0  0  0  0
  144.6850   72.2670  219.9370 Cl  0  0  0  0  0  0  0  0  0  0  0  0
  144.0950   74.9250  219.7010 C   0  0  0  0  0  0  0  0  0  0  0  0
  145.0654   75.0254  219.1929 H   0  0  0  0  0  0  0  0  0  0  0  0
  143.2830   76.0410  219.8850 C   0  0  0  0  0  0  0  0  0  0  0  0
  143.6081   77.0276  219.5231 H   0  0  0  0  0  0  0  0  0  0  0  0
  142.0510   75.9000  220.5330 C   0  0  0  0  0  0  0  0  0  0  0  0
  141.2690   76.9940  220.7020 N   0  0  0  0  0  0  0  0  0  0  0  0
  140.0600   76.9350  221.3190 C   0  0  0  0  0  0  0  0  0  0  0  0
  139.2970   78.0700  221.4750 N   0  0  0  0  0  0  0  0  0  0  0  0
  139.8390   79.3680  221.0070 C   0  0  0  0  0  0  0  0  0  0  0  0
  140.3107   79.2293  220.0230 H   0  0  0  0  0  0  0  0  0  0  0  0
  139.0138   80.0918  220.9343 H   0  0  0  0  0  0  0  0  0  0  0  0
  140.8640   79.8950  221.9780 C   0  0  0  0  0  0  0  0  0  0  0  0
  142.2070   79.4910  221.8870 C   0  0  0  0  0  0  0  0  0  0  0  0
  142.5178   78.8000  221.0895 H   0  0  0  0  0  0  0  0  0  0  0  0
  143.1500   79.9630  222.8050 C   0  0  0  0  0  0  0  0  0  0  0  0
  144.1993   79.6420  222.7288 H   0  0  0  0  0  0  0  0  0  0  0  0
  142.7610   80.8420  223.8190 C   0  0  0  0  0  0  0  0  0  0  0  0
  143.5045   81.2124  224.5402 H   0  0  0  0  0  0  0  0  0  0  0  0
  141.4290   81.2510  223.9180 C   0  0  0  0  0  0  0  0  0  0  0  0
  141.1245   81.9437  224.7164 H   0  0  0  0  0  0  0  0  0  0  0  0
  140.4820   80.7800  223.0020 C   0  0  0  0  0  0  0  0  0  0  0  0
  139.4338   81.1035  223.0832 H   0  0  0  0  0  0  0  0  0  0  0  0
  1  2  1  0
  2  3  2  0
  3  4  1  0
  4  5  1  0
  5  6  2  0
  5  7  1  0
  7  8  1  0
  8  9  1  6
  8 10  1  0
 10 11  2  0
 11 12  1  0
 11 13  1  0
 13 14  1  0
 13 15  2  0
 15 16  1  0
 15 17  1  0
 17 18  1  0
 17 19  2  0
 19 20  1  0
  8 21  1  0
 21 22  1  0
 21 23  1  0
 21 24  1  0
  4 25  2  0
 25 26  1  0
 25 27  1  0
 27 28  1  0
 28 29  2  0
 28 30  1  0
 30 31  1  0
 31 32  1  0
 31 33  2  0
 33 34  1  0
 33 35  1  0
 35 36  1  0
 35 37  2  0
 37 38  1  0
 37 39  1  0
 39 40  2  0
 40 41  1  0
 41 42  1  0
 42 43  1  0
 43 44  1  0
 43 45  1  0
 43 46  1  0
 46 47  2  0
 47 48  1  0
 47 49  1  0
 49 50  1  0
 49 51  2  0
 51 52  1  0
 51 53  1  0
 53 54  1  0
 53 55  2  0
 55 56  1  0
 42  3  1  0
 55 46  1  0
 19 10  1  0
 41 27  2  0
 39 30  1  0
M  CHG  1   7  -1
M  END
>  <UniqueID>  (66) 
103

>  <SMILES>  (66) 
[H]/N=c1\c(C(=O)[N-][C@@H](C)c2ccccc2)cc2c(=O)n3cc(Cl)ccc3nc2n1Cc1ccccc1

>  <Energy>  (66) 
83.12217000565826

>  <Genealogy>  (66) 
C[C@H]([N-]C(=O)c1cc2c(=O)n3cc(Cl)ccc3nc2n(Cc2ccccc2)c1=N)c1ccccc1 (protonated)
[H]/N=c1\c(C(=O)[N-][C@@H](C)c2ccccc2)cc2c(=O)n3cc(Cl)ccc3nc2n1Cc1ccccc1 (cis-trans isomerization)
[H]/N=c1\c(C(=O)[N-][C@@H](C)c2ccccc2)cc2c(=O)n3cc(Cl)ccc3nc2n1Cc1ccccc1 (3D coordinates assigned)
[H]/N=c1\c(C(=O)[N-][C@@H](C)c2ccccc2)cc2c(=O)n3cc(Cl)ccc3nc2n1Cc1ccccc1 (optimized conformer: 83.12217000565826 kcal/mol)

>  <smiles>  (66) 
C[C@H](NC(=O)c1cc2c(=O)n3cc(Cl)ccc3nc2n(Cc2ccccc2)c1=N)c1ccccc1

>  <score_type>  (66) 
oracle

>  <origin>  (66) 
autodockgpu

>  <m_score__min__energy>  (66) 
-8.75

>  <m_primary>  (66) 
energy

>  <meeko>  (66) 
{"free_energy": -8.11, "intermolecular_energy": -10.2, "internal_energy": -1.69, "cluster_size": 2, "cluster_id": 7, "rank_in_cluster": 2}

>  <energy>  (66) 
-8.52

>  <cluster_rmsd>  (66) 
0.56

>  <rmsd>  (66) 
269.99

>  <cluster>  (66) 
2

$$$$
BLHILRPTNSSYME-JHJFBCDHNA-M
     RDKit          3D

 56 60  0  0  0  0  0  0  0  0999 V2000
  139.3230   74.4170  223.0920 H   0  0  0  0  0  0  0  0  0  0  0  0
  139.7670   75.2470  222.6380 N   0  0  0  0  0  0  0  0  0  0  0  0
  140.4300   75.2090  221.5180 C   0  0  0  0  0  0  0  0  0  0  0  0
  141.1050   74.0270  221.1290 C   0  0  0  0  0  0  0  0  0  0  0  0
  141.0820   72.7970  221.9420 C   0  0  0  0  0  0  0  0  0  0  0  0
  141.8070   71.8280  221.5960 O   0  0  0  0  0  0  0  0  0  0  0  0
  140.2270   72.6490  223.0850 N   0  0  0  0  0  0  0  0  0  0  0  0
  139.5070   71.4480  223.5230 C   0  0  2  0  0  0  0  0  0  0  0  0
  138.4432   71.6877  223.6670 H   0  0  0  0  0  0  0  0  0  0  0  0
  139.9690   70.9860  224.8990 C   0  0  0  0  0  0  0  0  0  0  0  0
  139.6950   69.6960  225.4110 C   0  0  0  0  0  0  0  0  0  0  0  0
  139.1085   68.9836  224.8123 H   0  0  0  0  0  0  0  0  0  0  0  0
  140.1650   69.3210  226.6730 C   0  0  0  0  0  0  0  0  0  0  0  0
  139.9508   68.3142  227.0610 H   0  0  0  0  0  0  0  0  0  0  0  0
  140.9050   70.2200  227.4420 C   0  0  0  0  0  0  0  0  0  0  0  0
  141.2741   69.9212  228.4342 H   0  0  0  0  0  0  0  0  0  0  0  0
  141.1770   71.4990  226.9520 C   0  0  0  0  0  0  0  0  0  0  0  0
  141.7576   72.2080  227.5605 H   0  0  0  0  0  0  0  0  0  0  0  0
  140.7130   71.8800  225.6900 C   0  0  0  0  0  0  0  0  0  0  0  0
  140.9319   72.8893  225.3114 H   0  0  0  0  0  0  0  0  0  0  0  0
  139.5380   70.3760  222.4260 C   0  0  0  0  0  0  0  0  0  0  0  0
  139.5668   69.3785  222.8888 H   0  0  0  0  0  0  0  0  0  0  0  0
  138.6369   70.4645  221.8013 H   0  0  0  0  0  0  0  0  0  0  0  0
  140.4325   70.5164  221.8013 H   0  0  0  0  0  0  0  0  0  0  0  0
  141.8690   74.0280  219.9630 C   0  0  0  0  0  0  0  0  0  0  0  0
  142.4472   73.1339  219.6869 H   0  0  0  0  0  0  0  0  0  0  0  0
  141.9040   75.1580  219.1440 C   0  0  0  0  0  0  0  0  0  0  0  0
  142.6270   75.1800  217.9350 C   0  0  0  0  0  0  0  0  0  0  0  0
  143.2790   74.1580  217.5810 O   0  0  0  0  0  0  0  0  0  0  0  0
  142.6160   76.3050  217.1460 N   0  0  0  0  0  0  0  0  0  0  0  0
  143.3100   76.3380  215.9620 C   0  0  0  0  0  0  0  0  0  0  0  0
  143.8802   75.4535  215.6418 H   0  0  0  0  0  0  0  0  0  0  0  0
  143.3010   77.4820  215.1580 C   0  0  0  0  0  0  0  0  0  0  0  0
  144.1920   77.5090  213.6470 Cl  0  0  0  0  0  0  0  0  0  0  0  0
  142.5810   78.6020  215.5660 C   0  0  0  0  0  0  0  0  0  0  0  0
  142.5684   79.5082  214.9427 H   0  0  0  0  0  0  0  0  0  0  0  0
  141.8770   78.5690  216.7670 C   0  0  0  0  0  0  0  0  0  0  0  0
  141.3054   79.4488  217.0975 H   0  0  0  0  0  0  0  0  0  0  0  0
  141.9010   77.4100  217.5510 C   0  0  0  0  0  0  0  0  0  0  0  0
  141.2090   77.3910  218.7160 N   0  0  0  0  0  0  0  0  0  0  0  0
  141.1840   76.3020  219.5280 C   0  0  0  0  0  0  0  0  0  0  0  0
  140.4700   76.3240  220.7060 N   0  0  0  0  0  0  0  0  0  0  0  0
  139.7740   77.5710  221.1000 C   0  0  0  0  0  0  0  0  0  0  0  0
  139.3761   78.0628  220.2001 H   0  0  0  0  0  0  0  0  0  0  0  0
  138.9545   77.3176  221.7887 H   0  0  0  0  0  0  0  0  0  0  0  0
  140.7240   78.5100  221.7990 C   0  0  0  0  0  0  0  0  0  0  0  0
  141.2900   79.5960  221.1090 C   0  0  0  0  0  0  0  0  0  0  0  0
  141.0244   79.7741  220.0565 H   0  0  0  0  0  0  0  0  0  0  0  0
  142.1890   80.4510  221.7540 C   0  0  0  0  0  0  0  0  0  0  0  0
  142.6275   81.2998  221.2089 H   0  0  0  0  0  0  0  0  0  0  0  0
  142.5310   80.2280  223.0910 C   0  0  0  0  0  0  0  0  0  0  0  0
  143.2387   80.9011  223.5971 H   0  0  0  0  0  0  0  0  0  0  0  0
  141.9740   79.1500  223.7850 C   0  0  0  0  0  0  0  0  0  0  0  0
  142.2435   78.9749  224.8370 H   0  0  0  0  0  0  0  0  0  0  0  0
  141.0740   78.2940  223.1420 C   0  0  0  0  0  0  0  0  0  0  0  0
  140.6377   77.4467  223.6913 H   0  0  0  0  0  0  0  0  0  0  0  0
  1  2  1  0
  2  3  2  0
  3  4  1  0
  4  5  1  0
  5  6  2  0
  5  7  1  0
  7  8  1  0
  8  9  1  1
  8 10  1  0
 10 11  2  0
 11 12  1  0
 11 13  1  0
 13 14  1  0
 13 15  2  0
 15 16  1  0
 15 17  1  0
 17 18  1  0
 17 19  2  0
 19 20  1  0
  8 21  1  0
 21 22  1  0
 21 23  1  0
 21 24  1  0
  4 25  2  0
 25 26  1  0
 25 27  1  0
 27 28  1  0
 28 29  2  0
 28 30  1  0
 30 31  1  0
 31 32  1  0
 31 33  2  0
 33 34  1  0
 33 35  1  0
 35 36  1  0
 35 37  2  0
 37 38  1  0
 37 39  1  0
 39 40  2  0
 40 41  1  0
 41 42  1  0
 42 43  1  0
 43 44  1  0
 43 45  1  0
 43 46  1  0
 46 47  2  0
 47 48  1  0
 47 49  1  0
 49 50  1  0
 49 51  2  0
 51 52  1  0
 51 53  1  0
 53 54  1  0
 53 55  2  0
 55 56  1  0
 42  3  1  0
 55 46  1  0
 19 10  1  0
 41 27  2  0
 39 30  1  0
M  CHG  1   7  -1
M  END
>  <UniqueID>  (67) 
103

>  <SMILES>  (67) 
[H]/N=c1\c(C(=O)[N-][C@@H](C)c2ccccc2)cc2c(=O)n3cc(Cl)ccc3nc2n1Cc1ccccc1

>  <Energy>  (67) 
83.12217000565826

>  <Genealogy>  (67) 
C[C@H]([N-]C(=O)c1cc2c(=O)n3cc(Cl)ccc3nc2n(Cc2ccccc2)c1=N)c1ccccc1 (protonated)
[H]/N=c1\c(C(=O)[N-][C@@H](C)c2ccccc2)cc2c(=O)n3cc(Cl)ccc3nc2n1Cc1ccccc1 (cis-trans isomerization)
[H]/N=c1\c(C(=O)[N-][C@@H](C)c2ccccc2)cc2c(=O)n3cc(Cl)ccc3nc2n1Cc1ccccc1 (3D coordinates assigned)
[H]/N=c1\c(C(=O)[N-][C@@H](C)c2ccccc2)cc2c(=O)n3cc(Cl)ccc3nc2n1Cc1ccccc1 (optimized conformer: 83.12217000565826 kcal/mol)

>  <smiles>  (67) 
C[C@H](NC(=O)c1cc2c(=O)n3cc(Cl)ccc3nc2n(Cc2ccccc2)c1=N)c1ccccc1

>  <score_type>  (67) 
oracle

>  <origin>  (67) 
autodockgpu

>  <m_score__min__energy>  (67) 
-8.75

>  <m_primary>  (67) 
energy

>  <meeko>  (67) 
{"free_energy": -8.48, "intermolecular_energy": -10.56, "internal_energy": -1.67, "cluster_size": 5, "cluster_id": 2, "rank_in_cluster": 5}

>  <energy>  (67) 
-8.48

>  <cluster_rmsd>  (67) 
1.1

>  <rmsd>  (67) 
269.88

>  <cluster>  (67) 
2

$$$$
BLHILRPTNSSYME-JHJFBCDHNA-M
     RDKit          3D

 56 60  0  0  0  0  0  0  0  0999 V2000
  138.3110   71.5880  221.5120 H   0  0  0  0  0  0  0  0  0  0  0  0
  137.8270   72.5120  221.5610 N   0  0  0  0  0  0  0  0  0  0  0  0
  137.0560   72.8920  222.5390 C   0  0  0  0  0  0  0  0  0  0  0  0
  136.7040   71.9810  223.5640 C   0  0  0  0  0  0  0  0  0  0  0  0
  137.1920   70.5890  223.5900 C   0  0  0  0  0  0  0  0  0  0  0  0
  136.4620   69.7000  224.1000 O   0  0  0  0  0  0  0  0  0  0  0  0
  138.4890   70.2230  223.0960 N   0  0  0  0  0  0  0  0  0  0  0  0
  139.8000   70.5930  223.6440 C   0  0  2  0  0  0  0  0  0  0  0  0
  140.5605   69.8779  223.2973 H   0  0  0  0  0  0  0  0  0  0  0  0
  139.8340   70.4570  225.1610 C   0  0  0  0  0  0  0  0  0  0  0  0
  139.3570   69.3150  225.8430 C   0  0  0  0  0  0  0  0  0  0  0  0
  138.9197   68.4817  225.2735 H   0  0  0  0  0  0  0  0  0  0  0  0
  139.4370   69.2370  227.2370 C   0  0  0  0  0  0  0  0  0  0  0  0
  139.0687   68.3412  227.7585 H   0  0  0  0  0  0  0  0  0  0  0  0
  139.9830   70.2930  227.9680 C   0  0  0  0  0  0  0  0  0  0  0  0
  140.0441   70.2294  229.0645 H   0  0  0  0  0  0  0  0  0  0  0  0
  140.4520   71.4310  227.3070 C   0  0  0  0  0  0  0  0  0  0  0  0
  140.8802   72.2638  227.8841 H   0  0  0  0  0  0  0  0  0  0  0  0
  140.3780   71.5130  225.9140 C   0  0  0  0  0  0  0  0  0  0  0  0
  140.7490   72.4126  225.4012 H   0  0  0  0  0  0  0  0  0  0  0  0
  140.2430   71.9550  223.0960 C   0  0  0  0  0  0  0  0  0  0  0  0
  140.4635   72.6331  223.9336 H   0  0  0  0  0  0  0  0  0  0  0  0
  141.1457   71.8266  222.4807 H   0  0  0  0  0  0  0  0  0  0  0  0
  139.4375   72.3822  222.4807 H   0  0  0  0  0  0  0  0  0  0  0  0
  135.8200   72.3840  224.5630 C   0  0  0  0  0  0  0  0  0  0  0  0
  135.4918   71.6633  225.3264 H   0  0  0  0  0  0  0  0  0  0  0  0
  135.3490   73.6970  224.6000 C   0  0  0  0  0  0  0  0  0  0  0  0
  134.4910   74.1530  225.6210 C   0  0  0  0  0  0  0  0  0  0  0  0
  134.1200   73.3530  226.5250 O   0  0  0  0  0  0  0  0  0  0  0  0
  134.0690   75.4600  225.6330 N   0  0  0  0  0  0  0  0  0  0  0  0
  133.2390   75.9200  226.6260 C   0  0  0  0  0  0  0  0  0  0  0  0
  132.9101   75.2340  227.4206 H   0  0  0  0  0  0  0  0  0  0  0  0
  132.8070   77.2500  226.6390 C   0  0  0  0  0  0  0  0  0  0  0  0
  131.7480   77.8230  227.9150 Cl  0  0  0  0  0  0  0  0  0  0  0  0
  133.2230   78.1170  225.6330 C   0  0  0  0  0  0  0  0  0  0  0  0
  132.8891   79.1651  225.6334 H   0  0  0  0  0  0  0  0  0  0  0  0
  134.0640   77.6510  224.6260 C   0  0  0  0  0  0  0  0  0  0  0  0
  134.3972   78.3286  223.8261 H   0  0  0  0  0  0  0  0  0  0  0  0
  134.4830   76.3160  224.6370 C   0  0  0  0  0  0  0  0  0  0  0  0
  135.3040   75.8770  223.6520 N   0  0  0  0  0  0  0  0  0  0  0  0
  135.7530   74.5960  223.5990 C   0  0  0  0  0  0  0  0  0  0  0  0
  136.5850   74.1880  222.5790 N   0  0  0  0  0  0  0  0  0  0  0  0
  136.9390   75.1540  221.5120 C   0  0  0  0  0  0  0  0  0  0  0  0
  137.0520   74.6155  220.5595 H   0  0  0  0  0  0  0  0  0  0  0  0
  136.1382   75.9039  221.4319 H   0  0  0  0  0  0  0  0  0  0  0  0
  138.2320   75.8560  221.8410 C   0  0  0  0  0  0  0  0  0  0  0  0
  139.4640   75.2100  221.6420 C   0  0  0  0  0  0  0  0  0  0  0  0
  139.4878   74.1921  221.2258 H   0  0  0  0  0  0  0  0  0  0  0  0
  140.6600   75.8560  221.9710 C   0  0  0  0  0  0  0  0  0  0  0  0
  141.6213   75.3452  221.8130 H   0  0  0  0  0  0  0  0  0  0  0  0
  140.6360   77.1490  222.5000 C   0  0  0  0  0  0  0  0  0  0  0  0
  141.5778   77.6553  222.7582 H   0  0  0  0  0  0  0  0  0  0  0  0
  139.4150   77.7990  222.7010 C   0  0  0  0  0  0  0  0  0  0  0  0
  139.3964   78.8172  223.1168 H   0  0  0  0  0  0  0  0  0  0  0  0
  138.2170   77.1560  222.3740 C   0  0  0  0  0  0  0  0  0  0  0  0
  137.2581   77.6705  222.5348 H   0  0  0  0  0  0  0  0  0  0  0  0
  1  2  1  0
  2  3  2  0
  3  4  1  0
  4  5  1  0
  5  6  2  0
  5  7  1  0
  7  8  1  0
  8  9  1  6
  8 10  1  0
 10 11  2  0
 11 12  1  0
 11 13  1  0
 13 14  1  0
 13 15  2  0
 15 16  1  0
 15 17  1  0
 17 18  1  0
 17 19  2  0
 19 20  1  0
  8 21  1  0
 21 22  1  0
 21 23  1  0
 21 24  1  0
  4 25  2  0
 25 26  1  0
 25 27  1  0
 27 28  1  0
 28 29  2  0
 28 30  1  0
 30 31  1  0
 31 32  1  0
 31 33  2  0
 33 34  1  0
 33 35  1  0
 35 36  1  0
 35 37  2  0
 37 38  1  0
 37 39  1  0
 39 40  2  0
 40 41  1  0
 41 42  1  0
 42 43  1  0
 43 44  1  0
 43 45  1  0
 43 46  1  0
 46 47  2  0
 47 48  1  0
 47 49  1  0
 49 50  1  0
 49 51  2  0
 51 52  1  0
 51 53  1  0
 53 54  1  0
 53 55  2  0
 55 56  1  0
 42  3  1  0
 55 46  1  0
 19 10  1  0
 41 27  2  0
 39 30  1  0
M  CHG  1   7  -1
M  END
>  <UniqueID>  (68) 
103

>  <SMILES>  (68) 
[H]/N=c1\c(C(=O)[N-][C@@H](C)c2ccccc2)cc2c(=O)n3cc(Cl)ccc3nc2n1Cc1ccccc1

>  <Energy>  (68) 
83.12217000565826

>  <Genealogy>  (68) 
C[C@H]([N-]C(=O)c1cc2c(=O)n3cc(Cl)ccc3nc2n(Cc2ccccc2)c1=N)c1ccccc1 (protonated)
[H]/N=c1\c(C(=O)[N-][C@@H](C)c2ccccc2)cc2c(=O)n3cc(Cl)ccc3nc2n1Cc1ccccc1 (cis-trans isomerization)
[H]/N=c1\c(C(=O)[N-][C@@H](C)c2ccccc2)cc2c(=O)n3cc(Cl)ccc3nc2n1Cc1ccccc1 (3D coordinates assigned)
[H]/N=c1\c(C(=O)[N-][C@@H](C)c2ccccc2)cc2c(=O)n3cc(Cl)ccc3nc2n1Cc1ccccc1 (optimized conformer: 83.12217000565826 kcal/mol)

>  <smiles>  (68) 
C[C@H](NC(=O)c1cc2c(=O)n3cc(Cl)ccc3nc2n(Cc2ccccc2)c1=N)c1ccccc1

>  <score_type>  (68) 
oracle

>  <origin>  (68) 
autodockgpu

>  <m_score__min__energy>  (68) 
-8.75

>  <m_primary>  (68) 
energy

>  <meeko>  (68) 
{"free_energy": -7.65, "intermolecular_energy": -9.74, "internal_energy": -2.25, "cluster_size": 1, "cluster_id": 9, "rank_in_cluster": 1}

>  <energy>  (68) 
-8.6

>  <cluster_rmsd>  (68) 
0.0

>  <rmsd>  (68) 
270.33

>  <cluster>  (68) 
3

$$$$
BLHILRPTNSSYME-JHJFBCDHNA-M
     RDKit          3D

 56 60  0  0  0  0  0  0  0  0999 V2000
  139.2250   74.5220  222.7140 H   0  0  0  0  0  0  0  0  0  0  0  0
  139.6170   75.4900  222.7310 N   0  0  0  0  0  0  0  0  0  0  0  0
  140.1670   76.0830  221.7100 C   0  0  0  0  0  0  0  0  0  0  0  0
  140.7020   75.3190  220.6450 C   0  0  0  0  0  0  0  0  0  0  0  0
  140.6540   73.8450  220.6250 C   0  0  0  0  0  0  0  0  0  0  0  0
  139.9950   73.2470  221.5150 O   0  0  0  0  0  0  0  0  0  0  0  0
  141.3700   73.0680  219.6540 N   0  0  0  0  0  0  0  0  0  0  0  0
  142.3940   72.0440  219.8960 C   0  0  2  0  0  0  0  0  0  0  0  0
  142.1750   71.5186  220.8373 H   0  0  0  0  0  0  0  0  0  0  0  0
  143.7650   72.6640  220.1330 C   0  0  0  0  0  0  0  0  0  0  0  0
  143.9420   73.9960  220.5730 C   0  0  0  0  0  0  0  0  0  0  0  0
  143.0643   74.6374  220.7409 H   0  0  0  0  0  0  0  0  0  0  0  0
  145.2260   74.5030  220.7960 C   0  0  0  0  0  0  0  0  0  0  0  0
  145.3543   75.5388  221.1433 H   0  0  0  0  0  0  0  0  0  0  0  0
  146.3450   73.6980  220.5790 C   0  0  0  0  0  0  0  0  0  0  0  0
  147.3537   74.0997  220.7555 H   0  0  0  0  0  0  0  0  0  0  0  0
  146.1850   72.3830  220.1380 C   0  0  0  0  0  0  0  0  0  0  0  0
  147.0682   71.7506  219.9651 H   0  0  0  0  0  0  0  0  0  0  0  0
  144.9050   71.8690  219.9160 C   0  0  0  0  0  0  0  0  0  0  0  0
  144.7875   70.8321  219.5680 H   0  0  0  0  0  0  0  0  0  0  0  0
  142.3400   70.9660  218.8060 C   0  0  0  0  0  0  0  0  0  0  0  0
  142.2902   69.9723  219.2752 H   0  0  0  0  0  0  0  0  0  0  0  0
  141.4485   71.1213  218.1806 H   0  0  0  0  0  0  0  0  0  0  0  0
  143.2425   71.0314  218.1806 H   0  0  0  0  0  0  0  0  0  0  0  0
  141.3500   75.9680  219.5960 C   0  0  0  0  0  0  0  0  0  0  0  0
  141.8240   75.3784  218.7974 H   0  0  0  0  0  0  0  0  0  0  0  0
  141.4010   77.3620  219.5530 C   0  0  0  0  0  0  0  0  0  0  0  0
  142.0060   78.0540  218.4850 C   0  0  0  0  0  0  0  0  0  0  0  0
  142.5360   77.4020  217.5420 O   0  0  0  0  0  0  0  0  0  0  0  0
  142.0140   79.4280  218.4710 N   0  0  0  0  0  0  0  0  0  0  0  0
  142.5940   80.1140  217.4330 C   0  0  0  0  0  0  0  0  0  0  0  0
  143.0564   79.5571  216.6047 H   0  0  0  0  0  0  0  0  0  0  0  0
  142.6040   81.5120  217.4160 C   0  0  0  0  0  0  0  0  0  0  0  0
  143.3480   82.3770  216.0830 Cl  0  0  0  0  0  0  0  0  0  0  0  0
  142.0200   82.2160  218.4670 C   0  0  0  0  0  0  0  0  0  0  0  0
  142.0230   83.3160  218.4650 H   0  0  0  0  0  0  0  0  0  0  0  0
  141.4330   81.5200  219.5190 C   0  0  0  0  0  0  0  0  0  0  0  0
  140.9704   82.0670  220.3537 H   0  0  0  0  0  0  0  0  0  0  0  0
  141.4340   80.1210  219.5100 C   0  0  0  0  0  0  0  0  0  0  0  0
  140.8560   79.4560  220.5400 N   0  0  0  0  0  0  0  0  0  0  0  0
  140.8170   78.0990  220.5980 C   0  0  0  0  0  0  0  0  0  0  0  0
  140.2220   77.4610  221.6640 N   0  0  0  0  0  0  0  0  0  0  0  0
  139.6720   78.2770  222.7720 C   0  0  0  0  0  0  0  0  0  0  0  0
  138.7579   78.7836  222.4287 H   0  0  0  0  0  0  0  0  0  0  0  0
  139.4444   77.6153  223.6207 H   0  0  0  0  0  0  0  0  0  0  0  0
  140.6740   79.3110  223.2170 C   0  0  0  0  0  0  0  0  0  0  0  0
  140.2880   80.6510  223.3920 C   0  0  0  0  0  0  0  0  0  0  0  0
  139.2421   80.9458  223.2211 H   0  0  0  0  0  0  0  0  0  0  0  0
  141.2260   81.6110  223.7820 C   0  0  0  0  0  0  0  0  0  0  0  0
  140.9168   82.6579  223.9176 H   0  0  0  0  0  0  0  0  0  0  0  0
  142.5570   81.2420  224.0000 C   0  0  0  0  0  0  0  0  0  0  0  0
  143.2945   81.9986  224.3062 H   0  0  0  0  0  0  0  0  0  0  0  0
  142.9500   79.9130  223.8290 C   0  0  0  0  0  0  0  0  0  0  0  0
  143.9972   79.6235  224.0012 H   0  0  0  0  0  0  0  0  0  0  0  0
  142.0140   78.9490  223.4390 C   0  0  0  0  0  0  0  0  0  0  0  0
  142.3281   77.9033  223.3055 H   0  0  0  0  0  0  0  0  0  0  0  0
  1  2  1  0
  2  3  2  0
  3  4  1  0
  4  5  1  0
  5  6  2  0
  5  7  1  0
  7  8  1  0
  8  9  1  1
  8 10  1  0
 10 11  2  0
 11 12  1  0
 11 13  1  0
 13 14  1  0
 13 15  2  0
 15 16  1  0
 15 17  1  0
 17 18  1  0
 17 19  2  0
 19 20  1  0
  8 21  1  0
 21 22  1  0
 21 23  1  0
 21 24  1  0
  4 25  2  0
 25 26  1  0
 25 27  1  0
 27 28  1  0
 28 29  2  0
 28 30  1  0
 30 31  1  0
 31 32  1  0
 31 33  2  0
 33 34  1  0
 33 35  1  0
 35 36  1  0
 35 37  2  0
 37 38  1  0
 37 39  1  0
 39 40  2  0
 40 41  1  0
 41 42  1  0
 42 43  1  0
 43 44  1  0
 43 45  1  0
 43 46  1  0
 46 47  2  0
 47 48  1  0
 47 49  1  0
 49 50  1  0
 49 51  2  0
 51 52  1  0
 51 53  1  0
 53 54  1  0
 53 55  2  0
 55 56  1  0
 42  3  1  0
 55 46  1  0
 19 10  1  0
 41 27  2  0
 39 30  1  0
M  CHG  1   7  -1
M  END
>  <UniqueID>  (69) 
103

>  <SMILES>  (69) 
[H]/N=c1\c(C(=O)[N-][C@@H](C)c2ccccc2)cc2c(=O)n3cc(Cl)ccc3nc2n1Cc1ccccc1

>  <Energy>  (69) 
83.12217000565826

>  <Genealogy>  (69) 
C[C@H]([N-]C(=O)c1cc2c(=O)n3cc(Cl)ccc3nc2n(Cc2ccccc2)c1=N)c1ccccc1 (protonated)
[H]/N=c1\c(C(=O)[N-][C@@H](C)c2ccccc2)cc2c(=O)n3cc(Cl)ccc3nc2n1Cc1ccccc1 (cis-trans isomerization)
[H]/N=c1\c(C(=O)[N-][C@@H](C)c2ccccc2)cc2c(=O)n3cc(Cl)ccc3nc2n1Cc1ccccc1 (3D coordinates assigned)
[H]/N=c1\c(C(=O)[N-][C@@H](C)c2ccccc2)cc2c(=O)n3cc(Cl)ccc3nc2n1Cc1ccccc1 (optimized conformer: 83.12217000565826 kcal/mol)

>  <smiles>  (69) 
C[C@H](NC(=O)c1cc2c(=O)n3cc(Cl)ccc3nc2n(Cc2ccccc2)c1=N)c1ccccc1

>  <score_type>  (69) 
oracle

>  <origin>  (69) 
autodockgpu

>  <m_score__min__energy>  (69) 
-8.75

>  <m_primary>  (69) 
energy

>  <meeko>  (69) 
{"free_energy": -7.98, "intermolecular_energy": -10.07, "internal_energy": -1.88, "cluster_size": 2, "cluster_id": 8, "rank_in_cluster": 2}

>  <energy>  (69) 
-8.36

>  <cluster_rmsd>  (69) 
0.42

>  <rmsd>  (69) 
270.23

>  <cluster>  (69) 
3

$$$$
BLHILRPTNSSYME-JHJFBCDHNA-M
     RDKit          3D

 56 60  0  0  0  0  0  0  0  0999 V2000
  139.3530   73.9380  223.1120 H   0  0  0  0  0  0  0  0  0  0  0  0
  139.6390   74.7500  222.5210 N   0  0  0  0  0  0  0  0  0  0  0  0
  140.4360   74.6730  221.4940 C   0  0  0  0  0  0  0  0  0  0  0  0
  141.1470   73.4770  221.2320 C   0  0  0  0  0  0  0  0  0  0  0  0
  141.0160   72.2760  222.0770 C   0  0  0  0  0  0  0  0  0  0  0  0
  141.2820   71.1510  221.5780 O   0  0  0  0  0  0  0  0  0  0  0  0
  140.5510   72.3390  223.4340 N   0  0  0  0  0  0  0  0  0  0  0  0
  139.5690   71.4690  224.0920 C   0  0  2  0  0  0  0  0  0  0  0  0
  138.6511   72.0386  224.2993 H   0  0  0  0  0  0  0  0  0  0  0  0
  140.0450   71.0260  225.4690 C   0  0  0  0  0  0  0  0  0  0  0  0
  140.7220   71.8850  226.3640 C   0  0  0  0  0  0  0  0  0  0  0  0
  140.9422   72.9206  226.0657 H   0  0  0  0  0  0  0  0  0  0  0  0
  141.1140   71.4280  227.6260 C   0  0  0  0  0  0  0  0  0  0  0  0
  141.6356   72.1060  228.3176 H   0  0  0  0  0  0  0  0  0  0  0  0
  140.8450   70.1140  228.0100 C   0  0  0  0  0  0  0  0  0  0  0  0
  141.1546   69.7574  229.0035 H   0  0  0  0  0  0  0  0  0  0  0  0
  140.1830   69.2510  227.1340 C   0  0  0  0  0  0  0  0  0  0  0  0
  139.9737   68.2146  227.4373 H   0  0  0  0  0  0  0  0  0  0  0  0
  139.7860   69.7030  225.8720 C   0  0  0  0  0  0  0  0  0  0  0  0
  139.2658   69.0173  225.1870 H   0  0  0  0  0  0  0  0  0  0  0  0
  139.1410   70.3370  223.1490 C   0  0  0  0  0  0  0  0  0  0  0  0
  138.8133   69.4702  223.7417 H   0  0  0  0  0  0  0  0  0  0  0  0
  138.3113   70.6822  222.5146 H   0  0  0  0  0  0  0  0  0  0  0  0
  139.9915   70.0469  222.5146 H   0  0  0  0  0  0  0  0  0  0  0  0
  142.0490   73.4370  220.1710 C   0  0  0  0  0  0  0  0  0  0  0  0
  142.6517   72.5330  219.9991 H   0  0  0  0  0  0  0  0  0  0  0  0
  142.1920   74.5380  219.3250 C   0  0  0  0  0  0  0  0  0  0  0  0
  143.0600   74.5170  218.2140 C   0  0  0  0  0  0  0  0  0  0  0  0
  143.7450   73.4820  217.9790 O   0  0  0  0  0  0  0  0  0  0  0  0
  143.1530   75.6140  217.3930 N   0  0  0  0  0  0  0  0  0  0  0  0
  143.9890   75.6050  216.3030 C   0  0  0  0  0  0  0  0  0  0  0  0
  144.5893   74.7092  216.0860 H   0  0  0  0  0  0  0  0  0  0  0  0
  144.0860   76.7210  215.4660 C   0  0  0  0  0  0  0  0  0  0  0  0
  145.1580   76.6940  214.0770 Cl  0  0  0  0  0  0  0  0  0  0  0  0
  143.3270   77.8540  215.7430 C   0  0  0  0  0  0  0  0  0  0  0  0
  143.3963   78.7380  215.0920 H   0  0  0  0  0  0  0  0  0  0  0  0
  142.4800   77.8640  216.8470 C   0  0  0  0  0  0  0  0  0  0  0  0
  141.8770   78.7556  217.0737 H   0  0  0  0  0  0  0  0  0  0  0  0
  142.4000   76.7330  217.6670 C   0  0  0  0  0  0  0  0  0  0  0  0
  141.5680   76.7550  218.7370 N   0  0  0  0  0  0  0  0  0  0  0  0
  141.4360   75.6950  219.5760 C   0  0  0  0  0  0  0  0  0  0  0  0
  140.5820   75.7590  220.6550 N   0  0  0  0  0  0  0  0  0  0  0  0
  139.8490   77.0200  220.9170 C   0  0  0  0  0  0  0  0  0  0  0  0
  139.5354   77.4618  219.9597 H   0  0  0  0  0  0  0  0  0  0  0  0
  138.9693   76.7970  221.5386 H   0  0  0  0  0  0  0  0  0  0  0  0
  140.7280   78.0000  221.6510 C   0  0  0  0  0  0  0  0  0  0  0  0
  141.2950   79.0950  220.9760 C   0  0  0  0  0  0  0  0  0  0  0  0
  141.0821   79.2492  219.9079 H   0  0  0  0  0  0  0  0  0  0  0  0
  142.1280   79.9890  221.6550 C   0  0  0  0  0  0  0  0  0  0  0  0
  142.5669   80.8446  221.1209 H   0  0  0  0  0  0  0  0  0  0  0  0
  142.4040   79.7970  223.0120 C   0  0  0  0  0  0  0  0  0  0  0  0
  143.0613   80.5002  223.5444 H   0  0  0  0  0  0  0  0  0  0  0  0
  141.8450   78.7120  223.6920 C   0  0  0  0  0  0  0  0  0  0  0  0
  142.0608   78.5623  224.7602 H   0  0  0  0  0  0  0  0  0  0  0  0
  141.0110   77.8160  223.0150 C   0  0  0  0  0  0  0  0  0  0  0  0
  140.5741   76.9622  223.5537 H   0  0  0  0  0  0  0  0  0  0  0  0
  1  2  1  0
  2  3  2  0
  3  4  1  0
  4  5  1  0
  5  6  2  0
  5  7  1  0
  7  8  1  0
  8  9  1  1
  8 10  1  0
 10 11  2  0
 11 12  1  0
 11 13  1  0
 13 14  1  0
 13 15  2  0
 15 16  1  0
 15 17  1  0
 17 18  1  0
 17 19  2  0
 19 20  1  0
  8 21  1  0
 21 22  1  0
 21 23  1  0
 21 24  1  0
  4 25  2  0
 25 26  1  0
 25 27  1  0
 27 28  1  0
 28 29  2  0
 28 30  1  0
 30 31  1  0
 31 32  1  0
 31 33  2  0
 33 34  1  0
 33 35  1  0
 35 36  1  0
 35 37  2  0
 37 38  1  0
 37 39  1  0
 39 40  2  0
 40 41  1  0
 41 42  1  0
 42 43  1  0
 43 44  1  0
 43 45  1  0
 43 46  1  0
 46 47  2  0
 47 48  1  0
 47 49  1  0
 49 50  1  0
 49 51  2  0
 51 52  1  0
 51 53  1  0
 53 54  1  0
 53 55  2  0
 55 56  1  0
 42  3  1  0
 55 46  1  0
 19 10  1  0
 41 27  2  0
 39 30  1  0
M  CHG  1   7  -1
M  END
>  <UniqueID>  (70) 
103

>  <SMILES>  (70) 
[H]/N=c1\c(C(=O)[N-][C@@H](C)c2ccccc2)cc2c(=O)n3cc(Cl)ccc3nc2n1Cc1ccccc1

>  <Energy>  (70) 
83.12217000565826

>  <Genealogy>  (70) 
C[C@H]([N-]C(=O)c1cc2c(=O)n3cc(Cl)ccc3nc2n(Cc2ccccc2)c1=N)c1ccccc1 (protonated)
[H]/N=c1\c(C(=O)[N-][C@@H](C)c2ccccc2)cc2c(=O)n3cc(Cl)ccc3nc2n1Cc1ccccc1 (cis-trans isomerization)
[H]/N=c1\c(C(=O)[N-][C@@H](C)c2ccccc2)cc2c(=O)n3cc(Cl)ccc3nc2n1Cc1ccccc1 (3D coordinates assigned)
[H]/N=c1\c(C(=O)[N-][C@@H](C)c2ccccc2)cc2c(=O)n3cc(Cl)ccc3nc2n1Cc1ccccc1 (optimized conformer: 83.12217000565826 kcal/mol)

>  <smiles>  (70) 
C[C@H](NC(=O)c1cc2c(=O)n3cc(Cl)ccc3nc2n(Cc2ccccc2)c1=N)c1ccccc1

>  <score_type>  (70) 
oracle

>  <origin>  (70) 
autodockgpu

>  <m_score__min__energy>  (70) 
-8.75

>  <m_primary>  (70) 
energy

>  <meeko>  (70) 
{"free_energy": -8.62, "intermolecular_energy": -10.71, "internal_energy": -1.67, "cluster_size": 5, "cluster_id": 2, "rank_in_cluster": 3}

>  <energy>  (70) 
-8.23

>  <cluster_rmsd>  (70) 
0.53

>  <rmsd>  (70) 
270.22

>  <cluster>  (70) 
3

$$$$
BLHILRPTNSSYME-JHJFBCDHNA-M
     RDKit          3D

 56 60  0  0  0  0  0  0  0  0999 V2000
  136.6540   68.1900  225.5950 H   0  0  0  0  0  0  0  0  0  0  0  0
  137.4920   68.7420  225.3070 N   0  0  0  0  0  0  0  0  0  0  0  0
  137.4550   69.8000  224.5480 C   0  0  0  0  0  0  0  0  0  0  0  0
  136.2120   70.3340  224.1310 C   0  0  0  0  0  0  0  0  0  0  0  0
  134.9210   69.7480  224.5350 C   0  0  0  0  0  0  0  0  0  0  0  0
  134.7930   68.4950  224.5250 O   0  0  0  0  0  0  0  0  0  0  0  0
  133.7910   70.5560  224.8950 N   0  0  0  0  0  0  0  0  0  0  0  0
  133.4860   71.1490  226.2020 C   0  0  2  0  0  0  0  0  0  0  0  0
  132.4334   70.9570  226.4572 H   0  0  0  0  0  0  0  0  0  0  0  0
  133.5840   72.6690  226.1670 C   0  0  0  0  0  0  0  0  0  0  0  0
  132.7380   73.5130  226.9230 C   0  0  0  0  0  0  0  0  0  0  0  0
  131.9553   73.0742  227.5592 H   0  0  0  0  0  0  0  0  0  0  0  0
  132.8900   74.9010  226.8670 C   0  0  0  0  0  0  0  0  0  0  0  0
  132.2297   75.5494  227.4616 H   0  0  0  0  0  0  0  0  0  0  0  0
  133.8770   75.4670  226.0590 C   0  0  0  0  0  0  0  0  0  0  0  0
  133.9943   76.5600  226.0182 H   0  0  0  0  0  0  0  0  0  0  0  0
  134.7160   74.6460  225.3020 C   0  0  0  0  0  0  0  0  0  0  0  0
  135.4919   75.0933  224.6633 H   0  0  0  0  0  0  0  0  0  0  0  0
  134.5710   73.2570  225.3550 C   0  0  0  0  0  0  0  0  0  0  0  0
  135.2353   72.6170  224.7557 H   0  0  0  0  0  0  0  0  0  0  0  0
  134.3040   70.4640  227.3040 C   0  0  0  0  0  0  0  0  0  0  0  0
  133.9283   70.7786  228.2888 H   0  0  0  0  0  0  0  0  0  0  0  0
  134.2085   69.3725  227.2067 H   0  0  0  0  0  0  0  0  0  0  0  0
  135.3618   70.7497  227.2067 H   0  0  0  0  0  0  0  0  0  0  0  0
  136.1930   71.4220  223.2600 C   0  0  0  0  0  0  0  0  0  0  0  0
  135.2333   71.8026  222.8805 H   0  0  0  0  0  0  0  0  0  0  0  0
  137.3860   72.0310  222.8670 C   0  0  0  0  0  0  0  0  0  0  0  0
  137.4040   73.1610  222.0250 C   0  0  0  0  0  0  0  0  0  0  0  0
  136.3150   73.6350  221.5960 O   0  0  0  0  0  0  0  0  0  0  0  0
  138.6000   73.7440  221.6810 N   0  0  0  0  0  0  0  0  0  0  0  0
  138.6320   74.8510  220.8680 C   0  0  0  0  0  0  0  0  0  0  0  0
  137.6899   75.2750  220.4902 H   0  0  0  0  0  0  0  0  0  0  0  0
  139.8470   75.4450  220.5150 C   0  0  0  0  0  0  0  0  0  0  0  0
  139.8730   76.8590  219.4770 Cl  0  0  0  0  0  0  0  0  0  0  0  0
  141.0390   74.9070  220.9940 C   0  0  0  0  0  0  0  0  0  0  0  0
  142.0010   75.3662  220.7227 H   0  0  0  0  0  0  0  0  0  0  0  0
  141.0070   73.7850  221.8180 C   0  0  0  0  0  0  0  0  0  0  0  0
  141.9434   73.3525  222.2002 H   0  0  0  0  0  0  0  0  0  0  0  0
  139.7770   73.2110  222.1570 C   0  0  0  0  0  0  0  0  0  0  0  0
  139.7600   72.1220  222.9630 N   0  0  0  0  0  0  0  0  0  0  0  0
  138.6050   71.5120  223.3360 C   0  0  0  0  0  0  0  0  0  0  0  0
  138.6310   70.4040  224.1540 N   0  0  0  0  0  0  0  0  0  0  0  0
  139.9410   69.8560  224.5780 C   0  0  0  0  0  0  0  0  0  0  0  0
  139.8620   68.7629  224.6726 H   0  0  0  0  0  0  0  0  0  0  0  0
  140.6965   70.1192  223.8230 H   0  0  0  0  0  0  0  0  0  0  0  0
  140.3560   70.4390  225.9040 C   0  0  0  0  0  0  0  0  0  0  0  0
  140.1010   69.7450  227.1000 C   0  0  0  0  0  0  0  0  0  0  0  0
  139.6121   68.7601  227.0679 H   0  0  0  0  0  0  0  0  0  0  0  0
  140.4660   70.3010  228.3300 C   0  0  0  0  0  0  0  0  0  0  0  0
  140.2643   69.7527  229.2620 H   0  0  0  0  0  0  0  0  0  0  0  0
  141.0870   71.5530  228.3770 C   0  0  0  0  0  0  0  0  0  0  0  0
  141.3732   71.9892  229.3454 H   0  0  0  0  0  0  0  0  0  0  0  0
  141.3440   72.2500  227.1930 C   0  0  0  0  0  0  0  0  0  0  0  0
  141.8331   73.2346  227.2302 H   0  0  0  0  0  0  0  0  0  0  0  0
  140.9800   71.6970  225.9610 C   0  0  0  0  0  0  0  0  0  0  0  0
  141.1832   72.2496  225.0318 H   0  0  0  0  0  0  0  0  0  0  0  0
  1  2  1  0
  2  3  2  0
  3  4  1  0
  4  5  1  0
  5  6  2  0
  5  7  1  0
  7  8  1  0
  8  9  1  1
  8 10  1  0
 10 11  2  0
 11 12  1  0
 11 13  1  0
 13 14  1  0
 13 15  2  0
 15 16  1  0
 15 17  1  0
 17 18  1  0
 17 19  2  0
 19 20  1  0
  8 21  1  0
 21 22  1  0
 21 23  1  0
 21 24  1  0
  4 25  2  0
 25 26  1  0
 25 27  1  0
 27 28  1  0
 28 29  2  0
 28 30  1  0
 30 31  1  0
 31 32  1  0
 31 33  2  0
 33 34  1  0
 33 35  1  0
 35 36  1  0
 35 37  2  0
 37 38  1  0
 37 39  1  0
 39 40  2  0
 40 41  1  0
 41 42  1  0
 42 43  1  0
 43 44  1  0
 43 45  1  0
 43 46  1  0
 46 47  2  0
 47 48  1  0
 47 49  1  0
 49 50  1  0
 49 51  2  0
 51 52  1  0
 51 53  1  0
 53 54  1  0
 53 55  2  0
 55 56  1  0
 42  3  1  0
 55 46  1  0
 19 10  1  0
 41 27  2  0
 39 30  1  0
M  CHG  1   7  -1
M  END
>  <UniqueID>  (71) 
103

>  <SMILES>  (71) 
[H]/N=c1\c(C(=O)[N-][C@@H](C)c2ccccc2)cc2c(=O)n3cc(Cl)ccc3nc2n1Cc1ccccc1

>  <Energy>  (71) 
83.12217000565826

>  <Genealogy>  (71) 
C[C@H]([N-]C(=O)c1cc2c(=O)n3cc(Cl)ccc3nc2n(Cc2ccccc2)c1=N)c1ccccc1 (protonated)
[H]/N=c1\c(C(=O)[N-][C@@H](C)c2ccccc2)cc2c(=O)n3cc(Cl)ccc3nc2n1Cc1ccccc1 (cis-trans isomerization)
[H]/N=c1\c(C(=O)[N-][C@@H](C)c2ccccc2)cc2c(=O)n3cc(Cl)ccc3nc2n1Cc1ccccc1 (3D coordinates assigned)
[H]/N=c1\c(C(=O)[N-][C@@H](C)c2ccccc2)cc2c(=O)n3cc(Cl)ccc3nc2n1Cc1ccccc1 (optimized conformer: 83.12217000565826 kcal/mol)

>  <smiles>  (71) 
C[C@H](NC(=O)c1cc2c(=O)n3cc(Cl)ccc3nc2n(Cc2ccccc2)c1=N)c1ccccc1

>  <score_type>  (71) 
oracle

>  <origin>  (71) 
autodockgpu

>  <m_score__min__energy>  (71) 
-8.75

>  <m_primary>  (71) 
energy

>  <meeko>  (71) 
{"free_energy": -8.14, "intermolecular_energy": -10.23, "internal_energy": -2.22, "cluster_size": 3, "cluster_id": 6, "rank_in_cluster": 1}

>  <energy>  (71) 
-8.34

>  <cluster_rmsd>  (71) 
0.0

>  <rmsd>  (71) 
269.68

>  <cluster>  (71) 
4

$$$$
BLHILRPTNSSYME-JHJFBCDHNA-M
     RDKit          3D

 56 60  0  0  0  0  0  0  0  0999 V2000
  139.3770   74.0950  223.0950 H   0  0  0  0  0  0  0  0  0  0  0  0
  139.6560   74.8500  222.4290 N   0  0  0  0  0  0  0  0  0  0  0  0
  140.4870   74.6930  221.4390 C   0  0  0  0  0  0  0  0  0  0  0  0
  141.1650   73.4620  221.2670 C   0  0  0  0  0  0  0  0  0  0  0  0
  140.9630   72.3120  222.1680 C   0  0  0  0  0  0  0  0  0  0  0  0
  141.3210   71.1690  221.7820 O   0  0  0  0  0  0  0  0  0  0  0  0
  140.3290   72.4440  223.4490 N   0  0  0  0  0  0  0  0  0  0  0  0
  139.4550   71.4790  224.1260 C   0  0  2  0  0  0  0  0  0  0  0  0
  138.5172   71.9733  224.4195 H   0  0  0  0  0  0  0  0  0  0  0  0
  140.0520   71.0100  225.4470 C   0  0  0  0  0  0  0  0  0  0  0  0
  140.6890   71.8840  226.3580 C   0  0  0  0  0  0  0  0  0  0  0  0
  140.7852   72.9523  226.1142 H   0  0  0  0  0  0  0  0  0  0  0  0
  141.1970   71.3990  227.5660 C   0  0  0  0  0  0  0  0  0  0  0  0
  141.6869   72.0874  228.2704 H   0  0  0  0  0  0  0  0  0  0  0  0
  141.0850   70.0440  227.8820 C   0  0  0  0  0  0  0  0  0  0  0  0
  141.4854   69.6661  228.8343 H   0  0  0  0  0  0  0  0  0  0  0  0
  140.4640   69.1680  226.9880 C   0  0  0  0  0  0  0  0  0  0  0  0
  140.3786   68.0997  227.2359 H   0  0  0  0  0  0  0  0  0  0  0  0
  139.9510   69.6470  225.7790 C   0  0  0  0  0  0  0  0  0  0  0  0
  139.4635   68.9510  225.0804 H   0  0  0  0  0  0  0  0  0  0  0  0
  139.0410   70.3620  223.1590 C   0  0  0  0  0  0  0  0  0  0  0  0
  138.7149   69.4822  223.7331 H   0  0  0  0  0  0  0  0  0  0  0  0
  138.2135   70.7136  222.5253 H   0  0  0  0  0  0  0  0  0  0  0  0
  139.8978   70.0894  222.5253 H   0  0  0  0  0  0  0  0  0  0  0  0
  142.1040   73.3370  220.2450 C   0  0  0  0  0  0  0  0  0  0  0  0
  142.6820   72.4066  220.1439 H   0  0  0  0  0  0  0  0  0  0  0  0
  142.3150   74.3860  219.3490 C   0  0  0  0  0  0  0  0  0  0  0  0
  143.2220   74.2780  218.2750 C   0  0  0  0  0  0  0  0  0  0  0  0
  143.8800   73.2100  218.1200 O   0  0  0  0  0  0  0  0  0  0  0  0
  143.3830   75.3270  217.4020 N   0  0  0  0  0  0  0  0  0  0  0  0
  144.2570   75.2320  216.3470 C   0  0  0  0  0  0  0  0  0  0  0  0
  144.8330   74.3065  216.1998 H   0  0  0  0  0  0  0  0  0  0  0  0
  144.4230   76.2980  215.4580 C   0  0  0  0  0  0  0  0  0  0  0  0
  145.5430   76.1640  214.1140 Cl  0  0  0  0  0  0  0  0  0  0  0  0
  143.6930   77.4690  215.6450 C   0  0  0  0  0  0  0  0  0  0  0  0
  143.8156   78.3137  214.9512 H   0  0  0  0  0  0  0  0  0  0  0  0
  142.8070   77.5650  216.7150 C   0  0  0  0  0  0  0  0  0  0  0  0
  142.2276   78.4867  216.8724 H   0  0  0  0  0  0  0  0  0  0  0  0
  142.6580   76.4820  217.5890 C   0  0  0  0  0  0  0  0  0  0  0  0
  141.7890   76.5880  218.6230 N   0  0  0  0  0  0  0  0  0  0  0  0
  141.5910   75.5790  219.5110 C   0  0  0  0  0  0  0  0  0  0  0  0
  140.7010   75.7270  220.5510 N   0  0  0  0  0  0  0  0  0  0  0  0
  140.0020   77.0240  220.7190 C   0  0  0  0  0  0  0  0  0  0  0  0
  139.7950   77.4544  219.7281 H   0  0  0  0  0  0  0  0  0  0  0  0
  139.0612   76.8528  221.2627 H   0  0  0  0  0  0  0  0  0  0  0  0
  140.8530   77.9850  221.5090 C   0  0  0  0  0  0  0  0  0  0  0  0
  141.0580   77.7900  222.8860 C   0  0  0  0  0  0  0  0  0  0  0  0
  140.6104   76.9197  223.3883 H   0  0  0  0  0  0  0  0  0  0  0  0
  141.8280   78.6970  223.6200 C   0  0  0  0  0  0  0  0  0  0  0  0
  141.9848   78.5386  224.6972 H   0  0  0  0  0  0  0  0  0  0  0  0
  142.3990   79.8050  222.9870 C   0  0  0  0  0  0  0  0  0  0  0  0
  143.0043   80.5178  223.5662 H   0  0  0  0  0  0  0  0  0  0  0  0
  142.2010   80.0070  221.6190 C   0  0  0  0  0  0  0  0  0  0  0  0
  142.6507   80.8789  221.1215 H   0  0  0  0  0  0  0  0  0  0  0  0
  141.4310   79.1010  220.8810 C   0  0  0  0  0  0  0  0  0  0  0  0
  141.2775   79.2634  219.8039 H   0  0  0  0  0  0  0  0  0  0  0  0
  1  2  1  0
  2  3  2  0
  3  4  1  0
  4  5  1  0
  5  6  2  0
  5  7  1  0
  7  8  1  0
  8  9  1  1
  8 10  1  0
 10 11  2  0
 11 12  1  0
 11 13  1  0
 13 14  1  0
 13 15  2  0
 15 16  1  0
 15 17  1  0
 17 18  1  0
 17 19  2  0
 19 20  1  0
  8 21  1  0
 21 22  1  0
 21 23  1  0
 21 24  1  0
  4 25  2  0
 25 26  1  0
 25 27  1  0
 27 28  1  0
 28 29  2  0
 28 30  1  0
 30 31  1  0
 31 32  1  0
 31 33  2  0
 33 34  1  0
 33 35  1  0
 35 36  1  0
 35 37  2  0
 37 38  1  0
 37 39  1  0
 39 40  2  0
 40 41  1  0
 41 42  1  0
 42 43  1  0
 43 44  1  0
 43 45  1  0
 43 46  1  0
 46 47  2  0
 47 48  1  0
 47 49  1  0
 49 50  1  0
 49 51  2  0
 51 52  1  0
 51 53  1  0
 53 54  1  0
 53 55  2  0
 55 56  1  0
 42  3  1  0
 55 46  1  0
 19 10  1  0
 41 27  2  0
 39 30  1  0
M  CHG  1   7  -1
M  END
>  <UniqueID>  (72) 
103

>  <SMILES>  (72) 
[H]/N=c1\c(C(=O)[N-][C@@H](C)c2ccccc2)cc2c(=O)n3cc(Cl)ccc3nc2n1Cc1ccccc1

>  <Energy>  (72) 
83.12217000565826

>  <Genealogy>  (72) 
C[C@H]([N-]C(=O)c1cc2c(=O)n3cc(Cl)ccc3nc2n(Cc2ccccc2)c1=N)c1ccccc1 (protonated)
[H]/N=c1\c(C(=O)[N-][C@@H](C)c2ccccc2)cc2c(=O)n3cc(Cl)ccc3nc2n1Cc1ccccc1 (cis-trans isomerization)
[H]/N=c1\c(C(=O)[N-][C@@H](C)c2ccccc2)cc2c(=O)n3cc(Cl)ccc3nc2n1Cc1ccccc1 (3D coordinates assigned)
[H]/N=c1\c(C(=O)[N-][C@@H](C)c2ccccc2)cc2c(=O)n3cc(Cl)ccc3nc2n1Cc1ccccc1 (optimized conformer: 83.12217000565826 kcal/mol)

>  <smiles>  (72) 
C[C@H](NC(=O)c1cc2c(=O)n3cc(Cl)ccc3nc2n(Cc2ccccc2)c1=N)c1ccccc1

>  <score_type>  (72) 
oracle

>  <origin>  (72) 
autodockgpu

>  <m_score__min__energy>  (72) 
-8.75

>  <m_primary>  (72) 
energy

>  <meeko>  (72) 
{"free_energy": -8.71, "intermolecular_energy": -10.79, "internal_energy": -1.65, "cluster_size": 5, "cluster_id": 2, "rank_in_cluster": 2}

>  <energy>  (72) 
-8.17

>  <cluster_rmsd>  (72) 
0.0

>  <rmsd>  (72) 
270.32

>  <cluster>  (72) 
5

$$$$
BLHILRPTNSSYME-JHJFBCDHNA-M
     RDKit          3D

 56 60  0  0  0  0  0  0  0  0999 V2000
  144.2140   77.1550  219.9240 H   0  0  0  0  0  0  0  0  0  0  0  0
  144.0560   76.2030  219.5230 N   0  0  0  0  0  0  0  0  0  0  0  0
  143.2910   75.2950  220.0570 C   0  0  0  0  0  0  0  0  0  0  0  0
  143.8240   74.0320  220.4110 C   0  0  0  0  0  0  0  0  0  0  0  0
  145.2450   73.6880  220.2150 C   0  0  0  0  0  0  0  0  0  0  0  0
  146.1040   74.1980  220.9800 O   0  0  0  0  0  0  0  0  0  0  0  0
  145.6860   72.8300  219.1520 N   0  0  0  0  0  0  0  0  0  0  0  0
  144.8790   71.9110  218.3410 C   0  0  2  0  0  0  0  0  0  0  0  0
  143.8114   72.1353  218.4823 H   0  0  0  0  0  0  0  0  0  0  0  0
  145.0160   70.4710  218.8170 C   0  0  0  0  0  0  0  0  0  0  0  0
  146.2510   69.7820  218.8410 C   0  0  0  0  0  0  0  0  0  0  0  0
  147.1638   70.2838  218.4874 H   0  0  0  0  0  0  0  0  0  0  0  0
  146.3190   68.4680  219.3110 C   0  0  0  0  0  0  0  0  0  0  0  0
  147.2851   67.9424  219.3312 H   0  0  0  0  0  0  0  0  0  0  0  0
  145.1650   67.8200  219.7550 C   0  0  0  0  0  0  0  0  0  0  0  0
  145.2222   66.7854  220.1243 H   0  0  0  0  0  0  0  0  0  0  0  0
  143.9380   68.4860  219.7300 C   0  0  0  0  0  0  0  0  0  0  0  0
  143.0284   67.9739  220.0770 H   0  0  0  0  0  0  0  0  0  0  0  0
  143.8630   69.8020  219.2650 C   0  0  0  0  0  0  0  0  0  0  0  0
  142.8925   70.3195  219.2493 H   0  0  0  0  0  0  0  0  0  0  0  0
  145.1490   72.1380  216.8480 C   0  0  0  0  0  0  0  0  0  0  0  0
  145.9861   72.8418  216.7296 H   0  0  0  0  0  0  0  0  0  0  0  0
  145.4052   71.1800  216.3719 H   0  0  0  0  0  0  0  0  0  0  0  0
  144.2493   72.5550  216.3719 H   0  0  0  0  0  0  0  0  0  0  0  0
  142.9750   73.0480  220.9140 C   0  0  0  0  0  0  0  0  0  0  0  0
  143.3691   72.0442  221.1309 H   0  0  0  0  0  0  0  0  0  0  0  0
  141.6280   73.3290  221.1440 C   0  0  0  0  0  0  0  0  0  0  0  0
  140.7500   72.3740  221.6950 C   0  0  0  0  0  0  0  0  0  0  0  0
  141.1830   71.2220  221.9780 O   0  0  0  0  0  0  0  0  0  0  0  0
  139.4350   72.7000  221.9260 N   0  0  0  0  0  0  0  0  0  0  0  0
  138.5710   71.7810  222.4700 C   0  0  0  0  0  0  0  0  0  0  0  0
  138.9362   70.7747  222.7228 H   0  0  0  0  0  0  0  0  0  0  0  0
  137.2330   72.1100  222.7060 C   0  0  0  0  0  0  0  0  0  0  0  0
  136.1400   70.9270  223.4020 Cl  0  0  0  0  0  0  0  0  0  0  0  0
  136.7720   73.3840  222.3840 C   0  0  0  0  0  0  0  0  0  0  0  0
  135.7210   73.6535  222.5649 H   0  0  0  0  0  0  0  0  0  0  0  0
  137.6480   74.3150  221.8320 C   0  0  0  0  0  0  0  0  0  0  0  0
  137.2924   75.3231  221.5727 H   0  0  0  0  0  0  0  0  0  0  0  0
  138.9830   73.9610  221.6090 C   0  0  0  0  0  0  0  0  0  0  0  0
  139.8250   74.8780  221.0750 N   0  0  0  0  0  0  0  0  0  0  0  0
  141.1340   74.6070  220.8310 C   0  0  0  0  0  0  0  0  0  0  0  0
  141.9570   75.5660  220.2840 N   0  0  0  0  0  0  0  0  0  0  0  0
  141.3810   76.8810  219.9160 C   0  0  0  0  0  0  0  0  0  0  0  0
  141.9505   77.3024  219.0745 H   0  0  0  0  0  0  0  0  0  0  0  0
  140.3283   76.7396  219.6301 H   0  0  0  0  0  0  0  0  0  0  0  0
  141.4440   77.8330  221.0830 C   0  0  0  0  0  0  0  0  0  0  0  0
  141.8620   79.1620  220.8980 C   0  0  0  0  0  0  0  0  0  0  0  0
  142.1275   79.5171  219.8913 H   0  0  0  0  0  0  0  0  0  0  0  0
  141.9420   80.0350  221.9870 C   0  0  0  0  0  0  0  0  0  0  0  0
  142.2691   81.0742  221.8352 H   0  0  0  0  0  0  0  0  0  0  0  0
  141.6070   79.5890  223.2680 C   0  0  0  0  0  0  0  0  0  0  0  0
  141.6709   80.2772  224.1237 H   0  0  0  0  0  0  0  0  0  0  0  0
  141.1910   78.2700  223.4630 C   0  0  0  0  0  0  0  0  0  0  0  0
  140.9271   77.9199  224.4719 H   0  0  0  0  0  0  0  0  0  0  0  0
  141.1100   77.3940  222.3750 C   0  0  0  0  0  0  0  0  0  0  0  0
  140.7829   76.3556  222.5322 H   0  0  0  0  0  0  0  0  0  0  0  0
  1  2  1  0
  2  3  2  0
  3  4  1  0
  4  5  1  0
  5  6  2  0
  5  7  1  0
  7  8  1  0
  8  9  1  6
  8 10  1  0
 10 11  2  0
 11 12  1  0
 11 13  1  0
 13 14  1  0
 13 15  2  0
 15 16  1  0
 15 17  1  0
 17 18  1  0
 17 19  2  0
 19 20  1  0
  8 21  1  0
 21 22  1  0
 21 23  1  0
 21 24  1  0
  4 25  2  0
 25 26  1  0
 25 27  1  0
 27 28  1  0
 28 29  2  0
 28 30  1  0
 30 31  1  0
 31 32  1  0
 31 33  2  0
 33 34  1  0
 33 35  1  0
 35 36  1  0
 35 37  2  0
 37 38  1  0
 37 39  1  0
 39 40  2  0
 40 41  1  0
 41 42  1  0
 42 43  1  0
 43 44  1  0
 43 45  1  0
 43 46  1  0
 46 47  2  0
 47 48  1  0
 47 49  1  0
 49 50  1  0
 49 51  2  0
 51 52  1  0
 51 53  1  0
 53 54  1  0
 53 55  2  0
 55 56  1  0
 42  3  1  0
 55 46  1  0
 19 10  1  0
 41 27  2  0
 39 30  1  0
M  CHG  1   7  -1
M  END
>  <UniqueID>  (73) 
103

>  <SMILES>  (73) 
[H]/N=c1\c(C(=O)[N-][C@@H](C)c2ccccc2)cc2c(=O)n3cc(Cl)ccc3nc2n1Cc1ccccc1

>  <Energy>  (73) 
83.12217000565826

>  <Genealogy>  (73) 
C[C@H]([N-]C(=O)c1cc2c(=O)n3cc(Cl)ccc3nc2n(Cc2ccccc2)c1=N)c1ccccc1 (protonated)
[H]/N=c1\c(C(=O)[N-][C@@H](C)c2ccccc2)cc2c(=O)n3cc(Cl)ccc3nc2n1Cc1ccccc1 (cis-trans isomerization)
[H]/N=c1\c(C(=O)[N-][C@@H](C)c2ccccc2)cc2c(=O)n3cc(Cl)ccc3nc2n1Cc1ccccc1 (3D coordinates assigned)
[H]/N=c1\c(C(=O)[N-][C@@H](C)c2ccccc2)cc2c(=O)n3cc(Cl)ccc3nc2n1Cc1ccccc1 (optimized conformer: 83.12217000565826 kcal/mol)

>  <smiles>  (73) 
C[C@H](NC(=O)c1cc2c(=O)n3cc(Cl)ccc3nc2n(Cc2ccccc2)c1=N)c1ccccc1

>  <score_type>  (73) 
oracle

>  <origin>  (73) 
autodockgpu

>  <m_score__min__energy>  (73) 
-8.75

>  <m_primary>  (73) 
energy

>  <meeko>  (73) 
{"free_energy": -8.34, "intermolecular_energy": -10.43, "internal_energy": -1.31, "cluster_size": 1, "cluster_id": 4, "rank_in_cluster": 1}

>  <energy>  (73) 
-8.14

>  <cluster_rmsd>  (73) 
0.0

>  <rmsd>  (73) 
269.74

>  <cluster>  (73) 
6

$$$$
BLHILRPTNSSYME-JHJFBCDHNA-M
     RDKit          3D

 56 60  0  0  0  0  0  0  0  0999 V2000
  140.8060   70.1760  220.4940 H   0  0  0  0  0  0  0  0  0  0  0  0
  141.1880   71.0990  220.1870 N   0  0  0  0  0  0  0  0  0  0  0  0
  140.8340   72.2480  220.6880 C   0  0  0  0  0  0  0  0  0  0  0  0
  139.8760   72.3080  221.7280 C   0  0  0  0  0  0  0  0  0  0  0  0
  139.2520   71.1010  222.3020 C   0  0  0  0  0  0  0  0  0  0  0  0
  138.1190   70.7480  221.8840 O   0  0  0  0  0  0  0  0  0  0  0  0
  139.8700   70.3430  223.3520 N   0  0  0  0  0  0  0  0  0  0  0  0
  139.2680   69.8910  224.6120 C   0  0  2  0  0  0  0  0  0  0  0  0
  138.2297   70.2488  224.6741 H   0  0  0  0  0  0  0  0  0  0  0  0
  139.9460   70.5250  225.8190 C   0  0  0  0  0  0  0  0  0  0  0  0
  140.8040   71.6450  225.7210 C   0  0  0  0  0  0  0  0  0  0  0  0
  141.0196   72.0832  224.7354 H   0  0  0  0  0  0  0  0  0  0  0  0
  141.3800   72.1990  226.8680 C   0  0  0  0  0  0  0  0  0  0  0  0
  142.0419   73.0734  226.7822 H   0  0  0  0  0  0  0  0  0  0  0  0
  141.1170   71.6450  228.1220 C   0  0  0  0  0  0  0  0  0  0  0  0
  141.5711   72.0833  229.0229 H   0  0  0  0  0  0  0  0  0  0  0  0
  140.2780   70.5350  228.2330 C   0  0  0  0  0  0  0  0  0  0  0  0
  140.0742   70.0976  229.2215 H   0  0  0  0  0  0  0  0  0  0  0  0
  139.6960   69.9780  227.0900 C   0  0  0  0  0  0  0  0  0  0  0  0
  139.0360   69.1032  227.1861 H   0  0  0  0  0  0  0  0  0  0  0  0
  139.1740   68.3600  224.6400 C   0  0  0  0  0  0  0  0  0  0  0  0
  139.1527   68.0130  225.6836 H   0  0  0  0  0  0  0  0  0  0  0  0
  138.2545   68.0397  224.1282 H   0  0  0  0  0  0  0  0  0  0  0  0
  140.0474   67.9296  224.1282 H   0  0  0  0  0  0  0  0  0  0  0  0
  139.4570   73.5500  222.2010 C   0  0  0  0  0  0  0  0  0  0  0  0
  138.6669   73.6067  222.9643 H   0  0  0  0  0  0  0  0  0  0  0  0
  140.0350   74.7230  221.7110 C   0  0  0  0  0  0  0  0  0  0  0  0
  139.6700   75.9940  222.1980 C   0  0  0  0  0  0  0  0  0  0  0  0
  138.7840   76.0860  223.0940 O   0  0  0  0  0  0  0  0  0  0  0  0
  140.2800   77.1220  221.7050 N   0  0  0  0  0  0  0  0  0  0  0  0
  139.9400   78.3660  222.1760 C   0  0  0  0  0  0  0  0  0  0  0  0
  139.1712   78.4597  222.9571 H   0  0  0  0  0  0  0  0  0  0  0  0
  140.5590   79.5150  221.6750 C   0  0  0  0  0  0  0  0  0  0  0  0
  140.1150   81.0980  222.2870 Cl  0  0  0  0  0  0  0  0  0  0  0  0
  141.5310   79.3950  220.6850 C   0  0  0  0  0  0  0  0  0  0  0  0
  142.0243   80.2922  220.2829 H   0  0  0  0  0  0  0  0  0  0  0  0
  141.8750   78.1340  220.2070 C   0  0  0  0  0  0  0  0  0  0  0  0
  142.6408   78.0295  219.4243 H   0  0  0  0  0  0  0  0  0  0  0  0
  141.2420   77.0000  220.7270 C   0  0  0  0  0  0  0  0  0  0  0  0
  141.5900   75.7780  220.2550 N   0  0  0  0  0  0  0  0  0  0  0  0
  141.0210   74.6330  220.7130 C   0  0  0  0  0  0  0  0  0  0  0  0
  141.4000   73.4110  220.2050 N   0  0  0  0  0  0  0  0  0  0  0  0
  142.4010   73.3670  219.1130 C   0  0  0  0  0  0  0  0  0  0  0  0
  142.2562   72.4477  218.5265 H   0  0  0  0  0  0  0  0  0  0  0  0
  142.2670   74.2515  218.4729 H   0  0  0  0  0  0  0  0  0  0  0  0
  143.7990   73.3810  219.6750 C   0  0  0  0  0  0  0  0  0  0  0  0
  144.2860   74.5150  220.3490 C   0  0  0  0  0  0  0  0  0  0  0  0
  143.6363   75.3922  220.4843 H   0  0  0  0  0  0  0  0  0  0  0  0
  145.5920   74.5330  220.8480 C   0  0  0  0  0  0  0  0  0  0  0  0
  145.9665   75.4233  221.3745 H   0  0  0  0  0  0  0  0  0  0  0  0
  146.4220   73.4220  220.6790 C   0  0  0  0  0  0  0  0  0  0  0  0
  147.4492   73.4379  221.0723 H   0  0  0  0  0  0  0  0  0  0  0  0
  145.9470   72.2900  220.0100 C   0  0  0  0  0  0  0  0  0  0  0  0
  146.6011   71.4157  219.8770 H   0  0  0  0  0  0  0  0  0  0  0  0
  144.6420   72.2680  219.5100 C   0  0  0  0  0  0  0  0  0  0  0  0
  144.2725   71.3750  218.9845 H   0  0  0  0  0  0  0  0  0  0  0  0
  1  2  1  0
  2  3  2  0
  3  4  1  0
  4  5  1  0
  5  6  2  0
  5  7  1  0
  7  8  1  0
  8  9  1  6
  8 10  1  0
 10 11  2  0
 11 12  1  0
 11 13  1  0
 13 14  1  0
 13 15  2  0
 15 16  1  0
 15 17  1  0
 17 18  1  0
 17 19  2  0
 19 20  1  0
  8 21  1  0
 21 22  1  0
 21 23  1  0
 21 24  1  0
  4 25  2  0
 25 26  1  0
 25 27  1  0
 27 28  1  0
 28 29  2  0
 28 30  1  0
 30 31  1  0
 31 32  1  0
 31 33  2  0
 33 34  1  0
 33 35  1  0
 35 36  1  0
 35 37  2  0
 37 38  1  0
 37 39  1  0
 39 40  2  0
 40 41  1  0
 41 42  1  0
 42 43  1  0
 43 44  1  0
 43 45  1  0
 43 46  1  0
 46 47  2  0
 47 48  1  0
 47 49  1  0
 49 50  1  0
 49 51  2  0
 51 52  1  0
 51 53  1  0
 53 54  1  0
 53 55  2  0
 55 56  1  0
 42  3  1  0
 55 46  1  0
 19 10  1  0
 41 27  2  0
 39 30  1  0
M  CHG  1   7  -1
M  END
>  <UniqueID>  (74) 
103

>  <SMILES>  (74) 
[H]/N=c1\c(C(=O)[N-][C@@H](C)c2ccccc2)cc2c(=O)n3cc(Cl)ccc3nc2n1Cc1ccccc1

>  <Energy>  (74) 
83.12217000565826

>  <Genealogy>  (74) 
C[C@H]([N-]C(=O)c1cc2c(=O)n3cc(Cl)ccc3nc2n(Cc2ccccc2)c1=N)c1ccccc1 (protonated)
[H]/N=c1\c(C(=O)[N-][C@@H](C)c2ccccc2)cc2c(=O)n3cc(Cl)ccc3nc2n1Cc1ccccc1 (cis-trans isomerization)
[H]/N=c1\c(C(=O)[N-][C@@H](C)c2ccccc2)cc2c(=O)n3cc(Cl)ccc3nc2n1Cc1ccccc1 (3D coordinates assigned)
[H]/N=c1\c(C(=O)[N-][C@@H](C)c2ccccc2)cc2c(=O)n3cc(Cl)ccc3nc2n1Cc1ccccc1 (optimized conformer: 83.12217000565826 kcal/mol)

>  <smiles>  (74) 
C[C@H](NC(=O)c1cc2c(=O)n3cc(Cl)ccc3nc2n(Cc2ccccc2)c1=N)c1ccccc1

>  <score_type>  (74) 
oracle

>  <origin>  (74) 
autodockgpu

>  <m_score__min__energy>  (74) 
-8.75

>  <m_primary>  (74) 
energy

>  <meeko>  (74) 
{"free_energy": -8.6, "intermolecular_energy": -10.69, "internal_energy": -1.25, "cluster_size": 3, "cluster_id": 3, "rank_in_cluster": 1}

>  <energy>  (74) 
-8.04

>  <cluster_rmsd>  (74) 
1.95

>  <rmsd>  (74) 
269.71

>  <cluster>  (74) 
6

$$$$
BLHILRPTNSSYME-JHJFBCDHNA-M
     RDKit          3D

 56 60  0  0  0  0  0  0  0  0999 V2000
  136.3360   79.0930  222.4910 H   0  0  0  0  0  0  0  0  0  0  0  0
  137.3520   79.0750  222.2500 N   0  0  0  0  0  0  0  0  0  0  0  0
  138.0540   77.9910  222.0890 C   0  0  0  0  0  0  0  0  0  0  0  0
  137.5550   76.7450  222.5380 C   0  0  0  0  0  0  0  0  0  0  0  0
  136.2360   76.6060  223.1840 C   0  0  0  0  0  0  0  0  0  0  0  0
  135.3080   77.3840  222.8410 O   0  0  0  0  0  0  0  0  0  0  0  0
  135.9870   75.6470  224.2220 N   0  0  0  0  0  0  0  0  0  0  0  0
  134.9610   74.5980  224.2540 C   0  0  2  0  0  0  0  0  0  0  0  0
  134.2798   74.7225  223.3993 H   0  0  0  0  0  0  0  0  0  0  0  0
  134.0530   74.7360  225.4690 C   0  0  0  0  0  0  0  0  0  0  0  0
  133.7820   75.9760  226.0920 C   0  0  0  0  0  0  0  0  0  0  0  0
  134.2517   76.8938  225.7086 H   0  0  0  0  0  0  0  0  0  0  0  0
  132.9220   76.0440  227.1910 C   0  0  0  0  0  0  0  0  0  0  0  0
  132.7131   77.0144  227.6651 H   0  0  0  0  0  0  0  0  0  0  0  0
  132.3270   74.8830  227.6890 C   0  0  0  0  0  0  0  0  0  0  0  0
  131.6496   74.9396  228.5538 H   0  0  0  0  0  0  0  0  0  0  0  0
  132.5920   73.6500  227.0890 C   0  0  0  0  0  0  0  0  0  0  0  0
  132.1260   72.7355  227.4846 H   0  0  0  0  0  0  0  0  0  0  0  0
  133.4480   73.5760  225.9870 C   0  0  0  0  0  0  0  0  0  0  0  0
  133.6509   72.6011  225.5197 H   0  0  0  0  0  0  0  0  0  0  0  0
  135.6010   73.2170  224.0650 C   0  0  0  0  0  0  0  0  0  0  0  0
  135.8077   72.7709  225.0490 H   0  0  0  0  0  0  0  0  0  0  0  0
  134.9122   72.5672  223.5052 H   0  0  0  0  0  0  0  0  0  0  0  0
  136.5420   73.3225  223.5052 H   0  0  0  0  0  0  0  0  0  0  0  0
  138.3510   75.6070  222.4230 C   0  0  0  0  0  0  0  0  0  0  0  0
  137.9960   74.6478  222.8278 H   0  0  0  0  0  0  0  0  0  0  0  0
  139.5960   75.6780  221.7970 C   0  0  0  0  0  0  0  0  0  0  0  0
  140.4080   74.5400  221.6210 C   0  0  0  0  0  0  0  0  0  0  0  0
  140.0130   73.4210  222.0530 O   0  0  0  0  0  0  0  0  0  0  0  0
  141.6180   74.6500  220.9780 N   0  0  0  0  0  0  0  0  0  0  0  0
  142.4160   73.5480  220.7920 C   0  0  0  0  0  0  0  0  0  0  0  0
  142.0819   72.5671  221.1610 H   0  0  0  0  0  0  0  0  0  0  0  0
  143.6470   73.6570  220.1400 C   0  0  0  0  0  0  0  0  0  0  0  0
  144.6560   72.2410  219.9090 Cl  0  0  0  0  0  0  0  0  0  0  0  0
  144.0690   74.9000  219.6730 C   0  0  0  0  0  0  0  0  0  0  0  0
  145.0360   74.9982  219.1579 H   0  0  0  0  0  0  0  0  0  0  0  0
  143.2600   76.0170  219.8620 C   0  0  0  0  0  0  0  0  0  0  0  0
  143.5854   77.0029  219.4984 H   0  0  0  0  0  0  0  0  0  0  0  0
  142.0320   75.8800  220.5160 C   0  0  0  0  0  0  0  0  0  0  0  0
  141.2530   76.9750  220.6900 N   0  0  0  0  0  0  0  0  0  0  0  0
  140.0480   76.9180  221.3140 C   0  0  0  0  0  0  0  0  0  0  0  0
  139.2870   78.0550  221.4730 N   0  0  0  0  0  0  0  0  0  0  0  0
  139.8280   79.3520  221.0000 C   0  0  0  0  0  0  0  0  0  0  0  0
  140.2874   79.2130  220.0102 H   0  0  0  0  0  0  0  0  0  0  0  0
  139.0047   80.0788  220.9380 H   0  0  0  0  0  0  0  0  0  0  0  0
  140.8670   79.8740  221.9600 C   0  0  0  0  0  0  0  0  0  0  0  0
  142.1970   79.4280  221.8840 C   0  0  0  0  0  0  0  0  0  0  0  0
  142.4885   78.7061  221.1069 H   0  0  0  0  0  0  0  0  0  0  0  0
  143.1520   79.8970  222.7910 C   0  0  0  0  0  0  0  0  0  0  0  0
  144.1920   79.5448  222.7248 H   0  0  0  0  0  0  0  0  0  0  0  0
  142.7870   80.8130  223.7820 C   0  0  0  0  0  0  0  0  0  0  0  0
  143.5393   81.1803  224.4955 H   0  0  0  0  0  0  0  0  0  0  0  0
  141.4660   81.2620  223.8660 C   0  0  0  0  0  0  0  0  0  0  0  0
  141.1791   81.9833  224.6454 H   0  0  0  0  0  0  0  0  0  0  0  0
  140.5090   80.7950  222.9600 C   0  0  0  0  0  0  0  0  0  0  0  0
  139.4703   81.1501  223.0300 H   0  0  0  0  0  0  0  0  0  0  0  0
  1  2  1  0
  2  3  2  0
  3  4  1  0
  4  5  1  0
  5  6  2  0
  5  7  1  0
  7  8  1  0
  8  9  1  6
  8 10  1  0
 10 11  2  0
 11 12  1  0
 11 13  1  0
 13 14  1  0
 13 15  2  0
 15 16  1  0
 15 17  1  0
 17 18  1  0
 17 19  2  0
 19 20  1  0
  8 21  1  0
 21 22  1  0
 21 23  1  0
 21 24  1  0
  4 25  2  0
 25 26  1  0
 25 27  1  0
 27 28  1  0
 28 29  2  0
 28 30  1  0
 30 31  1  0
 31 32  1  0
 31 33  2  0
 33 34  1  0
 33 35  1  0
 35 36  1  0
 35 37  2  0
 37 38  1  0
 37 39  1  0
 39 40  2  0
 40 41  1  0
 41 42  1  0
 42 43  1  0
 43 44  1  0
 43 45  1  0
 43 46  1  0
 46 47  2  0
 47 48  1  0
 47 49  1  0
 49 50  1  0
 49 51  2  0
 51 52  1  0
 51 53  1  0
 53 54  1  0
 53 55  2  0
 55 56  1  0
 42  3  1  0
 55 46  1  0
 19 10  1  0
 41 27  2  0
 39 30  1  0
M  CHG  1   7  -1
M  END
>  <UniqueID>  (75) 
103

>  <SMILES>  (75) 
[H]/N=c1\c(C(=O)[N-][C@@H](C)c2ccccc2)cc2c(=O)n3cc(Cl)ccc3nc2n1Cc1ccccc1

>  <Energy>  (75) 
83.12217000565826

>  <Genealogy>  (75) 
C[C@H]([N-]C(=O)c1cc2c(=O)n3cc(Cl)ccc3nc2n(Cc2ccccc2)c1=N)c1ccccc1 (protonated)
[H]/N=c1\c(C(=O)[N-][C@@H](C)c2ccccc2)cc2c(=O)n3cc(Cl)ccc3nc2n1Cc1ccccc1 (cis-trans isomerization)
[H]/N=c1\c(C(=O)[N-][C@@H](C)c2ccccc2)cc2c(=O)n3cc(Cl)ccc3nc2n1Cc1ccccc1 (3D coordinates assigned)
[H]/N=c1\c(C(=O)[N-][C@@H](C)c2ccccc2)cc2c(=O)n3cc(Cl)ccc3nc2n1Cc1ccccc1 (optimized conformer: 83.12217000565826 kcal/mol)

>  <smiles>  (75) 
C[C@H](NC(=O)c1cc2c(=O)n3cc(Cl)ccc3nc2n(Cc2ccccc2)c1=N)c1ccccc1

>  <score_type>  (75) 
oracle

>  <origin>  (75) 
autodockgpu

>  <m_score__min__energy>  (75) 
-8.75

>  <m_primary>  (75) 
energy

>  <meeko>  (75) 
{"free_energy": -8.14, "intermolecular_energy": -10.23, "internal_energy": -1.66, "cluster_size": 2, "cluster_id": 7, "rank_in_cluster": 1}

>  <energy>  (75) 
-7.81

>  <cluster_rmsd>  (75) 
0.52

>  <rmsd>  (75) 
269.6

>  <cluster>  (75) 
6

$$$$
BLHILRPTNSSYME-JHJFBCDHNA-M
     RDKit          3D

 56 60  0  0  0  0  0  0  0  0999 V2000
  142.6350   74.7960  220.2230 H   0  0  0  0  0  0  0  0  0  0  0  0
  142.2770   75.7450  220.4730 N   0  0  0  0  0  0  0  0  0  0  0  0
  141.1320   75.9750  221.0490 C   0  0  0  0  0  0  0  0  0  0  0  0
  140.3870   74.9080  221.6050 C   0  0  0  0  0  0  0  0  0  0  0  0
  140.8600   73.5110  221.5770 C   0  0  0  0  0  0  0  0  0  0  0  0
  141.3130   73.0450  220.4980 O   0  0  0  0  0  0  0  0  0  0  0  0
  140.7790   72.6510  222.7230 N   0  0  0  0  0  0  0  0  0  0  0  0
  139.6460   71.8230  223.1500 C   0  0  2  0  0  0  0  0  0  0  0  0
  138.7612   72.4593  223.2990 H   0  0  0  0  0  0  0  0  0  0  0  0
  139.8870   71.2020  224.5200 C   0  0  0  0  0  0  0  0  0  0  0  0
  140.7820   71.7500  225.4670 C   0  0  0  0  0  0  0  0  0  0  0  0
  141.3543   72.6556  225.2173 H   0  0  0  0  0  0  0  0  0  0  0  0
  140.9450   71.1490  226.7190 C   0  0  0  0  0  0  0  0  0  0  0  0
  141.6393   71.5864  227.4515 H   0  0  0  0  0  0  0  0  0  0  0  0
  140.2290   69.9960  227.0410 C   0  0  0  0  0  0  0  0  0  0  0  0
  140.3598   69.5251  228.0264 H   0  0  0  0  0  0  0  0  0  0  0  0
  139.3460   69.4390  226.1130 C   0  0  0  0  0  0  0  0  0  0  0  0
  138.7836   68.5286  226.3678 H   0  0  0  0  0  0  0  0  0  0  0  0
  139.1760   70.0370  224.8610 C   0  0  0  0  0  0  0  0  0  0  0  0
  138.4793   69.5922  224.1352 H   0  0  0  0  0  0  0  0  0  0  0  0
  139.2560   70.8360  222.0420 C   0  0  0  0  0  0  0  0  0  0  0  0
  138.8876   69.9036  222.4946 H   0  0  0  0  0  0  0  0  0  0  0  0
  138.4651   71.2784  221.4185 H   0  0  0  0  0  0  0  0  0  0  0  0
  140.1357   70.6183  221.4185 H   0  0  0  0  0  0  0  0  0  0  0  0
  139.1310   75.1630  222.1530 C   0  0  0  0  0  0  0  0  0  0  0  0
  138.5182   74.3301  222.5282 H   0  0  0  0  0  0  0  0  0  0  0  0
  138.6470   76.4700  222.2280 C   0  0  0  0  0  0  0  0  0  0  0  0
  137.4040   76.7720  222.8180 C   0  0  0  0  0  0  0  0  0  0  0  0
  136.6910   75.8370  223.2810 O   0  0  0  0  0  0  0  0  0  0  0  0
  136.9750   78.0750  222.8920 N   0  0  0  0  0  0  0  0  0  0  0  0
  135.7680   78.3840  223.4710 C   0  0  0  0  0  0  0  0  0  0  0  0
  135.1396   77.5793  223.8803 H   0  0  0  0  0  0  0  0  0  0  0  0
  135.3290   79.7100  223.5460 C   0  0  0  0  0  0  0  0  0  0  0  0
  133.7870   80.0900  224.2890 Cl  0  0  0  0  0  0  0  0  0  0  0  0
  136.1260   80.7270  223.0270 C   0  0  0  0  0  0  0  0  0  0  0  0
  135.7910   81.7733  223.0808 H   0  0  0  0  0  0  0  0  0  0  0  0
  137.3480   80.4140  222.4400 C   0  0  0  0  0  0  0  0  0  0  0  0
  137.9829   81.2112  222.0261 H   0  0  0  0  0  0  0  0  0  0  0  0
  137.7650   79.0800  222.3790 C   0  0  0  0  0  0  0  0  0  0  0  0
  138.9590   78.7890  221.8080 N   0  0  0  0  0  0  0  0  0  0  0  0
  139.4300   77.5190  221.7150 C   0  0  0  0  0  0  0  0  0  0  0  0
  140.6480   77.2650  221.1240 N   0  0  0  0  0  0  0  0  0  0  0  0
  141.4130   78.3940  220.5440 C   0  0  0  0  0  0  0  0  0  0  0  0
  142.3601   78.0153  220.1322 H   0  0  0  0  0  0  0  0  0  0  0  0
  140.8115   78.8589  219.7490 H   0  0  0  0  0  0  0  0  0  0  0  0
  141.7100   79.4300  221.5980 C   0  0  0  0  0  0  0  0  0  0  0  0
  142.1970   79.0450  222.8590 C   0  0  0  0  0  0  0  0  0  0  0  0
  142.3815   77.9820  223.0735 H   0  0  0  0  0  0  0  0  0  0  0  0
  142.4480   80.0070  223.8420 C   0  0  0  0  0  0  0  0  0  0  0  0
  142.8287   79.6992  224.8271 H   0  0  0  0  0  0  0  0  0  0  0  0
  142.2160   81.3590  223.5750 C   0  0  0  0  0  0  0  0  0  0  0  0
  142.4144   82.1146  224.3495 H   0  0  0  0  0  0  0  0  0  0  0  0
  141.7320   81.7510  222.3240 C   0  0  0  0  0  0  0  0  0  0  0  0
  141.5499   82.8153  222.1142 H   0  0  0  0  0  0  0  0  0  0  0  0
  141.4790   80.7920  221.3390 C   0  0  0  0  0  0  0  0  0  0  0  0
  141.0971   81.1049  220.3560 H   0  0  0  0  0  0  0  0  0  0  0  0
  1  2  1  0
  2  3  2  0
  3  4  1  0
  4  5  1  0
  5  6  2  0
  5  7  1  0
  7  8  1  0
  8  9  1  1
  8 10  1  0
 10 11  2  0
 11 12  1  0
 11 13  1  0
 13 14  1  0
 13 15  2  0
 15 16  1  0
 15 17  1  0
 17 18  1  0
 17 19  2  0
 19 20  1  0
  8 21  1  0
 21 22  1  0
 21 23  1  0
 21 24  1  0
  4 25  2  0
 25 26  1  0
 25 27  1  0
 27 28  1  0
 28 29  2  0
 28 30  1  0
 30 31  1  0
 31 32  1  0
 31 33  2  0
 33 34  1  0
 33 35  1  0
 35 36  1  0
 35 37  2  0
 37 38  1  0
 37 39  1  0
 39 40  2  0
 40 41  1  0
 41 42  1  0
 42 43  1  0
 43 44  1  0
 43 45  1  0
 43 46  1  0
 46 47  2  0
 47 48  1  0
 47 49  1  0
 49 50  1  0
 49 51  2  0
 51 52  1  0
 51 53  1  0
 53 54  1  0
 53 55  2  0
 55 56  1  0
 42  3  1  0
 55 46  1  0
 19 10  1  0
 41 27  2  0
 39 30  1  0
M  CHG  1   7  -1
M  END
>  <UniqueID>  (76) 
103

>  <SMILES>  (76) 
[H]/N=c1\c(C(=O)[N-][C@@H](C)c2ccccc2)cc2c(=O)n3cc(Cl)ccc3nc2n1Cc1ccccc1

>  <Energy>  (76) 
83.12217000565826

>  <Genealogy>  (76) 
C[C@H]([N-]C(=O)c1cc2c(=O)n3cc(Cl)ccc3nc2n(Cc2ccccc2)c1=N)c1ccccc1 (protonated)
[H]/N=c1\c(C(=O)[N-][C@@H](C)c2ccccc2)cc2c(=O)n3cc(Cl)ccc3nc2n1Cc1ccccc1 (cis-trans isomerization)
[H]/N=c1\c(C(=O)[N-][C@@H](C)c2ccccc2)cc2c(=O)n3cc(Cl)ccc3nc2n1Cc1ccccc1 (3D coordinates assigned)
[H]/N=c1\c(C(=O)[N-][C@@H](C)c2ccccc2)cc2c(=O)n3cc(Cl)ccc3nc2n1Cc1ccccc1 (optimized conformer: 83.12217000565826 kcal/mol)

>  <smiles>  (76) 
C[C@H](NC(=O)c1cc2c(=O)n3cc(Cl)ccc3nc2n(Cc2ccccc2)c1=N)c1ccccc1

>  <score_type>  (76) 
oracle

>  <origin>  (76) 
autodockgpu

>  <m_score__min__energy>  (76) 
-8.75

>  <m_primary>  (76) 
energy

>  <meeko>  (76) 
{"free_energy": -8.03, "intermolecular_energy": -10.12, "internal_energy": -1.76, "cluster_size": 2, "cluster_id": 1, "rank_in_cluster": 2}

>  <energy>  (76) 
-8.14

>  <cluster_rmsd>  (76) 
0.0

>  <rmsd>  (76) 
270.31

>  <cluster>  (76) 
7

$$$$
BLHILRPTNSSYME-JHJFBCDHNA-M
     RDKit          3D

 56 60  0  0  0  0  0  0  0  0999 V2000
  139.3400   74.0630  222.6940 H   0  0  0  0  0  0  0  0  0  0  0  0
  139.5990   75.0750  222.6950 N   0  0  0  0  0  0  0  0  0  0  0  0
  140.1690   75.6930  221.7000 C   0  0  0  0  0  0  0  0  0  0  0  0
  140.8170   74.9550  220.6810 C   0  0  0  0  0  0  0  0  0  0  0  0
  140.8690   73.4810  220.6790 C   0  0  0  0  0  0  0  0  0  0  0  0
  140.9760   72.8790  219.5790 O   0  0  0  0  0  0  0  0  0  0  0  0
  140.7530   72.7080  221.8830 N   0  0  0  0  0  0  0  0  0  0  0  0
  139.6480   71.8320  222.2890 C   0  0  2  0  0  0  0  0  0  0  0  0
  138.7329   72.4287  222.4176 H   0  0  0  0  0  0  0  0  0  0  0  0
  139.8870   71.2260  223.6660 C   0  0  0  0  0  0  0  0  0  0  0  0
  140.6930   71.8430  224.6500 C   0  0  0  0  0  0  0  0  0  0  0  0
  141.1936   72.7967  224.4268 H   0  0  0  0  0  0  0  0  0  0  0  0
  140.8580   71.2490  225.9050 C   0  0  0  0  0  0  0  0  0  0  0  0
  141.4838   71.7386  226.6656 H   0  0  0  0  0  0  0  0  0  0  0  0
  140.2310   70.0370  226.1950 C   0  0  0  0  0  0  0  0  0  0  0  0
  140.3618   69.5732  227.1838 H   0  0  0  0  0  0  0  0  0  0  0  0
  139.4370   69.4120  225.2300 C   0  0  0  0  0  0  0  0  0  0  0  0
  138.9459   68.4547  225.4587 H   0  0  0  0  0  0  0  0  0  0  0  0
  139.2660   70.0020  223.9740 C   0  0  0  0  0  0  0  0  0  0  0  0
  138.6396   69.5041  223.2192 H   0  0  0  0  0  0  0  0  0  0  0  0
  139.3250   70.8270  221.1760 C   0  0  0  0  0  0  0  0  0  0  0  0
  139.0176   69.8704  221.6236 H   0  0  0  0  0  0  0  0  0  0  0  0
  138.5078   71.2198  220.5531 H   0  0  0  0  0  0  0  0  0  0  0  0
  140.2180   70.6702  220.5531 H   0  0  0  0  0  0  0  0  0  0  0  0
  141.4840   75.6350  219.6630 C   0  0  0  0  0  0  0  0  0  0  0  0
  142.0439   75.0701  218.9031 H   0  0  0  0  0  0  0  0  0  0  0  0
  141.4450   77.0290  219.6030 C   0  0  0  0  0  0  0  0  0  0  0  0
  142.0670   77.7480  218.5640 C   0  0  0  0  0  0  0  0  0  0  0  0
  142.6950   77.1230  217.6630 O   0  0  0  0  0  0  0  0  0  0  0  0
  141.9850   79.1190  218.5300 N   0  0  0  0  0  0  0  0  0  0  0  0
  142.5800   79.8330  217.5180 C   0  0  0  0  0  0  0  0  0  0  0  0
  143.1276   79.3004  216.7265 H   0  0  0  0  0  0  0  0  0  0  0  0
  142.4980   81.2280  217.4820 C   0  0  0  0  0  0  0  0  0  0  0  0
  143.2630   82.1260  216.1840 Cl  0  0  0  0  0  0  0  0  0  0  0  0
  141.8060   81.9010  218.4850 C   0  0  0  0  0  0  0  0  0  0  0  0
  141.7359   82.9986  218.4672 H   0  0  0  0  0  0  0  0  0  0  0  0
  141.2030   81.1780  219.5110 C   0  0  0  0  0  0  0  0  0  0  0  0
  140.6550   81.7014  220.3084 H   0  0  0  0  0  0  0  0  0  0  0  0
  141.2980   79.7830  219.5220 C   0  0  0  0  0  0  0  0  0  0  0  0
  140.7030   79.0910  220.5240 N   0  0  0  0  0  0  0  0  0  0  0  0
  140.7510   77.7360  220.6000 C   0  0  0  0  0  0  0  0  0  0  0  0
  140.1360   77.0710  221.6370 N   0  0  0  0  0  0  0  0  0  0  0  0
  139.4650   77.8590  222.6980 C   0  0  0  0  0  0  0  0  0  0  0  0
  138.5407   78.2974  222.2936 H   0  0  0  0  0  0  0  0  0  0  0  0
  139.2313   77.1930  223.5417 H   0  0  0  0  0  0  0  0  0  0  0  0
  140.3670   78.9650  223.1850 C   0  0  0  0  0  0  0  0  0  0  0  0
  139.8650   80.2650  223.3690 C   0  0  0  0  0  0  0  0  0  0  0  0
  138.8027   80.4739  223.1745 H   0  0  0  0  0  0  0  0  0  0  0  0
  140.7090   81.2940  223.7980 C   0  0  0  0  0  0  0  0  0  0  0  0
  140.3095   82.3088  223.9412 H   0  0  0  0  0  0  0  0  0  0  0  0
  142.0600   81.0340  224.0450 C   0  0  0  0  0  0  0  0  0  0  0  0
  142.7234   81.8445  224.3812 H   0  0  0  0  0  0  0  0  0  0  0  0
  142.5680   79.7450  223.8650 C   0  0  0  0  0  0  0  0  0  0  0  0
  143.6310   79.5409  224.0609 H   0  0  0  0  0  0  0  0  0  0  0  0
  141.7260   78.7140  223.4360 C   0  0  0  0  0  0  0  0  0  0  0  0
  142.1303   77.7008  223.2944 H   0  0  0  0  0  0  0  0  0  0  0  0
  1  2  1  0
  2  3  2  0
  3  4  1  0
  4  5  1  0
  5  6  2  0
  5  7  1  0
  7  8  1  0
  8  9  1  1
  8 10  1  0
 10 11  2  0
 11 12  1  0
 11 13  1  0
 13 14  1  0
 13 15  2  0
 15 16  1  0
 15 17  1  0
 17 18  1  0
 17 19  2  0
 19 20  1  0
  8 21  1  0
 21 22  1  0
 21 23  1  0
 21 24  1  0
  4 25  2  0
 25 26  1  0
 25 27  1  0
 27 28  1  0
 28 29  2  0
 28 30  1  0
 30 31  1  0
 31 32  1  0
 31 33  2  0
 33 34  1  0
 33 35  1  0
 35 36  1  0
 35 37  2  0
 37 38  1  0
 37 39  1  0
 39 40  2  0
 40 41  1  0
 41 42  1  0
 42 43  1  0
 43 44  1  0
 43 45  1  0
 43 46  1  0
 46 47  2  0
 47 48  1  0
 47 49  1  0
 49 50  1  0
 49 51  2  0
 51 52  1  0
 51 53  1  0
 53 54  1  0
 53 55  2  0
 55 56  1  0
 42  3  1  0
 55 46  1  0
 19 10  1  0
 41 27  2  0
 39 30  1  0
M  CHG  1   7  -1
M  END
>  <UniqueID>  (77) 
103

>  <SMILES>  (77) 
[H]/N=c1\c(C(=O)[N-][C@@H](C)c2ccccc2)cc2c(=O)n3cc(Cl)ccc3nc2n1Cc1ccccc1

>  <Energy>  (77) 
83.12217000565826

>  <Genealogy>  (77) 
C[C@H]([N-]C(=O)c1cc2c(=O)n3cc(Cl)ccc3nc2n(Cc2ccccc2)c1=N)c1ccccc1 (protonated)
[H]/N=c1\c(C(=O)[N-][C@@H](C)c2ccccc2)cc2c(=O)n3cc(Cl)ccc3nc2n1Cc1ccccc1 (cis-trans isomerization)
[H]/N=c1\c(C(=O)[N-][C@@H](C)c2ccccc2)cc2c(=O)n3cc(Cl)ccc3nc2n1Cc1ccccc1 (3D coordinates assigned)
[H]/N=c1\c(C(=O)[N-][C@@H](C)c2ccccc2)cc2c(=O)n3cc(Cl)ccc3nc2n1Cc1ccccc1 (optimized conformer: 83.12217000565826 kcal/mol)

>  <smiles>  (77) 
C[C@H](NC(=O)c1cc2c(=O)n3cc(Cl)ccc3nc2n(Cc2ccccc2)c1=N)c1ccccc1

>  <score_type>  (77) 
oracle

>  <origin>  (77) 
autodockgpu

>  <m_score__min__energy>  (77) 
-8.75

>  <m_primary>  (77) 
energy

>  <meeko>  (77) 
{"free_energy": -8.17, "intermolecular_energy": -10.26, "internal_energy": -1.64, "cluster_size": 1, "cluster_id": 5, "rank_in_cluster": 1}

>  <energy>  (77) 
-8.11

>  <cluster_rmsd>  (77) 
0.13

>  <rmsd>  (77) 
270.3

>  <cluster>  (77) 
7

$$$$
BLHILRPTNSSYME-JHJFBCDHNA-M
     RDKit          3D

 56 60  0  0  0  0  0  0  0  0999 V2000
  139.1770   74.2600  223.0670 H   0  0  0  0  0  0  0  0  0  0  0  0
  139.5970   75.0290  222.4970 N   0  0  0  0  0  0  0  0  0  0  0  0
  140.4310   74.8470  221.5130 C   0  0  0  0  0  0  0  0  0  0  0  0
  141.0970   73.6070  221.3630 C   0  0  0  0  0  0  0  0  0  0  0  0
  140.8780   72.4730  222.2790 C   0  0  0  0  0  0  0  0  0  0  0  0
  141.7340   71.5520  222.3210 O   0  0  0  0  0  0  0  0  0  0  0  0
  139.6990   72.3600  223.0910 N   0  0  0  0  0  0  0  0  0  0  0  0
  139.1750   71.1620  223.7570 C   0  0  2  0  0  0  0  0  0  0  0  0
  138.1025   71.2934  223.9632 H   0  0  0  0  0  0  0  0  0  0  0  0
  139.7910   70.9700  225.1360 C   0  0  0  0  0  0  0  0  0  0  0  0
  140.7120   71.8800  225.7020 C   0  0  0  0  0  0  0  0  0  0  0  0
  141.0262   72.7655  225.1301 H   0  0  0  0  0  0  0  0  0  0  0  0
  141.2270   71.6630  226.9840 C   0  0  0  0  0  0  0  0  0  0  0  0
  141.9392   72.3802  227.4180 H   0  0  0  0  0  0  0  0  0  0  0  0
  140.8390   70.5380  227.7140 C   0  0  0  0  0  0  0  0  0  0  0  0
  141.2452   70.3697  228.7223 H   0  0  0  0  0  0  0  0  0  0  0  0
  139.9350   69.6260  227.1640 C   0  0  0  0  0  0  0  0  0  0  0  0
  139.6322   68.7382  227.7386 H   0  0  0  0  0  0  0  0  0  0  0  0
  139.4150   69.8400  225.8850 C   0  0  0  0  0  0  0  0  0  0  0  0
  138.7038   69.1170  225.4590 H   0  0  0  0  0  0  0  0  0  0  0  0
  139.2640   69.9490  222.8220 C   0  0  0  0  0  0  0  0  0  0  0  0
  139.3315   69.0287  223.4208 H   0  0  0  0  0  0  0  0  0  0  0  0
  138.3664   69.9085  222.1874 H   0  0  0  0  0  0  0  0  0  0  0  0
  140.1579   70.0400  222.1874 H   0  0  0  0  0  0  0  0  0  0  0  0
  142.0400   73.4570  220.3470 C   0  0  0  0  0  0  0  0  0  0  0  0
  142.6082   72.5189  220.2624 H   0  0  0  0  0  0  0  0  0  0  0  0
  142.2670   74.4900  219.4370 C   0  0  0  0  0  0  0  0  0  0  0  0
  143.1780   74.3560  218.3700 C   0  0  0  0  0  0  0  0  0  0  0  0
  143.8250   73.2800  218.2340 O   0  0  0  0  0  0  0  0  0  0  0  0
  143.3550   75.3900  217.4820 N   0  0  0  0  0  0  0  0  0  0  0  0
  144.2330   75.2710  216.4330 C   0  0  0  0  0  0  0  0  0  0  0  0
  144.8002   74.3376  216.3026 H   0  0  0  0  0  0  0  0  0  0  0  0
  144.4150   76.3210  215.5290 C   0  0  0  0  0  0  0  0  0  0  0  0
  145.5400   76.1550  214.1930 Cl  0  0  0  0  0  0  0  0  0  0  0  0
  143.6970   77.5030  215.6960 C   0  0  0  0  0  0  0  0  0  0  0  0
  143.8328   78.3365  214.9912 H   0  0  0  0  0  0  0  0  0  0  0  0
  142.8070   77.6240  216.7590 C   0  0  0  0  0  0  0  0  0  0  0  0
  142.2365   78.5539  216.8996 H   0  0  0  0  0  0  0  0  0  0  0  0
  142.6420   76.5560  217.6480 C   0  0  0  0  0  0  0  0  0  0  0  0
  141.7690   76.6870  218.6760 N   0  0  0  0  0  0  0  0  0  0  0  0
  141.5550   75.6930  219.5780 C   0  0  0  0  0  0  0  0  0  0  0  0
  140.6610   75.8660  220.6110 N   0  0  0  0  0  0  0  0  0  0  0  0
  139.9760   77.1720  220.7560 C   0  0  0  0  0  0  0  0  0  0  0  0
  139.8126   77.6075  219.7592 H   0  0  0  0  0  0  0  0  0  0  0  0
  139.0131   77.0136  221.2638 H   0  0  0  0  0  0  0  0  0  0  0  0
  140.8110   78.1190  221.5800 C   0  0  0  0  0  0  0  0  0  0  0  0
  141.4140   79.2410  220.9850 C   0  0  0  0  0  0  0  0  0  0  0  0
  141.2619   79.4407  219.9140 H   0  0  0  0  0  0  0  0  0  0  0  0
  142.2060   80.1040  221.7480 C   0  0  0  0  0  0  0  0  0  0  0  0
  142.6740   80.9809  221.2768 H   0  0  0  0  0  0  0  0  0  0  0  0
  142.4040   79.8540  223.1090 C   0  0  0  0  0  0  0  0  0  0  0  0
  143.0283   80.5335  223.7078 H   0  0  0  0  0  0  0  0  0  0  0  0
  141.8090   78.7410  223.7090 C   0  0  0  0  0  0  0  0  0  0  0  0
  141.9647   78.5453  224.7802 H   0  0  0  0  0  0  0  0  0  0  0  0
  141.0160   77.8760  222.9490 C   0  0  0  0  0  0  0  0  0  0  0  0
  140.5501   77.0006  223.4250 H   0  0  0  0  0  0  0  0  0  0  0  0
  1  2  1  0
  2  3  2  0
  3  4  1  0
  4  5  1  0
  5  6  2  0
  5  7  1  0
  7  8  1  0
  8  9  1  1
  8 10  1  0
 10 11  2  0
 11 12  1  0
 11 13  1  0
 13 14  1  0
 13 15  2  0
 15 16  1  0
 15 17  1  0
 17 18  1  0
 17 19  2  0
 19 20  1  0
  8 21  1  0
 21 22  1  0
 21 23  1  0
 21 24  1  0
  4 25  2  0
 25 26  1  0
 25 27  1  0
 27 28  1  0
 28 29  2  0
 28 30  1  0
 30 31  1  0
 31 32  1  0
 31 33  2  0
 33 34  1  0
 33 35  1  0
 35 36  1  0
 35 37  2  0
 37 38  1  0
 37 39  1  0
 39 40  2  0
 40 41  1  0
 41 42  1  0
 42 43  1  0
 43 44  1  0
 43 45  1  0
 43 46  1  0
 46 47  2  0
 47 48  1  0
 47 49  1  0
 49 50  1  0
 49 51  2  0
 51 52  1  0
 51 53  1  0
 53 54  1  0
 53 55  2  0
 55 56  1  0
 42  3  1  0
 55 46  1  0
 19 10  1  0
 41 27  2  0
 39 30  1  0
M  CHG  1   7  -1
M  END
>  <UniqueID>  (78) 
103

>  <SMILES>  (78) 
[H]/N=c1\c(C(=O)[N-][C@@H](C)c2ccccc2)cc2c(=O)n3cc(Cl)ccc3nc2n1Cc1ccccc1

>  <Energy>  (78) 
83.12217000565826

>  <Genealogy>  (78) 
C[C@H]([N-]C(=O)c1cc2c(=O)n3cc(Cl)ccc3nc2n(Cc2ccccc2)c1=N)c1ccccc1 (protonated)
[H]/N=c1\c(C(=O)[N-][C@@H](C)c2ccccc2)cc2c(=O)n3cc(Cl)ccc3nc2n1Cc1ccccc1 (cis-trans isomerization)
[H]/N=c1\c(C(=O)[N-][C@@H](C)c2ccccc2)cc2c(=O)n3cc(Cl)ccc3nc2n1Cc1ccccc1 (3D coordinates assigned)
[H]/N=c1\c(C(=O)[N-][C@@H](C)c2ccccc2)cc2c(=O)n3cc(Cl)ccc3nc2n1Cc1ccccc1 (optimized conformer: 83.12217000565826 kcal/mol)

>  <smiles>  (78) 
C[C@H](NC(=O)c1cc2c(=O)n3cc(Cl)ccc3nc2n(Cc2ccccc2)c1=N)c1ccccc1

>  <score_type>  (78) 
oracle

>  <origin>  (78) 
autodockgpu

>  <m_score__min__energy>  (78) 
-8.75

>  <m_primary>  (78) 
energy

>  <meeko>  (78) 
{"free_energy": -8.52, "intermolecular_energy": -10.6, "internal_energy": -1.78, "cluster_size": 5, "cluster_id": 2, "rank_in_cluster": 4}

>  <energy>  (78) 
-7.99

>  <cluster_rmsd>  (78) 
0.0

>  <rmsd>  (78) 
270.3

>  <cluster>  (78) 
8

$$$$
BLHILRPTNSSYME-JHJFBCDHNA-M
     RDKit          3D

 56 60  0  0  0  0  0  0  0  0999 V2000
  139.2380   73.8300  223.0190 H   0  0  0  0  0  0  0  0  0  0  0  0
  139.5340   74.5710  222.3450 N   0  0  0  0  0  0  0  0  0  0  0  0
  140.4200   74.4030  221.4060 C   0  0  0  0  0  0  0  0  0  0  0  0
  141.0900   73.1630  221.2710 C   0  0  0  0  0  0  0  0  0  0  0  0
  140.8160   72.0140  222.1540 C   0  0  0  0  0  0  0  0  0  0  0  0
  140.8560   70.8530  221.6700 O   0  0  0  0  0  0  0  0  0  0  0  0
  140.4600   72.1770  223.5350 N   0  0  0  0  0  0  0  0  0  0  0  0
  139.4430   71.4420  224.2960 C   0  0  2  0  0  0  0  0  0  0  0  0
  138.6239   72.1236  224.5689 H   0  0  0  0  0  0  0  0  0  0  0  0
  139.9810   70.9610  225.6370 C   0  0  0  0  0  0  0  0  0  0  0  0
  139.8130   69.6380  226.1050 C   0  0  0  0  0  0  0  0  0  0  0  0
  139.2549   68.9106  225.4972 H   0  0  0  0  0  0  0  0  0  0  0  0
  140.3510   69.2470  227.3350 C   0  0  0  0  0  0  0  0  0  0  0  0
  140.2203   68.2132  227.6875 H   0  0  0  0  0  0  0  0  0  0  0  0
  141.0530   70.1650  228.1160 C   0  0  0  0  0  0  0  0  0  0  0  0
  141.4745   69.8549  229.0835 H   0  0  0  0  0  0  0  0  0  0  0  0
  141.2210   71.4780  227.6700 C   0  0  0  0  0  0  0  0  0  0  0  0
  141.7730   72.2014  228.2880 H   0  0  0  0  0  0  0  0  0  0  0  0
  140.6890   71.8740  226.4400 C   0  0  0  0  0  0  0  0  0  0  0  0
  140.8251   72.9100  226.0961 H   0  0  0  0  0  0  0  0  0  0  0  0
  138.7970   70.3600  223.4210 C   0  0  0  0  0  0  0  0  0  0  0  0
  138.3394   69.5935  224.0638 H   0  0  0  0  0  0  0  0  0  0  0  0
  138.0231   70.8157  222.7859 H   0  0  0  0  0  0  0  0  0  0  0  0
  139.5654   69.8949  222.7859 H   0  0  0  0  0  0  0  0  0  0  0  0
  142.0860   73.0250  220.3060 C   0  0  0  0  0  0  0  0  0  0  0  0
  142.6544   72.0858  220.2369 H   0  0  0  0  0  0  0  0  0  0  0  0
  142.3660   74.0720  219.4270 C   0  0  0  0  0  0  0  0  0  0  0  0
  143.3340   73.9530  218.4100 C   0  0  0  0  0  0  0  0  0  0  0  0
  143.9830   72.8760  218.2910 O   0  0  0  0  0  0  0  0  0  0  0  0
  143.5620   75.0010  217.5510 N   0  0  0  0  0  0  0  0  0  0  0  0
  144.4970   74.8960  216.5500 C   0  0  0  0  0  0  0  0  0  0  0  0
  145.0678   73.9627  216.4355 H   0  0  0  0  0  0  0  0  0  0  0  0
  144.7320   75.9610  215.6750 C   0  0  0  0  0  0  0  0  0  0  0  0
  145.9280   75.8120  214.4010 Cl  0  0  0  0  0  0  0  0  0  0  0  0
  144.0100   77.1420  215.8230 C   0  0  0  0  0  0  0  0  0  0  0  0
  144.1873   77.9869  215.1414 H   0  0  0  0  0  0  0  0  0  0  0  0
  143.0630   77.2490  216.8370 C   0  0  0  0  0  0  0  0  0  0  0  0
  142.4884   78.1787  216.9613 H   0  0  0  0  0  0  0  0  0  0  0  0
  142.8460   76.1680  217.6970 C   0  0  0  0  0  0  0  0  0  0  0  0
  141.9180   76.2840  218.6790 N   0  0  0  0  0  0  0  0  0  0  0  0
  141.6520   75.2770  219.5500 C   0  0  0  0  0  0  0  0  0  0  0  0
  140.7030   75.4360  220.5350 N   0  0  0  0  0  0  0  0  0  0  0  0
  140.0160   76.7430  220.6650 C   0  0  0  0  0  0  0  0  0  0  0  0
  139.8385   77.1595  219.6625 H   0  0  0  0  0  0  0  0  0  0  0  0
  139.0604   76.5913  221.1883 H   0  0  0  0  0  0  0  0  0  0  0  0
  140.8580   77.7070  221.4600 C   0  0  0  0  0  0  0  0  0  0  0  0
  141.0630   77.5100  222.8360 C   0  0  0  0  0  0  0  0  0  0  0  0
  140.6214   76.6347  223.3348 H   0  0  0  0  0  0  0  0  0  0  0  0
  141.8250   78.4200  223.5750 C   0  0  0  0  0  0  0  0  0  0  0  0
  141.9815   78.2592  224.6519 H   0  0  0  0  0  0  0  0  0  0  0  0
  142.3880   79.5340  222.9460 C   0  0  0  0  0  0  0  0  0  0  0  0
  142.9872   80.2496  223.5281 H   0  0  0  0  0  0  0  0  0  0  0  0
  142.1900   79.7390  221.5780 C   0  0  0  0  0  0  0  0  0  0  0  0
  142.6341   80.6156  221.0838 H   0  0  0  0  0  0  0  0  0  0  0  0
  141.4280   78.8310  220.8370 C   0  0  0  0  0  0  0  0  0  0  0  0
  141.2735   78.9969  219.7606 H   0  0  0  0  0  0  0  0  0  0  0  0
  1  2  1  0
  2  3  2  0
  3  4  1  0
  4  5  1  0
  5  6  2  0
  5  7  1  0
  7  8  1  0
  8  9  1  1
  8 10  1  0
 10 11  2  0
 11 12  1  0
 11 13  1  0
 13 14  1  0
 13 15  2  0
 15 16  1  0
 15 17  1  0
 17 18  1  0
 17 19  2  0
 19 20  1  0
  8 21  1  0
 21 22  1  0
 21 23  1  0
 21 24  1  0
  4 25  2  0
 25 26  1  0
 25 27  1  0
 27 28  1  0
 28 29  2  0
 28 30  1  0
 30 31  1  0
 31 32  1  0
 31 33  2  0
 33 34  1  0
 33 35  1  0
 35 36  1  0
 35 37  2  0
 37 38  1  0
 37 39  1  0
 39 40  2  0
 40 41  1  0
 41 42  1  0
 42 43  1  0
 43 44  1  0
 43 45  1  0
 43 46  1  0
 46 47  2  0
 47 48  1  0
 47 49  1  0
 49 50  1  0
 49 51  2  0
 51 52  1  0
 51 53  1  0
 53 54  1  0
 53 55  2  0
 55 56  1  0
 42  3  1  0
 55 46  1  0
 19 10  1  0
 41 27  2  0
 39 30  1  0
M  CHG  1   7  -1
M  END
>  <UniqueID>  (79) 
103

>  <SMILES>  (79) 
[H]/N=c1\c(C(=O)[N-][C@@H](C)c2ccccc2)cc2c(=O)n3cc(Cl)ccc3nc2n1Cc1ccccc1

>  <Energy>  (79) 
83.12217000565826

>  <Genealogy>  (79) 
C[C@H]([N-]C(=O)c1cc2c(=O)n3cc(Cl)ccc3nc2n(Cc2ccccc2)c1=N)c1ccccc1 (protonated)
[H]/N=c1\c(C(=O)[N-][C@@H](C)c2ccccc2)cc2c(=O)n3cc(Cl)ccc3nc2n1Cc1ccccc1 (cis-trans isomerization)
[H]/N=c1\c(C(=O)[N-][C@@H](C)c2ccccc2)cc2c(=O)n3cc(Cl)ccc3nc2n1Cc1ccccc1 (3D coordinates assigned)
[H]/N=c1\c(C(=O)[N-][C@@H](C)c2ccccc2)cc2c(=O)n3cc(Cl)ccc3nc2n1Cc1ccccc1 (optimized conformer: 83.12217000565826 kcal/mol)

>  <smiles>  (79) 
C[C@H](NC(=O)c1cc2c(=O)n3cc(Cl)ccc3nc2n(Cc2ccccc2)c1=N)c1ccccc1

>  <score_type>  (79) 
oracle

>  <origin>  (79) 
autodockgpu

>  <m_score__min__energy>  (79) 
-8.75

>  <m_primary>  (79) 
energy

>  <meeko>  (79) 
{"free_energy": -8.73, "intermolecular_energy": -10.82, "internal_energy": -1.66, "cluster_size": 5, "cluster_id": 2, "rank_in_cluster": 1}

>  <energy>  (79) 
-7.98

>  <cluster_rmsd>  (79) 
0.12

>  <rmsd>  (79) 
270.33

>  <cluster>  (79) 
8

$$$$
BLHILRPTNSSYME-JHJFBCDHNA-M
     RDKit          3D

 56 60  0  0  0  0  0  0  0  0999 V2000
  139.2060   74.4450  222.7080 H   0  0  0  0  0  0  0  0  0  0  0  0
  139.5940   75.4150  222.7290 N   0  0  0  0  0  0  0  0  0  0  0  0
  140.1520   76.0100  221.7130 C   0  0  0  0  0  0  0  0  0  0  0  0
  140.7250   75.2480  220.6670 C   0  0  0  0  0  0  0  0  0  0  0  0
  140.7090   73.7730  220.6610 C   0  0  0  0  0  0  0  0  0  0  0  0
  140.1230   73.1680  221.5960 O   0  0  0  0  0  0  0  0  0  0  0  0
  141.3780   73.0030  219.6510 N   0  0  0  0  0  0  0  0  0  0  0  0
  142.4240   71.9900  219.8340 C   0  0  2  0  0  0  0  0  0  0  0  0
  142.2144   71.4026  220.7401 H   0  0  0  0  0  0  0  0  0  0  0  0
  143.7790   72.6250  220.1150 C   0  0  0  0  0  0  0  0  0  0  0  0
  143.9270   73.9530  220.5760 C   0  0  0  0  0  0  0  0  0  0  0  0
  143.0366   74.5808  220.7281 H   0  0  0  0  0  0  0  0  0  0  0  0
  145.1970   74.4740  220.8400 C   0  0  0  0  0  0  0  0  0  0  0  0
  145.3012   75.5067  221.2041 H   0  0  0  0  0  0  0  0  0  0  0  0
  146.3330   73.6880  220.6430 C   0  0  0  0  0  0  0  0  0  0  0  0
  147.3308   74.1014  220.8515 H   0  0  0  0  0  0  0  0  0  0  0  0
  146.2030   72.3760  220.1810 C   0  0  0  0  0  0  0  0  0  0  0  0
  147.0990   71.7577  220.0232 H   0  0  0  0  0  0  0  0  0  0  0  0
  144.9350   71.8480  219.9190 C   0  0  0  0  0  0  0  0  0  0  0  0
  144.8405   70.8140  219.5558 H   0  0  0  0  0  0  0  0  0  0  0  0
  142.3980   70.9800  218.6790 C   0  0  0  0  0  0  0  0  0  0  0  0
  142.3717   69.9583  219.0858 H   0  0  0  0  0  0  0  0  0  0  0  0
  141.5040   71.1519  218.0616 H   0  0  0  0  0  0  0  0  0  0  0  0
  143.2997   71.1057  218.0616 H   0  0  0  0  0  0  0  0  0  0  0  0
  141.3810   75.9000  219.6260 C   0  0  0  0  0  0  0  0  0  0  0  0
  141.8845   75.3130  218.8437 H   0  0  0  0  0  0  0  0  0  0  0  0
  141.4030   77.2950  219.5700 C   0  0  0  0  0  0  0  0  0  0  0  0
  142.0160   77.9900  218.5080 C   0  0  0  0  0  0  0  0  0  0  0  0
  142.5780   77.3400  217.5820 O   0  0  0  0  0  0  0  0  0  0  0  0
  141.9950   79.3630  218.4810 N   0  0  0  0  0  0  0  0  0  0  0  0
  142.5810   80.0520  217.4480 C   0  0  0  0  0  0  0  0  0  0  0  0
  143.0713   79.4977  216.6342 H   0  0  0  0  0  0  0  0  0  0  0  0
  142.5620   81.4500  217.4180 C   0  0  0  0  0  0  0  0  0  0  0  0
  143.3140   82.3180  216.0920 Cl  0  0  0  0  0  0  0  0  0  0  0  0
  141.9410   82.1500  218.4490 C   0  0  0  0  0  0  0  0  0  0  0  0
  141.9200   83.2497  218.4359 H   0  0  0  0  0  0  0  0  0  0  0  0
  141.3470   81.4520  219.4960 C   0  0  0  0  0  0  0  0  0  0  0  0
  140.8556   81.9971  220.3154 H   0  0  0  0  0  0  0  0  0  0  0  0
  141.3780   80.0530  219.5010 C   0  0  0  0  0  0  0  0  0  0  0  0
  140.7930   79.3850  220.5240 N   0  0  0  0  0  0  0  0  0  0  0  0
  140.7820   78.0290  220.5950 C   0  0  0  0  0  0  0  0  0  0  0  0
  140.1790   77.3880  221.6550 N   0  0  0  0  0  0  0  0  0  0  0  0
  139.5880   78.2020  222.7430 C   0  0  0  0  0  0  0  0  0  0  0  0
  138.6589   78.6677  222.3825 H   0  0  0  0  0  0  0  0  0  0  0  0
  139.3768   77.5475  223.6015 H   0  0  0  0  0  0  0  0  0  0  0  0
  140.5470   79.2810  223.1780 C   0  0  0  0  0  0  0  0  0  0  0  0
  140.1390   80.6260  223.2130 C   0  0  0  0  0  0  0  0  0  0  0  0
  139.1075   80.8925  222.9393 H   0  0  0  0  0  0  0  0  0  0  0  0
  141.0380   81.6260  223.5940 C   0  0  0  0  0  0  0  0  0  0  0  0
  140.7119   82.6762  223.6209 H   0  0  0  0  0  0  0  0  0  0  0  0
  142.3510   81.2940  223.9410 C   0  0  0  0  0  0  0  0  0  0  0  0
  143.0576   82.0826  224.2390 H   0  0  0  0  0  0  0  0  0  0  0  0
  142.7650   79.9600  223.9090 C   0  0  0  0  0  0  0  0  0  0  0  0
  143.7978   79.6988  224.1830 H   0  0  0  0  0  0  0  0  0  0  0  0
  141.8680   78.9560  223.5290 C   0  0  0  0  0  0  0  0  0  0  0  0
  142.1985   77.9071  223.5049 H   0  0  0  0  0  0  0  0  0  0  0  0
  1  2  1  0
  2  3  2  0
  3  4  1  0
  4  5  1  0
  5  6  2  0
  5  7  1  0
  7  8  1  0
  8  9  1  1
  8 10  1  0
 10 11  2  0
 11 12  1  0
 11 13  1  0
 13 14  1  0
 13 15  2  0
 15 16  1  0
 15 17  1  0
 17 18  1  0
 17 19  2  0
 19 20  1  0
  8 21  1  0
 21 22  1  0
 21 23  1  0
 21 24  1  0
  4 25  2  0
 25 26  1  0
 25 27  1  0
 27 28  1  0
 28 29  2  0
 28 30  1  0
 30 31  1  0
 31 32  1  0
 31 33  2  0
 33 34  1  0
 33 35  1  0
 35 36  1  0
 35 37  2  0
 37 38  1  0
 37 39  1  0
 39 40  2  0
 40 41  1  0
 41 42  1  0
 42 43  1  0
 43 44  1  0
 43 45  1  0
 43 46  1  0
 46 47  2  0
 47 48  1  0
 47 49  1  0
 49 50  1  0
 49 51  2  0
 51 52  1  0
 51 53  1  0
 53 54  1  0
 53 55  2  0
 55 56  1  0
 42  3  1  0
 55 46  1  0
 19 10  1  0
 41 27  2  0
 39 30  1  0
M  CHG  1   7  -1
M  END
>  <UniqueID>  (80) 
103

>  <SMILES>  (80) 
[H]/N=c1\c(C(=O)[N-][C@@H](C)c2ccccc2)cc2c(=O)n3cc(Cl)ccc3nc2n1Cc1ccccc1

>  <Energy>  (80) 
83.12217000565826

>  <Genealogy>  (80) 
C[C@H]([N-]C(=O)c1cc2c(=O)n3cc(Cl)ccc3nc2n(Cc2ccccc2)c1=N)c1ccccc1 (protonated)
[H]/N=c1\c(C(=O)[N-][C@@H](C)c2ccccc2)cc2c(=O)n3cc(Cl)ccc3nc2n1Cc1ccccc1 (cis-trans isomerization)
[H]/N=c1\c(C(=O)[N-][C@@H](C)c2ccccc2)cc2c(=O)n3cc(Cl)ccc3nc2n1Cc1ccccc1 (3D coordinates assigned)
[H]/N=c1\c(C(=O)[N-][C@@H](C)c2ccccc2)cc2c(=O)n3cc(Cl)ccc3nc2n1Cc1ccccc1 (optimized conformer: 83.12217000565826 kcal/mol)

>  <smiles>  (80) 
C[C@H](NC(=O)c1cc2c(=O)n3cc(Cl)ccc3nc2n(Cc2ccccc2)c1=N)c1ccccc1

>  <score_type>  (80) 
oracle

>  <origin>  (80) 
autodockgpu

>  <m_score__min__energy>  (80) 
-8.75

>  <m_primary>  (80) 
energy

>  <meeko>  (80) 
{"free_energy": -7.99, "intermolecular_energy": -10.08, "internal_energy": -1.84, "cluster_size": 2, "cluster_id": 8, "rank_in_cluster": 1}

>  <energy>  (80) 
-7.65

>  <cluster_rmsd>  (80) 
0.0

>  <rmsd>  (80) 
269.91

>  <cluster>  (80) 
9

$$$$
