
     RDKit          3D

 51 54  0  0  0  0  0  0  0  0999 V2000
  141.0650   71.6600  221.4200 O   0  0  0  0  0  0  0  0  0  0  0  0
  140.4910   72.1960  222.4190 C   0  0  0  0  0  0  0  0  0  0  0  0
  140.0500   73.5550  222.3000 N   0  0  0  0  0  0  0  0  0  0  0  0
  140.2940   74.2210  221.0410 C   0  0  0  0  0  0  0  0  0  0  0  0
  141.1470   75.4280  221.1990 C   0  0  0  0  0  0  0  0  0  0  0  0
  141.4080   75.8680  222.3540 O   0  0  0  0  0  0  0  0  0  0  0  0
  141.6450   76.0490  220.0180 N   0  0  0  0  0  0  0  0  0  0  0  0
  141.2450   77.3980  219.6190 C   0  0  0  0  0  0  0  0  0  0  0  0
  141.0310   77.4250  218.1150 C   0  0  0  0  0  0  0  0  0  0  0  0
  142.2750   76.9890  217.3730 C   0  0  0  0  0  0  0  0  0  0  0  0
  143.3000   76.3840  218.3370 C   0  0  0  0  0  0  0  0  0  0  0  0
  142.5840   75.3470  219.1490 C   0  0  1  0  0  0  0  0  0  0  0  0
  143.4890   74.4260  219.8530 C   0  0  0  0  0  0  0  0  0  0  0  0
  144.6680   74.8910  220.4380 C   0  0  0  0  0  0  0  0  0  0  0  0
  145.5380   74.0560  221.1060 C   0  0  0  0  0  0  0  0  0  0  0  0
  145.2570   72.7100  221.2170 C   0  0  0  0  0  0  0  0  0  0  0  0
  144.0870   72.2080  220.6450 C   0  0  0  0  0  0  0  0  0  0  0  0
  143.2440   73.0780  219.9860 C   0  0  0  0  0  0  0  0  0  0  0  0
  140.2840   71.4520  223.6530 C   0  0  0  0  0  0  0  0  0  0  0  0
  139.6140   70.2530  223.6010 C   0  0  0  0  0  0  0  0  0  0  0  0
  139.3640   69.4700  224.7020 C   0  0  0  0  0  0  0  0  0  0  0  0
  139.8230   69.9340  225.9210 C   0  0  0  0  0  0  0  0  0  0  0  0
  139.5780   69.1560  227.0340 C   0  0  0  0  0  0  0  0  0  0  0  0
  140.0200   69.5890  228.2580 C   0  0  0  0  0  0  0  0  0  0  0  0
  140.7020   70.7980  228.3440 C   0  0  0  0  0  0  0  0  0  0  0  0
  140.9400   71.5700  227.2100 C   0  0  0  0  0  0  0  0  0  0  0  0
  140.4970   71.1400  225.9740 C   0  0  0  0  0  0  0  0  0  0  0  0
  140.7170   71.8750  224.8540 N   0  0  0  0  0  0  0  0  0  0  0  0
  139.5730   74.0120  223.1140 H   0  0  0  0  0  0  0  0  0  0  0  0
  140.7973   73.5184  220.3605 H   0  0  0  0  0  0  0  0  0  0  0  0
  139.3234   74.5446  220.6371 H   0  0  0  0  0  0  0  0  0  0  0  0
  140.3100   77.6718  220.1297 H   0  0  0  0  0  0  0  0  0  0  0  0
  142.0308   78.1162  219.8959 H   0  0  0  0  0  0  0  0  0  0  0  0
  140.2047   76.7456  217.8587 H   0  0  0  0  0  0  0  0  0  0  0  0
  140.7940   78.4571  217.8173 H   0  0  0  0  0  0  0  0  0  0  0  0
  142.0002   76.2359  216.6198 H   0  0  0  0  0  0  0  0  0  0  0  0
  142.7232   77.8692  216.8890 H   0  0  0  0  0  0  0  0  0  0  0  0
  144.1213   75.9195  217.7715 H   0  0  0  0  0  0  0  0  0  0  0  0
  143.7318   77.1598  218.9863 H   0  0  0  0  0  0  0  0  0  0  0  0
  142.0257   74.6682  218.4876 H   0  0  0  0  0  0  0  0  0  0  0  0
  144.9114   75.9611  220.3634 H   0  0  0  0  0  0  0  0  0  0  0  0
  146.4576   74.4636  221.5512 H   0  0  0  0  0  0  0  0  0  0  0  0
  145.9473   72.0399  221.7503 H   0  0  0  0  0  0  0  0  0  0  0  0
  143.8418   71.1382  220.7185 H   0  0  0  0  0  0  0  0  0  0  0  0
  142.3236   72.6717  219.5414 H   0  0  0  0  0  0  0  0  0  0  0  0
  139.2576   69.9001  222.6220 H   0  0  0  0  0  0  0  0  0  0  0  0
  138.8226   68.5162  224.6174 H   0  0  0  0  0  0  0  0  0  0  0  0
  139.0365   68.2031  226.9410 H   0  0  0  0  0  0  0  0  0  0  0  0
  139.8373   68.9874  229.1606 H   0  0  0  0  0  0  0  0  0  0  0  0
  141.0589   71.1498  229.3232 H   0  0  0  0  0  0  0  0  0  0  0  0
  141.4814   72.5235  227.2983 H   0  0  0  0  0  0  0  0  0  0  0  0
  1  2  2  0
  2  3  1  0
  3  4  1  0
  4  5  1  0
  5  6  2  0
  5  7  1  0
  7  8  1  0
  8  9  1  0
  9 10  1  0
 10 11  1  0
 11 12  1  0
 12 13  1  0
 13 14  2  0
 14 15  1  0
 15 16  2  0
 16 17  1  0
 17 18  2  0
  2 19  1  0
 19 20  2  0
 20 21  1  0
 21 22  2  0
 22 23  1  0
 23 24  2  0
 24 25  1  0
 25 26  2  0
 26 27  1  0
 27 28  2  0
 12  7  1  0
 18 13  1  0
 28 19  1  0
 27 22  1  0
  3 29  1  0
  4 30  1  0
  4 31  1  0
  8 32  1  0
  8 33  1  0
  9 34  1  0
  9 35  1  0
 10 36  1  0
 10 37  1  0
 11 38  1  0
 11 39  1  0
 12 40  1  6
 14 41  1  0
 15 42  1  0
 16 43  1  0
 17 44  1  0
 18 45  1  0
 20 46  1  0
 21 47  1  0
 23 48  1  0
 24 49  1  0
 25 50  1  0
 26 51  1  0
M  END
>  <smiles>  (1) 
O=C(NCC(=O)N1CCCC[C@H]1c1ccccc1)c1ccc2ccccc2n1

>  <score_type>  (1) 
oracle

>  <origin>  (1) 
autodockgpu

>  <m_score__min__energy>  (1) 
-8.8499999999999996

>  <m_primary>  (1) 
energy

>  <meeko>  (1) 
{"free_energy": -8.42, "intermolecular_energy": -9.92, "internal_energy": -1.82, "cluster_size": 13, "cluster_id": 2, "rank_in_cluster": 5}

>  <energy>  (1) 
-8.85

>  <cluster_rmsd>  (1) 
0.0

>  <rmsd>  (1) 
271.67

>  <cluster>  (1) 
1

$$$$

     RDKit          3D

 51 54  0  0  0  0  0  0  0  0999 V2000
  140.9650   71.6370  221.3880 O   0  0  0  0  0  0  0  0  0  0  0  0
  140.4360   72.1820  222.4070 C   0  0  0  0  0  0  0  0  0  0  0  0
  140.0190   73.5500  222.3060 N   0  0  0  0  0  0  0  0  0  0  0  0
  140.2340   74.2150  221.0410 C   0  0  0  0  0  0  0  0  0  0  0  0
  140.9910   75.4850  221.1930 C   0  0  0  0  0  0  0  0  0  0  0  0
  141.2160   75.9490  222.3460 O   0  0  0  0  0  0  0  0  0  0  0  0
  141.4400   76.1370  220.0090 N   0  0  0  0  0  0  0  0  0  0  0  0
  141.0290   77.4980  219.6660 C   0  0  0  0  0  0  0  0  0  0  0  0
  140.7510   77.5670  218.1730 C   0  0  0  0  0  0  0  0  0  0  0  0
  141.9590   77.1480  217.3670 C   0  0  0  0  0  0  0  0  0  0  0  0
  143.0220   76.5130  218.2680 C   0  0  0  0  0  0  0  0  0  0  0  0
  142.3380   75.4560  219.0810 C   0  0  1  0  0  0  0  0  0  0  0  0
  143.2680   74.5130  219.7200 C   0  0  0  0  0  0  0  0  0  0  0  0
  142.9660   73.1530  219.7970 C   0  0  0  0  0  0  0  0  0  0  0  0
  143.8160   72.2420  220.3880 C   0  0  0  0  0  0  0  0  0  0  0  0
  145.0140   72.6620  220.9270 C   0  0  0  0  0  0  0  0  0  0  0  0
  145.3500   74.0160  220.8680 C   0  0  0  0  0  0  0  0  0  0  0  0
  144.4720   74.8940  220.2690 C   0  0  0  0  0  0  0  0  0  0  0  0
  140.2560   71.4400  223.6460 C   0  0  0  0  0  0  0  0  0  0  0  0
  139.5930   70.2360  223.6080 C   0  0  0  0  0  0  0  0  0  0  0  0
  139.3680   69.4540  224.7150 C   0  0  0  0  0  0  0  0  0  0  0  0
  139.8450   69.9230  225.9250 C   0  0  0  0  0  0  0  0  0  0  0  0
  139.6250   69.1460  227.0430 C   0  0  0  0  0  0  0  0  0  0  0  0
  140.0860   69.5840  228.2580 C   0  0  0  0  0  0  0  0  0  0  0  0
  140.7620   70.7990  228.3300 C   0  0  0  0  0  0  0  0  0  0  0  0
  140.9740   71.5700  227.1900 C   0  0  0  0  0  0  0  0  0  0  0  0
  140.5120   71.1340  225.9630 C   0  0  0  0  0  0  0  0  0  0  0  0
  140.7080   71.8680  224.8390 N   0  0  0  0  0  0  0  0  0  0  0  0
  139.5800   74.0150  223.1360 H   0  0  0  0  0  0  0  0  0  0  0  0
  140.8002   73.5427  220.3796 H   0  0  0  0  0  0  0  0  0  0  0  0
  139.2486   74.4591  220.6174 H   0  0  0  0  0  0  0  0  0  0  0  0
  140.1179   77.7602  220.2237 H   0  0  0  0  0  0  0  0  0  0  0  0
  141.8284   78.2062  219.9293 H   0  0  0  0  0  0  0  0  0  0  0  0
  139.9116   76.8975  217.9340 H   0  0  0  0  0  0  0  0  0  0  0  0
  140.5063   78.6077  217.9142 H   0  0  0  0  0  0  0  0  0  0  0  0
  141.6485   76.4172  216.6058 H   0  0  0  0  0  0  0  0  0  0  0  0
  142.3899   78.0401  216.8890 H   0  0  0  0  0  0  0  0  0  0  0  0
  143.8159   76.0621  217.6545 H   0  0  0  0  0  0  0  0  0  0  0  0
  143.4848   77.2690  218.9194 H   0  0  0  0  0  0  0  0  0  0  0  0
  141.7496   74.7971  218.4255 H   0  0  0  0  0  0  0  0  0  0  0  0
  142.0169   72.7950  219.3715 H   0  0  0  0  0  0  0  0  0  0  0  0
  143.5380   71.1785  220.4296 H   0  0  0  0  0  0  0  0  0  0  0  0
  145.6965   71.9391  221.3977 H   0  0  0  0  0  0  0  0  0  0  0  0
  146.2990   74.3759  221.2922 H   0  0  0  0  0  0  0  0  0  0  0  0
  144.7485   75.9578  220.2273 H   0  0  0  0  0  0  0  0  0  0  0  0
  139.2217   69.8786  222.6362 H   0  0  0  0  0  0  0  0  0  0  0  0
  138.8317   68.4964  224.6418 H   0  0  0  0  0  0  0  0  0  0  0  0
  139.0879   68.1895  226.9614 H   0  0  0  0  0  0  0  0  0  0  0  0
  139.9237   68.9827  229.1647 H   0  0  0  0  0  0  0  0  0  0  0  0
  141.1341   71.1552  229.3019 H   0  0  0  0  0  0  0  0  0  0  0  0
  141.5100   72.5275  227.2664 H   0  0  0  0  0  0  0  0  0  0  0  0
  1  2  2  0
  2  3  1  0
  3  4  1  0
  4  5  1  0
  5  6  2  0
  5  7  1  0
  7  8  1  0
  8  9  1  0
  9 10  1  0
 10 11  1  0
 11 12  1  0
 12 13  1  0
 13 14  2  0
 14 15  1  0
 15 16  2  0
 16 17  1  0
 17 18  2  0
  2 19  1  0
 19 20  2  0
 20 21  1  0
 21 22  2  0
 22 23  1  0
 23 24  2  0
 24 25  1  0
 25 26  2  0
 26 27  1  0
 27 28  2  0
 12  7  1  0
 18 13  1  0
 28 19  1  0
 27 22  1  0
  3 29  1  0
  4 30  1  0
  4 31  1  0
  8 32  1  0
  8 33  1  0
  9 34  1  0
  9 35  1  0
 10 36  1  0
 10 37  1  0
 11 38  1  0
 11 39  1  0
 12 40  1  6
 14 41  1  0
 15 42  1  0
 16 43  1  0
 17 44  1  0
 18 45  1  0
 20 46  1  0
 21 47  1  0
 23 48  1  0
 24 49  1  0
 25 50  1  0
 26 51  1  0
M  END
>  <smiles>  (2) 
O=C(NCC(=O)N1CCCC[C@H]1c1ccccc1)c1ccc2ccccc2n1

>  <score_type>  (2) 
oracle

>  <origin>  (2) 
autodockgpu

>  <m_score__min__energy>  (2) 
-8.8499999999999996

>  <m_primary>  (2) 
energy

>  <meeko>  (2) 
{"free_energy": -8.39, "intermolecular_energy": -9.89, "internal_energy": -1.8, "cluster_size": 13, "cluster_id": 2, "rank_in_cluster": 12}

>  <energy>  (2) 
-8.83

>  <cluster_rmsd>  (2) 
0.08

>  <rmsd>  (2) 
271.7

>  <cluster>  (2) 
1

$$$$

     RDKit          3D

 51 54  0  0  0  0  0  0  0  0999 V2000
  140.7150   76.8240  218.2070 O   0  0  0  0  0  0  0  0  0  0  0  0
  141.8260   76.8920  218.8240 C   0  0  0  0  0  0  0  0  0  0  0  0
  142.2260   78.1580  219.3650 N   0  0  0  0  0  0  0  0  0  0  0  0
  141.3290   79.2740  219.1690 C   0  0  0  0  0  0  0  0  0  0  0  0
  140.3900   79.4490  220.3080 C   0  0  0  0  0  0  0  0  0  0  0  0
  139.1440   79.3940  220.1110 O   0  0  0  0  0  0  0  0  0  0  0  0
  140.9470   79.6760  221.5990 N   0  0  0  0  0  0  0  0  0  0  0  0
  141.1350   81.0210  222.1420 C   0  0  0  0  0  0  0  0  0  0  0  0
  142.4720   81.0800  222.8620 C   0  0  0  0  0  0  0  0  0  0  0  0
  142.5560   80.0400  223.9560 C   0  0  0  0  0  0  0  0  0  0  0  0
  141.3960   79.0460  223.8530 C   0  0  0  0  0  0  0  0  0  0  0  0
  141.3590   78.5540  222.4370 C   0  0  1  0  0  0  0  0  0  0  0  0
  140.5530   77.3360  222.2600 C   0  0  0  0  0  0  0  0  0  0  0  0
  139.1750   77.3540  222.4780 C   0  0  0  0  0  0  0  0  0  0  0  0
  138.3900   76.2320  222.3200 C   0  0  0  0  0  0  0  0  0  0  0  0
  138.9600   75.0370  221.9320 C   0  0  0  0  0  0  0  0  0  0  0  0
  140.3370   74.9810  221.7050 C   0  0  0  0  0  0  0  0  0  0  0  0
  141.0850   76.1260  221.8740 C   0  0  0  0  0  0  0  0  0  0  0  0
  142.6710   75.7170  218.9770 C   0  0  0  0  0  0  0  0  0  0  0  0
  142.4170   74.6110  218.2000 C   0  0  0  0  0  0  0  0  0  0  0  0
  143.1500   73.4510  218.2620 C   0  0  0  0  0  0  0  0  0  0  0  0
  144.1980   73.4170  219.1630 C   0  0  0  0  0  0  0  0  0  0  0  0
  144.9420   72.2570  219.2340 C   0  0  0  0  0  0  0  0  0  0  0  0
  145.9890   72.1910  220.1180 C   0  0  0  0  0  0  0  0  0  0  0  0
  146.2710   73.2940  220.9170 C   0  0  0  0  0  0  0  0  0  0  0  0
  145.5100   74.4560  220.8320 C   0  0  0  0  0  0  0  0  0  0  0  0
  144.4540   74.5280  219.9440 C   0  0  0  0  0  0  0  0  0  0  0  0
  143.6980   75.6510  219.8430 N   0  0  0  0  0  0  0  0  0  0  0  0
  143.1370   78.2310  219.8770 H   0  0  0  0  0  0  0  0  0  0  0  0
  141.9251   80.1918  219.0576 H   0  0  0  0  0  0  0  0  0  0  0  0
  140.7314   79.0716  218.2679 H   0  0  0  0  0  0  0  0  0  0  0  0
  141.1245   81.7546  221.3225 H   0  0  0  0  0  0  0  0  0  0  0  0
  140.3226   81.2552  222.8457 H   0  0  0  0  0  0  0  0  0  0  0  0
  143.2780   80.9008  222.1352 H   0  0  0  0  0  0  0  0  0  0  0  0
  142.5742   82.0743  223.3212 H   0  0  0  0  0  0  0  0  0  0  0  0
  143.5070   79.4950  223.8630 H   0  0  0  0  0  0  0  0  0  0  0  0
  142.4989   80.5481  224.9300 H   0  0  0  0  0  0  0  0  0  0  0  0
  141.5595   78.2032  224.5408 H   0  0  0  0  0  0  0  0  0  0  0  0
  140.4445   79.5264  224.1248 H   0  0  0  0  0  0  0  0  0  0  0  0
  142.3599   78.2199  222.1264 H   0  0  0  0  0  0  0  0  0  0  0  0
  138.6985   78.2962  222.7866 H   0  0  0  0  0  0  0  0  0  0  0  0
  137.3070   76.2895  222.5036 H   0  0  0  0  0  0  0  0  0  0  0  0
  138.3376   74.1393  221.8030 H   0  0  0  0  0  0  0  0  0  0  0  0
  140.8158   74.0398  221.3969 H   0  0  0  0  0  0  0  0  0  0  0  0
  142.1681   76.0702  221.6902 H   0  0  0  0  0  0  0  0  0  0  0  0
  141.5794   74.6580  217.4886 H   0  0  0  0  0  0  0  0  0  0  0  0
  142.9136   72.5874  217.6231 H   0  0  0  0  0  0  0  0  0  0  0  0
  144.6992   71.3980  218.5913 H   0  0  0  0  0  0  0  0  0  0  0  0
  146.5975   71.2778  220.1939 H   0  0  0  0  0  0  0  0  0  0  0  0
  147.1093   73.2471  221.6277 H   0  0  0  0  0  0  0  0  0  0  0  0
  145.7494   75.3178  221.4723 H   0  0  0  0  0  0  0  0  0  0  0  0
  1  2  2  0
  2  3  1  0
  3  4  1  0
  4  5  1  0
  5  6  2  0
  5  7  1  0
  7  8  1  0
  8  9  1  0
  9 10  1  0
 10 11  1  0
 11 12  1  0
 12 13  1  0
 13 14  2  0
 14 15  1  0
 15 16  2  0
 16 17  1  0
 17 18  2  0
  2 19  1  0
 19 20  2  0
 20 21  1  0
 21 22  2  0
 22 23  1  0
 23 24  2  0
 24 25  1  0
 25 26  2  0
 26 27  1  0
 27 28  2  0
 12  7  1  0
 18 13  1  0
 28 19  1  0
 27 22  1  0
  3 29  1  0
  4 30  1  0
  4 31  1  0
  8 32  1  0
  8 33  1  0
  9 34  1  0
  9 35  1  0
 10 36  1  0
 10 37  1  0
 11 38  1  0
 11 39  1  0
 12 40  1  6
 14 41  1  0
 15 42  1  0
 16 43  1  0
 17 44  1  0
 18 45  1  0
 20 46  1  0
 21 47  1  0
 23 48  1  0
 24 49  1  0
 25 50  1  0
 26 51  1  0
M  END
>  <smiles>  (3) 
O=C(NCC(=O)N1CCCC[C@H]1c1ccccc1)c1ccc2ccccc2n1

>  <score_type>  (3) 
oracle

>  <origin>  (3) 
autodockgpu

>  <m_score__min__energy>  (3) 
-8.8499999999999996

>  <m_primary>  (3) 
energy

>  <meeko>  (3) 
{"free_energy": -7.14, "intermolecular_energy": -8.63, "internal_energy": -2.47, "cluster_size": 4, "cluster_id": 4, "rank_in_cluster": 2}

>  <energy>  (3) 
-8.43

>  <cluster_rmsd>  (3) 
0.0

>  <rmsd>  (3) 
271.29

>  <cluster>  (3) 
2

$$$$

     RDKit          3D

 51 54  0  0  0  0  0  0  0  0999 V2000
  140.6980   76.8280  218.2690 O   0  0  0  0  0  0  0  0  0  0  0  0
  141.8310   76.9060  218.8390 C   0  0  0  0  0  0  0  0  0  0  0  0
  142.2550   78.1830  219.3350 N   0  0  0  0  0  0  0  0  0  0  0  0
  141.3530   79.2970  219.1480 C   0  0  0  0  0  0  0  0  0  0  0  0
  140.4060   79.4510  220.2840 C   0  0  0  0  0  0  0  0  0  0  0  0
  139.1620   79.3730  220.0810 O   0  0  0  0  0  0  0  0  0  0  0  0
  140.9530   79.6850  221.5780 N   0  0  0  0  0  0  0  0  0  0  0  0
  141.1550   81.0340  222.1070 C   0  0  0  0  0  0  0  0  0  0  0  0
  142.4850   81.0820  222.8400 C   0  0  0  0  0  0  0  0  0  0  0  0
  142.5420   80.0530  223.9470 C   0  0  0  0  0  0  0  0  0  0  0  0
  141.3690   79.0760  223.8440 C   0  0  0  0  0  0  0  0  0  0  0  0
  141.3390   78.5670  222.4330 C   0  0  1  0  0  0  0  0  0  0  0  0
  140.5180   77.3600  222.2620 C   0  0  0  0  0  0  0  0  0  0  0  0
  141.0970   76.1510  221.8760 C   0  0  0  0  0  0  0  0  0  0  0  0
  140.3560   75.0000  221.7070 C   0  0  0  0  0  0  0  0  0  0  0  0
  138.9930   75.0160  221.9230 C   0  0  0  0  0  0  0  0  0  0  0  0
  138.3790   76.2090  222.3100 C   0  0  0  0  0  0  0  0  0  0  0  0
  139.1560   77.3360  222.4680 C   0  0  0  0  0  0  0  0  0  0  0  0
  142.6790   75.7330  218.9860 C   0  0  0  0  0  0  0  0  0  0  0  0
  142.4290   74.6300  218.2040 C   0  0  0  0  0  0  0  0  0  0  0  0
  143.1650   73.4720  218.2600 C   0  0  0  0  0  0  0  0  0  0  0  0
  144.2130   73.4350  219.1600 C   0  0  0  0  0  0  0  0  0  0  0  0
  144.9600   72.2770  219.2250 C   0  0  0  0  0  0  0  0  0  0  0  0
  146.0060   72.2090  220.1090 C   0  0  0  0  0  0  0  0  0  0  0  0
  146.2850   73.3080  220.9150 C   0  0  0  0  0  0  0  0  0  0  0  0
  145.5210   74.4690  220.8360 C   0  0  0  0  0  0  0  0  0  0  0  0
  144.4660   74.5440  219.9480 C   0  0  0  0  0  0  0  0  0  0  0  0
  143.7070   75.6650  219.8520 N   0  0  0  0  0  0  0  0  0  0  0  0
  143.1850   78.2650  219.8100 H   0  0  0  0  0  0  0  0  0  0  0  0
  141.9446   80.2195  219.0527 H   0  0  0  0  0  0  0  0  0  0  0  0
  140.7623   79.1040  218.2403 H   0  0  0  0  0  0  0  0  0  0  0  0
  141.1637   81.7578  221.2787 H   0  0  0  0  0  0  0  0  0  0  0  0
  140.3389   81.2886  222.7992 H   0  0  0  0  0  0  0  0  0  0  0  0
  143.2958   80.8826  222.1239 H   0  0  0  0  0  0  0  0  0  0  0  0
  142.5974   82.0800  223.2887 H   0  0  0  0  0  0  0  0  0  0  0  0
  143.4855   79.4927  223.8699 H   0  0  0  0  0  0  0  0  0  0  0  0
  142.4826   80.5733  224.9144 H   0  0  0  0  0  0  0  0  0  0  0  0
  141.5127   78.2394  224.5436 H   0  0  0  0  0  0  0  0  0  0  0  0
  140.4221   79.5739  224.1000 H   0  0  0  0  0  0  0  0  0  0  0  0
  142.3377   78.2137  222.1367 H   0  0  0  0  0  0  0  0  0  0  0  0
  142.1823   76.1143  221.7003 H   0  0  0  0  0  0  0  0  0  0  0  0
  140.8523   74.0677  221.3995 H   0  0  0  0  0  0  0  0  0  0  0  0
  138.3977   74.1003  221.7919 H   0  0  0  0  0  0  0  0  0  0  0  0
  137.2938   76.2484  222.4857 H   0  0  0  0  0  0  0  0  0  0  0  0
  138.6610   78.2688  222.7759 H   0  0  0  0  0  0  0  0  0  0  0  0
  141.5913   74.6779  217.4927 H   0  0  0  0  0  0  0  0  0  0  0  0
  142.9305   72.6113  217.6164 H   0  0  0  0  0  0  0  0  0  0  0  0
  144.7201   71.4209  218.5773 H   0  0  0  0  0  0  0  0  0  0  0  0
  146.6168   71.2969  220.1799 H   0  0  0  0  0  0  0  0  0  0  0  0
  147.1228   73.2588  221.6261 H   0  0  0  0  0  0  0  0  0  0  0  0
  145.7579   75.3276  221.4816 H   0  0  0  0  0  0  0  0  0  0  0  0
  1  2  2  0
  2  3  1  0
  3  4  1  0
  4  5  1  0
  5  6  2  0
  5  7  1  0
  7  8  1  0
  8  9  1  0
  9 10  1  0
 10 11  1  0
 11 12  1  0
 12 13  1  0
 13 14  2  0
 14 15  1  0
 15 16  2  0
 16 17  1  0
 17 18  2  0
  2 19  1  0
 19 20  2  0
 20 21  1  0
 21 22  2  0
 22 23  1  0
 23 24  2  0
 24 25  1  0
 25 26  2  0
 26 27  1  0
 27 28  2  0
 12  7  1  0
 18 13  1  0
 28 19  1  0
 27 22  1  0
  3 29  1  0
  4 30  1  0
  4 31  1  0
  8 32  1  0
  8 33  1  0
  9 34  1  0
  9 35  1  0
 10 36  1  0
 10 37  1  0
 11 38  1  0
 11 39  1  0
 12 40  1  6
 14 41  1  0
 15 42  1  0
 16 43  1  0
 17 44  1  0
 18 45  1  0
 20 46  1  0
 21 47  1  0
 23 48  1  0
 24 49  1  0
 25 50  1  0
 26 51  1  0
M  END
>  <smiles>  (4) 
O=C(NCC(=O)N1CCCC[C@H]1c1ccccc1)c1ccc2ccccc2n1

>  <score_type>  (4) 
oracle

>  <origin>  (4) 
autodockgpu

>  <m_score__min__energy>  (4) 
-8.8499999999999996

>  <m_primary>  (4) 
energy

>  <meeko>  (4) 
{"free_energy": -7.13, "intermolecular_energy": -8.63, "internal_energy": -2.47, "cluster_size": 4, "cluster_id": 4, "rank_in_cluster": 4}

>  <energy>  (4) 
-8.43

>  <cluster_rmsd>  (4) 
0.03

>  <rmsd>  (4) 
271.31

>  <cluster>  (4) 
2

$$$$

     RDKit          3D

 51 54  0  0  0  0  0  0  0  0999 V2000
  141.1040   71.6420  221.4180 O   0  0  0  0  0  0  0  0  0  0  0  0
  140.5110   72.1750  222.4080 C   0  0  0  0  0  0  0  0  0  0  0  0
  140.0610   73.5300  222.2810 N   0  0  0  0  0  0  0  0  0  0  0  0
  140.3180   74.1970  221.0250 C   0  0  0  0  0  0  0  0  0  0  0  0
  141.1480   75.4170  221.1950 C   0  0  0  0  0  0  0  0  0  0  0  0
  141.3990   75.8520  222.3540 O   0  0  0  0  0  0  0  0  0  0  0  0
  141.6370   76.0580  220.0210 N   0  0  0  0  0  0  0  0  0  0  0  0
  141.2240   77.4090  219.6410 C   0  0  0  0  0  0  0  0  0  0  0  0
  141.0060   77.4530  218.1370 C   0  0  0  0  0  0  0  0  0  0  0  0
  142.2510   77.0380  217.3860 C   0  0  0  0  0  0  0  0  0  0  0  0
  143.2840   76.4290  218.3390 C   0  0  0  0  0  0  0  0  0  0  0  0
  142.5800   75.3750  219.1400 C   0  0  1  0  0  0  0  0  0  0  0  0
  143.4950   74.4530  219.8290 C   0  0  0  0  0  0  0  0  0  0  0  0
  143.2270   73.0850  219.8780 C   0  0  0  0  0  0  0  0  0  0  0  0
  144.0640   72.1930  220.5140 C   0  0  0  0  0  0  0  0  0  0  0  0
  145.2130   72.6420  221.1310 C   0  0  0  0  0  0  0  0  0  0  0  0
  145.5140   74.0050  221.1030 C   0  0  0  0  0  0  0  0  0  0  0  0
  144.6500   74.8630  220.4560 C   0  0  0  0  0  0  0  0  0  0  0  0
  140.2920   71.4310  223.6390 C   0  0  0  0  0  0  0  0  0  0  0  0
  139.6190   70.2330  223.5810 C   0  0  0  0  0  0  0  0  0  0  0  0
  139.3590   69.4500  224.6800 C   0  0  0  0  0  0  0  0  0  0  0  0
  139.8080   69.9120  225.9030 C   0  0  0  0  0  0  0  0  0  0  0  0
  139.5530   69.1350  227.0130 C   0  0  0  0  0  0  0  0  0  0  0  0
  139.9860   69.5660  228.2410 C   0  0  0  0  0  0  0  0  0  0  0  0
  140.6690   70.7740  228.3330 C   0  0  0  0  0  0  0  0  0  0  0  0
  140.9190   71.5460  227.2020 C   0  0  0  0  0  0  0  0  0  0  0  0
  140.4850   71.1170  225.9620 C   0  0  0  0  0  0  0  0  0  0  0  0
  140.7160   71.8520  224.8450 N   0  0  0  0  0  0  0  0  0  0  0  0
  139.5680   73.9840  223.0870 H   0  0  0  0  0  0  0  0  0  0  0  0
  140.8450   73.5008  220.3559 H   0  0  0  0  0  0  0  0  0  0  0  0
  139.3500   74.5043  220.6025 H   0  0  0  0  0  0  0  0  0  0  0  0
  140.2879   77.6679  220.1575 H   0  0  0  0  0  0  0  0  0  0  0  0
  142.0037   78.1308  219.9257 H   0  0  0  0  0  0  0  0  0  0  0  0
  140.1852   76.7694  217.8743 H   0  0  0  0  0  0  0  0  0  0  0  0
  140.7594   78.4868  217.8533 H   0  0  0  0  0  0  0  0  0  0  0  0
  141.9805   76.2928  216.6235 H   0  0  0  0  0  0  0  0  0  0  0  0
  142.6902   77.9285  216.9126 H   0  0  0  0  0  0  0  0  0  0  0  0
  144.1074   75.9791  217.7649 H   0  0  0  0  0  0  0  0  0  0  0  0
  143.7108   77.2001  218.9973 H   0  0  0  0  0  0  0  0  0  0  0  0
  142.0258   74.6994  218.4718 H   0  0  0  0  0  0  0  0  0  0  0  0
  142.3162   72.7047  219.3923 H   0  0  0  0  0  0  0  0  0  0  0  0
  143.8151   71.1216  220.5294 H   0  0  0  0  0  0  0  0  0  0  0  0
  145.8844   71.9343  221.6393 H   0  0  0  0  0  0  0  0  0  0  0  0
  146.4240   74.3875  221.5883 H   0  0  0  0  0  0  0  0  0  0  0  0
  144.8974   75.9347  220.4399 H   0  0  0  0  0  0  0  0  0  0  0  0
  139.2690   69.8816  222.5991 H   0  0  0  0  0  0  0  0  0  0  0  0
  138.8171   68.4970  224.5903 H   0  0  0  0  0  0  0  0  0  0  0  0
  139.0102   68.1833  226.9152 H   0  0  0  0  0  0  0  0  0  0  0  0
  139.7955   68.9639  229.1416 H   0  0  0  0  0  0  0  0  0  0  0  0
  141.0173   71.1251  229.3155 H   0  0  0  0  0  0  0  0  0  0  0  0
  141.4622   72.4979  227.2952 H   0  0  0  0  0  0  0  0  0  0  0  0
  1  2  2  0
  2  3  1  0
  3  4  1  0
  4  5  1  0
  5  6  2  0
  5  7  1  0
  7  8  1  0
  8  9  1  0
  9 10  1  0
 10 11  1  0
 11 12  1  0
 12 13  1  0
 13 14  2  0
 14 15  1  0
 15 16  2  0
 16 17  1  0
 17 18  2  0
  2 19  1  0
 19 20  2  0
 20 21  1  0
 21 22  2  0
 22 23  1  0
 23 24  2  0
 24 25  1  0
 25 26  2  0
 26 27  1  0
 27 28  2  0
 12  7  1  0
 18 13  1  0
 28 19  1  0
 27 22  1  0
  3 29  1  0
  4 30  1  0
  4 31  1  0
  8 32  1  0
  8 33  1  0
  9 34  1  0
  9 35  1  0
 10 36  1  0
 10 37  1  0
 11 38  1  0
 11 39  1  0
 12 40  1  6
 14 41  1  0
 15 42  1  0
 16 43  1  0
 17 44  1  0
 18 45  1  0
 20 46  1  0
 21 47  1  0
 23 48  1  0
 24 49  1  0
 25 50  1  0
 26 51  1  0
M  END
>  <smiles>  (5) 
O=C(NCC(=O)N1CCCC[C@H]1c1ccccc1)c1ccc2ccccc2n1

>  <score_type>  (5) 
oracle

>  <origin>  (5) 
autodockgpu

>  <m_score__min__energy>  (5) 
-8.8499999999999996

>  <m_primary>  (5) 
energy

>  <meeko>  (5) 
{"free_energy": -8.41, "intermolecular_energy": -9.9, "internal_energy": -1.81, "cluster_size": 13, "cluster_id": 2, "rank_in_cluster": 10}

>  <energy>  (5) 
-8.42

>  <cluster_rmsd>  (5) 
0.04

>  <rmsd>  (5) 
271.29

>  <cluster>  (5) 
2

$$$$

     RDKit          3D

 51 54  0  0  0  0  0  0  0  0999 V2000
  141.1030   71.6380  221.4110 O   0  0  0  0  0  0  0  0  0  0  0  0
  140.5250   72.1830  222.4040 C   0  0  0  0  0  0  0  0  0  0  0  0
  140.0950   73.5450  222.2750 N   0  0  0  0  0  0  0  0  0  0  0  0
  140.3530   74.2030  221.0150 C   0  0  0  0  0  0  0  0  0  0  0  0
  141.1410   75.4520  221.1830 C   0  0  0  0  0  0  0  0  0  0  0  0
  141.3450   75.9170  222.3400 O   0  0  0  0  0  0  0  0  0  0  0  0
  141.6440   76.0830  220.0100 N   0  0  0  0  0  0  0  0  0  0  0  0
  141.2350   77.4310  219.6140 C   0  0  0  0  0  0  0  0  0  0  0  0
  141.0360   77.4630  218.1070 C   0  0  0  0  0  0  0  0  0  0  0  0
  142.2900   77.0420  217.3760 C   0  0  0  0  0  0  0  0  0  0  0  0
  143.3120   76.4430  218.3460 C   0  0  0  0  0  0  0  0  0  0  0  0
  142.5980   75.3940  219.1470 C   0  0  1  0  0  0  0  0  0  0  0  0
  143.5050   74.4790  219.8550 C   0  0  0  0  0  0  0  0  0  0  0  0
  143.2140   73.1180  219.9510 C   0  0  0  0  0  0  0  0  0  0  0  0
  144.0430   72.2320  220.6070 C   0  0  0  0  0  0  0  0  0  0  0  0
  145.2080   72.6800  221.1960 C   0  0  0  0  0  0  0  0  0  0  0  0
  145.5310   74.0360  221.1200 C   0  0  0  0  0  0  0  0  0  0  0  0
  144.6760   74.8880  220.4550 C   0  0  0  0  0  0  0  0  0  0  0  0
  140.3040   71.4470  223.6390 C   0  0  0  0  0  0  0  0  0  0  0  0
  139.6550   70.2350  223.5840 C   0  0  0  0  0  0  0  0  0  0  0  0
  139.3950   69.4580  224.6860 C   0  0  0  0  0  0  0  0  0  0  0  0
  139.8190   69.9410  225.9100 C   0  0  0  0  0  0  0  0  0  0  0  0
  139.5630   69.1690  227.0250 C   0  0  0  0  0  0  0  0  0  0  0  0
  139.9710   69.6200  228.2540 C   0  0  0  0  0  0  0  0  0  0  0  0
  140.6300   70.8410  228.3440 C   0  0  0  0  0  0  0  0  0  0  0  0
  140.8800   71.6070  227.2080 C   0  0  0  0  0  0  0  0  0  0  0  0
  140.4710   71.1580  225.9670 C   0  0  0  0  0  0  0  0  0  0  0  0
  140.7040   71.8870  224.8460 N   0  0  0  0  0  0  0  0  0  0  0  0
  139.6150   74.0080  223.0830 H   0  0  0  0  0  0  0  0  0  0  0  0
  140.9139   73.5154  220.3649 H   0  0  0  0  0  0  0  0  0  0  0  0
  139.3834   74.4734  220.5713 H   0  0  0  0  0  0  0  0  0  0  0  0
  140.2923   77.6933  220.1165 H   0  0  0  0  0  0  0  0  0  0  0  0
  142.0107   78.1555  219.9028 H   0  0  0  0  0  0  0  0  0  0  0  0
  140.2185   76.7774  217.8393 H   0  0  0  0  0  0  0  0  0  0  0  0
  140.7930   78.4944  217.8118 H   0  0  0  0  0  0  0  0  0  0  0  0
  142.0293   76.2894  216.6173 H   0  0  0  0  0  0  0  0  0  0  0  0
  142.7343   77.9287  216.9003 H   0  0  0  0  0  0  0  0  0  0  0  0
  144.1430   75.9894  217.7859 H   0  0  0  0  0  0  0  0  0  0  0  0
  143.7304   77.2198  219.0029 H   0  0  0  0  0  0  0  0  0  0  0  0
  142.0528   74.7125  218.4774 H   0  0  0  0  0  0  0  0  0  0  0  0
  142.2915   72.7383  219.4875 H   0  0  0  0  0  0  0  0  0  0  0  0
  143.7751   71.1665  220.6608 H   0  0  0  0  0  0  0  0  0  0  0  0
  145.8736   71.9774  221.7188 H   0  0  0  0  0  0  0  0  0  0  0  0
  146.4527   74.4181  221.5832 H   0  0  0  0  0  0  0  0  0  0  0  0
  144.9432   75.9536  220.4002 H   0  0  0  0  0  0  0  0  0  0  0  0
  139.3255   69.8674  222.6010 H   0  0  0  0  0  0  0  0  0  0  0  0
  138.8725   68.4940  224.5987 H   0  0  0  0  0  0  0  0  0  0  0  0
  139.0395   68.2063  226.9292 H   0  0  0  0  0  0  0  0  0  0  0  0
  139.7792   69.0230  229.1578 H   0  0  0  0  0  0  0  0  0  0  0  0
  140.9590   71.2076  229.3275 H   0  0  0  0  0  0  0  0  0  0  0  0
  141.4035   72.5702  227.2989 H   0  0  0  0  0  0  0  0  0  0  0  0
  1  2  2  0
  2  3  1  0
  3  4  1  0
  4  5  1  0
  5  6  2  0
  5  7  1  0
  7  8  1  0
  8  9  1  0
  9 10  1  0
 10 11  1  0
 11 12  1  0
 12 13  1  0
 13 14  2  0
 14 15  1  0
 15 16  2  0
 16 17  1  0
 17 18  2  0
  2 19  1  0
 19 20  2  0
 20 21  1  0
 21 22  2  0
 22 23  1  0
 23 24  2  0
 24 25  1  0
 25 26  2  0
 26 27  1  0
 27 28  2  0
 12  7  1  0
 18 13  1  0
 28 19  1  0
 27 22  1  0
  3 29  1  0
  4 30  1  0
  4 31  1  0
  8 32  1  0
  8 33  1  0
  9 34  1  0
  9 35  1  0
 10 36  1  0
 10 37  1  0
 11 38  1  0
 11 39  1  0
 12 40  1  6
 14 41  1  0
 15 42  1  0
 16 43  1  0
 17 44  1  0
 18 45  1  0
 20 46  1  0
 21 47  1  0
 23 48  1  0
 24 49  1  0
 25 50  1  0
 26 51  1  0
M  END
>  <smiles>  (6) 
O=C(NCC(=O)N1CCCC[C@H]1c1ccccc1)c1ccc2ccccc2n1

>  <score_type>  (6) 
oracle

>  <origin>  (6) 
autodockgpu

>  <m_score__min__energy>  (6) 
-8.8499999999999996

>  <m_primary>  (6) 
energy

>  <meeko>  (6) 
{"free_energy": -8.42, "intermolecular_energy": -9.91, "internal_energy": -1.81, "cluster_size": 13, "cluster_id": 2, "rank_in_cluster": 6}

>  <energy>  (6) 
-8.42

>  <cluster_rmsd>  (6) 
0.06

>  <rmsd>  (6) 
271.28

>  <cluster>  (6) 
2

$$$$

     RDKit          3D

 51 54  0  0  0  0  0  0  0  0999 V2000
  141.2750   72.3110  221.5990 O   0  0  0  0  0  0  0  0  0  0  0  0
  140.4010   72.5420  222.4930 C   0  0  0  0  0  0  0  0  0  0  0  0
  139.5760   73.7060  222.3510 N   0  0  0  0  0  0  0  0  0  0  0  0
  139.8020   74.5390  221.1920 C   0  0  0  0  0  0  0  0  0  0  0  0
  140.6710   75.7050  221.4970 C   0  0  0  0  0  0  0  0  0  0  0  0
  140.8910   76.0300  222.6980 O   0  0  0  0  0  0  0  0  0  0  0  0
  141.2310   76.4220  220.4010 N   0  0  0  0  0  0  0  0  0  0  0  0
  141.2060   75.9010  219.0340 C   0  0  0  0  0  0  0  0  0  0  0  0
  142.5410   76.1970  218.3700 C   0  0  0  0  0  0  0  0  0  0  0  0
  142.8460   77.6770  218.3780 C   0  0  0  0  0  0  0  0  0  0  0  0
  141.8700   78.4300  219.2870 C   0  0  0  0  0  0  0  0  0  0  0  0
  141.8630   77.7220  220.6090 C   0  0  1  0  0  0  0  0  0  0  0  0
  141.2710   78.5160  221.6960 C   0  0  0  0  0  0  0  0  0  0  0  0
  142.0670   79.0220  222.7250 C   0  0  0  0  0  0  0  0  0  0  0  0
  141.5460   79.7710  223.7590 C   0  0  0  0  0  0  0  0  0  0  0  0
  140.1940   80.0460  223.8010 C   0  0  0  0  0  0  0  0  0  0  0  0
  139.3670   79.5560  222.7880 C   0  0  0  0  0  0  0  0  0  0  0  0
  139.9290   78.8120  221.7730 C   0  0  0  0  0  0  0  0  0  0  0  0
  140.2390   71.6500  223.6310 C   0  0  0  0  0  0  0  0  0  0  0  0
  139.5420   70.4770  223.4620 C   0  0  0  0  0  0  0  0  0  0  0  0
  139.3290   69.5640  224.4660 C   0  0  0  0  0  0  0  0  0  0  0  0
  139.8560   69.8620  225.7090 C   0  0  0  0  0  0  0  0  0  0  0  0
  139.6490   68.9520  226.7250 C   0  0  0  0  0  0  0  0  0  0  0  0
  140.1580   69.2190  227.9700 C   0  0  0  0  0  0  0  0  0  0  0  0
  140.8680   70.3980  228.1740 C   0  0  0  0  0  0  0  0  0  0  0  0
  141.0670   71.3050  227.1370 C   0  0  0  0  0  0  0  0  0  0  0  0
  140.5560   71.0420  225.8800 C   0  0  0  0  0  0  0  0  0  0  0  0
  140.7380   71.9100  224.8530 N   0  0  0  0  0  0  0  0  0  0  0  0
  138.8500   73.9110  223.0780 H   0  0  0  0  0  0  0  0  0  0  0  0
  140.2835   73.9338  220.4098 H   0  0  0  0  0  0  0  0  0  0  0  0
  138.8269   74.9238  220.8586 H   0  0  0  0  0  0  0  0  0  0  0  0
  141.0374   74.8142  219.0560 H   0  0  0  0  0  0  0  0  0  0  0  0
  140.3936   76.3796  218.4675 H   0  0  0  0  0  0  0  0  0  0  0  0
  143.3362   75.6650  218.9128 H   0  0  0  0  0  0  0  0  0  0  0  0
  142.4890   75.8604  217.3240 H   0  0  0  0  0  0  0  0  0  0  0  0
  143.8717   77.8316  218.7441 H   0  0  0  0  0  0  0  0  0  0  0  0
  142.7421   78.0633  217.3533 H   0  0  0  0  0  0  0  0  0  0  0  0
  142.2024   79.4704  219.4179 H   0  0  0  0  0  0  0  0  0  0  0  0
  140.8616   78.4494  218.8479 H   0  0  0  0  0  0  0  0  0  0  0  0
  142.8937   77.5708  220.9623 H   0  0  0  0  0  0  0  0  0  0  0  0
  143.1475   78.8161  222.7106 H   0  0  0  0  0  0  0  0  0  0  0  0
  142.2086   80.1497  224.5512 H   0  0  0  0  0  0  0  0  0  0  0  0
  139.7730   80.6440  224.6226 H   0  0  0  0  0  0  0  0  0  0  0  0
  138.2862   79.7602  222.7999 H   0  0  0  0  0  0  0  0  0  0  0  0
  139.2677   78.4334  220.9797 H   0  0  0  0  0  0  0  0  0  0  0  0
  139.1313   70.2570  222.4655 H   0  0  0  0  0  0  0  0  0  0  0  0
  138.7641   68.6369  224.2889 H   0  0  0  0  0  0  0  0  0  0  0  0
  139.0843   68.0265  226.5393 H   0  0  0  0  0  0  0  0  0  0  0  0
  140.0069   68.5098  228.7972 H   0  0  0  0  0  0  0  0  0  0  0  0
  141.2786   70.6169  229.1707 H   0  0  0  0  0  0  0  0  0  0  0  0
  141.6313   72.2317  227.3180 H   0  0  0  0  0  0  0  0  0  0  0  0
  1  2  2  0
  2  3  1  0
  3  4  1  0
  4  5  1  0
  5  6  2  0
  5  7  1  0
  7  8  1  0
  8  9  1  0
  9 10  1  0
 10 11  1  0
 11 12  1  0
 12 13  1  0
 13 14  2  0
 14 15  1  0
 15 16  2  0
 16 17  1  0
 17 18  2  0
  2 19  1  0
 19 20  2  0
 20 21  1  0
 21 22  2  0
 22 23  1  0
 23 24  2  0
 24 25  1  0
 25 26  2  0
 26 27  1  0
 27 28  2  0
 12  7  1  0
 18 13  1  0
 28 19  1  0
 27 22  1  0
  3 29  1  0
  4 30  1  0
  4 31  1  0
  8 32  1  0
  8 33  1  0
  9 34  1  0
  9 35  1  0
 10 36  1  0
 10 37  1  0
 11 38  1  0
 11 39  1  0
 12 40  1  1
 14 41  1  0
 15 42  1  0
 16 43  1  0
 17 44  1  0
 18 45  1  0
 20 46  1  0
 21 47  1  0
 23 48  1  0
 24 49  1  0
 25 50  1  0
 26 51  1  0
M  END
>  <smiles>  (7) 
O=C(NCC(=O)N1CCCC[C@H]1c1ccccc1)c1ccc2ccccc2n1

>  <score_type>  (7) 
oracle

>  <origin>  (7) 
autodockgpu

>  <m_score__min__energy>  (7) 
-8.8499999999999996

>  <m_primary>  (7) 
energy

>  <meeko>  (7) 
{"free_energy": -8.83, "intermolecular_energy": -10.32, "internal_energy": -1.26, "cluster_size": 2, "cluster_id": 1, "rank_in_cluster": 2}

>  <energy>  (7) 
-8.42

>  <cluster_rmsd>  (7) 
0.03

>  <rmsd>  (7) 
271.31

>  <cluster>  (7) 
2

$$$$

     RDKit          3D

 51 54  0  0  0  0  0  0  0  0999 V2000
  141.0810   71.6450  221.4180 O   0  0  0  0  0  0  0  0  0  0  0  0
  140.4890   72.1830  222.4070 C   0  0  0  0  0  0  0  0  0  0  0  0
  140.0470   73.5410  222.2760 N   0  0  0  0  0  0  0  0  0  0  0  0
  140.3100   74.2030  221.0190 C   0  0  0  0  0  0  0  0  0  0  0  0
  141.1050   75.4470  221.1930 C   0  0  0  0  0  0  0  0  0  0  0  0
  141.3150   75.9030  222.3520 O   0  0  0  0  0  0  0  0  0  0  0  0
  141.6050   76.0860  220.0220 N   0  0  0  0  0  0  0  0  0  0  0  0
  141.2230   77.4480  219.6530 C   0  0  0  0  0  0  0  0  0  0  0  0
  141.0030   77.5080  218.1500 C   0  0  0  0  0  0  0  0  0  0  0  0
  142.2370   77.0710  217.3940 C   0  0  0  0  0  0  0  0  0  0  0  0
  143.2580   76.4320  218.3400 C   0  0  0  0  0  0  0  0  0  0  0  0
  142.5310   75.3880  219.1350 C   0  0  1  0  0  0  0  0  0  0  0  0
  143.4260   74.4410  219.8160 C   0  0  0  0  0  0  0  0  0  0  0  0
  144.6070   74.8800  220.4160 C   0  0  0  0  0  0  0  0  0  0  0  0
  145.4690   74.0190  221.0640 C   0  0  0  0  0  0  0  0  0  0  0  0
  145.1760   72.6730  221.1370 C   0  0  0  0  0  0  0  0  0  0  0  0
  144.0030   72.1970  220.5470 C   0  0  0  0  0  0  0  0  0  0  0  0
  143.1690   73.0910  219.9100 C   0  0  0  0  0  0  0  0  0  0  0  0
  140.2650   71.4430  223.6400 C   0  0  0  0  0  0  0  0  0  0  0  0
  139.5740   70.2550  223.5850 C   0  0  0  0  0  0  0  0  0  0  0  0
  139.3070   69.4770  224.6850 C   0  0  0  0  0  0  0  0  0  0  0  0
  139.7670   69.9340  225.9060 C   0  0  0  0  0  0  0  0  0  0  0  0
  139.5050   69.1610  227.0170 C   0  0  0  0  0  0  0  0  0  0  0  0
  139.9480   69.5860  228.2430 C   0  0  0  0  0  0  0  0  0  0  0  0
  140.6500   70.7840  228.3320 C   0  0  0  0  0  0  0  0  0  0  0  0
  140.9060   71.5520  227.1990 C   0  0  0  0  0  0  0  0  0  0  0  0
  140.4610   71.1280  225.9620 C   0  0  0  0  0  0  0  0  0  0  0  0
  140.6990   71.8590  224.8430 N   0  0  0  0  0  0  0  0  0  0  0  0
  139.5570   74.0000  223.0810 H   0  0  0  0  0  0  0  0  0  0  0  0
  140.8676   73.5150  220.3666 H   0  0  0  0  0  0  0  0  0  0  0  0
  139.3424   74.4808  220.5756 H   0  0  0  0  0  0  0  0  0  0  0  0
  140.2943   77.7248  220.1734 H   0  0  0  0  0  0  0  0  0  0  0  0
  142.0199   78.1494  219.9412 H   0  0  0  0  0  0  0  0  0  0  0  0
  140.1667   76.8448  217.8839 H   0  0  0  0  0  0  0  0  0  0  0  0
  140.7787   78.5490  217.8743 H   0  0  0  0  0  0  0  0  0  0  0  0
  141.9486   76.3377  216.6264 H   0  0  0  0  0  0  0  0  0  0  0  0
  142.6952   77.9552  216.9268 H   0  0  0  0  0  0  0  0  0  0  0  0
  144.0698   75.9677  217.7608 H   0  0  0  0  0  0  0  0  0  0  0  0
  143.7039   77.1882  219.0028 H   0  0  0  0  0  0  0  0  0  0  0  0
  141.9607   74.7297  218.4631 H   0  0  0  0  0  0  0  0  0  0  0  0
  144.8596   75.9497  220.3708 H   0  0  0  0  0  0  0  0  0  0  0  0
  146.3907   74.4064  221.5228 H   0  0  0  0  0  0  0  0  0  0  0  0
  145.8585   71.9824  221.6540 H   0  0  0  0  0  0  0  0  0  0  0  0
  143.7491   71.1276  220.5898 H   0  0  0  0  0  0  0  0  0  0  0  0
  142.2469   72.7047  219.4512 H   0  0  0  0  0  0  0  0  0  0  0  0
  139.2149   69.9084  222.6047 H   0  0  0  0  0  0  0  0  0  0  0  0
  138.7514   68.5316  224.5982 H   0  0  0  0  0  0  0  0  0  0  0  0
  138.9486   68.2169  226.9213 H   0  0  0  0  0  0  0  0  0  0  0  0
  139.7509   68.9875  229.1447 H   0  0  0  0  0  0  0  0  0  0  0  0
  141.0084   71.1299  229.3128 H   0  0  0  0  0  0  0  0  0  0  0  0
  141.4627   72.4965  227.2891 H   0  0  0  0  0  0  0  0  0  0  0  0
  1  2  2  0
  2  3  1  0
  3  4  1  0
  4  5  1  0
  5  6  2  0
  5  7  1  0
  7  8  1  0
  8  9  1  0
  9 10  1  0
 10 11  1  0
 11 12  1  0
 12 13  1  0
 13 14  2  0
 14 15  1  0
 15 16  2  0
 16 17  1  0
 17 18  2  0
  2 19  1  0
 19 20  2  0
 20 21  1  0
 21 22  2  0
 22 23  1  0
 23 24  2  0
 24 25  1  0
 25 26  2  0
 26 27  1  0
 27 28  2  0
 12  7  1  0
 18 13  1  0
 28 19  1  0
 27 22  1  0
  3 29  1  0
  4 30  1  0
  4 31  1  0
  8 32  1  0
  8 33  1  0
  9 34  1  0
  9 35  1  0
 10 36  1  0
 10 37  1  0
 11 38  1  0
 11 39  1  0
 12 40  1  6
 14 41  1  0
 15 42  1  0
 16 43  1  0
 17 44  1  0
 18 45  1  0
 20 46  1  0
 21 47  1  0
 23 48  1  0
 24 49  1  0
 25 50  1  0
 26 51  1  0
M  END
>  <smiles>  (8) 
O=C(NCC(=O)N1CCCC[C@H]1c1ccccc1)c1ccc2ccccc2n1

>  <score_type>  (8) 
oracle

>  <origin>  (8) 
autodockgpu

>  <m_score__min__energy>  (8) 
-8.8499999999999996

>  <m_primary>  (8) 
energy

>  <meeko>  (8) 
{"free_energy": -8.42, "intermolecular_energy": -9.92, "internal_energy": -1.8, "cluster_size": 13, "cluster_id": 2, "rank_in_cluster": 4}

>  <energy>  (8) 
-8.42

>  <cluster_rmsd>  (8) 
0.05

>  <rmsd>  (8) 
271.3

>  <cluster>  (8) 
2

$$$$

     RDKit          3D

 51 54  0  0  0  0  0  0  0  0999 V2000
  134.5320   68.7400  225.4630 O   0  0  0  0  0  0  0  0  0  0  0  0
  134.9750   69.9190  225.2890 C   0  0  0  0  0  0  0  0  0  0  0  0
  136.1740   70.0870  224.5200 N   0  0  0  0  0  0  0  0  0  0  0  0
  136.7950   68.8920  223.9950 C   0  0  0  0  0  0  0  0  0  0  0  0
  138.2680   68.8910  224.1910 C   0  0  0  0  0  0  0  0  0  0  0  0
  138.8520   67.8380  224.5730 O   0  0  0  0  0  0  0  0  0  0  0  0
  138.9740   70.1010  223.9350 N   0  0  0  0  0  0  0  0  0  0  0  0
  138.4690   71.1180  223.0140 C   0  0  0  0  0  0  0  0  0  0  0  0
  139.6290   71.6630  222.1970 C   0  0  0  0  0  0  0  0  0  0  0  0
  140.7120   72.2310  223.0870 C   0  0  0  0  0  0  0  0  0  0  0  0
  140.4680   71.8530  224.5500 C   0  0  0  0  0  0  0  0  0  0  0  0
  140.2490   70.3700  224.5940 C   0  0  1  0  0  0  0  0  0  0  0  0
  140.3670   69.7990  225.9430 C   0  0  0  0  0  0  0  0  0  0  0  0
  141.0360   68.5920  226.1520 C   0  0  0  0  0  0  0  0  0  0  0  0
  141.1660   68.0290  227.4050 C   0  0  0  0  0  0  0  0  0  0  0  0
  140.6270   68.6610  228.5070 C   0  0  0  0  0  0  0  0  0  0  0  0
  139.9510   69.8700  228.3360 C   0  0  0  0  0  0  0  0  0  0  0  0
  139.8440   70.3990  227.0670 C   0  0  0  0  0  0  0  0  0  0  0  0
  134.2870   71.0700  225.8540 C   0  0  0  0  0  0  0  0  0  0  0  0
  133.2400   70.8580  226.7200 C   0  0  0  0  0  0  0  0  0  0  0  0
  132.5220   71.8690  227.3110 C   0  0  0  0  0  0  0  0  0  0  0  0
  132.8910   73.1650  227.0040 C   0  0  0  0  0  0  0  0  0  0  0  0
  132.1780   74.1890  227.5910 C   0  0  0  0  0  0  0  0  0  0  0  0
  132.5190   75.4870  227.3060 C   0  0  0  0  0  0  0  0  0  0  0  0
  133.5740   75.7340  226.4340 C   0  0  0  0  0  0  0  0  0  0  0  0
  134.2840   74.6880  225.8500 C   0  0  0  0  0  0  0  0  0  0  0  0
  133.9440   73.3790  226.1330 C   0  0  0  0  0  0  0  0  0  0  0  0
  134.6210   72.3430  225.5770 N   0  0  0  0  0  0  0  0  0  0  0  0
  136.5530   71.0510  224.3660 H   0  0  0  0  0  0  0  0  0  0  0  0
  136.3690   68.0171  224.5079 H   0  0  0  0  0  0  0  0  0  0  0  0
  136.5988   68.8575  222.9132 H   0  0  0  0  0  0  0  0  0  0  0  0
  137.7227   70.6693  222.3418 H   0  0  0  0  0  0  0  0  0  0  0  0
  137.9979   71.9337  223.5820 H   0  0  0  0  0  0  0  0  0  0  0  0
  140.0538   70.8489  221.5913 H   0  0  0  0  0  0  0  0  0  0  0  0
  139.2501   72.4711  221.5540 H   0  0  0  0  0  0  0  0  0  0  0  0
  141.6863   71.8314  222.7691 H   0  0  0  0  0  0  0  0  0  0  0  0
  140.7006   73.3275  222.9998 H   0  0  0  0  0  0  0  0  0  0  0  0
  141.3426   72.1231  225.1600 H   0  0  0  0  0  0  0  0  0  0  0  0
  139.5952   72.3888  224.9515 H   0  0  0  0  0  0  0  0  0  0  0  0
  141.0532   69.8527  224.0503 H   0  0  0  0  0  0  0  0  0  0  0  0
  141.4748   68.0716  225.2879 H   0  0  0  0  0  0  0  0  0  0  0  0
  141.7001   67.0750  227.5257 H   0  0  0  0  0  0  0  0  0  0  0  0
  140.7289   68.2172  229.5083 H   0  0  0  0  0  0  0  0  0  0  0  0
  139.5111   70.3919  229.1986 H   0  0  0  0  0  0  0  0  0  0  0  0
  139.3111   71.3536  226.9457 H   0  0  0  0  0  0  0  0  0  0  0  0
  132.9616   69.8196  226.9527 H   0  0  0  0  0  0  0  0  0  0  0  0
  131.6899   71.6564  227.9984 H   0  0  0  0  0  0  0  0  0  0  0  0
  131.3477   73.9683  228.2779 H   0  0  0  0  0  0  0  0  0  0  0  0
  131.9653   76.3214  227.7612 H   0  0  0  0  0  0  0  0  0  0  0  0
  133.8521   76.7726  226.2019 H   0  0  0  0  0  0  0  0  0  0  0  0
  135.1157   74.9039  225.1632 H   0  0  0  0  0  0  0  0  0  0  0  0
  1  2  2  0
  2  3  1  0
  3  4  1  0
  4  5  1  0
  5  6  2  0
  5  7  1  0
  7  8  1  0
  8  9  1  0
  9 10  1  0
 10 11  1  0
 11 12  1  0
 12 13  1  0
 13 14  2  0
 14 15  1  0
 15 16  2  0
 16 17  1  0
 17 18  2  0
  2 19  1  0
 19 20  2  0
 20 21  1  0
 21 22  2  0
 22 23  1  0
 23 24  2  0
 24 25  1  0
 25 26  2  0
 26 27  1  0
 27 28  2  0
 12  7  1  0
 18 13  1  0
 28 19  1  0
 27 22  1  0
  3 29  1  0
  4 30  1  0
  4 31  1  0
  8 32  1  0
  8 33  1  0
  9 34  1  0
  9 35  1  0
 10 36  1  0
 10 37  1  0
 11 38  1  0
 11 39  1  0
 12 40  1  6
 14 41  1  0
 15 42  1  0
 16 43  1  0
 17 44  1  0
 18 45  1  0
 20 46  1  0
 21 47  1  0
 23 48  1  0
 24 49  1  0
 25 50  1  0
 26 51  1  0
M  END
>  <smiles>  (9) 
O=C(NCC(=O)N1CCCC[C@H]1c1ccccc1)c1ccc2ccccc2n1

>  <score_type>  (9) 
oracle

>  <origin>  (9) 
autodockgpu

>  <m_score__min__energy>  (9) 
-8.8499999999999996

>  <m_primary>  (9) 
energy

>  <meeko>  (9) 
{"free_energy": -8.24, "intermolecular_energy": -9.73, "internal_energy": -1.53, "cluster_size": 1, "cluster_id": 3, "rank_in_cluster": 1}

>  <energy>  (9) 
-8.42

>  <cluster_rmsd>  (9) 
0.04

>  <rmsd>  (9) 
271.31

>  <cluster>  (9) 
2

$$$$

     RDKit          3D

 51 54  0  0  0  0  0  0  0  0999 V2000
  141.0570   71.6780  221.3910 O   0  0  0  0  0  0  0  0  0  0  0  0
  140.4790   72.2070  222.3930 C   0  0  0  0  0  0  0  0  0  0  0  0
  140.0350   73.5660  222.2800 N   0  0  0  0  0  0  0  0  0  0  0  0
  140.2790   74.2390  221.0250 C   0  0  0  0  0  0  0  0  0  0  0  0
  141.1440   75.4370  221.1870 C   0  0  0  0  0  0  0  0  0  0  0  0
  141.4110   75.8690  222.3440 O   0  0  0  0  0  0  0  0  0  0  0  0
  141.6460   76.0590  220.0080 N   0  0  0  0  0  0  0  0  0  0  0  0
  141.2520   77.4110  219.6120 C   0  0  0  0  0  0  0  0  0  0  0  0
  141.0410   77.4430  218.1070 C   0  0  0  0  0  0  0  0  0  0  0  0
  142.2840   77.0040  217.3670 C   0  0  0  0  0  0  0  0  0  0  0  0
  143.3050   76.3920  218.3300 C   0  0  0  0  0  0  0  0  0  0  0  0
  142.5840   75.3550  219.1390 C   0  0  1  0  0  0  0  0  0  0  0  0
  143.4840   74.4290  219.8420 C   0  0  0  0  0  0  0  0  0  0  0  0
  144.6670   74.8870  220.4240 C   0  0  0  0  0  0  0  0  0  0  0  0
  145.5330   74.0460  221.0910 C   0  0  0  0  0  0  0  0  0  0  0  0
  145.2430   72.7020  221.2040 C   0  0  0  0  0  0  0  0  0  0  0  0
  144.0680   72.2080  220.6330 C   0  0  0  0  0  0  0  0  0  0  0  0
  143.2300   73.0820  219.9750 C   0  0  0  0  0  0  0  0  0  0  0  0
  140.2730   71.4570  223.6220 C   0  0  0  0  0  0  0  0  0  0  0  0
  139.6010   70.2590  223.5640 C   0  0  0  0  0  0  0  0  0  0  0  0
  139.3520   69.4700  224.6610 C   0  0  0  0  0  0  0  0  0  0  0  0
  139.8120   69.9270  225.8820 C   0  0  0  0  0  0  0  0  0  0  0  0
  139.5670   69.1430  226.9910 C   0  0  0  0  0  0  0  0  0  0  0  0
  140.0100   69.5690  228.2170 C   0  0  0  0  0  0  0  0  0  0  0  0
  140.6930   70.7770  228.3090 C   0  0  0  0  0  0  0  0  0  0  0  0
  140.9310   71.5550  227.1790 C   0  0  0  0  0  0  0  0  0  0  0  0
  140.4870   71.1320  225.9410 C   0  0  0  0  0  0  0  0  0  0  0  0
  140.7070   71.8730  224.8260 N   0  0  0  0  0  0  0  0  0  0  0  0
  139.5560   74.0180  223.0950 H   0  0  0  0  0  0  0  0  0  0  0  0
  140.7723   73.5367  220.3369 H   0  0  0  0  0  0  0  0  0  0  0  0
  139.3093   74.5747  220.6287 H   0  0  0  0  0  0  0  0  0  0  0  0
  140.3171   77.6871  220.1216 H   0  0  0  0  0  0  0  0  0  0  0  0
  142.0400   78.1254  219.8925 H   0  0  0  0  0  0  0  0  0  0  0  0
  140.2124   76.7677  217.8472 H   0  0  0  0  0  0  0  0  0  0  0  0
  140.8088   78.4768  217.8116 H   0  0  0  0  0  0  0  0  0  0  0  0
  142.0073   76.2543  216.6111 H   0  0  0  0  0  0  0  0  0  0  0  0
  142.7368   77.8841  216.8871 H   0  0  0  0  0  0  0  0  0  0  0  0
  144.1248   75.9257  217.7639 H   0  0  0  0  0  0  0  0  0  0  0  0
  143.7391   77.1643  218.9821 H   0  0  0  0  0  0  0  0  0  0  0  0
  142.0246   74.6792  218.4754 H   0  0  0  0  0  0  0  0  0  0  0  0
  144.9173   75.9555  220.3481 H   0  0  0  0  0  0  0  0  0  0  0  0
  146.4565   74.4475  221.5336 H   0  0  0  0  0  0  0  0  0  0  0  0
  145.9290   72.0275  221.7374 H   0  0  0  0  0  0  0  0  0  0  0  0
  143.8159   71.1399  220.7072 H   0  0  0  0  0  0  0  0  0  0  0  0
  142.3066   72.6814  219.5312 H   0  0  0  0  0  0  0  0  0  0  0  0
  139.2423   69.9124  222.5836 H   0  0  0  0  0  0  0  0  0  0  0  0
  138.8105   68.5167  224.5716 H   0  0  0  0  0  0  0  0  0  0  0  0
  139.0247   68.1910  226.8931 H   0  0  0  0  0  0  0  0  0  0  0  0
  139.8274   68.9627  229.1165 H   0  0  0  0  0  0  0  0  0  0  0  0
  141.0508   71.1233  229.2899 H   0  0  0  0  0  0  0  0  0  0  0  0
  141.4732   72.5076  227.2721 H   0  0  0  0  0  0  0  0  0  0  0  0
  1  2  2  0
  2  3  1  0
  3  4  1  0
  4  5  1  0
  5  6  2  0
  5  7  1  0
  7  8  1  0
  8  9  1  0
  9 10  1  0
 10 11  1  0
 11 12  1  0
 12 13  1  0
 13 14  2  0
 14 15  1  0
 15 16  2  0
 16 17  1  0
 17 18  2  0
  2 19  1  0
 19 20  2  0
 20 21  1  0
 21 22  2  0
 22 23  1  0
 23 24  2  0
 24 25  1  0
 25 26  2  0
 26 27  1  0
 27 28  2  0
 12  7  1  0
 18 13  1  0
 28 19  1  0
 27 22  1  0
  3 29  1  0
  4 30  1  0
  4 31  1  0
  8 32  1  0
  8 33  1  0
  9 34  1  0
  9 35  1  0
 10 36  1  0
 10 37  1  0
 11 38  1  0
 11 39  1  0
 12 40  1  6
 14 41  1  0
 15 42  1  0
 16 43  1  0
 17 44  1  0
 18 45  1  0
 20 46  1  0
 21 47  1  0
 23 48  1  0
 24 49  1  0
 25 50  1  0
 26 51  1  0
M  END
>  <smiles>  (10) 
O=C(NCC(=O)N1CCCC[C@H]1c1ccccc1)c1ccc2ccccc2n1

>  <score_type>  (10) 
oracle

>  <origin>  (10) 
autodockgpu

>  <m_score__min__energy>  (10) 
-8.8499999999999996

>  <m_primary>  (10) 
energy

>  <meeko>  (10) 
{"free_energy": -8.43, "intermolecular_energy": -9.92, "internal_energy": -1.81, "cluster_size": 13, "cluster_id": 2, "rank_in_cluster": 1}

>  <energy>  (10) 
-8.42

>  <cluster_rmsd>  (10) 
0.03

>  <rmsd>  (10) 
271.28

>  <cluster>  (10) 
2

$$$$

     RDKit          3D

 51 54  0  0  0  0  0  0  0  0999 V2000
  141.0510   71.6780  221.3750 O   0  0  0  0  0  0  0  0  0  0  0  0
  140.4850   72.2090  222.3820 C   0  0  0  0  0  0  0  0  0  0  0  0
  140.0530   73.5730  222.2770 N   0  0  0  0  0  0  0  0  0  0  0  0
  140.2960   74.2480  221.0230 C   0  0  0  0  0  0  0  0  0  0  0  0
  141.1480   75.4550  221.1890 C   0  0  0  0  0  0  0  0  0  0  0  0
  141.4040   75.8900  222.3460 O   0  0  0  0  0  0  0  0  0  0  0  0
  141.6490   76.0820  220.0120 N   0  0  0  0  0  0  0  0  0  0  0  0
  141.2650   77.4400  219.6280 C   0  0  0  0  0  0  0  0  0  0  0  0
  141.0470   77.4840  218.1250 C   0  0  0  0  0  0  0  0  0  0  0  0
  142.2830   77.0400  217.3750 C   0  0  0  0  0  0  0  0  0  0  0  0
  143.3030   76.4130  218.3290 C   0  0  0  0  0  0  0  0  0  0  0  0
  142.5770   75.3760  219.1330 C   0  0  1  0  0  0  0  0  0  0  0  0
  143.4730   74.4370  219.8250 C   0  0  0  0  0  0  0  0  0  0  0  0
  144.6630   74.8800  220.4030 C   0  0  0  0  0  0  0  0  0  0  0  0
  145.5250   74.0280  221.0600 C   0  0  0  0  0  0  0  0  0  0  0  0
  145.2240   72.6850  221.1650 C   0  0  0  0  0  0  0  0  0  0  0  0
  144.0410   72.2060  220.5990 C   0  0  0  0  0  0  0  0  0  0  0  0
  143.2070   73.0920  219.9510 C   0  0  0  0  0  0  0  0  0  0  0  0
  140.2790   71.4570  223.6100 C   0  0  0  0  0  0  0  0  0  0  0  0
  139.6290   70.2470  223.5470 C   0  0  0  0  0  0  0  0  0  0  0  0
  139.3810   69.4550  224.6420 C   0  0  0  0  0  0  0  0  0  0  0  0
  139.8200   69.9210  225.8670 C   0  0  0  0  0  0  0  0  0  0  0  0
  139.5780   69.1340  226.9740 C   0  0  0  0  0  0  0  0  0  0  0  0
  140.0000   69.5680  228.2040 C   0  0  0  0  0  0  0  0  0  0  0  0
  140.6610   70.7890  228.3020 C   0  0  0  0  0  0  0  0  0  0  0  0
  140.8970   71.5700  227.1740 C   0  0  0  0  0  0  0  0  0  0  0  0
  140.4740   71.1380  225.9320 C   0  0  0  0  0  0  0  0  0  0  0  0
  140.6930   71.8810  224.8180 N   0  0  0  0  0  0  0  0  0  0  0  0
  139.5840   74.0260  223.0970 H   0  0  0  0  0  0  0  0  0  0  0  0
  140.7998   73.5507  220.3375 H   0  0  0  0  0  0  0  0  0  0  0  0
  139.3249   74.5736  220.6218 H   0  0  0  0  0  0  0  0  0  0  0  0
  140.3351   77.7206  220.1443 H   0  0  0  0  0  0  0  0  0  0  0  0
  142.0603   78.1457  219.9098 H   0  0  0  0  0  0  0  0  0  0  0  0
  140.2117   76.8173  217.8648 H   0  0  0  0  0  0  0  0  0  0  0  0
  140.8220   78.5218  217.8380 H   0  0  0  0  0  0  0  0  0  0  0  0
  141.9965   76.2980  216.6152 H   0  0  0  0  0  0  0  0  0  0  0  0
  142.7407   77.9195  216.8985 H   0  0  0  0  0  0  0  0  0  0  0  0
  144.1168   75.9445  217.7561 H   0  0  0  0  0  0  0  0  0  0  0  0
  143.7460   77.1769  218.9849 H   0  0  0  0  0  0  0  0  0  0  0  0
  142.0087   74.7098  218.4672 H   0  0  0  0  0  0  0  0  0  0  0  0
  144.9226   75.9466  220.3320 H   0  0  0  0  0  0  0  0  0  0  0  0
  146.4538   74.4189  221.5011 H   0  0  0  0  0  0  0  0  0  0  0  0
  145.9078   72.0005  221.6882 H   0  0  0  0  0  0  0  0  0  0  0  0
  143.7789   71.1400  220.6689 H   0  0  0  0  0  0  0  0  0  0  0  0
  142.2774   72.7028  219.5101 H   0  0  0  0  0  0  0  0  0  0  0  0
  139.2878   69.8926  222.5631 H   0  0  0  0  0  0  0  0  0  0  0  0
  138.8563   68.4928  224.5479 H   0  0  0  0  0  0  0  0  0  0  0  0
  139.0541   68.1723  226.8712 H   0  0  0  0  0  0  0  0  0  0  0  0
  139.8186   68.9591  229.1020 H   0  0  0  0  0  0  0  0  0  0  0  0
  141.0023   71.1424  229.2862 H   0  0  0  0  0  0  0  0  0  0  0  0
  141.4209   72.5322  227.2718 H   0  0  0  0  0  0  0  0  0  0  0  0
  1  2  2  0
  2  3  1  0
  3  4  1  0
  4  5  1  0
  5  6  2  0
  5  7  1  0
  7  8  1  0
  8  9  1  0
  9 10  1  0
 10 11  1  0
 11 12  1  0
 12 13  1  0
 13 14  2  0
 14 15  1  0
 15 16  2  0
 16 17  1  0
 17 18  2  0
  2 19  1  0
 19 20  2  0
 20 21  1  0
 21 22  2  0
 22 23  1  0
 23 24  2  0
 24 25  1  0
 25 26  2  0
 26 27  1  0
 27 28  2  0
 12  7  1  0
 18 13  1  0
 28 19  1  0
 27 22  1  0
  3 29  1  0
  4 30  1  0
  4 31  1  0
  8 32  1  0
  8 33  1  0
  9 34  1  0
  9 35  1  0
 10 36  1  0
 10 37  1  0
 11 38  1  0
 11 39  1  0
 12 40  1  6
 14 41  1  0
 15 42  1  0
 16 43  1  0
 17 44  1  0
 18 45  1  0
 20 46  1  0
 21 47  1  0
 23 48  1  0
 24 49  1  0
 25 50  1  0
 26 51  1  0
M  END
>  <smiles>  (11) 
O=C(NCC(=O)N1CCCC[C@H]1c1ccccc1)c1ccc2ccccc2n1

>  <score_type>  (11) 
oracle

>  <origin>  (11) 
autodockgpu

>  <m_score__min__energy>  (11) 
-8.8499999999999996

>  <m_primary>  (11) 
energy

>  <meeko>  (11) 
{"free_energy": -8.42, "intermolecular_energy": -9.91, "internal_energy": -1.81, "cluster_size": 13, "cluster_id": 2, "rank_in_cluster": 8}

>  <energy>  (11) 
-8.41

>  <cluster_rmsd>  (11) 
0.04

>  <rmsd>  (11) 
271.29

>  <cluster>  (11) 
2

$$$$

     RDKit          3D

 51 54  0  0  0  0  0  0  0  0999 V2000
  140.6200   76.8200  218.4550 O   0  0  0  0  0  0  0  0  0  0  0  0
  141.7970   76.9100  218.9260 C   0  0  0  0  0  0  0  0  0  0  0  0
  142.2740   78.2030  219.3220 N   0  0  0  0  0  0  0  0  0  0  0  0
  141.3710   79.3190  219.1560 C   0  0  0  0  0  0  0  0  0  0  0  0
  140.4140   79.4420  220.2870 C   0  0  0  0  0  0  0  0  0  0  0  0
  139.1740   79.3290  220.0780 O   0  0  0  0  0  0  0  0  0  0  0  0
  140.9470   79.6870  221.5850 N   0  0  0  0  0  0  0  0  0  0  0  0
  141.1280   81.0400  222.1110 C   0  0  0  0  0  0  0  0  0  0  0  0
  142.4520   81.1060  222.8560 C   0  0  0  0  0  0  0  0  0  0  0  0
  142.5120   80.0820  223.9660 C   0  0  0  0  0  0  0  0  0  0  0  0
  141.3510   79.0900  223.8570 C   0  0  0  0  0  0  0  0  0  0  0  0
  141.3400   78.5770  222.4470 C   0  0  1  0  0  0  0  0  0  0  0  0
  140.5350   77.3590  222.2730 C   0  0  0  0  0  0  0  0  0  0  0  0
  139.1490   77.3900  222.4350 C   0  0  0  0  0  0  0  0  0  0  0  0
  138.3640   76.2670  222.2780 C   0  0  0  0  0  0  0  0  0  0  0  0
  138.9420   75.0590  221.9480 C   0  0  0  0  0  0  0  0  0  0  0  0
  140.3270   74.9900  221.7790 C   0  0  0  0  0  0  0  0  0  0  0  0
  141.0750   76.1350  221.9440 C   0  0  0  0  0  0  0  0  0  0  0  0
  142.6430   75.7330  219.0590 C   0  0  0  0  0  0  0  0  0  0  0  0
  142.3690   74.6280  218.2880 C   0  0  0  0  0  0  0  0  0  0  0  0
  143.1010   73.4660  218.3330 C   0  0  0  0  0  0  0  0  0  0  0  0
  144.1690   73.4290  219.2100 C   0  0  0  0  0  0  0  0  0  0  0  0
  144.9110   72.2670  219.2640 C   0  0  0  0  0  0  0  0  0  0  0  0
  145.9770   72.1980  220.1240 C   0  0  0  0  0  0  0  0  0  0  0  0
  146.2800   73.3000  220.9180 C   0  0  0  0  0  0  0  0  0  0  0  0
  145.5190   74.4640  220.8510 C   0  0  0  0  0  0  0  0  0  0  0  0
  144.4450   74.5390  219.9860 C   0  0  0  0  0  0  0  0  0  0  0  0
  143.6890   75.6640  219.9020 N   0  0  0  0  0  0  0  0  0  0  0  0
  143.2410   78.2950  219.7130 H   0  0  0  0  0  0  0  0  0  0  0  0
  141.9611   80.2449  219.0894 H   0  0  0  0  0  0  0  0  0  0  0  0
  140.7885   79.1477  218.2388 H   0  0  0  0  0  0  0  0  0  0  0  0
  141.1354   81.7611  221.2804 H   0  0  0  0  0  0  0  0  0  0  0  0
  140.3028   81.2874  222.7950 H   0  0  0  0  0  0  0  0  0  0  0  0
  143.2713   80.9142  222.1475 H   0  0  0  0  0  0  0  0  0  0  0  0
  142.5483   82.1066  223.3026 H   0  0  0  0  0  0  0  0  0  0  0  0
  143.4626   79.5327  223.8984 H   0  0  0  0  0  0  0  0  0  0  0  0
  142.4383   80.6048  224.9310 H   0  0  0  0  0  0  0  0  0  0  0  0
  141.4989   78.2573  224.5603 H   0  0  0  0  0  0  0  0  0  0  0  0
  140.3959   79.5764  224.1041 H   0  0  0  0  0  0  0  0  0  0  0  0
  142.3459   78.2364  222.1604 H   0  0  0  0  0  0  0  0  0  0  0  0
  138.6662   78.3430  222.6969 H   0  0  0  0  0  0  0  0  0  0  0  0
  137.2748   76.3349  222.4162 H   0  0  0  0  0  0  0  0  0  0  0  0
  138.3200   74.1609  221.8194 H   0  0  0  0  0  0  0  0  0  0  0  0
  140.8120   74.0376  221.5186 H   0  0  0  0  0  0  0  0  0  0  0  0
  142.1642   76.0683  221.8053 H   0  0  0  0  0  0  0  0  0  0  0  0
  141.5154   74.6770  217.5959 H   0  0  0  0  0  0  0  0  0  0  0  0
  142.8483   72.6032  217.6991 H   0  0  0  0  0  0  0  0  0  0  0  0
  144.6514   71.4088  218.6268 H   0  0  0  0  0  0  0  0  0  0  0  0
  146.5848   71.2832  220.1854 H   0  0  0  0  0  0  0  0  0  0  0  0
  147.1341   73.2507  221.6094 H   0  0  0  0  0  0  0  0  0  0  0  0
  145.7733   75.3244  221.4874 H   0  0  0  0  0  0  0  0  0  0  0  0
  1  2  2  0
  2  3  1  0
  3  4  1  0
  4  5  1  0
  5  6  2  0
  5  7  1  0
  7  8  1  0
  8  9  1  0
  9 10  1  0
 10 11  1  0
 11 12  1  0
 12 13  1  0
 13 14  2  0
 14 15  1  0
 15 16  2  0
 16 17  1  0
 17 18  2  0
  2 19  1  0
 19 20  2  0
 20 21  1  0
 21 22  2  0
 22 23  1  0
 23 24  2  0
 24 25  1  0
 25 26  2  0
 26 27  1  0
 27 28  2  0
 12  7  1  0
 18 13  1  0
 28 19  1  0
 27 22  1  0
  3 29  1  0
  4 30  1  0
  4 31  1  0
  8 32  1  0
  8 33  1  0
  9 34  1  0
  9 35  1  0
 10 36  1  0
 10 37  1  0
 11 38  1  0
 11 39  1  0
 12 40  1  6
 14 41  1  0
 15 42  1  0
 16 43  1  0
 17 44  1  0
 18 45  1  0
 20 46  1  0
 21 47  1  0
 23 48  1  0
 24 49  1  0
 25 50  1  0
 26 51  1  0
M  END
>  <smiles>  (12) 
O=C(NCC(=O)N1CCCC[C@H]1c1ccccc1)c1ccc2ccccc2n1

>  <score_type>  (12) 
oracle

>  <origin>  (12) 
autodockgpu

>  <m_score__min__energy>  (12) 
-8.8499999999999996

>  <m_primary>  (12) 
energy

>  <meeko>  (12) 
{"free_energy": -7.15, "intermolecular_energy": -8.64, "internal_energy": -2.46, "cluster_size": 4, "cluster_id": 4, "rank_in_cluster": 1}

>  <energy>  (12) 
-8.41

>  <cluster_rmsd>  (12) 
0.05

>  <rmsd>  (12) 
271.29

>  <cluster>  (12) 
2

$$$$

     RDKit          3D

 51 54  0  0  0  0  0  0  0  0999 V2000
  141.0630   71.6450  221.3940 O   0  0  0  0  0  0  0  0  0  0  0  0
  140.4970   72.1830  222.3980 C   0  0  0  0  0  0  0  0  0  0  0  0
  140.0610   73.5440  222.2830 N   0  0  0  0  0  0  0  0  0  0  0  0
  140.2990   74.2100  221.0230 C   0  0  0  0  0  0  0  0  0  0  0  0
  141.1380   75.4270  221.1790 C   0  0  0  0  0  0  0  0  0  0  0  0
  141.3900   75.8750  222.3330 O   0  0  0  0  0  0  0  0  0  0  0  0
  141.6330   76.0490  219.9970 N   0  0  0  0  0  0  0  0  0  0  0  0
  141.2150   77.3890  219.5880 C   0  0  0  0  0  0  0  0  0  0  0  0
  141.0110   77.4030  218.0820 C   0  0  0  0  0  0  0  0  0  0  0  0
  142.2650   76.9830  217.3510 C   0  0  0  0  0  0  0  0  0  0  0  0
  143.2930   76.3990  218.3240 C   0  0  0  0  0  0  0  0  0  0  0  0
  142.5890   75.3560  219.1380 C   0  0  1  0  0  0  0  0  0  0  0  0
  143.5040   74.4540  219.8540 C   0  0  0  0  0  0  0  0  0  0  0  0
  143.2050   73.0980  219.9930 C   0  0  0  0  0  0  0  0  0  0  0  0
  144.0410   72.2240  220.6570 C   0  0  0  0  0  0  0  0  0  0  0  0
  145.2200   72.6790  221.2090 C   0  0  0  0  0  0  0  0  0  0  0  0
  145.5520   74.0310  221.0900 C   0  0  0  0  0  0  0  0  0  0  0  0
  144.6890   74.8700  220.4180 C   0  0  0  0  0  0  0  0  0  0  0  0
  140.2970   71.4400  223.6330 C   0  0  0  0  0  0  0  0  0  0  0  0
  139.6550   70.2250  223.5800 C   0  0  0  0  0  0  0  0  0  0  0  0
  139.4130   69.4400  224.6810 C   0  0  0  0  0  0  0  0  0  0  0  0
  139.8490   69.9190  225.9030 C   0  0  0  0  0  0  0  0  0  0  0  0
  139.6120   69.1410  227.0160 C   0  0  0  0  0  0  0  0  0  0  0  0
  140.0330   69.5880  228.2420 C   0  0  0  0  0  0  0  0  0  0  0  0
  140.6850   70.8140  228.3300 C   0  0  0  0  0  0  0  0  0  0  0  0
  140.9160   71.5870  227.1950 C   0  0  0  0  0  0  0  0  0  0  0  0
  140.4950   71.1410  225.9570 C   0  0  0  0  0  0  0  0  0  0  0  0
  140.7080   71.8770  224.8370 N   0  0  0  0  0  0  0  0  0  0  0  0
  139.5920   74.0020  223.1010 H   0  0  0  0  0  0  0  0  0  0  0  0
  140.8111   73.5116  220.3447 H   0  0  0  0  0  0  0  0  0  0  0  0
  139.3252   74.5218  220.6174 H   0  0  0  0  0  0  0  0  0  0  0  0
  140.2724   77.6513  220.0907 H   0  0  0  0  0  0  0  0  0  0  0  0
  141.9871   78.1214  219.8663 H   0  0  0  0  0  0  0  0  0  0  0  0
  140.1974   76.7088  217.8247 H   0  0  0  0  0  0  0  0  0  0  0  0
  140.7600   78.4295  217.7765 H   0  0  0  0  0  0  0  0  0  0  0  0
  142.0066   76.2220  216.6000 H   0  0  0  0  0  0  0  0  0  0  0  0
  142.7026   77.8677  216.8655 H   0  0  0  0  0  0  0  0  0  0  0  0
  144.1244   75.9439  217.7657 H   0  0  0  0  0  0  0  0  0  0  0  0
  143.7089   77.1851  218.9714 H   0  0  0  0  0  0  0  0  0  0  0  0
  142.0462   74.6639  218.4774 H   0  0  0  0  0  0  0  0  0  0  0  0
  142.2709   72.7128  219.5583 H   0  0  0  0  0  0  0  0  0  0  0  0
  143.7666   71.1625  220.7462 H   0  0  0  0  0  0  0  0  0  0  0  0
  145.8913   71.9856  221.7369 H   0  0  0  0  0  0  0  0  0  0  0  0
  146.4851   74.4188  221.5246 H   0  0  0  0  0  0  0  0  0  0  0  0
  144.9625   75.9316  220.3273 H   0  0  0  0  0  0  0  0  0  0  0  0
  139.3156   69.8606  222.5992 H   0  0  0  0  0  0  0  0  0  0  0  0
  138.8954   68.4733  224.5946 H   0  0  0  0  0  0  0  0  0  0  0  0
  139.0928   68.1758  226.9220 H   0  0  0  0  0  0  0  0  0  0  0  0
  139.8574   68.9847  229.1449 H   0  0  0  0  0  0  0  0  0  0  0  0
  141.0232   71.1783  229.3113 H   0  0  0  0  0  0  0  0  0  0  0  0
  141.4340   72.5533  227.2842 H   0  0  0  0  0  0  0  0  0  0  0  0
  1  2  2  0
  2  3  1  0
  3  4  1  0
  4  5  1  0
  5  6  2  0
  5  7  1  0
  7  8  1  0
  8  9  1  0
  9 10  1  0
 10 11  1  0
 11 12  1  0
 12 13  1  0
 13 14  2  0
 14 15  1  0
 15 16  2  0
 16 17  1  0
 17 18  2  0
  2 19  1  0
 19 20  2  0
 20 21  1  0
 21 22  2  0
 22 23  1  0
 23 24  2  0
 24 25  1  0
 25 26  2  0
 26 27  1  0
 27 28  2  0
 12  7  1  0
 18 13  1  0
 28 19  1  0
 27 22  1  0
  3 29  1  0
  4 30  1  0
  4 31  1  0
  8 32  1  0
  8 33  1  0
  9 34  1  0
  9 35  1  0
 10 36  1  0
 10 37  1  0
 11 38  1  0
 11 39  1  0
 12 40  1  6
 14 41  1  0
 15 42  1  0
 16 43  1  0
 17 44  1  0
 18 45  1  0
 20 46  1  0
 21 47  1  0
 23 48  1  0
 24 49  1  0
 25 50  1  0
 26 51  1  0
M  END
>  <smiles>  (13) 
O=C(NCC(=O)N1CCCC[C@H]1c1ccccc1)c1ccc2ccccc2n1

>  <score_type>  (13) 
oracle

>  <origin>  (13) 
autodockgpu

>  <m_score__min__energy>  (13) 
-8.8499999999999996

>  <m_primary>  (13) 
energy

>  <meeko>  (13) 
{"free_energy": -8.41, "intermolecular_energy": -9.9, "internal_energy": -1.8, "cluster_size": 13, "cluster_id": 2, "rank_in_cluster": 9}

>  <energy>  (13) 
-8.4

>  <cluster_rmsd>  (13) 
0.12

>  <rmsd>  (13) 
271.25

>  <cluster>  (13) 
2

$$$$

     RDKit          3D

 51 54  0  0  0  0  0  0  0  0999 V2000
  141.0610   71.6710  221.4140 O   0  0  0  0  0  0  0  0  0  0  0  0
  140.4840   72.2030  222.4140 C   0  0  0  0  0  0  0  0  0  0  0  0
  140.0400   73.5620  222.2970 N   0  0  0  0  0  0  0  0  0  0  0  0
  140.2840   74.2310  221.0400 C   0  0  0  0  0  0  0  0  0  0  0  0
  141.1560   75.4240  221.1970 C   0  0  0  0  0  0  0  0  0  0  0  0
  141.4340   75.8530  222.3530 O   0  0  0  0  0  0  0  0  0  0  0  0
  141.6510   76.0460  220.0160 N   0  0  0  0  0  0  0  0  0  0  0  0
  141.2330   77.3870  219.6070 C   0  0  0  0  0  0  0  0  0  0  0  0
  141.0280   77.4020  218.1010 C   0  0  0  0  0  0  0  0  0  0  0  0
  142.2830   76.9810  217.3690 C   0  0  0  0  0  0  0  0  0  0  0  0
  143.3110   76.3970  218.3420 C   0  0  0  0  0  0  0  0  0  0  0  0
  142.6060   75.3530  219.1570 C   0  0  1  0  0  0  0  0  0  0  0  0
  143.5210   74.4510  219.8710 C   0  0  0  0  0  0  0  0  0  0  0  0
  143.2310   73.0910  219.9940 C   0  0  0  0  0  0  0  0  0  0  0  0
  144.0670   72.2170  220.6560 C   0  0  0  0  0  0  0  0  0  0  0  0
  145.2380   72.6760  221.2260 C   0  0  0  0  0  0  0  0  0  0  0  0
  145.5600   74.0300  221.1230 C   0  0  0  0  0  0  0  0  0  0  0  0
  144.6970   74.8700  220.4520 C   0  0  0  0  0  0  0  0  0  0  0  0
  140.2770   71.4570  223.6460 C   0  0  0  0  0  0  0  0  0  0  0  0
  139.6290   70.2460  223.5870 C   0  0  0  0  0  0  0  0  0  0  0  0
  139.3810   69.4590  224.6860 C   0  0  0  0  0  0  0  0  0  0  0  0
  139.8190   69.9310  225.9090 C   0  0  0  0  0  0  0  0  0  0  0  0
  139.5760   69.1500  227.0200 C   0  0  0  0  0  0  0  0  0  0  0  0
  139.9980   69.5910  228.2480 C   0  0  0  0  0  0  0  0  0  0  0  0
  140.6570   70.8120  228.3410 C   0  0  0  0  0  0  0  0  0  0  0  0
  140.8940   71.5880  227.2090 C   0  0  0  0  0  0  0  0  0  0  0  0
  140.4710   71.1490  225.9690 C   0  0  0  0  0  0  0  0  0  0  0  0
  140.6900   71.8870  224.8510 N   0  0  0  0  0  0  0  0  0  0  0  0
  139.5610   74.0150  223.1110 H   0  0  0  0  0  0  0  0  0  0  0  0
  140.7713   73.5246  220.3519 H   0  0  0  0  0  0  0  0  0  0  0  0
  139.3151   74.5714  220.6459 H   0  0  0  0  0  0  0  0  0  0  0  0
  140.2908   77.6495  220.1104 H   0  0  0  0  0  0  0  0  0  0  0  0
  142.0059   78.1188  219.8848 H   0  0  0  0  0  0  0  0  0  0  0  0
  140.2139   76.7084  217.8437 H   0  0  0  0  0  0  0  0  0  0  0  0
  140.7772   78.4287  217.7959 H   0  0  0  0  0  0  0  0  0  0  0  0
  142.0242   76.2198  216.6182 H   0  0  0  0  0  0  0  0  0  0  0  0
  142.7208   77.8654  216.8831 H   0  0  0  0  0  0  0  0  0  0  0  0
  144.1423   75.9417  217.7838 H   0  0  0  0  0  0  0  0  0  0  0  0
  143.7271   77.1831  218.9893 H   0  0  0  0  0  0  0  0  0  0  0  0
  142.0619   74.6611  218.4973 H   0  0  0  0  0  0  0  0  0  0  0  0
  142.3035   72.7033  219.5474 H   0  0  0  0  0  0  0  0  0  0  0  0
  143.8007   71.1523  220.7302 H   0  0  0  0  0  0  0  0  0  0  0  0
  145.9088   71.9829  221.7548 H   0  0  0  0  0  0  0  0  0  0  0  0
  146.4864   74.4203  221.5695 H   0  0  0  0  0  0  0  0  0  0  0  0
  144.9628   75.9347  220.3765 H   0  0  0  0  0  0  0  0  0  0  0  0
  139.2897   69.8865  222.6043 H   0  0  0  0  0  0  0  0  0  0  0  0
  138.8570   68.4960  224.5963 H   0  0  0  0  0  0  0  0  0  0  0  0
  139.0516   68.1880  226.9223 H   0  0  0  0  0  0  0  0  0  0  0  0
  139.8174   68.9861  229.1488 H   0  0  0  0  0  0  0  0  0  0  0  0
  140.9964   71.1706  229.3240 H   0  0  0  0  0  0  0  0  0  0  0  0
  141.4181   72.5506  227.3021 H   0  0  0  0  0  0  0  0  0  0  0  0
  1  2  2  0
  2  3  1  0
  3  4  1  0
  4  5  1  0
  5  6  2  0
  5  7  1  0
  7  8  1  0
  8  9  1  0
  9 10  1  0
 10 11  1  0
 11 12  1  0
 12 13  1  0
 13 14  2  0
 14 15  1  0
 15 16  2  0
 16 17  1  0
 17 18  2  0
  2 19  1  0
 19 20  2  0
 20 21  1  0
 21 22  2  0
 22 23  1  0
 23 24  2  0
 24 25  1  0
 25 26  2  0
 26 27  1  0
 27 28  2  0
 12  7  1  0
 18 13  1  0
 28 19  1  0
 27 22  1  0
  3 29  1  0
  4 30  1  0
  4 31  1  0
  8 32  1  0
  8 33  1  0
  9 34  1  0
  9 35  1  0
 10 36  1  0
 10 37  1  0
 11 38  1  0
 11 39  1  0
 12 40  1  6
 14 41  1  0
 15 42  1  0
 16 43  1  0
 17 44  1  0
 18 45  1  0
 20 46  1  0
 21 47  1  0
 23 48  1  0
 24 49  1  0
 25 50  1  0
 26 51  1  0
M  END
>  <smiles>  (14) 
O=C(NCC(=O)N1CCCC[C@H]1c1ccccc1)c1ccc2ccccc2n1

>  <score_type>  (14) 
oracle

>  <origin>  (14) 
autodockgpu

>  <m_score__min__energy>  (14) 
-8.8499999999999996

>  <m_primary>  (14) 
energy

>  <meeko>  (14) 
{"free_energy": -8.43, "intermolecular_energy": -9.92, "internal_energy": -1.81, "cluster_size": 13, "cluster_id": 2, "rank_in_cluster": 2}

>  <energy>  (14) 
-8.39

>  <cluster_rmsd>  (14) 
0.2

>  <rmsd>  (14) 
271.22

>  <cluster>  (14) 
2

$$$$

     RDKit          3D

 51 54  0  0  0  0  0  0  0  0999 V2000
  141.0610   71.7560  221.4460 O   0  0  0  0  0  0  0  0  0  0  0  0
  140.4050   72.2240  222.4290 C   0  0  0  0  0  0  0  0  0  0  0  0
  139.8280   73.5310  222.3000 N   0  0  0  0  0  0  0  0  0  0  0  0
  140.0380   74.2250  221.0500 C   0  0  0  0  0  0  0  0  0  0  0  0
  141.0140   75.3380  221.1820 C   0  0  0  0  0  0  0  0  0  0  0  0
  141.4300   75.6790  222.3250 O   0  0  0  0  0  0  0  0  0  0  0  0
  141.4480   75.9860  219.9900 N   0  0  0  0  0  0  0  0  0  0  0  0
  140.9970   77.3290  219.6240 C   0  0  0  0  0  0  0  0  0  0  0  0
  140.7230   77.3670  218.1290 C   0  0  0  0  0  0  0  0  0  0  0  0
  141.9480   76.9730  217.3350 C   0  0  0  0  0  0  0  0  0  0  0  0
  143.0260   76.3860  218.2500 C   0  0  0  0  0  0  0  0  0  0  0  0
  142.3710   75.3200  219.0770 C   0  0  1  0  0  0  0  0  0  0  0  0
  143.3270   74.4160  219.7330 C   0  0  0  0  0  0  0  0  0  0  0  0
  144.5230   74.9040  220.2620 C   0  0  0  0  0  0  0  0  0  0  0  0
  145.4410   74.0850  220.8850 C   0  0  0  0  0  0  0  0  0  0  0  0
  145.1940   72.7330  221.0050 C   0  0  0  0  0  0  0  0  0  0  0  0
  144.0070   72.2090  220.4870 C   0  0  0  0  0  0  0  0  0  0  0  0
  143.1160   73.0630  219.8720 C   0  0  0  0  0  0  0  0  0  0  0  0
  140.2410   71.4570  223.6550 C   0  0  0  0  0  0  0  0  0  0  0  0
  139.5810   70.2510  223.6000 C   0  0  0  0  0  0  0  0  0  0  0  0
  139.3710   69.4470  224.6940 C   0  0  0  0  0  0  0  0  0  0  0  0
  139.8600   69.8940  225.9070 C   0  0  0  0  0  0  0  0  0  0  0  0
  139.6550   69.0940  227.0120 C   0  0  0  0  0  0  0  0  0  0  0  0
  140.1270   69.5100  228.2310 C   0  0  0  0  0  0  0  0  0  0  0  0
  140.7990   70.7250  228.3190 C   0  0  0  0  0  0  0  0  0  0  0  0
  140.9970   71.5190  227.1930 C   0  0  0  0  0  0  0  0  0  0  0  0
  140.5230   71.1060  225.9630 C   0  0  0  0  0  0  0  0  0  0  0  0
  140.7040   71.8630  224.8510 N   0  0  0  0  0  0  0  0  0  0  0  0
  139.2830   73.9310  223.1000 H   0  0  0  0  0  0  0  0  0  0  0  0
  140.4166   73.5083  220.3064 H   0  0  0  0  0  0  0  0  0  0  0  0
  139.0753   74.6558  220.7375 H   0  0  0  0  0  0  0  0  0  0  0  0
  140.0760   77.5719  220.1743 H   0  0  0  0  0  0  0  0  0  0  0  0
  141.7737   78.0650  219.8790 H   0  0  0  0  0  0  0  0  0  0  0  0
  139.9057   76.6684  217.8968 H   0  0  0  0  0  0  0  0  0  0  0  0
  140.4467   78.3953  217.8530 H   0  0  0  0  0  0  0  0  0  0  0  0
  141.6641   76.2209  216.5842 H   0  0  0  0  0  0  0  0  0  0  0  0
  142.3532   77.8706  216.8451 H   0  0  0  0  0  0  0  0  0  0  0  0
  143.8365   75.9508  217.6470 H   0  0  0  0  0  0  0  0  0  0  0  0
  143.4619   77.1661  218.8914 H   0  0  0  0  0  0  0  0  0  0  0  0
  141.8059   74.6332  218.4297 H   0  0  0  0  0  0  0  0  0  0  0  0
  144.7408   75.9790  220.1790 H   0  0  0  0  0  0  0  0  0  0  0  0
  146.3722   74.5106  221.2871 H   0  0  0  0  0  0  0  0  0  0  0  0
  145.9225   72.0758  221.5023 H   0  0  0  0  0  0  0  0  0  0  0  0
  143.7871   71.1343  220.5683 H   0  0  0  0  0  0  0  0  0  0  0  0
  142.1841   72.6391  219.4698 H   0  0  0  0  0  0  0  0  0  0  0  0
  139.2001   69.9116  222.6255 H   0  0  0  0  0  0  0  0  0  0  0  0
  138.8369   68.4892  224.6083 H   0  0  0  0  0  0  0  0  0  0  0  0
  139.1211   68.1370  226.9171 H   0  0  0  0  0  0  0  0  0  0  0  0
  139.9761   68.8908  229.1275 H   0  0  0  0  0  0  0  0  0  0  0  0
  141.1799   71.0635  229.2938 H   0  0  0  0  0  0  0  0  0  0  0  0
  141.5314   72.4762  227.2827 H   0  0  0  0  0  0  0  0  0  0  0  0
  1  2  2  0
  2  3  1  0
  3  4  1  0
  4  5  1  0
  5  6  2  0
  5  7  1  0
  7  8  1  0
  8  9  1  0
  9 10  1  0
 10 11  1  0
 11 12  1  0
 12 13  1  0
 13 14  2  0
 14 15  1  0
 15 16  2  0
 16 17  1  0
 17 18  2  0
  2 19  1  0
 19 20  2  0
 20 21  1  0
 21 22  2  0
 22 23  1  0
 23 24  2  0
 24 25  1  0
 25 26  2  0
 26 27  1  0
 27 28  2  0
 12  7  1  0
 18 13  1  0
 28 19  1  0
 27 22  1  0
  3 29  1  0
  4 30  1  0
  4 31  1  0
  8 32  1  0
  8 33  1  0
  9 34  1  0
  9 35  1  0
 10 36  1  0
 10 37  1  0
 11 38  1  0
 11 39  1  0
 12 40  1  6
 14 41  1  0
 15 42  1  0
 16 43  1  0
 17 44  1  0
 18 45  1  0
 20 46  1  0
 21 47  1  0
 23 48  1  0
 24 49  1  0
 25 50  1  0
 26 51  1  0
M  END
>  <smiles>  (15) 
O=C(NCC(=O)N1CCCC[C@H]1c1ccccc1)c1ccc2ccccc2n1

>  <score_type>  (15) 
oracle

>  <origin>  (15) 
autodockgpu

>  <m_score__min__energy>  (15) 
-8.8499999999999996

>  <m_primary>  (15) 
energy

>  <meeko>  (15) 
{"free_energy": -8.39, "intermolecular_energy": -9.88, "internal_energy": -1.75, "cluster_size": 13, "cluster_id": 2, "rank_in_cluster": 13}

>  <energy>  (15) 
-8.39

>  <cluster_rmsd>  (15) 
0.19

>  <rmsd>  (15) 
271.21

>  <cluster>  (15) 
2

$$$$

     RDKit          3D

 51 54  0  0  0  0  0  0  0  0999 V2000
  141.1040   71.6510  221.4050 O   0  0  0  0  0  0  0  0  0  0  0  0
  140.5240   72.1850  222.4030 C   0  0  0  0  0  0  0  0  0  0  0  0
  140.0800   73.5430  222.2830 N   0  0  0  0  0  0  0  0  0  0  0  0
  140.3280   74.2100  221.0250 C   0  0  0  0  0  0  0  0  0  0  0  0
  141.1710   75.4230  221.1880 C   0  0  0  0  0  0  0  0  0  0  0  0
  141.4270   75.8620  222.3450 O   0  0  0  0  0  0  0  0  0  0  0  0
  141.6660   76.0520  220.0100 N   0  0  0  0  0  0  0  0  0  0  0  0
  141.2440   77.3930  219.6060 C   0  0  0  0  0  0  0  0  0  0  0  0
  141.0420   77.4130  218.0990 C   0  0  0  0  0  0  0  0  0  0  0  0
  142.2990   76.9990  217.3680 C   0  0  0  0  0  0  0  0  0  0  0  0
  143.3280   76.4150  218.3410 C   0  0  0  0  0  0  0  0  0  0  0  0
  142.6260   75.3650  219.1500 C   0  0  1  0  0  0  0  0  0  0  0  0
  143.5420   74.4630  219.8620 C   0  0  0  0  0  0  0  0  0  0  0  0
  143.2640   73.1000  219.9680 C   0  0  0  0  0  0  0  0  0  0  0  0
  144.1020   72.2260  220.6280 C   0  0  0  0  0  0  0  0  0  0  0  0
  145.2630   72.6880  221.2110 C   0  0  0  0  0  0  0  0  0  0  0  0
  145.5750   74.0470  221.1260 C   0  0  0  0  0  0  0  0  0  0  0  0
  144.7100   74.8860  220.4570 C   0  0  0  0  0  0  0  0  0  0  0  0
  140.3150   71.4400  223.6350 C   0  0  0  0  0  0  0  0  0  0  0  0
  139.6570   70.2340  223.5790 C   0  0  0  0  0  0  0  0  0  0  0  0
  139.4050   69.4490  224.6780 C   0  0  0  0  0  0  0  0  0  0  0  0
  139.8490   69.9190  225.9000 C   0  0  0  0  0  0  0  0  0  0  0  0
  139.6020   69.1390  227.0120 C   0  0  0  0  0  0  0  0  0  0  0  0
  140.0290   69.5770  228.2390 C   0  0  0  0  0  0  0  0  0  0  0  0
  140.6980   70.7940  228.3300 C   0  0  0  0  0  0  0  0  0  0  0  0
  140.9380   71.5670  227.1980 C   0  0  0  0  0  0  0  0  0  0  0  0
  140.5100   71.1310  225.9580 C   0  0  0  0  0  0  0  0  0  0  0  0
  140.7330   71.8680  224.8400 N   0  0  0  0  0  0  0  0  0  0  0  0
  139.5990   73.9980  223.0950 H   0  0  0  0  0  0  0  0  0  0  0  0
  140.8411   73.5106  220.3486 H   0  0  0  0  0  0  0  0  0  0  0  0
  139.3579   74.5263  220.6141 H   0  0  0  0  0  0  0  0  0  0  0  0
  140.2998   77.6500  220.1085 H   0  0  0  0  0  0  0  0  0  0  0  0
  142.0134   78.1266  219.8885 H   0  0  0  0  0  0  0  0  0  0  0  0
  140.2306   76.7179  217.8375 H   0  0  0  0  0  0  0  0  0  0  0  0
  140.7887   78.4401  217.7974 H   0  0  0  0  0  0  0  0  0  0  0  0
  142.0440   76.2395  216.6143 H   0  0  0  0  0  0  0  0  0  0  0  0
  142.7345   77.8866  216.8858 H   0  0  0  0  0  0  0  0  0  0  0  0
  144.1623   75.9655  217.7825 H   0  0  0  0  0  0  0  0  0  0  0  0
  143.7395   77.2001  218.9924 H   0  0  0  0  0  0  0  0  0  0  0  0
  142.0866   74.6732  218.4864 H   0  0  0  0  0  0  0  0  0  0  0  0
  142.3441   72.7087  219.5090 H   0  0  0  0  0  0  0  0  0  0  0  0
  143.8438   71.1585  220.6895 H   0  0  0  0  0  0  0  0  0  0  0  0
  145.9357   71.9945  221.7369 H   0  0  0  0  0  0  0  0  0  0  0  0
  146.4942   74.4403  221.5846 H   0  0  0  0  0  0  0  0  0  0  0  0
  144.9670   75.9538  220.3947 H   0  0  0  0  0  0  0  0  0  0  0  0
  139.3123   69.8770  222.5973 H   0  0  0  0  0  0  0  0  0  0  0  0
  138.8739   68.4898  224.5896 H   0  0  0  0  0  0  0  0  0  0  0  0
  139.0707   68.1807  226.9150 H   0  0  0  0  0  0  0  0  0  0  0  0
  139.8451   68.9740  229.1404 H   0  0  0  0  0  0  0  0  0  0  0  0
  141.0424   71.1504  229.3120 H   0  0  0  0  0  0  0  0  0  0  0  0
  141.4689   72.5260  227.2900 H   0  0  0  0  0  0  0  0  0  0  0  0
  1  2  2  0
  2  3  1  0
  3  4  1  0
  4  5  1  0
  5  6  2  0
  5  7  1  0
  7  8  1  0
  8  9  1  0
  9 10  1  0
 10 11  1  0
 11 12  1  0
 12 13  1  0
 13 14  2  0
 14 15  1  0
 15 16  2  0
 16 17  1  0
 17 18  2  0
  2 19  1  0
 19 20  2  0
 20 21  1  0
 21 22  2  0
 22 23  1  0
 23 24  2  0
 24 25  1  0
 25 26  2  0
 26 27  1  0
 27 28  2  0
 12  7  1  0
 18 13  1  0
 28 19  1  0
 27 22  1  0
  3 29  1  0
  4 30  1  0
  4 31  1  0
  8 32  1  0
  8 33  1  0
  9 34  1  0
  9 35  1  0
 10 36  1  0
 10 37  1  0
 11 38  1  0
 11 39  1  0
 12 40  1  6
 14 41  1  0
 15 42  1  0
 16 43  1  0
 17 44  1  0
 18 45  1  0
 20 46  1  0
 21 47  1  0
 23 48  1  0
 24 49  1  0
 25 50  1  0
 26 51  1  0
M  END
>  <smiles>  (16) 
O=C(NCC(=O)N1CCCC[C@H]1c1ccccc1)c1ccc2ccccc2n1

>  <score_type>  (16) 
oracle

>  <origin>  (16) 
autodockgpu

>  <m_score__min__energy>  (16) 
-8.8499999999999996

>  <m_primary>  (16) 
energy

>  <meeko>  (16) 
{"free_energy": -8.42, "intermolecular_energy": -9.91, "internal_energy": -1.81, "cluster_size": 13, "cluster_id": 2, "rank_in_cluster": 7}

>  <energy>  (16) 
-8.24

>  <cluster_rmsd>  (16) 
0.0

>  <rmsd>  (16) 
271.14

>  <cluster>  (16) 
3

$$$$

     RDKit          3D

 51 54  0  0  0  0  0  0  0  0999 V2000
  141.1820   71.7040  221.4720 O   0  0  0  0  0  0  0  0  0  0  0  0
  140.4960   72.1970  222.4220 C   0  0  0  0  0  0  0  0  0  0  0  0
  139.9490   73.5120  222.2530 N   0  0  0  0  0  0  0  0  0  0  0  0
  140.2200   74.1850  221.0030 C   0  0  0  0  0  0  0  0  0  0  0  0
  141.0860   75.3790  221.1840 C   0  0  0  0  0  0  0  0  0  0  0  0
  141.3830   75.7720  222.3470 O   0  0  0  0  0  0  0  0  0  0  0  0
  141.5540   76.0440  220.0140 N   0  0  0  0  0  0  0  0  0  0  0  0
  141.1240   77.3970  219.6620 C   0  0  0  0  0  0  0  0  0  0  0  0
  140.8870   77.4640  218.1620 C   0  0  0  0  0  0  0  0  0  0  0  0
  142.1260   77.0730  217.3900 C   0  0  0  0  0  0  0  0  0  0  0  0
  143.1770   76.4600  218.3190 C   0  0  0  0  0  0  0  0  0  0  0  0
  142.4930   75.3850  219.1110 C   0  0  1  0  0  0  0  0  0  0  0  0
  143.4250   74.4620  219.7740 C   0  0  0  0  0  0  0  0  0  0  0  0
  143.1800   73.0880  219.7890 C   0  0  0  0  0  0  0  0  0  0  0  0
  144.0340   72.1940  220.4010 C   0  0  0  0  0  0  0  0  0  0  0  0
  145.1780   72.6460  221.0250 C   0  0  0  0  0  0  0  0  0  0  0  0
  145.4560   74.0140  221.0300 C   0  0  0  0  0  0  0  0  0  0  0  0
  144.5770   74.8740  220.4070 C   0  0  0  0  0  0  0  0  0  0  0  0
  140.2700   71.4500  223.6500 C   0  0  0  0  0  0  0  0  0  0  0  0
  139.5910   70.2560  223.5860 C   0  0  0  0  0  0  0  0  0  0  0  0
  139.3230   69.4710  224.6810 C   0  0  0  0  0  0  0  0  0  0  0  0
  139.7720   69.9260  225.9060 C   0  0  0  0  0  0  0  0  0  0  0  0
  139.5090   69.1460  227.0130 C   0  0  0  0  0  0  0  0  0  0  0  0
  139.9410   69.5700  228.2440 C   0  0  0  0  0  0  0  0  0  0  0  0
  140.6310   70.7740  228.3420 C   0  0  0  0  0  0  0  0  0  0  0  0
  140.8870   71.5480  227.2150 C   0  0  0  0  0  0  0  0  0  0  0  0
  140.4550   71.1270  225.9720 C   0  0  0  0  0  0  0  0  0  0  0  0
  140.6930   71.8640  224.8580 N   0  0  0  0  0  0  0  0  0  0  0  0
  139.3800   73.9330  223.0250 H   0  0  0  0  0  0  0  0  0  0  0  0
  140.7241   73.4815  220.3241 H   0  0  0  0  0  0  0  0  0  0  0  0
  139.2598   74.5244  220.5874 H   0  0  0  0  0  0  0  0  0  0  0  0
  140.1921   77.6384  220.1942 H   0  0  0  0  0  0  0  0  0  0  0  0
  141.9005   78.1213  219.9492 H   0  0  0  0  0  0  0  0  0  0  0  0
  140.0692   76.7774  217.8979 H   0  0  0  0  0  0  0  0  0  0  0  0
  140.6274   78.4999  217.8984 H   0  0  0  0  0  0  0  0  0  0  0  0
  141.8530   76.3369  216.6195 H   0  0  0  0  0  0  0  0  0  0  0  0
  142.5505   77.9754  216.9257 H   0  0  0  0  0  0  0  0  0  0  0  0
  143.9977   76.0284  217.7273 H   0  0  0  0  0  0  0  0  0  0  0  0
  143.6046   77.2244  218.9845 H   0  0  0  0  0  0  0  0  0  0  0  0
  141.9381   74.7145  218.4383 H   0  0  0  0  0  0  0  0  0  0  0  0
  142.2746   72.7047  219.2957 H   0  0  0  0  0  0  0  0  0  0  0  0
  143.8022   71.1187  220.3913 H   0  0  0  0  0  0  0  0  0  0  0  0
  145.8631   71.9370  221.5128 H   0  0  0  0  0  0  0  0  0  0  0  0
  146.3610   74.3991  221.5226 H   0  0  0  0  0  0  0  0  0  0  0  0
  144.8085   75.9493  220.4158 H   0  0  0  0  0  0  0  0  0  0  0  0
  139.2425   69.9097  222.6018 H   0  0  0  0  0  0  0  0  0  0  0  0
  138.7750   68.5219  224.5868 H   0  0  0  0  0  0  0  0  0  0  0  0
  138.9609   68.1979  226.9101 H   0  0  0  0  0  0  0  0  0  0  0  0
  139.7444   68.9658  229.1420 H   0  0  0  0  0  0  0  0  0  0  0  0
  140.9797   71.1194  229.3264 H   0  0  0  0  0  0  0  0  0  0  0  0
  141.4344   72.4970  227.3135 H   0  0  0  0  0  0  0  0  0  0  0  0
  1  2  2  0
  2  3  1  0
  3  4  1  0
  4  5  1  0
  5  6  2  0
  5  7  1  0
  7  8  1  0
  8  9  1  0
  9 10  1  0
 10 11  1  0
 11 12  1  0
 12 13  1  0
 13 14  2  0
 14 15  1  0
 15 16  2  0
 16 17  1  0
 17 18  2  0
  2 19  1  0
 19 20  2  0
 20 21  1  0
 21 22  2  0
 22 23  1  0
 23 24  2  0
 24 25  1  0
 25 26  2  0
 26 27  1  0
 27 28  2  0
 12  7  1  0
 18 13  1  0
 28 19  1  0
 27 22  1  0
  3 29  1  0
  4 30  1  0
  4 31  1  0
  8 32  1  0
  8 33  1  0
  9 34  1  0
  9 35  1  0
 10 36  1  0
 10 37  1  0
 11 38  1  0
 11 39  1  0
 12 40  1  6
 14 41  1  0
 15 42  1  0
 16 43  1  0
 17 44  1  0
 18 45  1  0
 20 46  1  0
 21 47  1  0
 23 48  1  0
 24 49  1  0
 25 50  1  0
 26 51  1  0
M  END
>  <smiles>  (17) 
O=C(NCC(=O)N1CCCC[C@H]1c1ccccc1)c1ccc2ccccc2n1

>  <score_type>  (17) 
oracle

>  <origin>  (17) 
autodockgpu

>  <m_score__min__energy>  (17) 
-8.8499999999999996

>  <m_primary>  (17) 
energy

>  <meeko>  (17) 
{"free_energy": -8.4, "intermolecular_energy": -9.89, "internal_energy": -1.77, "cluster_size": 13, "cluster_id": 2, "rank_in_cluster": 11}

>  <energy>  (17) 
-7.15

>  <cluster_rmsd>  (17) 
0.0

>  <rmsd>  (17) 
271.18

>  <cluster>  (17) 
4

$$$$

     RDKit          3D

 51 54  0  0  0  0  0  0  0  0999 V2000
  141.2220   72.1690  221.5440 O   0  0  0  0  0  0  0  0  0  0  0  0
  140.3940   72.4570  222.4660 C   0  0  0  0  0  0  0  0  0  0  0  0
  139.6370   73.6680  222.3440 N   0  0  0  0  0  0  0  0  0  0  0  0
  139.8720   74.4800  221.1710 C   0  0  0  0  0  0  0  0  0  0  0  0
  140.6810   75.6880  221.4760 C   0  0  0  0  0  0  0  0  0  0  0  0
  140.8790   76.0270  222.6770 O   0  0  0  0  0  0  0  0  0  0  0  0
  141.2110   76.4280  220.3800 N   0  0  0  0  0  0  0  0  0  0  0  0
  141.1710   75.9230  219.0080 C   0  0  0  0  0  0  0  0  0  0  0  0
  142.4890   76.2490  218.3240 C   0  0  0  0  0  0  0  0  0  0  0  0
  142.7690   77.7350  218.3450 C   0  0  0  0  0  0  0  0  0  0  0  0
  141.7970   78.4590  219.2800 C   0  0  0  0  0  0  0  0  0  0  0  0
  141.8230   77.7350  220.5930 C   0  0  1  0  0  0  0  0  0  0  0  0
  141.2380   78.5060  221.7000 C   0  0  0  0  0  0  0  0  0  0  0  0
  142.0340   78.9650  222.7500 C   0  0  0  0  0  0  0  0  0  0  0  0
  141.5170   79.6910  223.8030 C   0  0  0  0  0  0  0  0  0  0  0  0
  140.1710   79.9900  223.8430 C   0  0  0  0  0  0  0  0  0  0  0  0
  139.3430   79.5460  222.8100 C   0  0  0  0  0  0  0  0  0  0  0  0
  139.9000   78.8230  221.7760 C   0  0  0  0  0  0  0  0  0  0  0  0
  140.2190   71.5830  223.6160 C   0  0  0  0  0  0  0  0  0  0  0  0
  139.5420   70.3970  223.4510 C   0  0  0  0  0  0  0  0  0  0  0  0
  139.3200   69.4980  224.4660 C   0  0  0  0  0  0  0  0  0  0  0  0
  139.8140   69.8250  225.7150 C   0  0  0  0  0  0  0  0  0  0  0  0
  139.5970   68.9300  226.7420 C   0  0  0  0  0  0  0  0  0  0  0  0
  140.0740   69.2250  227.9940 C   0  0  0  0  0  0  0  0  0  0  0  0
  140.7630   70.4170  228.1930 C   0  0  0  0  0  0  0  0  0  0  0  0
  140.9730   71.3090  227.1440 C   0  0  0  0  0  0  0  0  0  0  0  0
  140.4940   71.0170  225.8820 C   0  0  0  0  0  0  0  0  0  0  0  0
  140.6870   71.8700  224.8440 N   0  0  0  0  0  0  0  0  0  0  0  0
  138.9500   73.9200  223.0940 H   0  0  0  0  0  0  0  0  0  0  0  0
  140.4064   73.8756  220.4233 H   0  0  0  0  0  0  0  0  0  0  0  0
  138.8953   74.8153  220.7919 H   0  0  0  0  0  0  0  0  0  0  0  0
  141.0209   74.8333  219.0199 H   0  0  0  0  0  0  0  0  0  0  0  0
  140.3411   76.3948  218.4615 H   0  0  0  0  0  0  0  0  0  0  0  0
  143.3026   75.7241  218.8461 H   0  0  0  0  0  0  0  0  0  0  0  0
  142.4244   75.9238  217.2752 H   0  0  0  0  0  0  0  0  0  0  0  0
  143.7983   77.9030  218.6948 H   0  0  0  0  0  0  0  0  0  0  0  0
  142.6404   78.1321  217.3273 H   0  0  0  0  0  0  0  0  0  0  0  0
  142.1145   79.5030  219.4189 H   0  0  0  0  0  0  0  0  0  0  0  0
  140.7812   78.4662  218.8579 H   0  0  0  0  0  0  0  0  0  0  0  0
  142.8618   77.5966  220.9274 H   0  0  0  0  0  0  0  0  0  0  0  0
  143.1107   78.7403  222.7378 H   0  0  0  0  0  0  0  0  0  0  0  0
  142.1794   80.0321  224.6122 H   0  0  0  0  0  0  0  0  0  0  0  0
  139.7548   80.5714  224.6789 H   0  0  0  0  0  0  0  0  0  0  0  0
  138.2659   79.7689  222.8207 H   0  0  0  0  0  0  0  0  0  0  0  0
  139.2385   78.4804  220.9667 H   0  0  0  0  0  0  0  0  0  0  0  0
  139.1565   70.1546  222.4497 H   0  0  0  0  0  0  0  0  0  0  0  0
  138.7733   68.5594  224.2924 H   0  0  0  0  0  0  0  0  0  0  0  0
  139.0495   67.9935  226.5598 H   0  0  0  0  0  0  0  0  0  0  0  0
  139.9137   68.5280  228.8297 H   0  0  0  0  0  0  0  0  0  0  0  0
  141.1481   70.6590  229.1946 H   0  0  0  0  0  0  0  0  0  0  0  0
  141.5206   72.2465  227.3208 H   0  0  0  0  0  0  0  0  0  0  0  0
  1  2  2  0
  2  3  1  0
  3  4  1  0
  4  5  1  0
  5  6  2  0
  5  7  1  0
  7  8  1  0
  8  9  1  0
  9 10  1  0
 10 11  1  0
 11 12  1  0
 12 13  1  0
 13 14  2  0
 14 15  1  0
 15 16  2  0
 16 17  1  0
 17 18  2  0
  2 19  1  0
 19 20  2  0
 20 21  1  0
 21 22  2  0
 22 23  1  0
 23 24  2  0
 24 25  1  0
 25 26  2  0
 26 27  1  0
 27 28  2  0
 12  7  1  0
 18 13  1  0
 28 19  1  0
 27 22  1  0
  3 29  1  0
  4 30  1  0
  4 31  1  0
  8 32  1  0
  8 33  1  0
  9 34  1  0
  9 35  1  0
 10 36  1  0
 10 37  1  0
 11 38  1  0
 11 39  1  0
 12 40  1  1
 14 41  1  0
 15 42  1  0
 16 43  1  0
 17 44  1  0
 18 45  1  0
 20 46  1  0
 21 47  1  0
 23 48  1  0
 24 49  1  0
 25 50  1  0
 26 51  1  0
M  END
>  <smiles>  (18) 
O=C(NCC(=O)N1CCCC[C@H]1c1ccccc1)c1ccc2ccccc2n1

>  <score_type>  (18) 
oracle

>  <origin>  (18) 
autodockgpu

>  <m_score__min__energy>  (18) 
-8.8499999999999996

>  <m_primary>  (18) 
energy

>  <meeko>  (18) 
{"free_energy": -8.85, "intermolecular_energy": -10.34, "internal_energy": -1.25, "cluster_size": 2, "cluster_id": 1, "rank_in_cluster": 1}

>  <energy>  (18) 
-7.14

>  <cluster_rmsd>  (18) 
0.09

>  <rmsd>  (18) 
271.17

>  <cluster>  (18) 
4

$$$$

     RDKit          3D

 51 54  0  0  0  0  0  0  0  0999 V2000
  141.0590   71.6600  221.4010 O   0  0  0  0  0  0  0  0  0  0  0  0
  140.4920   72.1980  222.4040 C   0  0  0  0  0  0  0  0  0  0  0  0
  140.0590   73.5600  222.2890 N   0  0  0  0  0  0  0  0  0  0  0  0
  140.3010   74.2260  221.0290 C   0  0  0  0  0  0  0  0  0  0  0  0
  141.1240   75.4530  221.1910 C   0  0  0  0  0  0  0  0  0  0  0  0
  141.3580   75.9070  222.3460 O   0  0  0  0  0  0  0  0  0  0  0  0
  141.6230   76.0790  220.0130 N   0  0  0  0  0  0  0  0  0  0  0  0
  141.2350   77.4350  219.6260 C   0  0  0  0  0  0  0  0  0  0  0  0
  141.0160   77.4750  218.1220 C   0  0  0  0  0  0  0  0  0  0  0  0
  142.2520   77.0330  217.3730 C   0  0  0  0  0  0  0  0  0  0  0  0
  143.2750   76.4110  218.3280 C   0  0  0  0  0  0  0  0  0  0  0  0
  142.5530   75.3740  219.1350 C   0  0  1  0  0  0  0  0  0  0  0  0
  143.4510   74.4400  219.8280 C   0  0  0  0  0  0  0  0  0  0  0  0
  144.6450   74.8860  220.3970 C   0  0  0  0  0  0  0  0  0  0  0  0
  145.5100   74.0370  221.0550 C   0  0  0  0  0  0  0  0  0  0  0  0
  145.2080   72.6960  221.1720 C   0  0  0  0  0  0  0  0  0  0  0  0
  144.0220   72.2130  220.6150 C   0  0  0  0  0  0  0  0  0  0  0  0
  143.1850   73.0960  219.9660 C   0  0  0  0  0  0  0  0  0  0  0  0
  140.2870   71.4540  223.6380 C   0  0  0  0  0  0  0  0  0  0  0  0
  139.6380   70.2430  223.5830 C   0  0  0  0  0  0  0  0  0  0  0  0
  139.3910   69.4590  224.6840 C   0  0  0  0  0  0  0  0  0  0  0  0
  139.8300   69.9350  225.9060 C   0  0  0  0  0  0  0  0  0  0  0  0
  139.5880   69.1560  227.0180 C   0  0  0  0  0  0  0  0  0  0  0  0
  140.0110   69.6000  228.2450 C   0  0  0  0  0  0  0  0  0  0  0  0
  140.6710   70.8210  228.3340 C   0  0  0  0  0  0  0  0  0  0  0  0
  140.9060   71.5940  227.2000 C   0  0  0  0  0  0  0  0  0  0  0  0
  140.4830   71.1520  225.9620 C   0  0  0  0  0  0  0  0  0  0  0  0
  140.7010   71.8880  224.8420 N   0  0  0  0  0  0  0  0  0  0  0  0
  139.5890   74.0190  223.1050 H   0  0  0  0  0  0  0  0  0  0  0  0
  140.8278   73.5323  220.3572 H   0  0  0  0  0  0  0  0  0  0  0  0
  139.3276   74.5250  220.6129 H   0  0  0  0  0  0  0  0  0  0  0  0
  140.3045   77.7142  220.1421 H   0  0  0  0  0  0  0  0  0  0  0  0
  142.0285   78.1436  219.9058 H   0  0  0  0  0  0  0  0  0  0  0  0
  140.1824   76.8054  217.8637 H   0  0  0  0  0  0  0  0  0  0  0  0
  140.7880   78.5115  217.8327 H   0  0  0  0  0  0  0  0  0  0  0  0
  141.9671   76.2883  216.6152 H   0  0  0  0  0  0  0  0  0  0  0  0
  142.7069   77.9127  216.8943 H   0  0  0  0  0  0  0  0  0  0  0  0
  144.0897   75.9435  217.7555 H   0  0  0  0  0  0  0  0  0  0  0  0
  143.7163   77.1778  218.9817 H   0  0  0  0  0  0  0  0  0  0  0  0
  141.9866   74.7047  218.4708 H   0  0  0  0  0  0  0  0  0  0  0  0
  144.9051   75.9519  220.3178 H   0  0  0  0  0  0  0  0  0  0  0  0
  146.4422   74.4297  221.4872 H   0  0  0  0  0  0  0  0  0  0  0  0
  145.8934   72.0151  221.6979 H   0  0  0  0  0  0  0  0  0  0  0  0
  143.7602   71.1474  220.6926 H   0  0  0  0  0  0  0  0  0  0  0  0
  142.2521   72.7046  219.5341 H   0  0  0  0  0  0  0  0  0  0  0  0
  139.2972   69.8813  222.6017 H   0  0  0  0  0  0  0  0  0  0  0  0
  138.8673   68.4955  224.5973 H   0  0  0  0  0  0  0  0  0  0  0  0
  139.0639   68.1936  226.9225 H   0  0  0  0  0  0  0  0  0  0  0  0
  139.8304   68.9977  229.1476 H   0  0  0  0  0  0  0  0  0  0  0  0
  141.0126   71.1816  229.3155 H   0  0  0  0  0  0  0  0  0  0  0  0
  141.4290   72.5575  227.2903 H   0  0  0  0  0  0  0  0  0  0  0  0
  1  2  2  0
  2  3  1  0
  3  4  1  0
  4  5  1  0
  5  6  2  0
  5  7  1  0
  7  8  1  0
  8  9  1  0
  9 10  1  0
 10 11  1  0
 11 12  1  0
 12 13  1  0
 13 14  2  0
 14 15  1  0
 15 16  2  0
 16 17  1  0
 17 18  2  0
  2 19  1  0
 19 20  2  0
 20 21  1  0
 21 22  2  0
 22 23  1  0
 23 24  2  0
 24 25  1  0
 25 26  2  0
 26 27  1  0
 27 28  2  0
 12  7  1  0
 18 13  1  0
 28 19  1  0
 27 22  1  0
  3 29  1  0
  4 30  1  0
  4 31  1  0
  8 32  1  0
  8 33  1  0
  9 34  1  0
  9 35  1  0
 10 36  1  0
 10 37  1  0
 11 38  1  0
 11 39  1  0
 12 40  1  6
 14 41  1  0
 15 42  1  0
 16 43  1  0
 17 44  1  0
 18 45  1  0
 20 46  1  0
 21 47  1  0
 23 48  1  0
 24 49  1  0
 25 50  1  0
 26 51  1  0
M  END
>  <smiles>  (19) 
O=C(NCC(=O)N1CCCC[C@H]1c1ccccc1)c1ccc2ccccc2n1

>  <score_type>  (19) 
oracle

>  <origin>  (19) 
autodockgpu

>  <m_score__min__energy>  (19) 
-8.8499999999999996

>  <m_primary>  (19) 
energy

>  <meeko>  (19) 
{"free_energy": -8.42, "intermolecular_energy": -9.92, "internal_energy": -1.8, "cluster_size": 13, "cluster_id": 2, "rank_in_cluster": 3}

>  <energy>  (19) 
-7.14

>  <cluster_rmsd>  (19) 
0.08

>  <rmsd>  (19) 
271.15

>  <cluster>  (19) 
4

$$$$

     RDKit          3D

 51 54  0  0  0  0  0  0  0  0999 V2000
  140.6700   76.7890  218.3380 O   0  0  0  0  0  0  0  0  0  0  0  0
  141.8270   76.8620  218.8600 C   0  0  0  0  0  0  0  0  0  0  0  0
  142.2890   78.1430  219.3100 N   0  0  0  0  0  0  0  0  0  0  0  0
  141.3960   79.2660  219.1360 C   0  0  0  0  0  0  0  0  0  0  0  0
  140.4450   79.4090  220.2690 C   0  0  0  0  0  0  0  0  0  0  0  0
  139.2020   79.3280  220.0610 O   0  0  0  0  0  0  0  0  0  0  0  0
  140.9860   79.6360  221.5670 N   0  0  0  0  0  0  0  0  0  0  0  0
  141.2070   80.9820  222.0950 C   0  0  0  0  0  0  0  0  0  0  0  0
  142.5330   81.0080  222.8380 C   0  0  0  0  0  0  0  0  0  0  0  0
  142.5640   79.9810  223.9470 C   0  0  0  0  0  0  0  0  0  0  0  0
  141.3750   79.0230  223.8370 C   0  0  0  0  0  0  0  0  0  0  0  0
  141.3470   78.5130  222.4270 C   0  0  1  0  0  0  0  0  0  0  0  0
  140.5060   77.3200  222.2510 C   0  0  0  0  0  0  0  0  0  0  0  0
  141.0690   76.0980  221.8790 C   0  0  0  0  0  0  0  0  0  0  0  0
  140.3100   74.9590  221.7070 C   0  0  0  0  0  0  0  0  0  0  0  0
  138.9450   75.0010  221.9040 C   0  0  0  0  0  0  0  0  0  0  0  0
  138.3470   76.2070  222.2770 C   0  0  0  0  0  0  0  0  0  0  0  0
  139.1420   77.3210  222.4390 C   0  0  0  0  0  0  0  0  0  0  0  0
  142.6640   75.6800  218.9970 C   0  0  0  0  0  0  0  0  0  0  0  0
  142.4010   74.5850  218.2080 C   0  0  0  0  0  0  0  0  0  0  0  0
  143.1260   73.4190  218.2550 C   0  0  0  0  0  0  0  0  0  0  0  0
  144.1750   73.3660  219.1530 C   0  0  0  0  0  0  0  0  0  0  0  0
  144.9110   72.2000  219.2080 C   0  0  0  0  0  0  0  0  0  0  0  0
  145.9580   72.1160  220.0890 C   0  0  0  0  0  0  0  0  0  0  0  0
  146.2510   73.2070  220.9010 C   0  0  0  0  0  0  0  0  0  0  0  0
  145.4980   74.3760  220.8320 C   0  0  0  0  0  0  0  0  0  0  0  0
  144.4410   74.4670  219.9470 C   0  0  0  0  0  0  0  0  0  0  0  0
  143.6930   75.5960  219.8600 N   0  0  0  0  0  0  0  0  0  0  0  0
  143.2400   78.2210  219.7430 H   0  0  0  0  0  0  0  0  0  0  0  0
  141.9946   80.1856  219.0579 H   0  0  0  0  0  0  0  0  0  0  0  0
  140.8085   79.0914  218.2226 H   0  0  0  0  0  0  0  0  0  0  0  0
  141.2342   81.7041  221.2656 H   0  0  0  0  0  0  0  0  0  0  0  0
  140.3903   81.2521  222.7806 H   0  0  0  0  0  0  0  0  0  0  0  0
  143.3453   80.7929  222.1281 H   0  0  0  0  0  0  0  0  0  0  0  0
  142.6596   82.0048  223.2856 H   0  0  0  0  0  0  0  0  0  0  0  0
  143.4985   79.4048  223.8784 H   0  0  0  0  0  0  0  0  0  0  0  0
  142.5057   80.5044  224.9128 H   0  0  0  0  0  0  0  0  0  0  0  0
  141.4997   78.1851  224.5387 H   0  0  0  0  0  0  0  0  0  0  0  0
  140.4347   79.5367  224.0857 H   0  0  0  0  0  0  0  0  0  0  0  0
  142.3421   78.1428  222.1394 H   0  0  0  0  0  0  0  0  0  0  0  0
  142.1556   76.0413  221.7174 H   0  0  0  0  0  0  0  0  0  0  0  0
  140.7937   74.0160  221.4124 H   0  0  0  0  0  0  0  0  0  0  0  0
  138.3350   74.0956  221.7690 H   0  0  0  0  0  0  0  0  0  0  0  0
  137.2606   76.2665  222.4386 H   0  0  0  0  0  0  0  0  0  0  0  0
  138.6596   78.2642  222.7352 H   0  0  0  0  0  0  0  0  0  0  0  0
  141.5624   74.6461  217.4988 H   0  0  0  0  0  0  0  0  0  0  0  0
  142.8821   72.5649  217.6062 H   0  0  0  0  0  0  0  0  0  0  0  0
  144.6614   71.3508  218.5548 H   0  0  0  0  0  0  0  0  0  0  0  0
  146.5592   71.1970  220.1531 H   0  0  0  0  0  0  0  0  0  0  0  0
  147.0909   73.1450  221.6087 H   0  0  0  0  0  0  0  0  0  0  0  0
  145.7448   75.2279  221.4827 H   0  0  0  0  0  0  0  0  0  0  0  0
  1  2  2  0
  2  3  1  0
  3  4  1  0
  4  5  1  0
  5  6  2  0
  5  7  1  0
  7  8  1  0
  8  9  1  0
  9 10  1  0
 10 11  1  0
 11 12  1  0
 12 13  1  0
 13 14  2  0
 14 15  1  0
 15 16  2  0
 16 17  1  0
 17 18  2  0
  2 19  1  0
 19 20  2  0
 20 21  1  0
 21 22  2  0
 22 23  1  0
 23 24  2  0
 24 25  1  0
 25 26  2  0
 26 27  1  0
 27 28  2  0
 12  7  1  0
 18 13  1  0
 28 19  1  0
 27 22  1  0
  3 29  1  0
  4 30  1  0
  4 31  1  0
  8 32  1  0
  8 33  1  0
  9 34  1  0
  9 35  1  0
 10 36  1  0
 10 37  1  0
 11 38  1  0
 11 39  1  0
 12 40  1  6
 14 41  1  0
 15 42  1  0
 16 43  1  0
 17 44  1  0
 18 45  1  0
 20 46  1  0
 21 47  1  0
 23 48  1  0
 24 49  1  0
 25 50  1  0
 26 51  1  0
M  END
>  <smiles>  (20) 
O=C(NCC(=O)N1CCCC[C@H]1c1ccccc1)c1ccc2ccccc2n1

>  <score_type>  (20) 
oracle

>  <origin>  (20) 
autodockgpu

>  <m_score__min__energy>  (20) 
-8.8499999999999996

>  <m_primary>  (20) 
energy

>  <meeko>  (20) 
{"free_energy": -7.14, "intermolecular_energy": -8.63, "internal_energy": -2.46, "cluster_size": 4, "cluster_id": 4, "rank_in_cluster": 3}

>  <energy>  (20) 
-7.13

>  <cluster_rmsd>  (20) 
0.07

>  <rmsd>  (20) 
271.17

>  <cluster>  (20) 
4

$$$$
