LUCSOMIVZJTSBJ-UHFFFAOYNA-N
     RDKit          3D

 39 40  0  0  0  0  0  0  0  0999 V2000
  142.1930   79.4950  218.8140 C   0  0  0  0  0  0  0  0  0  0  0  0
  141.2700   79.2420  219.8680 O   0  0  0  0  0  0  0  0  0  0  0  0
  141.5700   79.3550  221.2350 C   0  0  0  0  0  0  0  0  0  0  0  0
  142.2030   80.4990  221.7630 C   0  0  0  0  0  0  0  0  0  0  0  0
  142.5120   80.5710  223.1240 C   0  0  0  0  0  0  0  0  0  0  0  0
  142.1950   79.5100  223.9700 C   0  0  0  0  0  0  0  0  0  0  0  0
  141.5640   78.3730  223.4610 C   0  0  0  0  0  0  0  0  0  0  0  0
  141.2440   78.2870  222.0960 C   0  0  0  0  0  0  0  0  0  0  0  0
  140.5750   77.1160  221.5950 N   0  0  0  0  0  0  0  0  0  0  0  0
  139.2800   76.7080  222.1500 C   0  0  0  0  0  0  0  0  0  0  0  0
  139.0570   75.2040  221.9520 C   0  0  0  0  0  0  0  0  0  0  0  0
  140.3240   74.4800  222.2080 N   0  0  0  0  0  0  0  0  0  0  0  0
  140.1190   73.0060  222.3440 C   0  0  0  0  0  0  0  0  0  0  0  0
  138.6780   72.5980  221.9620 C   0  0  0  0  0  0  0  0  0  0  0  0
  141.0860   72.2150  221.4370 C   0  0  0  0  0  0  0  0  0  0  0  0
  141.3250   74.8030  221.1500 C   0  0  0  0  0  0  0  0  0  0  0  0
  141.2260   76.2470  220.6150 C   0  0  0  0  0  0  0  0  0  0  0  0
  143.1712   79.7631  219.2397 H   0  0  0  0  0  0  0  0  0  0  0  0
  142.2979   78.5925  218.1940 H   0  0  0  0  0  0  0  0  0  0  0  0
  141.8230   80.3249  218.1940 H   0  0  0  0  0  0  0  0  0  0  0  0
  142.4551   81.3396  221.0998 H   0  0  0  0  0  0  0  0  0  0  0  0
  143.0063   81.4667  223.5282 H   0  0  0  0  0  0  0  0  0  0  0  0
  142.4422   79.5682  225.0403 H   0  0  0  0  0  0  0  0  0  0  0  0
  141.3158   77.5388  224.1337 H   0  0  0  0  0  0  0  0  0  0  0  0
  139.2591   76.9379  223.2255 H   0  0  0  0  0  0  0  0  0  0  0  0
  138.4821   77.2563  221.6278 H   0  0  0  0  0  0  0  0  0  0  0  0
  138.2854   74.8522  222.6526 H   0  0  0  0  0  0  0  0  0  0  0  0
  138.7280   75.0144  220.9196 H   0  0  0  0  0  0  0  0  0  0  0  0
  140.3116   72.7664  223.4002 H   0  0  0  0  0  0  0  0  0  0  0  0
  138.0895   72.4314  222.8763 H   0  0  0  0  0  0  0  0  0  0  0  0
  138.2148   73.4003  221.3689 H   0  0  0  0  0  0  0  0  0  0  0  0
  138.7041   71.6719  221.3689 H   0  0  0  0  0  0  0  0  0  0  0  0
  141.7873   71.6414  222.0608 H   0  0  0  0  0  0  0  0  0  0  0  0
  140.5112   71.5248  220.8020 H   0  0  0  0  0  0  0  0  0  0  0  0
  141.6485   72.9152  220.8020 H   0  0  0  0  0  0  0  0  0  0  0  0
  142.3314   74.6574  221.5694 H   0  0  0  0  0  0  0  0  0  0  0  0
  141.1199   74.1336  220.3016 H   0  0  0  0  0  0  0  0  0  0  0  0
  142.2379   76.6270  220.4108 H   0  0  0  0  0  0  0  0  0  0  0  0
  140.6275   76.2428  219.6921 H   0  0  0  0  0  0  0  0  0  0  0  0
  1  2  1  0
  2  3  1  0
  3  4  2  0
  4  5  1  0
  5  6  2  0
  6  7  1  0
  7  8  2  0
  8  9  1  0
  9 10  1  0
 10 11  1  0
 11 12  1  0
 12 13  1  0
 13 14  1  0
 13 15  1  0
 12 16  1  0
 16 17  1  0
  8  3  1  0
 17  9  1  0
  1 18  1  0
  1 19  1  0
  1 20  1  0
  4 21  1  0
  5 22  1  0
  6 23  1  0
  7 24  1  0
 10 25  1  0
 10 26  1  0
 11 27  1  0
 11 28  1  0
 13 29  1  0
 14 30  1  0
 14 31  1  0
 14 32  1  0
 15 33  1  0
 15 34  1  0
 15 35  1  0
 16 36  1  0
 16 37  1  0
 17 38  1  0
 17 39  1  0
M  END
>  <UniqueID>  (1) 
21

>  <SMILES>  (1) 
COc1ccccc1N1CCN(C(C)C)CC1

>  <Energy>  (1) 
48.914787021620285

>  <Genealogy>  (1) 
COc1ccccc1N1CCN(C(C)C)CC1 (3D coordinates assigned)
COc1ccccc1N1CCN(C(C)C)CC1 (nonaromatic ring conformer: 48.914787021620285 kcal/mol)

>  <smiles>  (1) 
COc1ccccc1N1CCN(C(C)C)CC1

>  <score_type>  (1) 
oracle

>  <origin>  (1) 
autodockgpu

>  <m_score__min__energy>  (1) 
-4.9400000000000004

>  <m_primary>  (1) 
energy

>  <meeko>  (1) 
{"free_energy": -4.83, "intermolecular_energy": -5.72, "internal_energy": -0.71, "cluster_size": 2, "cluster_id": 2, "rank_in_cluster": 1}

>  <energy>  (1) 
-4.94

>  <cluster_rmsd>  (1) 
0.0

>  <rmsd>  (1) 
273.2

>  <cluster>  (1) 
1

$$$$
LUCSOMIVZJTSBJ-UHFFFAOYNA-N
     RDKit          3D

 39 40  0  0  0  0  0  0  0  0999 V2000
  138.6860   74.4750  221.5390 C   0  0  0  0  0  0  0  0  0  0  0  0
  139.9960   74.4270  222.0940 O   0  0  0  0  0  0  0  0  0  0  0  0
  141.1730   74.2560  221.3470 C   0  0  0  0  0  0  0  0  0  0  0  0
  141.7150   72.9790  221.0970 C   0  0  0  0  0  0  0  0  0  0  0  0
  142.9010   72.8430  220.3720 C   0  0  0  0  0  0  0  0  0  0  0  0
  143.5580   73.9740  219.8880 C   0  0  0  0  0  0  0  0  0  0  0  0
  143.0300   75.2450  220.1240 C   0  0  0  0  0  0  0  0  0  0  0  0
  141.8370   75.3960  220.8490 C   0  0  0  0  0  0  0  0  0  0  0  0
  141.2980   76.7130  221.0630 N   0  0  0  0  0  0  0  0  0  0  0  0
  141.4260   77.7440  220.0280 C   0  0  0  0  0  0  0  0  0  0  0  0
  141.3660   79.1440  220.6490 C   0  0  0  0  0  0  0  0  0  0  0  0
  142.1330   79.1550  221.9160 N   0  0  0  0  0  0  0  0  0  0  0  0
  142.3860   80.5410  222.4160 C   0  0  0  0  0  0  0  0  0  0  0  0
  141.0860   81.3770  222.4470 C   0  0  0  0  0  0  0  0  0  0  0  0
  142.9690   80.5290  223.8450 C   0  0  0  0  0  0  0  0  0  0  0  0
  141.4480   78.3150  222.9400 C   0  0  0  0  0  0  0  0  0  0  0  0
  140.7240   77.0830  222.3580 C   0  0  0  0  0  0  0  0  0  0  0  0
  137.9445   74.5022  222.3511 H   0  0  0  0  0  0  0  0  0  0  0  0
  138.5835   75.3775  220.9185 H   0  0  0  0  0  0  0  0  0  0  0  0
  138.5177   73.5824  220.9185 H   0  0  0  0  0  0  0  0  0  0  0  0
  141.2004   72.0835  221.4755 H   0  0  0  0  0  0  0  0  0  0  0  0
  143.3174   71.8426  220.1825 H   0  0  0  0  0  0  0  0  0  0  0  0
  144.4934   73.8647  219.3196 H   0  0  0  0  0  0  0  0  0  0  0  0
  143.5520   76.1336  219.7395 H   0  0  0  0  0  0  0  0  0  0  0  0
  142.3888   77.6192  219.5108 H   0  0  0  0  0  0  0  0  0  0  0  0
  140.5942   77.6364  219.3163 H   0  0  0  0  0  0  0  0  0  0  0  0
  141.8011   79.8740  219.9506 H   0  0  0  0  0  0  0  0  0  0  0  0
  140.3183   79.4106  220.8521 H   0  0  0  0  0  0  0  0  0  0  0  0
  143.1077   80.9907  221.7182 H   0  0  0  0  0  0  0  0  0  0  0  0
  140.7952   81.5640  223.4912 H   0  0  0  0  0  0  0  0  0  0  0  0
  141.2547   82.3363  221.9359 H   0  0  0  0  0  0  0  0  0  0  0  0
  140.2831   80.8255  221.9359 H   0  0  0  0  0  0  0  0  0  0  0  0
  142.1475   80.5459  224.5763 H   0  0  0  0  0  0  0  0  0  0  0  0
  143.5690   79.6183  223.9886 H   0  0  0  0  0  0  0  0  0  0  0  0
  143.6060   81.4142  223.9886 H   0  0  0  0  0  0  0  0  0  0  0  0
  142.2016   77.9650  223.6608 H   0  0  0  0  0  0  0  0  0  0  0  0
  140.6774   78.9465  223.4063 H   0  0  0  0  0  0  0  0  0  0  0  0
  140.8298   76.2386  223.0550 H   0  0  0  0  0  0  0  0  0  0  0  0
  139.6611   77.3293  222.2178 H   0  0  0  0  0  0  0  0  0  0  0  0
  1  2  1  0
  2  3  1  0
  3  4  2  0
  4  5  1  0
  5  6  2  0
  6  7  1  0
  7  8  2  0
  8  9  1  0
  9 10  1  0
 10 11  1  0
 11 12  1  0
 12 13  1  0
 13 14  1  0
 13 15  1  0
 12 16  1  0
 16 17  1  0
  8  3  1  0
 17  9  1  0
  1 18  1  0
  1 19  1  0
  1 20  1  0
  4 21  1  0
  5 22  1  0
  6 23  1  0
  7 24  1  0
 10 25  1  0
 10 26  1  0
 11 27  1  0
 11 28  1  0
 13 29  1  0
 14 30  1  0
 14 31  1  0
 14 32  1  0
 15 33  1  0
 15 34  1  0
 15 35  1  0
 16 36  1  0
 16 37  1  0
 17 38  1  0
 17 39  1  0
M  END
>  <UniqueID>  (2) 
21

>  <SMILES>  (2) 
COc1ccccc1N1CCN(C(C)C)CC1

>  <Energy>  (2) 
48.914787021620285

>  <Genealogy>  (2) 
COc1ccccc1N1CCN(C(C)C)CC1 (3D coordinates assigned)
COc1ccccc1N1CCN(C(C)C)CC1 (nonaromatic ring conformer: 48.914787021620285 kcal/mol)

>  <smiles>  (2) 
COc1ccccc1N1CCN(C(C)C)CC1

>  <score_type>  (2) 
oracle

>  <origin>  (2) 
autodockgpu

>  <m_score__min__energy>  (2) 
-4.9400000000000004

>  <m_primary>  (2) 
energy

>  <meeko>  (2) 
{"free_energy": -4.93, "intermolecular_energy": -5.83, "internal_energy": -0.66, "cluster_size": 18, "cluster_id": 1, "rank_in_cluster": 9}

>  <energy>  (2) 
-4.94

>  <cluster_rmsd>  (2) 
0.04

>  <rmsd>  (2) 
273.2

>  <cluster>  (2) 
1

$$$$
LUCSOMIVZJTSBJ-UHFFFAOYNA-N
     RDKit          3D

 39 40  0  0  0  0  0  0  0  0999 V2000
  138.6670   74.3200  221.5690 C   0  0  0  0  0  0  0  0  0  0  0  0
  139.9820   74.4360  222.1010 O   0  0  0  0  0  0  0  0  0  0  0  0
  141.1610   74.2530  221.3600 C   0  0  0  0  0  0  0  0  0  0  0  0
  141.6970   72.9710  221.1240 C   0  0  0  0  0  0  0  0  0  0  0  0
  142.8860   72.8230  220.4060 C   0  0  0  0  0  0  0  0  0  0  0  0
  143.5510   73.9460  219.9150 C   0  0  0  0  0  0  0  0  0  0  0  0
  143.0290   75.2220  220.1380 C   0  0  0  0  0  0  0  0  0  0  0  0
  141.8330   75.3860  220.8560 C   0  0  0  0  0  0  0  0  0  0  0  0
  141.3000   76.7070  221.0560 N   0  0  0  0  0  0  0  0  0  0  0  0
  141.4530   77.7330  220.0190 C   0  0  0  0  0  0  0  0  0  0  0  0
  141.3930   79.1360  220.6340 C   0  0  0  0  0  0  0  0  0  0  0  0
  142.1390   79.1460  221.9140 N   0  0  0  0  0  0  0  0  0  0  0  0
  142.3930   80.5320  222.4130 C   0  0  0  0  0  0  0  0  0  0  0  0
  141.1000   81.3790  222.4140 C   0  0  0  0  0  0  0  0  0  0  0  0
  142.9480   80.5210  223.8530 C   0  0  0  0  0  0  0  0  0  0  0  0
  141.4310   78.3150  222.9300 C   0  0  0  0  0  0  0  0  0  0  0  0
  140.7080   77.0860  222.3400 C   0  0  0  0  0  0  0  0  0  0  0  0
  137.9421   74.2561  222.3939 H   0  0  0  0  0  0  0  0  0  0  0  0
  138.4424   75.2018  220.9510 H   0  0  0  0  0  0  0  0  0  0  0  0
  138.6002   73.4125  220.9510 H   0  0  0  0  0  0  0  0  0  0  0  0
  141.1758   72.0815  221.5076 H   0  0  0  0  0  0  0  0  0  0  0  0
  143.2984   71.8190  220.2276 H   0  0  0  0  0  0  0  0  0  0  0  0
  144.4880   73.8267  219.3512 H   0  0  0  0  0  0  0  0  0  0  0  0
  143.5580   76.1044  219.7488 H   0  0  0  0  0  0  0  0  0  0  0  0
  142.4233   77.5990  219.5185 H   0  0  0  0  0  0  0  0  0  0  0  0
  140.6326   77.6287  219.2936 H   0  0  0  0  0  0  0  0  0  0  0  0
  141.8452   79.8601  219.9403 H   0  0  0  0  0  0  0  0  0  0  0  0
  140.3441   79.4111  220.8186 H   0  0  0  0  0  0  0  0  0  0  0  0
  143.1318   80.9733  221.7278 H   0  0  0  0  0  0  0  0  0  0  0  0
  140.7939   81.5795  223.4513 H   0  0  0  0  0  0  0  0  0  0  0  0
  141.2852   82.3314  221.8957 H   0  0  0  0  0  0  0  0  0  0  0  0
  140.3009   80.8288  221.8957 H   0  0  0  0  0  0  0  0  0  0  0  0
  142.1124   80.5376  224.5681 H   0  0  0  0  0  0  0  0  0  0  0  0
  143.5458   79.6108  224.0086 H   0  0  0  0  0  0  0  0  0  0  0  0
  143.5814   81.4068  224.0086 H   0  0  0  0  0  0  0  0  0  0  0  0
  142.1699   77.9623  223.6646 H   0  0  0  0  0  0  0  0  0  0  0  0
  140.6576   78.9537  223.3815 H   0  0  0  0  0  0  0  0  0  0  0  0
  140.7963   76.2434  223.0415 H   0  0  0  0  0  0  0  0  0  0  0  0
  139.6495   77.3397  222.1813 H   0  0  0  0  0  0  0  0  0  0  0  0
  1  2  1  0
  2  3  1  0
  3  4  2  0
  4  5  1  0
  5  6  2  0
  6  7  1  0
  7  8  2  0
  8  9  1  0
  9 10  1  0
 10 11  1  0
 11 12  1  0
 12 13  1  0
 13 14  1  0
 13 15  1  0
 12 16  1  0
 16 17  1  0
  8  3  1  0
 17  9  1  0
  1 18  1  0
  1 19  1  0
  1 20  1  0
  4 21  1  0
  5 22  1  0
  6 23  1  0
  7 24  1  0
 10 25  1  0
 10 26  1  0
 11 27  1  0
 11 28  1  0
 13 29  1  0
 14 30  1  0
 14 31  1  0
 14 32  1  0
 15 33  1  0
 15 34  1  0
 15 35  1  0
 16 36  1  0
 16 37  1  0
 17 38  1  0
 17 39  1  0
M  END
>  <UniqueID>  (3) 
21

>  <SMILES>  (3) 
COc1ccccc1N1CCN(C(C)C)CC1

>  <Energy>  (3) 
48.914787021620285

>  <Genealogy>  (3) 
COc1ccccc1N1CCN(C(C)C)CC1 (3D coordinates assigned)
COc1ccccc1N1CCN(C(C)C)CC1 (nonaromatic ring conformer: 48.914787021620285 kcal/mol)

>  <smiles>  (3) 
COc1ccccc1N1CCN(C(C)C)CC1

>  <score_type>  (3) 
oracle

>  <origin>  (3) 
autodockgpu

>  <m_score__min__energy>  (3) 
-4.9400000000000004

>  <m_primary>  (3) 
energy

>  <meeko>  (3) 
{"free_energy": -4.94, "intermolecular_energy": -5.84, "internal_energy": -0.65, "cluster_size": 18, "cluster_id": 1, "rank_in_cluster": 2}

>  <energy>  (3) 
-4.94

>  <cluster_rmsd>  (3) 
0.02

>  <rmsd>  (3) 
273.2

>  <cluster>  (3) 
1

$$$$
LUCSOMIVZJTSBJ-UHFFFAOYNA-N
     RDKit          3D

 39 40  0  0  0  0  0  0  0  0999 V2000
  138.6640   74.3380  221.5410 C   0  0  0  0  0  0  0  0  0  0  0  0
  139.9800   74.4280  222.0790 O   0  0  0  0  0  0  0  0  0  0  0  0
  141.1580   74.2550  221.3360 C   0  0  0  0  0  0  0  0  0  0  0  0
  141.6980   72.9770  221.0880 C   0  0  0  0  0  0  0  0  0  0  0  0
  142.8870   72.8390  220.3670 C   0  0  0  0  0  0  0  0  0  0  0  0
  143.5480   73.9680  219.8860 C   0  0  0  0  0  0  0  0  0  0  0  0
  143.0220   75.2400  220.1200 C   0  0  0  0  0  0  0  0  0  0  0  0
  141.8270   75.3940  220.8410 C   0  0  0  0  0  0  0  0  0  0  0  0
  141.2900   76.7120  221.0530 N   0  0  0  0  0  0  0  0  0  0  0  0
  141.4320   77.7450  220.0220 C   0  0  0  0  0  0  0  0  0  0  0  0
  141.3700   79.1440  220.6460 C   0  0  0  0  0  0  0  0  0  0  0  0
  142.1250   79.1490  221.9210 N   0  0  0  0  0  0  0  0  0  0  0  0
  142.3770   80.5320  222.4270 C   0  0  0  0  0  0  0  0  0  0  0  0
  141.0750   81.3650  222.4690 C   0  0  0  0  0  0  0  0  0  0  0  0
  142.9680   80.5140  223.8530 C   0  0  0  0  0  0  0  0  0  0  0  0
  141.4270   78.3090  222.9360 C   0  0  0  0  0  0  0  0  0  0  0  0
  140.7040   77.0810  222.3430 C   0  0  0  0  0  0  0  0  0  0  0  0
  137.9345   74.2881  222.3628 H   0  0  0  0  0  0  0  0  0  0  0  0
  138.4594   75.2242  220.9224 H   0  0  0  0  0  0  0  0  0  0  0  0
  138.5819   73.4321  220.9224 H   0  0  0  0  0  0  0  0  0  0  0  0
  141.1802   72.0825  221.4644 H   0  0  0  0  0  0  0  0  0  0  0  0
  143.3020   71.8378  220.1787 H   0  0  0  0  0  0  0  0  0  0  0  0
  144.4854   73.8567  219.3213 H   0  0  0  0  0  0  0  0  0  0  0  0
  143.5472   76.1274  219.7370 H   0  0  0  0  0  0  0  0  0  0  0  0
  142.3997   77.6183  219.5145 H   0  0  0  0  0  0  0  0  0  0  0  0
  140.6074   77.6418  219.3014 H   0  0  0  0  0  0  0  0  0  0  0  0
  141.8142   79.8744  219.9538 H   0  0  0  0  0  0  0  0  0  0  0  0
  140.3212   79.4135  220.8394 H   0  0  0  0  0  0  0  0  0  0  0  0
  143.0940   80.9872  221.7279 H   0  0  0  0  0  0  0  0  0  0  0  0
  140.7900   81.5473  223.5157 H   0  0  0  0  0  0  0  0  0  0  0  0
  141.2384   82.3267  221.9606 H   0  0  0  0  0  0  0  0  0  0  0  0
  140.2704   80.8136  221.9606 H   0  0  0  0  0  0  0  0  0  0  0  0
  142.1508   80.5389  224.5889 H   0  0  0  0  0  0  0  0  0  0  0  0
  143.5598   79.5974  223.9931 H   0  0  0  0  0  0  0  0  0  0  0  0
  143.6145   81.3929  223.9931 H   0  0  0  0  0  0  0  0  0  0  0  0
  142.1722   77.9541  223.6632 H   0  0  0  0  0  0  0  0  0  0  0  0
  140.6544   78.9420  223.3968 H   0  0  0  0  0  0  0  0  0  0  0  0
  140.7992   76.2344  223.0388 H   0  0  0  0  0  0  0  0  0  0  0  0
  139.6437   77.3320  222.1924 H   0  0  0  0  0  0  0  0  0  0  0  0
  1  2  1  0
  2  3  1  0
  3  4  2  0
  4  5  1  0
  5  6  2  0
  6  7  1  0
  7  8  2  0
  8  9  1  0
  9 10  1  0
 10 11  1  0
 11 12  1  0
 12 13  1  0
 13 14  1  0
 13 15  1  0
 12 16  1  0
 16 17  1  0
  8  3  1  0
 17  9  1  0
  1 18  1  0
  1 19  1  0
  1 20  1  0
  4 21  1  0
  5 22  1  0
  6 23  1  0
  7 24  1  0
 10 25  1  0
 10 26  1  0
 11 27  1  0
 11 28  1  0
 13 29  1  0
 14 30  1  0
 14 31  1  0
 14 32  1  0
 15 33  1  0
 15 34  1  0
 15 35  1  0
 16 36  1  0
 16 37  1  0
 17 38  1  0
 17 39  1  0
M  END
>  <UniqueID>  (4) 
21

>  <SMILES>  (4) 
COc1ccccc1N1CCN(C(C)C)CC1

>  <Energy>  (4) 
48.914787021620285

>  <Genealogy>  (4) 
COc1ccccc1N1CCN(C(C)C)CC1 (3D coordinates assigned)
COc1ccccc1N1CCN(C(C)C)CC1 (nonaromatic ring conformer: 48.914787021620285 kcal/mol)

>  <smiles>  (4) 
COc1ccccc1N1CCN(C(C)C)CC1

>  <score_type>  (4) 
oracle

>  <origin>  (4) 
autodockgpu

>  <m_score__min__energy>  (4) 
-4.9400000000000004

>  <m_primary>  (4) 
energy

>  <meeko>  (4) 
{"free_energy": -4.94, "intermolecular_energy": -5.83, "internal_energy": -0.65, "cluster_size": 18, "cluster_id": 1, "rank_in_cluster": 7}

>  <energy>  (4) 
-4.94

>  <cluster_rmsd>  (4) 
0.02

>  <rmsd>  (4) 
273.2

>  <cluster>  (4) 
1

$$$$
LUCSOMIVZJTSBJ-UHFFFAOYNA-N
     RDKit          3D

 39 40  0  0  0  0  0  0  0  0999 V2000
  139.1840   73.3690  221.8780 C   0  0  0  0  0  0  0  0  0  0  0  0
  140.2460   74.3140  221.9680 O   0  0  0  0  0  0  0  0  0  0  0  0
  141.4370   74.2480  221.2280 C   0  0  0  0  0  0  0  0  0  0  0  0
  142.0670   73.0190  220.9440 C   0  0  0  0  0  0  0  0  0  0  0  0
  143.2650   72.9880  220.2270 C   0  0  0  0  0  0  0  0  0  0  0  0
  143.8470   74.1760  219.7840 C   0  0  0  0  0  0  0  0  0  0  0  0
  143.2310   75.4000  220.0540 C   0  0  0  0  0  0  0  0  0  0  0  0
  142.0250   75.4460  220.7720 C   0  0  0  0  0  0  0  0  0  0  0  0
  141.3950   76.7160  221.0210 N   0  0  0  0  0  0  0  0  0  0  0  0
  141.4610   77.7850  220.0190 C   0  0  0  0  0  0  0  0  0  0  0  0
  141.2990   79.1580  220.6820 C   0  0  0  0  0  0  0  0  0  0  0  0
  142.0530   79.1810  221.9570 N   0  0  0  0  0  0  0  0  0  0  0  0
  142.2060   80.5640  222.5030 C   0  0  0  0  0  0  0  0  0  0  0  0
  140.8330   81.2390  222.7250 C   0  0  0  0  0  0  0  0  0  0  0  0
  142.9510   80.5600  223.8550 C   0  0  0  0  0  0  0  0  0  0  0  0
  141.4190   78.2640  222.9480 C   0  0  0  0  0  0  0  0  0  0  0  0
  140.7860   77.0050  222.3200 C   0  0  0  0  0  0  0  0  0  0  0  0
  138.8617   73.0822  222.8899 H   0  0  0  0  0  0  0  0  0  0  0  0
  138.3381   73.8185  221.3373 H   0  0  0  0  0  0  0  0  0  0  0  0
  139.5322   72.4766  221.3373 H   0  0  0  0  0  0  0  0  0  0  0  0
  141.6121   72.0789  221.2893 H   0  0  0  0  0  0  0  0  0  0  0  0
  143.7507   72.0249  220.0111 H   0  0  0  0  0  0  0  0  0  0  0  0
  144.7919   74.1486  219.2215 H   0  0  0  0  0  0  0  0  0  0  0  0
  143.6934   76.3340  219.7020 H   0  0  0  0  0  0  0  0  0  0  0  0
  142.4347   77.7426  219.5090 H   0  0  0  0  0  0  0  0  0  0  0  0
  140.6452   77.6428  219.2949 H   0  0  0  0  0  0  0  0  0  0  0  0
  141.6887   79.9377  220.0111 H   0  0  0  0  0  0  0  0  0  0  0  0
  140.2338   79.3461  220.8817 H   0  0  0  0  0  0  0  0  0  0  0  0
  142.7862   81.1252  221.7557 H   0  0  0  0  0  0  0  0  0  0  0  0
  140.6410   81.3334  223.8040 H   0  0  0  0  0  0  0  0  0  0  0  0
  140.8368   82.2380  222.2645 H   0  0  0  0  0  0  0  0  0  0  0  0
  140.0443   80.6259  222.2645 H   0  0  0  0  0  0  0  0  0  0  0  0
  142.2197   80.5639  224.6767 H   0  0  0  0  0  0  0  0  0  0  0  0
  143.5773   79.6585  223.9259 H   0  0  0  0  0  0  0  0  0  0  0  0
  143.5869   81.4547  223.9259 H   0  0  0  0  0  0  0  0  0  0  0  0
  142.1891   77.9434  223.6651 H   0  0  0  0  0  0  0  0  0  0  0  0
  140.6036   78.8261  223.4266 H   0  0  0  0  0  0  0  0  0  0  0  0
  140.9429   76.1480  222.9916 H   0  0  0  0  0  0  0  0  0  0  0  0
  139.7101   77.1831  222.1757 H   0  0  0  0  0  0  0  0  0  0  0  0
  1  2  1  0
  2  3  1  0
  3  4  2  0
  4  5  1  0
  5  6  2  0
  6  7  1  0
  7  8  2  0
  8  9  1  0
  9 10  1  0
 10 11  1  0
 11 12  1  0
 12 13  1  0
 13 14  1  0
 13 15  1  0
 12 16  1  0
 16 17  1  0
  8  3  1  0
 17  9  1  0
  1 18  1  0
  1 19  1  0
  1 20  1  0
  4 21  1  0
  5 22  1  0
  6 23  1  0
  7 24  1  0
 10 25  1  0
 10 26  1  0
 11 27  1  0
 11 28  1  0
 13 29  1  0
 14 30  1  0
 14 31  1  0
 14 32  1  0
 15 33  1  0
 15 34  1  0
 15 35  1  0
 16 36  1  0
 16 37  1  0
 17 38  1  0
 17 39  1  0
M  END
>  <UniqueID>  (5) 
21

>  <SMILES>  (5) 
COc1ccccc1N1CCN(C(C)C)CC1

>  <Energy>  (5) 
48.914787021620285

>  <Genealogy>  (5) 
COc1ccccc1N1CCN(C(C)C)CC1 (3D coordinates assigned)
COc1ccccc1N1CCN(C(C)C)CC1 (nonaromatic ring conformer: 48.914787021620285 kcal/mol)

>  <smiles>  (5) 
COc1ccccc1N1CCN(C(C)C)CC1

>  <score_type>  (5) 
oracle

>  <origin>  (5) 
autodockgpu

>  <m_score__min__energy>  (5) 
-4.9400000000000004

>  <m_primary>  (5) 
energy

>  <meeko>  (5) 
{"free_energy": -4.93, "intermolecular_energy": -5.82, "internal_energy": -0.63, "cluster_size": 18, "cluster_id": 1, "rank_in_cluster": 13}

>  <energy>  (5) 
-4.94

>  <cluster_rmsd>  (5) 
0.03

>  <rmsd>  (5) 
273.21

>  <cluster>  (5) 
1

$$$$
LUCSOMIVZJTSBJ-UHFFFAOYNA-N
     RDKit          3D

 39 40  0  0  0  0  0  0  0  0999 V2000
  138.7250   74.4300  221.4320 C   0  0  0  0  0  0  0  0  0  0  0  0
  140.0270   74.3650  222.0050 O   0  0  0  0  0  0  0  0  0  0  0  0
  141.2170   74.2440  221.2690 C   0  0  0  0  0  0  0  0  0  0  0  0
  141.7930   72.9880  220.9910 C   0  0  0  0  0  0  0  0  0  0  0  0
  142.9910   72.9010  220.2780 C   0  0  0  0  0  0  0  0  0  0  0  0
  143.6260   74.0610  219.8350 C   0  0  0  0  0  0  0  0  0  0  0  0
  143.0640   75.3110  220.0990 C   0  0  0  0  0  0  0  0  0  0  0  0
  141.8590   75.4130  220.8120 C   0  0  0  0  0  0  0  0  0  0  0  0
  141.2850   76.7110  221.0550 N   0  0  0  0  0  0  0  0  0  0  0  0
  141.3830   77.7660  220.0420 C   0  0  0  0  0  0  0  0  0  0  0  0
  141.2870   79.1510  220.6930 C   0  0  0  0  0  0  0  0  0  0  0  0
  142.0560   79.1550  221.9590 N   0  0  0  0  0  0  0  0  0  0  0  0
  142.2730   80.5360  222.4880 C   0  0  0  0  0  0  0  0  0  0  0  0
  140.9380   81.3020  222.6320 C   0  0  0  0  0  0  0  0  0  0  0  0
  142.9500   80.5100  223.8750 C   0  0  0  0  0  0  0  0  0  0  0  0
  141.3970   78.2750  222.9660 C   0  0  0  0  0  0  0  0  0  0  0  0
  140.7050   77.0370  222.3580 C   0  0  0  0  0  0  0  0  0  0  0  0
  137.9730   74.4675  222.2339 H   0  0  0  0  0  0  0  0  0  0  0  0
  138.6429   75.3334  220.8098 H   0  0  0  0  0  0  0  0  0  0  0  0
  138.5534   73.5393  220.8098 H   0  0  0  0  0  0  0  0  0  0  0  0
  141.2958   72.0701  221.3378 H   0  0  0  0  0  0  0  0  0  0  0  0
  143.4339   71.9168  220.0657 H   0  0  0  0  0  0  0  0  0  0  0  0
  144.5712   73.9907  219.2767 H   0  0  0  0  0  0  0  0  0  0  0  0
  143.5687   76.2224  219.7460 H   0  0  0  0  0  0  0  0  0  0  0  0
  142.3476   77.6779  219.5206 H   0  0  0  0  0  0  0  0  0  0  0  0
  140.5529   77.6512  219.3294 H   0  0  0  0  0  0  0  0  0  0  0  0
  141.7013   79.9070  220.0097 H   0  0  0  0  0  0  0  0  0  0  0  0
  140.2330   79.3856  220.9030 H   0  0  0  0  0  0  0  0  0  0  0  0
  142.9233   81.0439  221.7606 H   0  0  0  0  0  0  0  0  0  0  0  0
  140.7051   81.4356  223.6987 H   0  0  0  0  0  0  0  0  0  0  0  0
  141.0264   82.2867  222.1499 H   0  0  0  0  0  0  0  0  0  0  0  0
  140.1325   80.7287  222.1499 H   0  0  0  0  0  0  0  0  0  0  0  0
  142.1796   80.5396  224.6596 H   0  0  0  0  0  0  0  0  0  0  0  0
  143.5419   79.5885  223.9769 H   0  0  0  0  0  0  0  0  0  0  0  0
  143.6109   81.3834  223.9769 H   0  0  0  0  0  0  0  0  0  0  0  0
  142.1617   77.9297  223.6773 H   0  0  0  0  0  0  0  0  0  0  0  0
  140.6112   78.8749  223.4483 H   0  0  0  0  0  0  0  0  0  0  0  0
  140.8351   76.1807  223.0361 H   0  0  0  0  0  0  0  0  0  0  0  0
  139.6357   77.2580  222.2250 H   0  0  0  0  0  0  0  0  0  0  0  0
  1  2  1  0
  2  3  1  0
  3  4  2  0
  4  5  1  0
  5  6  2  0
  6  7  1  0
  7  8  2  0
  8  9  1  0
  9 10  1  0
 10 11  1  0
 11 12  1  0
 12 13  1  0
 13 14  1  0
 13 15  1  0
 12 16  1  0
 16 17  1  0
  8  3  1  0
 17  9  1  0
  1 18  1  0
  1 19  1  0
  1 20  1  0
  4 21  1  0
  5 22  1  0
  6 23  1  0
  7 24  1  0
 10 25  1  0
 10 26  1  0
 11 27  1  0
 11 28  1  0
 13 29  1  0
 14 30  1  0
 14 31  1  0
 14 32  1  0
 15 33  1  0
 15 34  1  0
 15 35  1  0
 16 36  1  0
 16 37  1  0
 17 38  1  0
 17 39  1  0
M  END
>  <UniqueID>  (6) 
21

>  <SMILES>  (6) 
COc1ccccc1N1CCN(C(C)C)CC1

>  <Energy>  (6) 
48.914787021620285

>  <Genealogy>  (6) 
COc1ccccc1N1CCN(C(C)C)CC1 (3D coordinates assigned)
COc1ccccc1N1CCN(C(C)C)CC1 (nonaromatic ring conformer: 48.914787021620285 kcal/mol)

>  <smiles>  (6) 
COc1ccccc1N1CCN(C(C)C)CC1

>  <score_type>  (6) 
oracle

>  <origin>  (6) 
autodockgpu

>  <m_score__min__energy>  (6) 
-4.9400000000000004

>  <m_primary>  (6) 
energy

>  <meeko>  (6) 
{"free_energy": -4.92, "intermolecular_energy": -5.82, "internal_energy": -0.66, "cluster_size": 18, "cluster_id": 1, "rank_in_cluster": 15}

>  <energy>  (6) 
-4.94

>  <cluster_rmsd>  (6) 
0.02

>  <rmsd>  (6) 
273.2

>  <cluster>  (6) 
1

$$$$
LUCSOMIVZJTSBJ-UHFFFAOYNA-N
     RDKit          3D

 39 40  0  0  0  0  0  0  0  0999 V2000
  138.6730   74.4700  221.5130 C   0  0  0  0  0  0  0  0  0  0  0  0
  139.9810   74.4230  222.0740 O   0  0  0  0  0  0  0  0  0  0  0  0
  141.1610   74.2610  221.3320 C   0  0  0  0  0  0  0  0  0  0  0  0
  141.7090   72.9880  221.0770 C   0  0  0  0  0  0  0  0  0  0  0  0
  142.9000   72.8610  220.3570 C   0  0  0  0  0  0  0  0  0  0  0  0
  143.5550   73.9970  219.8830 C   0  0  0  0  0  0  0  0  0  0  0  0
  143.0210   75.2650  220.1240 C   0  0  0  0  0  0  0  0  0  0  0  0
  141.8230   75.4070  220.8440 C   0  0  0  0  0  0  0  0  0  0  0  0
  141.2780   76.7210  221.0630 N   0  0  0  0  0  0  0  0  0  0  0  0
  141.4080   77.7580  220.0350 C   0  0  0  0  0  0  0  0  0  0  0  0
  141.3400   79.1540  220.6640 C   0  0  0  0  0  0  0  0  0  0  0  0
  142.1000   79.1600  221.9360 N   0  0  0  0  0  0  0  0  0  0  0  0
  142.3440   80.5440  222.4460 C   0  0  0  0  0  0  0  0  0  0  0  0
  141.0370   81.3680  222.4940 C   0  0  0  0  0  0  0  0  0  0  0  0
  142.9380   80.5240  223.8700 C   0  0  0  0  0  0  0  0  0  0  0  0
  141.4120   78.3110  222.9510 C   0  0  0  0  0  0  0  0  0  0  0  0
  140.6960   77.0810  222.3570 C   0  0  0  0  0  0  0  0  0  0  0  0
  137.9279   74.4968  222.3218 H   0  0  0  0  0  0  0  0  0  0  0  0
  138.5726   75.3723  220.8919 H   0  0  0  0  0  0  0  0  0  0  0  0
  138.5081   73.5772  220.8919 H   0  0  0  0  0  0  0  0  0  0  0  0
  141.1958   72.0882  221.4472 H   0  0  0  0  0  0  0  0  0  0  0  0
  143.3213   71.8634  220.1639 H   0  0  0  0  0  0  0  0  0  0  0  0
  144.4935   73.8945  219.3185 H   0  0  0  0  0  0  0  0  0  0  0  0
  143.5417   76.1579  219.7477 H   0  0  0  0  0  0  0  0  0  0  0  0
  142.3739   77.6394  219.5222 H   0  0  0  0  0  0  0  0  0  0  0  0
  140.5805   77.6518  219.3181 H   0  0  0  0  0  0  0  0  0  0  0  0
  141.7767   79.8895  219.9724 H   0  0  0  0  0  0  0  0  0  0  0  0
  140.2903   79.4160  220.8627 H   0  0  0  0  0  0  0  0  0  0  0  0
  143.0558   81.0069  221.7467 H   0  0  0  0  0  0  0  0  0  0  0  0
  140.7542   81.5463  223.5420 H   0  0  0  0  0  0  0  0  0  0  0  0
  141.1924   82.3318  221.9871 H   0  0  0  0  0  0  0  0  0  0  0  0
  140.2344   80.8123  221.9871 H   0  0  0  0  0  0  0  0  0  0  0  0
  142.1226   80.5515  224.6078 H   0  0  0  0  0  0  0  0  0  0  0  0
  143.5272   79.6055  224.0086 H   0  0  0  0  0  0  0  0  0  0  0  0
  143.5876   81.4008  224.0086 H   0  0  0  0  0  0  0  0  0  0  0  0
  142.1627   77.9589  223.6738 H   0  0  0  0  0  0  0  0  0  0  0  0
  140.6367   78.9368  223.4172 H   0  0  0  0  0  0  0  0  0  0  0  0
  140.8008   76.2325  223.0491 H   0  0  0  0  0  0  0  0  0  0  0  0
  139.6332   77.3250  222.2122 H   0  0  0  0  0  0  0  0  0  0  0  0
  1  2  1  0
  2  3  1  0
  3  4  2  0
  4  5  1  0
  5  6  2  0
  6  7  1  0
  7  8  2  0
  8  9  1  0
  9 10  1  0
 10 11  1  0
 11 12  1  0
 12 13  1  0
 13 14  1  0
 13 15  1  0
 12 16  1  0
 16 17  1  0
  8  3  1  0
 17  9  1  0
  1 18  1  0
  1 19  1  0
  1 20  1  0
  4 21  1  0
  5 22  1  0
  6 23  1  0
  7 24  1  0
 10 25  1  0
 10 26  1  0
 11 27  1  0
 11 28  1  0
 13 29  1  0
 14 30  1  0
 14 31  1  0
 14 32  1  0
 15 33  1  0
 15 34  1  0
 15 35  1  0
 16 36  1  0
 16 37  1  0
 17 38  1  0
 17 39  1  0
M  END
>  <UniqueID>  (7) 
21

>  <SMILES>  (7) 
COc1ccccc1N1CCN(C(C)C)CC1

>  <Energy>  (7) 
48.914787021620285

>  <Genealogy>  (7) 
COc1ccccc1N1CCN(C(C)C)CC1 (3D coordinates assigned)
COc1ccccc1N1CCN(C(C)C)CC1 (nonaromatic ring conformer: 48.914787021620285 kcal/mol)

>  <smiles>  (7) 
COc1ccccc1N1CCN(C(C)C)CC1

>  <score_type>  (7) 
oracle

>  <origin>  (7) 
autodockgpu

>  <m_score__min__energy>  (7) 
-4.9400000000000004

>  <m_primary>  (7) 
energy

>  <meeko>  (7) 
{"free_energy": -4.93, "intermolecular_energy": -5.83, "internal_energy": -0.66, "cluster_size": 18, "cluster_id": 1, "rank_in_cluster": 10}

>  <energy>  (7) 
-4.94

>  <cluster_rmsd>  (7) 
0.03

>  <rmsd>  (7) 
273.2

>  <cluster>  (7) 
1

$$$$
LUCSOMIVZJTSBJ-UHFFFAOYNA-N
     RDKit          3D

 39 40  0  0  0  0  0  0  0  0999 V2000
  142.1730   79.6130  218.8110 C   0  0  0  0  0  0  0  0  0  0  0  0
  141.2860   79.2370  219.8600 O   0  0  0  0  0  0  0  0  0  0  0  0
  141.5740   79.3580  221.2290 C   0  0  0  0  0  0  0  0  0  0  0  0
  142.2060   80.5020  221.7560 C   0  0  0  0  0  0  0  0  0  0  0  0
  142.5030   80.5810  223.1190 C   0  0  0  0  0  0  0  0  0  0  0  0
  142.1730   79.5250  223.9690 C   0  0  0  0  0  0  0  0  0  0  0  0
  141.5430   78.3880  223.4600 C   0  0  0  0  0  0  0  0  0  0  0  0
  141.2360   78.2960  222.0930 C   0  0  0  0  0  0  0  0  0  0  0  0
  140.5670   77.1240  221.5930 N   0  0  0  0  0  0  0  0  0  0  0  0
  139.2740   76.7140  222.1500 C   0  0  0  0  0  0  0  0  0  0  0  0
  139.0520   75.2100  221.9520 C   0  0  0  0  0  0  0  0  0  0  0  0
  140.3200   74.4870  222.2030 N   0  0  0  0  0  0  0  0  0  0  0  0
  140.1180   73.0130  222.3380 C   0  0  0  0  0  0  0  0  0  0  0  0
  138.6790   72.6020  221.9480 C   0  0  0  0  0  0  0  0  0  0  0  0
  141.0910   72.2230  221.4380 C   0  0  0  0  0  0  0  0  0  0  0  0
  141.3180   74.8120  221.1430 C   0  0  0  0  0  0  0  0  0  0  0  0
  141.2160   76.2570  220.6100 C   0  0  0  0  0  0  0  0  0  0  0  0
  143.1046   80.0079  219.2425 H   0  0  0  0  0  0  0  0  0  0  0  0
  142.4003   78.7338  218.1902 H   0  0  0  0  0  0  0  0  0  0  0  0
  141.6992   80.3877  218.1902 H   0  0  0  0  0  0  0  0  0  0  0  0
  142.4671   81.3378  221.0903 H   0  0  0  0  0  0  0  0  0  0  0  0
  142.9976   81.4769  223.5224 H   0  0  0  0  0  0  0  0  0  0  0  0
  142.4095   79.5884  225.0414 H   0  0  0  0  0  0  0  0  0  0  0  0
  141.2853   77.5583  224.1347 H   0  0  0  0  0  0  0  0  0  0  0  0
  139.2549   76.9434  223.2256 H   0  0  0  0  0  0  0  0  0  0  0  0
  138.4746   77.2614  221.6292 H   0  0  0  0  0  0  0  0  0  0  0  0
  138.2832   74.8571  222.6551 H   0  0  0  0  0  0  0  0  0  0  0  0
  138.7198   75.0208  220.9206 H   0  0  0  0  0  0  0  0  0  0  0  0
  140.3060   72.7744  223.3952 H   0  0  0  0  0  0  0  0  0  0  0  0
  138.0864   72.4327  222.8591 H   0  0  0  0  0  0  0  0  0  0  0  0
  138.2169   73.4041  221.3537 H   0  0  0  0  0  0  0  0  0  0  0  0
  138.7102   71.6769  221.3537 H   0  0  0  0  0  0  0  0  0  0  0  0
  141.7918   71.6540  222.0665 H   0  0  0  0  0  0  0  0  0  0  0  0
  140.5213   71.5287  220.8029 H   0  0  0  0  0  0  0  0  0  0  0  0
  141.6535   72.9232  220.8029 H   0  0  0  0  0  0  0  0  0  0  0  0
  142.3256   74.6668  221.5597 H   0  0  0  0  0  0  0  0  0  0  0  0
  141.1117   74.1433  220.2943 H   0  0  0  0  0  0  0  0  0  0  0  0
  142.2269   76.6382  220.4034 H   0  0  0  0  0  0  0  0  0  0  0  0
  140.6149   76.2534  219.6888 H   0  0  0  0  0  0  0  0  0  0  0  0
  1  2  1  0
  2  3  1  0
  3  4  2  0
  4  5  1  0
  5  6  2  0
  6  7  1  0
  7  8  2  0
  8  9  1  0
  9 10  1  0
 10 11  1  0
 11 12  1  0
 12 13  1  0
 13 14  1  0
 13 15  1  0
 12 16  1  0
 16 17  1  0
  8  3  1  0
 17  9  1  0
  1 18  1  0
  1 19  1  0
  1 20  1  0
  4 21  1  0
  5 22  1  0
  6 23  1  0
  7 24  1  0
 10 25  1  0
 10 26  1  0
 11 27  1  0
 11 28  1  0
 13 29  1  0
 14 30  1  0
 14 31  1  0
 14 32  1  0
 15 33  1  0
 15 34  1  0
 15 35  1  0
 16 36  1  0
 16 37  1  0
 17 38  1  0
 17 39  1  0
M  END
>  <UniqueID>  (8) 
21

>  <SMILES>  (8) 
COc1ccccc1N1CCN(C(C)C)CC1

>  <Energy>  (8) 
48.914787021620285

>  <Genealogy>  (8) 
COc1ccccc1N1CCN(C(C)C)CC1 (3D coordinates assigned)
COc1ccccc1N1CCN(C(C)C)CC1 (nonaromatic ring conformer: 48.914787021620285 kcal/mol)

>  <smiles>  (8) 
COc1ccccc1N1CCN(C(C)C)CC1

>  <score_type>  (8) 
oracle

>  <origin>  (8) 
autodockgpu

>  <m_score__min__energy>  (8) 
-4.9400000000000004

>  <m_primary>  (8) 
energy

>  <meeko>  (8) 
{"free_energy": -4.83, "intermolecular_energy": -5.72, "internal_energy": -0.71, "cluster_size": 2, "cluster_id": 2, "rank_in_cluster": 2}

>  <energy>  (8) 
-4.94

>  <cluster_rmsd>  (8) 
0.02

>  <rmsd>  (8) 
273.2

>  <cluster>  (8) 
1

$$$$
LUCSOMIVZJTSBJ-UHFFFAOYNA-N
     RDKit          3D

 39 40  0  0  0  0  0  0  0  0999 V2000
  138.7960   73.9960  221.5490 C   0  0  0  0  0  0  0  0  0  0  0  0
  140.0880   74.3490  222.0330 O   0  0  0  0  0  0  0  0  0  0  0  0
  141.2740   74.2440  221.2890 C   0  0  0  0  0  0  0  0  0  0  0  0
  141.8690   72.9960  221.0140 C   0  0  0  0  0  0  0  0  0  0  0  0
  143.0640   72.9260  220.2930 C   0  0  0  0  0  0  0  0  0  0  0  0
  143.6760   74.0930  219.8400 C   0  0  0  0  0  0  0  0  0  0  0  0
  143.0960   75.3360  220.1010 C   0  0  0  0  0  0  0  0  0  0  0  0
  141.8930   75.4210  220.8220 C   0  0  0  0  0  0  0  0  0  0  0  0
  141.3000   76.7100  221.0630 N   0  0  0  0  0  0  0  0  0  0  0  0
  141.4010   77.7720  220.0560 C   0  0  0  0  0  0  0  0  0  0  0  0
  141.2770   79.1520  220.7120 C   0  0  0  0  0  0  0  0  0  0  0  0
  142.0270   79.1590  221.9900 N   0  0  0  0  0  0  0  0  0  0  0  0
  142.2170   80.5400  222.5300 C   0  0  0  0  0  0  0  0  0  0  0  0
  140.8630   81.2480  222.7630 C   0  0  0  0  0  0  0  0  0  0  0  0
  142.9740   80.5220  223.8750 C   0  0  0  0  0  0  0  0  0  0  0  0
  141.3620   78.2660  222.9830 C   0  0  0  0  0  0  0  0  0  0  0  0
  140.6950   77.0230  222.3580 C   0  0  0  0  0  0  0  0  0  0  0  0
  138.1234   73.8122  222.3997 H   0  0  0  0  0  0  0  0  0  0  0  0
  138.3966   74.8180  220.9367 H   0  0  0  0  0  0  0  0  0  0  0  0
  138.8701   73.0852  220.9367 H   0  0  0  0  0  0  0  0  0  0  0  0
  141.3898   72.0717  221.3691 H   0  0  0  0  0  0  0  0  0  0  0  0
  143.5222   71.9483  220.0828 H   0  0  0  0  0  0  0  0  0  0  0  0
  144.6183   74.0349  219.2754 H   0  0  0  0  0  0  0  0  0  0  0  0
  143.5835   76.2537  219.7402 H   0  0  0  0  0  0  0  0  0  0  0  0
  142.3749   77.6987  219.5498 H   0  0  0  0  0  0  0  0  0  0  0  0
  140.5841   77.6503  219.3295 H   0  0  0  0  0  0  0  0  0  0  0  0
  141.6918   79.9168  220.0390 H   0  0  0  0  0  0  0  0  0  0  0  0
  140.2170   79.3721  220.9070 H   0  0  0  0  0  0  0  0  0  0  0  0
  142.8026   81.0852  221.7751 H   0  0  0  0  0  0  0  0  0  0  0  0
  140.6803   81.3435  223.8435 H   0  0  0  0  0  0  0  0  0  0  0  0
  140.8887   82.2481  222.3057 H   0  0  0  0  0  0  0  0  0  0  0  0
  140.0563   80.6563  222.3057 H   0  0  0  0  0  0  0  0  0  0  0  0
  142.2504   80.5392  224.7033 H   0  0  0  0  0  0  0  0  0  0  0  0
  143.5842   79.6091  223.9401 H   0  0  0  0  0  0  0  0  0  0  0  0
  143.6269   81.4049  223.9401 H   0  0  0  0  0  0  0  0  0  0  0  0
  142.1192   77.9265  223.7051 H   0  0  0  0  0  0  0  0  0  0  0  0
  140.5615   78.8542  223.4555 H   0  0  0  0  0  0  0  0  0  0  0  0
  140.8242   76.1650  223.0342 H   0  0  0  0  0  0  0  0  0  0  0  0
  139.6255   77.2321  222.2084 H   0  0  0  0  0  0  0  0  0  0  0  0
  1  2  1  0
  2  3  1  0
  3  4  2  0
  4  5  1  0
  5  6  2  0
  6  7  1  0
  7  8  2  0
  8  9  1  0
  9 10  1  0
 10 11  1  0
 11 12  1  0
 12 13  1  0
 13 14  1  0
 13 15  1  0
 12 16  1  0
 16 17  1  0
  8  3  1  0
 17  9  1  0
  1 18  1  0
  1 19  1  0
  1 20  1  0
  4 21  1  0
  5 22  1  0
  6 23  1  0
  7 24  1  0
 10 25  1  0
 10 26  1  0
 11 27  1  0
 11 28  1  0
 13 29  1  0
 14 30  1  0
 14 31  1  0
 14 32  1  0
 15 33  1  0
 15 34  1  0
 15 35  1  0
 16 36  1  0
 16 37  1  0
 17 38  1  0
 17 39  1  0
M  END
>  <UniqueID>  (9) 
21

>  <SMILES>  (9) 
COc1ccccc1N1CCN(C(C)C)CC1

>  <Energy>  (9) 
48.914787021620285

>  <Genealogy>  (9) 
COc1ccccc1N1CCN(C(C)C)CC1 (3D coordinates assigned)
COc1ccccc1N1CCN(C(C)C)CC1 (nonaromatic ring conformer: 48.914787021620285 kcal/mol)

>  <smiles>  (9) 
COc1ccccc1N1CCN(C(C)C)CC1

>  <score_type>  (9) 
oracle

>  <origin>  (9) 
autodockgpu

>  <m_score__min__energy>  (9) 
-4.9400000000000004

>  <m_primary>  (9) 
energy

>  <meeko>  (9) 
{"free_energy": -4.93, "intermolecular_energy": -5.83, "internal_energy": -0.64, "cluster_size": 18, "cluster_id": 1, "rank_in_cluster": 11}

>  <energy>  (9) 
-4.93

>  <cluster_rmsd>  (9) 
0.02

>  <rmsd>  (9) 
273.21

>  <cluster>  (9) 
1

$$$$
LUCSOMIVZJTSBJ-UHFFFAOYNA-N
     RDKit          3D

 39 40  0  0  0  0  0  0  0  0999 V2000
  138.6840   74.4790  221.4700 C   0  0  0  0  0  0  0  0  0  0  0  0
  139.9830   74.3940  222.0480 O   0  0  0  0  0  0  0  0  0  0  0  0
  141.1720   74.2360  221.3180 C   0  0  0  0  0  0  0  0  0  0  0  0
  141.7220   72.9630  221.0610 C   0  0  0  0  0  0  0  0  0  0  0  0
  142.9200   72.8400  220.3530 C   0  0  0  0  0  0  0  0  0  0  0  0
  143.5810   73.9790  219.8940 C   0  0  0  0  0  0  0  0  0  0  0  0
  143.0450   75.2450  220.1370 C   0  0  0  0  0  0  0  0  0  0  0  0
  141.8400   75.3840  220.8450 C   0  0  0  0  0  0  0  0  0  0  0  0
  141.2940   76.6970  221.0670 N   0  0  0  0  0  0  0  0  0  0  0  0
  141.4080   77.7310  220.0330 C   0  0  0  0  0  0  0  0  0  0  0  0
  141.3430   79.1290  220.6590 C   0  0  0  0  0  0  0  0  0  0  0  0
  142.1180   79.1420  221.9210 N   0  0  0  0  0  0  0  0  0  0  0  0
  142.3650   80.5270  222.4240 C   0  0  0  0  0  0  0  0  0  0  0  0
  141.0620   81.3590  222.4500 C   0  0  0  0  0  0  0  0  0  0  0  0
  142.9430   80.5160  223.8540 C   0  0  0  0  0  0  0  0  0  0  0  0
  141.4460   78.2940  222.9470 C   0  0  0  0  0  0  0  0  0  0  0  0
  140.7260   77.0590  222.3660 C   0  0  0  0  0  0  0  0  0  0  0  0
  137.9296   74.5284  222.2691 H   0  0  0  0  0  0  0  0  0  0  0  0
  138.6182   75.3834  220.8473 H   0  0  0  0  0  0  0  0  0  0  0  0
  138.5009   73.5909  220.8473 H   0  0  0  0  0  0  0  0  0  0  0  0
  141.2044   72.0613  221.4203 H   0  0  0  0  0  0  0  0  0  0  0  0
  143.3425   71.8434  220.1573 H   0  0  0  0  0  0  0  0  0  0  0  0
  144.5260   73.8798  219.3397 H   0  0  0  0  0  0  0  0  0  0  0  0
  143.5701   76.1398  219.7714 H   0  0  0  0  0  0  0  0  0  0  0  0
  142.3679   77.6138  219.5088 H   0  0  0  0  0  0  0  0  0  0  0  0
  140.5726   77.6196  219.3262 H   0  0  0  0  0  0  0  0  0  0  0  0
  141.7687   79.8638  219.9598 H   0  0  0  0  0  0  0  0  0  0  0  0
  140.2949   79.3876  220.8700 H   0  0  0  0  0  0  0  0  0  0  0  0
  143.0887   80.9795  221.7301 H   0  0  0  0  0  0  0  0  0  0  0  0
  140.7677   81.5469  223.4931 H   0  0  0  0  0  0  0  0  0  0  0  0
  141.2290   82.3180  221.9377 H   0  0  0  0  0  0  0  0  0  0  0  0
  140.2623   80.8040  221.9377 H   0  0  0  0  0  0  0  0  0  0  0  0
  142.1191   80.5317  224.5826 H   0  0  0  0  0  0  0  0  0  0  0  0
  143.5440   79.6063  223.9996 H   0  0  0  0  0  0  0  0  0  0  0  0
  143.5781   81.4022  223.9996 H   0  0  0  0  0  0  0  0  0  0  0  0
  142.2071   77.9466  223.6612 H   0  0  0  0  0  0  0  0  0  0  0  0
  140.6746   78.9187  223.4210 H   0  0  0  0  0  0  0  0  0  0  0  0
  140.8416   76.2132  223.0597 H   0  0  0  0  0  0  0  0  0  0  0  0
  139.6606   77.2987  222.2334 H   0  0  0  0  0  0  0  0  0  0  0  0
  1  2  1  0
  2  3  1  0
  3  4  2  0
  4  5  1  0
  5  6  2  0
  6  7  1  0
  7  8  2  0
  8  9  1  0
  9 10  1  0
 10 11  1  0
 11 12  1  0
 12 13  1  0
 13 14  1  0
 13 15  1  0
 12 16  1  0
 16 17  1  0
  8  3  1  0
 17  9  1  0
  1 18  1  0
  1 19  1  0
  1 20  1  0
  4 21  1  0
  5 22  1  0
  6 23  1  0
  7 24  1  0
 10 25  1  0
 10 26  1  0
 11 27  1  0
 11 28  1  0
 13 29  1  0
 14 30  1  0
 14 31  1  0
 14 32  1  0
 15 33  1  0
 15 34  1  0
 15 35  1  0
 16 36  1  0
 16 37  1  0
 17 38  1  0
 17 39  1  0
M  END
>  <UniqueID>  (10) 
21

>  <SMILES>  (10) 
COc1ccccc1N1CCN(C(C)C)CC1

>  <Energy>  (10) 
48.914787021620285

>  <Genealogy>  (10) 
COc1ccccc1N1CCN(C(C)C)CC1 (3D coordinates assigned)
COc1ccccc1N1CCN(C(C)C)CC1 (nonaromatic ring conformer: 48.914787021620285 kcal/mol)

>  <smiles>  (10) 
COc1ccccc1N1CCN(C(C)C)CC1

>  <score_type>  (10) 
oracle

>  <origin>  (10) 
autodockgpu

>  <m_score__min__energy>  (10) 
-4.9400000000000004

>  <m_primary>  (10) 
energy

>  <meeko>  (10) 
{"free_energy": -4.92, "intermolecular_energy": -5.82, "internal_energy": -0.67, "cluster_size": 18, "cluster_id": 1, "rank_in_cluster": 17}

>  <energy>  (10) 
-4.93

>  <cluster_rmsd>  (10) 
0.04

>  <rmsd>  (10) 
273.2

>  <cluster>  (10) 
1

$$$$
LUCSOMIVZJTSBJ-UHFFFAOYNA-N
     RDKit          3D

 39 40  0  0  0  0  0  0  0  0999 V2000
  138.6680   74.4630  221.5450 C   0  0  0  0  0  0  0  0  0  0  0  0
  139.9790   74.4330  222.0980 O   0  0  0  0  0  0  0  0  0  0  0  0
  141.1550   74.2550  221.3520 C   0  0  0  0  0  0  0  0  0  0  0  0
  141.6940   72.9750  221.1090 C   0  0  0  0  0  0  0  0  0  0  0  0
  142.8800   72.8330  220.3850 C   0  0  0  0  0  0  0  0  0  0  0  0
  143.5400   73.9600  219.8950 C   0  0  0  0  0  0  0  0  0  0  0  0
  143.0150   75.2330  220.1250 C   0  0  0  0  0  0  0  0  0  0  0  0
  141.8220   75.3910  220.8490 C   0  0  0  0  0  0  0  0  0  0  0  0
  141.2870   76.7110  221.0560 N   0  0  0  0  0  0  0  0  0  0  0  0
  141.4280   77.7390  220.0200 C   0  0  0  0  0  0  0  0  0  0  0  0
  141.3680   79.1410  220.6380 C   0  0  0  0  0  0  0  0  0  0  0  0
  142.1240   79.1510  221.9120 N   0  0  0  0  0  0  0  0  0  0  0  0
  142.3780   80.5360  222.4120 C   0  0  0  0  0  0  0  0  0  0  0  0
  141.0810   81.3770  222.4320 C   0  0  0  0  0  0  0  0  0  0  0  0
  142.9510   80.5240  223.8450 C   0  0  0  0  0  0  0  0  0  0  0  0
  141.4270   78.3150  222.9310 C   0  0  0  0  0  0  0  0  0  0  0  0
  140.7030   77.0850  222.3440 C   0  0  0  0  0  0  0  0  0  0  0  0
  137.9274   74.4799  222.3581 H   0  0  0  0  0  0  0  0  0  0  0  0
  138.5522   75.3640  220.9247 H   0  0  0  0  0  0  0  0  0  0  0  0
  138.5111   73.5682  220.9247 H   0  0  0  0  0  0  0  0  0  0  0  0
  141.1773   72.0826  221.4920 H   0  0  0  0  0  0  0  0  0  0  0  0
  143.2943   71.8308  220.2009 H   0  0  0  0  0  0  0  0  0  0  0  0
  144.4749   73.8456  219.3269 H   0  0  0  0  0  0  0  0  0  0  0  0
  143.5394   76.1184  219.7364 H   0  0  0  0  0  0  0  0  0  0  0  0
  142.3947   77.6093  219.5115 H   0  0  0  0  0  0  0  0  0  0  0  0
  140.6022   77.6331  219.3011 H   0  0  0  0  0  0  0  0  0  0  0  0
  141.8122   79.8679  219.9421 H   0  0  0  0  0  0  0  0  0  0  0  0
  140.3196   79.4124  220.8312 H   0  0  0  0  0  0  0  0  0  0  0  0
  143.1064   80.9822  221.7189 H   0  0  0  0  0  0  0  0  0  0  0  0
  140.7846   81.5692  223.4738 H   0  0  0  0  0  0  0  0  0  0  0  0
  141.2564   82.3337  221.9182 H   0  0  0  0  0  0  0  0  0  0  0  0
  140.2791   80.8265  221.9182 H   0  0  0  0  0  0  0  0  0  0  0  0
  142.1244   80.5413  224.5706 H   0  0  0  0  0  0  0  0  0  0  0  0
  143.5497   79.6131  223.9929 H   0  0  0  0  0  0  0  0  0  0  0  0
  143.5873   81.4090  223.9929 H   0  0  0  0  0  0  0  0  0  0  0  0
  142.1730   77.9628  223.6586 H   0  0  0  0  0  0  0  0  0  0  0  0
  140.6550   78.9500  223.3901 H   0  0  0  0  0  0  0  0  0  0  0  0
  140.7987   76.2412  223.0432 H   0  0  0  0  0  0  0  0  0  0  0  0
  139.6425   77.3356  222.1936 H   0  0  0  0  0  0  0  0  0  0  0  0
  1  2  1  0
  2  3  1  0
  3  4  2  0
  4  5  1  0
  5  6  2  0
  6  7  1  0
  7  8  2  0
  8  9  1  0
  9 10  1  0
 10 11  1  0
 11 12  1  0
 12 13  1  0
 13 14  1  0
 13 15  1  0
 12 16  1  0
 16 17  1  0
  8  3  1  0
 17  9  1  0
  1 18  1  0
  1 19  1  0
  1 20  1  0
  4 21  1  0
  5 22  1  0
  6 23  1  0
  7 24  1  0
 10 25  1  0
 10 26  1  0
 11 27  1  0
 11 28  1  0
 13 29  1  0
 14 30  1  0
 14 31  1  0
 14 32  1  0
 15 33  1  0
 15 34  1  0
 15 35  1  0
 16 36  1  0
 16 37  1  0
 17 38  1  0
 17 39  1  0
M  END
>  <UniqueID>  (11) 
21

>  <SMILES>  (11) 
COc1ccccc1N1CCN(C(C)C)CC1

>  <Energy>  (11) 
48.914787021620285

>  <Genealogy>  (11) 
COc1ccccc1N1CCN(C(C)C)CC1 (3D coordinates assigned)
COc1ccccc1N1CCN(C(C)C)CC1 (nonaromatic ring conformer: 48.914787021620285 kcal/mol)

>  <smiles>  (11) 
COc1ccccc1N1CCN(C(C)C)CC1

>  <score_type>  (11) 
oracle

>  <origin>  (11) 
autodockgpu

>  <m_score__min__energy>  (11) 
-4.9400000000000004

>  <m_primary>  (11) 
energy

>  <meeko>  (11) 
{"free_energy": -4.94, "intermolecular_energy": -5.84, "internal_energy": -0.65, "cluster_size": 18, "cluster_id": 1, "rank_in_cluster": 1}

>  <energy>  (11) 
-4.93

>  <cluster_rmsd>  (11) 
0.2

>  <rmsd>  (11) 
273.22

>  <cluster>  (11) 
1

$$$$
LUCSOMIVZJTSBJ-UHFFFAOYNA-N
     RDKit          3D

 39 40  0  0  0  0  0  0  0  0999 V2000
  138.6740   74.4710  221.5310 C   0  0  0  0  0  0  0  0  0  0  0  0
  139.9840   74.4190  222.0860 O   0  0  0  0  0  0  0  0  0  0  0  0
  141.1600   74.2530  221.3380 C   0  0  0  0  0  0  0  0  0  0  0  0
  141.7050   72.9780  221.0850 C   0  0  0  0  0  0  0  0  0  0  0  0
  142.8920   72.8470  220.3590 C   0  0  0  0  0  0  0  0  0  0  0  0
  143.5460   73.9810  219.8780 C   0  0  0  0  0  0  0  0  0  0  0  0
  143.0150   75.2500  220.1180 C   0  0  0  0  0  0  0  0  0  0  0  0
  141.8220   75.3960  220.8430 C   0  0  0  0  0  0  0  0  0  0  0  0
  141.2800   76.7120  221.0610 N   0  0  0  0  0  0  0  0  0  0  0  0
  141.4040   77.7450  220.0280 C   0  0  0  0  0  0  0  0  0  0  0  0
  141.3420   79.1440  220.6530 C   0  0  0  0  0  0  0  0  0  0  0  0
  142.1100   79.1530  221.9200 N   0  0  0  0  0  0  0  0  0  0  0  0
  142.3600   80.5380  222.4230 C   0  0  0  0  0  0  0  0  0  0  0  0
  141.0560   81.3680  222.4670 C   0  0  0  0  0  0  0  0  0  0  0  0
  142.9540   80.5240  223.8470 C   0  0  0  0  0  0  0  0  0  0  0  0
  141.4280   78.3090  222.9420 C   0  0  0  0  0  0  0  0  0  0  0  0
  140.7060   77.0770  222.3570 C   0  0  0  0  0  0  0  0  0  0  0  0
  137.9326   74.5004  222.3431 H   0  0  0  0  0  0  0  0  0  0  0  0
  138.5742   75.3738  220.9105 H   0  0  0  0  0  0  0  0  0  0  0  0
  138.5030   73.5789  220.9105 H   0  0  0  0  0  0  0  0  0  0  0  0
  141.1928   72.0803  221.4614 H   0  0  0  0  0  0  0  0  0  0  0  0
  143.3109   71.8482  220.1667 H   0  0  0  0  0  0  0  0  0  0  0  0
  144.4814   73.8756  219.3088 H   0  0  0  0  0  0  0  0  0  0  0  0
  143.5350   76.1410  219.7364 H   0  0  0  0  0  0  0  0  0  0  0  0
  142.3661   77.6234  219.5089 H   0  0  0  0  0  0  0  0  0  0  0  0
  140.5716   77.6371  219.3171 H   0  0  0  0  0  0  0  0  0  0  0  0
  141.7755   79.8765  219.9562 H   0  0  0  0  0  0  0  0  0  0  0  0
  140.2940   79.4083  220.8574 H   0  0  0  0  0  0  0  0  0  0  0  0
  143.0741   80.9935  221.7212 H   0  0  0  0  0  0  0  0  0  0  0  0
  140.7717   81.5490  223.5141 H   0  0  0  0  0  0  0  0  0  0  0  0
  141.2166   82.3304  221.9591 H   0  0  0  0  0  0  0  0  0  0  0  0
  140.2521   80.8150  221.9591 H   0  0  0  0  0  0  0  0  0  0  0  0
  142.1383   80.5432  224.5847 H   0  0  0  0  0  0  0  0  0  0  0  0
  143.5524   79.6115  223.9857 H   0  0  0  0  0  0  0  0  0  0  0  0
  143.5947   81.4073  223.9857 H   0  0  0  0  0  0  0  0  0  0  0  0
  142.1830   77.9585  223.6611 H   0  0  0  0  0  0  0  0  0  0  0  0
  140.6566   78.9375  223.4110 H   0  0  0  0  0  0  0  0  0  0  0  0
  140.8139   76.2309  223.0516 H   0  0  0  0  0  0  0  0  0  0  0  0
  139.6425   77.3214  222.2181 H   0  0  0  0  0  0  0  0  0  0  0  0
  1  2  1  0
  2  3  1  0
  3  4  2  0
  4  5  1  0
  5  6  2  0
  6  7  1  0
  7  8  2  0
  8  9  1  0
  9 10  1  0
 10 11  1  0
 11 12  1  0
 12 13  1  0
 13 14  1  0
 13 15  1  0
 12 16  1  0
 16 17  1  0
  8  3  1  0
 17  9  1  0
  1 18  1  0
  1 19  1  0
  1 20  1  0
  4 21  1  0
  5 22  1  0
  6 23  1  0
  7 24  1  0
 10 25  1  0
 10 26  1  0
 11 27  1  0
 11 28  1  0
 13 29  1  0
 14 30  1  0
 14 31  1  0
 14 32  1  0
 15 33  1  0
 15 34  1  0
 15 35  1  0
 16 36  1  0
 16 37  1  0
 17 38  1  0
 17 39  1  0
M  END
>  <UniqueID>  (12) 
21

>  <SMILES>  (12) 
COc1ccccc1N1CCN(C(C)C)CC1

>  <Energy>  (12) 
48.914787021620285

>  <Genealogy>  (12) 
COc1ccccc1N1CCN(C(C)C)CC1 (3D coordinates assigned)
COc1ccccc1N1CCN(C(C)C)CC1 (nonaromatic ring conformer: 48.914787021620285 kcal/mol)

>  <smiles>  (12) 
COc1ccccc1N1CCN(C(C)C)CC1

>  <score_type>  (12) 
oracle

>  <origin>  (12) 
autodockgpu

>  <m_score__min__energy>  (12) 
-4.9400000000000004

>  <m_primary>  (12) 
energy

>  <meeko>  (12) 
{"free_energy": -4.94, "intermolecular_energy": -5.83, "internal_energy": -0.66, "cluster_size": 18, "cluster_id": 1, "rank_in_cluster": 8}

>  <energy>  (12) 
-4.93

>  <cluster_rmsd>  (12) 
0.04

>  <rmsd>  (12) 
273.2

>  <cluster>  (12) 
1

$$$$
LUCSOMIVZJTSBJ-UHFFFAOYNA-N
     RDKit          3D

 39 40  0  0  0  0  0  0  0  0999 V2000
  138.6650   74.4840  221.5350 C   0  0  0  0  0  0  0  0  0  0  0  0
  139.9750   74.4340  222.0910 O   0  0  0  0  0  0  0  0  0  0  0  0
  141.1520   74.2540  221.3460 C   0  0  0  0  0  0  0  0  0  0  0  0
  141.6860   72.9720  221.1010 C   0  0  0  0  0  0  0  0  0  0  0  0
  142.8720   72.8270  220.3790 C   0  0  0  0  0  0  0  0  0  0  0  0
  143.5370   73.9520  219.8930 C   0  0  0  0  0  0  0  0  0  0  0  0
  143.0180   75.2270  220.1240 C   0  0  0  0  0  0  0  0  0  0  0  0
  141.8240   75.3880  220.8470 C   0  0  0  0  0  0  0  0  0  0  0  0
  141.2940   76.7100  221.0560 N   0  0  0  0  0  0  0  0  0  0  0  0
  141.4340   77.7370  220.0200 C   0  0  0  0  0  0  0  0  0  0  0  0
  141.3820   79.1390  220.6380 C   0  0  0  0  0  0  0  0  0  0  0  0
  142.1420   79.1470  221.9090 N   0  0  0  0  0  0  0  0  0  0  0  0
  142.4020   80.5310  222.4090 C   0  0  0  0  0  0  0  0  0  0  0  0
  141.1110   81.3810  222.4170 C   0  0  0  0  0  0  0  0  0  0  0  0
  142.9650   80.5170  223.8460 C   0  0  0  0  0  0  0  0  0  0  0  0
  141.4460   78.3130  222.9310 C   0  0  0  0  0  0  0  0  0  0  0  0
  140.7160   77.0860  222.3470 C   0  0  0  0  0  0  0  0  0  0  0  0
  137.9230   74.5123  222.3466 H   0  0  0  0  0  0  0  0  0  0  0  0
  138.5643   75.3866  220.9145 H   0  0  0  0  0  0  0  0  0  0  0  0
  138.4957   73.5917  220.9145 H   0  0  0  0  0  0  0  0  0  0  0  0
  141.1649   72.0809  221.4811 H   0  0  0  0  0  0  0  0  0  0  0  0
  143.2825   71.8235  220.1932 H   0  0  0  0  0  0  0  0  0  0  0  0
  144.4725   73.8345  219.3264 H   0  0  0  0  0  0  0  0  0  0  0  0
  143.5468   76.1109  219.7378 H   0  0  0  0  0  0  0  0  0  0  0  0
  142.3979   77.6038  219.5071 H   0  0  0  0  0  0  0  0  0  0  0  0
  140.6045   77.6342  219.3050 H   0  0  0  0  0  0  0  0  0  0  0  0
  141.8267   79.8639  219.9403 H   0  0  0  0  0  0  0  0  0  0  0  0
  140.3354   79.4141  220.8350 H   0  0  0  0  0  0  0  0  0  0  0  0
  143.1387   80.9715  221.7212 H   0  0  0  0  0  0  0  0  0  0  0  0
  140.8092   81.5797  223.4560 H   0  0  0  0  0  0  0  0  0  0  0  0
  141.2964   82.3343  221.9004 H   0  0  0  0  0  0  0  0  0  0  0  0
  140.3086   80.8340  221.9004 H   0  0  0  0  0  0  0  0  0  0  0  0
  142.1335   80.5377  224.5658 H   0  0  0  0  0  0  0  0  0  0  0  0
  143.5591   79.6038  223.9982 H   0  0  0  0  0  0  0  0  0  0  0  0
  143.6037   81.3995  223.9982 H   0  0  0  0  0  0  0  0  0  0  0  0
  142.1936   77.9583  223.6557 H   0  0  0  0  0  0  0  0  0  0  0  0
  140.6779   78.9506  223.3931 H   0  0  0  0  0  0  0  0  0  0  0  0
  140.8117   76.2418  223.0457 H   0  0  0  0  0  0  0  0  0  0  0  0
  139.6558   77.3401  222.2008 H   0  0  0  0  0  0  0  0  0  0  0  0
  1  2  1  0
  2  3  1  0
  3  4  2  0
  4  5  1  0
  5  6  2  0
  6  7  1  0
  7  8  2  0
  8  9  1  0
  9 10  1  0
 10 11  1  0
 11 12  1  0
 12 13  1  0
 13 14  1  0
 13 15  1  0
 12 16  1  0
 16 17  1  0
  8  3  1  0
 17  9  1  0
  1 18  1  0
  1 19  1  0
  1 20  1  0
  4 21  1  0
  5 22  1  0
  6 23  1  0
  7 24  1  0
 10 25  1  0
 10 26  1  0
 11 27  1  0
 11 28  1  0
 13 29  1  0
 14 30  1  0
 14 31  1  0
 14 32  1  0
 15 33  1  0
 15 34  1  0
 15 35  1  0
 16 36  1  0
 16 37  1  0
 17 38  1  0
 17 39  1  0
M  END
>  <UniqueID>  (13) 
21

>  <SMILES>  (13) 
COc1ccccc1N1CCN(C(C)C)CC1

>  <Energy>  (13) 
48.914787021620285

>  <Genealogy>  (13) 
COc1ccccc1N1CCN(C(C)C)CC1 (3D coordinates assigned)
COc1ccccc1N1CCN(C(C)C)CC1 (nonaromatic ring conformer: 48.914787021620285 kcal/mol)

>  <smiles>  (13) 
COc1ccccc1N1CCN(C(C)C)CC1

>  <score_type>  (13) 
oracle

>  <origin>  (13) 
autodockgpu

>  <m_score__min__energy>  (13) 
-4.9400000000000004

>  <m_primary>  (13) 
energy

>  <meeko>  (13) 
{"free_energy": -4.94, "intermolecular_energy": -5.83, "internal_energy": -0.65, "cluster_size": 18, "cluster_id": 1, "rank_in_cluster": 6}

>  <energy>  (13) 
-4.93

>  <cluster_rmsd>  (13) 
0.4

>  <rmsd>  (13) 
273.25

>  <cluster>  (13) 
1

$$$$
LUCSOMIVZJTSBJ-UHFFFAOYNA-N
     RDKit          3D

 39 40  0  0  0  0  0  0  0  0999 V2000
  138.6880   74.4700  221.5030 C   0  0  0  0  0  0  0  0  0  0  0  0
  139.9950   74.4300  222.0670 O   0  0  0  0  0  0  0  0  0  0  0  0
  141.1780   74.2720  221.3270 C   0  0  0  0  0  0  0  0  0  0  0  0
  141.7310   73.0000  221.0750 C   0  0  0  0  0  0  0  0  0  0  0  0
  142.9240   72.8770  220.3580 C   0  0  0  0  0  0  0  0  0  0  0  0
  143.5760   74.0140  219.8850 C   0  0  0  0  0  0  0  0  0  0  0  0
  143.0370   75.2800  220.1230 C   0  0  0  0  0  0  0  0  0  0  0  0
  141.8380   75.4190  220.8400 C   0  0  0  0  0  0  0  0  0  0  0  0
  141.2880   76.7320  221.0570 N   0  0  0  0  0  0  0  0  0  0  0  0
  141.4120   77.7670  220.0260 C   0  0  0  0  0  0  0  0  0  0  0  0
  141.3390   79.1640  220.6520 C   0  0  0  0  0  0  0  0  0  0  0  0
  142.1010   79.1760  221.9230 N   0  0  0  0  0  0  0  0  0  0  0  0
  142.3410   80.5620  222.4290 C   0  0  0  0  0  0  0  0  0  0  0  0
  141.0300   81.3780  222.4860 C   0  0  0  0  0  0  0  0  0  0  0  0
  142.9470   80.5480  223.8480 C   0  0  0  0  0  0  0  0  0  0  0  0
  141.4180   78.3270  222.9410 C   0  0  0  0  0  0  0  0  0  0  0  0
  140.7060   77.0920  222.3510 C   0  0  0  0  0  0  0  0  0  0  0  0
  137.9409   74.4929  222.3101 H   0  0  0  0  0  0  0  0  0  0  0  0
  138.5842   75.3717  220.8816 H   0  0  0  0  0  0  0  0  0  0  0  0
  138.5293   73.5763  220.8816 H   0  0  0  0  0  0  0  0  0  0  0  0
  141.2202   72.0988  221.4451 H   0  0  0  0  0  0  0  0  0  0  0  0
  143.3492   71.8807  220.1666 H   0  0  0  0  0  0  0  0  0  0  0  0
  144.5165   73.9142  219.3234 H   0  0  0  0  0  0  0  0  0  0  0  0
  143.5552   76.1742  219.7463 H   0  0  0  0  0  0  0  0  0  0  0  0
  142.3776   77.6513  219.5120 H   0  0  0  0  0  0  0  0  0  0  0  0
  140.5840   77.6555  219.3104 H   0  0  0  0  0  0  0  0  0  0  0  0
  141.7716   79.8998  219.9581 H   0  0  0  0  0  0  0  0  0  0  0  0
  140.2885   79.4220  220.8517 H   0  0  0  0  0  0  0  0  0  0  0  0
  143.0446   81.0280  221.7234 H   0  0  0  0  0  0  0  0  0  0  0  0
  140.7514   81.5514  223.5359 H   0  0  0  0  0  0  0  0  0  0  0  0
  141.1773   82.3442  221.9813 H   0  0  0  0  0  0  0  0  0  0  0  0
  140.2281   80.8192  221.9813 H   0  0  0  0  0  0  0  0  0  0  0  0
  142.1375   80.5667  224.5926 H   0  0  0  0  0  0  0  0  0  0  0  0
  143.5470   79.6358  223.9815 H   0  0  0  0  0  0  0  0  0  0  0  0
  143.5885   81.4316  223.9815 H   0  0  0  0  0  0  0  0  0  0  0  0
  142.1711   77.9799  223.6637 H   0  0  0  0  0  0  0  0  0  0  0  0
  140.6408   78.9508  223.4066 H   0  0  0  0  0  0  0  0  0  0  0  0
  140.8156   76.2455  223.0449 H   0  0  0  0  0  0  0  0  0  0  0  0
  139.6418   77.3306  222.2075 H   0  0  0  0  0  0  0  0  0  0  0  0
  1  2  1  0
  2  3  1  0
  3  4  2  0
  4  5  1  0
  5  6  2  0
  6  7  1  0
  7  8  2  0
  8  9  1  0
  9 10  1  0
 10 11  1  0
 11 12  1  0
 12 13  1  0
 13 14  1  0
 13 15  1  0
 12 16  1  0
 16 17  1  0
  8  3  1  0
 17  9  1  0
  1 18  1  0
  1 19  1  0
  1 20  1  0
  4 21  1  0
  5 22  1  0
  6 23  1  0
  7 24  1  0
 10 25  1  0
 10 26  1  0
 11 27  1  0
 11 28  1  0
 13 29  1  0
 14 30  1  0
 14 31  1  0
 14 32  1  0
 15 33  1  0
 15 34  1  0
 15 35  1  0
 16 36  1  0
 16 37  1  0
 17 38  1  0
 17 39  1  0
M  END
>  <UniqueID>  (14) 
21

>  <SMILES>  (14) 
COc1ccccc1N1CCN(C(C)C)CC1

>  <Energy>  (14) 
48.914787021620285

>  <Genealogy>  (14) 
COc1ccccc1N1CCN(C(C)C)CC1 (3D coordinates assigned)
COc1ccccc1N1CCN(C(C)C)CC1 (nonaromatic ring conformer: 48.914787021620285 kcal/mol)

>  <smiles>  (14) 
COc1ccccc1N1CCN(C(C)C)CC1

>  <score_type>  (14) 
oracle

>  <origin>  (14) 
autodockgpu

>  <m_score__min__energy>  (14) 
-4.9400000000000004

>  <m_primary>  (14) 
energy

>  <meeko>  (14) 
{"free_energy": -4.93, "intermolecular_energy": -5.83, "internal_energy": -0.66, "cluster_size": 18, "cluster_id": 1, "rank_in_cluster": 12}

>  <energy>  (14) 
-4.92

>  <cluster_rmsd>  (14) 
0.12

>  <rmsd>  (14) 
273.19

>  <cluster>  (14) 
1

$$$$
LUCSOMIVZJTSBJ-UHFFFAOYNA-N
     RDKit          3D

 39 40  0  0  0  0  0  0  0  0999 V2000
  138.6830   74.4540  221.5470 C   0  0  0  0  0  0  0  0  0  0  0  0
  139.9960   74.4300  222.0980 O   0  0  0  0  0  0  0  0  0  0  0  0
  141.1710   74.2530  221.3510 C   0  0  0  0  0  0  0  0  0  0  0  0
  141.7110   72.9730  221.1070 C   0  0  0  0  0  0  0  0  0  0  0  0
  142.8960   72.8320  220.3810 C   0  0  0  0  0  0  0  0  0  0  0  0
  143.5550   73.9590  219.8920 C   0  0  0  0  0  0  0  0  0  0  0  0
  143.0300   75.2320  220.1220 C   0  0  0  0  0  0  0  0  0  0  0  0
  141.8380   75.3890  220.8470 C   0  0  0  0  0  0  0  0  0  0  0  0
  141.3020   76.7090  221.0560 N   0  0  0  0  0  0  0  0  0  0  0  0
  141.4430   77.7380  220.0210 C   0  0  0  0  0  0  0  0  0  0  0  0
  141.3830   79.1390  220.6400 C   0  0  0  0  0  0  0  0  0  0  0  0
  142.1380   79.1480  221.9150 N   0  0  0  0  0  0  0  0  0  0  0  0
  142.3910   80.5330  222.4170 C   0  0  0  0  0  0  0  0  0  0  0  0
  141.0930   81.3730  222.4370 C   0  0  0  0  0  0  0  0  0  0  0  0
  142.9630   80.5190  223.8500 C   0  0  0  0  0  0  0  0  0  0  0  0
  141.4400   78.3110  222.9330 C   0  0  0  0  0  0  0  0  0  0  0  0
  140.7170   77.0820  222.3440 C   0  0  0  0  0  0  0  0  0  0  0  0
  137.9438   74.4675  222.3615 H   0  0  0  0  0  0  0  0  0  0  0  0
  138.5620   75.3545  220.9270 H   0  0  0  0  0  0  0  0  0  0  0  0
  138.5291   73.5585  220.9270 H   0  0  0  0  0  0  0  0  0  0  0  0
  141.1957   72.0802  221.4908 H   0  0  0  0  0  0  0  0  0  0  0  0
  143.3099   71.8300  220.1948 H   0  0  0  0  0  0  0  0  0  0  0  0
  144.4901   73.8450  219.3240 H   0  0  0  0  0  0  0  0  0  0  0  0
  143.5536   76.1176  219.7327 H   0  0  0  0  0  0  0  0  0  0  0  0
  142.4097   77.6088  219.5124 H   0  0  0  0  0  0  0  0  0  0  0  0
  140.6171   77.6327  219.3020 H   0  0  0  0  0  0  0  0  0  0  0  0
  141.8281   79.8663  219.9451 H   0  0  0  0  0  0  0  0  0  0  0  0
  140.3345   79.4103  220.8326 H   0  0  0  0  0  0  0  0  0  0  0  0
  143.1195   80.9811  221.7253 H   0  0  0  0  0  0  0  0  0  0  0  0
  140.7965   81.5649  223.4787 H   0  0  0  0  0  0  0  0  0  0  0  0
  141.2675   82.3299  221.9232 H   0  0  0  0  0  0  0  0  0  0  0  0
  140.2916   80.8218  221.9232 H   0  0  0  0  0  0  0  0  0  0  0  0
  142.1361   80.5392  224.5751 H   0  0  0  0  0  0  0  0  0  0  0  0
  143.5584   79.6060  223.9983 H   0  0  0  0  0  0  0  0  0  0  0  0
  143.6023   81.4018  223.9983 H   0  0  0  0  0  0  0  0  0  0  0  0
  142.1853   77.9582  223.6610 H   0  0  0  0  0  0  0  0  0  0  0  0
  140.6677   78.9455  223.3923 H   0  0  0  0  0  0  0  0  0  0  0  0
  140.8121   76.2375  223.0424 H   0  0  0  0  0  0  0  0  0  0  0  0
  139.6568   77.3330  222.1927 H   0  0  0  0  0  0  0  0  0  0  0  0
  1  2  1  0
  2  3  1  0
  3  4  2  0
  4  5  1  0
  5  6  2  0
  6  7  1  0
  7  8  2  0
  8  9  1  0
  9 10  1  0
 10 11  1  0
 11 12  1  0
 12 13  1  0
 13 14  1  0
 13 15  1  0
 12 16  1  0
 16 17  1  0
  8  3  1  0
 17  9  1  0
  1 18  1  0
  1 19  1  0
  1 20  1  0
  4 21  1  0
  5 22  1  0
  6 23  1  0
  7 24  1  0
 10 25  1  0
 10 26  1  0
 11 27  1  0
 11 28  1  0
 13 29  1  0
 14 30  1  0
 14 31  1  0
 14 32  1  0
 15 33  1  0
 15 34  1  0
 15 35  1  0
 16 36  1  0
 16 37  1  0
 17 38  1  0
 17 39  1  0
M  END
>  <UniqueID>  (15) 
21

>  <SMILES>  (15) 
COc1ccccc1N1CCN(C(C)C)CC1

>  <Energy>  (15) 
48.914787021620285

>  <Genealogy>  (15) 
COc1ccccc1N1CCN(C(C)C)CC1 (3D coordinates assigned)
COc1ccccc1N1CCN(C(C)C)CC1 (nonaromatic ring conformer: 48.914787021620285 kcal/mol)

>  <smiles>  (15) 
COc1ccccc1N1CCN(C(C)C)CC1

>  <score_type>  (15) 
oracle

>  <origin>  (15) 
autodockgpu

>  <m_score__min__energy>  (15) 
-4.9400000000000004

>  <m_primary>  (15) 
energy

>  <meeko>  (15) 
{"free_energy": -4.94, "intermolecular_energy": -5.84, "internal_energy": -0.65, "cluster_size": 18, "cluster_id": 1, "rank_in_cluster": 4}

>  <energy>  (15) 
-4.92

>  <cluster_rmsd>  (15) 
0.12

>  <rmsd>  (15) 
273.19

>  <cluster>  (15) 
1

$$$$
LUCSOMIVZJTSBJ-UHFFFAOYNA-N
     RDKit          3D

 39 40  0  0  0  0  0  0  0  0999 V2000
  138.7260   74.4300  221.4400 C   0  0  0  0  0  0  0  0  0  0  0  0
  140.0300   74.3700  222.0110 O   0  0  0  0  0  0  0  0  0  0  0  0
  141.2180   74.2490  221.2730 C   0  0  0  0  0  0  0  0  0  0  0  0
  141.7960   72.9930  220.9960 C   0  0  0  0  0  0  0  0  0  0  0  0
  142.9930   72.9060  220.2810 C   0  0  0  0  0  0  0  0  0  0  0  0
  143.6250   74.0660  219.8340 C   0  0  0  0  0  0  0  0  0  0  0  0
  143.0620   75.3160  220.0970 C   0  0  0  0  0  0  0  0  0  0  0  0
  141.8580   75.4180  220.8120 C   0  0  0  0  0  0  0  0  0  0  0  0
  141.2830   76.7150  221.0540 N   0  0  0  0  0  0  0  0  0  0  0  0
  141.3770   77.7690  220.0380 C   0  0  0  0  0  0  0  0  0  0  0  0
  141.2800   79.1540  220.6860 C   0  0  0  0  0  0  0  0  0  0  0  0
  142.0520   79.1630  221.9500 N   0  0  0  0  0  0  0  0  0  0  0  0
  142.2680   80.5450  222.4760 C   0  0  0  0  0  0  0  0  0  0  0  0
  140.9310   81.3070  222.6290 C   0  0  0  0  0  0  0  0  0  0  0  0
  142.9550   80.5240  223.8580 C   0  0  0  0  0  0  0  0  0  0  0  0
  141.3960   78.2840  222.9610 C   0  0  0  0  0  0  0  0  0  0  0  0
  140.7040   77.0440  222.3570 C   0  0  0  0  0  0  0  0  0  0  0  0
  137.9752   74.4645  222.2432 H   0  0  0  0  0  0  0  0  0  0  0  0
  138.6393   75.3331  220.8180 H   0  0  0  0  0  0  0  0  0  0  0  0
  138.5567   73.5387  220.8180 H   0  0  0  0  0  0  0  0  0  0  0  0
  141.3008   72.0750  221.3455 H   0  0  0  0  0  0  0  0  0  0  0  0
  143.4373   71.9220  220.0705 H   0  0  0  0  0  0  0  0  0  0  0  0
  144.5687   73.9959  219.2732 H   0  0  0  0  0  0  0  0  0  0  0  0
  143.5651   76.2274  219.7416 H   0  0  0  0  0  0  0  0  0  0  0  0
  142.3406   77.6816  219.5147 H   0  0  0  0  0  0  0  0  0  0  0  0
  140.5456   77.6513  219.3274 H   0  0  0  0  0  0  0  0  0  0  0  0
  141.6909   79.9093  220.0000 H   0  0  0  0  0  0  0  0  0  0  0  0
  140.2260   79.3863  220.8985 H   0  0  0  0  0  0  0  0  0  0  0  0
  142.9116   81.0535  221.7430 H   0  0  0  0  0  0  0  0  0  0  0  0
  140.7031   81.4369  223.6973 H   0  0  0  0  0  0  0  0  0  0  0  0
  141.0142   82.2934  222.1493 H   0  0  0  0  0  0  0  0  0  0  0  0
  140.1247   80.7328  222.1493 H   0  0  0  0  0  0  0  0  0  0  0  0
  142.1900   80.5474  224.6481 H   0  0  0  0  0  0  0  0  0  0  0  0
  143.5548   79.6071  223.9554 H   0  0  0  0  0  0  0  0  0  0  0  0
  143.6097   81.4026  223.9554 H   0  0  0  0  0  0  0  0  0  0  0  0
  142.1628   77.9410  223.6713 H   0  0  0  0  0  0  0  0  0  0  0  0
  140.6108   78.8841  223.4441 H   0  0  0  0  0  0  0  0  0  0  0  0
  140.8353   76.1895  223.0371 H   0  0  0  0  0  0  0  0  0  0  0  0
  139.6344   77.2639  222.2246 H   0  0  0  0  0  0  0  0  0  0  0  0
  1  2  1  0
  2  3  1  0
  3  4  2  0
  4  5  1  0
  5  6  2  0
  6  7  1  0
  7  8  2  0
  8  9  1  0
  9 10  1  0
 10 11  1  0
 11 12  1  0
 12 13  1  0
 13 14  1  0
 13 15  1  0
 12 16  1  0
 16 17  1  0
  8  3  1  0
 17  9  1  0
  1 18  1  0
  1 19  1  0
  1 20  1  0
  4 21  1  0
  5 22  1  0
  6 23  1  0
  7 24  1  0
 10 25  1  0
 10 26  1  0
 11 27  1  0
 11 28  1  0
 13 29  1  0
 14 30  1  0
 14 31  1  0
 14 32  1  0
 15 33  1  0
 15 34  1  0
 15 35  1  0
 16 36  1  0
 16 37  1  0
 17 38  1  0
 17 39  1  0
M  END
>  <UniqueID>  (16) 
21

>  <SMILES>  (16) 
COc1ccccc1N1CCN(C(C)C)CC1

>  <Energy>  (16) 
48.914787021620285

>  <Genealogy>  (16) 
COc1ccccc1N1CCN(C(C)C)CC1 (3D coordinates assigned)
COc1ccccc1N1CCN(C(C)C)CC1 (nonaromatic ring conformer: 48.914787021620285 kcal/mol)

>  <smiles>  (16) 
COc1ccccc1N1CCN(C(C)C)CC1

>  <score_type>  (16) 
oracle

>  <origin>  (16) 
autodockgpu

>  <m_score__min__energy>  (16) 
-4.9400000000000004

>  <m_primary>  (16) 
energy

>  <meeko>  (16) 
{"free_energy": -4.92, "intermolecular_energy": -5.82, "internal_energy": -0.66, "cluster_size": 18, "cluster_id": 1, "rank_in_cluster": 14}

>  <energy>  (16) 
-4.92

>  <cluster_rmsd>  (16) 
0.07

>  <rmsd>  (16) 
273.18

>  <cluster>  (16) 
1

$$$$
LUCSOMIVZJTSBJ-UHFFFAOYNA-N
     RDKit          3D

 39 40  0  0  0  0  0  0  0  0999 V2000
  138.6750   74.3540  221.5600 C   0  0  0  0  0  0  0  0  0  0  0  0
  139.9920   74.4430  222.0950 O   0  0  0  0  0  0  0  0  0  0  0  0
  141.1690   74.2640  221.3510 C   0  0  0  0  0  0  0  0  0  0  0  0
  141.7070   72.9840  221.1090 C   0  0  0  0  0  0  0  0  0  0  0  0
  142.8940   72.8400  220.3870 C   0  0  0  0  0  0  0  0  0  0  0  0
  143.5560   73.9660  219.8980 C   0  0  0  0  0  0  0  0  0  0  0  0
  143.0310   75.2400  220.1260 C   0  0  0  0  0  0  0  0  0  0  0  0
  141.8370   75.3990  220.8480 C   0  0  0  0  0  0  0  0  0  0  0  0
  141.3020   76.7200  221.0540 N   0  0  0  0  0  0  0  0  0  0  0  0
  141.4480   77.7480  220.0180 C   0  0  0  0  0  0  0  0  0  0  0  0
  141.3870   79.1490  220.6360 C   0  0  0  0  0  0  0  0  0  0  0  0
  142.1390   79.1580  221.9130 N   0  0  0  0  0  0  0  0  0  0  0  0
  142.3920   80.5440  222.4140 C   0  0  0  0  0  0  0  0  0  0  0  0
  141.0960   81.3860  222.4280 C   0  0  0  0  0  0  0  0  0  0  0  0
  142.9590   80.5310  223.8500 C   0  0  0  0  0  0  0  0  0  0  0  0
  141.4380   78.3230  222.9300 C   0  0  0  0  0  0  0  0  0  0  0  0
  140.7150   77.0940  222.3400 C   0  0  0  0  0  0  0  0  0  0  0  0
  137.9473   74.3048  222.3834 H   0  0  0  0  0  0  0  0  0  0  0  0
  138.4697   75.2403  220.9417 H   0  0  0  0  0  0  0  0  0  0  0  0
  138.5909   73.4481  220.9417 H   0  0  0  0  0  0  0  0  0  0  0  0
  141.1886   72.0923  221.4913 H   0  0  0  0  0  0  0  0  0  0  0  0
  143.3072   71.8372  220.2038 H   0  0  0  0  0  0  0  0  0  0  0  0
  144.4923   73.8506  219.3323 H   0  0  0  0  0  0  0  0  0  0  0  0
  143.5563   76.1249  219.7374 H   0  0  0  0  0  0  0  0  0  0  0  0
  142.4165   77.6174  219.5131 H   0  0  0  0  0  0  0  0  0  0  0  0
  140.6251   77.6429  219.2956 H   0  0  0  0  0  0  0  0  0  0  0  0
  141.8341   79.8759  219.9419 H   0  0  0  0  0  0  0  0  0  0  0  0
  140.3382   79.4210  220.8258 H   0  0  0  0  0  0  0  0  0  0  0  0
  143.1235   80.9900  221.7241 H   0  0  0  0  0  0  0  0  0  0  0  0
  140.7964   81.5806  223.4684 H   0  0  0  0  0  0  0  0  0  0  0  0
  141.2739   82.3415  221.9128 H   0  0  0  0  0  0  0  0  0  0  0  0
  140.2953   80.8352  221.9128 H   0  0  0  0  0  0  0  0  0  0  0  0
  142.1293   80.5500  224.5720 H   0  0  0  0  0  0  0  0  0  0  0  0
  143.5552   79.6189  224.0006 H   0  0  0  0  0  0  0  0  0  0  0  0
  143.5964   81.4148  224.0006 H   0  0  0  0  0  0  0  0  0  0  0  0
  142.1812   77.9700  223.6601 H   0  0  0  0  0  0  0  0  0  0  0  0
  140.6654   78.9587  223.3871 H   0  0  0  0  0  0  0  0  0  0  0  0
  140.8079   76.2498  223.0390 H   0  0  0  0  0  0  0  0  0  0  0  0
  139.6553   77.3458  222.1864 H   0  0  0  0  0  0  0  0  0  0  0  0
  1  2  1  0
  2  3  1  0
  3  4  2  0
  4  5  1  0
  5  6  2  0
  6  7  1  0
  7  8  2  0
  8  9  1  0
  9 10  1  0
 10 11  1  0
 11 12  1  0
 12 13  1  0
 13 14  1  0
 13 15  1  0
 12 16  1  0
 16 17  1  0
  8  3  1  0
 17  9  1  0
  1 18  1  0
  1 19  1  0
  1 20  1  0
  4 21  1  0
  5 22  1  0
  6 23  1  0
  7 24  1  0
 10 25  1  0
 10 26  1  0
 11 27  1  0
 11 28  1  0
 13 29  1  0
 14 30  1  0
 14 31  1  0
 14 32  1  0
 15 33  1  0
 15 34  1  0
 15 35  1  0
 16 36  1  0
 16 37  1  0
 17 38  1  0
 17 39  1  0
M  END
>  <UniqueID>  (17) 
21

>  <SMILES>  (17) 
COc1ccccc1N1CCN(C(C)C)CC1

>  <Energy>  (17) 
48.914787021620285

>  <Genealogy>  (17) 
COc1ccccc1N1CCN(C(C)C)CC1 (3D coordinates assigned)
COc1ccccc1N1CCN(C(C)C)CC1 (nonaromatic ring conformer: 48.914787021620285 kcal/mol)

>  <smiles>  (17) 
COc1ccccc1N1CCN(C(C)C)CC1

>  <score_type>  (17) 
oracle

>  <origin>  (17) 
autodockgpu

>  <m_score__min__energy>  (17) 
-4.9400000000000004

>  <m_primary>  (17) 
energy

>  <meeko>  (17) 
{"free_energy": -4.94, "intermolecular_energy": -5.83, "internal_energy": -0.65, "cluster_size": 18, "cluster_id": 1, "rank_in_cluster": 5}

>  <energy>  (17) 
-4.92

>  <cluster_rmsd>  (17) 
0.04

>  <rmsd>  (17) 
273.2

>  <cluster>  (17) 
1

$$$$
LUCSOMIVZJTSBJ-UHFFFAOYNA-N
     RDKit          3D

 39 40  0  0  0  0  0  0  0  0999 V2000
  138.6610   74.4020  221.5410 C   0  0  0  0  0  0  0  0  0  0  0  0
  139.9750   74.4420  222.0880 O   0  0  0  0  0  0  0  0  0  0  0  0
  141.1530   74.2620  221.3460 C   0  0  0  0  0  0  0  0  0  0  0  0
  141.6910   72.9820  221.1040 C   0  0  0  0  0  0  0  0  0  0  0  0
  142.8790   72.8380  220.3830 C   0  0  0  0  0  0  0  0  0  0  0  0
  143.5420   73.9630  219.8960 C   0  0  0  0  0  0  0  0  0  0  0  0
  143.0190   75.2370  220.1240 C   0  0  0  0  0  0  0  0  0  0  0  0
  141.8240   75.3970  220.8450 C   0  0  0  0  0  0  0  0  0  0  0  0
  141.2900   76.7180  221.0500 N   0  0  0  0  0  0  0  0  0  0  0  0
  141.4390   77.7470  220.0160 C   0  0  0  0  0  0  0  0  0  0  0  0
  141.3780   79.1480  220.6360 C   0  0  0  0  0  0  0  0  0  0  0  0
  142.1280   79.1550  221.9140 N   0  0  0  0  0  0  0  0  0  0  0  0
  142.3810   80.5390  222.4170 C   0  0  0  0  0  0  0  0  0  0  0  0
  141.0830   81.3790  222.4410 C   0  0  0  0  0  0  0  0  0  0  0  0
  142.9560   80.5240  223.8490 C   0  0  0  0  0  0  0  0  0  0  0  0
  141.4230   78.3200  222.9290 C   0  0  0  0  0  0  0  0  0  0  0  0
  140.7000   77.0920  222.3360 C   0  0  0  0  0  0  0  0  0  0  0  0
  137.9244   74.3796  222.3577 H   0  0  0  0  0  0  0  0  0  0  0  0
  138.4944   75.2955  220.9214 H   0  0  0  0  0  0  0  0  0  0  0  0
  138.5491   73.5000  220.9214 H   0  0  0  0  0  0  0  0  0  0  0  0
  141.1720   72.0903  221.4854 H   0  0  0  0  0  0  0  0  0  0  0  0
  143.2917   71.8350  220.1994 H   0  0  0  0  0  0  0  0  0  0  0  0
  144.4787   73.8468  219.3312 H   0  0  0  0  0  0  0  0  0  0  0  0
  143.5460   76.1214  219.7366 H   0  0  0  0  0  0  0  0  0  0  0  0
  142.4084   77.6162  219.5129 H   0  0  0  0  0  0  0  0  0  0  0  0
  140.6174   77.6436  219.2919 H   0  0  0  0  0  0  0  0  0  0  0  0
  141.8266   79.8754  219.9435 H   0  0  0  0  0  0  0  0  0  0  0  0
  140.3291   79.4204  220.8246 H   0  0  0  0  0  0  0  0  0  0  0  0
  143.1077   80.9877  221.7238 H   0  0  0  0  0  0  0  0  0  0  0  0
  140.7887   81.5694  223.4836 H   0  0  0  0  0  0  0  0  0  0  0  0
  141.2564   82.3366  221.9282 H   0  0  0  0  0  0  0  0  0  0  0  0
  140.2805   80.8285  221.9282 H   0  0  0  0  0  0  0  0  0  0  0  0
  142.1306   80.5455  224.5758 H   0  0  0  0  0  0  0  0  0  0  0  0
  143.5502   79.6101  223.9960 H   0  0  0  0  0  0  0  0  0  0  0  0
  143.5971   81.4057  223.9960 H   0  0  0  0  0  0  0  0  0  0  0  0
  142.1638   77.9657  223.6609 H   0  0  0  0  0  0  0  0  0  0  0  0
  140.6500   78.9563  223.3845 H   0  0  0  0  0  0  0  0  0  0  0  0
  140.7904   76.2471  223.0346 H   0  0  0  0  0  0  0  0  0  0  0  0
  139.6410   77.3452  222.1800 H   0  0  0  0  0  0  0  0  0  0  0  0
  1  2  1  0
  2  3  1  0
  3  4  2  0
  4  5  1  0
  5  6  2  0
  6  7  1  0
  7  8  2  0
  8  9  1  0
  9 10  1  0
 10 11  1  0
 11 12  1  0
 12 13  1  0
 13 14  1  0
 13 15  1  0
 12 16  1  0
 16 17  1  0
  8  3  1  0
 17  9  1  0
  1 18  1  0
  1 19  1  0
  1 20  1  0
  4 21  1  0
  5 22  1  0
  6 23  1  0
  7 24  1  0
 10 25  1  0
 10 26  1  0
 11 27  1  0
 11 28  1  0
 13 29  1  0
 14 30  1  0
 14 31  1  0
 14 32  1  0
 15 33  1  0
 15 34  1  0
 15 35  1  0
 16 36  1  0
 16 37  1  0
 17 38  1  0
 17 39  1  0
M  END
>  <UniqueID>  (18) 
21

>  <SMILES>  (18) 
COc1ccccc1N1CCN(C(C)C)CC1

>  <Energy>  (18) 
48.914787021620285

>  <Genealogy>  (18) 
COc1ccccc1N1CCN(C(C)C)CC1 (3D coordinates assigned)
COc1ccccc1N1CCN(C(C)C)CC1 (nonaromatic ring conformer: 48.914787021620285 kcal/mol)

>  <smiles>  (18) 
COc1ccccc1N1CCN(C(C)C)CC1

>  <score_type>  (18) 
oracle

>  <origin>  (18) 
autodockgpu

>  <m_score__min__energy>  (18) 
-4.9400000000000004

>  <m_primary>  (18) 
energy

>  <meeko>  (18) 
{"free_energy": -4.94, "intermolecular_energy": -5.84, "internal_energy": -0.65, "cluster_size": 18, "cluster_id": 1, "rank_in_cluster": 3}

>  <energy>  (18) 
-4.85

>  <cluster_rmsd>  (18) 
0.3

>  <rmsd>  (18) 
273.25

>  <cluster>  (18) 
1

$$$$
LUCSOMIVZJTSBJ-UHFFFAOYNA-N
     RDKit          3D

 39 40  0  0  0  0  0  0  0  0999 V2000
  138.7060   74.4420  221.4450 C   0  0  0  0  0  0  0  0  0  0  0  0
  140.0060   74.3770  222.0230 O   0  0  0  0  0  0  0  0  0  0  0  0
  141.1960   74.2300  221.2940 C   0  0  0  0  0  0  0  0  0  0  0  0
  141.7580   72.9630  221.0360 C   0  0  0  0  0  0  0  0  0  0  0  0
  142.9570   72.8510  220.3300 C   0  0  0  0  0  0  0  0  0  0  0  0
  143.6090   73.9960  219.8730 C   0  0  0  0  0  0  0  0  0  0  0  0
  143.0620   75.2570  220.1170 C   0  0  0  0  0  0  0  0  0  0  0  0
  141.8550   75.3850  220.8230 C   0  0  0  0  0  0  0  0  0  0  0  0
  141.2980   76.6930  221.0460 N   0  0  0  0  0  0  0  0  0  0  0  0
  141.4110   77.7320  220.0180 C   0  0  0  0  0  0  0  0  0  0  0  0
  141.3300   79.1270  220.6480 C   0  0  0  0  0  0  0  0  0  0  0  0
  142.0970   79.1410  221.9150 N   0  0  0  0  0  0  0  0  0  0  0  0
  142.3300   80.5260  222.4240 C   0  0  0  0  0  0  0  0  0  0  0  0
  141.0150   81.3380  222.4770 C   0  0  0  0  0  0  0  0  0  0  0  0
  142.9290   80.5130  223.8460 C   0  0  0  0  0  0  0  0  0  0  0  0
  141.4240   78.2840  222.9340 C   0  0  0  0  0  0  0  0  0  0  0  0
  140.7180   77.0460  222.3430 C   0  0  0  0  0  0  0  0  0  0  0  0
  137.9509   74.4798  222.2440 H   0  0  0  0  0  0  0  0  0  0  0  0
  138.6263   75.3453  220.8223 H   0  0  0  0  0  0  0  0  0  0  0  0
  138.5366   73.5512  220.8223 H   0  0  0  0  0  0  0  0  0  0  0  0
  141.2480   72.0563  221.3936 H   0  0  0  0  0  0  0  0  0  0  0  0
  143.3882   71.8582  220.1338 H   0  0  0  0  0  0  0  0  0  0  0  0
  144.5553   73.9054  219.3196 H   0  0  0  0  0  0  0  0  0  0  0  0
  143.5802   76.1567  219.7536 H   0  0  0  0  0  0  0  0  0  0  0  0
  142.3757   77.6248  219.5004 H   0  0  0  0  0  0  0  0  0  0  0  0
  140.5812   77.6166  219.3052 H   0  0  0  0  0  0  0  0  0  0  0  0
  141.7540   79.8679  219.9543 H   0  0  0  0  0  0  0  0  0  0  0  0
  140.2785   79.3767  220.8528 H   0  0  0  0  0  0  0  0  0  0  0  0
  143.0355   80.9945  221.7220 H   0  0  0  0  0  0  0  0  0  0  0  0
  140.7335   81.5118  223.5261 H   0  0  0  0  0  0  0  0  0  0  0  0
  141.1600   82.3041  221.9713 H   0  0  0  0  0  0  0  0  0  0  0  0
  140.2162   80.7757  221.9713 H   0  0  0  0  0  0  0  0  0  0  0  0
  142.1158   80.5306  224.5866 H   0  0  0  0  0  0  0  0  0  0  0  0
  143.5296   79.6016  223.9826 H   0  0  0  0  0  0  0  0  0  0  0  0
  143.5686   81.3975  223.9826 H   0  0  0  0  0  0  0  0  0  0  0  0
  142.1826   77.9399  223.6524 H   0  0  0  0  0  0  0  0  0  0  0  0
  140.6447   78.9010  223.4051 H   0  0  0  0  0  0  0  0  0  0  0  0
  140.8353   76.1984  223.0343 H   0  0  0  0  0  0  0  0  0  0  0  0
  139.6519   77.2782  222.2036 H   0  0  0  0  0  0  0  0  0  0  0  0
  1  2  1  0
  2  3  1  0
  3  4  2  0
  4  5  1  0
  5  6  2  0
  6  7  1  0
  7  8  2  0
  8  9  1  0
  9 10  1  0
 10 11  1  0
 11 12  1  0
 12 13  1  0
 13 14  1  0
 13 15  1  0
 12 16  1  0
 16 17  1  0
  8  3  1  0
 17  9  1  0
  1 18  1  0
  1 19  1  0
  1 20  1  0
  4 21  1  0
  5 22  1  0
  6 23  1  0
  7 24  1  0
 10 25  1  0
 10 26  1  0
 11 27  1  0
 11 28  1  0
 13 29  1  0
 14 30  1  0
 14 31  1  0
 14 32  1  0
 15 33  1  0
 15 34  1  0
 15 35  1  0
 16 36  1  0
 16 37  1  0
 17 38  1  0
 17 39  1  0
M  END
>  <UniqueID>  (19) 
21

>  <SMILES>  (19) 
COc1ccccc1N1CCN(C(C)C)CC1

>  <Energy>  (19) 
48.914787021620285

>  <Genealogy>  (19) 
COc1ccccc1N1CCN(C(C)C)CC1 (3D coordinates assigned)
COc1ccccc1N1CCN(C(C)C)CC1 (nonaromatic ring conformer: 48.914787021620285 kcal/mol)

>  <smiles>  (19) 
COc1ccccc1N1CCN(C(C)C)CC1

>  <score_type>  (19) 
oracle

>  <origin>  (19) 
autodockgpu

>  <m_score__min__energy>  (19) 
-4.9400000000000004

>  <m_primary>  (19) 
energy

>  <meeko>  (19) 
{"free_energy": -4.92, "intermolecular_energy": -5.82, "internal_energy": -0.66, "cluster_size": 18, "cluster_id": 1, "rank_in_cluster": 16}

>  <energy>  (19) 
-4.83

>  <cluster_rmsd>  (19) 
0.0

>  <rmsd>  (19) 
273.16

>  <cluster>  (19) 
2

$$$$
LUCSOMIVZJTSBJ-UHFFFAOYNA-N
     RDKit          3D

 39 40  0  0  0  0  0  0  0  0999 V2000
  138.7360   74.6510  221.5290 C   0  0  0  0  0  0  0  0  0  0  0  0
  140.0510   74.5310  222.0610 O   0  0  0  0  0  0  0  0  0  0  0  0
  141.2200   74.4540  221.2880 C   0  0  0  0  0  0  0  0  0  0  0  0
  141.8150   73.2180  220.9640 C   0  0  0  0  0  0  0  0  0  0  0  0
  142.9930   73.1750  220.2140 C   0  0  0  0  0  0  0  0  0  0  0  0
  143.5890   74.3580  219.7800 C   0  0  0  0  0  0  0  0  0  0  0  0
  143.0090   75.5900  220.0910 C   0  0  0  0  0  0  0  0  0  0  0  0
  141.8230   75.6480  220.8410 C   0  0  0  0  0  0  0  0  0  0  0  0
  141.2290   76.9260  221.1320 N   0  0  0  0  0  0  0  0  0  0  0  0
  141.1960   77.9780  220.1110 C   0  0  0  0  0  0  0  0  0  0  0  0
  141.1120   79.3630  220.7640 C   0  0  0  0  0  0  0  0  0  0  0  0
  141.9930   79.4020  221.9540 N   0  0  0  0  0  0  0  0  0  0  0  0
  142.2090   80.7920  222.4570 C   0  0  0  0  0  0  0  0  0  0  0  0
  140.9110   81.6280  222.3820 C   0  0  0  0  0  0  0  0  0  0  0  0
  142.6840   80.7950  223.9250 C   0  0  0  0  0  0  0  0  0  0  0  0
  141.4600   78.5060  223.0200 C   0  0  0  0  0  0  0  0  0  0  0  0
  140.7590   77.2400  222.4820 C   0  0  0  0  0  0  0  0  0  0  0  0
  138.0113   74.7171  222.3539 H   0  0  0  0  0  0  0  0  0  0  0  0
  138.6719   75.5587  220.9110 H   0  0  0  0  0  0  0  0  0  0  0  0
  138.5087   73.7699  220.9110 H   0  0  0  0  0  0  0  0  0  0  0  0
  141.3489   72.2813  221.3038 H   0  0  0  0  0  0  0  0  0  0  0  0
  143.4508   72.2061  219.9656 H   0  0  0  0  0  0  0  0  0  0  0  0
  144.5177   74.3212  219.1916 H   0  0  0  0  0  0  0  0  0  0  0  0
  143.4840   76.5204  219.7464 H   0  0  0  0  0  0  0  0  0  0  0  0
  142.1108   77.9201  219.5029 H   0  0  0  0  0  0  0  0  0  0  0  0
  140.3081   77.8301  219.4787 H   0  0  0  0  0  0  0  0  0  0  0  0
  141.4353   80.1285  220.0432 H   0  0  0  0  0  0  0  0  0  0  0  0
  140.0742   79.5620  221.0694 H   0  0  0  0  0  0  0  0  0  0  0  0
  142.9812   81.2345  221.8106 H   0  0  0  0  0  0  0  0  0  0  0  0
  140.5608   81.8535  223.4001 H   0  0  0  0  0  0  0  0  0  0  0  0
  141.1106   82.5678  221.8463 H   0  0  0  0  0  0  0  0  0  0  0  0
  140.1379   81.0576  221.8463 H   0  0  0  0  0  0  0  0  0  0  0  0
  141.8102   80.7895  224.5931 H   0  0  0  0  0  0  0  0  0  0  0  0
  143.2959   79.9007  224.1142 H   0  0  0  0  0  0  0  0  0  0  0  0
  143.2846   81.6970  224.1142 H   0  0  0  0  0  0  0  0  0  0  0  0
  142.2982   78.1922  223.6595 H   0  0  0  0  0  0  0  0  0  0  0  0
  140.7008   79.0814  223.5700 H   0  0  0  0  0  0  0  0  0  0  0  0
  140.9806   76.3932  223.1482 H   0  0  0  0  0  0  0  0  0  0  0  0
  139.6748   77.4225  222.4468 H   0  0  0  0  0  0  0  0  0  0  0  0
  1  2  1  0
  2  3  1  0
  3  4  2  0
  4  5  1  0
  5  6  2  0
  6  7  1  0
  7  8  2  0
  8  9  1  0
  9 10  1  0
 10 11  1  0
 11 12  1  0
 12 13  1  0
 13 14  1  0
 13 15  1  0
 12 16  1  0
 16 17  1  0
  8  3  1  0
 17  9  1  0
  1 18  1  0
  1 19  1  0
  1 20  1  0
  4 21  1  0
  5 22  1  0
  6 23  1  0
  7 24  1  0
 10 25  1  0
 10 26  1  0
 11 27  1  0
 11 28  1  0
 13 29  1  0
 14 30  1  0
 14 31  1  0
 14 32  1  0
 15 33  1  0
 15 34  1  0
 15 35  1  0
 16 36  1  0
 16 37  1  0
 17 38  1  0
 17 39  1  0
M  END
>  <UniqueID>  (20) 
21

>  <SMILES>  (20) 
COc1ccccc1N1CCN(C(C)C)CC1

>  <Energy>  (20) 
48.914787021620285

>  <Genealogy>  (20) 
COc1ccccc1N1CCN(C(C)C)CC1 (3D coordinates assigned)
COc1ccccc1N1CCN(C(C)C)CC1 (nonaromatic ring conformer: 48.914787021620285 kcal/mol)

>  <smiles>  (20) 
COc1ccccc1N1CCN(C(C)C)CC1

>  <score_type>  (20) 
oracle

>  <origin>  (20) 
autodockgpu

>  <m_score__min__energy>  (20) 
-4.9400000000000004

>  <m_primary>  (20) 
energy

>  <meeko>  (20) 
{"free_energy": -4.85, "intermolecular_energy": -5.75, "internal_energy": -0.69, "cluster_size": 18, "cluster_id": 1, "rank_in_cluster": 18}

>  <energy>  (20) 
-4.83

>  <cluster_rmsd>  (20) 
0.03

>  <rmsd>  (20) 
273.16

>  <cluster>  (20) 
2

$$$$
LUCSOMIVZJTSBJ-UHFFFAOYNA-N
     RDKit          3D

 39 40  0  0  0  0  0  0  0  0999 V2000
  142.1930   79.4950  218.8140 C   0  0  0  0  0  0  0  0  0  0  0  0
  141.2700   79.2420  219.8680 O   0  0  0  0  0  0  0  0  0  0  0  0
  141.5700   79.3550  221.2350 C   0  0  0  0  0  0  0  0  0  0  0  0
  142.2030   80.4990  221.7630 C   0  0  0  0  0  0  0  0  0  0  0  0
  142.5120   80.5710  223.1240 C   0  0  0  0  0  0  0  0  0  0  0  0
  142.1950   79.5100  223.9700 C   0  0  0  0  0  0  0  0  0  0  0  0
  141.5640   78.3730  223.4610 C   0  0  0  0  0  0  0  0  0  0  0  0
  141.2440   78.2870  222.0960 C   0  0  0  0  0  0  0  0  0  0  0  0
  140.5750   77.1160  221.5950 N   0  0  0  0  0  0  0  0  0  0  0  0
  139.2800   76.7080  222.1500 C   0  0  0  0  0  0  0  0  0  0  0  0
  139.0570   75.2040  221.9520 C   0  0  0  0  0  0  0  0  0  0  0  0
  140.3240   74.4800  222.2080 N   0  0  0  0  0  0  0  0  0  0  0  0
  140.1190   73.0060  222.3440 C   0  0  0  0  0  0  0  0  0  0  0  0
  138.6780   72.5980  221.9620 C   0  0  0  0  0  0  0  0  0  0  0  0
  141.0860   72.2150  221.4370 C   0  0  0  0  0  0  0  0  0  0  0  0
  141.3250   74.8030  221.1500 C   0  0  0  0  0  0  0  0  0  0  0  0
  141.2260   76.2470  220.6150 C   0  0  0  0  0  0  0  0  0  0  0  0
  143.1712   79.7631  219.2397 H   0  0  0  0  0  0  0  0  0  0  0  0
  142.2979   78.5925  218.1940 H   0  0  0  0  0  0  0  0  0  0  0  0
  141.8230   80.3249  218.1940 H   0  0  0  0  0  0  0  0  0  0  0  0
  142.4551   81.3396  221.0998 H   0  0  0  0  0  0  0  0  0  0  0  0
  143.0063   81.4667  223.5282 H   0  0  0  0  0  0  0  0  0  0  0  0
  142.4422   79.5682  225.0403 H   0  0  0  0  0  0  0  0  0  0  0  0
  141.3158   77.5388  224.1337 H   0  0  0  0  0  0  0  0  0  0  0  0
  139.2591   76.9379  223.2255 H   0  0  0  0  0  0  0  0  0  0  0  0
  138.4821   77.2563  221.6278 H   0  0  0  0  0  0  0  0  0  0  0  0
  138.2854   74.8522  222.6526 H   0  0  0  0  0  0  0  0  0  0  0  0
  138.7280   75.0144  220.9196 H   0  0  0  0  0  0  0  0  0  0  0  0
  140.3116   72.7664  223.4002 H   0  0  0  0  0  0  0  0  0  0  0  0
  138.0895   72.4314  222.8763 H   0  0  0  0  0  0  0  0  0  0  0  0
  138.2148   73.4003  221.3689 H   0  0  0  0  0  0  0  0  0  0  0  0
  138.7041   71.6719  221.3689 H   0  0  0  0  0  0  0  0  0  0  0  0
  141.7873   71.6414  222.0608 H   0  0  0  0  0  0  0  0  0  0  0  0
  140.5112   71.5248  220.8020 H   0  0  0  0  0  0  0  0  0  0  0  0
  141.6485   72.9152  220.8020 H   0  0  0  0  0  0  0  0  0  0  0  0
  142.3314   74.6574  221.5694 H   0  0  0  0  0  0  0  0  0  0  0  0
  141.1199   74.1336  220.3016 H   0  0  0  0  0  0  0  0  0  0  0  0
  142.2379   76.6270  220.4108 H   0  0  0  0  0  0  0  0  0  0  0  0
  140.6275   76.2428  219.6921 H   0  0  0  0  0  0  0  0  0  0  0  0
  1  2  1  0
  2  3  1  0
  3  4  2  0
  4  5  1  0
  5  6  2  0
  6  7  1  0
  7  8  2  0
  8  9  1  0
  9 10  1  0
 10 11  1  0
 11 12  1  0
 12 13  1  0
 13 14  1  0
 13 15  1  0
 12 16  1  0
 16 17  1  0
  8  3  1  0
 17  9  1  0
  1 18  1  0
  1 19  1  0
  1 20  1  0
  4 21  1  0
  5 22  1  0
  6 23  1  0
  7 24  1  0
 10 25  1  0
 10 26  1  0
 11 27  1  0
 11 28  1  0
 13 29  1  0
 14 30  1  0
 14 31  1  0
 14 32  1  0
 15 33  1  0
 15 34  1  0
 15 35  1  0
 16 36  1  0
 16 37  1  0
 17 38  1  0
 17 39  1  0
M  END
>  <UniqueID>  (21) 
22

>  <SMILES>  (21) 
COc1ccccc1N1CCN(C(C)C)CC1

>  <Energy>  (21) 
50.05633862230299

>  <Genealogy>  (21) 
COc1ccccc1N1CCN(C(C)C)CC1 (3D coordinates assigned)
COc1ccccc1N1CCN(C(C)C)CC1 (nonaromatic ring conformer: 50.05633862230299 kcal/mol)

>  <smiles>  (21) 
COc1ccccc1N1CCN(C(C)C)CC1

>  <score_type>  (21) 
oracle

>  <origin>  (21) 
autodockgpu

>  <m_score__min__energy>  (21) 
-4.9400000000000004

>  <m_primary>  (21) 
energy

>  <meeko>  (21) 
{"free_energy": -4.83, "intermolecular_energy": -5.72, "internal_energy": -0.71, "cluster_size": 2, "cluster_id": 2, "rank_in_cluster": 1}

>  <energy>  (21) 
-4.94

>  <cluster_rmsd>  (21) 
0.0

>  <rmsd>  (21) 
273.2

>  <cluster>  (21) 
1

$$$$
LUCSOMIVZJTSBJ-UHFFFAOYNA-N
     RDKit          3D

 39 40  0  0  0  0  0  0  0  0999 V2000
  138.6860   74.4750  221.5390 C   0  0  0  0  0  0  0  0  0  0  0  0
  139.9960   74.4270  222.0940 O   0  0  0  0  0  0  0  0  0  0  0  0
  141.1730   74.2560  221.3470 C   0  0  0  0  0  0  0  0  0  0  0  0
  141.7150   72.9790  221.0970 C   0  0  0  0  0  0  0  0  0  0  0  0
  142.9010   72.8430  220.3720 C   0  0  0  0  0  0  0  0  0  0  0  0
  143.5580   73.9740  219.8880 C   0  0  0  0  0  0  0  0  0  0  0  0
  143.0300   75.2450  220.1240 C   0  0  0  0  0  0  0  0  0  0  0  0
  141.8370   75.3960  220.8490 C   0  0  0  0  0  0  0  0  0  0  0  0
  141.2980   76.7130  221.0630 N   0  0  0  0  0  0  0  0  0  0  0  0
  141.4260   77.7440  220.0280 C   0  0  0  0  0  0  0  0  0  0  0  0
  141.3660   79.1440  220.6490 C   0  0  0  0  0  0  0  0  0  0  0  0
  142.1330   79.1550  221.9160 N   0  0  0  0  0  0  0  0  0  0  0  0
  142.3860   80.5410  222.4160 C   0  0  0  0  0  0  0  0  0  0  0  0
  141.0860   81.3770  222.4470 C   0  0  0  0  0  0  0  0  0  0  0  0
  142.9690   80.5290  223.8450 C   0  0  0  0  0  0  0  0  0  0  0  0
  141.4480   78.3150  222.9400 C   0  0  0  0  0  0  0  0  0  0  0  0
  140.7240   77.0830  222.3580 C   0  0  0  0  0  0  0  0  0  0  0  0
  137.9445   74.5022  222.3511 H   0  0  0  0  0  0  0  0  0  0  0  0
  138.5835   75.3775  220.9185 H   0  0  0  0  0  0  0  0  0  0  0  0
  138.5177   73.5824  220.9185 H   0  0  0  0  0  0  0  0  0  0  0  0
  141.2004   72.0835  221.4755 H   0  0  0  0  0  0  0  0  0  0  0  0
  143.3174   71.8426  220.1825 H   0  0  0  0  0  0  0  0  0  0  0  0
  144.4934   73.8647  219.3196 H   0  0  0  0  0  0  0  0  0  0  0  0
  143.5520   76.1336  219.7395 H   0  0  0  0  0  0  0  0  0  0  0  0
  142.3888   77.6192  219.5108 H   0  0  0  0  0  0  0  0  0  0  0  0
  140.5942   77.6364  219.3163 H   0  0  0  0  0  0  0  0  0  0  0  0
  141.8011   79.8740  219.9506 H   0  0  0  0  0  0  0  0  0  0  0  0
  140.3183   79.4106  220.8521 H   0  0  0  0  0  0  0  0  0  0  0  0
  143.1077   80.9907  221.7182 H   0  0  0  0  0  0  0  0  0  0  0  0
  140.7952   81.5640  223.4912 H   0  0  0  0  0  0  0  0  0  0  0  0
  141.2547   82.3363  221.9359 H   0  0  0  0  0  0  0  0  0  0  0  0
  140.2831   80.8255  221.9359 H   0  0  0  0  0  0  0  0  0  0  0  0
  142.1475   80.5459  224.5763 H   0  0  0  0  0  0  0  0  0  0  0  0
  143.5690   79.6183  223.9886 H   0  0  0  0  0  0  0  0  0  0  0  0
  143.6060   81.4142  223.9886 H   0  0  0  0  0  0  0  0  0  0  0  0
  142.2016   77.9650  223.6608 H   0  0  0  0  0  0  0  0  0  0  0  0
  140.6774   78.9465  223.4063 H   0  0  0  0  0  0  0  0  0  0  0  0
  140.8298   76.2386  223.0550 H   0  0  0  0  0  0  0  0  0  0  0  0
  139.6611   77.3293  222.2178 H   0  0  0  0  0  0  0  0  0  0  0  0
  1  2  1  0
  2  3  1  0
  3  4  2  0
  4  5  1  0
  5  6  2  0
  6  7  1  0
  7  8  2  0
  8  9  1  0
  9 10  1  0
 10 11  1  0
 11 12  1  0
 12 13  1  0
 13 14  1  0
 13 15  1  0
 12 16  1  0
 16 17  1  0
  8  3  1  0
 17  9  1  0
  1 18  1  0
  1 19  1  0
  1 20  1  0
  4 21  1  0
  5 22  1  0
  6 23  1  0
  7 24  1  0
 10 25  1  0
 10 26  1  0
 11 27  1  0
 11 28  1  0
 13 29  1  0
 14 30  1  0
 14 31  1  0
 14 32  1  0
 15 33  1  0
 15 34  1  0
 15 35  1  0
 16 36  1  0
 16 37  1  0
 17 38  1  0
 17 39  1  0
M  END
>  <UniqueID>  (22) 
22

>  <SMILES>  (22) 
COc1ccccc1N1CCN(C(C)C)CC1

>  <Energy>  (22) 
50.05633862230299

>  <Genealogy>  (22) 
COc1ccccc1N1CCN(C(C)C)CC1 (3D coordinates assigned)
COc1ccccc1N1CCN(C(C)C)CC1 (nonaromatic ring conformer: 50.05633862230299 kcal/mol)

>  <smiles>  (22) 
COc1ccccc1N1CCN(C(C)C)CC1

>  <score_type>  (22) 
oracle

>  <origin>  (22) 
autodockgpu

>  <m_score__min__energy>  (22) 
-4.9400000000000004

>  <m_primary>  (22) 
energy

>  <meeko>  (22) 
{"free_energy": -4.93, "intermolecular_energy": -5.83, "internal_energy": -0.66, "cluster_size": 18, "cluster_id": 1, "rank_in_cluster": 9}

>  <energy>  (22) 
-4.94

>  <cluster_rmsd>  (22) 
0.04

>  <rmsd>  (22) 
273.2

>  <cluster>  (22) 
1

$$$$
LUCSOMIVZJTSBJ-UHFFFAOYNA-N
     RDKit          3D

 39 40  0  0  0  0  0  0  0  0999 V2000
  138.6670   74.3200  221.5690 C   0  0  0  0  0  0  0  0  0  0  0  0
  139.9820   74.4360  222.1010 O   0  0  0  0  0  0  0  0  0  0  0  0
  141.1610   74.2530  221.3600 C   0  0  0  0  0  0  0  0  0  0  0  0
  141.6970   72.9710  221.1240 C   0  0  0  0  0  0  0  0  0  0  0  0
  142.8860   72.8230  220.4060 C   0  0  0  0  0  0  0  0  0  0  0  0
  143.5510   73.9460  219.9150 C   0  0  0  0  0  0  0  0  0  0  0  0
  143.0290   75.2220  220.1380 C   0  0  0  0  0  0  0  0  0  0  0  0
  141.8330   75.3860  220.8560 C   0  0  0  0  0  0  0  0  0  0  0  0
  141.3000   76.7070  221.0560 N   0  0  0  0  0  0  0  0  0  0  0  0
  141.4530   77.7330  220.0190 C   0  0  0  0  0  0  0  0  0  0  0  0
  141.3930   79.1360  220.6340 C   0  0  0  0  0  0  0  0  0  0  0  0
  142.1390   79.1460  221.9140 N   0  0  0  0  0  0  0  0  0  0  0  0
  142.3930   80.5320  222.4130 C   0  0  0  0  0  0  0  0  0  0  0  0
  141.1000   81.3790  222.4140 C   0  0  0  0  0  0  0  0  0  0  0  0
  142.9480   80.5210  223.8530 C   0  0  0  0  0  0  0  0  0  0  0  0
  141.4310   78.3150  222.9300 C   0  0  0  0  0  0  0  0  0  0  0  0
  140.7080   77.0860  222.3400 C   0  0  0  0  0  0  0  0  0  0  0  0
  137.9421   74.2561  222.3939 H   0  0  0  0  0  0  0  0  0  0  0  0
  138.4424   75.2018  220.9510 H   0  0  0  0  0  0  0  0  0  0  0  0
  138.6002   73.4125  220.9510 H   0  0  0  0  0  0  0  0  0  0  0  0
  141.1758   72.0815  221.5076 H   0  0  0  0  0  0  0  0  0  0  0  0
  143.2984   71.8190  220.2276 H   0  0  0  0  0  0  0  0  0  0  0  0
  144.4880   73.8267  219.3512 H   0  0  0  0  0  0  0  0  0  0  0  0
  143.5580   76.1044  219.7488 H   0  0  0  0  0  0  0  0  0  0  0  0
  142.4233   77.5990  219.5185 H   0  0  0  0  0  0  0  0  0  0  0  0
  140.6326   77.6287  219.2936 H   0  0  0  0  0  0  0  0  0  0  0  0
  141.8452   79.8601  219.9403 H   0  0  0  0  0  0  0  0  0  0  0  0
  140.3441   79.4111  220.8186 H   0  0  0  0  0  0  0  0  0  0  0  0
  143.1318   80.9733  221.7278 H   0  0  0  0  0  0  0  0  0  0  0  0
  140.7939   81.5795  223.4513 H   0  0  0  0  0  0  0  0  0  0  0  0
  141.2852   82.3314  221.8957 H   0  0  0  0  0  0  0  0  0  0  0  0
  140.3009   80.8288  221.8957 H   0  0  0  0  0  0  0  0  0  0  0  0
  142.1124   80.5376  224.5681 H   0  0  0  0  0  0  0  0  0  0  0  0
  143.5458   79.6108  224.0086 H   0  0  0  0  0  0  0  0  0  0  0  0
  143.5814   81.4068  224.0086 H   0  0  0  0  0  0  0  0  0  0  0  0
  142.1699   77.9623  223.6646 H   0  0  0  0  0  0  0  0  0  0  0  0
  140.6576   78.9537  223.3815 H   0  0  0  0  0  0  0  0  0  0  0  0
  140.7963   76.2434  223.0415 H   0  0  0  0  0  0  0  0  0  0  0  0
  139.6495   77.3397  222.1813 H   0  0  0  0  0  0  0  0  0  0  0  0
  1  2  1  0
  2  3  1  0
  3  4  2  0
  4  5  1  0
  5  6  2  0
  6  7  1  0
  7  8  2  0
  8  9  1  0
  9 10  1  0
 10 11  1  0
 11 12  1  0
 12 13  1  0
 13 14  1  0
 13 15  1  0
 12 16  1  0
 16 17  1  0
  8  3  1  0
 17  9  1  0
  1 18  1  0
  1 19  1  0
  1 20  1  0
  4 21  1  0
  5 22  1  0
  6 23  1  0
  7 24  1  0
 10 25  1  0
 10 26  1  0
 11 27  1  0
 11 28  1  0
 13 29  1  0
 14 30  1  0
 14 31  1  0
 14 32  1  0
 15 33  1  0
 15 34  1  0
 15 35  1  0
 16 36  1  0
 16 37  1  0
 17 38  1  0
 17 39  1  0
M  END
>  <UniqueID>  (23) 
22

>  <SMILES>  (23) 
COc1ccccc1N1CCN(C(C)C)CC1

>  <Energy>  (23) 
50.05633862230299

>  <Genealogy>  (23) 
COc1ccccc1N1CCN(C(C)C)CC1 (3D coordinates assigned)
COc1ccccc1N1CCN(C(C)C)CC1 (nonaromatic ring conformer: 50.05633862230299 kcal/mol)

>  <smiles>  (23) 
COc1ccccc1N1CCN(C(C)C)CC1

>  <score_type>  (23) 
oracle

>  <origin>  (23) 
autodockgpu

>  <m_score__min__energy>  (23) 
-4.9400000000000004

>  <m_primary>  (23) 
energy

>  <meeko>  (23) 
{"free_energy": -4.94, "intermolecular_energy": -5.84, "internal_energy": -0.65, "cluster_size": 18, "cluster_id": 1, "rank_in_cluster": 2}

>  <energy>  (23) 
-4.94

>  <cluster_rmsd>  (23) 
0.02

>  <rmsd>  (23) 
273.2

>  <cluster>  (23) 
1

$$$$
LUCSOMIVZJTSBJ-UHFFFAOYNA-N
     RDKit          3D

 39 40  0  0  0  0  0  0  0  0999 V2000
  138.6640   74.3380  221.5410 C   0  0  0  0  0  0  0  0  0  0  0  0
  139.9800   74.4280  222.0790 O   0  0  0  0  0  0  0  0  0  0  0  0
  141.1580   74.2550  221.3360 C   0  0  0  0  0  0  0  0  0  0  0  0
  141.6980   72.9770  221.0880 C   0  0  0  0  0  0  0  0  0  0  0  0
  142.8870   72.8390  220.3670 C   0  0  0  0  0  0  0  0  0  0  0  0
  143.5480   73.9680  219.8860 C   0  0  0  0  0  0  0  0  0  0  0  0
  143.0220   75.2400  220.1200 C   0  0  0  0  0  0  0  0  0  0  0  0
  141.8270   75.3940  220.8410 C   0  0  0  0  0  0  0  0  0  0  0  0
  141.2900   76.7120  221.0530 N   0  0  0  0  0  0  0  0  0  0  0  0
  141.4320   77.7450  220.0220 C   0  0  0  0  0  0  0  0  0  0  0  0
  141.3700   79.1440  220.6460 C   0  0  0  0  0  0  0  0  0  0  0  0
  142.1250   79.1490  221.9210 N   0  0  0  0  0  0  0  0  0  0  0  0
  142.3770   80.5320  222.4270 C   0  0  0  0  0  0  0  0  0  0  0  0
  141.0750   81.3650  222.4690 C   0  0  0  0  0  0  0  0  0  0  0  0
  142.9680   80.5140  223.8530 C   0  0  0  0  0  0  0  0  0  0  0  0
  141.4270   78.3090  222.9360 C   0  0  0  0  0  0  0  0  0  0  0  0
  140.7040   77.0810  222.3430 C   0  0  0  0  0  0  0  0  0  0  0  0
  137.9345   74.2881  222.3628 H   0  0  0  0  0  0  0  0  0  0  0  0
  138.4594   75.2242  220.9224 H   0  0  0  0  0  0  0  0  0  0  0  0
  138.5819   73.4321  220.9224 H   0  0  0  0  0  0  0  0  0  0  0  0
  141.1802   72.0825  221.4644 H   0  0  0  0  0  0  0  0  0  0  0  0
  143.3020   71.8378  220.1787 H   0  0  0  0  0  0  0  0  0  0  0  0
  144.4854   73.8567  219.3213 H   0  0  0  0  0  0  0  0  0  0  0  0
  143.5472   76.1274  219.7370 H   0  0  0  0  0  0  0  0  0  0  0  0
  142.3997   77.6183  219.5145 H   0  0  0  0  0  0  0  0  0  0  0  0
  140.6074   77.6418  219.3014 H   0  0  0  0  0  0  0  0  0  0  0  0
  141.8142   79.8744  219.9538 H   0  0  0  0  0  0  0  0  0  0  0  0
  140.3212   79.4135  220.8394 H   0  0  0  0  0  0  0  0  0  0  0  0
  143.0940   80.9872  221.7279 H   0  0  0  0  0  0  0  0  0  0  0  0
  140.7900   81.5473  223.5157 H   0  0  0  0  0  0  0  0  0  0  0  0
  141.2384   82.3267  221.9606 H   0  0  0  0  0  0  0  0  0  0  0  0
  140.2704   80.8136  221.9606 H   0  0  0  0  0  0  0  0  0  0  0  0
  142.1508   80.5389  224.5889 H   0  0  0  0  0  0  0  0  0  0  0  0
  143.5598   79.5974  223.9931 H   0  0  0  0  0  0  0  0  0  0  0  0
  143.6145   81.3929  223.9931 H   0  0  0  0  0  0  0  0  0  0  0  0
  142.1722   77.9541  223.6632 H   0  0  0  0  0  0  0  0  0  0  0  0
  140.6544   78.9420  223.3968 H   0  0  0  0  0  0  0  0  0  0  0  0
  140.7992   76.2344  223.0388 H   0  0  0  0  0  0  0  0  0  0  0  0
  139.6437   77.3320  222.1924 H   0  0  0  0  0  0  0  0  0  0  0  0
  1  2  1  0
  2  3  1  0
  3  4  2  0
  4  5  1  0
  5  6  2  0
  6  7  1  0
  7  8  2  0
  8  9  1  0
  9 10  1  0
 10 11  1  0
 11 12  1  0
 12 13  1  0
 13 14  1  0
 13 15  1  0
 12 16  1  0
 16 17  1  0
  8  3  1  0
 17  9  1  0
  1 18  1  0
  1 19  1  0
  1 20  1  0
  4 21  1  0
  5 22  1  0
  6 23  1  0
  7 24  1  0
 10 25  1  0
 10 26  1  0
 11 27  1  0
 11 28  1  0
 13 29  1  0
 14 30  1  0
 14 31  1  0
 14 32  1  0
 15 33  1  0
 15 34  1  0
 15 35  1  0
 16 36  1  0
 16 37  1  0
 17 38  1  0
 17 39  1  0
M  END
>  <UniqueID>  (24) 
22

>  <SMILES>  (24) 
COc1ccccc1N1CCN(C(C)C)CC1

>  <Energy>  (24) 
50.05633862230299

>  <Genealogy>  (24) 
COc1ccccc1N1CCN(C(C)C)CC1 (3D coordinates assigned)
COc1ccccc1N1CCN(C(C)C)CC1 (nonaromatic ring conformer: 50.05633862230299 kcal/mol)

>  <smiles>  (24) 
COc1ccccc1N1CCN(C(C)C)CC1

>  <score_type>  (24) 
oracle

>  <origin>  (24) 
autodockgpu

>  <m_score__min__energy>  (24) 
-4.9400000000000004

>  <m_primary>  (24) 
energy

>  <meeko>  (24) 
{"free_energy": -4.94, "intermolecular_energy": -5.83, "internal_energy": -0.65, "cluster_size": 18, "cluster_id": 1, "rank_in_cluster": 7}

>  <energy>  (24) 
-4.94

>  <cluster_rmsd>  (24) 
0.02

>  <rmsd>  (24) 
273.2

>  <cluster>  (24) 
1

$$$$
LUCSOMIVZJTSBJ-UHFFFAOYNA-N
     RDKit          3D

 39 40  0  0  0  0  0  0  0  0999 V2000
  139.1840   73.3690  221.8780 C   0  0  0  0  0  0  0  0  0  0  0  0
  140.2460   74.3140  221.9680 O   0  0  0  0  0  0  0  0  0  0  0  0
  141.4370   74.2480  221.2280 C   0  0  0  0  0  0  0  0  0  0  0  0
  142.0670   73.0190  220.9440 C   0  0  0  0  0  0  0  0  0  0  0  0
  143.2650   72.9880  220.2270 C   0  0  0  0  0  0  0  0  0  0  0  0
  143.8470   74.1760  219.7840 C   0  0  0  0  0  0  0  0  0  0  0  0
  143.2310   75.4000  220.0540 C   0  0  0  0  0  0  0  0  0  0  0  0
  142.0250   75.4460  220.7720 C   0  0  0  0  0  0  0  0  0  0  0  0
  141.3950   76.7160  221.0210 N   0  0  0  0  0  0  0  0  0  0  0  0
  141.4610   77.7850  220.0190 C   0  0  0  0  0  0  0  0  0  0  0  0
  141.2990   79.1580  220.6820 C   0  0  0  0  0  0  0  0  0  0  0  0
  142.0530   79.1810  221.9570 N   0  0  0  0  0  0  0  0  0  0  0  0
  142.2060   80.5640  222.5030 C   0  0  0  0  0  0  0  0  0  0  0  0
  140.8330   81.2390  222.7250 C   0  0  0  0  0  0  0  0  0  0  0  0
  142.9510   80.5600  223.8550 C   0  0  0  0  0  0  0  0  0  0  0  0
  141.4190   78.2640  222.9480 C   0  0  0  0  0  0  0  0  0  0  0  0
  140.7860   77.0050  222.3200 C   0  0  0  0  0  0  0  0  0  0  0  0
  138.8617   73.0822  222.8899 H   0  0  0  0  0  0  0  0  0  0  0  0
  138.3381   73.8185  221.3373 H   0  0  0  0  0  0  0  0  0  0  0  0
  139.5322   72.4766  221.3373 H   0  0  0  0  0  0  0  0  0  0  0  0
  141.6121   72.0789  221.2893 H   0  0  0  0  0  0  0  0  0  0  0  0
  143.7507   72.0249  220.0111 H   0  0  0  0  0  0  0  0  0  0  0  0
  144.7919   74.1486  219.2215 H   0  0  0  0  0  0  0  0  0  0  0  0
  143.6934   76.3340  219.7020 H   0  0  0  0  0  0  0  0  0  0  0  0
  142.4347   77.7426  219.5090 H   0  0  0  0  0  0  0  0  0  0  0  0
  140.6452   77.6428  219.2949 H   0  0  0  0  0  0  0  0  0  0  0  0
  141.6887   79.9377  220.0111 H   0  0  0  0  0  0  0  0  0  0  0  0
  140.2338   79.3461  220.8817 H   0  0  0  0  0  0  0  0  0  0  0  0
  142.7862   81.1252  221.7557 H   0  0  0  0  0  0  0  0  0  0  0  0
  140.6410   81.3334  223.8040 H   0  0  0  0  0  0  0  0  0  0  0  0
  140.8368   82.2380  222.2645 H   0  0  0  0  0  0  0  0  0  0  0  0
  140.0443   80.6259  222.2645 H   0  0  0  0  0  0  0  0  0  0  0  0
  142.2197   80.5639  224.6767 H   0  0  0  0  0  0  0  0  0  0  0  0
  143.5773   79.6585  223.9259 H   0  0  0  0  0  0  0  0  0  0  0  0
  143.5869   81.4547  223.9259 H   0  0  0  0  0  0  0  0  0  0  0  0
  142.1891   77.9434  223.6651 H   0  0  0  0  0  0  0  0  0  0  0  0
  140.6036   78.8261  223.4266 H   0  0  0  0  0  0  0  0  0  0  0  0
  140.9429   76.1480  222.9916 H   0  0  0  0  0  0  0  0  0  0  0  0
  139.7101   77.1831  222.1757 H   0  0  0  0  0  0  0  0  0  0  0  0
  1  2  1  0
  2  3  1  0
  3  4  2  0
  4  5  1  0
  5  6  2  0
  6  7  1  0
  7  8  2  0
  8  9  1  0
  9 10  1  0
 10 11  1  0
 11 12  1  0
 12 13  1  0
 13 14  1  0
 13 15  1  0
 12 16  1  0
 16 17  1  0
  8  3  1  0
 17  9  1  0
  1 18  1  0
  1 19  1  0
  1 20  1  0
  4 21  1  0
  5 22  1  0
  6 23  1  0
  7 24  1  0
 10 25  1  0
 10 26  1  0
 11 27  1  0
 11 28  1  0
 13 29  1  0
 14 30  1  0
 14 31  1  0
 14 32  1  0
 15 33  1  0
 15 34  1  0
 15 35  1  0
 16 36  1  0
 16 37  1  0
 17 38  1  0
 17 39  1  0
M  END
>  <UniqueID>  (25) 
22

>  <SMILES>  (25) 
COc1ccccc1N1CCN(C(C)C)CC1

>  <Energy>  (25) 
50.05633862230299

>  <Genealogy>  (25) 
COc1ccccc1N1CCN(C(C)C)CC1 (3D coordinates assigned)
COc1ccccc1N1CCN(C(C)C)CC1 (nonaromatic ring conformer: 50.05633862230299 kcal/mol)

>  <smiles>  (25) 
COc1ccccc1N1CCN(C(C)C)CC1

>  <score_type>  (25) 
oracle

>  <origin>  (25) 
autodockgpu

>  <m_score__min__energy>  (25) 
-4.9400000000000004

>  <m_primary>  (25) 
energy

>  <meeko>  (25) 
{"free_energy": -4.93, "intermolecular_energy": -5.82, "internal_energy": -0.63, "cluster_size": 18, "cluster_id": 1, "rank_in_cluster": 13}

>  <energy>  (25) 
-4.94

>  <cluster_rmsd>  (25) 
0.03

>  <rmsd>  (25) 
273.21

>  <cluster>  (25) 
1

$$$$
LUCSOMIVZJTSBJ-UHFFFAOYNA-N
     RDKit          3D

 39 40  0  0  0  0  0  0  0  0999 V2000
  138.7250   74.4300  221.4320 C   0  0  0  0  0  0  0  0  0  0  0  0
  140.0270   74.3650  222.0050 O   0  0  0  0  0  0  0  0  0  0  0  0
  141.2170   74.2440  221.2690 C   0  0  0  0  0  0  0  0  0  0  0  0
  141.7930   72.9880  220.9910 C   0  0  0  0  0  0  0  0  0  0  0  0
  142.9910   72.9010  220.2780 C   0  0  0  0  0  0  0  0  0  0  0  0
  143.6260   74.0610  219.8350 C   0  0  0  0  0  0  0  0  0  0  0  0
  143.0640   75.3110  220.0990 C   0  0  0  0  0  0  0  0  0  0  0  0
  141.8590   75.4130  220.8120 C   0  0  0  0  0  0  0  0  0  0  0  0
  141.2850   76.7110  221.0550 N   0  0  0  0  0  0  0  0  0  0  0  0
  141.3830   77.7660  220.0420 C   0  0  0  0  0  0  0  0  0  0  0  0
  141.2870   79.1510  220.6930 C   0  0  0  0  0  0  0  0  0  0  0  0
  142.0560   79.1550  221.9590 N   0  0  0  0  0  0  0  0  0  0  0  0
  142.2730   80.5360  222.4880 C   0  0  0  0  0  0  0  0  0  0  0  0
  140.9380   81.3020  222.6320 C   0  0  0  0  0  0  0  0  0  0  0  0
  142.9500   80.5100  223.8750 C   0  0  0  0  0  0  0  0  0  0  0  0
  141.3970   78.2750  222.9660 C   0  0  0  0  0  0  0  0  0  0  0  0
  140.7050   77.0370  222.3580 C   0  0  0  0  0  0  0  0  0  0  0  0
  137.9730   74.4675  222.2339 H   0  0  0  0  0  0  0  0  0  0  0  0
  138.6429   75.3334  220.8098 H   0  0  0  0  0  0  0  0  0  0  0  0
  138.5534   73.5393  220.8098 H   0  0  0  0  0  0  0  0  0  0  0  0
  141.2958   72.0701  221.3378 H   0  0  0  0  0  0  0  0  0  0  0  0
  143.4339   71.9168  220.0657 H   0  0  0  0  0  0  0  0  0  0  0  0
  144.5712   73.9907  219.2767 H   0  0  0  0  0  0  0  0  0  0  0  0
  143.5687   76.2224  219.7460 H   0  0  0  0  0  0  0  0  0  0  0  0
  142.3476   77.6779  219.5206 H   0  0  0  0  0  0  0  0  0  0  0  0
  140.5529   77.6512  219.3294 H   0  0  0  0  0  0  0  0  0  0  0  0
  141.7013   79.9070  220.0097 H   0  0  0  0  0  0  0  0  0  0  0  0
  140.2330   79.3856  220.9030 H   0  0  0  0  0  0  0  0  0  0  0  0
  142.9233   81.0439  221.7606 H   0  0  0  0  0  0  0  0  0  0  0  0
  140.7051   81.4356  223.6987 H   0  0  0  0  0  0  0  0  0  0  0  0
  141.0264   82.2867  222.1499 H   0  0  0  0  0  0  0  0  0  0  0  0
  140.1325   80.7287  222.1499 H   0  0  0  0  0  0  0  0  0  0  0  0
  142.1796   80.5396  224.6596 H   0  0  0  0  0  0  0  0  0  0  0  0
  143.5419   79.5885  223.9769 H   0  0  0  0  0  0  0  0  0  0  0  0
  143.6109   81.3834  223.9769 H   0  0  0  0  0  0  0  0  0  0  0  0
  142.1617   77.9297  223.6773 H   0  0  0  0  0  0  0  0  0  0  0  0
  140.6112   78.8749  223.4483 H   0  0  0  0  0  0  0  0  0  0  0  0
  140.8351   76.1807  223.0361 H   0  0  0  0  0  0  0  0  0  0  0  0
  139.6357   77.2580  222.2250 H   0  0  0  0  0  0  0  0  0  0  0  0
  1  2  1  0
  2  3  1  0
  3  4  2  0
  4  5  1  0
  5  6  2  0
  6  7  1  0
  7  8  2  0
  8  9  1  0
  9 10  1  0
 10 11  1  0
 11 12  1  0
 12 13  1  0
 13 14  1  0
 13 15  1  0
 12 16  1  0
 16 17  1  0
  8  3  1  0
 17  9  1  0
  1 18  1  0
  1 19  1  0
  1 20  1  0
  4 21  1  0
  5 22  1  0
  6 23  1  0
  7 24  1  0
 10 25  1  0
 10 26  1  0
 11 27  1  0
 11 28  1  0
 13 29  1  0
 14 30  1  0
 14 31  1  0
 14 32  1  0
 15 33  1  0
 15 34  1  0
 15 35  1  0
 16 36  1  0
 16 37  1  0
 17 38  1  0
 17 39  1  0
M  END
>  <UniqueID>  (26) 
22

>  <SMILES>  (26) 
COc1ccccc1N1CCN(C(C)C)CC1

>  <Energy>  (26) 
50.05633862230299

>  <Genealogy>  (26) 
COc1ccccc1N1CCN(C(C)C)CC1 (3D coordinates assigned)
COc1ccccc1N1CCN(C(C)C)CC1 (nonaromatic ring conformer: 50.05633862230299 kcal/mol)

>  <smiles>  (26) 
COc1ccccc1N1CCN(C(C)C)CC1

>  <score_type>  (26) 
oracle

>  <origin>  (26) 
autodockgpu

>  <m_score__min__energy>  (26) 
-4.9400000000000004

>  <m_primary>  (26) 
energy

>  <meeko>  (26) 
{"free_energy": -4.92, "intermolecular_energy": -5.82, "internal_energy": -0.66, "cluster_size": 18, "cluster_id": 1, "rank_in_cluster": 15}

>  <energy>  (26) 
-4.94

>  <cluster_rmsd>  (26) 
0.02

>  <rmsd>  (26) 
273.2

>  <cluster>  (26) 
1

$$$$
LUCSOMIVZJTSBJ-UHFFFAOYNA-N
     RDKit          3D

 39 40  0  0  0  0  0  0  0  0999 V2000
  138.6730   74.4700  221.5130 C   0  0  0  0  0  0  0  0  0  0  0  0
  139.9810   74.4230  222.0740 O   0  0  0  0  0  0  0  0  0  0  0  0
  141.1610   74.2610  221.3320 C   0  0  0  0  0  0  0  0  0  0  0  0
  141.7090   72.9880  221.0770 C   0  0  0  0  0  0  0  0  0  0  0  0
  142.9000   72.8610  220.3570 C   0  0  0  0  0  0  0  0  0  0  0  0
  143.5550   73.9970  219.8830 C   0  0  0  0  0  0  0  0  0  0  0  0
  143.0210   75.2650  220.1240 C   0  0  0  0  0  0  0  0  0  0  0  0
  141.8230   75.4070  220.8440 C   0  0  0  0  0  0  0  0  0  0  0  0
  141.2780   76.7210  221.0630 N   0  0  0  0  0  0  0  0  0  0  0  0
  141.4080   77.7580  220.0350 C   0  0  0  0  0  0  0  0  0  0  0  0
  141.3400   79.1540  220.6640 C   0  0  0  0  0  0  0  0  0  0  0  0
  142.1000   79.1600  221.9360 N   0  0  0  0  0  0  0  0  0  0  0  0
  142.3440   80.5440  222.4460 C   0  0  0  0  0  0  0  0  0  0  0  0
  141.0370   81.3680  222.4940 C   0  0  0  0  0  0  0  0  0  0  0  0
  142.9380   80.5240  223.8700 C   0  0  0  0  0  0  0  0  0  0  0  0
  141.4120   78.3110  222.9510 C   0  0  0  0  0  0  0  0  0  0  0  0
  140.6960   77.0810  222.3570 C   0  0  0  0  0  0  0  0  0  0  0  0
  137.9279   74.4968  222.3218 H   0  0  0  0  0  0  0  0  0  0  0  0
  138.5726   75.3723  220.8919 H   0  0  0  0  0  0  0  0  0  0  0  0
  138.5081   73.5772  220.8919 H   0  0  0  0  0  0  0  0  0  0  0  0
  141.1958   72.0882  221.4472 H   0  0  0  0  0  0  0  0  0  0  0  0
  143.3213   71.8634  220.1639 H   0  0  0  0  0  0  0  0  0  0  0  0
  144.4935   73.8945  219.3185 H   0  0  0  0  0  0  0  0  0  0  0  0
  143.5417   76.1579  219.7477 H   0  0  0  0  0  0  0  0  0  0  0  0
  142.3739   77.6394  219.5222 H   0  0  0  0  0  0  0  0  0  0  0  0
  140.5805   77.6518  219.3181 H   0  0  0  0  0  0  0  0  0  0  0  0
  141.7767   79.8895  219.9724 H   0  0  0  0  0  0  0  0  0  0  0  0
  140.2903   79.4160  220.8627 H   0  0  0  0  0  0  0  0  0  0  0  0
  143.0558   81.0069  221.7467 H   0  0  0  0  0  0  0  0  0  0  0  0
  140.7542   81.5463  223.5420 H   0  0  0  0  0  0  0  0  0  0  0  0
  141.1924   82.3318  221.9871 H   0  0  0  0  0  0  0  0  0  0  0  0
  140.2344   80.8123  221.9871 H   0  0  0  0  0  0  0  0  0  0  0  0
  142.1226   80.5515  224.6078 H   0  0  0  0  0  0  0  0  0  0  0  0
  143.5272   79.6055  224.0086 H   0  0  0  0  0  0  0  0  0  0  0  0
  143.5876   81.4008  224.0086 H   0  0  0  0  0  0  0  0  0  0  0  0
  142.1627   77.9589  223.6738 H   0  0  0  0  0  0  0  0  0  0  0  0
  140.6367   78.9368  223.4172 H   0  0  0  0  0  0  0  0  0  0  0  0
  140.8008   76.2325  223.0491 H   0  0  0  0  0  0  0  0  0  0  0  0
  139.6332   77.3250  222.2122 H   0  0  0  0  0  0  0  0  0  0  0  0
  1  2  1  0
  2  3  1  0
  3  4  2  0
  4  5  1  0
  5  6  2  0
  6  7  1  0
  7  8  2  0
  8  9  1  0
  9 10  1  0
 10 11  1  0
 11 12  1  0
 12 13  1  0
 13 14  1  0
 13 15  1  0
 12 16  1  0
 16 17  1  0
  8  3  1  0
 17  9  1  0
  1 18  1  0
  1 19  1  0
  1 20  1  0
  4 21  1  0
  5 22  1  0
  6 23  1  0
  7 24  1  0
 10 25  1  0
 10 26  1  0
 11 27  1  0
 11 28  1  0
 13 29  1  0
 14 30  1  0
 14 31  1  0
 14 32  1  0
 15 33  1  0
 15 34  1  0
 15 35  1  0
 16 36  1  0
 16 37  1  0
 17 38  1  0
 17 39  1  0
M  END
>  <UniqueID>  (27) 
22

>  <SMILES>  (27) 
COc1ccccc1N1CCN(C(C)C)CC1

>  <Energy>  (27) 
50.05633862230299

>  <Genealogy>  (27) 
COc1ccccc1N1CCN(C(C)C)CC1 (3D coordinates assigned)
COc1ccccc1N1CCN(C(C)C)CC1 (nonaromatic ring conformer: 50.05633862230299 kcal/mol)

>  <smiles>  (27) 
COc1ccccc1N1CCN(C(C)C)CC1

>  <score_type>  (27) 
oracle

>  <origin>  (27) 
autodockgpu

>  <m_score__min__energy>  (27) 
-4.9400000000000004

>  <m_primary>  (27) 
energy

>  <meeko>  (27) 
{"free_energy": -4.93, "intermolecular_energy": -5.83, "internal_energy": -0.66, "cluster_size": 18, "cluster_id": 1, "rank_in_cluster": 10}

>  <energy>  (27) 
-4.94

>  <cluster_rmsd>  (27) 
0.03

>  <rmsd>  (27) 
273.2

>  <cluster>  (27) 
1

$$$$
LUCSOMIVZJTSBJ-UHFFFAOYNA-N
     RDKit          3D

 39 40  0  0  0  0  0  0  0  0999 V2000
  142.1730   79.6130  218.8110 C   0  0  0  0  0  0  0  0  0  0  0  0
  141.2860   79.2370  219.8600 O   0  0  0  0  0  0  0  0  0  0  0  0
  141.5740   79.3580  221.2290 C   0  0  0  0  0  0  0  0  0  0  0  0
  142.2060   80.5020  221.7560 C   0  0  0  0  0  0  0  0  0  0  0  0
  142.5030   80.5810  223.1190 C   0  0  0  0  0  0  0  0  0  0  0  0
  142.1730   79.5250  223.9690 C   0  0  0  0  0  0  0  0  0  0  0  0
  141.5430   78.3880  223.4600 C   0  0  0  0  0  0  0  0  0  0  0  0
  141.2360   78.2960  222.0930 C   0  0  0  0  0  0  0  0  0  0  0  0
  140.5670   77.1240  221.5930 N   0  0  0  0  0  0  0  0  0  0  0  0
  139.2740   76.7140  222.1500 C   0  0  0  0  0  0  0  0  0  0  0  0
  139.0520   75.2100  221.9520 C   0  0  0  0  0  0  0  0  0  0  0  0
  140.3200   74.4870  222.2030 N   0  0  0  0  0  0  0  0  0  0  0  0
  140.1180   73.0130  222.3380 C   0  0  0  0  0  0  0  0  0  0  0  0
  138.6790   72.6020  221.9480 C   0  0  0  0  0  0  0  0  0  0  0  0
  141.0910   72.2230  221.4380 C   0  0  0  0  0  0  0  0  0  0  0  0
  141.3180   74.8120  221.1430 C   0  0  0  0  0  0  0  0  0  0  0  0
  141.2160   76.2570  220.6100 C   0  0  0  0  0  0  0  0  0  0  0  0
  143.1046   80.0079  219.2425 H   0  0  0  0  0  0  0  0  0  0  0  0
  142.4003   78.7338  218.1902 H   0  0  0  0  0  0  0  0  0  0  0  0
  141.6992   80.3877  218.1902 H   0  0  0  0  0  0  0  0  0  0  0  0
  142.4671   81.3378  221.0903 H   0  0  0  0  0  0  0  0  0  0  0  0
  142.9976   81.4769  223.5224 H   0  0  0  0  0  0  0  0  0  0  0  0
  142.4095   79.5884  225.0414 H   0  0  0  0  0  0  0  0  0  0  0  0
  141.2853   77.5583  224.1347 H   0  0  0  0  0  0  0  0  0  0  0  0
  139.2549   76.9434  223.2256 H   0  0  0  0  0  0  0  0  0  0  0  0
  138.4746   77.2614  221.6292 H   0  0  0  0  0  0  0  0  0  0  0  0
  138.2832   74.8571  222.6551 H   0  0  0  0  0  0  0  0  0  0  0  0
  138.7198   75.0208  220.9206 H   0  0  0  0  0  0  0  0  0  0  0  0
  140.3060   72.7744  223.3952 H   0  0  0  0  0  0  0  0  0  0  0  0
  138.0864   72.4327  222.8591 H   0  0  0  0  0  0  0  0  0  0  0  0
  138.2169   73.4041  221.3537 H   0  0  0  0  0  0  0  0  0  0  0  0
  138.7102   71.6769  221.3537 H   0  0  0  0  0  0  0  0  0  0  0  0
  141.7918   71.6540  222.0665 H   0  0  0  0  0  0  0  0  0  0  0  0
  140.5213   71.5287  220.8029 H   0  0  0  0  0  0  0  0  0  0  0  0
  141.6535   72.9232  220.8029 H   0  0  0  0  0  0  0  0  0  0  0  0
  142.3256   74.6668  221.5597 H   0  0  0  0  0  0  0  0  0  0  0  0
  141.1117   74.1433  220.2943 H   0  0  0  0  0  0  0  0  0  0  0  0
  142.2269   76.6382  220.4034 H   0  0  0  0  0  0  0  0  0  0  0  0
  140.6149   76.2534  219.6888 H   0  0  0  0  0  0  0  0  0  0  0  0
  1  2  1  0
  2  3  1  0
  3  4  2  0
  4  5  1  0
  5  6  2  0
  6  7  1  0
  7  8  2  0
  8  9  1  0
  9 10  1  0
 10 11  1  0
 11 12  1  0
 12 13  1  0
 13 14  1  0
 13 15  1  0
 12 16  1  0
 16 17  1  0
  8  3  1  0
 17  9  1  0
  1 18  1  0
  1 19  1  0
  1 20  1  0
  4 21  1  0
  5 22  1  0
  6 23  1  0
  7 24  1  0
 10 25  1  0
 10 26  1  0
 11 27  1  0
 11 28  1  0
 13 29  1  0
 14 30  1  0
 14 31  1  0
 14 32  1  0
 15 33  1  0
 15 34  1  0
 15 35  1  0
 16 36  1  0
 16 37  1  0
 17 38  1  0
 17 39  1  0
M  END
>  <UniqueID>  (28) 
22

>  <SMILES>  (28) 
COc1ccccc1N1CCN(C(C)C)CC1

>  <Energy>  (28) 
50.05633862230299

>  <Genealogy>  (28) 
COc1ccccc1N1CCN(C(C)C)CC1 (3D coordinates assigned)
COc1ccccc1N1CCN(C(C)C)CC1 (nonaromatic ring conformer: 50.05633862230299 kcal/mol)

>  <smiles>  (28) 
COc1ccccc1N1CCN(C(C)C)CC1

>  <score_type>  (28) 
oracle

>  <origin>  (28) 
autodockgpu

>  <m_score__min__energy>  (28) 
-4.9400000000000004

>  <m_primary>  (28) 
energy

>  <meeko>  (28) 
{"free_energy": -4.83, "intermolecular_energy": -5.72, "internal_energy": -0.71, "cluster_size": 2, "cluster_id": 2, "rank_in_cluster": 2}

>  <energy>  (28) 
-4.94

>  <cluster_rmsd>  (28) 
0.02

>  <rmsd>  (28) 
273.2

>  <cluster>  (28) 
1

$$$$
LUCSOMIVZJTSBJ-UHFFFAOYNA-N
     RDKit          3D

 39 40  0  0  0  0  0  0  0  0999 V2000
  138.7960   73.9960  221.5490 C   0  0  0  0  0  0  0  0  0  0  0  0
  140.0880   74.3490  222.0330 O   0  0  0  0  0  0  0  0  0  0  0  0
  141.2740   74.2440  221.2890 C   0  0  0  0  0  0  0  0  0  0  0  0
  141.8690   72.9960  221.0140 C   0  0  0  0  0  0  0  0  0  0  0  0
  143.0640   72.9260  220.2930 C   0  0  0  0  0  0  0  0  0  0  0  0
  143.6760   74.0930  219.8400 C   0  0  0  0  0  0  0  0  0  0  0  0
  143.0960   75.3360  220.1010 C   0  0  0  0  0  0  0  0  0  0  0  0
  141.8930   75.4210  220.8220 C   0  0  0  0  0  0  0  0  0  0  0  0
  141.3000   76.7100  221.0630 N   0  0  0  0  0  0  0  0  0  0  0  0
  141.4010   77.7720  220.0560 C   0  0  0  0  0  0  0  0  0  0  0  0
  141.2770   79.1520  220.7120 C   0  0  0  0  0  0  0  0  0  0  0  0
  142.0270   79.1590  221.9900 N   0  0  0  0  0  0  0  0  0  0  0  0
  142.2170   80.5400  222.5300 C   0  0  0  0  0  0  0  0  0  0  0  0
  140.8630   81.2480  222.7630 C   0  0  0  0  0  0  0  0  0  0  0  0
  142.9740   80.5220  223.8750 C   0  0  0  0  0  0  0  0  0  0  0  0
  141.3620   78.2660  222.9830 C   0  0  0  0  0  0  0  0  0  0  0  0
  140.6950   77.0230  222.3580 C   0  0  0  0  0  0  0  0  0  0  0  0
  138.1234   73.8122  222.3997 H   0  0  0  0  0  0  0  0  0  0  0  0
  138.3966   74.8180  220.9367 H   0  0  0  0  0  0  0  0  0  0  0  0
  138.8701   73.0852  220.9367 H   0  0  0  0  0  0  0  0  0  0  0  0
  141.3898   72.0717  221.3691 H   0  0  0  0  0  0  0  0  0  0  0  0
  143.5222   71.9483  220.0828 H   0  0  0  0  0  0  0  0  0  0  0  0
  144.6183   74.0349  219.2754 H   0  0  0  0  0  0  0  0  0  0  0  0
  143.5835   76.2537  219.7402 H   0  0  0  0  0  0  0  0  0  0  0  0
  142.3749   77.6987  219.5498 H   0  0  0  0  0  0  0  0  0  0  0  0
  140.5841   77.6503  219.3295 H   0  0  0  0  0  0  0  0  0  0  0  0
  141.6918   79.9168  220.0390 H   0  0  0  0  0  0  0  0  0  0  0  0
  140.2170   79.3721  220.9070 H   0  0  0  0  0  0  0  0  0  0  0  0
  142.8026   81.0852  221.7751 H   0  0  0  0  0  0  0  0  0  0  0  0
  140.6803   81.3435  223.8435 H   0  0  0  0  0  0  0  0  0  0  0  0
  140.8887   82.2481  222.3057 H   0  0  0  0  0  0  0  0  0  0  0  0
  140.0563   80.6563  222.3057 H   0  0  0  0  0  0  0  0  0  0  0  0
  142.2504   80.5392  224.7033 H   0  0  0  0  0  0  0  0  0  0  0  0
  143.5842   79.6091  223.9401 H   0  0  0  0  0  0  0  0  0  0  0  0
  143.6269   81.4049  223.9401 H   0  0  0  0  0  0  0  0  0  0  0  0
  142.1192   77.9265  223.7051 H   0  0  0  0  0  0  0  0  0  0  0  0
  140.5615   78.8542  223.4555 H   0  0  0  0  0  0  0  0  0  0  0  0
  140.8242   76.1650  223.0342 H   0  0  0  0  0  0  0  0  0  0  0  0
  139.6255   77.2321  222.2084 H   0  0  0  0  0  0  0  0  0  0  0  0
  1  2  1  0
  2  3  1  0
  3  4  2  0
  4  5  1  0
  5  6  2  0
  6  7  1  0
  7  8  2  0
  8  9  1  0
  9 10  1  0
 10 11  1  0
 11 12  1  0
 12 13  1  0
 13 14  1  0
 13 15  1  0
 12 16  1  0
 16 17  1  0
  8  3  1  0
 17  9  1  0
  1 18  1  0
  1 19  1  0
  1 20  1  0
  4 21  1  0
  5 22  1  0
  6 23  1  0
  7 24  1  0
 10 25  1  0
 10 26  1  0
 11 27  1  0
 11 28  1  0
 13 29  1  0
 14 30  1  0
 14 31  1  0
 14 32  1  0
 15 33  1  0
 15 34  1  0
 15 35  1  0
 16 36  1  0
 16 37  1  0
 17 38  1  0
 17 39  1  0
M  END
>  <UniqueID>  (29) 
22

>  <SMILES>  (29) 
COc1ccccc1N1CCN(C(C)C)CC1

>  <Energy>  (29) 
50.05633862230299

>  <Genealogy>  (29) 
COc1ccccc1N1CCN(C(C)C)CC1 (3D coordinates assigned)
COc1ccccc1N1CCN(C(C)C)CC1 (nonaromatic ring conformer: 50.05633862230299 kcal/mol)

>  <smiles>  (29) 
COc1ccccc1N1CCN(C(C)C)CC1

>  <score_type>  (29) 
oracle

>  <origin>  (29) 
autodockgpu

>  <m_score__min__energy>  (29) 
-4.9400000000000004

>  <m_primary>  (29) 
energy

>  <meeko>  (29) 
{"free_energy": -4.93, "intermolecular_energy": -5.83, "internal_energy": -0.64, "cluster_size": 18, "cluster_id": 1, "rank_in_cluster": 11}

>  <energy>  (29) 
-4.93

>  <cluster_rmsd>  (29) 
0.02

>  <rmsd>  (29) 
273.21

>  <cluster>  (29) 
1

$$$$
LUCSOMIVZJTSBJ-UHFFFAOYNA-N
     RDKit          3D

 39 40  0  0  0  0  0  0  0  0999 V2000
  138.6840   74.4790  221.4700 C   0  0  0  0  0  0  0  0  0  0  0  0
  139.9830   74.3940  222.0480 O   0  0  0  0  0  0  0  0  0  0  0  0
  141.1720   74.2360  221.3180 C   0  0  0  0  0  0  0  0  0  0  0  0
  141.7220   72.9630  221.0610 C   0  0  0  0  0  0  0  0  0  0  0  0
  142.9200   72.8400  220.3530 C   0  0  0  0  0  0  0  0  0  0  0  0
  143.5810   73.9790  219.8940 C   0  0  0  0  0  0  0  0  0  0  0  0
  143.0450   75.2450  220.1370 C   0  0  0  0  0  0  0  0  0  0  0  0
  141.8400   75.3840  220.8450 C   0  0  0  0  0  0  0  0  0  0  0  0
  141.2940   76.6970  221.0670 N   0  0  0  0  0  0  0  0  0  0  0  0
  141.4080   77.7310  220.0330 C   0  0  0  0  0  0  0  0  0  0  0  0
  141.3430   79.1290  220.6590 C   0  0  0  0  0  0  0  0  0  0  0  0
  142.1180   79.1420  221.9210 N   0  0  0  0  0  0  0  0  0  0  0  0
  142.3650   80.5270  222.4240 C   0  0  0  0  0  0  0  0  0  0  0  0
  141.0620   81.3590  222.4500 C   0  0  0  0  0  0  0  0  0  0  0  0
  142.9430   80.5160  223.8540 C   0  0  0  0  0  0  0  0  0  0  0  0
  141.4460   78.2940  222.9470 C   0  0  0  0  0  0  0  0  0  0  0  0
  140.7260   77.0590  222.3660 C   0  0  0  0  0  0  0  0  0  0  0  0
  137.9296   74.5284  222.2691 H   0  0  0  0  0  0  0  0  0  0  0  0
  138.6182   75.3834  220.8473 H   0  0  0  0  0  0  0  0  0  0  0  0
  138.5009   73.5909  220.8473 H   0  0  0  0  0  0  0  0  0  0  0  0
  141.2044   72.0613  221.4203 H   0  0  0  0  0  0  0  0  0  0  0  0
  143.3425   71.8434  220.1573 H   0  0  0  0  0  0  0  0  0  0  0  0
  144.5260   73.8798  219.3397 H   0  0  0  0  0  0  0  0  0  0  0  0
  143.5701   76.1398  219.7714 H   0  0  0  0  0  0  0  0  0  0  0  0
  142.3679   77.6138  219.5088 H   0  0  0  0  0  0  0  0  0  0  0  0
  140.5726   77.6196  219.3262 H   0  0  0  0  0  0  0  0  0  0  0  0
  141.7687   79.8638  219.9598 H   0  0  0  0  0  0  0  0  0  0  0  0
  140.2949   79.3876  220.8700 H   0  0  0  0  0  0  0  0  0  0  0  0
  143.0887   80.9795  221.7301 H   0  0  0  0  0  0  0  0  0  0  0  0
  140.7677   81.5469  223.4931 H   0  0  0  0  0  0  0  0  0  0  0  0
  141.2290   82.3180  221.9377 H   0  0  0  0  0  0  0  0  0  0  0  0
  140.2623   80.8040  221.9377 H   0  0  0  0  0  0  0  0  0  0  0  0
  142.1191   80.5317  224.5826 H   0  0  0  0  0  0  0  0  0  0  0  0
  143.5440   79.6063  223.9996 H   0  0  0  0  0  0  0  0  0  0  0  0
  143.5781   81.4022  223.9996 H   0  0  0  0  0  0  0  0  0  0  0  0
  142.2071   77.9466  223.6612 H   0  0  0  0  0  0  0  0  0  0  0  0
  140.6746   78.9187  223.4210 H   0  0  0  0  0  0  0  0  0  0  0  0
  140.8416   76.2132  223.0597 H   0  0  0  0  0  0  0  0  0  0  0  0
  139.6606   77.2987  222.2334 H   0  0  0  0  0  0  0  0  0  0  0  0
  1  2  1  0
  2  3  1  0
  3  4  2  0
  4  5  1  0
  5  6  2  0
  6  7  1  0
  7  8  2  0
  8  9  1  0
  9 10  1  0
 10 11  1  0
 11 12  1  0
 12 13  1  0
 13 14  1  0
 13 15  1  0
 12 16  1  0
 16 17  1  0
  8  3  1  0
 17  9  1  0
  1 18  1  0
  1 19  1  0
  1 20  1  0
  4 21  1  0
  5 22  1  0
  6 23  1  0
  7 24  1  0
 10 25  1  0
 10 26  1  0
 11 27  1  0
 11 28  1  0
 13 29  1  0
 14 30  1  0
 14 31  1  0
 14 32  1  0
 15 33  1  0
 15 34  1  0
 15 35  1  0
 16 36  1  0
 16 37  1  0
 17 38  1  0
 17 39  1  0
M  END
>  <UniqueID>  (30) 
22

>  <SMILES>  (30) 
COc1ccccc1N1CCN(C(C)C)CC1

>  <Energy>  (30) 
50.05633862230299

>  <Genealogy>  (30) 
COc1ccccc1N1CCN(C(C)C)CC1 (3D coordinates assigned)
COc1ccccc1N1CCN(C(C)C)CC1 (nonaromatic ring conformer: 50.05633862230299 kcal/mol)

>  <smiles>  (30) 
COc1ccccc1N1CCN(C(C)C)CC1

>  <score_type>  (30) 
oracle

>  <origin>  (30) 
autodockgpu

>  <m_score__min__energy>  (30) 
-4.9400000000000004

>  <m_primary>  (30) 
energy

>  <meeko>  (30) 
{"free_energy": -4.92, "intermolecular_energy": -5.82, "internal_energy": -0.67, "cluster_size": 18, "cluster_id": 1, "rank_in_cluster": 17}

>  <energy>  (30) 
-4.93

>  <cluster_rmsd>  (30) 
0.04

>  <rmsd>  (30) 
273.2

>  <cluster>  (30) 
1

$$$$
LUCSOMIVZJTSBJ-UHFFFAOYNA-N
     RDKit          3D

 39 40  0  0  0  0  0  0  0  0999 V2000
  138.6680   74.4630  221.5450 C   0  0  0  0  0  0  0  0  0  0  0  0
  139.9790   74.4330  222.0980 O   0  0  0  0  0  0  0  0  0  0  0  0
  141.1550   74.2550  221.3520 C   0  0  0  0  0  0  0  0  0  0  0  0
  141.6940   72.9750  221.1090 C   0  0  0  0  0  0  0  0  0  0  0  0
  142.8800   72.8330  220.3850 C   0  0  0  0  0  0  0  0  0  0  0  0
  143.5400   73.9600  219.8950 C   0  0  0  0  0  0  0  0  0  0  0  0
  143.0150   75.2330  220.1250 C   0  0  0  0  0  0  0  0  0  0  0  0
  141.8220   75.3910  220.8490 C   0  0  0  0  0  0  0  0  0  0  0  0
  141.2870   76.7110  221.0560 N   0  0  0  0  0  0  0  0  0  0  0  0
  141.4280   77.7390  220.0200 C   0  0  0  0  0  0  0  0  0  0  0  0
  141.3680   79.1410  220.6380 C   0  0  0  0  0  0  0  0  0  0  0  0
  142.1240   79.1510  221.9120 N   0  0  0  0  0  0  0  0  0  0  0  0
  142.3780   80.5360  222.4120 C   0  0  0  0  0  0  0  0  0  0  0  0
  141.0810   81.3770  222.4320 C   0  0  0  0  0  0  0  0  0  0  0  0
  142.9510   80.5240  223.8450 C   0  0  0  0  0  0  0  0  0  0  0  0
  141.4270   78.3150  222.9310 C   0  0  0  0  0  0  0  0  0  0  0  0
  140.7030   77.0850  222.3440 C   0  0  0  0  0  0  0  0  0  0  0  0
  137.9274   74.4799  222.3581 H   0  0  0  0  0  0  0  0  0  0  0  0
  138.5522   75.3640  220.9247 H   0  0  0  0  0  0  0  0  0  0  0  0
  138.5111   73.5682  220.9247 H   0  0  0  0  0  0  0  0  0  0  0  0
  141.1773   72.0826  221.4920 H   0  0  0  0  0  0  0  0  0  0  0  0
  143.2943   71.8308  220.2009 H   0  0  0  0  0  0  0  0  0  0  0  0
  144.4749   73.8456  219.3269 H   0  0  0  0  0  0  0  0  0  0  0  0
  143.5394   76.1184  219.7364 H   0  0  0  0  0  0  0  0  0  0  0  0
  142.3947   77.6093  219.5115 H   0  0  0  0  0  0  0  0  0  0  0  0
  140.6022   77.6331  219.3011 H   0  0  0  0  0  0  0  0  0  0  0  0
  141.8122   79.8679  219.9421 H   0  0  0  0  0  0  0  0  0  0  0  0
  140.3196   79.4124  220.8312 H   0  0  0  0  0  0  0  0  0  0  0  0
  143.1064   80.9822  221.7189 H   0  0  0  0  0  0  0  0  0  0  0  0
  140.7846   81.5692  223.4738 H   0  0  0  0  0  0  0  0  0  0  0  0
  141.2564   82.3337  221.9182 H   0  0  0  0  0  0  0  0  0  0  0  0
  140.2791   80.8265  221.9182 H   0  0  0  0  0  0  0  0  0  0  0  0
  142.1244   80.5413  224.5706 H   0  0  0  0  0  0  0  0  0  0  0  0
  143.5497   79.6131  223.9929 H   0  0  0  0  0  0  0  0  0  0  0  0
  143.5873   81.4090  223.9929 H   0  0  0  0  0  0  0  0  0  0  0  0
  142.1730   77.9628  223.6586 H   0  0  0  0  0  0  0  0  0  0  0  0
  140.6550   78.9500  223.3901 H   0  0  0  0  0  0  0  0  0  0  0  0
  140.7987   76.2412  223.0432 H   0  0  0  0  0  0  0  0  0  0  0  0
  139.6425   77.3356  222.1936 H   0  0  0  0  0  0  0  0  0  0  0  0
  1  2  1  0
  2  3  1  0
  3  4  2  0
  4  5  1  0
  5  6  2  0
  6  7  1  0
  7  8  2  0
  8  9  1  0
  9 10  1  0
 10 11  1  0
 11 12  1  0
 12 13  1  0
 13 14  1  0
 13 15  1  0
 12 16  1  0
 16 17  1  0
  8  3  1  0
 17  9  1  0
  1 18  1  0
  1 19  1  0
  1 20  1  0
  4 21  1  0
  5 22  1  0
  6 23  1  0
  7 24  1  0
 10 25  1  0
 10 26  1  0
 11 27  1  0
 11 28  1  0
 13 29  1  0
 14 30  1  0
 14 31  1  0
 14 32  1  0
 15 33  1  0
 15 34  1  0
 15 35  1  0
 16 36  1  0
 16 37  1  0
 17 38  1  0
 17 39  1  0
M  END
>  <UniqueID>  (31) 
22

>  <SMILES>  (31) 
COc1ccccc1N1CCN(C(C)C)CC1

>  <Energy>  (31) 
50.05633862230299

>  <Genealogy>  (31) 
COc1ccccc1N1CCN(C(C)C)CC1 (3D coordinates assigned)
COc1ccccc1N1CCN(C(C)C)CC1 (nonaromatic ring conformer: 50.05633862230299 kcal/mol)

>  <smiles>  (31) 
COc1ccccc1N1CCN(C(C)C)CC1

>  <score_type>  (31) 
oracle

>  <origin>  (31) 
autodockgpu

>  <m_score__min__energy>  (31) 
-4.9400000000000004

>  <m_primary>  (31) 
energy

>  <meeko>  (31) 
{"free_energy": -4.94, "intermolecular_energy": -5.84, "internal_energy": -0.65, "cluster_size": 18, "cluster_id": 1, "rank_in_cluster": 1}

>  <energy>  (31) 
-4.93

>  <cluster_rmsd>  (31) 
0.2

>  <rmsd>  (31) 
273.22

>  <cluster>  (31) 
1

$$$$
LUCSOMIVZJTSBJ-UHFFFAOYNA-N
     RDKit          3D

 39 40  0  0  0  0  0  0  0  0999 V2000
  138.6740   74.4710  221.5310 C   0  0  0  0  0  0  0  0  0  0  0  0
  139.9840   74.4190  222.0860 O   0  0  0  0  0  0  0  0  0  0  0  0
  141.1600   74.2530  221.3380 C   0  0  0  0  0  0  0  0  0  0  0  0
  141.7050   72.9780  221.0850 C   0  0  0  0  0  0  0  0  0  0  0  0
  142.8920   72.8470  220.3590 C   0  0  0  0  0  0  0  0  0  0  0  0
  143.5460   73.9810  219.8780 C   0  0  0  0  0  0  0  0  0  0  0  0
  143.0150   75.2500  220.1180 C   0  0  0  0  0  0  0  0  0  0  0  0
  141.8220   75.3960  220.8430 C   0  0  0  0  0  0  0  0  0  0  0  0
  141.2800   76.7120  221.0610 N   0  0  0  0  0  0  0  0  0  0  0  0
  141.4040   77.7450  220.0280 C   0  0  0  0  0  0  0  0  0  0  0  0
  141.3420   79.1440  220.6530 C   0  0  0  0  0  0  0  0  0  0  0  0
  142.1100   79.1530  221.9200 N   0  0  0  0  0  0  0  0  0  0  0  0
  142.3600   80.5380  222.4230 C   0  0  0  0  0  0  0  0  0  0  0  0
  141.0560   81.3680  222.4670 C   0  0  0  0  0  0  0  0  0  0  0  0
  142.9540   80.5240  223.8470 C   0  0  0  0  0  0  0  0  0  0  0  0
  141.4280   78.3090  222.9420 C   0  0  0  0  0  0  0  0  0  0  0  0
  140.7060   77.0770  222.3570 C   0  0  0  0  0  0  0  0  0  0  0  0
  137.9326   74.5004  222.3431 H   0  0  0  0  0  0  0  0  0  0  0  0
  138.5742   75.3738  220.9105 H   0  0  0  0  0  0  0  0  0  0  0  0
  138.5030   73.5789  220.9105 H   0  0  0  0  0  0  0  0  0  0  0  0
  141.1928   72.0803  221.4614 H   0  0  0  0  0  0  0  0  0  0  0  0
  143.3109   71.8482  220.1667 H   0  0  0  0  0  0  0  0  0  0  0  0
  144.4814   73.8756  219.3088 H   0  0  0  0  0  0  0  0  0  0  0  0
  143.5350   76.1410  219.7364 H   0  0  0  0  0  0  0  0  0  0  0  0
  142.3661   77.6234  219.5089 H   0  0  0  0  0  0  0  0  0  0  0  0
  140.5716   77.6371  219.3171 H   0  0  0  0  0  0  0  0  0  0  0  0
  141.7755   79.8765  219.9562 H   0  0  0  0  0  0  0  0  0  0  0  0
  140.2940   79.4083  220.8574 H   0  0  0  0  0  0  0  0  0  0  0  0
  143.0741   80.9935  221.7212 H   0  0  0  0  0  0  0  0  0  0  0  0
  140.7717   81.5490  223.5141 H   0  0  0  0  0  0  0  0  0  0  0  0
  141.2166   82.3304  221.9591 H   0  0  0  0  0  0  0  0  0  0  0  0
  140.2521   80.8150  221.9591 H   0  0  0  0  0  0  0  0  0  0  0  0
  142.1383   80.5432  224.5847 H   0  0  0  0  0  0  0  0  0  0  0  0
  143.5524   79.6115  223.9857 H   0  0  0  0  0  0  0  0  0  0  0  0
  143.5947   81.4073  223.9857 H   0  0  0  0  0  0  0  0  0  0  0  0
  142.1830   77.9585  223.6611 H   0  0  0  0  0  0  0  0  0  0  0  0
  140.6566   78.9375  223.4110 H   0  0  0  0  0  0  0  0  0  0  0  0
  140.8139   76.2309  223.0516 H   0  0  0  0  0  0  0  0  0  0  0  0
  139.6425   77.3214  222.2181 H   0  0  0  0  0  0  0  0  0  0  0  0
  1  2  1  0
  2  3  1  0
  3  4  2  0
  4  5  1  0
  5  6  2  0
  6  7  1  0
  7  8  2  0
  8  9  1  0
  9 10  1  0
 10 11  1  0
 11 12  1  0
 12 13  1  0
 13 14  1  0
 13 15  1  0
 12 16  1  0
 16 17  1  0
  8  3  1  0
 17  9  1  0
  1 18  1  0
  1 19  1  0
  1 20  1  0
  4 21  1  0
  5 22  1  0
  6 23  1  0
  7 24  1  0
 10 25  1  0
 10 26  1  0
 11 27  1  0
 11 28  1  0
 13 29  1  0
 14 30  1  0
 14 31  1  0
 14 32  1  0
 15 33  1  0
 15 34  1  0
 15 35  1  0
 16 36  1  0
 16 37  1  0
 17 38  1  0
 17 39  1  0
M  END
>  <UniqueID>  (32) 
22

>  <SMILES>  (32) 
COc1ccccc1N1CCN(C(C)C)CC1

>  <Energy>  (32) 
50.05633862230299

>  <Genealogy>  (32) 
COc1ccccc1N1CCN(C(C)C)CC1 (3D coordinates assigned)
COc1ccccc1N1CCN(C(C)C)CC1 (nonaromatic ring conformer: 50.05633862230299 kcal/mol)

>  <smiles>  (32) 
COc1ccccc1N1CCN(C(C)C)CC1

>  <score_type>  (32) 
oracle

>  <origin>  (32) 
autodockgpu

>  <m_score__min__energy>  (32) 
-4.9400000000000004

>  <m_primary>  (32) 
energy

>  <meeko>  (32) 
{"free_energy": -4.94, "intermolecular_energy": -5.83, "internal_energy": -0.66, "cluster_size": 18, "cluster_id": 1, "rank_in_cluster": 8}

>  <energy>  (32) 
-4.93

>  <cluster_rmsd>  (32) 
0.04

>  <rmsd>  (32) 
273.2

>  <cluster>  (32) 
1

$$$$
LUCSOMIVZJTSBJ-UHFFFAOYNA-N
     RDKit          3D

 39 40  0  0  0  0  0  0  0  0999 V2000
  138.6650   74.4840  221.5350 C   0  0  0  0  0  0  0  0  0  0  0  0
  139.9750   74.4340  222.0910 O   0  0  0  0  0  0  0  0  0  0  0  0
  141.1520   74.2540  221.3460 C   0  0  0  0  0  0  0  0  0  0  0  0
  141.6860   72.9720  221.1010 C   0  0  0  0  0  0  0  0  0  0  0  0
  142.8720   72.8270  220.3790 C   0  0  0  0  0  0  0  0  0  0  0  0
  143.5370   73.9520  219.8930 C   0  0  0  0  0  0  0  0  0  0  0  0
  143.0180   75.2270  220.1240 C   0  0  0  0  0  0  0  0  0  0  0  0
  141.8240   75.3880  220.8470 C   0  0  0  0  0  0  0  0  0  0  0  0
  141.2940   76.7100  221.0560 N   0  0  0  0  0  0  0  0  0  0  0  0
  141.4340   77.7370  220.0200 C   0  0  0  0  0  0  0  0  0  0  0  0
  141.3820   79.1390  220.6380 C   0  0  0  0  0  0  0  0  0  0  0  0
  142.1420   79.1470  221.9090 N   0  0  0  0  0  0  0  0  0  0  0  0
  142.4020   80.5310  222.4090 C   0  0  0  0  0  0  0  0  0  0  0  0
  141.1110   81.3810  222.4170 C   0  0  0  0  0  0  0  0  0  0  0  0
  142.9650   80.5170  223.8460 C   0  0  0  0  0  0  0  0  0  0  0  0
  141.4460   78.3130  222.9310 C   0  0  0  0  0  0  0  0  0  0  0  0
  140.7160   77.0860  222.3470 C   0  0  0  0  0  0  0  0  0  0  0  0
  137.9230   74.5123  222.3466 H   0  0  0  0  0  0  0  0  0  0  0  0
  138.5643   75.3866  220.9145 H   0  0  0  0  0  0  0  0  0  0  0  0
  138.4957   73.5917  220.9145 H   0  0  0  0  0  0  0  0  0  0  0  0
  141.1649   72.0809  221.4811 H   0  0  0  0  0  0  0  0  0  0  0  0
  143.2825   71.8235  220.1932 H   0  0  0  0  0  0  0  0  0  0  0  0
  144.4725   73.8345  219.3264 H   0  0  0  0  0  0  0  0  0  0  0  0
  143.5468   76.1109  219.7378 H   0  0  0  0  0  0  0  0  0  0  0  0
  142.3979   77.6038  219.5071 H   0  0  0  0  0  0  0  0  0  0  0  0
  140.6045   77.6342  219.3050 H   0  0  0  0  0  0  0  0  0  0  0  0
  141.8267   79.8639  219.9403 H   0  0  0  0  0  0  0  0  0  0  0  0
  140.3354   79.4141  220.8350 H   0  0  0  0  0  0  0  0  0  0  0  0
  143.1387   80.9715  221.7212 H   0  0  0  0  0  0  0  0  0  0  0  0
  140.8092   81.5797  223.4560 H   0  0  0  0  0  0  0  0  0  0  0  0
  141.2964   82.3343  221.9004 H   0  0  0  0  0  0  0  0  0  0  0  0
  140.3086   80.8340  221.9004 H   0  0  0  0  0  0  0  0  0  0  0  0
  142.1335   80.5377  224.5658 H   0  0  0  0  0  0  0  0  0  0  0  0
  143.5591   79.6038  223.9982 H   0  0  0  0  0  0  0  0  0  0  0  0
  143.6037   81.3995  223.9982 H   0  0  0  0  0  0  0  0  0  0  0  0
  142.1936   77.9583  223.6557 H   0  0  0  0  0  0  0  0  0  0  0  0
  140.6779   78.9506  223.3931 H   0  0  0  0  0  0  0  0  0  0  0  0
  140.8117   76.2418  223.0457 H   0  0  0  0  0  0  0  0  0  0  0  0
  139.6558   77.3401  222.2008 H   0  0  0  0  0  0  0  0  0  0  0  0
  1  2  1  0
  2  3  1  0
  3  4  2  0
  4  5  1  0
  5  6  2  0
  6  7  1  0
  7  8  2  0
  8  9  1  0
  9 10  1  0
 10 11  1  0
 11 12  1  0
 12 13  1  0
 13 14  1  0
 13 15  1  0
 12 16  1  0
 16 17  1  0
  8  3  1  0
 17  9  1  0
  1 18  1  0
  1 19  1  0
  1 20  1  0
  4 21  1  0
  5 22  1  0
  6 23  1  0
  7 24  1  0
 10 25  1  0
 10 26  1  0
 11 27  1  0
 11 28  1  0
 13 29  1  0
 14 30  1  0
 14 31  1  0
 14 32  1  0
 15 33  1  0
 15 34  1  0
 15 35  1  0
 16 36  1  0
 16 37  1  0
 17 38  1  0
 17 39  1  0
M  END
>  <UniqueID>  (33) 
22

>  <SMILES>  (33) 
COc1ccccc1N1CCN(C(C)C)CC1

>  <Energy>  (33) 
50.05633862230299

>  <Genealogy>  (33) 
COc1ccccc1N1CCN(C(C)C)CC1 (3D coordinates assigned)
COc1ccccc1N1CCN(C(C)C)CC1 (nonaromatic ring conformer: 50.05633862230299 kcal/mol)

>  <smiles>  (33) 
COc1ccccc1N1CCN(C(C)C)CC1

>  <score_type>  (33) 
oracle

>  <origin>  (33) 
autodockgpu

>  <m_score__min__energy>  (33) 
-4.9400000000000004

>  <m_primary>  (33) 
energy

>  <meeko>  (33) 
{"free_energy": -4.94, "intermolecular_energy": -5.83, "internal_energy": -0.65, "cluster_size": 18, "cluster_id": 1, "rank_in_cluster": 6}

>  <energy>  (33) 
-4.93

>  <cluster_rmsd>  (33) 
0.4

>  <rmsd>  (33) 
273.25

>  <cluster>  (33) 
1

$$$$
LUCSOMIVZJTSBJ-UHFFFAOYNA-N
     RDKit          3D

 39 40  0  0  0  0  0  0  0  0999 V2000
  138.6880   74.4700  221.5030 C   0  0  0  0  0  0  0  0  0  0  0  0
  139.9950   74.4300  222.0670 O   0  0  0  0  0  0  0  0  0  0  0  0
  141.1780   74.2720  221.3270 C   0  0  0  0  0  0  0  0  0  0  0  0
  141.7310   73.0000  221.0750 C   0  0  0  0  0  0  0  0  0  0  0  0
  142.9240   72.8770  220.3580 C   0  0  0  0  0  0  0  0  0  0  0  0
  143.5760   74.0140  219.8850 C   0  0  0  0  0  0  0  0  0  0  0  0
  143.0370   75.2800  220.1230 C   0  0  0  0  0  0  0  0  0  0  0  0
  141.8380   75.4190  220.8400 C   0  0  0  0  0  0  0  0  0  0  0  0
  141.2880   76.7320  221.0570 N   0  0  0  0  0  0  0  0  0  0  0  0
  141.4120   77.7670  220.0260 C   0  0  0  0  0  0  0  0  0  0  0  0
  141.3390   79.1640  220.6520 C   0  0  0  0  0  0  0  0  0  0  0  0
  142.1010   79.1760  221.9230 N   0  0  0  0  0  0  0  0  0  0  0  0
  142.3410   80.5620  222.4290 C   0  0  0  0  0  0  0  0  0  0  0  0
  141.0300   81.3780  222.4860 C   0  0  0  0  0  0  0  0  0  0  0  0
  142.9470   80.5480  223.8480 C   0  0  0  0  0  0  0  0  0  0  0  0
  141.4180   78.3270  222.9410 C   0  0  0  0  0  0  0  0  0  0  0  0
  140.7060   77.0920  222.3510 C   0  0  0  0  0  0  0  0  0  0  0  0
  137.9409   74.4929  222.3101 H   0  0  0  0  0  0  0  0  0  0  0  0
  138.5842   75.3717  220.8816 H   0  0  0  0  0  0  0  0  0  0  0  0
  138.5293   73.5763  220.8816 H   0  0  0  0  0  0  0  0  0  0  0  0
  141.2202   72.0988  221.4451 H   0  0  0  0  0  0  0  0  0  0  0  0
  143.3492   71.8807  220.1666 H   0  0  0  0  0  0  0  0  0  0  0  0
  144.5165   73.9142  219.3234 H   0  0  0  0  0  0  0  0  0  0  0  0
  143.5552   76.1742  219.7463 H   0  0  0  0  0  0  0  0  0  0  0  0
  142.3776   77.6513  219.5120 H   0  0  0  0  0  0  0  0  0  0  0  0
  140.5840   77.6555  219.3104 H   0  0  0  0  0  0  0  0  0  0  0  0
  141.7716   79.8998  219.9581 H   0  0  0  0  0  0  0  0  0  0  0  0
  140.2885   79.4220  220.8517 H   0  0  0  0  0  0  0  0  0  0  0  0
  143.0446   81.0280  221.7234 H   0  0  0  0  0  0  0  0  0  0  0  0
  140.7514   81.5514  223.5359 H   0  0  0  0  0  0  0  0  0  0  0  0
  141.1773   82.3442  221.9813 H   0  0  0  0  0  0  0  0  0  0  0  0
  140.2281   80.8192  221.9813 H   0  0  0  0  0  0  0  0  0  0  0  0
  142.1375   80.5667  224.5926 H   0  0  0  0  0  0  0  0  0  0  0  0
  143.5470   79.6358  223.9815 H   0  0  0  0  0  0  0  0  0  0  0  0
  143.5885   81.4316  223.9815 H   0  0  0  0  0  0  0  0  0  0  0  0
  142.1711   77.9799  223.6637 H   0  0  0  0  0  0  0  0  0  0  0  0
  140.6408   78.9508  223.4066 H   0  0  0  0  0  0  0  0  0  0  0  0
  140.8156   76.2455  223.0449 H   0  0  0  0  0  0  0  0  0  0  0  0
  139.6418   77.3306  222.2075 H   0  0  0  0  0  0  0  0  0  0  0  0
  1  2  1  0
  2  3  1  0
  3  4  2  0
  4  5  1  0
  5  6  2  0
  6  7  1  0
  7  8  2  0
  8  9  1  0
  9 10  1  0
 10 11  1  0
 11 12  1  0
 12 13  1  0
 13 14  1  0
 13 15  1  0
 12 16  1  0
 16 17  1  0
  8  3  1  0
 17  9  1  0
  1 18  1  0
  1 19  1  0
  1 20  1  0
  4 21  1  0
  5 22  1  0
  6 23  1  0
  7 24  1  0
 10 25  1  0
 10 26  1  0
 11 27  1  0
 11 28  1  0
 13 29  1  0
 14 30  1  0
 14 31  1  0
 14 32  1  0
 15 33  1  0
 15 34  1  0
 15 35  1  0
 16 36  1  0
 16 37  1  0
 17 38  1  0
 17 39  1  0
M  END
>  <UniqueID>  (34) 
22

>  <SMILES>  (34) 
COc1ccccc1N1CCN(C(C)C)CC1

>  <Energy>  (34) 
50.05633862230299

>  <Genealogy>  (34) 
COc1ccccc1N1CCN(C(C)C)CC1 (3D coordinates assigned)
COc1ccccc1N1CCN(C(C)C)CC1 (nonaromatic ring conformer: 50.05633862230299 kcal/mol)

>  <smiles>  (34) 
COc1ccccc1N1CCN(C(C)C)CC1

>  <score_type>  (34) 
oracle

>  <origin>  (34) 
autodockgpu

>  <m_score__min__energy>  (34) 
-4.9400000000000004

>  <m_primary>  (34) 
energy

>  <meeko>  (34) 
{"free_energy": -4.93, "intermolecular_energy": -5.83, "internal_energy": -0.66, "cluster_size": 18, "cluster_id": 1, "rank_in_cluster": 12}

>  <energy>  (34) 
-4.92

>  <cluster_rmsd>  (34) 
0.12

>  <rmsd>  (34) 
273.19

>  <cluster>  (34) 
1

$$$$
LUCSOMIVZJTSBJ-UHFFFAOYNA-N
     RDKit          3D

 39 40  0  0  0  0  0  0  0  0999 V2000
  138.6830   74.4540  221.5470 C   0  0  0  0  0  0  0  0  0  0  0  0
  139.9960   74.4300  222.0980 O   0  0  0  0  0  0  0  0  0  0  0  0
  141.1710   74.2530  221.3510 C   0  0  0  0  0  0  0  0  0  0  0  0
  141.7110   72.9730  221.1070 C   0  0  0  0  0  0  0  0  0  0  0  0
  142.8960   72.8320  220.3810 C   0  0  0  0  0  0  0  0  0  0  0  0
  143.5550   73.9590  219.8920 C   0  0  0  0  0  0  0  0  0  0  0  0
  143.0300   75.2320  220.1220 C   0  0  0  0  0  0  0  0  0  0  0  0
  141.8380   75.3890  220.8470 C   0  0  0  0  0  0  0  0  0  0  0  0
  141.3020   76.7090  221.0560 N   0  0  0  0  0  0  0  0  0  0  0  0
  141.4430   77.7380  220.0210 C   0  0  0  0  0  0  0  0  0  0  0  0
  141.3830   79.1390  220.6400 C   0  0  0  0  0  0  0  0  0  0  0  0
  142.1380   79.1480  221.9150 N   0  0  0  0  0  0  0  0  0  0  0  0
  142.3910   80.5330  222.4170 C   0  0  0  0  0  0  0  0  0  0  0  0
  141.0930   81.3730  222.4370 C   0  0  0  0  0  0  0  0  0  0  0  0
  142.9630   80.5190  223.8500 C   0  0  0  0  0  0  0  0  0  0  0  0
  141.4400   78.3110  222.9330 C   0  0  0  0  0  0  0  0  0  0  0  0
  140.7170   77.0820  222.3440 C   0  0  0  0  0  0  0  0  0  0  0  0
  137.9438   74.4675  222.3615 H   0  0  0  0  0  0  0  0  0  0  0  0
  138.5620   75.3545  220.9270 H   0  0  0  0  0  0  0  0  0  0  0  0
  138.5291   73.5585  220.9270 H   0  0  0  0  0  0  0  0  0  0  0  0
  141.1957   72.0802  221.4908 H   0  0  0  0  0  0  0  0  0  0  0  0
  143.3099   71.8300  220.1948 H   0  0  0  0  0  0  0  0  0  0  0  0
  144.4901   73.8450  219.3240 H   0  0  0  0  0  0  0  0  0  0  0  0
  143.5536   76.1176  219.7327 H   0  0  0  0  0  0  0  0  0  0  0  0
  142.4097   77.6088  219.5124 H   0  0  0  0  0  0  0  0  0  0  0  0
  140.6171   77.6327  219.3020 H   0  0  0  0  0  0  0  0  0  0  0  0
  141.8281   79.8663  219.9451 H   0  0  0  0  0  0  0  0  0  0  0  0
  140.3345   79.4103  220.8326 H   0  0  0  0  0  0  0  0  0  0  0  0
  143.1195   80.9811  221.7253 H   0  0  0  0  0  0  0  0  0  0  0  0
  140.7965   81.5649  223.4787 H   0  0  0  0  0  0  0  0  0  0  0  0
  141.2675   82.3299  221.9232 H   0  0  0  0  0  0  0  0  0  0  0  0
  140.2916   80.8218  221.9232 H   0  0  0  0  0  0  0  0  0  0  0  0
  142.1361   80.5392  224.5751 H   0  0  0  0  0  0  0  0  0  0  0  0
  143.5584   79.6060  223.9983 H   0  0  0  0  0  0  0  0  0  0  0  0
  143.6023   81.4018  223.9983 H   0  0  0  0  0  0  0  0  0  0  0  0
  142.1853   77.9582  223.6610 H   0  0  0  0  0  0  0  0  0  0  0  0
  140.6677   78.9455  223.3923 H   0  0  0  0  0  0  0  0  0  0  0  0
  140.8121   76.2375  223.0424 H   0  0  0  0  0  0  0  0  0  0  0  0
  139.6568   77.3330  222.1927 H   0  0  0  0  0  0  0  0  0  0  0  0
  1  2  1  0
  2  3  1  0
  3  4  2  0
  4  5  1  0
  5  6  2  0
  6  7  1  0
  7  8  2  0
  8  9  1  0
  9 10  1  0
 10 11  1  0
 11 12  1  0
 12 13  1  0
 13 14  1  0
 13 15  1  0
 12 16  1  0
 16 17  1  0
  8  3  1  0
 17  9  1  0
  1 18  1  0
  1 19  1  0
  1 20  1  0
  4 21  1  0
  5 22  1  0
  6 23  1  0
  7 24  1  0
 10 25  1  0
 10 26  1  0
 11 27  1  0
 11 28  1  0
 13 29  1  0
 14 30  1  0
 14 31  1  0
 14 32  1  0
 15 33  1  0
 15 34  1  0
 15 35  1  0
 16 36  1  0
 16 37  1  0
 17 38  1  0
 17 39  1  0
M  END
>  <UniqueID>  (35) 
22

>  <SMILES>  (35) 
COc1ccccc1N1CCN(C(C)C)CC1

>  <Energy>  (35) 
50.05633862230299

>  <Genealogy>  (35) 
COc1ccccc1N1CCN(C(C)C)CC1 (3D coordinates assigned)
COc1ccccc1N1CCN(C(C)C)CC1 (nonaromatic ring conformer: 50.05633862230299 kcal/mol)

>  <smiles>  (35) 
COc1ccccc1N1CCN(C(C)C)CC1

>  <score_type>  (35) 
oracle

>  <origin>  (35) 
autodockgpu

>  <m_score__min__energy>  (35) 
-4.9400000000000004

>  <m_primary>  (35) 
energy

>  <meeko>  (35) 
{"free_energy": -4.94, "intermolecular_energy": -5.84, "internal_energy": -0.65, "cluster_size": 18, "cluster_id": 1, "rank_in_cluster": 4}

>  <energy>  (35) 
-4.92

>  <cluster_rmsd>  (35) 
0.12

>  <rmsd>  (35) 
273.19

>  <cluster>  (35) 
1

$$$$
LUCSOMIVZJTSBJ-UHFFFAOYNA-N
     RDKit          3D

 39 40  0  0  0  0  0  0  0  0999 V2000
  138.7260   74.4300  221.4400 C   0  0  0  0  0  0  0  0  0  0  0  0
  140.0300   74.3700  222.0110 O   0  0  0  0  0  0  0  0  0  0  0  0
  141.2180   74.2490  221.2730 C   0  0  0  0  0  0  0  0  0  0  0  0
  141.7960   72.9930  220.9960 C   0  0  0  0  0  0  0  0  0  0  0  0
  142.9930   72.9060  220.2810 C   0  0  0  0  0  0  0  0  0  0  0  0
  143.6250   74.0660  219.8340 C   0  0  0  0  0  0  0  0  0  0  0  0
  143.0620   75.3160  220.0970 C   0  0  0  0  0  0  0  0  0  0  0  0
  141.8580   75.4180  220.8120 C   0  0  0  0  0  0  0  0  0  0  0  0
  141.2830   76.7150  221.0540 N   0  0  0  0  0  0  0  0  0  0  0  0
  141.3770   77.7690  220.0380 C   0  0  0  0  0  0  0  0  0  0  0  0
  141.2800   79.1540  220.6860 C   0  0  0  0  0  0  0  0  0  0  0  0
  142.0520   79.1630  221.9500 N   0  0  0  0  0  0  0  0  0  0  0  0
  142.2680   80.5450  222.4760 C   0  0  0  0  0  0  0  0  0  0  0  0
  140.9310   81.3070  222.6290 C   0  0  0  0  0  0  0  0  0  0  0  0
  142.9550   80.5240  223.8580 C   0  0  0  0  0  0  0  0  0  0  0  0
  141.3960   78.2840  222.9610 C   0  0  0  0  0  0  0  0  0  0  0  0
  140.7040   77.0440  222.3570 C   0  0  0  0  0  0  0  0  0  0  0  0
  137.9752   74.4645  222.2432 H   0  0  0  0  0  0  0  0  0  0  0  0
  138.6393   75.3331  220.8180 H   0  0  0  0  0  0  0  0  0  0  0  0
  138.5567   73.5387  220.8180 H   0  0  0  0  0  0  0  0  0  0  0  0
  141.3008   72.0750  221.3455 H   0  0  0  0  0  0  0  0  0  0  0  0
  143.4373   71.9220  220.0705 H   0  0  0  0  0  0  0  0  0  0  0  0
  144.5687   73.9959  219.2732 H   0  0  0  0  0  0  0  0  0  0  0  0
  143.5651   76.2274  219.7416 H   0  0  0  0  0  0  0  0  0  0  0  0
  142.3406   77.6816  219.5147 H   0  0  0  0  0  0  0  0  0  0  0  0
  140.5456   77.6513  219.3274 H   0  0  0  0  0  0  0  0  0  0  0  0
  141.6909   79.9093  220.0000 H   0  0  0  0  0  0  0  0  0  0  0  0
  140.2260   79.3863  220.8985 H   0  0  0  0  0  0  0  0  0  0  0  0
  142.9116   81.0535  221.7430 H   0  0  0  0  0  0  0  0  0  0  0  0
  140.7031   81.4369  223.6973 H   0  0  0  0  0  0  0  0  0  0  0  0
  141.0142   82.2934  222.1493 H   0  0  0  0  0  0  0  0  0  0  0  0
  140.1247   80.7328  222.1493 H   0  0  0  0  0  0  0  0  0  0  0  0
  142.1900   80.5474  224.6481 H   0  0  0  0  0  0  0  0  0  0  0  0
  143.5548   79.6071  223.9554 H   0  0  0  0  0  0  0  0  0  0  0  0
  143.6097   81.4026  223.9554 H   0  0  0  0  0  0  0  0  0  0  0  0
  142.1628   77.9410  223.6713 H   0  0  0  0  0  0  0  0  0  0  0  0
  140.6108   78.8841  223.4441 H   0  0  0  0  0  0  0  0  0  0  0  0
  140.8353   76.1895  223.0371 H   0  0  0  0  0  0  0  0  0  0  0  0
  139.6344   77.2639  222.2246 H   0  0  0  0  0  0  0  0  0  0  0  0
  1  2  1  0
  2  3  1  0
  3  4  2  0
  4  5  1  0
  5  6  2  0
  6  7  1  0
  7  8  2  0
  8  9  1  0
  9 10  1  0
 10 11  1  0
 11 12  1  0
 12 13  1  0
 13 14  1  0
 13 15  1  0
 12 16  1  0
 16 17  1  0
  8  3  1  0
 17  9  1  0
  1 18  1  0
  1 19  1  0
  1 20  1  0
  4 21  1  0
  5 22  1  0
  6 23  1  0
  7 24  1  0
 10 25  1  0
 10 26  1  0
 11 27  1  0
 11 28  1  0
 13 29  1  0
 14 30  1  0
 14 31  1  0
 14 32  1  0
 15 33  1  0
 15 34  1  0
 15 35  1  0
 16 36  1  0
 16 37  1  0
 17 38  1  0
 17 39  1  0
M  END
>  <UniqueID>  (36) 
22

>  <SMILES>  (36) 
COc1ccccc1N1CCN(C(C)C)CC1

>  <Energy>  (36) 
50.05633862230299

>  <Genealogy>  (36) 
COc1ccccc1N1CCN(C(C)C)CC1 (3D coordinates assigned)
COc1ccccc1N1CCN(C(C)C)CC1 (nonaromatic ring conformer: 50.05633862230299 kcal/mol)

>  <smiles>  (36) 
COc1ccccc1N1CCN(C(C)C)CC1

>  <score_type>  (36) 
oracle

>  <origin>  (36) 
autodockgpu

>  <m_score__min__energy>  (36) 
-4.9400000000000004

>  <m_primary>  (36) 
energy

>  <meeko>  (36) 
{"free_energy": -4.92, "intermolecular_energy": -5.82, "internal_energy": -0.66, "cluster_size": 18, "cluster_id": 1, "rank_in_cluster": 14}

>  <energy>  (36) 
-4.92

>  <cluster_rmsd>  (36) 
0.07

>  <rmsd>  (36) 
273.18

>  <cluster>  (36) 
1

$$$$
LUCSOMIVZJTSBJ-UHFFFAOYNA-N
     RDKit          3D

 39 40  0  0  0  0  0  0  0  0999 V2000
  138.6750   74.3540  221.5600 C   0  0  0  0  0  0  0  0  0  0  0  0
  139.9920   74.4430  222.0950 O   0  0  0  0  0  0  0  0  0  0  0  0
  141.1690   74.2640  221.3510 C   0  0  0  0  0  0  0  0  0  0  0  0
  141.7070   72.9840  221.1090 C   0  0  0  0  0  0  0  0  0  0  0  0
  142.8940   72.8400  220.3870 C   0  0  0  0  0  0  0  0  0  0  0  0
  143.5560   73.9660  219.8980 C   0  0  0  0  0  0  0  0  0  0  0  0
  143.0310   75.2400  220.1260 C   0  0  0  0  0  0  0  0  0  0  0  0
  141.8370   75.3990  220.8480 C   0  0  0  0  0  0  0  0  0  0  0  0
  141.3020   76.7200  221.0540 N   0  0  0  0  0  0  0  0  0  0  0  0
  141.4480   77.7480  220.0180 C   0  0  0  0  0  0  0  0  0  0  0  0
  141.3870   79.1490  220.6360 C   0  0  0  0  0  0  0  0  0  0  0  0
  142.1390   79.1580  221.9130 N   0  0  0  0  0  0  0  0  0  0  0  0
  142.3920   80.5440  222.4140 C   0  0  0  0  0  0  0  0  0  0  0  0
  141.0960   81.3860  222.4280 C   0  0  0  0  0  0  0  0  0  0  0  0
  142.9590   80.5310  223.8500 C   0  0  0  0  0  0  0  0  0  0  0  0
  141.4380   78.3230  222.9300 C   0  0  0  0  0  0  0  0  0  0  0  0
  140.7150   77.0940  222.3400 C   0  0  0  0  0  0  0  0  0  0  0  0
  137.9473   74.3048  222.3834 H   0  0  0  0  0  0  0  0  0  0  0  0
  138.4697   75.2403  220.9417 H   0  0  0  0  0  0  0  0  0  0  0  0
  138.5909   73.4481  220.9417 H   0  0  0  0  0  0  0  0  0  0  0  0
  141.1886   72.0923  221.4913 H   0  0  0  0  0  0  0  0  0  0  0  0
  143.3072   71.8372  220.2038 H   0  0  0  0  0  0  0  0  0  0  0  0
  144.4923   73.8506  219.3323 H   0  0  0  0  0  0  0  0  0  0  0  0
  143.5563   76.1249  219.7374 H   0  0  0  0  0  0  0  0  0  0  0  0
  142.4165   77.6174  219.5131 H   0  0  0  0  0  0  0  0  0  0  0  0
  140.6251   77.6429  219.2956 H   0  0  0  0  0  0  0  0  0  0  0  0
  141.8341   79.8759  219.9419 H   0  0  0  0  0  0  0  0  0  0  0  0
  140.3382   79.4210  220.8258 H   0  0  0  0  0  0  0  0  0  0  0  0
  143.1235   80.9900  221.7241 H   0  0  0  0  0  0  0  0  0  0  0  0
  140.7964   81.5806  223.4684 H   0  0  0  0  0  0  0  0  0  0  0  0
  141.2739   82.3415  221.9128 H   0  0  0  0  0  0  0  0  0  0  0  0
  140.2953   80.8352  221.9128 H   0  0  0  0  0  0  0  0  0  0  0  0
  142.1293   80.5500  224.5720 H   0  0  0  0  0  0  0  0  0  0  0  0
  143.5552   79.6189  224.0006 H   0  0  0  0  0  0  0  0  0  0  0  0
  143.5964   81.4148  224.0006 H   0  0  0  0  0  0  0  0  0  0  0  0
  142.1812   77.9700  223.6601 H   0  0  0  0  0  0  0  0  0  0  0  0
  140.6654   78.9587  223.3871 H   0  0  0  0  0  0  0  0  0  0  0  0
  140.8079   76.2498  223.0390 H   0  0  0  0  0  0  0  0  0  0  0  0
  139.6553   77.3458  222.1864 H   0  0  0  0  0  0  0  0  0  0  0  0
  1  2  1  0
  2  3  1  0
  3  4  2  0
  4  5  1  0
  5  6  2  0
  6  7  1  0
  7  8  2  0
  8  9  1  0
  9 10  1  0
 10 11  1  0
 11 12  1  0
 12 13  1  0
 13 14  1  0
 13 15  1  0
 12 16  1  0
 16 17  1  0
  8  3  1  0
 17  9  1  0
  1 18  1  0
  1 19  1  0
  1 20  1  0
  4 21  1  0
  5 22  1  0
  6 23  1  0
  7 24  1  0
 10 25  1  0
 10 26  1  0
 11 27  1  0
 11 28  1  0
 13 29  1  0
 14 30  1  0
 14 31  1  0
 14 32  1  0
 15 33  1  0
 15 34  1  0
 15 35  1  0
 16 36  1  0
 16 37  1  0
 17 38  1  0
 17 39  1  0
M  END
>  <UniqueID>  (37) 
22

>  <SMILES>  (37) 
COc1ccccc1N1CCN(C(C)C)CC1

>  <Energy>  (37) 
50.05633862230299

>  <Genealogy>  (37) 
COc1ccccc1N1CCN(C(C)C)CC1 (3D coordinates assigned)
COc1ccccc1N1CCN(C(C)C)CC1 (nonaromatic ring conformer: 50.05633862230299 kcal/mol)

>  <smiles>  (37) 
COc1ccccc1N1CCN(C(C)C)CC1

>  <score_type>  (37) 
oracle

>  <origin>  (37) 
autodockgpu

>  <m_score__min__energy>  (37) 
-4.9400000000000004

>  <m_primary>  (37) 
energy

>  <meeko>  (37) 
{"free_energy": -4.94, "intermolecular_energy": -5.83, "internal_energy": -0.65, "cluster_size": 18, "cluster_id": 1, "rank_in_cluster": 5}

>  <energy>  (37) 
-4.92

>  <cluster_rmsd>  (37) 
0.04

>  <rmsd>  (37) 
273.2

>  <cluster>  (37) 
1

$$$$
LUCSOMIVZJTSBJ-UHFFFAOYNA-N
     RDKit          3D

 39 40  0  0  0  0  0  0  0  0999 V2000
  138.6610   74.4020  221.5410 C   0  0  0  0  0  0  0  0  0  0  0  0
  139.9750   74.4420  222.0880 O   0  0  0  0  0  0  0  0  0  0  0  0
  141.1530   74.2620  221.3460 C   0  0  0  0  0  0  0  0  0  0  0  0
  141.6910   72.9820  221.1040 C   0  0  0  0  0  0  0  0  0  0  0  0
  142.8790   72.8380  220.3830 C   0  0  0  0  0  0  0  0  0  0  0  0
  143.5420   73.9630  219.8960 C   0  0  0  0  0  0  0  0  0  0  0  0
  143.0190   75.2370  220.1240 C   0  0  0  0  0  0  0  0  0  0  0  0
  141.8240   75.3970  220.8450 C   0  0  0  0  0  0  0  0  0  0  0  0
  141.2900   76.7180  221.0500 N   0  0  0  0  0  0  0  0  0  0  0  0
  141.4390   77.7470  220.0160 C   0  0  0  0  0  0  0  0  0  0  0  0
  141.3780   79.1480  220.6360 C   0  0  0  0  0  0  0  0  0  0  0  0
  142.1280   79.1550  221.9140 N   0  0  0  0  0  0  0  0  0  0  0  0
  142.3810   80.5390  222.4170 C   0  0  0  0  0  0  0  0  0  0  0  0
  141.0830   81.3790  222.4410 C   0  0  0  0  0  0  0  0  0  0  0  0
  142.9560   80.5240  223.8490 C   0  0  0  0  0  0  0  0  0  0  0  0
  141.4230   78.3200  222.9290 C   0  0  0  0  0  0  0  0  0  0  0  0
  140.7000   77.0920  222.3360 C   0  0  0  0  0  0  0  0  0  0  0  0
  137.9244   74.3796  222.3577 H   0  0  0  0  0  0  0  0  0  0  0  0
  138.4944   75.2955  220.9214 H   0  0  0  0  0  0  0  0  0  0  0  0
  138.5491   73.5000  220.9214 H   0  0  0  0  0  0  0  0  0  0  0  0
  141.1720   72.0903  221.4854 H   0  0  0  0  0  0  0  0  0  0  0  0
  143.2917   71.8350  220.1994 H   0  0  0  0  0  0  0  0  0  0  0  0
  144.4787   73.8468  219.3312 H   0  0  0  0  0  0  0  0  0  0  0  0
  143.5460   76.1214  219.7366 H   0  0  0  0  0  0  0  0  0  0  0  0
  142.4084   77.6162  219.5129 H   0  0  0  0  0  0  0  0  0  0  0  0
  140.6174   77.6436  219.2919 H   0  0  0  0  0  0  0  0  0  0  0  0
  141.8266   79.8754  219.9435 H   0  0  0  0  0  0  0  0  0  0  0  0
  140.3291   79.4204  220.8246 H   0  0  0  0  0  0  0  0  0  0  0  0
  143.1077   80.9877  221.7238 H   0  0  0  0  0  0  0  0  0  0  0  0
  140.7887   81.5694  223.4836 H   0  0  0  0  0  0  0  0  0  0  0  0
  141.2564   82.3366  221.9282 H   0  0  0  0  0  0  0  0  0  0  0  0
  140.2805   80.8285  221.9282 H   0  0  0  0  0  0  0  0  0  0  0  0
  142.1306   80.5455  224.5758 H   0  0  0  0  0  0  0  0  0  0  0  0
  143.5502   79.6101  223.9960 H   0  0  0  0  0  0  0  0  0  0  0  0
  143.5971   81.4057  223.9960 H   0  0  0  0  0  0  0  0  0  0  0  0
  142.1638   77.9657  223.6609 H   0  0  0  0  0  0  0  0  0  0  0  0
  140.6500   78.9563  223.3845 H   0  0  0  0  0  0  0  0  0  0  0  0
  140.7904   76.2471  223.0346 H   0  0  0  0  0  0  0  0  0  0  0  0
  139.6410   77.3452  222.1800 H   0  0  0  0  0  0  0  0  0  0  0  0
  1  2  1  0
  2  3  1  0
  3  4  2  0
  4  5  1  0
  5  6  2  0
  6  7  1  0
  7  8  2  0
  8  9  1  0
  9 10  1  0
 10 11  1  0
 11 12  1  0
 12 13  1  0
 13 14  1  0
 13 15  1  0
 12 16  1  0
 16 17  1  0
  8  3  1  0
 17  9  1  0
  1 18  1  0
  1 19  1  0
  1 20  1  0
  4 21  1  0
  5 22  1  0
  6 23  1  0
  7 24  1  0
 10 25  1  0
 10 26  1  0
 11 27  1  0
 11 28  1  0
 13 29  1  0
 14 30  1  0
 14 31  1  0
 14 32  1  0
 15 33  1  0
 15 34  1  0
 15 35  1  0
 16 36  1  0
 16 37  1  0
 17 38  1  0
 17 39  1  0
M  END
>  <UniqueID>  (38) 
22

>  <SMILES>  (38) 
COc1ccccc1N1CCN(C(C)C)CC1

>  <Energy>  (38) 
50.05633862230299

>  <Genealogy>  (38) 
COc1ccccc1N1CCN(C(C)C)CC1 (3D coordinates assigned)
COc1ccccc1N1CCN(C(C)C)CC1 (nonaromatic ring conformer: 50.05633862230299 kcal/mol)

>  <smiles>  (38) 
COc1ccccc1N1CCN(C(C)C)CC1

>  <score_type>  (38) 
oracle

>  <origin>  (38) 
autodockgpu

>  <m_score__min__energy>  (38) 
-4.9400000000000004

>  <m_primary>  (38) 
energy

>  <meeko>  (38) 
{"free_energy": -4.94, "intermolecular_energy": -5.84, "internal_energy": -0.65, "cluster_size": 18, "cluster_id": 1, "rank_in_cluster": 3}

>  <energy>  (38) 
-4.85

>  <cluster_rmsd>  (38) 
0.3

>  <rmsd>  (38) 
273.25

>  <cluster>  (38) 
1

$$$$
LUCSOMIVZJTSBJ-UHFFFAOYNA-N
     RDKit          3D

 39 40  0  0  0  0  0  0  0  0999 V2000
  138.7060   74.4420  221.4450 C   0  0  0  0  0  0  0  0  0  0  0  0
  140.0060   74.3770  222.0230 O   0  0  0  0  0  0  0  0  0  0  0  0
  141.1960   74.2300  221.2940 C   0  0  0  0  0  0  0  0  0  0  0  0
  141.7580   72.9630  221.0360 C   0  0  0  0  0  0  0  0  0  0  0  0
  142.9570   72.8510  220.3300 C   0  0  0  0  0  0  0  0  0  0  0  0
  143.6090   73.9960  219.8730 C   0  0  0  0  0  0  0  0  0  0  0  0
  143.0620   75.2570  220.1170 C   0  0  0  0  0  0  0  0  0  0  0  0
  141.8550   75.3850  220.8230 C   0  0  0  0  0  0  0  0  0  0  0  0
  141.2980   76.6930  221.0460 N   0  0  0  0  0  0  0  0  0  0  0  0
  141.4110   77.7320  220.0180 C   0  0  0  0  0  0  0  0  0  0  0  0
  141.3300   79.1270  220.6480 C   0  0  0  0  0  0  0  0  0  0  0  0
  142.0970   79.1410  221.9150 N   0  0  0  0  0  0  0  0  0  0  0  0
  142.3300   80.5260  222.4240 C   0  0  0  0  0  0  0  0  0  0  0  0
  141.0150   81.3380  222.4770 C   0  0  0  0  0  0  0  0  0  0  0  0
  142.9290   80.5130  223.8460 C   0  0  0  0  0  0  0  0  0  0  0  0
  141.4240   78.2840  222.9340 C   0  0  0  0  0  0  0  0  0  0  0  0
  140.7180   77.0460  222.3430 C   0  0  0  0  0  0  0  0  0  0  0  0
  137.9509   74.4798  222.2440 H   0  0  0  0  0  0  0  0  0  0  0  0
  138.6263   75.3453  220.8223 H   0  0  0  0  0  0  0  0  0  0  0  0
  138.5366   73.5512  220.8223 H   0  0  0  0  0  0  0  0  0  0  0  0
  141.2480   72.0563  221.3936 H   0  0  0  0  0  0  0  0  0  0  0  0
  143.3882   71.8582  220.1338 H   0  0  0  0  0  0  0  0  0  0  0  0
  144.5553   73.9054  219.3196 H   0  0  0  0  0  0  0  0  0  0  0  0
  143.5802   76.1567  219.7536 H   0  0  0  0  0  0  0  0  0  0  0  0
  142.3757   77.6248  219.5004 H   0  0  0  0  0  0  0  0  0  0  0  0
  140.5812   77.6166  219.3052 H   0  0  0  0  0  0  0  0  0  0  0  0
  141.7540   79.8679  219.9543 H   0  0  0  0  0  0  0  0  0  0  0  0
  140.2785   79.3767  220.8528 H   0  0  0  0  0  0  0  0  0  0  0  0
  143.0355   80.9945  221.7220 H   0  0  0  0  0  0  0  0  0  0  0  0
  140.7335   81.5118  223.5261 H   0  0  0  0  0  0  0  0  0  0  0  0
  141.1600   82.3041  221.9713 H   0  0  0  0  0  0  0  0  0  0  0  0
  140.2162   80.7757  221.9713 H   0  0  0  0  0  0  0  0  0  0  0  0
  142.1158   80.5306  224.5866 H   0  0  0  0  0  0  0  0  0  0  0  0
  143.5296   79.6016  223.9826 H   0  0  0  0  0  0  0  0  0  0  0  0
  143.5686   81.3975  223.9826 H   0  0  0  0  0  0  0  0  0  0  0  0
  142.1826   77.9399  223.6524 H   0  0  0  0  0  0  0  0  0  0  0  0
  140.6447   78.9010  223.4051 H   0  0  0  0  0  0  0  0  0  0  0  0
  140.8353   76.1984  223.0343 H   0  0  0  0  0  0  0  0  0  0  0  0
  139.6519   77.2782  222.2036 H   0  0  0  0  0  0  0  0  0  0  0  0
  1  2  1  0
  2  3  1  0
  3  4  2  0
  4  5  1  0
  5  6  2  0
  6  7  1  0
  7  8  2  0
  8  9  1  0
  9 10  1  0
 10 11  1  0
 11 12  1  0
 12 13  1  0
 13 14  1  0
 13 15  1  0
 12 16  1  0
 16 17  1  0
  8  3  1  0
 17  9  1  0
  1 18  1  0
  1 19  1  0
  1 20  1  0
  4 21  1  0
  5 22  1  0
  6 23  1  0
  7 24  1  0
 10 25  1  0
 10 26  1  0
 11 27  1  0
 11 28  1  0
 13 29  1  0
 14 30  1  0
 14 31  1  0
 14 32  1  0
 15 33  1  0
 15 34  1  0
 15 35  1  0
 16 36  1  0
 16 37  1  0
 17 38  1  0
 17 39  1  0
M  END
>  <UniqueID>  (39) 
22

>  <SMILES>  (39) 
COc1ccccc1N1CCN(C(C)C)CC1

>  <Energy>  (39) 
50.05633862230299

>  <Genealogy>  (39) 
COc1ccccc1N1CCN(C(C)C)CC1 (3D coordinates assigned)
COc1ccccc1N1CCN(C(C)C)CC1 (nonaromatic ring conformer: 50.05633862230299 kcal/mol)

>  <smiles>  (39) 
COc1ccccc1N1CCN(C(C)C)CC1

>  <score_type>  (39) 
oracle

>  <origin>  (39) 
autodockgpu

>  <m_score__min__energy>  (39) 
-4.9400000000000004

>  <m_primary>  (39) 
energy

>  <meeko>  (39) 
{"free_energy": -4.92, "intermolecular_energy": -5.82, "internal_energy": -0.66, "cluster_size": 18, "cluster_id": 1, "rank_in_cluster": 16}

>  <energy>  (39) 
-4.83

>  <cluster_rmsd>  (39) 
0.0

>  <rmsd>  (39) 
273.16

>  <cluster>  (39) 
2

$$$$
LUCSOMIVZJTSBJ-UHFFFAOYNA-N
     RDKit          3D

 39 40  0  0  0  0  0  0  0  0999 V2000
  138.7360   74.6510  221.5290 C   0  0  0  0  0  0  0  0  0  0  0  0
  140.0510   74.5310  222.0610 O   0  0  0  0  0  0  0  0  0  0  0  0
  141.2200   74.4540  221.2880 C   0  0  0  0  0  0  0  0  0  0  0  0
  141.8150   73.2180  220.9640 C   0  0  0  0  0  0  0  0  0  0  0  0
  142.9930   73.1750  220.2140 C   0  0  0  0  0  0  0  0  0  0  0  0
  143.5890   74.3580  219.7800 C   0  0  0  0  0  0  0  0  0  0  0  0
  143.0090   75.5900  220.0910 C   0  0  0  0  0  0  0  0  0  0  0  0
  141.8230   75.6480  220.8410 C   0  0  0  0  0  0  0  0  0  0  0  0
  141.2290   76.9260  221.1320 N   0  0  0  0  0  0  0  0  0  0  0  0
  141.1960   77.9780  220.1110 C   0  0  0  0  0  0  0  0  0  0  0  0
  141.1120   79.3630  220.7640 C   0  0  0  0  0  0  0  0  0  0  0  0
  141.9930   79.4020  221.9540 N   0  0  0  0  0  0  0  0  0  0  0  0
  142.2090   80.7920  222.4570 C   0  0  0  0  0  0  0  0  0  0  0  0
  140.9110   81.6280  222.3820 C   0  0  0  0  0  0  0  0  0  0  0  0
  142.6840   80.7950  223.9250 C   0  0  0  0  0  0  0  0  0  0  0  0
  141.4600   78.5060  223.0200 C   0  0  0  0  0  0  0  0  0  0  0  0
  140.7590   77.2400  222.4820 C   0  0  0  0  0  0  0  0  0  0  0  0
  138.0113   74.7171  222.3539 H   0  0  0  0  0  0  0  0  0  0  0  0
  138.6719   75.5587  220.9110 H   0  0  0  0  0  0  0  0  0  0  0  0
  138.5087   73.7699  220.9110 H   0  0  0  0  0  0  0  0  0  0  0  0
  141.3489   72.2813  221.3038 H   0  0  0  0  0  0  0  0  0  0  0  0
  143.4508   72.2061  219.9656 H   0  0  0  0  0  0  0  0  0  0  0  0
  144.5177   74.3212  219.1916 H   0  0  0  0  0  0  0  0  0  0  0  0
  143.4840   76.5204  219.7464 H   0  0  0  0  0  0  0  0  0  0  0  0
  142.1108   77.9201  219.5029 H   0  0  0  0  0  0  0  0  0  0  0  0
  140.3081   77.8301  219.4787 H   0  0  0  0  0  0  0  0  0  0  0  0
  141.4353   80.1285  220.0432 H   0  0  0  0  0  0  0  0  0  0  0  0
  140.0742   79.5620  221.0694 H   0  0  0  0  0  0  0  0  0  0  0  0
  142.9812   81.2345  221.8106 H   0  0  0  0  0  0  0  0  0  0  0  0
  140.5608   81.8535  223.4001 H   0  0  0  0  0  0  0  0  0  0  0  0
  141.1106   82.5678  221.8463 H   0  0  0  0  0  0  0  0  0  0  0  0
  140.1379   81.0576  221.8463 H   0  0  0  0  0  0  0  0  0  0  0  0
  141.8102   80.7895  224.5931 H   0  0  0  0  0  0  0  0  0  0  0  0
  143.2959   79.9007  224.1142 H   0  0  0  0  0  0  0  0  0  0  0  0
  143.2846   81.6970  224.1142 H   0  0  0  0  0  0  0  0  0  0  0  0
  142.2982   78.1922  223.6595 H   0  0  0  0  0  0  0  0  0  0  0  0
  140.7008   79.0814  223.5700 H   0  0  0  0  0  0  0  0  0  0  0  0
  140.9806   76.3932  223.1482 H   0  0  0  0  0  0  0  0  0  0  0  0
  139.6748   77.4225  222.4468 H   0  0  0  0  0  0  0  0  0  0  0  0
  1  2  1  0
  2  3  1  0
  3  4  2  0
  4  5  1  0
  5  6  2  0
  6  7  1  0
  7  8  2  0
  8  9  1  0
  9 10  1  0
 10 11  1  0
 11 12  1  0
 12 13  1  0
 13 14  1  0
 13 15  1  0
 12 16  1  0
 16 17  1  0
  8  3  1  0
 17  9  1  0
  1 18  1  0
  1 19  1  0
  1 20  1  0
  4 21  1  0
  5 22  1  0
  6 23  1  0
  7 24  1  0
 10 25  1  0
 10 26  1  0
 11 27  1  0
 11 28  1  0
 13 29  1  0
 14 30  1  0
 14 31  1  0
 14 32  1  0
 15 33  1  0
 15 34  1  0
 15 35  1  0
 16 36  1  0
 16 37  1  0
 17 38  1  0
 17 39  1  0
M  END
>  <UniqueID>  (40) 
22

>  <SMILES>  (40) 
COc1ccccc1N1CCN(C(C)C)CC1

>  <Energy>  (40) 
50.05633862230299

>  <Genealogy>  (40) 
COc1ccccc1N1CCN(C(C)C)CC1 (3D coordinates assigned)
COc1ccccc1N1CCN(C(C)C)CC1 (nonaromatic ring conformer: 50.05633862230299 kcal/mol)

>  <smiles>  (40) 
COc1ccccc1N1CCN(C(C)C)CC1

>  <score_type>  (40) 
oracle

>  <origin>  (40) 
autodockgpu

>  <m_score__min__energy>  (40) 
-4.9400000000000004

>  <m_primary>  (40) 
energy

>  <meeko>  (40) 
{"free_energy": -4.85, "intermolecular_energy": -5.75, "internal_energy": -0.69, "cluster_size": 18, "cluster_id": 1, "rank_in_cluster": 18}

>  <energy>  (40) 
-4.83

>  <cluster_rmsd>  (40) 
0.03

>  <rmsd>  (40) 
273.16

>  <cluster>  (40) 
2

$$$$
LUCSOMIVZJTSBJ-UHFFFAOYNA-N
     RDKit          3D

 39 40  0  0  0  0  0  0  0  0999 V2000
  142.1930   79.4950  218.8140 C   0  0  0  0  0  0  0  0  0  0  0  0
  141.2700   79.2420  219.8680 O   0  0  0  0  0  0  0  0  0  0  0  0
  141.5700   79.3550  221.2350 C   0  0  0  0  0  0  0  0  0  0  0  0
  142.2030   80.4990  221.7630 C   0  0  0  0  0  0  0  0  0  0  0  0
  142.5120   80.5710  223.1240 C   0  0  0  0  0  0  0  0  0  0  0  0
  142.1950   79.5100  223.9700 C   0  0  0  0  0  0  0  0  0  0  0  0
  141.5640   78.3730  223.4610 C   0  0  0  0  0  0  0  0  0  0  0  0
  141.2440   78.2870  222.0960 C   0  0  0  0  0  0  0  0  0  0  0  0
  140.5750   77.1160  221.5950 N   0  0  0  0  0  0  0  0  0  0  0  0
  139.2800   76.7080  222.1500 C   0  0  0  0  0  0  0  0  0  0  0  0
  139.0570   75.2040  221.9520 C   0  0  0  0  0  0  0  0  0  0  0  0
  140.3240   74.4800  222.2080 N   0  0  0  0  0  0  0  0  0  0  0  0
  140.1190   73.0060  222.3440 C   0  0  0  0  0  0  0  0  0  0  0  0
  138.6780   72.5980  221.9620 C   0  0  0  0  0  0  0  0  0  0  0  0
  141.0860   72.2150  221.4370 C   0  0  0  0  0  0  0  0  0  0  0  0
  141.3250   74.8030  221.1500 C   0  0  0  0  0  0  0  0  0  0  0  0
  141.2260   76.2470  220.6150 C   0  0  0  0  0  0  0  0  0  0  0  0
  143.1712   79.7631  219.2397 H   0  0  0  0  0  0  0  0  0  0  0  0
  142.2979   78.5925  218.1940 H   0  0  0  0  0  0  0  0  0  0  0  0
  141.8230   80.3249  218.1940 H   0  0  0  0  0  0  0  0  0  0  0  0
  142.4551   81.3396  221.0998 H   0  0  0  0  0  0  0  0  0  0  0  0
  143.0063   81.4667  223.5282 H   0  0  0  0  0  0  0  0  0  0  0  0
  142.4422   79.5682  225.0403 H   0  0  0  0  0  0  0  0  0  0  0  0
  141.3158   77.5388  224.1337 H   0  0  0  0  0  0  0  0  0  0  0  0
  139.2591   76.9379  223.2255 H   0  0  0  0  0  0  0  0  0  0  0  0
  138.4821   77.2563  221.6278 H   0  0  0  0  0  0  0  0  0  0  0  0
  138.2854   74.8522  222.6526 H   0  0  0  0  0  0  0  0  0  0  0  0
  138.7280   75.0144  220.9196 H   0  0  0  0  0  0  0  0  0  0  0  0
  140.3116   72.7664  223.4002 H   0  0  0  0  0  0  0  0  0  0  0  0
  138.0895   72.4314  222.8763 H   0  0  0  0  0  0  0  0  0  0  0  0
  138.2148   73.4003  221.3689 H   0  0  0  0  0  0  0  0  0  0  0  0
  138.7041   71.6719  221.3689 H   0  0  0  0  0  0  0  0  0  0  0  0
  141.7873   71.6414  222.0608 H   0  0  0  0  0  0  0  0  0  0  0  0
  140.5112   71.5248  220.8020 H   0  0  0  0  0  0  0  0  0  0  0  0
  141.6485   72.9152  220.8020 H   0  0  0  0  0  0  0  0  0  0  0  0
  142.3314   74.6574  221.5694 H   0  0  0  0  0  0  0  0  0  0  0  0
  141.1199   74.1336  220.3016 H   0  0  0  0  0  0  0  0  0  0  0  0
  142.2379   76.6270  220.4108 H   0  0  0  0  0  0  0  0  0  0  0  0
  140.6275   76.2428  219.6921 H   0  0  0  0  0  0  0  0  0  0  0  0
  1  2  1  0
  2  3  1  0
  3  4  2  0
  4  5  1  0
  5  6  2  0
  6  7  1  0
  7  8  2  0
  8  9  1  0
  9 10  1  0
 10 11  1  0
 11 12  1  0
 12 13  1  0
 13 14  1  0
 13 15  1  0
 12 16  1  0
 16 17  1  0
  8  3  1  0
 17  9  1  0
  1 18  1  0
  1 19  1  0
  1 20  1  0
  4 21  1  0
  5 22  1  0
  6 23  1  0
  7 24  1  0
 10 25  1  0
 10 26  1  0
 11 27  1  0
 11 28  1  0
 13 29  1  0
 14 30  1  0
 14 31  1  0
 14 32  1  0
 15 33  1  0
 15 34  1  0
 15 35  1  0
 16 36  1  0
 16 37  1  0
 17 38  1  0
 17 39  1  0
M  END
>  <UniqueID>  (41) 
23

>  <SMILES>  (41) 
COc1ccccc1N1CCN(C(C)C)CC1

>  <Energy>  (41) 
50.22470896827241

>  <Genealogy>  (41) 
COc1ccccc1N1CCN(C(C)C)CC1 (3D coordinates assigned)
COc1ccccc1N1CCN(C(C)C)CC1 (nonaromatic ring conformer: 50.22470896827241 kcal/mol)

>  <smiles>  (41) 
COc1ccccc1N1CCN(C(C)C)CC1

>  <score_type>  (41) 
oracle

>  <origin>  (41) 
autodockgpu

>  <m_score__min__energy>  (41) 
-4.9400000000000004

>  <m_primary>  (41) 
energy

>  <meeko>  (41) 
{"free_energy": -4.83, "intermolecular_energy": -5.72, "internal_energy": -0.71, "cluster_size": 2, "cluster_id": 2, "rank_in_cluster": 1}

>  <energy>  (41) 
-4.94

>  <cluster_rmsd>  (41) 
0.0

>  <rmsd>  (41) 
273.2

>  <cluster>  (41) 
1

$$$$
LUCSOMIVZJTSBJ-UHFFFAOYNA-N
     RDKit          3D

 39 40  0  0  0  0  0  0  0  0999 V2000
  138.6860   74.4750  221.5390 C   0  0  0  0  0  0  0  0  0  0  0  0
  139.9960   74.4270  222.0940 O   0  0  0  0  0  0  0  0  0  0  0  0
  141.1730   74.2560  221.3470 C   0  0  0  0  0  0  0  0  0  0  0  0
  141.7150   72.9790  221.0970 C   0  0  0  0  0  0  0  0  0  0  0  0
  142.9010   72.8430  220.3720 C   0  0  0  0  0  0  0  0  0  0  0  0
  143.5580   73.9740  219.8880 C   0  0  0  0  0  0  0  0  0  0  0  0
  143.0300   75.2450  220.1240 C   0  0  0  0  0  0  0  0  0  0  0  0
  141.8370   75.3960  220.8490 C   0  0  0  0  0  0  0  0  0  0  0  0
  141.2980   76.7130  221.0630 N   0  0  0  0  0  0  0  0  0  0  0  0
  141.4260   77.7440  220.0280 C   0  0  0  0  0  0  0  0  0  0  0  0
  141.3660   79.1440  220.6490 C   0  0  0  0  0  0  0  0  0  0  0  0
  142.1330   79.1550  221.9160 N   0  0  0  0  0  0  0  0  0  0  0  0
  142.3860   80.5410  222.4160 C   0  0  0  0  0  0  0  0  0  0  0  0
  141.0860   81.3770  222.4470 C   0  0  0  0  0  0  0  0  0  0  0  0
  142.9690   80.5290  223.8450 C   0  0  0  0  0  0  0  0  0  0  0  0
  141.4480   78.3150  222.9400 C   0  0  0  0  0  0  0  0  0  0  0  0
  140.7240   77.0830  222.3580 C   0  0  0  0  0  0  0  0  0  0  0  0
  137.9445   74.5022  222.3511 H   0  0  0  0  0  0  0  0  0  0  0  0
  138.5835   75.3775  220.9185 H   0  0  0  0  0  0  0  0  0  0  0  0
  138.5177   73.5824  220.9185 H   0  0  0  0  0  0  0  0  0  0  0  0
  141.2004   72.0835  221.4755 H   0  0  0  0  0  0  0  0  0  0  0  0
  143.3174   71.8426  220.1825 H   0  0  0  0  0  0  0  0  0  0  0  0
  144.4934   73.8647  219.3196 H   0  0  0  0  0  0  0  0  0  0  0  0
  143.5520   76.1336  219.7395 H   0  0  0  0  0  0  0  0  0  0  0  0
  142.3888   77.6192  219.5108 H   0  0  0  0  0  0  0  0  0  0  0  0
  140.5942   77.6364  219.3163 H   0  0  0  0  0  0  0  0  0  0  0  0
  141.8011   79.8740  219.9506 H   0  0  0  0  0  0  0  0  0  0  0  0
  140.3183   79.4106  220.8521 H   0  0  0  0  0  0  0  0  0  0  0  0
  143.1077   80.9907  221.7182 H   0  0  0  0  0  0  0  0  0  0  0  0
  140.7952   81.5640  223.4912 H   0  0  0  0  0  0  0  0  0  0  0  0
  141.2547   82.3363  221.9359 H   0  0  0  0  0  0  0  0  0  0  0  0
  140.2831   80.8255  221.9359 H   0  0  0  0  0  0  0  0  0  0  0  0
  142.1475   80.5459  224.5763 H   0  0  0  0  0  0  0  0  0  0  0  0
  143.5690   79.6183  223.9886 H   0  0  0  0  0  0  0  0  0  0  0  0
  143.6060   81.4142  223.9886 H   0  0  0  0  0  0  0  0  0  0  0  0
  142.2016   77.9650  223.6608 H   0  0  0  0  0  0  0  0  0  0  0  0
  140.6774   78.9465  223.4063 H   0  0  0  0  0  0  0  0  0  0  0  0
  140.8298   76.2386  223.0550 H   0  0  0  0  0  0  0  0  0  0  0  0
  139.6611   77.3293  222.2178 H   0  0  0  0  0  0  0  0  0  0  0  0
  1  2  1  0
  2  3  1  0
  3  4  2  0
  4  5  1  0
  5  6  2  0
  6  7  1  0
  7  8  2  0
  8  9  1  0
  9 10  1  0
 10 11  1  0
 11 12  1  0
 12 13  1  0
 13 14  1  0
 13 15  1  0
 12 16  1  0
 16 17  1  0
  8  3  1  0
 17  9  1  0
  1 18  1  0
  1 19  1  0
  1 20  1  0
  4 21  1  0
  5 22  1  0
  6 23  1  0
  7 24  1  0
 10 25  1  0
 10 26  1  0
 11 27  1  0
 11 28  1  0
 13 29  1  0
 14 30  1  0
 14 31  1  0
 14 32  1  0
 15 33  1  0
 15 34  1  0
 15 35  1  0
 16 36  1  0
 16 37  1  0
 17 38  1  0
 17 39  1  0
M  END
>  <UniqueID>  (42) 
23

>  <SMILES>  (42) 
COc1ccccc1N1CCN(C(C)C)CC1

>  <Energy>  (42) 
50.22470896827241

>  <Genealogy>  (42) 
COc1ccccc1N1CCN(C(C)C)CC1 (3D coordinates assigned)
COc1ccccc1N1CCN(C(C)C)CC1 (nonaromatic ring conformer: 50.22470896827241 kcal/mol)

>  <smiles>  (42) 
COc1ccccc1N1CCN(C(C)C)CC1

>  <score_type>  (42) 
oracle

>  <origin>  (42) 
autodockgpu

>  <m_score__min__energy>  (42) 
-4.9400000000000004

>  <m_primary>  (42) 
energy

>  <meeko>  (42) 
{"free_energy": -4.93, "intermolecular_energy": -5.83, "internal_energy": -0.66, "cluster_size": 18, "cluster_id": 1, "rank_in_cluster": 9}

>  <energy>  (42) 
-4.94

>  <cluster_rmsd>  (42) 
0.04

>  <rmsd>  (42) 
273.2

>  <cluster>  (42) 
1

$$$$
LUCSOMIVZJTSBJ-UHFFFAOYNA-N
     RDKit          3D

 39 40  0  0  0  0  0  0  0  0999 V2000
  138.6670   74.3200  221.5690 C   0  0  0  0  0  0  0  0  0  0  0  0
  139.9820   74.4360  222.1010 O   0  0  0  0  0  0  0  0  0  0  0  0
  141.1610   74.2530  221.3600 C   0  0  0  0  0  0  0  0  0  0  0  0
  141.6970   72.9710  221.1240 C   0  0  0  0  0  0  0  0  0  0  0  0
  142.8860   72.8230  220.4060 C   0  0  0  0  0  0  0  0  0  0  0  0
  143.5510   73.9460  219.9150 C   0  0  0  0  0  0  0  0  0  0  0  0
  143.0290   75.2220  220.1380 C   0  0  0  0  0  0  0  0  0  0  0  0
  141.8330   75.3860  220.8560 C   0  0  0  0  0  0  0  0  0  0  0  0
  141.3000   76.7070  221.0560 N   0  0  0  0  0  0  0  0  0  0  0  0
  141.4530   77.7330  220.0190 C   0  0  0  0  0  0  0  0  0  0  0  0
  141.3930   79.1360  220.6340 C   0  0  0  0  0  0  0  0  0  0  0  0
  142.1390   79.1460  221.9140 N   0  0  0  0  0  0  0  0  0  0  0  0
  142.3930   80.5320  222.4130 C   0  0  0  0  0  0  0  0  0  0  0  0
  141.1000   81.3790  222.4140 C   0  0  0  0  0  0  0  0  0  0  0  0
  142.9480   80.5210  223.8530 C   0  0  0  0  0  0  0  0  0  0  0  0
  141.4310   78.3150  222.9300 C   0  0  0  0  0  0  0  0  0  0  0  0
  140.7080   77.0860  222.3400 C   0  0  0  0  0  0  0  0  0  0  0  0
  137.9421   74.2561  222.3939 H   0  0  0  0  0  0  0  0  0  0  0  0
  138.4424   75.2018  220.9510 H   0  0  0  0  0  0  0  0  0  0  0  0
  138.6002   73.4125  220.9510 H   0  0  0  0  0  0  0  0  0  0  0  0
  141.1758   72.0815  221.5076 H   0  0  0  0  0  0  0  0  0  0  0  0
  143.2984   71.8190  220.2276 H   0  0  0  0  0  0  0  0  0  0  0  0
  144.4880   73.8267  219.3512 H   0  0  0  0  0  0  0  0  0  0  0  0
  143.5580   76.1044  219.7488 H   0  0  0  0  0  0  0  0  0  0  0  0
  142.4233   77.5990  219.5185 H   0  0  0  0  0  0  0  0  0  0  0  0
  140.6326   77.6287  219.2936 H   0  0  0  0  0  0  0  0  0  0  0  0
  141.8452   79.8601  219.9403 H   0  0  0  0  0  0  0  0  0  0  0  0
  140.3441   79.4111  220.8186 H   0  0  0  0  0  0  0  0  0  0  0  0
  143.1318   80.9733  221.7278 H   0  0  0  0  0  0  0  0  0  0  0  0
  140.7939   81.5795  223.4513 H   0  0  0  0  0  0  0  0  0  0  0  0
  141.2852   82.3314  221.8957 H   0  0  0  0  0  0  0  0  0  0  0  0
  140.3009   80.8288  221.8957 H   0  0  0  0  0  0  0  0  0  0  0  0
  142.1124   80.5376  224.5681 H   0  0  0  0  0  0  0  0  0  0  0  0
  143.5458   79.6108  224.0086 H   0  0  0  0  0  0  0  0  0  0  0  0
  143.5814   81.4068  224.0086 H   0  0  0  0  0  0  0  0  0  0  0  0
  142.1699   77.9623  223.6646 H   0  0  0  0  0  0  0  0  0  0  0  0
  140.6576   78.9537  223.3815 H   0  0  0  0  0  0  0  0  0  0  0  0
  140.7963   76.2434  223.0415 H   0  0  0  0  0  0  0  0  0  0  0  0
  139.6495   77.3397  222.1813 H   0  0  0  0  0  0  0  0  0  0  0  0
  1  2  1  0
  2  3  1  0
  3  4  2  0
  4  5  1  0
  5  6  2  0
  6  7  1  0
  7  8  2  0
  8  9  1  0
  9 10  1  0
 10 11  1  0
 11 12  1  0
 12 13  1  0
 13 14  1  0
 13 15  1  0
 12 16  1  0
 16 17  1  0
  8  3  1  0
 17  9  1  0
  1 18  1  0
  1 19  1  0
  1 20  1  0
  4 21  1  0
  5 22  1  0
  6 23  1  0
  7 24  1  0
 10 25  1  0
 10 26  1  0
 11 27  1  0
 11 28  1  0
 13 29  1  0
 14 30  1  0
 14 31  1  0
 14 32  1  0
 15 33  1  0
 15 34  1  0
 15 35  1  0
 16 36  1  0
 16 37  1  0
 17 38  1  0
 17 39  1  0
M  END
>  <UniqueID>  (43) 
23

>  <SMILES>  (43) 
COc1ccccc1N1CCN(C(C)C)CC1

>  <Energy>  (43) 
50.22470896827241

>  <Genealogy>  (43) 
COc1ccccc1N1CCN(C(C)C)CC1 (3D coordinates assigned)
COc1ccccc1N1CCN(C(C)C)CC1 (nonaromatic ring conformer: 50.22470896827241 kcal/mol)

>  <smiles>  (43) 
COc1ccccc1N1CCN(C(C)C)CC1

>  <score_type>  (43) 
oracle

>  <origin>  (43) 
autodockgpu

>  <m_score__min__energy>  (43) 
-4.9400000000000004

>  <m_primary>  (43) 
energy

>  <meeko>  (43) 
{"free_energy": -4.94, "intermolecular_energy": -5.84, "internal_energy": -0.65, "cluster_size": 18, "cluster_id": 1, "rank_in_cluster": 2}

>  <energy>  (43) 
-4.94

>  <cluster_rmsd>  (43) 
0.02

>  <rmsd>  (43) 
273.2

>  <cluster>  (43) 
1

$$$$
LUCSOMIVZJTSBJ-UHFFFAOYNA-N
     RDKit          3D

 39 40  0  0  0  0  0  0  0  0999 V2000
  138.6640   74.3380  221.5410 C   0  0  0  0  0  0  0  0  0  0  0  0
  139.9800   74.4280  222.0790 O   0  0  0  0  0  0  0  0  0  0  0  0
  141.1580   74.2550  221.3360 C   0  0  0  0  0  0  0  0  0  0  0  0
  141.6980   72.9770  221.0880 C   0  0  0  0  0  0  0  0  0  0  0  0
  142.8870   72.8390  220.3670 C   0  0  0  0  0  0  0  0  0  0  0  0
  143.5480   73.9680  219.8860 C   0  0  0  0  0  0  0  0  0  0  0  0
  143.0220   75.2400  220.1200 C   0  0  0  0  0  0  0  0  0  0  0  0
  141.8270   75.3940  220.8410 C   0  0  0  0  0  0  0  0  0  0  0  0
  141.2900   76.7120  221.0530 N   0  0  0  0  0  0  0  0  0  0  0  0
  141.4320   77.7450  220.0220 C   0  0  0  0  0  0  0  0  0  0  0  0
  141.3700   79.1440  220.6460 C   0  0  0  0  0  0  0  0  0  0  0  0
  142.1250   79.1490  221.9210 N   0  0  0  0  0  0  0  0  0  0  0  0
  142.3770   80.5320  222.4270 C   0  0  0  0  0  0  0  0  0  0  0  0
  141.0750   81.3650  222.4690 C   0  0  0  0  0  0  0  0  0  0  0  0
  142.9680   80.5140  223.8530 C   0  0  0  0  0  0  0  0  0  0  0  0
  141.4270   78.3090  222.9360 C   0  0  0  0  0  0  0  0  0  0  0  0
  140.7040   77.0810  222.3430 C   0  0  0  0  0  0  0  0  0  0  0  0
  137.9345   74.2881  222.3628 H   0  0  0  0  0  0  0  0  0  0  0  0
  138.4594   75.2242  220.9224 H   0  0  0  0  0  0  0  0  0  0  0  0
  138.5819   73.4321  220.9224 H   0  0  0  0  0  0  0  0  0  0  0  0
  141.1802   72.0825  221.4644 H   0  0  0  0  0  0  0  0  0  0  0  0
  143.3020   71.8378  220.1787 H   0  0  0  0  0  0  0  0  0  0  0  0
  144.4854   73.8567  219.3213 H   0  0  0  0  0  0  0  0  0  0  0  0
  143.5472   76.1274  219.7370 H   0  0  0  0  0  0  0  0  0  0  0  0
  142.3997   77.6183  219.5145 H   0  0  0  0  0  0  0  0  0  0  0  0
  140.6074   77.6418  219.3014 H   0  0  0  0  0  0  0  0  0  0  0  0
  141.8142   79.8744  219.9538 H   0  0  0  0  0  0  0  0  0  0  0  0
  140.3212   79.4135  220.8394 H   0  0  0  0  0  0  0  0  0  0  0  0
  143.0940   80.9872  221.7279 H   0  0  0  0  0  0  0  0  0  0  0  0
  140.7900   81.5473  223.5157 H   0  0  0  0  0  0  0  0  0  0  0  0
  141.2384   82.3267  221.9606 H   0  0  0  0  0  0  0  0  0  0  0  0
  140.2704   80.8136  221.9606 H   0  0  0  0  0  0  0  0  0  0  0  0
  142.1508   80.5389  224.5889 H   0  0  0  0  0  0  0  0  0  0  0  0
  143.5598   79.5974  223.9931 H   0  0  0  0  0  0  0  0  0  0  0  0
  143.6145   81.3929  223.9931 H   0  0  0  0  0  0  0  0  0  0  0  0
  142.1722   77.9541  223.6632 H   0  0  0  0  0  0  0  0  0  0  0  0
  140.6544   78.9420  223.3968 H   0  0  0  0  0  0  0  0  0  0  0  0
  140.7992   76.2344  223.0388 H   0  0  0  0  0  0  0  0  0  0  0  0
  139.6437   77.3320  222.1924 H   0  0  0  0  0  0  0  0  0  0  0  0
  1  2  1  0
  2  3  1  0
  3  4  2  0
  4  5  1  0
  5  6  2  0
  6  7  1  0
  7  8  2  0
  8  9  1  0
  9 10  1  0
 10 11  1  0
 11 12  1  0
 12 13  1  0
 13 14  1  0
 13 15  1  0
 12 16  1  0
 16 17  1  0
  8  3  1  0
 17  9  1  0
  1 18  1  0
  1 19  1  0
  1 20  1  0
  4 21  1  0
  5 22  1  0
  6 23  1  0
  7 24  1  0
 10 25  1  0
 10 26  1  0
 11 27  1  0
 11 28  1  0
 13 29  1  0
 14 30  1  0
 14 31  1  0
 14 32  1  0
 15 33  1  0
 15 34  1  0
 15 35  1  0
 16 36  1  0
 16 37  1  0
 17 38  1  0
 17 39  1  0
M  END
>  <UniqueID>  (44) 
23

>  <SMILES>  (44) 
COc1ccccc1N1CCN(C(C)C)CC1

>  <Energy>  (44) 
50.22470896827241

>  <Genealogy>  (44) 
COc1ccccc1N1CCN(C(C)C)CC1 (3D coordinates assigned)
COc1ccccc1N1CCN(C(C)C)CC1 (nonaromatic ring conformer: 50.22470896827241 kcal/mol)

>  <smiles>  (44) 
COc1ccccc1N1CCN(C(C)C)CC1

>  <score_type>  (44) 
oracle

>  <origin>  (44) 
autodockgpu

>  <m_score__min__energy>  (44) 
-4.9400000000000004

>  <m_primary>  (44) 
energy

>  <meeko>  (44) 
{"free_energy": -4.94, "intermolecular_energy": -5.83, "internal_energy": -0.65, "cluster_size": 18, "cluster_id": 1, "rank_in_cluster": 7}

>  <energy>  (44) 
-4.94

>  <cluster_rmsd>  (44) 
0.02

>  <rmsd>  (44) 
273.2

>  <cluster>  (44) 
1

$$$$
LUCSOMIVZJTSBJ-UHFFFAOYNA-N
     RDKit          3D

 39 40  0  0  0  0  0  0  0  0999 V2000
  139.1840   73.3690  221.8780 C   0  0  0  0  0  0  0  0  0  0  0  0
  140.2460   74.3140  221.9680 O   0  0  0  0  0  0  0  0  0  0  0  0
  141.4370   74.2480  221.2280 C   0  0  0  0  0  0  0  0  0  0  0  0
  142.0670   73.0190  220.9440 C   0  0  0  0  0  0  0  0  0  0  0  0
  143.2650   72.9880  220.2270 C   0  0  0  0  0  0  0  0  0  0  0  0
  143.8470   74.1760  219.7840 C   0  0  0  0  0  0  0  0  0  0  0  0
  143.2310   75.4000  220.0540 C   0  0  0  0  0  0  0  0  0  0  0  0
  142.0250   75.4460  220.7720 C   0  0  0  0  0  0  0  0  0  0  0  0
  141.3950   76.7160  221.0210 N   0  0  0  0  0  0  0  0  0  0  0  0
  141.4610   77.7850  220.0190 C   0  0  0  0  0  0  0  0  0  0  0  0
  141.2990   79.1580  220.6820 C   0  0  0  0  0  0  0  0  0  0  0  0
  142.0530   79.1810  221.9570 N   0  0  0  0  0  0  0  0  0  0  0  0
  142.2060   80.5640  222.5030 C   0  0  0  0  0  0  0  0  0  0  0  0
  140.8330   81.2390  222.7250 C   0  0  0  0  0  0  0  0  0  0  0  0
  142.9510   80.5600  223.8550 C   0  0  0  0  0  0  0  0  0  0  0  0
  141.4190   78.2640  222.9480 C   0  0  0  0  0  0  0  0  0  0  0  0
  140.7860   77.0050  222.3200 C   0  0  0  0  0  0  0  0  0  0  0  0
  138.8617   73.0822  222.8899 H   0  0  0  0  0  0  0  0  0  0  0  0
  138.3381   73.8185  221.3373 H   0  0  0  0  0  0  0  0  0  0  0  0
  139.5322   72.4766  221.3373 H   0  0  0  0  0  0  0  0  0  0  0  0
  141.6121   72.0789  221.2893 H   0  0  0  0  0  0  0  0  0  0  0  0
  143.7507   72.0249  220.0111 H   0  0  0  0  0  0  0  0  0  0  0  0
  144.7919   74.1486  219.2215 H   0  0  0  0  0  0  0  0  0  0  0  0
  143.6934   76.3340  219.7020 H   0  0  0  0  0  0  0  0  0  0  0  0
  142.4347   77.7426  219.5090 H   0  0  0  0  0  0  0  0  0  0  0  0
  140.6452   77.6428  219.2949 H   0  0  0  0  0  0  0  0  0  0  0  0
  141.6887   79.9377  220.0111 H   0  0  0  0  0  0  0  0  0  0  0  0
  140.2338   79.3461  220.8817 H   0  0  0  0  0  0  0  0  0  0  0  0
  142.7862   81.1252  221.7557 H   0  0  0  0  0  0  0  0  0  0  0  0
  140.6410   81.3334  223.8040 H   0  0  0  0  0  0  0  0  0  0  0  0
  140.8368   82.2380  222.2645 H   0  0  0  0  0  0  0  0  0  0  0  0
  140.0443   80.6259  222.2645 H   0  0  0  0  0  0  0  0  0  0  0  0
  142.2197   80.5639  224.6767 H   0  0  0  0  0  0  0  0  0  0  0  0
  143.5773   79.6585  223.9259 H   0  0  0  0  0  0  0  0  0  0  0  0
  143.5869   81.4547  223.9259 H   0  0  0  0  0  0  0  0  0  0  0  0
  142.1891   77.9434  223.6651 H   0  0  0  0  0  0  0  0  0  0  0  0
  140.6036   78.8261  223.4266 H   0  0  0  0  0  0  0  0  0  0  0  0
  140.9429   76.1480  222.9916 H   0  0  0  0  0  0  0  0  0  0  0  0
  139.7101   77.1831  222.1757 H   0  0  0  0  0  0  0  0  0  0  0  0
  1  2  1  0
  2  3  1  0
  3  4  2  0
  4  5  1  0
  5  6  2  0
  6  7  1  0
  7  8  2  0
  8  9  1  0
  9 10  1  0
 10 11  1  0
 11 12  1  0
 12 13  1  0
 13 14  1  0
 13 15  1  0
 12 16  1  0
 16 17  1  0
  8  3  1  0
 17  9  1  0
  1 18  1  0
  1 19  1  0
  1 20  1  0
  4 21  1  0
  5 22  1  0
  6 23  1  0
  7 24  1  0
 10 25  1  0
 10 26  1  0
 11 27  1  0
 11 28  1  0
 13 29  1  0
 14 30  1  0
 14 31  1  0
 14 32  1  0
 15 33  1  0
 15 34  1  0
 15 35  1  0
 16 36  1  0
 16 37  1  0
 17 38  1  0
 17 39  1  0
M  END
>  <UniqueID>  (45) 
23

>  <SMILES>  (45) 
COc1ccccc1N1CCN(C(C)C)CC1

>  <Energy>  (45) 
50.22470896827241

>  <Genealogy>  (45) 
COc1ccccc1N1CCN(C(C)C)CC1 (3D coordinates assigned)
COc1ccccc1N1CCN(C(C)C)CC1 (nonaromatic ring conformer: 50.22470896827241 kcal/mol)

>  <smiles>  (45) 
COc1ccccc1N1CCN(C(C)C)CC1

>  <score_type>  (45) 
oracle

>  <origin>  (45) 
autodockgpu

>  <m_score__min__energy>  (45) 
-4.9400000000000004

>  <m_primary>  (45) 
energy

>  <meeko>  (45) 
{"free_energy": -4.93, "intermolecular_energy": -5.82, "internal_energy": -0.63, "cluster_size": 18, "cluster_id": 1, "rank_in_cluster": 13}

>  <energy>  (45) 
-4.94

>  <cluster_rmsd>  (45) 
0.03

>  <rmsd>  (45) 
273.21

>  <cluster>  (45) 
1

$$$$
LUCSOMIVZJTSBJ-UHFFFAOYNA-N
     RDKit          3D

 39 40  0  0  0  0  0  0  0  0999 V2000
  138.7250   74.4300  221.4320 C   0  0  0  0  0  0  0  0  0  0  0  0
  140.0270   74.3650  222.0050 O   0  0  0  0  0  0  0  0  0  0  0  0
  141.2170   74.2440  221.2690 C   0  0  0  0  0  0  0  0  0  0  0  0
  141.7930   72.9880  220.9910 C   0  0  0  0  0  0  0  0  0  0  0  0
  142.9910   72.9010  220.2780 C   0  0  0  0  0  0  0  0  0  0  0  0
  143.6260   74.0610  219.8350 C   0  0  0  0  0  0  0  0  0  0  0  0
  143.0640   75.3110  220.0990 C   0  0  0  0  0  0  0  0  0  0  0  0
  141.8590   75.4130  220.8120 C   0  0  0  0  0  0  0  0  0  0  0  0
  141.2850   76.7110  221.0550 N   0  0  0  0  0  0  0  0  0  0  0  0
  141.3830   77.7660  220.0420 C   0  0  0  0  0  0  0  0  0  0  0  0
  141.2870   79.1510  220.6930 C   0  0  0  0  0  0  0  0  0  0  0  0
  142.0560   79.1550  221.9590 N   0  0  0  0  0  0  0  0  0  0  0  0
  142.2730   80.5360  222.4880 C   0  0  0  0  0  0  0  0  0  0  0  0
  140.9380   81.3020  222.6320 C   0  0  0  0  0  0  0  0  0  0  0  0
  142.9500   80.5100  223.8750 C   0  0  0  0  0  0  0  0  0  0  0  0
  141.3970   78.2750  222.9660 C   0  0  0  0  0  0  0  0  0  0  0  0
  140.7050   77.0370  222.3580 C   0  0  0  0  0  0  0  0  0  0  0  0
  137.9730   74.4675  222.2339 H   0  0  0  0  0  0  0  0  0  0  0  0
  138.6429   75.3334  220.8098 H   0  0  0  0  0  0  0  0  0  0  0  0
  138.5534   73.5393  220.8098 H   0  0  0  0  0  0  0  0  0  0  0  0
  141.2958   72.0701  221.3378 H   0  0  0  0  0  0  0  0  0  0  0  0
  143.4339   71.9168  220.0657 H   0  0  0  0  0  0  0  0  0  0  0  0
  144.5712   73.9907  219.2767 H   0  0  0  0  0  0  0  0  0  0  0  0
  143.5687   76.2224  219.7460 H   0  0  0  0  0  0  0  0  0  0  0  0
  142.3476   77.6779  219.5206 H   0  0  0  0  0  0  0  0  0  0  0  0
  140.5529   77.6512  219.3294 H   0  0  0  0  0  0  0  0  0  0  0  0
  141.7013   79.9070  220.0097 H   0  0  0  0  0  0  0  0  0  0  0  0
  140.2330   79.3856  220.9030 H   0  0  0  0  0  0  0  0  0  0  0  0
  142.9233   81.0439  221.7606 H   0  0  0  0  0  0  0  0  0  0  0  0
  140.7051   81.4356  223.6987 H   0  0  0  0  0  0  0  0  0  0  0  0
  141.0264   82.2867  222.1499 H   0  0  0  0  0  0  0  0  0  0  0  0
  140.1325   80.7287  222.1499 H   0  0  0  0  0  0  0  0  0  0  0  0
  142.1796   80.5396  224.6596 H   0  0  0  0  0  0  0  0  0  0  0  0
  143.5419   79.5885  223.9769 H   0  0  0  0  0  0  0  0  0  0  0  0
  143.6109   81.3834  223.9769 H   0  0  0  0  0  0  0  0  0  0  0  0
  142.1617   77.9297  223.6773 H   0  0  0  0  0  0  0  0  0  0  0  0
  140.6112   78.8749  223.4483 H   0  0  0  0  0  0  0  0  0  0  0  0
  140.8351   76.1807  223.0361 H   0  0  0  0  0  0  0  0  0  0  0  0
  139.6357   77.2580  222.2250 H   0  0  0  0  0  0  0  0  0  0  0  0
  1  2  1  0
  2  3  1  0
  3  4  2  0
  4  5  1  0
  5  6  2  0
  6  7  1  0
  7  8  2  0
  8  9  1  0
  9 10  1  0
 10 11  1  0
 11 12  1  0
 12 13  1  0
 13 14  1  0
 13 15  1  0
 12 16  1  0
 16 17  1  0
  8  3  1  0
 17  9  1  0
  1 18  1  0
  1 19  1  0
  1 20  1  0
  4 21  1  0
  5 22  1  0
  6 23  1  0
  7 24  1  0
 10 25  1  0
 10 26  1  0
 11 27  1  0
 11 28  1  0
 13 29  1  0
 14 30  1  0
 14 31  1  0
 14 32  1  0
 15 33  1  0
 15 34  1  0
 15 35  1  0
 16 36  1  0
 16 37  1  0
 17 38  1  0
 17 39  1  0
M  END
>  <UniqueID>  (46) 
23

>  <SMILES>  (46) 
COc1ccccc1N1CCN(C(C)C)CC1

>  <Energy>  (46) 
50.22470896827241

>  <Genealogy>  (46) 
COc1ccccc1N1CCN(C(C)C)CC1 (3D coordinates assigned)
COc1ccccc1N1CCN(C(C)C)CC1 (nonaromatic ring conformer: 50.22470896827241 kcal/mol)

>  <smiles>  (46) 
COc1ccccc1N1CCN(C(C)C)CC1

>  <score_type>  (46) 
oracle

>  <origin>  (46) 
autodockgpu

>  <m_score__min__energy>  (46) 
-4.9400000000000004

>  <m_primary>  (46) 
energy

>  <meeko>  (46) 
{"free_energy": -4.92, "intermolecular_energy": -5.82, "internal_energy": -0.66, "cluster_size": 18, "cluster_id": 1, "rank_in_cluster": 15}

>  <energy>  (46) 
-4.94

>  <cluster_rmsd>  (46) 
0.02

>  <rmsd>  (46) 
273.2

>  <cluster>  (46) 
1

$$$$
LUCSOMIVZJTSBJ-UHFFFAOYNA-N
     RDKit          3D

 39 40  0  0  0  0  0  0  0  0999 V2000
  138.6730   74.4700  221.5130 C   0  0  0  0  0  0  0  0  0  0  0  0
  139.9810   74.4230  222.0740 O   0  0  0  0  0  0  0  0  0  0  0  0
  141.1610   74.2610  221.3320 C   0  0  0  0  0  0  0  0  0  0  0  0
  141.7090   72.9880  221.0770 C   0  0  0  0  0  0  0  0  0  0  0  0
  142.9000   72.8610  220.3570 C   0  0  0  0  0  0  0  0  0  0  0  0
  143.5550   73.9970  219.8830 C   0  0  0  0  0  0  0  0  0  0  0  0
  143.0210   75.2650  220.1240 C   0  0  0  0  0  0  0  0  0  0  0  0
  141.8230   75.4070  220.8440 C   0  0  0  0  0  0  0  0  0  0  0  0
  141.2780   76.7210  221.0630 N   0  0  0  0  0  0  0  0  0  0  0  0
  141.4080   77.7580  220.0350 C   0  0  0  0  0  0  0  0  0  0  0  0
  141.3400   79.1540  220.6640 C   0  0  0  0  0  0  0  0  0  0  0  0
  142.1000   79.1600  221.9360 N   0  0  0  0  0  0  0  0  0  0  0  0
  142.3440   80.5440  222.4460 C   0  0  0  0  0  0  0  0  0  0  0  0
  141.0370   81.3680  222.4940 C   0  0  0  0  0  0  0  0  0  0  0  0
  142.9380   80.5240  223.8700 C   0  0  0  0  0  0  0  0  0  0  0  0
  141.4120   78.3110  222.9510 C   0  0  0  0  0  0  0  0  0  0  0  0
  140.6960   77.0810  222.3570 C   0  0  0  0  0  0  0  0  0  0  0  0
  137.9279   74.4968  222.3218 H   0  0  0  0  0  0  0  0  0  0  0  0
  138.5726   75.3723  220.8919 H   0  0  0  0  0  0  0  0  0  0  0  0
  138.5081   73.5772  220.8919 H   0  0  0  0  0  0  0  0  0  0  0  0
  141.1958   72.0882  221.4472 H   0  0  0  0  0  0  0  0  0  0  0  0
  143.3213   71.8634  220.1639 H   0  0  0  0  0  0  0  0  0  0  0  0
  144.4935   73.8945  219.3185 H   0  0  0  0  0  0  0  0  0  0  0  0
  143.5417   76.1579  219.7477 H   0  0  0  0  0  0  0  0  0  0  0  0
  142.3739   77.6394  219.5222 H   0  0  0  0  0  0  0  0  0  0  0  0
  140.5805   77.6518  219.3181 H   0  0  0  0  0  0  0  0  0  0  0  0
  141.7767   79.8895  219.9724 H   0  0  0  0  0  0  0  0  0  0  0  0
  140.2903   79.4160  220.8627 H   0  0  0  0  0  0  0  0  0  0  0  0
  143.0558   81.0069  221.7467 H   0  0  0  0  0  0  0  0  0  0  0  0
  140.7542   81.5463  223.5420 H   0  0  0  0  0  0  0  0  0  0  0  0
  141.1924   82.3318  221.9871 H   0  0  0  0  0  0  0  0  0  0  0  0
  140.2344   80.8123  221.9871 H   0  0  0  0  0  0  0  0  0  0  0  0
  142.1226   80.5515  224.6078 H   0  0  0  0  0  0  0  0  0  0  0  0
  143.5272   79.6055  224.0086 H   0  0  0  0  0  0  0  0  0  0  0  0
  143.5876   81.4008  224.0086 H   0  0  0  0  0  0  0  0  0  0  0  0
  142.1627   77.9589  223.6738 H   0  0  0  0  0  0  0  0  0  0  0  0
  140.6367   78.9368  223.4172 H   0  0  0  0  0  0  0  0  0  0  0  0
  140.8008   76.2325  223.0491 H   0  0  0  0  0  0  0  0  0  0  0  0
  139.6332   77.3250  222.2122 H   0  0  0  0  0  0  0  0  0  0  0  0
  1  2  1  0
  2  3  1  0
  3  4  2  0
  4  5  1  0
  5  6  2  0
  6  7  1  0
  7  8  2  0
  8  9  1  0
  9 10  1  0
 10 11  1  0
 11 12  1  0
 12 13  1  0
 13 14  1  0
 13 15  1  0
 12 16  1  0
 16 17  1  0
  8  3  1  0
 17  9  1  0
  1 18  1  0
  1 19  1  0
  1 20  1  0
  4 21  1  0
  5 22  1  0
  6 23  1  0
  7 24  1  0
 10 25  1  0
 10 26  1  0
 11 27  1  0
 11 28  1  0
 13 29  1  0
 14 30  1  0
 14 31  1  0
 14 32  1  0
 15 33  1  0
 15 34  1  0
 15 35  1  0
 16 36  1  0
 16 37  1  0
 17 38  1  0
 17 39  1  0
M  END
>  <UniqueID>  (47) 
23

>  <SMILES>  (47) 
COc1ccccc1N1CCN(C(C)C)CC1

>  <Energy>  (47) 
50.22470896827241

>  <Genealogy>  (47) 
COc1ccccc1N1CCN(C(C)C)CC1 (3D coordinates assigned)
COc1ccccc1N1CCN(C(C)C)CC1 (nonaromatic ring conformer: 50.22470896827241 kcal/mol)

>  <smiles>  (47) 
COc1ccccc1N1CCN(C(C)C)CC1

>  <score_type>  (47) 
oracle

>  <origin>  (47) 
autodockgpu

>  <m_score__min__energy>  (47) 
-4.9400000000000004

>  <m_primary>  (47) 
energy

>  <meeko>  (47) 
{"free_energy": -4.93, "intermolecular_energy": -5.83, "internal_energy": -0.66, "cluster_size": 18, "cluster_id": 1, "rank_in_cluster": 10}

>  <energy>  (47) 
-4.94

>  <cluster_rmsd>  (47) 
0.03

>  <rmsd>  (47) 
273.2

>  <cluster>  (47) 
1

$$$$
LUCSOMIVZJTSBJ-UHFFFAOYNA-N
     RDKit          3D

 39 40  0  0  0  0  0  0  0  0999 V2000
  142.1730   79.6130  218.8110 C   0  0  0  0  0  0  0  0  0  0  0  0
  141.2860   79.2370  219.8600 O   0  0  0  0  0  0  0  0  0  0  0  0
  141.5740   79.3580  221.2290 C   0  0  0  0  0  0  0  0  0  0  0  0
  142.2060   80.5020  221.7560 C   0  0  0  0  0  0  0  0  0  0  0  0
  142.5030   80.5810  223.1190 C   0  0  0  0  0  0  0  0  0  0  0  0
  142.1730   79.5250  223.9690 C   0  0  0  0  0  0  0  0  0  0  0  0
  141.5430   78.3880  223.4600 C   0  0  0  0  0  0  0  0  0  0  0  0
  141.2360   78.2960  222.0930 C   0  0  0  0  0  0  0  0  0  0  0  0
  140.5670   77.1240  221.5930 N   0  0  0  0  0  0  0  0  0  0  0  0
  139.2740   76.7140  222.1500 C   0  0  0  0  0  0  0  0  0  0  0  0
  139.0520   75.2100  221.9520 C   0  0  0  0  0  0  0  0  0  0  0  0
  140.3200   74.4870  222.2030 N   0  0  0  0  0  0  0  0  0  0  0  0
  140.1180   73.0130  222.3380 C   0  0  0  0  0  0  0  0  0  0  0  0
  138.6790   72.6020  221.9480 C   0  0  0  0  0  0  0  0  0  0  0  0
  141.0910   72.2230  221.4380 C   0  0  0  0  0  0  0  0  0  0  0  0
  141.3180   74.8120  221.1430 C   0  0  0  0  0  0  0  0  0  0  0  0
  141.2160   76.2570  220.6100 C   0  0  0  0  0  0  0  0  0  0  0  0
  143.1046   80.0079  219.2425 H   0  0  0  0  0  0  0  0  0  0  0  0
  142.4003   78.7338  218.1902 H   0  0  0  0  0  0  0  0  0  0  0  0
  141.6992   80.3877  218.1902 H   0  0  0  0  0  0  0  0  0  0  0  0
  142.4671   81.3378  221.0903 H   0  0  0  0  0  0  0  0  0  0  0  0
  142.9976   81.4769  223.5224 H   0  0  0  0  0  0  0  0  0  0  0  0
  142.4095   79.5884  225.0414 H   0  0  0  0  0  0  0  0  0  0  0  0
  141.2853   77.5583  224.1347 H   0  0  0  0  0  0  0  0  0  0  0  0
  139.2549   76.9434  223.2256 H   0  0  0  0  0  0  0  0  0  0  0  0
  138.4746   77.2614  221.6292 H   0  0  0  0  0  0  0  0  0  0  0  0
  138.2832   74.8571  222.6551 H   0  0  0  0  0  0  0  0  0  0  0  0
  138.7198   75.0208  220.9206 H   0  0  0  0  0  0  0  0  0  0  0  0
  140.3060   72.7744  223.3952 H   0  0  0  0  0  0  0  0  0  0  0  0
  138.0864   72.4327  222.8591 H   0  0  0  0  0  0  0  0  0  0  0  0
  138.2169   73.4041  221.3537 H   0  0  0  0  0  0  0  0  0  0  0  0
  138.7102   71.6769  221.3537 H   0  0  0  0  0  0  0  0  0  0  0  0
  141.7918   71.6540  222.0665 H   0  0  0  0  0  0  0  0  0  0  0  0
  140.5213   71.5287  220.8029 H   0  0  0  0  0  0  0  0  0  0  0  0
  141.6535   72.9232  220.8029 H   0  0  0  0  0  0  0  0  0  0  0  0
  142.3256   74.6668  221.5597 H   0  0  0  0  0  0  0  0  0  0  0  0
  141.1117   74.1433  220.2943 H   0  0  0  0  0  0  0  0  0  0  0  0
  142.2269   76.6382  220.4034 H   0  0  0  0  0  0  0  0  0  0  0  0
  140.6149   76.2534  219.6888 H   0  0  0  0  0  0  0  0  0  0  0  0
  1  2  1  0
  2  3  1  0
  3  4  2  0
  4  5  1  0
  5  6  2  0
  6  7  1  0
  7  8  2  0
  8  9  1  0
  9 10  1  0
 10 11  1  0
 11 12  1  0
 12 13  1  0
 13 14  1  0
 13 15  1  0
 12 16  1  0
 16 17  1  0
  8  3  1  0
 17  9  1  0
  1 18  1  0
  1 19  1  0
  1 20  1  0
  4 21  1  0
  5 22  1  0
  6 23  1  0
  7 24  1  0
 10 25  1  0
 10 26  1  0
 11 27  1  0
 11 28  1  0
 13 29  1  0
 14 30  1  0
 14 31  1  0
 14 32  1  0
 15 33  1  0
 15 34  1  0
 15 35  1  0
 16 36  1  0
 16 37  1  0
 17 38  1  0
 17 39  1  0
M  END
>  <UniqueID>  (48) 
23

>  <SMILES>  (48) 
COc1ccccc1N1CCN(C(C)C)CC1

>  <Energy>  (48) 
50.22470896827241

>  <Genealogy>  (48) 
COc1ccccc1N1CCN(C(C)C)CC1 (3D coordinates assigned)
COc1ccccc1N1CCN(C(C)C)CC1 (nonaromatic ring conformer: 50.22470896827241 kcal/mol)

>  <smiles>  (48) 
COc1ccccc1N1CCN(C(C)C)CC1

>  <score_type>  (48) 
oracle

>  <origin>  (48) 
autodockgpu

>  <m_score__min__energy>  (48) 
-4.9400000000000004

>  <m_primary>  (48) 
energy

>  <meeko>  (48) 
{"free_energy": -4.83, "intermolecular_energy": -5.72, "internal_energy": -0.71, "cluster_size": 2, "cluster_id": 2, "rank_in_cluster": 2}

>  <energy>  (48) 
-4.94

>  <cluster_rmsd>  (48) 
0.02

>  <rmsd>  (48) 
273.2

>  <cluster>  (48) 
1

$$$$
LUCSOMIVZJTSBJ-UHFFFAOYNA-N
     RDKit          3D

 39 40  0  0  0  0  0  0  0  0999 V2000
  138.7960   73.9960  221.5490 C   0  0  0  0  0  0  0  0  0  0  0  0
  140.0880   74.3490  222.0330 O   0  0  0  0  0  0  0  0  0  0  0  0
  141.2740   74.2440  221.2890 C   0  0  0  0  0  0  0  0  0  0  0  0
  141.8690   72.9960  221.0140 C   0  0  0  0  0  0  0  0  0  0  0  0
  143.0640   72.9260  220.2930 C   0  0  0  0  0  0  0  0  0  0  0  0
  143.6760   74.0930  219.8400 C   0  0  0  0  0  0  0  0  0  0  0  0
  143.0960   75.3360  220.1010 C   0  0  0  0  0  0  0  0  0  0  0  0
  141.8930   75.4210  220.8220 C   0  0  0  0  0  0  0  0  0  0  0  0
  141.3000   76.7100  221.0630 N   0  0  0  0  0  0  0  0  0  0  0  0
  141.4010   77.7720  220.0560 C   0  0  0  0  0  0  0  0  0  0  0  0
  141.2770   79.1520  220.7120 C   0  0  0  0  0  0  0  0  0  0  0  0
  142.0270   79.1590  221.9900 N   0  0  0  0  0  0  0  0  0  0  0  0
  142.2170   80.5400  222.5300 C   0  0  0  0  0  0  0  0  0  0  0  0
  140.8630   81.2480  222.7630 C   0  0  0  0  0  0  0  0  0  0  0  0
  142.9740   80.5220  223.8750 C   0  0  0  0  0  0  0  0  0  0  0  0
  141.3620   78.2660  222.9830 C   0  0  0  0  0  0  0  0  0  0  0  0
  140.6950   77.0230  222.3580 C   0  0  0  0  0  0  0  0  0  0  0  0
  138.1234   73.8122  222.3997 H   0  0  0  0  0  0  0  0  0  0  0  0
  138.3966   74.8180  220.9367 H   0  0  0  0  0  0  0  0  0  0  0  0
  138.8701   73.0852  220.9367 H   0  0  0  0  0  0  0  0  0  0  0  0
  141.3898   72.0717  221.3691 H   0  0  0  0  0  0  0  0  0  0  0  0
  143.5222   71.9483  220.0828 H   0  0  0  0  0  0  0  0  0  0  0  0
  144.6183   74.0349  219.2754 H   0  0  0  0  0  0  0  0  0  0  0  0
  143.5835   76.2537  219.7402 H   0  0  0  0  0  0  0  0  0  0  0  0
  142.3749   77.6987  219.5498 H   0  0  0  0  0  0  0  0  0  0  0  0
  140.5841   77.6503  219.3295 H   0  0  0  0  0  0  0  0  0  0  0  0
  141.6918   79.9168  220.0390 H   0  0  0  0  0  0  0  0  0  0  0  0
  140.2170   79.3721  220.9070 H   0  0  0  0  0  0  0  0  0  0  0  0
  142.8026   81.0852  221.7751 H   0  0  0  0  0  0  0  0  0  0  0  0
  140.6803   81.3435  223.8435 H   0  0  0  0  0  0  0  0  0  0  0  0
  140.8887   82.2481  222.3057 H   0  0  0  0  0  0  0  0  0  0  0  0
  140.0563   80.6563  222.3057 H   0  0  0  0  0  0  0  0  0  0  0  0
  142.2504   80.5392  224.7033 H   0  0  0  0  0  0  0  0  0  0  0  0
  143.5842   79.6091  223.9401 H   0  0  0  0  0  0  0  0  0  0  0  0
  143.6269   81.4049  223.9401 H   0  0  0  0  0  0  0  0  0  0  0  0
  142.1192   77.9265  223.7051 H   0  0  0  0  0  0  0  0  0  0  0  0
  140.5615   78.8542  223.4555 H   0  0  0  0  0  0  0  0  0  0  0  0
  140.8242   76.1650  223.0342 H   0  0  0  0  0  0  0  0  0  0  0  0
  139.6255   77.2321  222.2084 H   0  0  0  0  0  0  0  0  0  0  0  0
  1  2  1  0
  2  3  1  0
  3  4  2  0
  4  5  1  0
  5  6  2  0
  6  7  1  0
  7  8  2  0
  8  9  1  0
  9 10  1  0
 10 11  1  0
 11 12  1  0
 12 13  1  0
 13 14  1  0
 13 15  1  0
 12 16  1  0
 16 17  1  0
  8  3  1  0
 17  9  1  0
  1 18  1  0
  1 19  1  0
  1 20  1  0
  4 21  1  0
  5 22  1  0
  6 23  1  0
  7 24  1  0
 10 25  1  0
 10 26  1  0
 11 27  1  0
 11 28  1  0
 13 29  1  0
 14 30  1  0
 14 31  1  0
 14 32  1  0
 15 33  1  0
 15 34  1  0
 15 35  1  0
 16 36  1  0
 16 37  1  0
 17 38  1  0
 17 39  1  0
M  END
>  <UniqueID>  (49) 
23

>  <SMILES>  (49) 
COc1ccccc1N1CCN(C(C)C)CC1

>  <Energy>  (49) 
50.22470896827241

>  <Genealogy>  (49) 
COc1ccccc1N1CCN(C(C)C)CC1 (3D coordinates assigned)
COc1ccccc1N1CCN(C(C)C)CC1 (nonaromatic ring conformer: 50.22470896827241 kcal/mol)

>  <smiles>  (49) 
COc1ccccc1N1CCN(C(C)C)CC1

>  <score_type>  (49) 
oracle

>  <origin>  (49) 
autodockgpu

>  <m_score__min__energy>  (49) 
-4.9400000000000004

>  <m_primary>  (49) 
energy

>  <meeko>  (49) 
{"free_energy": -4.93, "intermolecular_energy": -5.83, "internal_energy": -0.64, "cluster_size": 18, "cluster_id": 1, "rank_in_cluster": 11}

>  <energy>  (49) 
-4.93

>  <cluster_rmsd>  (49) 
0.02

>  <rmsd>  (49) 
273.21

>  <cluster>  (49) 
1

$$$$
LUCSOMIVZJTSBJ-UHFFFAOYNA-N
     RDKit          3D

 39 40  0  0  0  0  0  0  0  0999 V2000
  138.6840   74.4790  221.4700 C   0  0  0  0  0  0  0  0  0  0  0  0
  139.9830   74.3940  222.0480 O   0  0  0  0  0  0  0  0  0  0  0  0
  141.1720   74.2360  221.3180 C   0  0  0  0  0  0  0  0  0  0  0  0
  141.7220   72.9630  221.0610 C   0  0  0  0  0  0  0  0  0  0  0  0
  142.9200   72.8400  220.3530 C   0  0  0  0  0  0  0  0  0  0  0  0
  143.5810   73.9790  219.8940 C   0  0  0  0  0  0  0  0  0  0  0  0
  143.0450   75.2450  220.1370 C   0  0  0  0  0  0  0  0  0  0  0  0
  141.8400   75.3840  220.8450 C   0  0  0  0  0  0  0  0  0  0  0  0
  141.2940   76.6970  221.0670 N   0  0  0  0  0  0  0  0  0  0  0  0
  141.4080   77.7310  220.0330 C   0  0  0  0  0  0  0  0  0  0  0  0
  141.3430   79.1290  220.6590 C   0  0  0  0  0  0  0  0  0  0  0  0
  142.1180   79.1420  221.9210 N   0  0  0  0  0  0  0  0  0  0  0  0
  142.3650   80.5270  222.4240 C   0  0  0  0  0  0  0  0  0  0  0  0
  141.0620   81.3590  222.4500 C   0  0  0  0  0  0  0  0  0  0  0  0
  142.9430   80.5160  223.8540 C   0  0  0  0  0  0  0  0  0  0  0  0
  141.4460   78.2940  222.9470 C   0  0  0  0  0  0  0  0  0  0  0  0
  140.7260   77.0590  222.3660 C   0  0  0  0  0  0  0  0  0  0  0  0
  137.9296   74.5284  222.2691 H   0  0  0  0  0  0  0  0  0  0  0  0
  138.6182   75.3834  220.8473 H   0  0  0  0  0  0  0  0  0  0  0  0
  138.5009   73.5909  220.8473 H   0  0  0  0  0  0  0  0  0  0  0  0
  141.2044   72.0613  221.4203 H   0  0  0  0  0  0  0  0  0  0  0  0
  143.3425   71.8434  220.1573 H   0  0  0  0  0  0  0  0  0  0  0  0
  144.5260   73.8798  219.3397 H   0  0  0  0  0  0  0  0  0  0  0  0
  143.5701   76.1398  219.7714 H   0  0  0  0  0  0  0  0  0  0  0  0
  142.3679   77.6138  219.5088 H   0  0  0  0  0  0  0  0  0  0  0  0
  140.5726   77.6196  219.3262 H   0  0  0  0  0  0  0  0  0  0  0  0
  141.7687   79.8638  219.9598 H   0  0  0  0  0  0  0  0  0  0  0  0
  140.2949   79.3876  220.8700 H   0  0  0  0  0  0  0  0  0  0  0  0
  143.0887   80.9795  221.7301 H   0  0  0  0  0  0  0  0  0  0  0  0
  140.7677   81.5469  223.4931 H   0  0  0  0  0  0  0  0  0  0  0  0
  141.2290   82.3180  221.9377 H   0  0  0  0  0  0  0  0  0  0  0  0
  140.2623   80.8040  221.9377 H   0  0  0  0  0  0  0  0  0  0  0  0
  142.1191   80.5317  224.5826 H   0  0  0  0  0  0  0  0  0  0  0  0
  143.5440   79.6063  223.9996 H   0  0  0  0  0  0  0  0  0  0  0  0
  143.5781   81.4022  223.9996 H   0  0  0  0  0  0  0  0  0  0  0  0
  142.2071   77.9466  223.6612 H   0  0  0  0  0  0  0  0  0  0  0  0
  140.6746   78.9187  223.4210 H   0  0  0  0  0  0  0  0  0  0  0  0
  140.8416   76.2132  223.0597 H   0  0  0  0  0  0  0  0  0  0  0  0
  139.6606   77.2987  222.2334 H   0  0  0  0  0  0  0  0  0  0  0  0
  1  2  1  0
  2  3  1  0
  3  4  2  0
  4  5  1  0
  5  6  2  0
  6  7  1  0
  7  8  2  0
  8  9  1  0
  9 10  1  0
 10 11  1  0
 11 12  1  0
 12 13  1  0
 13 14  1  0
 13 15  1  0
 12 16  1  0
 16 17  1  0
  8  3  1  0
 17  9  1  0
  1 18  1  0
  1 19  1  0
  1 20  1  0
  4 21  1  0
  5 22  1  0
  6 23  1  0
  7 24  1  0
 10 25  1  0
 10 26  1  0
 11 27  1  0
 11 28  1  0
 13 29  1  0
 14 30  1  0
 14 31  1  0
 14 32  1  0
 15 33  1  0
 15 34  1  0
 15 35  1  0
 16 36  1  0
 16 37  1  0
 17 38  1  0
 17 39  1  0
M  END
>  <UniqueID>  (50) 
23

>  <SMILES>  (50) 
COc1ccccc1N1CCN(C(C)C)CC1

>  <Energy>  (50) 
50.22470896827241

>  <Genealogy>  (50) 
COc1ccccc1N1CCN(C(C)C)CC1 (3D coordinates assigned)
COc1ccccc1N1CCN(C(C)C)CC1 (nonaromatic ring conformer: 50.22470896827241 kcal/mol)

>  <smiles>  (50) 
COc1ccccc1N1CCN(C(C)C)CC1

>  <score_type>  (50) 
oracle

>  <origin>  (50) 
autodockgpu

>  <m_score__min__energy>  (50) 
-4.9400000000000004

>  <m_primary>  (50) 
energy

>  <meeko>  (50) 
{"free_energy": -4.92, "intermolecular_energy": -5.82, "internal_energy": -0.67, "cluster_size": 18, "cluster_id": 1, "rank_in_cluster": 17}

>  <energy>  (50) 
-4.93

>  <cluster_rmsd>  (50) 
0.04

>  <rmsd>  (50) 
273.2

>  <cluster>  (50) 
1

$$$$
LUCSOMIVZJTSBJ-UHFFFAOYNA-N
     RDKit          3D

 39 40  0  0  0  0  0  0  0  0999 V2000
  138.6680   74.4630  221.5450 C   0  0  0  0  0  0  0  0  0  0  0  0
  139.9790   74.4330  222.0980 O   0  0  0  0  0  0  0  0  0  0  0  0
  141.1550   74.2550  221.3520 C   0  0  0  0  0  0  0  0  0  0  0  0
  141.6940   72.9750  221.1090 C   0  0  0  0  0  0  0  0  0  0  0  0
  142.8800   72.8330  220.3850 C   0  0  0  0  0  0  0  0  0  0  0  0
  143.5400   73.9600  219.8950 C   0  0  0  0  0  0  0  0  0  0  0  0
  143.0150   75.2330  220.1250 C   0  0  0  0  0  0  0  0  0  0  0  0
  141.8220   75.3910  220.8490 C   0  0  0  0  0  0  0  0  0  0  0  0
  141.2870   76.7110  221.0560 N   0  0  0  0  0  0  0  0  0  0  0  0
  141.4280   77.7390  220.0200 C   0  0  0  0  0  0  0  0  0  0  0  0
  141.3680   79.1410  220.6380 C   0  0  0  0  0  0  0  0  0  0  0  0
  142.1240   79.1510  221.9120 N   0  0  0  0  0  0  0  0  0  0  0  0
  142.3780   80.5360  222.4120 C   0  0  0  0  0  0  0  0  0  0  0  0
  141.0810   81.3770  222.4320 C   0  0  0  0  0  0  0  0  0  0  0  0
  142.9510   80.5240  223.8450 C   0  0  0  0  0  0  0  0  0  0  0  0
  141.4270   78.3150  222.9310 C   0  0  0  0  0  0  0  0  0  0  0  0
  140.7030   77.0850  222.3440 C   0  0  0  0  0  0  0  0  0  0  0  0
  137.9274   74.4799  222.3581 H   0  0  0  0  0  0  0  0  0  0  0  0
  138.5522   75.3640  220.9247 H   0  0  0  0  0  0  0  0  0  0  0  0
  138.5111   73.5682  220.9247 H   0  0  0  0  0  0  0  0  0  0  0  0
  141.1773   72.0826  221.4920 H   0  0  0  0  0  0  0  0  0  0  0  0
  143.2943   71.8308  220.2009 H   0  0  0  0  0  0  0  0  0  0  0  0
  144.4749   73.8456  219.3269 H   0  0  0  0  0  0  0  0  0  0  0  0
  143.5394   76.1184  219.7364 H   0  0  0  0  0  0  0  0  0  0  0  0
  142.3947   77.6093  219.5115 H   0  0  0  0  0  0  0  0  0  0  0  0
  140.6022   77.6331  219.3011 H   0  0  0  0  0  0  0  0  0  0  0  0
  141.8122   79.8679  219.9421 H   0  0  0  0  0  0  0  0  0  0  0  0
  140.3196   79.4124  220.8312 H   0  0  0  0  0  0  0  0  0  0  0  0
  143.1064   80.9822  221.7189 H   0  0  0  0  0  0  0  0  0  0  0  0
  140.7846   81.5692  223.4738 H   0  0  0  0  0  0  0  0  0  0  0  0
  141.2564   82.3337  221.9182 H   0  0  0  0  0  0  0  0  0  0  0  0
  140.2791   80.8265  221.9182 H   0  0  0  0  0  0  0  0  0  0  0  0
  142.1244   80.5413  224.5706 H   0  0  0  0  0  0  0  0  0  0  0  0
  143.5497   79.6131  223.9929 H   0  0  0  0  0  0  0  0  0  0  0  0
  143.5873   81.4090  223.9929 H   0  0  0  0  0  0  0  0  0  0  0  0
  142.1730   77.9628  223.6586 H   0  0  0  0  0  0  0  0  0  0  0  0
  140.6550   78.9500  223.3901 H   0  0  0  0  0  0  0  0  0  0  0  0
  140.7987   76.2412  223.0432 H   0  0  0  0  0  0  0  0  0  0  0  0
  139.6425   77.3356  222.1936 H   0  0  0  0  0  0  0  0  0  0  0  0
  1  2  1  0
  2  3  1  0
  3  4  2  0
  4  5  1  0
  5  6  2  0
  6  7  1  0
  7  8  2  0
  8  9  1  0
  9 10  1  0
 10 11  1  0
 11 12  1  0
 12 13  1  0
 13 14  1  0
 13 15  1  0
 12 16  1  0
 16 17  1  0
  8  3  1  0
 17  9  1  0
  1 18  1  0
  1 19  1  0
  1 20  1  0
  4 21  1  0
  5 22  1  0
  6 23  1  0
  7 24  1  0
 10 25  1  0
 10 26  1  0
 11 27  1  0
 11 28  1  0
 13 29  1  0
 14 30  1  0
 14 31  1  0
 14 32  1  0
 15 33  1  0
 15 34  1  0
 15 35  1  0
 16 36  1  0
 16 37  1  0
 17 38  1  0
 17 39  1  0
M  END
>  <UniqueID>  (51) 
23

>  <SMILES>  (51) 
COc1ccccc1N1CCN(C(C)C)CC1

>  <Energy>  (51) 
50.22470896827241

>  <Genealogy>  (51) 
COc1ccccc1N1CCN(C(C)C)CC1 (3D coordinates assigned)
COc1ccccc1N1CCN(C(C)C)CC1 (nonaromatic ring conformer: 50.22470896827241 kcal/mol)

>  <smiles>  (51) 
COc1ccccc1N1CCN(C(C)C)CC1

>  <score_type>  (51) 
oracle

>  <origin>  (51) 
autodockgpu

>  <m_score__min__energy>  (51) 
-4.9400000000000004

>  <m_primary>  (51) 
energy

>  <meeko>  (51) 
{"free_energy": -4.94, "intermolecular_energy": -5.84, "internal_energy": -0.65, "cluster_size": 18, "cluster_id": 1, "rank_in_cluster": 1}

>  <energy>  (51) 
-4.93

>  <cluster_rmsd>  (51) 
0.2

>  <rmsd>  (51) 
273.22

>  <cluster>  (51) 
1

$$$$
LUCSOMIVZJTSBJ-UHFFFAOYNA-N
     RDKit          3D

 39 40  0  0  0  0  0  0  0  0999 V2000
  138.6740   74.4710  221.5310 C   0  0  0  0  0  0  0  0  0  0  0  0
  139.9840   74.4190  222.0860 O   0  0  0  0  0  0  0  0  0  0  0  0
  141.1600   74.2530  221.3380 C   0  0  0  0  0  0  0  0  0  0  0  0
  141.7050   72.9780  221.0850 C   0  0  0  0  0  0  0  0  0  0  0  0
  142.8920   72.8470  220.3590 C   0  0  0  0  0  0  0  0  0  0  0  0
  143.5460   73.9810  219.8780 C   0  0  0  0  0  0  0  0  0  0  0  0
  143.0150   75.2500  220.1180 C   0  0  0  0  0  0  0  0  0  0  0  0
  141.8220   75.3960  220.8430 C   0  0  0  0  0  0  0  0  0  0  0  0
  141.2800   76.7120  221.0610 N   0  0  0  0  0  0  0  0  0  0  0  0
  141.4040   77.7450  220.0280 C   0  0  0  0  0  0  0  0  0  0  0  0
  141.3420   79.1440  220.6530 C   0  0  0  0  0  0  0  0  0  0  0  0
  142.1100   79.1530  221.9200 N   0  0  0  0  0  0  0  0  0  0  0  0
  142.3600   80.5380  222.4230 C   0  0  0  0  0  0  0  0  0  0  0  0
  141.0560   81.3680  222.4670 C   0  0  0  0  0  0  0  0  0  0  0  0
  142.9540   80.5240  223.8470 C   0  0  0  0  0  0  0  0  0  0  0  0
  141.4280   78.3090  222.9420 C   0  0  0  0  0  0  0  0  0  0  0  0
  140.7060   77.0770  222.3570 C   0  0  0  0  0  0  0  0  0  0  0  0
  137.9326   74.5004  222.3431 H   0  0  0  0  0  0  0  0  0  0  0  0
  138.5742   75.3738  220.9105 H   0  0  0  0  0  0  0  0  0  0  0  0
  138.5030   73.5789  220.9105 H   0  0  0  0  0  0  0  0  0  0  0  0
  141.1928   72.0803  221.4614 H   0  0  0  0  0  0  0  0  0  0  0  0
  143.3109   71.8482  220.1667 H   0  0  0  0  0  0  0  0  0  0  0  0
  144.4814   73.8756  219.3088 H   0  0  0  0  0  0  0  0  0  0  0  0
  143.5350   76.1410  219.7364 H   0  0  0  0  0  0  0  0  0  0  0  0
  142.3661   77.6234  219.5089 H   0  0  0  0  0  0  0  0  0  0  0  0
  140.5716   77.6371  219.3171 H   0  0  0  0  0  0  0  0  0  0  0  0
  141.7755   79.8765  219.9562 H   0  0  0  0  0  0  0  0  0  0  0  0
  140.2940   79.4083  220.8574 H   0  0  0  0  0  0  0  0  0  0  0  0
  143.0741   80.9935  221.7212 H   0  0  0  0  0  0  0  0  0  0  0  0
  140.7717   81.5490  223.5141 H   0  0  0  0  0  0  0  0  0  0  0  0
  141.2166   82.3304  221.9591 H   0  0  0  0  0  0  0  0  0  0  0  0
  140.2521   80.8150  221.9591 H   0  0  0  0  0  0  0  0  0  0  0  0
  142.1383   80.5432  224.5847 H   0  0  0  0  0  0  0  0  0  0  0  0
  143.5524   79.6115  223.9857 H   0  0  0  0  0  0  0  0  0  0  0  0
  143.5947   81.4073  223.9857 H   0  0  0  0  0  0  0  0  0  0  0  0
  142.1830   77.9585  223.6611 H   0  0  0  0  0  0  0  0  0  0  0  0
  140.6566   78.9375  223.4110 H   0  0  0  0  0  0  0  0  0  0  0  0
  140.8139   76.2309  223.0516 H   0  0  0  0  0  0  0  0  0  0  0  0
  139.6425   77.3214  222.2181 H   0  0  0  0  0  0  0  0  0  0  0  0
  1  2  1  0
  2  3  1  0
  3  4  2  0
  4  5  1  0
  5  6  2  0
  6  7  1  0
  7  8  2  0
  8  9  1  0
  9 10  1  0
 10 11  1  0
 11 12  1  0
 12 13  1  0
 13 14  1  0
 13 15  1  0
 12 16  1  0
 16 17  1  0
  8  3  1  0
 17  9  1  0
  1 18  1  0
  1 19  1  0
  1 20  1  0
  4 21  1  0
  5 22  1  0
  6 23  1  0
  7 24  1  0
 10 25  1  0
 10 26  1  0
 11 27  1  0
 11 28  1  0
 13 29  1  0
 14 30  1  0
 14 31  1  0
 14 32  1  0
 15 33  1  0
 15 34  1  0
 15 35  1  0
 16 36  1  0
 16 37  1  0
 17 38  1  0
 17 39  1  0
M  END
>  <UniqueID>  (52) 
23

>  <SMILES>  (52) 
COc1ccccc1N1CCN(C(C)C)CC1

>  <Energy>  (52) 
50.22470896827241

>  <Genealogy>  (52) 
COc1ccccc1N1CCN(C(C)C)CC1 (3D coordinates assigned)
COc1ccccc1N1CCN(C(C)C)CC1 (nonaromatic ring conformer: 50.22470896827241 kcal/mol)

>  <smiles>  (52) 
COc1ccccc1N1CCN(C(C)C)CC1

>  <score_type>  (52) 
oracle

>  <origin>  (52) 
autodockgpu

>  <m_score__min__energy>  (52) 
-4.9400000000000004

>  <m_primary>  (52) 
energy

>  <meeko>  (52) 
{"free_energy": -4.94, "intermolecular_energy": -5.83, "internal_energy": -0.66, "cluster_size": 18, "cluster_id": 1, "rank_in_cluster": 8}

>  <energy>  (52) 
-4.93

>  <cluster_rmsd>  (52) 
0.04

>  <rmsd>  (52) 
273.2

>  <cluster>  (52) 
1

$$$$
LUCSOMIVZJTSBJ-UHFFFAOYNA-N
     RDKit          3D

 39 40  0  0  0  0  0  0  0  0999 V2000
  138.6650   74.4840  221.5350 C   0  0  0  0  0  0  0  0  0  0  0  0
  139.9750   74.4340  222.0910 O   0  0  0  0  0  0  0  0  0  0  0  0
  141.1520   74.2540  221.3460 C   0  0  0  0  0  0  0  0  0  0  0  0
  141.6860   72.9720  221.1010 C   0  0  0  0  0  0  0  0  0  0  0  0
  142.8720   72.8270  220.3790 C   0  0  0  0  0  0  0  0  0  0  0  0
  143.5370   73.9520  219.8930 C   0  0  0  0  0  0  0  0  0  0  0  0
  143.0180   75.2270  220.1240 C   0  0  0  0  0  0  0  0  0  0  0  0
  141.8240   75.3880  220.8470 C   0  0  0  0  0  0  0  0  0  0  0  0
  141.2940   76.7100  221.0560 N   0  0  0  0  0  0  0  0  0  0  0  0
  141.4340   77.7370  220.0200 C   0  0  0  0  0  0  0  0  0  0  0  0
  141.3820   79.1390  220.6380 C   0  0  0  0  0  0  0  0  0  0  0  0
  142.1420   79.1470  221.9090 N   0  0  0  0  0  0  0  0  0  0  0  0
  142.4020   80.5310  222.4090 C   0  0  0  0  0  0  0  0  0  0  0  0
  141.1110   81.3810  222.4170 C   0  0  0  0  0  0  0  0  0  0  0  0
  142.9650   80.5170  223.8460 C   0  0  0  0  0  0  0  0  0  0  0  0
  141.4460   78.3130  222.9310 C   0  0  0  0  0  0  0  0  0  0  0  0
  140.7160   77.0860  222.3470 C   0  0  0  0  0  0  0  0  0  0  0  0
  137.9230   74.5123  222.3466 H   0  0  0  0  0  0  0  0  0  0  0  0
  138.5643   75.3866  220.9145 H   0  0  0  0  0  0  0  0  0  0  0  0
  138.4957   73.5917  220.9145 H   0  0  0  0  0  0  0  0  0  0  0  0
  141.1649   72.0809  221.4811 H   0  0  0  0  0  0  0  0  0  0  0  0
  143.2825   71.8235  220.1932 H   0  0  0  0  0  0  0  0  0  0  0  0
  144.4725   73.8345  219.3264 H   0  0  0  0  0  0  0  0  0  0  0  0
  143.5468   76.1109  219.7378 H   0  0  0  0  0  0  0  0  0  0  0  0
  142.3979   77.6038  219.5071 H   0  0  0  0  0  0  0  0  0  0  0  0
  140.6045   77.6342  219.3050 H   0  0  0  0  0  0  0  0  0  0  0  0
  141.8267   79.8639  219.9403 H   0  0  0  0  0  0  0  0  0  0  0  0
  140.3354   79.4141  220.8350 H   0  0  0  0  0  0  0  0  0  0  0  0
  143.1387   80.9715  221.7212 H   0  0  0  0  0  0  0  0  0  0  0  0
  140.8092   81.5797  223.4560 H   0  0  0  0  0  0  0  0  0  0  0  0
  141.2964   82.3343  221.9004 H   0  0  0  0  0  0  0  0  0  0  0  0
  140.3086   80.8340  221.9004 H   0  0  0  0  0  0  0  0  0  0  0  0
  142.1335   80.5377  224.5658 H   0  0  0  0  0  0  0  0  0  0  0  0
  143.5591   79.6038  223.9982 H   0  0  0  0  0  0  0  0  0  0  0  0
  143.6037   81.3995  223.9982 H   0  0  0  0  0  0  0  0  0  0  0  0
  142.1936   77.9583  223.6557 H   0  0  0  0  0  0  0  0  0  0  0  0
  140.6779   78.9506  223.3931 H   0  0  0  0  0  0  0  0  0  0  0  0
  140.8117   76.2418  223.0457 H   0  0  0  0  0  0  0  0  0  0  0  0
  139.6558   77.3401  222.2008 H   0  0  0  0  0  0  0  0  0  0  0  0
  1  2  1  0
  2  3  1  0
  3  4  2  0
  4  5  1  0
  5  6  2  0
  6  7  1  0
  7  8  2  0
  8  9  1  0
  9 10  1  0
 10 11  1  0
 11 12  1  0
 12 13  1  0
 13 14  1  0
 13 15  1  0
 12 16  1  0
 16 17  1  0
  8  3  1  0
 17  9  1  0
  1 18  1  0
  1 19  1  0
  1 20  1  0
  4 21  1  0
  5 22  1  0
  6 23  1  0
  7 24  1  0
 10 25  1  0
 10 26  1  0
 11 27  1  0
 11 28  1  0
 13 29  1  0
 14 30  1  0
 14 31  1  0
 14 32  1  0
 15 33  1  0
 15 34  1  0
 15 35  1  0
 16 36  1  0
 16 37  1  0
 17 38  1  0
 17 39  1  0
M  END
>  <UniqueID>  (53) 
23

>  <SMILES>  (53) 
COc1ccccc1N1CCN(C(C)C)CC1

>  <Energy>  (53) 
50.22470896827241

>  <Genealogy>  (53) 
COc1ccccc1N1CCN(C(C)C)CC1 (3D coordinates assigned)
COc1ccccc1N1CCN(C(C)C)CC1 (nonaromatic ring conformer: 50.22470896827241 kcal/mol)

>  <smiles>  (53) 
COc1ccccc1N1CCN(C(C)C)CC1

>  <score_type>  (53) 
oracle

>  <origin>  (53) 
autodockgpu

>  <m_score__min__energy>  (53) 
-4.9400000000000004

>  <m_primary>  (53) 
energy

>  <meeko>  (53) 
{"free_energy": -4.94, "intermolecular_energy": -5.83, "internal_energy": -0.65, "cluster_size": 18, "cluster_id": 1, "rank_in_cluster": 6}

>  <energy>  (53) 
-4.93

>  <cluster_rmsd>  (53) 
0.4

>  <rmsd>  (53) 
273.25

>  <cluster>  (53) 
1

$$$$
LUCSOMIVZJTSBJ-UHFFFAOYNA-N
     RDKit          3D

 39 40  0  0  0  0  0  0  0  0999 V2000
  138.6880   74.4700  221.5030 C   0  0  0  0  0  0  0  0  0  0  0  0
  139.9950   74.4300  222.0670 O   0  0  0  0  0  0  0  0  0  0  0  0
  141.1780   74.2720  221.3270 C   0  0  0  0  0  0  0  0  0  0  0  0
  141.7310   73.0000  221.0750 C   0  0  0  0  0  0  0  0  0  0  0  0
  142.9240   72.8770  220.3580 C   0  0  0  0  0  0  0  0  0  0  0  0
  143.5760   74.0140  219.8850 C   0  0  0  0  0  0  0  0  0  0  0  0
  143.0370   75.2800  220.1230 C   0  0  0  0  0  0  0  0  0  0  0  0
  141.8380   75.4190  220.8400 C   0  0  0  0  0  0  0  0  0  0  0  0
  141.2880   76.7320  221.0570 N   0  0  0  0  0  0  0  0  0  0  0  0
  141.4120   77.7670  220.0260 C   0  0  0  0  0  0  0  0  0  0  0  0
  141.3390   79.1640  220.6520 C   0  0  0  0  0  0  0  0  0  0  0  0
  142.1010   79.1760  221.9230 N   0  0  0  0  0  0  0  0  0  0  0  0
  142.3410   80.5620  222.4290 C   0  0  0  0  0  0  0  0  0  0  0  0
  141.0300   81.3780  222.4860 C   0  0  0  0  0  0  0  0  0  0  0  0
  142.9470   80.5480  223.8480 C   0  0  0  0  0  0  0  0  0  0  0  0
  141.4180   78.3270  222.9410 C   0  0  0  0  0  0  0  0  0  0  0  0
  140.7060   77.0920  222.3510 C   0  0  0  0  0  0  0  0  0  0  0  0
  137.9409   74.4929  222.3101 H   0  0  0  0  0  0  0  0  0  0  0  0
  138.5842   75.3717  220.8816 H   0  0  0  0  0  0  0  0  0  0  0  0
  138.5293   73.5763  220.8816 H   0  0  0  0  0  0  0  0  0  0  0  0
  141.2202   72.0988  221.4451 H   0  0  0  0  0  0  0  0  0  0  0  0
  143.3492   71.8807  220.1666 H   0  0  0  0  0  0  0  0  0  0  0  0
  144.5165   73.9142  219.3234 H   0  0  0  0  0  0  0  0  0  0  0  0
  143.5552   76.1742  219.7463 H   0  0  0  0  0  0  0  0  0  0  0  0
  142.3776   77.6513  219.5120 H   0  0  0  0  0  0  0  0  0  0  0  0
  140.5840   77.6555  219.3104 H   0  0  0  0  0  0  0  0  0  0  0  0
  141.7716   79.8998  219.9581 H   0  0  0  0  0  0  0  0  0  0  0  0
  140.2885   79.4220  220.8517 H   0  0  0  0  0  0  0  0  0  0  0  0
  143.0446   81.0280  221.7234 H   0  0  0  0  0  0  0  0  0  0  0  0
  140.7514   81.5514  223.5359 H   0  0  0  0  0  0  0  0  0  0  0  0
  141.1773   82.3442  221.9813 H   0  0  0  0  0  0  0  0  0  0  0  0
  140.2281   80.8192  221.9813 H   0  0  0  0  0  0  0  0  0  0  0  0
  142.1375   80.5667  224.5926 H   0  0  0  0  0  0  0  0  0  0  0  0
  143.5470   79.6358  223.9815 H   0  0  0  0  0  0  0  0  0  0  0  0
  143.5885   81.4316  223.9815 H   0  0  0  0  0  0  0  0  0  0  0  0
  142.1711   77.9799  223.6637 H   0  0  0  0  0  0  0  0  0  0  0  0
  140.6408   78.9508  223.4066 H   0  0  0  0  0  0  0  0  0  0  0  0
  140.8156   76.2455  223.0449 H   0  0  0  0  0  0  0  0  0  0  0  0
  139.6418   77.3306  222.2075 H   0  0  0  0  0  0  0  0  0  0  0  0
  1  2  1  0
  2  3  1  0
  3  4  2  0
  4  5  1  0
  5  6  2  0
  6  7  1  0
  7  8  2  0
  8  9  1  0
  9 10  1  0
 10 11  1  0
 11 12  1  0
 12 13  1  0
 13 14  1  0
 13 15  1  0
 12 16  1  0
 16 17  1  0
  8  3  1  0
 17  9  1  0
  1 18  1  0
  1 19  1  0
  1 20  1  0
  4 21  1  0
  5 22  1  0
  6 23  1  0
  7 24  1  0
 10 25  1  0
 10 26  1  0
 11 27  1  0
 11 28  1  0
 13 29  1  0
 14 30  1  0
 14 31  1  0
 14 32  1  0
 15 33  1  0
 15 34  1  0
 15 35  1  0
 16 36  1  0
 16 37  1  0
 17 38  1  0
 17 39  1  0
M  END
>  <UniqueID>  (54) 
23

>  <SMILES>  (54) 
COc1ccccc1N1CCN(C(C)C)CC1

>  <Energy>  (54) 
50.22470896827241

>  <Genealogy>  (54) 
COc1ccccc1N1CCN(C(C)C)CC1 (3D coordinates assigned)
COc1ccccc1N1CCN(C(C)C)CC1 (nonaromatic ring conformer: 50.22470896827241 kcal/mol)

>  <smiles>  (54) 
COc1ccccc1N1CCN(C(C)C)CC1

>  <score_type>  (54) 
oracle

>  <origin>  (54) 
autodockgpu

>  <m_score__min__energy>  (54) 
-4.9400000000000004

>  <m_primary>  (54) 
energy

>  <meeko>  (54) 
{"free_energy": -4.93, "intermolecular_energy": -5.83, "internal_energy": -0.66, "cluster_size": 18, "cluster_id": 1, "rank_in_cluster": 12}

>  <energy>  (54) 
-4.92

>  <cluster_rmsd>  (54) 
0.12

>  <rmsd>  (54) 
273.19

>  <cluster>  (54) 
1

$$$$
LUCSOMIVZJTSBJ-UHFFFAOYNA-N
     RDKit          3D

 39 40  0  0  0  0  0  0  0  0999 V2000
  138.6830   74.4540  221.5470 C   0  0  0  0  0  0  0  0  0  0  0  0
  139.9960   74.4300  222.0980 O   0  0  0  0  0  0  0  0  0  0  0  0
  141.1710   74.2530  221.3510 C   0  0  0  0  0  0  0  0  0  0  0  0
  141.7110   72.9730  221.1070 C   0  0  0  0  0  0  0  0  0  0  0  0
  142.8960   72.8320  220.3810 C   0  0  0  0  0  0  0  0  0  0  0  0
  143.5550   73.9590  219.8920 C   0  0  0  0  0  0  0  0  0  0  0  0
  143.0300   75.2320  220.1220 C   0  0  0  0  0  0  0  0  0  0  0  0
  141.8380   75.3890  220.8470 C   0  0  0  0  0  0  0  0  0  0  0  0
  141.3020   76.7090  221.0560 N   0  0  0  0  0  0  0  0  0  0  0  0
  141.4430   77.7380  220.0210 C   0  0  0  0  0  0  0  0  0  0  0  0
  141.3830   79.1390  220.6400 C   0  0  0  0  0  0  0  0  0  0  0  0
  142.1380   79.1480  221.9150 N   0  0  0  0  0  0  0  0  0  0  0  0
  142.3910   80.5330  222.4170 C   0  0  0  0  0  0  0  0  0  0  0  0
  141.0930   81.3730  222.4370 C   0  0  0  0  0  0  0  0  0  0  0  0
  142.9630   80.5190  223.8500 C   0  0  0  0  0  0  0  0  0  0  0  0
  141.4400   78.3110  222.9330 C   0  0  0  0  0  0  0  0  0  0  0  0
  140.7170   77.0820  222.3440 C   0  0  0  0  0  0  0  0  0  0  0  0
  137.9438   74.4675  222.3615 H   0  0  0  0  0  0  0  0  0  0  0  0
  138.5620   75.3545  220.9270 H   0  0  0  0  0  0  0  0  0  0  0  0
  138.5291   73.5585  220.9270 H   0  0  0  0  0  0  0  0  0  0  0  0
  141.1957   72.0802  221.4908 H   0  0  0  0  0  0  0  0  0  0  0  0
  143.3099   71.8300  220.1948 H   0  0  0  0  0  0  0  0  0  0  0  0
  144.4901   73.8450  219.3240 H   0  0  0  0  0  0  0  0  0  0  0  0
  143.5536   76.1176  219.7327 H   0  0  0  0  0  0  0  0  0  0  0  0
  142.4097   77.6088  219.5124 H   0  0  0  0  0  0  0  0  0  0  0  0
  140.6171   77.6327  219.3020 H   0  0  0  0  0  0  0  0  0  0  0  0
  141.8281   79.8663  219.9451 H   0  0  0  0  0  0  0  0  0  0  0  0
  140.3345   79.4103  220.8326 H   0  0  0  0  0  0  0  0  0  0  0  0
  143.1195   80.9811  221.7253 H   0  0  0  0  0  0  0  0  0  0  0  0
  140.7965   81.5649  223.4787 H   0  0  0  0  0  0  0  0  0  0  0  0
  141.2675   82.3299  221.9232 H   0  0  0  0  0  0  0  0  0  0  0  0
  140.2916   80.8218  221.9232 H   0  0  0  0  0  0  0  0  0  0  0  0
  142.1361   80.5392  224.5751 H   0  0  0  0  0  0  0  0  0  0  0  0
  143.5584   79.6060  223.9983 H   0  0  0  0  0  0  0  0  0  0  0  0
  143.6023   81.4018  223.9983 H   0  0  0  0  0  0  0  0  0  0  0  0
  142.1853   77.9582  223.6610 H   0  0  0  0  0  0  0  0  0  0  0  0
  140.6677   78.9455  223.3923 H   0  0  0  0  0  0  0  0  0  0  0  0
  140.8121   76.2375  223.0424 H   0  0  0  0  0  0  0  0  0  0  0  0
  139.6568   77.3330  222.1927 H   0  0  0  0  0  0  0  0  0  0  0  0
  1  2  1  0
  2  3  1  0
  3  4  2  0
  4  5  1  0
  5  6  2  0
  6  7  1  0
  7  8  2  0
  8  9  1  0
  9 10  1  0
 10 11  1  0
 11 12  1  0
 12 13  1  0
 13 14  1  0
 13 15  1  0
 12 16  1  0
 16 17  1  0
  8  3  1  0
 17  9  1  0
  1 18  1  0
  1 19  1  0
  1 20  1  0
  4 21  1  0
  5 22  1  0
  6 23  1  0
  7 24  1  0
 10 25  1  0
 10 26  1  0
 11 27  1  0
 11 28  1  0
 13 29  1  0
 14 30  1  0
 14 31  1  0
 14 32  1  0
 15 33  1  0
 15 34  1  0
 15 35  1  0
 16 36  1  0
 16 37  1  0
 17 38  1  0
 17 39  1  0
M  END
>  <UniqueID>  (55) 
23

>  <SMILES>  (55) 
COc1ccccc1N1CCN(C(C)C)CC1

>  <Energy>  (55) 
50.22470896827241

>  <Genealogy>  (55) 
COc1ccccc1N1CCN(C(C)C)CC1 (3D coordinates assigned)
COc1ccccc1N1CCN(C(C)C)CC1 (nonaromatic ring conformer: 50.22470896827241 kcal/mol)

>  <smiles>  (55) 
COc1ccccc1N1CCN(C(C)C)CC1

>  <score_type>  (55) 
oracle

>  <origin>  (55) 
autodockgpu

>  <m_score__min__energy>  (55) 
-4.9400000000000004

>  <m_primary>  (55) 
energy

>  <meeko>  (55) 
{"free_energy": -4.94, "intermolecular_energy": -5.84, "internal_energy": -0.65, "cluster_size": 18, "cluster_id": 1, "rank_in_cluster": 4}

>  <energy>  (55) 
-4.92

>  <cluster_rmsd>  (55) 
0.12

>  <rmsd>  (55) 
273.19

>  <cluster>  (55) 
1

$$$$
LUCSOMIVZJTSBJ-UHFFFAOYNA-N
     RDKit          3D

 39 40  0  0  0  0  0  0  0  0999 V2000
  138.7260   74.4300  221.4400 C   0  0  0  0  0  0  0  0  0  0  0  0
  140.0300   74.3700  222.0110 O   0  0  0  0  0  0  0  0  0  0  0  0
  141.2180   74.2490  221.2730 C   0  0  0  0  0  0  0  0  0  0  0  0
  141.7960   72.9930  220.9960 C   0  0  0  0  0  0  0  0  0  0  0  0
  142.9930   72.9060  220.2810 C   0  0  0  0  0  0  0  0  0  0  0  0
  143.6250   74.0660  219.8340 C   0  0  0  0  0  0  0  0  0  0  0  0
  143.0620   75.3160  220.0970 C   0  0  0  0  0  0  0  0  0  0  0  0
  141.8580   75.4180  220.8120 C   0  0  0  0  0  0  0  0  0  0  0  0
  141.2830   76.7150  221.0540 N   0  0  0  0  0  0  0  0  0  0  0  0
  141.3770   77.7690  220.0380 C   0  0  0  0  0  0  0  0  0  0  0  0
  141.2800   79.1540  220.6860 C   0  0  0  0  0  0  0  0  0  0  0  0
  142.0520   79.1630  221.9500 N   0  0  0  0  0  0  0  0  0  0  0  0
  142.2680   80.5450  222.4760 C   0  0  0  0  0  0  0  0  0  0  0  0
  140.9310   81.3070  222.6290 C   0  0  0  0  0  0  0  0  0  0  0  0
  142.9550   80.5240  223.8580 C   0  0  0  0  0  0  0  0  0  0  0  0
  141.3960   78.2840  222.9610 C   0  0  0  0  0  0  0  0  0  0  0  0
  140.7040   77.0440  222.3570 C   0  0  0  0  0  0  0  0  0  0  0  0
  137.9752   74.4645  222.2432 H   0  0  0  0  0  0  0  0  0  0  0  0
  138.6393   75.3331  220.8180 H   0  0  0  0  0  0  0  0  0  0  0  0
  138.5567   73.5387  220.8180 H   0  0  0  0  0  0  0  0  0  0  0  0
  141.3008   72.0750  221.3455 H   0  0  0  0  0  0  0  0  0  0  0  0
  143.4373   71.9220  220.0705 H   0  0  0  0  0  0  0  0  0  0  0  0
  144.5687   73.9959  219.2732 H   0  0  0  0  0  0  0  0  0  0  0  0
  143.5651   76.2274  219.7416 H   0  0  0  0  0  0  0  0  0  0  0  0
  142.3406   77.6816  219.5147 H   0  0  0  0  0  0  0  0  0  0  0  0
  140.5456   77.6513  219.3274 H   0  0  0  0  0  0  0  0  0  0  0  0
  141.6909   79.9093  220.0000 H   0  0  0  0  0  0  0  0  0  0  0  0
  140.2260   79.3863  220.8985 H   0  0  0  0  0  0  0  0  0  0  0  0
  142.9116   81.0535  221.7430 H   0  0  0  0  0  0  0  0  0  0  0  0
  140.7031   81.4369  223.6973 H   0  0  0  0  0  0  0  0  0  0  0  0
  141.0142   82.2934  222.1493 H   0  0  0  0  0  0  0  0  0  0  0  0
  140.1247   80.7328  222.1493 H   0  0  0  0  0  0  0  0  0  0  0  0
  142.1900   80.5474  224.6481 H   0  0  0  0  0  0  0  0  0  0  0  0
  143.5548   79.6071  223.9554 H   0  0  0  0  0  0  0  0  0  0  0  0
  143.6097   81.4026  223.9554 H   0  0  0  0  0  0  0  0  0  0  0  0
  142.1628   77.9410  223.6713 H   0  0  0  0  0  0  0  0  0  0  0  0
  140.6108   78.8841  223.4441 H   0  0  0  0  0  0  0  0  0  0  0  0
  140.8353   76.1895  223.0371 H   0  0  0  0  0  0  0  0  0  0  0  0
  139.6344   77.2639  222.2246 H   0  0  0  0  0  0  0  0  0  0  0  0
  1  2  1  0
  2  3  1  0
  3  4  2  0
  4  5  1  0
  5  6  2  0
  6  7  1  0
  7  8  2  0
  8  9  1  0
  9 10  1  0
 10 11  1  0
 11 12  1  0
 12 13  1  0
 13 14  1  0
 13 15  1  0
 12 16  1  0
 16 17  1  0
  8  3  1  0
 17  9  1  0
  1 18  1  0
  1 19  1  0
  1 20  1  0
  4 21  1  0
  5 22  1  0
  6 23  1  0
  7 24  1  0
 10 25  1  0
 10 26  1  0
 11 27  1  0
 11 28  1  0
 13 29  1  0
 14 30  1  0
 14 31  1  0
 14 32  1  0
 15 33  1  0
 15 34  1  0
 15 35  1  0
 16 36  1  0
 16 37  1  0
 17 38  1  0
 17 39  1  0
M  END
>  <UniqueID>  (56) 
23

>  <SMILES>  (56) 
COc1ccccc1N1CCN(C(C)C)CC1

>  <Energy>  (56) 
50.22470896827241

>  <Genealogy>  (56) 
COc1ccccc1N1CCN(C(C)C)CC1 (3D coordinates assigned)
COc1ccccc1N1CCN(C(C)C)CC1 (nonaromatic ring conformer: 50.22470896827241 kcal/mol)

>  <smiles>  (56) 
COc1ccccc1N1CCN(C(C)C)CC1

>  <score_type>  (56) 
oracle

>  <origin>  (56) 
autodockgpu

>  <m_score__min__energy>  (56) 
-4.9400000000000004

>  <m_primary>  (56) 
energy

>  <meeko>  (56) 
{"free_energy": -4.92, "intermolecular_energy": -5.82, "internal_energy": -0.66, "cluster_size": 18, "cluster_id": 1, "rank_in_cluster": 14}

>  <energy>  (56) 
-4.92

>  <cluster_rmsd>  (56) 
0.07

>  <rmsd>  (56) 
273.18

>  <cluster>  (56) 
1

$$$$
LUCSOMIVZJTSBJ-UHFFFAOYNA-N
     RDKit          3D

 39 40  0  0  0  0  0  0  0  0999 V2000
  138.6750   74.3540  221.5600 C   0  0  0  0  0  0  0  0  0  0  0  0
  139.9920   74.4430  222.0950 O   0  0  0  0  0  0  0  0  0  0  0  0
  141.1690   74.2640  221.3510 C   0  0  0  0  0  0  0  0  0  0  0  0
  141.7070   72.9840  221.1090 C   0  0  0  0  0  0  0  0  0  0  0  0
  142.8940   72.8400  220.3870 C   0  0  0  0  0  0  0  0  0  0  0  0
  143.5560   73.9660  219.8980 C   0  0  0  0  0  0  0  0  0  0  0  0
  143.0310   75.2400  220.1260 C   0  0  0  0  0  0  0  0  0  0  0  0
  141.8370   75.3990  220.8480 C   0  0  0  0  0  0  0  0  0  0  0  0
  141.3020   76.7200  221.0540 N   0  0  0  0  0  0  0  0  0  0  0  0
  141.4480   77.7480  220.0180 C   0  0  0  0  0  0  0  0  0  0  0  0
  141.3870   79.1490  220.6360 C   0  0  0  0  0  0  0  0  0  0  0  0
  142.1390   79.1580  221.9130 N   0  0  0  0  0  0  0  0  0  0  0  0
  142.3920   80.5440  222.4140 C   0  0  0  0  0  0  0  0  0  0  0  0
  141.0960   81.3860  222.4280 C   0  0  0  0  0  0  0  0  0  0  0  0
  142.9590   80.5310  223.8500 C   0  0  0  0  0  0  0  0  0  0  0  0
  141.4380   78.3230  222.9300 C   0  0  0  0  0  0  0  0  0  0  0  0
  140.7150   77.0940  222.3400 C   0  0  0  0  0  0  0  0  0  0  0  0
  137.9473   74.3048  222.3834 H   0  0  0  0  0  0  0  0  0  0  0  0
  138.4697   75.2403  220.9417 H   0  0  0  0  0  0  0  0  0  0  0  0
  138.5909   73.4481  220.9417 H   0  0  0  0  0  0  0  0  0  0  0  0
  141.1886   72.0923  221.4913 H   0  0  0  0  0  0  0  0  0  0  0  0
  143.3072   71.8372  220.2038 H   0  0  0  0  0  0  0  0  0  0  0  0
  144.4923   73.8506  219.3323 H   0  0  0  0  0  0  0  0  0  0  0  0
  143.5563   76.1249  219.7374 H   0  0  0  0  0  0  0  0  0  0  0  0
  142.4165   77.6174  219.5131 H   0  0  0  0  0  0  0  0  0  0  0  0
  140.6251   77.6429  219.2956 H   0  0  0  0  0  0  0  0  0  0  0  0
  141.8341   79.8759  219.9419 H   0  0  0  0  0  0  0  0  0  0  0  0
  140.3382   79.4210  220.8258 H   0  0  0  0  0  0  0  0  0  0  0  0
  143.1235   80.9900  221.7241 H   0  0  0  0  0  0  0  0  0  0  0  0
  140.7964   81.5806  223.4684 H   0  0  0  0  0  0  0  0  0  0  0  0
  141.2739   82.3415  221.9128 H   0  0  0  0  0  0  0  0  0  0  0  0
  140.2953   80.8352  221.9128 H   0  0  0  0  0  0  0  0  0  0  0  0
  142.1293   80.5500  224.5720 H   0  0  0  0  0  0  0  0  0  0  0  0
  143.5552   79.6189  224.0006 H   0  0  0  0  0  0  0  0  0  0  0  0
  143.5964   81.4148  224.0006 H   0  0  0  0  0  0  0  0  0  0  0  0
  142.1812   77.9700  223.6601 H   0  0  0  0  0  0  0  0  0  0  0  0
  140.6654   78.9587  223.3871 H   0  0  0  0  0  0  0  0  0  0  0  0
  140.8079   76.2498  223.0390 H   0  0  0  0  0  0  0  0  0  0  0  0
  139.6553   77.3458  222.1864 H   0  0  0  0  0  0  0  0  0  0  0  0
  1  2  1  0
  2  3  1  0
  3  4  2  0
  4  5  1  0
  5  6  2  0
  6  7  1  0
  7  8  2  0
  8  9  1  0
  9 10  1  0
 10 11  1  0
 11 12  1  0
 12 13  1  0
 13 14  1  0
 13 15  1  0
 12 16  1  0
 16 17  1  0
  8  3  1  0
 17  9  1  0
  1 18  1  0
  1 19  1  0
  1 20  1  0
  4 21  1  0
  5 22  1  0
  6 23  1  0
  7 24  1  0
 10 25  1  0
 10 26  1  0
 11 27  1  0
 11 28  1  0
 13 29  1  0
 14 30  1  0
 14 31  1  0
 14 32  1  0
 15 33  1  0
 15 34  1  0
 15 35  1  0
 16 36  1  0
 16 37  1  0
 17 38  1  0
 17 39  1  0
M  END
>  <UniqueID>  (57) 
23

>  <SMILES>  (57) 
COc1ccccc1N1CCN(C(C)C)CC1

>  <Energy>  (57) 
50.22470896827241

>  <Genealogy>  (57) 
COc1ccccc1N1CCN(C(C)C)CC1 (3D coordinates assigned)
COc1ccccc1N1CCN(C(C)C)CC1 (nonaromatic ring conformer: 50.22470896827241 kcal/mol)

>  <smiles>  (57) 
COc1ccccc1N1CCN(C(C)C)CC1

>  <score_type>  (57) 
oracle

>  <origin>  (57) 
autodockgpu

>  <m_score__min__energy>  (57) 
-4.9400000000000004

>  <m_primary>  (57) 
energy

>  <meeko>  (57) 
{"free_energy": -4.94, "intermolecular_energy": -5.83, "internal_energy": -0.65, "cluster_size": 18, "cluster_id": 1, "rank_in_cluster": 5}

>  <energy>  (57) 
-4.92

>  <cluster_rmsd>  (57) 
0.04

>  <rmsd>  (57) 
273.2

>  <cluster>  (57) 
1

$$$$
LUCSOMIVZJTSBJ-UHFFFAOYNA-N
     RDKit          3D

 39 40  0  0  0  0  0  0  0  0999 V2000
  138.6610   74.4020  221.5410 C   0  0  0  0  0  0  0  0  0  0  0  0
  139.9750   74.4420  222.0880 O   0  0  0  0  0  0  0  0  0  0  0  0
  141.1530   74.2620  221.3460 C   0  0  0  0  0  0  0  0  0  0  0  0
  141.6910   72.9820  221.1040 C   0  0  0  0  0  0  0  0  0  0  0  0
  142.8790   72.8380  220.3830 C   0  0  0  0  0  0  0  0  0  0  0  0
  143.5420   73.9630  219.8960 C   0  0  0  0  0  0  0  0  0  0  0  0
  143.0190   75.2370  220.1240 C   0  0  0  0  0  0  0  0  0  0  0  0
  141.8240   75.3970  220.8450 C   0  0  0  0  0  0  0  0  0  0  0  0
  141.2900   76.7180  221.0500 N   0  0  0  0  0  0  0  0  0  0  0  0
  141.4390   77.7470  220.0160 C   0  0  0  0  0  0  0  0  0  0  0  0
  141.3780   79.1480  220.6360 C   0  0  0  0  0  0  0  0  0  0  0  0
  142.1280   79.1550  221.9140 N   0  0  0  0  0  0  0  0  0  0  0  0
  142.3810   80.5390  222.4170 C   0  0  0  0  0  0  0  0  0  0  0  0
  141.0830   81.3790  222.4410 C   0  0  0  0  0  0  0  0  0  0  0  0
  142.9560   80.5240  223.8490 C   0  0  0  0  0  0  0  0  0  0  0  0
  141.4230   78.3200  222.9290 C   0  0  0  0  0  0  0  0  0  0  0  0
  140.7000   77.0920  222.3360 C   0  0  0  0  0  0  0  0  0  0  0  0
  137.9244   74.3796  222.3577 H   0  0  0  0  0  0  0  0  0  0  0  0
  138.4944   75.2955  220.9214 H   0  0  0  0  0  0  0  0  0  0  0  0
  138.5491   73.5000  220.9214 H   0  0  0  0  0  0  0  0  0  0  0  0
  141.1720   72.0903  221.4854 H   0  0  0  0  0  0  0  0  0  0  0  0
  143.2917   71.8350  220.1994 H   0  0  0  0  0  0  0  0  0  0  0  0
  144.4787   73.8468  219.3312 H   0  0  0  0  0  0  0  0  0  0  0  0
  143.5460   76.1214  219.7366 H   0  0  0  0  0  0  0  0  0  0  0  0
  142.4084   77.6162  219.5129 H   0  0  0  0  0  0  0  0  0  0  0  0
  140.6174   77.6436  219.2919 H   0  0  0  0  0  0  0  0  0  0  0  0
  141.8266   79.8754  219.9435 H   0  0  0  0  0  0  0  0  0  0  0  0
  140.3291   79.4204  220.8246 H   0  0  0  0  0  0  0  0  0  0  0  0
  143.1077   80.9877  221.7238 H   0  0  0  0  0  0  0  0  0  0  0  0
  140.7887   81.5694  223.4836 H   0  0  0  0  0  0  0  0  0  0  0  0
  141.2564   82.3366  221.9282 H   0  0  0  0  0  0  0  0  0  0  0  0
  140.2805   80.8285  221.9282 H   0  0  0  0  0  0  0  0  0  0  0  0
  142.1306   80.5455  224.5758 H   0  0  0  0  0  0  0  0  0  0  0  0
  143.5502   79.6101  223.9960 H   0  0  0  0  0  0  0  0  0  0  0  0
  143.5971   81.4057  223.9960 H   0  0  0  0  0  0  0  0  0  0  0  0
  142.1638   77.9657  223.6609 H   0  0  0  0  0  0  0  0  0  0  0  0
  140.6500   78.9563  223.3845 H   0  0  0  0  0  0  0  0  0  0  0  0
  140.7904   76.2471  223.0346 H   0  0  0  0  0  0  0  0  0  0  0  0
  139.6410   77.3452  222.1800 H   0  0  0  0  0  0  0  0  0  0  0  0
  1  2  1  0
  2  3  1  0
  3  4  2  0
  4  5  1  0
  5  6  2  0
  6  7  1  0
  7  8  2  0
  8  9  1  0
  9 10  1  0
 10 11  1  0
 11 12  1  0
 12 13  1  0
 13 14  1  0
 13 15  1  0
 12 16  1  0
 16 17  1  0
  8  3  1  0
 17  9  1  0
  1 18  1  0
  1 19  1  0
  1 20  1  0
  4 21  1  0
  5 22  1  0
  6 23  1  0
  7 24  1  0
 10 25  1  0
 10 26  1  0
 11 27  1  0
 11 28  1  0
 13 29  1  0
 14 30  1  0
 14 31  1  0
 14 32  1  0
 15 33  1  0
 15 34  1  0
 15 35  1  0
 16 36  1  0
 16 37  1  0
 17 38  1  0
 17 39  1  0
M  END
>  <UniqueID>  (58) 
23

>  <SMILES>  (58) 
COc1ccccc1N1CCN(C(C)C)CC1

>  <Energy>  (58) 
50.22470896827241

>  <Genealogy>  (58) 
COc1ccccc1N1CCN(C(C)C)CC1 (3D coordinates assigned)
COc1ccccc1N1CCN(C(C)C)CC1 (nonaromatic ring conformer: 50.22470896827241 kcal/mol)

>  <smiles>  (58) 
COc1ccccc1N1CCN(C(C)C)CC1

>  <score_type>  (58) 
oracle

>  <origin>  (58) 
autodockgpu

>  <m_score__min__energy>  (58) 
-4.9400000000000004

>  <m_primary>  (58) 
energy

>  <meeko>  (58) 
{"free_energy": -4.94, "intermolecular_energy": -5.84, "internal_energy": -0.65, "cluster_size": 18, "cluster_id": 1, "rank_in_cluster": 3}

>  <energy>  (58) 
-4.85

>  <cluster_rmsd>  (58) 
0.3

>  <rmsd>  (58) 
273.25

>  <cluster>  (58) 
1

$$$$
LUCSOMIVZJTSBJ-UHFFFAOYNA-N
     RDKit          3D

 39 40  0  0  0  0  0  0  0  0999 V2000
  138.7060   74.4420  221.4450 C   0  0  0  0  0  0  0  0  0  0  0  0
  140.0060   74.3770  222.0230 O   0  0  0  0  0  0  0  0  0  0  0  0
  141.1960   74.2300  221.2940 C   0  0  0  0  0  0  0  0  0  0  0  0
  141.7580   72.9630  221.0360 C   0  0  0  0  0  0  0  0  0  0  0  0
  142.9570   72.8510  220.3300 C   0  0  0  0  0  0  0  0  0  0  0  0
  143.6090   73.9960  219.8730 C   0  0  0  0  0  0  0  0  0  0  0  0
  143.0620   75.2570  220.1170 C   0  0  0  0  0  0  0  0  0  0  0  0
  141.8550   75.3850  220.8230 C   0  0  0  0  0  0  0  0  0  0  0  0
  141.2980   76.6930  221.0460 N   0  0  0  0  0  0  0  0  0  0  0  0
  141.4110   77.7320  220.0180 C   0  0  0  0  0  0  0  0  0  0  0  0
  141.3300   79.1270  220.6480 C   0  0  0  0  0  0  0  0  0  0  0  0
  142.0970   79.1410  221.9150 N   0  0  0  0  0  0  0  0  0  0  0  0
  142.3300   80.5260  222.4240 C   0  0  0  0  0  0  0  0  0  0  0  0
  141.0150   81.3380  222.4770 C   0  0  0  0  0  0  0  0  0  0  0  0
  142.9290   80.5130  223.8460 C   0  0  0  0  0  0  0  0  0  0  0  0
  141.4240   78.2840  222.9340 C   0  0  0  0  0  0  0  0  0  0  0  0
  140.7180   77.0460  222.3430 C   0  0  0  0  0  0  0  0  0  0  0  0
  137.9509   74.4798  222.2440 H   0  0  0  0  0  0  0  0  0  0  0  0
  138.6263   75.3453  220.8223 H   0  0  0  0  0  0  0  0  0  0  0  0
  138.5366   73.5512  220.8223 H   0  0  0  0  0  0  0  0  0  0  0  0
  141.2480   72.0563  221.3936 H   0  0  0  0  0  0  0  0  0  0  0  0
  143.3882   71.8582  220.1338 H   0  0  0  0  0  0  0  0  0  0  0  0
  144.5553   73.9054  219.3196 H   0  0  0  0  0  0  0  0  0  0  0  0
  143.5802   76.1567  219.7536 H   0  0  0  0  0  0  0  0  0  0  0  0
  142.3757   77.6248  219.5004 H   0  0  0  0  0  0  0  0  0  0  0  0
  140.5812   77.6166  219.3052 H   0  0  0  0  0  0  0  0  0  0  0  0
  141.7540   79.8679  219.9543 H   0  0  0  0  0  0  0  0  0  0  0  0
  140.2785   79.3767  220.8528 H   0  0  0  0  0  0  0  0  0  0  0  0
  143.0355   80.9945  221.7220 H   0  0  0  0  0  0  0  0  0  0  0  0
  140.7335   81.5118  223.5261 H   0  0  0  0  0  0  0  0  0  0  0  0
  141.1600   82.3041  221.9713 H   0  0  0  0  0  0  0  0  0  0  0  0
  140.2162   80.7757  221.9713 H   0  0  0  0  0  0  0  0  0  0  0  0
  142.1158   80.5306  224.5866 H   0  0  0  0  0  0  0  0  0  0  0  0
  143.5296   79.6016  223.9826 H   0  0  0  0  0  0  0  0  0  0  0  0
  143.5686   81.3975  223.9826 H   0  0  0  0  0  0  0  0  0  0  0  0
  142.1826   77.9399  223.6524 H   0  0  0  0  0  0  0  0  0  0  0  0
  140.6447   78.9010  223.4051 H   0  0  0  0  0  0  0  0  0  0  0  0
  140.8353   76.1984  223.0343 H   0  0  0  0  0  0  0  0  0  0  0  0
  139.6519   77.2782  222.2036 H   0  0  0  0  0  0  0  0  0  0  0  0
  1  2  1  0
  2  3  1  0
  3  4  2  0
  4  5  1  0
  5  6  2  0
  6  7  1  0
  7  8  2  0
  8  9  1  0
  9 10  1  0
 10 11  1  0
 11 12  1  0
 12 13  1  0
 13 14  1  0
 13 15  1  0
 12 16  1  0
 16 17  1  0
  8  3  1  0
 17  9  1  0
  1 18  1  0
  1 19  1  0
  1 20  1  0
  4 21  1  0
  5 22  1  0
  6 23  1  0
  7 24  1  0
 10 25  1  0
 10 26  1  0
 11 27  1  0
 11 28  1  0
 13 29  1  0
 14 30  1  0
 14 31  1  0
 14 32  1  0
 15 33  1  0
 15 34  1  0
 15 35  1  0
 16 36  1  0
 16 37  1  0
 17 38  1  0
 17 39  1  0
M  END
>  <UniqueID>  (59) 
23

>  <SMILES>  (59) 
COc1ccccc1N1CCN(C(C)C)CC1

>  <Energy>  (59) 
50.22470896827241

>  <Genealogy>  (59) 
COc1ccccc1N1CCN(C(C)C)CC1 (3D coordinates assigned)
COc1ccccc1N1CCN(C(C)C)CC1 (nonaromatic ring conformer: 50.22470896827241 kcal/mol)

>  <smiles>  (59) 
COc1ccccc1N1CCN(C(C)C)CC1

>  <score_type>  (59) 
oracle

>  <origin>  (59) 
autodockgpu

>  <m_score__min__energy>  (59) 
-4.9400000000000004

>  <m_primary>  (59) 
energy

>  <meeko>  (59) 
{"free_energy": -4.92, "intermolecular_energy": -5.82, "internal_energy": -0.66, "cluster_size": 18, "cluster_id": 1, "rank_in_cluster": 16}

>  <energy>  (59) 
-4.83

>  <cluster_rmsd>  (59) 
0.0

>  <rmsd>  (59) 
273.16

>  <cluster>  (59) 
2

$$$$
LUCSOMIVZJTSBJ-UHFFFAOYNA-N
     RDKit          3D

 39 40  0  0  0  0  0  0  0  0999 V2000
  138.7360   74.6510  221.5290 C   0  0  0  0  0  0  0  0  0  0  0  0
  140.0510   74.5310  222.0610 O   0  0  0  0  0  0  0  0  0  0  0  0
  141.2200   74.4540  221.2880 C   0  0  0  0  0  0  0  0  0  0  0  0
  141.8150   73.2180  220.9640 C   0  0  0  0  0  0  0  0  0  0  0  0
  142.9930   73.1750  220.2140 C   0  0  0  0  0  0  0  0  0  0  0  0
  143.5890   74.3580  219.7800 C   0  0  0  0  0  0  0  0  0  0  0  0
  143.0090   75.5900  220.0910 C   0  0  0  0  0  0  0  0  0  0  0  0
  141.8230   75.6480  220.8410 C   0  0  0  0  0  0  0  0  0  0  0  0
  141.2290   76.9260  221.1320 N   0  0  0  0  0  0  0  0  0  0  0  0
  141.1960   77.9780  220.1110 C   0  0  0  0  0  0  0  0  0  0  0  0
  141.1120   79.3630  220.7640 C   0  0  0  0  0  0  0  0  0  0  0  0
  141.9930   79.4020  221.9540 N   0  0  0  0  0  0  0  0  0  0  0  0
  142.2090   80.7920  222.4570 C   0  0  0  0  0  0  0  0  0  0  0  0
  140.9110   81.6280  222.3820 C   0  0  0  0  0  0  0  0  0  0  0  0
  142.6840   80.7950  223.9250 C   0  0  0  0  0  0  0  0  0  0  0  0
  141.4600   78.5060  223.0200 C   0  0  0  0  0  0  0  0  0  0  0  0
  140.7590   77.2400  222.4820 C   0  0  0  0  0  0  0  0  0  0  0  0
  138.0113   74.7171  222.3539 H   0  0  0  0  0  0  0  0  0  0  0  0
  138.6719   75.5587  220.9110 H   0  0  0  0  0  0  0  0  0  0  0  0
  138.5087   73.7699  220.9110 H   0  0  0  0  0  0  0  0  0  0  0  0
  141.3489   72.2813  221.3038 H   0  0  0  0  0  0  0  0  0  0  0  0
  143.4508   72.2061  219.9656 H   0  0  0  0  0  0  0  0  0  0  0  0
  144.5177   74.3212  219.1916 H   0  0  0  0  0  0  0  0  0  0  0  0
  143.4840   76.5204  219.7464 H   0  0  0  0  0  0  0  0  0  0  0  0
  142.1108   77.9201  219.5029 H   0  0  0  0  0  0  0  0  0  0  0  0
  140.3081   77.8301  219.4787 H   0  0  0  0  0  0  0  0  0  0  0  0
  141.4353   80.1285  220.0432 H   0  0  0  0  0  0  0  0  0  0  0  0
  140.0742   79.5620  221.0694 H   0  0  0  0  0  0  0  0  0  0  0  0
  142.9812   81.2345  221.8106 H   0  0  0  0  0  0  0  0  0  0  0  0
  140.5608   81.8535  223.4001 H   0  0  0  0  0  0  0  0  0  0  0  0
  141.1106   82.5678  221.8463 H   0  0  0  0  0  0  0  0  0  0  0  0
  140.1379   81.0576  221.8463 H   0  0  0  0  0  0  0  0  0  0  0  0
  141.8102   80.7895  224.5931 H   0  0  0  0  0  0  0  0  0  0  0  0
  143.2959   79.9007  224.1142 H   0  0  0  0  0  0  0  0  0  0  0  0
  143.2846   81.6970  224.1142 H   0  0  0  0  0  0  0  0  0  0  0  0
  142.2982   78.1922  223.6595 H   0  0  0  0  0  0  0  0  0  0  0  0
  140.7008   79.0814  223.5700 H   0  0  0  0  0  0  0  0  0  0  0  0
  140.9806   76.3932  223.1482 H   0  0  0  0  0  0  0  0  0  0  0  0
  139.6748   77.4225  222.4468 H   0  0  0  0  0  0  0  0  0  0  0  0
  1  2  1  0
  2  3  1  0
  3  4  2  0
  4  5  1  0
  5  6  2  0
  6  7  1  0
  7  8  2  0
  8  9  1  0
  9 10  1  0
 10 11  1  0
 11 12  1  0
 12 13  1  0
 13 14  1  0
 13 15  1  0
 12 16  1  0
 16 17  1  0
  8  3  1  0
 17  9  1  0
  1 18  1  0
  1 19  1  0
  1 20  1  0
  4 21  1  0
  5 22  1  0
  6 23  1  0
  7 24  1  0
 10 25  1  0
 10 26  1  0
 11 27  1  0
 11 28  1  0
 13 29  1  0
 14 30  1  0
 14 31  1  0
 14 32  1  0
 15 33  1  0
 15 34  1  0
 15 35  1  0
 16 36  1  0
 16 37  1  0
 17 38  1  0
 17 39  1  0
M  END
>  <UniqueID>  (60) 
23

>  <SMILES>  (60) 
COc1ccccc1N1CCN(C(C)C)CC1

>  <Energy>  (60) 
50.22470896827241

>  <Genealogy>  (60) 
COc1ccccc1N1CCN(C(C)C)CC1 (3D coordinates assigned)
COc1ccccc1N1CCN(C(C)C)CC1 (nonaromatic ring conformer: 50.22470896827241 kcal/mol)

>  <smiles>  (60) 
COc1ccccc1N1CCN(C(C)C)CC1

>  <score_type>  (60) 
oracle

>  <origin>  (60) 
autodockgpu

>  <m_score__min__energy>  (60) 
-4.9400000000000004

>  <m_primary>  (60) 
energy

>  <meeko>  (60) 
{"free_energy": -4.85, "intermolecular_energy": -5.75, "internal_energy": -0.69, "cluster_size": 18, "cluster_id": 1, "rank_in_cluster": 18}

>  <energy>  (60) 
-4.83

>  <cluster_rmsd>  (60) 
0.03

>  <rmsd>  (60) 
273.16

>  <cluster>  (60) 
2

$$$$
LUCSOMIVZJTSBJ-UHFFFAOYNA-N
     RDKit          3D

 39 40  0  0  0  0  0  0  0  0999 V2000
  142.1930   79.4950  218.8140 C   0  0  0  0  0  0  0  0  0  0  0  0
  141.2700   79.2420  219.8680 O   0  0  0  0  0  0  0  0  0  0  0  0
  141.5700   79.3550  221.2350 C   0  0  0  0  0  0  0  0  0  0  0  0
  142.2030   80.4990  221.7630 C   0  0  0  0  0  0  0  0  0  0  0  0
  142.5120   80.5710  223.1240 C   0  0  0  0  0  0  0  0  0  0  0  0
  142.1950   79.5100  223.9700 C   0  0  0  0  0  0  0  0  0  0  0  0
  141.5640   78.3730  223.4610 C   0  0  0  0  0  0  0  0  0  0  0  0
  141.2440   78.2870  222.0960 C   0  0  0  0  0  0  0  0  0  0  0  0
  140.5750   77.1160  221.5950 N   0  0  0  0  0  0  0  0  0  0  0  0
  139.2800   76.7080  222.1500 C   0  0  0  0  0  0  0  0  0  0  0  0
  139.0570   75.2040  221.9520 C   0  0  0  0  0  0  0  0  0  0  0  0
  140.3240   74.4800  222.2080 N   0  0  0  0  0  0  0  0  0  0  0  0
  140.1190   73.0060  222.3440 C   0  0  0  0  0  0  0  0  0  0  0  0
  138.6780   72.5980  221.9620 C   0  0  0  0  0  0  0  0  0  0  0  0
  141.0860   72.2150  221.4370 C   0  0  0  0  0  0  0  0  0  0  0  0
  141.3250   74.8030  221.1500 C   0  0  0  0  0  0  0  0  0  0  0  0
  141.2260   76.2470  220.6150 C   0  0  0  0  0  0  0  0  0  0  0  0
  143.1712   79.7631  219.2397 H   0  0  0  0  0  0  0  0  0  0  0  0
  142.2979   78.5925  218.1940 H   0  0  0  0  0  0  0  0  0  0  0  0
  141.8230   80.3249  218.1940 H   0  0  0  0  0  0  0  0  0  0  0  0
  142.4551   81.3396  221.0998 H   0  0  0  0  0  0  0  0  0  0  0  0
  143.0063   81.4667  223.5282 H   0  0  0  0  0  0  0  0  0  0  0  0
  142.4422   79.5682  225.0403 H   0  0  0  0  0  0  0  0  0  0  0  0
  141.3158   77.5388  224.1337 H   0  0  0  0  0  0  0  0  0  0  0  0
  139.2591   76.9379  223.2255 H   0  0  0  0  0  0  0  0  0  0  0  0
  138.4821   77.2563  221.6278 H   0  0  0  0  0  0  0  0  0  0  0  0
  138.2854   74.8522  222.6526 H   0  0  0  0  0  0  0  0  0  0  0  0
  138.7280   75.0144  220.9196 H   0  0  0  0  0  0  0  0  0  0  0  0
  140.3116   72.7664  223.4002 H   0  0  0  0  0  0  0  0  0  0  0  0
  138.0895   72.4314  222.8763 H   0  0  0  0  0  0  0  0  0  0  0  0
  138.2148   73.4003  221.3689 H   0  0  0  0  0  0  0  0  0  0  0  0
  138.7041   71.6719  221.3689 H   0  0  0  0  0  0  0  0  0  0  0  0
  141.7873   71.6414  222.0608 H   0  0  0  0  0  0  0  0  0  0  0  0
  140.5112   71.5248  220.8020 H   0  0  0  0  0  0  0  0  0  0  0  0
  141.6485   72.9152  220.8020 H   0  0  0  0  0  0  0  0  0  0  0  0
  142.3314   74.6574  221.5694 H   0  0  0  0  0  0  0  0  0  0  0  0
  141.1199   74.1336  220.3016 H   0  0  0  0  0  0  0  0  0  0  0  0
  142.2379   76.6270  220.4108 H   0  0  0  0  0  0  0  0  0  0  0  0
  140.6275   76.2428  219.6921 H   0  0  0  0  0  0  0  0  0  0  0  0
  1  2  1  0
  2  3  1  0
  3  4  2  0
  4  5  1  0
  5  6  2  0
  6  7  1  0
  7  8  2  0
  8  9  1  0
  9 10  1  0
 10 11  1  0
 11 12  1  0
 12 13  1  0
 13 14  1  0
 13 15  1  0
 12 16  1  0
 16 17  1  0
  8  3  1  0
 17  9  1  0
  1 18  1  0
  1 19  1  0
  1 20  1  0
  4 21  1  0
  5 22  1  0
  6 23  1  0
  7 24  1  0
 10 25  1  0
 10 26  1  0
 11 27  1  0
 11 28  1  0
 13 29  1  0
 14 30  1  0
 14 31  1  0
 14 32  1  0
 15 33  1  0
 15 34  1  0
 15 35  1  0
 16 36  1  0
 16 37  1  0
 17 38  1  0
 17 39  1  0
M  END
>  <UniqueID>  (61) 
24

>  <SMILES>  (61) 
COc1ccccc1N1CCN(C(C)C)CC1

>  <Energy>  (61) 
50.70871626687487

>  <Genealogy>  (61) 
COc1ccccc1N1CCN(C(C)C)CC1 (3D coordinates assigned)
COc1ccccc1N1CCN(C(C)C)CC1 (nonaromatic ring conformer: 50.70871626687487 kcal/mol)

>  <smiles>  (61) 
COc1ccccc1N1CCN(C(C)C)CC1

>  <score_type>  (61) 
oracle

>  <origin>  (61) 
autodockgpu

>  <m_score__min__energy>  (61) 
-4.9400000000000004

>  <m_primary>  (61) 
energy

>  <meeko>  (61) 
{"free_energy": -4.83, "intermolecular_energy": -5.72, "internal_energy": -0.71, "cluster_size": 2, "cluster_id": 2, "rank_in_cluster": 1}

>  <energy>  (61) 
-4.94

>  <cluster_rmsd>  (61) 
0.0

>  <rmsd>  (61) 
273.2

>  <cluster>  (61) 
1

$$$$
LUCSOMIVZJTSBJ-UHFFFAOYNA-N
     RDKit          3D

 39 40  0  0  0  0  0  0  0  0999 V2000
  138.6860   74.4750  221.5390 C   0  0  0  0  0  0  0  0  0  0  0  0
  139.9960   74.4270  222.0940 O   0  0  0  0  0  0  0  0  0  0  0  0
  141.1730   74.2560  221.3470 C   0  0  0  0  0  0  0  0  0  0  0  0
  141.7150   72.9790  221.0970 C   0  0  0  0  0  0  0  0  0  0  0  0
  142.9010   72.8430  220.3720 C   0  0  0  0  0  0  0  0  0  0  0  0
  143.5580   73.9740  219.8880 C   0  0  0  0  0  0  0  0  0  0  0  0
  143.0300   75.2450  220.1240 C   0  0  0  0  0  0  0  0  0  0  0  0
  141.8370   75.3960  220.8490 C   0  0  0  0  0  0  0  0  0  0  0  0
  141.2980   76.7130  221.0630 N   0  0  0  0  0  0  0  0  0  0  0  0
  141.4260   77.7440  220.0280 C   0  0  0  0  0  0  0  0  0  0  0  0
  141.3660   79.1440  220.6490 C   0  0  0  0  0  0  0  0  0  0  0  0
  142.1330   79.1550  221.9160 N   0  0  0  0  0  0  0  0  0  0  0  0
  142.3860   80.5410  222.4160 C   0  0  0  0  0  0  0  0  0  0  0  0
  141.0860   81.3770  222.4470 C   0  0  0  0  0  0  0  0  0  0  0  0
  142.9690   80.5290  223.8450 C   0  0  0  0  0  0  0  0  0  0  0  0
  141.4480   78.3150  222.9400 C   0  0  0  0  0  0  0  0  0  0  0  0
  140.7240   77.0830  222.3580 C   0  0  0  0  0  0  0  0  0  0  0  0
  137.9445   74.5022  222.3511 H   0  0  0  0  0  0  0  0  0  0  0  0
  138.5835   75.3775  220.9185 H   0  0  0  0  0  0  0  0  0  0  0  0
  138.5177   73.5824  220.9185 H   0  0  0  0  0  0  0  0  0  0  0  0
  141.2004   72.0835  221.4755 H   0  0  0  0  0  0  0  0  0  0  0  0
  143.3174   71.8426  220.1825 H   0  0  0  0  0  0  0  0  0  0  0  0
  144.4934   73.8647  219.3196 H   0  0  0  0  0  0  0  0  0  0  0  0
  143.5520   76.1336  219.7395 H   0  0  0  0  0  0  0  0  0  0  0  0
  142.3888   77.6192  219.5108 H   0  0  0  0  0  0  0  0  0  0  0  0
  140.5942   77.6364  219.3163 H   0  0  0  0  0  0  0  0  0  0  0  0
  141.8011   79.8740  219.9506 H   0  0  0  0  0  0  0  0  0  0  0  0
  140.3183   79.4106  220.8521 H   0  0  0  0  0  0  0  0  0  0  0  0
  143.1077   80.9907  221.7182 H   0  0  0  0  0  0  0  0  0  0  0  0
  140.7952   81.5640  223.4912 H   0  0  0  0  0  0  0  0  0  0  0  0
  141.2547   82.3363  221.9359 H   0  0  0  0  0  0  0  0  0  0  0  0
  140.2831   80.8255  221.9359 H   0  0  0  0  0  0  0  0  0  0  0  0
  142.1475   80.5459  224.5763 H   0  0  0  0  0  0  0  0  0  0  0  0
  143.5690   79.6183  223.9886 H   0  0  0  0  0  0  0  0  0  0  0  0
  143.6060   81.4142  223.9886 H   0  0  0  0  0  0  0  0  0  0  0  0
  142.2016   77.9650  223.6608 H   0  0  0  0  0  0  0  0  0  0  0  0
  140.6774   78.9465  223.4063 H   0  0  0  0  0  0  0  0  0  0  0  0
  140.8298   76.2386  223.0550 H   0  0  0  0  0  0  0  0  0  0  0  0
  139.6611   77.3293  222.2178 H   0  0  0  0  0  0  0  0  0  0  0  0
  1  2  1  0
  2  3  1  0
  3  4  2  0
  4  5  1  0
  5  6  2  0
  6  7  1  0
  7  8  2  0
  8  9  1  0
  9 10  1  0
 10 11  1  0
 11 12  1  0
 12 13  1  0
 13 14  1  0
 13 15  1  0
 12 16  1  0
 16 17  1  0
  8  3  1  0
 17  9  1  0
  1 18  1  0
  1 19  1  0
  1 20  1  0
  4 21  1  0
  5 22  1  0
  6 23  1  0
  7 24  1  0
 10 25  1  0
 10 26  1  0
 11 27  1  0
 11 28  1  0
 13 29  1  0
 14 30  1  0
 14 31  1  0
 14 32  1  0
 15 33  1  0
 15 34  1  0
 15 35  1  0
 16 36  1  0
 16 37  1  0
 17 38  1  0
 17 39  1  0
M  END
>  <UniqueID>  (62) 
24

>  <SMILES>  (62) 
COc1ccccc1N1CCN(C(C)C)CC1

>  <Energy>  (62) 
50.70871626687487

>  <Genealogy>  (62) 
COc1ccccc1N1CCN(C(C)C)CC1 (3D coordinates assigned)
COc1ccccc1N1CCN(C(C)C)CC1 (nonaromatic ring conformer: 50.70871626687487 kcal/mol)

>  <smiles>  (62) 
COc1ccccc1N1CCN(C(C)C)CC1

>  <score_type>  (62) 
oracle

>  <origin>  (62) 
autodockgpu

>  <m_score__min__energy>  (62) 
-4.9400000000000004

>  <m_primary>  (62) 
energy

>  <meeko>  (62) 
{"free_energy": -4.93, "intermolecular_energy": -5.83, "internal_energy": -0.66, "cluster_size": 18, "cluster_id": 1, "rank_in_cluster": 9}

>  <energy>  (62) 
-4.94

>  <cluster_rmsd>  (62) 
0.04

>  <rmsd>  (62) 
273.2

>  <cluster>  (62) 
1

$$$$
LUCSOMIVZJTSBJ-UHFFFAOYNA-N
     RDKit          3D

 39 40  0  0  0  0  0  0  0  0999 V2000
  138.6670   74.3200  221.5690 C   0  0  0  0  0  0  0  0  0  0  0  0
  139.9820   74.4360  222.1010 O   0  0  0  0  0  0  0  0  0  0  0  0
  141.1610   74.2530  221.3600 C   0  0  0  0  0  0  0  0  0  0  0  0
  141.6970   72.9710  221.1240 C   0  0  0  0  0  0  0  0  0  0  0  0
  142.8860   72.8230  220.4060 C   0  0  0  0  0  0  0  0  0  0  0  0
  143.5510   73.9460  219.9150 C   0  0  0  0  0  0  0  0  0  0  0  0
  143.0290   75.2220  220.1380 C   0  0  0  0  0  0  0  0  0  0  0  0
  141.8330   75.3860  220.8560 C   0  0  0  0  0  0  0  0  0  0  0  0
  141.3000   76.7070  221.0560 N   0  0  0  0  0  0  0  0  0  0  0  0
  141.4530   77.7330  220.0190 C   0  0  0  0  0  0  0  0  0  0  0  0
  141.3930   79.1360  220.6340 C   0  0  0  0  0  0  0  0  0  0  0  0
  142.1390   79.1460  221.9140 N   0  0  0  0  0  0  0  0  0  0  0  0
  142.3930   80.5320  222.4130 C   0  0  0  0  0  0  0  0  0  0  0  0
  141.1000   81.3790  222.4140 C   0  0  0  0  0  0  0  0  0  0  0  0
  142.9480   80.5210  223.8530 C   0  0  0  0  0  0  0  0  0  0  0  0
  141.4310   78.3150  222.9300 C   0  0  0  0  0  0  0  0  0  0  0  0
  140.7080   77.0860  222.3400 C   0  0  0  0  0  0  0  0  0  0  0  0
  137.9421   74.2561  222.3939 H   0  0  0  0  0  0  0  0  0  0  0  0
  138.4424   75.2018  220.9510 H   0  0  0  0  0  0  0  0  0  0  0  0
  138.6002   73.4125  220.9510 H   0  0  0  0  0  0  0  0  0  0  0  0
  141.1758   72.0815  221.5076 H   0  0  0  0  0  0  0  0  0  0  0  0
  143.2984   71.8190  220.2276 H   0  0  0  0  0  0  0  0  0  0  0  0
  144.4880   73.8267  219.3512 H   0  0  0  0  0  0  0  0  0  0  0  0
  143.5580   76.1044  219.7488 H   0  0  0  0  0  0  0  0  0  0  0  0
  142.4233   77.5990  219.5185 H   0  0  0  0  0  0  0  0  0  0  0  0
  140.6326   77.6287  219.2936 H   0  0  0  0  0  0  0  0  0  0  0  0
  141.8452   79.8601  219.9403 H   0  0  0  0  0  0  0  0  0  0  0  0
  140.3441   79.4111  220.8186 H   0  0  0  0  0  0  0  0  0  0  0  0
  143.1318   80.9733  221.7278 H   0  0  0  0  0  0  0  0  0  0  0  0
  140.7939   81.5795  223.4513 H   0  0  0  0  0  0  0  0  0  0  0  0
  141.2852   82.3314  221.8957 H   0  0  0  0  0  0  0  0  0  0  0  0
  140.3009   80.8288  221.8957 H   0  0  0  0  0  0  0  0  0  0  0  0
  142.1124   80.5376  224.5681 H   0  0  0  0  0  0  0  0  0  0  0  0
  143.5458   79.6108  224.0086 H   0  0  0  0  0  0  0  0  0  0  0  0
  143.5814   81.4068  224.0086 H   0  0  0  0  0  0  0  0  0  0  0  0
  142.1699   77.9623  223.6646 H   0  0  0  0  0  0  0  0  0  0  0  0
  140.6576   78.9537  223.3815 H   0  0  0  0  0  0  0  0  0  0  0  0
  140.7963   76.2434  223.0415 H   0  0  0  0  0  0  0  0  0  0  0  0
  139.6495   77.3397  222.1813 H   0  0  0  0  0  0  0  0  0  0  0  0
  1  2  1  0
  2  3  1  0
  3  4  2  0
  4  5  1  0
  5  6  2  0
  6  7  1  0
  7  8  2  0
  8  9  1  0
  9 10  1  0
 10 11  1  0
 11 12  1  0
 12 13  1  0
 13 14  1  0
 13 15  1  0
 12 16  1  0
 16 17  1  0
  8  3  1  0
 17  9  1  0
  1 18  1  0
  1 19  1  0
  1 20  1  0
  4 21  1  0
  5 22  1  0
  6 23  1  0
  7 24  1  0
 10 25  1  0
 10 26  1  0
 11 27  1  0
 11 28  1  0
 13 29  1  0
 14 30  1  0
 14 31  1  0
 14 32  1  0
 15 33  1  0
 15 34  1  0
 15 35  1  0
 16 36  1  0
 16 37  1  0
 17 38  1  0
 17 39  1  0
M  END
>  <UniqueID>  (63) 
24

>  <SMILES>  (63) 
COc1ccccc1N1CCN(C(C)C)CC1

>  <Energy>  (63) 
50.70871626687487

>  <Genealogy>  (63) 
COc1ccccc1N1CCN(C(C)C)CC1 (3D coordinates assigned)
COc1ccccc1N1CCN(C(C)C)CC1 (nonaromatic ring conformer: 50.70871626687487 kcal/mol)

>  <smiles>  (63) 
COc1ccccc1N1CCN(C(C)C)CC1

>  <score_type>  (63) 
oracle

>  <origin>  (63) 
autodockgpu

>  <m_score__min__energy>  (63) 
-4.9400000000000004

>  <m_primary>  (63) 
energy

>  <meeko>  (63) 
{"free_energy": -4.94, "intermolecular_energy": -5.84, "internal_energy": -0.65, "cluster_size": 18, "cluster_id": 1, "rank_in_cluster": 2}

>  <energy>  (63) 
-4.94

>  <cluster_rmsd>  (63) 
0.02

>  <rmsd>  (63) 
273.2

>  <cluster>  (63) 
1

$$$$
LUCSOMIVZJTSBJ-UHFFFAOYNA-N
     RDKit          3D

 39 40  0  0  0  0  0  0  0  0999 V2000
  138.6640   74.3380  221.5410 C   0  0  0  0  0  0  0  0  0  0  0  0
  139.9800   74.4280  222.0790 O   0  0  0  0  0  0  0  0  0  0  0  0
  141.1580   74.2550  221.3360 C   0  0  0  0  0  0  0  0  0  0  0  0
  141.6980   72.9770  221.0880 C   0  0  0  0  0  0  0  0  0  0  0  0
  142.8870   72.8390  220.3670 C   0  0  0  0  0  0  0  0  0  0  0  0
  143.5480   73.9680  219.8860 C   0  0  0  0  0  0  0  0  0  0  0  0
  143.0220   75.2400  220.1200 C   0  0  0  0  0  0  0  0  0  0  0  0
  141.8270   75.3940  220.8410 C   0  0  0  0  0  0  0  0  0  0  0  0
  141.2900   76.7120  221.0530 N   0  0  0  0  0  0  0  0  0  0  0  0
  141.4320   77.7450  220.0220 C   0  0  0  0  0  0  0  0  0  0  0  0
  141.3700   79.1440  220.6460 C   0  0  0  0  0  0  0  0  0  0  0  0
  142.1250   79.1490  221.9210 N   0  0  0  0  0  0  0  0  0  0  0  0
  142.3770   80.5320  222.4270 C   0  0  0  0  0  0  0  0  0  0  0  0
  141.0750   81.3650  222.4690 C   0  0  0  0  0  0  0  0  0  0  0  0
  142.9680   80.5140  223.8530 C   0  0  0  0  0  0  0  0  0  0  0  0
  141.4270   78.3090  222.9360 C   0  0  0  0  0  0  0  0  0  0  0  0
  140.7040   77.0810  222.3430 C   0  0  0  0  0  0  0  0  0  0  0  0
  137.9345   74.2881  222.3628 H   0  0  0  0  0  0  0  0  0  0  0  0
  138.4594   75.2242  220.9224 H   0  0  0  0  0  0  0  0  0  0  0  0
  138.5819   73.4321  220.9224 H   0  0  0  0  0  0  0  0  0  0  0  0
  141.1802   72.0825  221.4644 H   0  0  0  0  0  0  0  0  0  0  0  0
  143.3020   71.8378  220.1787 H   0  0  0  0  0  0  0  0  0  0  0  0
  144.4854   73.8567  219.3213 H   0  0  0  0  0  0  0  0  0  0  0  0
  143.5472   76.1274  219.7370 H   0  0  0  0  0  0  0  0  0  0  0  0
  142.3997   77.6183  219.5145 H   0  0  0  0  0  0  0  0  0  0  0  0
  140.6074   77.6418  219.3014 H   0  0  0  0  0  0  0  0  0  0  0  0
  141.8142   79.8744  219.9538 H   0  0  0  0  0  0  0  0  0  0  0  0
  140.3212   79.4135  220.8394 H   0  0  0  0  0  0  0  0  0  0  0  0
  143.0940   80.9872  221.7279 H   0  0  0  0  0  0  0  0  0  0  0  0
  140.7900   81.5473  223.5157 H   0  0  0  0  0  0  0  0  0  0  0  0
  141.2384   82.3267  221.9606 H   0  0  0  0  0  0  0  0  0  0  0  0
  140.2704   80.8136  221.9606 H   0  0  0  0  0  0  0  0  0  0  0  0
  142.1508   80.5389  224.5889 H   0  0  0  0  0  0  0  0  0  0  0  0
  143.5598   79.5974  223.9931 H   0  0  0  0  0  0  0  0  0  0  0  0
  143.6145   81.3929  223.9931 H   0  0  0  0  0  0  0  0  0  0  0  0
  142.1722   77.9541  223.6632 H   0  0  0  0  0  0  0  0  0  0  0  0
  140.6544   78.9420  223.3968 H   0  0  0  0  0  0  0  0  0  0  0  0
  140.7992   76.2344  223.0388 H   0  0  0  0  0  0  0  0  0  0  0  0
  139.6437   77.3320  222.1924 H   0  0  0  0  0  0  0  0  0  0  0  0
  1  2  1  0
  2  3  1  0
  3  4  2  0
  4  5  1  0
  5  6  2  0
  6  7  1  0
  7  8  2  0
  8  9  1  0
  9 10  1  0
 10 11  1  0
 11 12  1  0
 12 13  1  0
 13 14  1  0
 13 15  1  0
 12 16  1  0
 16 17  1  0
  8  3  1  0
 17  9  1  0
  1 18  1  0
  1 19  1  0
  1 20  1  0
  4 21  1  0
  5 22  1  0
  6 23  1  0
  7 24  1  0
 10 25  1  0
 10 26  1  0
 11 27  1  0
 11 28  1  0
 13 29  1  0
 14 30  1  0
 14 31  1  0
 14 32  1  0
 15 33  1  0
 15 34  1  0
 15 35  1  0
 16 36  1  0
 16 37  1  0
 17 38  1  0
 17 39  1  0
M  END
>  <UniqueID>  (64) 
24

>  <SMILES>  (64) 
COc1ccccc1N1CCN(C(C)C)CC1

>  <Energy>  (64) 
50.70871626687487

>  <Genealogy>  (64) 
COc1ccccc1N1CCN(C(C)C)CC1 (3D coordinates assigned)
COc1ccccc1N1CCN(C(C)C)CC1 (nonaromatic ring conformer: 50.70871626687487 kcal/mol)

>  <smiles>  (64) 
COc1ccccc1N1CCN(C(C)C)CC1

>  <score_type>  (64) 
oracle

>  <origin>  (64) 
autodockgpu

>  <m_score__min__energy>  (64) 
-4.9400000000000004

>  <m_primary>  (64) 
energy

>  <meeko>  (64) 
{"free_energy": -4.94, "intermolecular_energy": -5.83, "internal_energy": -0.65, "cluster_size": 18, "cluster_id": 1, "rank_in_cluster": 7}

>  <energy>  (64) 
-4.94

>  <cluster_rmsd>  (64) 
0.02

>  <rmsd>  (64) 
273.2

>  <cluster>  (64) 
1

$$$$
LUCSOMIVZJTSBJ-UHFFFAOYNA-N
     RDKit          3D

 39 40  0  0  0  0  0  0  0  0999 V2000
  139.1840   73.3690  221.8780 C   0  0  0  0  0  0  0  0  0  0  0  0
  140.2460   74.3140  221.9680 O   0  0  0  0  0  0  0  0  0  0  0  0
  141.4370   74.2480  221.2280 C   0  0  0  0  0  0  0  0  0  0  0  0
  142.0670   73.0190  220.9440 C   0  0  0  0  0  0  0  0  0  0  0  0
  143.2650   72.9880  220.2270 C   0  0  0  0  0  0  0  0  0  0  0  0
  143.8470   74.1760  219.7840 C   0  0  0  0  0  0  0  0  0  0  0  0
  143.2310   75.4000  220.0540 C   0  0  0  0  0  0  0  0  0  0  0  0
  142.0250   75.4460  220.7720 C   0  0  0  0  0  0  0  0  0  0  0  0
  141.3950   76.7160  221.0210 N   0  0  0  0  0  0  0  0  0  0  0  0
  141.4610   77.7850  220.0190 C   0  0  0  0  0  0  0  0  0  0  0  0
  141.2990   79.1580  220.6820 C   0  0  0  0  0  0  0  0  0  0  0  0
  142.0530   79.1810  221.9570 N   0  0  0  0  0  0  0  0  0  0  0  0
  142.2060   80.5640  222.5030 C   0  0  0  0  0  0  0  0  0  0  0  0
  140.8330   81.2390  222.7250 C   0  0  0  0  0  0  0  0  0  0  0  0
  142.9510   80.5600  223.8550 C   0  0  0  0  0  0  0  0  0  0  0  0
  141.4190   78.2640  222.9480 C   0  0  0  0  0  0  0  0  0  0  0  0
  140.7860   77.0050  222.3200 C   0  0  0  0  0  0  0  0  0  0  0  0
  138.8617   73.0822  222.8899 H   0  0  0  0  0  0  0  0  0  0  0  0
  138.3381   73.8185  221.3373 H   0  0  0  0  0  0  0  0  0  0  0  0
  139.5322   72.4766  221.3373 H   0  0  0  0  0  0  0  0  0  0  0  0
  141.6121   72.0789  221.2893 H   0  0  0  0  0  0  0  0  0  0  0  0
  143.7507   72.0249  220.0111 H   0  0  0  0  0  0  0  0  0  0  0  0
  144.7919   74.1486  219.2215 H   0  0  0  0  0  0  0  0  0  0  0  0
  143.6934   76.3340  219.7020 H   0  0  0  0  0  0  0  0  0  0  0  0
  142.4347   77.7426  219.5090 H   0  0  0  0  0  0  0  0  0  0  0  0
  140.6452   77.6428  219.2949 H   0  0  0  0  0  0  0  0  0  0  0  0
  141.6887   79.9377  220.0111 H   0  0  0  0  0  0  0  0  0  0  0  0
  140.2338   79.3461  220.8817 H   0  0  0  0  0  0  0  0  0  0  0  0
  142.7862   81.1252  221.7557 H   0  0  0  0  0  0  0  0  0  0  0  0
  140.6410   81.3334  223.8040 H   0  0  0  0  0  0  0  0  0  0  0  0
  140.8368   82.2380  222.2645 H   0  0  0  0  0  0  0  0  0  0  0  0
  140.0443   80.6259  222.2645 H   0  0  0  0  0  0  0  0  0  0  0  0
  142.2197   80.5639  224.6767 H   0  0  0  0  0  0  0  0  0  0  0  0
  143.5773   79.6585  223.9259 H   0  0  0  0  0  0  0  0  0  0  0  0
  143.5869   81.4547  223.9259 H   0  0  0  0  0  0  0  0  0  0  0  0
  142.1891   77.9434  223.6651 H   0  0  0  0  0  0  0  0  0  0  0  0
  140.6036   78.8261  223.4266 H   0  0  0  0  0  0  0  0  0  0  0  0
  140.9429   76.1480  222.9916 H   0  0  0  0  0  0  0  0  0  0  0  0
  139.7101   77.1831  222.1757 H   0  0  0  0  0  0  0  0  0  0  0  0
  1  2  1  0
  2  3  1  0
  3  4  2  0
  4  5  1  0
  5  6  2  0
  6  7  1  0
  7  8  2  0
  8  9  1  0
  9 10  1  0
 10 11  1  0
 11 12  1  0
 12 13  1  0
 13 14  1  0
 13 15  1  0
 12 16  1  0
 16 17  1  0
  8  3  1  0
 17  9  1  0
  1 18  1  0
  1 19  1  0
  1 20  1  0
  4 21  1  0
  5 22  1  0
  6 23  1  0
  7 24  1  0
 10 25  1  0
 10 26  1  0
 11 27  1  0
 11 28  1  0
 13 29  1  0
 14 30  1  0
 14 31  1  0
 14 32  1  0
 15 33  1  0
 15 34  1  0
 15 35  1  0
 16 36  1  0
 16 37  1  0
 17 38  1  0
 17 39  1  0
M  END
>  <UniqueID>  (65) 
24

>  <SMILES>  (65) 
COc1ccccc1N1CCN(C(C)C)CC1

>  <Energy>  (65) 
50.70871626687487

>  <Genealogy>  (65) 
COc1ccccc1N1CCN(C(C)C)CC1 (3D coordinates assigned)
COc1ccccc1N1CCN(C(C)C)CC1 (nonaromatic ring conformer: 50.70871626687487 kcal/mol)

>  <smiles>  (65) 
COc1ccccc1N1CCN(C(C)C)CC1

>  <score_type>  (65) 
oracle

>  <origin>  (65) 
autodockgpu

>  <m_score__min__energy>  (65) 
-4.9400000000000004

>  <m_primary>  (65) 
energy

>  <meeko>  (65) 
{"free_energy": -4.93, "intermolecular_energy": -5.82, "internal_energy": -0.63, "cluster_size": 18, "cluster_id": 1, "rank_in_cluster": 13}

>  <energy>  (65) 
-4.94

>  <cluster_rmsd>  (65) 
0.03

>  <rmsd>  (65) 
273.21

>  <cluster>  (65) 
1

$$$$
LUCSOMIVZJTSBJ-UHFFFAOYNA-N
     RDKit          3D

 39 40  0  0  0  0  0  0  0  0999 V2000
  138.7250   74.4300  221.4320 C   0  0  0  0  0  0  0  0  0  0  0  0
  140.0270   74.3650  222.0050 O   0  0  0  0  0  0  0  0  0  0  0  0
  141.2170   74.2440  221.2690 C   0  0  0  0  0  0  0  0  0  0  0  0
  141.7930   72.9880  220.9910 C   0  0  0  0  0  0  0  0  0  0  0  0
  142.9910   72.9010  220.2780 C   0  0  0  0  0  0  0  0  0  0  0  0
  143.6260   74.0610  219.8350 C   0  0  0  0  0  0  0  0  0  0  0  0
  143.0640   75.3110  220.0990 C   0  0  0  0  0  0  0  0  0  0  0  0
  141.8590   75.4130  220.8120 C   0  0  0  0  0  0  0  0  0  0  0  0
  141.2850   76.7110  221.0550 N   0  0  0  0  0  0  0  0  0  0  0  0
  141.3830   77.7660  220.0420 C   0  0  0  0  0  0  0  0  0  0  0  0
  141.2870   79.1510  220.6930 C   0  0  0  0  0  0  0  0  0  0  0  0
  142.0560   79.1550  221.9590 N   0  0  0  0  0  0  0  0  0  0  0  0
  142.2730   80.5360  222.4880 C   0  0  0  0  0  0  0  0  0  0  0  0
  140.9380   81.3020  222.6320 C   0  0  0  0  0  0  0  0  0  0  0  0
  142.9500   80.5100  223.8750 C   0  0  0  0  0  0  0  0  0  0  0  0
  141.3970   78.2750  222.9660 C   0  0  0  0  0  0  0  0  0  0  0  0
  140.7050   77.0370  222.3580 C   0  0  0  0  0  0  0  0  0  0  0  0
  137.9730   74.4675  222.2339 H   0  0  0  0  0  0  0  0  0  0  0  0
  138.6429   75.3334  220.8098 H   0  0  0  0  0  0  0  0  0  0  0  0
  138.5534   73.5393  220.8098 H   0  0  0  0  0  0  0  0  0  0  0  0
  141.2958   72.0701  221.3378 H   0  0  0  0  0  0  0  0  0  0  0  0
  143.4339   71.9168  220.0657 H   0  0  0  0  0  0  0  0  0  0  0  0
  144.5712   73.9907  219.2767 H   0  0  0  0  0  0  0  0  0  0  0  0
  143.5687   76.2224  219.7460 H   0  0  0  0  0  0  0  0  0  0  0  0
  142.3476   77.6779  219.5206 H   0  0  0  0  0  0  0  0  0  0  0  0
  140.5529   77.6512  219.3294 H   0  0  0  0  0  0  0  0  0  0  0  0
  141.7013   79.9070  220.0097 H   0  0  0  0  0  0  0  0  0  0  0  0
  140.2330   79.3856  220.9030 H   0  0  0  0  0  0  0  0  0  0  0  0
  142.9233   81.0439  221.7606 H   0  0  0  0  0  0  0  0  0  0  0  0
  140.7051   81.4356  223.6987 H   0  0  0  0  0  0  0  0  0  0  0  0
  141.0264   82.2867  222.1499 H   0  0  0  0  0  0  0  0  0  0  0  0
  140.1325   80.7287  222.1499 H   0  0  0  0  0  0  0  0  0  0  0  0
  142.1796   80.5396  224.6596 H   0  0  0  0  0  0  0  0  0  0  0  0
  143.5419   79.5885  223.9769 H   0  0  0  0  0  0  0  0  0  0  0  0
  143.6109   81.3834  223.9769 H   0  0  0  0  0  0  0  0  0  0  0  0
  142.1617   77.9297  223.6773 H   0  0  0  0  0  0  0  0  0  0  0  0
  140.6112   78.8749  223.4483 H   0  0  0  0  0  0  0  0  0  0  0  0
  140.8351   76.1807  223.0361 H   0  0  0  0  0  0  0  0  0  0  0  0
  139.6357   77.2580  222.2250 H   0  0  0  0  0  0  0  0  0  0  0  0
  1  2  1  0
  2  3  1  0
  3  4  2  0
  4  5  1  0
  5  6  2  0
  6  7  1  0
  7  8  2  0
  8  9  1  0
  9 10  1  0
 10 11  1  0
 11 12  1  0
 12 13  1  0
 13 14  1  0
 13 15  1  0
 12 16  1  0
 16 17  1  0
  8  3  1  0
 17  9  1  0
  1 18  1  0
  1 19  1  0
  1 20  1  0
  4 21  1  0
  5 22  1  0
  6 23  1  0
  7 24  1  0
 10 25  1  0
 10 26  1  0
 11 27  1  0
 11 28  1  0
 13 29  1  0
 14 30  1  0
 14 31  1  0
 14 32  1  0
 15 33  1  0
 15 34  1  0
 15 35  1  0
 16 36  1  0
 16 37  1  0
 17 38  1  0
 17 39  1  0
M  END
>  <UniqueID>  (66) 
24

>  <SMILES>  (66) 
COc1ccccc1N1CCN(C(C)C)CC1

>  <Energy>  (66) 
50.70871626687487

>  <Genealogy>  (66) 
COc1ccccc1N1CCN(C(C)C)CC1 (3D coordinates assigned)
COc1ccccc1N1CCN(C(C)C)CC1 (nonaromatic ring conformer: 50.70871626687487 kcal/mol)

>  <smiles>  (66) 
COc1ccccc1N1CCN(C(C)C)CC1

>  <score_type>  (66) 
oracle

>  <origin>  (66) 
autodockgpu

>  <m_score__min__energy>  (66) 
-4.9400000000000004

>  <m_primary>  (66) 
energy

>  <meeko>  (66) 
{"free_energy": -4.92, "intermolecular_energy": -5.82, "internal_energy": -0.66, "cluster_size": 18, "cluster_id": 1, "rank_in_cluster": 15}

>  <energy>  (66) 
-4.94

>  <cluster_rmsd>  (66) 
0.02

>  <rmsd>  (66) 
273.2

>  <cluster>  (66) 
1

$$$$
LUCSOMIVZJTSBJ-UHFFFAOYNA-N
     RDKit          3D

 39 40  0  0  0  0  0  0  0  0999 V2000
  138.6730   74.4700  221.5130 C   0  0  0  0  0  0  0  0  0  0  0  0
  139.9810   74.4230  222.0740 O   0  0  0  0  0  0  0  0  0  0  0  0
  141.1610   74.2610  221.3320 C   0  0  0  0  0  0  0  0  0  0  0  0
  141.7090   72.9880  221.0770 C   0  0  0  0  0  0  0  0  0  0  0  0
  142.9000   72.8610  220.3570 C   0  0  0  0  0  0  0  0  0  0  0  0
  143.5550   73.9970  219.8830 C   0  0  0  0  0  0  0  0  0  0  0  0
  143.0210   75.2650  220.1240 C   0  0  0  0  0  0  0  0  0  0  0  0
  141.8230   75.4070  220.8440 C   0  0  0  0  0  0  0  0  0  0  0  0
  141.2780   76.7210  221.0630 N   0  0  0  0  0  0  0  0  0  0  0  0
  141.4080   77.7580  220.0350 C   0  0  0  0  0  0  0  0  0  0  0  0
  141.3400   79.1540  220.6640 C   0  0  0  0  0  0  0  0  0  0  0  0
  142.1000   79.1600  221.9360 N   0  0  0  0  0  0  0  0  0  0  0  0
  142.3440   80.5440  222.4460 C   0  0  0  0  0  0  0  0  0  0  0  0
  141.0370   81.3680  222.4940 C   0  0  0  0  0  0  0  0  0  0  0  0
  142.9380   80.5240  223.8700 C   0  0  0  0  0  0  0  0  0  0  0  0
  141.4120   78.3110  222.9510 C   0  0  0  0  0  0  0  0  0  0  0  0
  140.6960   77.0810  222.3570 C   0  0  0  0  0  0  0  0  0  0  0  0
  137.9279   74.4968  222.3218 H   0  0  0  0  0  0  0  0  0  0  0  0
  138.5726   75.3723  220.8919 H   0  0  0  0  0  0  0  0  0  0  0  0
  138.5081   73.5772  220.8919 H   0  0  0  0  0  0  0  0  0  0  0  0
  141.1958   72.0882  221.4472 H   0  0  0  0  0  0  0  0  0  0  0  0
  143.3213   71.8634  220.1639 H   0  0  0  0  0  0  0  0  0  0  0  0
  144.4935   73.8945  219.3185 H   0  0  0  0  0  0  0  0  0  0  0  0
  143.5417   76.1579  219.7477 H   0  0  0  0  0  0  0  0  0  0  0  0
  142.3739   77.6394  219.5222 H   0  0  0  0  0  0  0  0  0  0  0  0
  140.5805   77.6518  219.3181 H   0  0  0  0  0  0  0  0  0  0  0  0
  141.7767   79.8895  219.9724 H   0  0  0  0  0  0  0  0  0  0  0  0
  140.2903   79.4160  220.8627 H   0  0  0  0  0  0  0  0  0  0  0  0
  143.0558   81.0069  221.7467 H   0  0  0  0  0  0  0  0  0  0  0  0
  140.7542   81.5463  223.5420 H   0  0  0  0  0  0  0  0  0  0  0  0
  141.1924   82.3318  221.9871 H   0  0  0  0  0  0  0  0  0  0  0  0
  140.2344   80.8123  221.9871 H   0  0  0  0  0  0  0  0  0  0  0  0
  142.1226   80.5515  224.6078 H   0  0  0  0  0  0  0  0  0  0  0  0
  143.5272   79.6055  224.0086 H   0  0  0  0  0  0  0  0  0  0  0  0
  143.5876   81.4008  224.0086 H   0  0  0  0  0  0  0  0  0  0  0  0
  142.1627   77.9589  223.6738 H   0  0  0  0  0  0  0  0  0  0  0  0
  140.6367   78.9368  223.4172 H   0  0  0  0  0  0  0  0  0  0  0  0
  140.8008   76.2325  223.0491 H   0  0  0  0  0  0  0  0  0  0  0  0
  139.6332   77.3250  222.2122 H   0  0  0  0  0  0  0  0  0  0  0  0
  1  2  1  0
  2  3  1  0
  3  4  2  0
  4  5  1  0
  5  6  2  0
  6  7  1  0
  7  8  2  0
  8  9  1  0
  9 10  1  0
 10 11  1  0
 11 12  1  0
 12 13  1  0
 13 14  1  0
 13 15  1  0
 12 16  1  0
 16 17  1  0
  8  3  1  0
 17  9  1  0
  1 18  1  0
  1 19  1  0
  1 20  1  0
  4 21  1  0
  5 22  1  0
  6 23  1  0
  7 24  1  0
 10 25  1  0
 10 26  1  0
 11 27  1  0
 11 28  1  0
 13 29  1  0
 14 30  1  0
 14 31  1  0
 14 32  1  0
 15 33  1  0
 15 34  1  0
 15 35  1  0
 16 36  1  0
 16 37  1  0
 17 38  1  0
 17 39  1  0
M  END
>  <UniqueID>  (67) 
24

>  <SMILES>  (67) 
COc1ccccc1N1CCN(C(C)C)CC1

>  <Energy>  (67) 
50.70871626687487

>  <Genealogy>  (67) 
COc1ccccc1N1CCN(C(C)C)CC1 (3D coordinates assigned)
COc1ccccc1N1CCN(C(C)C)CC1 (nonaromatic ring conformer: 50.70871626687487 kcal/mol)

>  <smiles>  (67) 
COc1ccccc1N1CCN(C(C)C)CC1

>  <score_type>  (67) 
oracle

>  <origin>  (67) 
autodockgpu

>  <m_score__min__energy>  (67) 
-4.9400000000000004

>  <m_primary>  (67) 
energy

>  <meeko>  (67) 
{"free_energy": -4.93, "intermolecular_energy": -5.83, "internal_energy": -0.66, "cluster_size": 18, "cluster_id": 1, "rank_in_cluster": 10}

>  <energy>  (67) 
-4.94

>  <cluster_rmsd>  (67) 
0.03

>  <rmsd>  (67) 
273.2

>  <cluster>  (67) 
1

$$$$
LUCSOMIVZJTSBJ-UHFFFAOYNA-N
     RDKit          3D

 39 40  0  0  0  0  0  0  0  0999 V2000
  142.1730   79.6130  218.8110 C   0  0  0  0  0  0  0  0  0  0  0  0
  141.2860   79.2370  219.8600 O   0  0  0  0  0  0  0  0  0  0  0  0
  141.5740   79.3580  221.2290 C   0  0  0  0  0  0  0  0  0  0  0  0
  142.2060   80.5020  221.7560 C   0  0  0  0  0  0  0  0  0  0  0  0
  142.5030   80.5810  223.1190 C   0  0  0  0  0  0  0  0  0  0  0  0
  142.1730   79.5250  223.9690 C   0  0  0  0  0  0  0  0  0  0  0  0
  141.5430   78.3880  223.4600 C   0  0  0  0  0  0  0  0  0  0  0  0
  141.2360   78.2960  222.0930 C   0  0  0  0  0  0  0  0  0  0  0  0
  140.5670   77.1240  221.5930 N   0  0  0  0  0  0  0  0  0  0  0  0
  139.2740   76.7140  222.1500 C   0  0  0  0  0  0  0  0  0  0  0  0
  139.0520   75.2100  221.9520 C   0  0  0  0  0  0  0  0  0  0  0  0
  140.3200   74.4870  222.2030 N   0  0  0  0  0  0  0  0  0  0  0  0
  140.1180   73.0130  222.3380 C   0  0  0  0  0  0  0  0  0  0  0  0
  138.6790   72.6020  221.9480 C   0  0  0  0  0  0  0  0  0  0  0  0
  141.0910   72.2230  221.4380 C   0  0  0  0  0  0  0  0  0  0  0  0
  141.3180   74.8120  221.1430 C   0  0  0  0  0  0  0  0  0  0  0  0
  141.2160   76.2570  220.6100 C   0  0  0  0  0  0  0  0  0  0  0  0
  143.1046   80.0079  219.2425 H   0  0  0  0  0  0  0  0  0  0  0  0
  142.4003   78.7338  218.1902 H   0  0  0  0  0  0  0  0  0  0  0  0
  141.6992   80.3877  218.1902 H   0  0  0  0  0  0  0  0  0  0  0  0
  142.4671   81.3378  221.0903 H   0  0  0  0  0  0  0  0  0  0  0  0
  142.9976   81.4769  223.5224 H   0  0  0  0  0  0  0  0  0  0  0  0
  142.4095   79.5884  225.0414 H   0  0  0  0  0  0  0  0  0  0  0  0
  141.2853   77.5583  224.1347 H   0  0  0  0  0  0  0  0  0  0  0  0
  139.2549   76.9434  223.2256 H   0  0  0  0  0  0  0  0  0  0  0  0
  138.4746   77.2614  221.6292 H   0  0  0  0  0  0  0  0  0  0  0  0
  138.2832   74.8571  222.6551 H   0  0  0  0  0  0  0  0  0  0  0  0
  138.7198   75.0208  220.9206 H   0  0  0  0  0  0  0  0  0  0  0  0
  140.3060   72.7744  223.3952 H   0  0  0  0  0  0  0  0  0  0  0  0
  138.0864   72.4327  222.8591 H   0  0  0  0  0  0  0  0  0  0  0  0
  138.2169   73.4041  221.3537 H   0  0  0  0  0  0  0  0  0  0  0  0
  138.7102   71.6769  221.3537 H   0  0  0  0  0  0  0  0  0  0  0  0
  141.7918   71.6540  222.0665 H   0  0  0  0  0  0  0  0  0  0  0  0
  140.5213   71.5287  220.8029 H   0  0  0  0  0  0  0  0  0  0  0  0
  141.6535   72.9232  220.8029 H   0  0  0  0  0  0  0  0  0  0  0  0
  142.3256   74.6668  221.5597 H   0  0  0  0  0  0  0  0  0  0  0  0
  141.1117   74.1433  220.2943 H   0  0  0  0  0  0  0  0  0  0  0  0
  142.2269   76.6382  220.4034 H   0  0  0  0  0  0  0  0  0  0  0  0
  140.6149   76.2534  219.6888 H   0  0  0  0  0  0  0  0  0  0  0  0
  1  2  1  0
  2  3  1  0
  3  4  2  0
  4  5  1  0
  5  6  2  0
  6  7  1  0
  7  8  2  0
  8  9  1  0
  9 10  1  0
 10 11  1  0
 11 12  1  0
 12 13  1  0
 13 14  1  0
 13 15  1  0
 12 16  1  0
 16 17  1  0
  8  3  1  0
 17  9  1  0
  1 18  1  0
  1 19  1  0
  1 20  1  0
  4 21  1  0
  5 22  1  0
  6 23  1  0
  7 24  1  0
 10 25  1  0
 10 26  1  0
 11 27  1  0
 11 28  1  0
 13 29  1  0
 14 30  1  0
 14 31  1  0
 14 32  1  0
 15 33  1  0
 15 34  1  0
 15 35  1  0
 16 36  1  0
 16 37  1  0
 17 38  1  0
 17 39  1  0
M  END
>  <UniqueID>  (68) 
24

>  <SMILES>  (68) 
COc1ccccc1N1CCN(C(C)C)CC1

>  <Energy>  (68) 
50.70871626687487

>  <Genealogy>  (68) 
COc1ccccc1N1CCN(C(C)C)CC1 (3D coordinates assigned)
COc1ccccc1N1CCN(C(C)C)CC1 (nonaromatic ring conformer: 50.70871626687487 kcal/mol)

>  <smiles>  (68) 
COc1ccccc1N1CCN(C(C)C)CC1

>  <score_type>  (68) 
oracle

>  <origin>  (68) 
autodockgpu

>  <m_score__min__energy>  (68) 
-4.9400000000000004

>  <m_primary>  (68) 
energy

>  <meeko>  (68) 
{"free_energy": -4.83, "intermolecular_energy": -5.72, "internal_energy": -0.71, "cluster_size": 2, "cluster_id": 2, "rank_in_cluster": 2}

>  <energy>  (68) 
-4.94

>  <cluster_rmsd>  (68) 
0.02

>  <rmsd>  (68) 
273.2

>  <cluster>  (68) 
1

$$$$
LUCSOMIVZJTSBJ-UHFFFAOYNA-N
     RDKit          3D

 39 40  0  0  0  0  0  0  0  0999 V2000
  138.7960   73.9960  221.5490 C   0  0  0  0  0  0  0  0  0  0  0  0
  140.0880   74.3490  222.0330 O   0  0  0  0  0  0  0  0  0  0  0  0
  141.2740   74.2440  221.2890 C   0  0  0  0  0  0  0  0  0  0  0  0
  141.8690   72.9960  221.0140 C   0  0  0  0  0  0  0  0  0  0  0  0
  143.0640   72.9260  220.2930 C   0  0  0  0  0  0  0  0  0  0  0  0
  143.6760   74.0930  219.8400 C   0  0  0  0  0  0  0  0  0  0  0  0
  143.0960   75.3360  220.1010 C   0  0  0  0  0  0  0  0  0  0  0  0
  141.8930   75.4210  220.8220 C   0  0  0  0  0  0  0  0  0  0  0  0
  141.3000   76.7100  221.0630 N   0  0  0  0  0  0  0  0  0  0  0  0
  141.4010   77.7720  220.0560 C   0  0  0  0  0  0  0  0  0  0  0  0
  141.2770   79.1520  220.7120 C   0  0  0  0  0  0  0  0  0  0  0  0
  142.0270   79.1590  221.9900 N   0  0  0  0  0  0  0  0  0  0  0  0
  142.2170   80.5400  222.5300 C   0  0  0  0  0  0  0  0  0  0  0  0
  140.8630   81.2480  222.7630 C   0  0  0  0  0  0  0  0  0  0  0  0
  142.9740   80.5220  223.8750 C   0  0  0  0  0  0  0  0  0  0  0  0
  141.3620   78.2660  222.9830 C   0  0  0  0  0  0  0  0  0  0  0  0
  140.6950   77.0230  222.3580 C   0  0  0  0  0  0  0  0  0  0  0  0
  138.1234   73.8122  222.3997 H   0  0  0  0  0  0  0  0  0  0  0  0
  138.3966   74.8180  220.9367 H   0  0  0  0  0  0  0  0  0  0  0  0
  138.8701   73.0852  220.9367 H   0  0  0  0  0  0  0  0  0  0  0  0
  141.3898   72.0717  221.3691 H   0  0  0  0  0  0  0  0  0  0  0  0
  143.5222   71.9483  220.0828 H   0  0  0  0  0  0  0  0  0  0  0  0
  144.6183   74.0349  219.2754 H   0  0  0  0  0  0  0  0  0  0  0  0
  143.5835   76.2537  219.7402 H   0  0  0  0  0  0  0  0  0  0  0  0
  142.3749   77.6987  219.5498 H   0  0  0  0  0  0  0  0  0  0  0  0
  140.5841   77.6503  219.3295 H   0  0  0  0  0  0  0  0  0  0  0  0
  141.6918   79.9168  220.0390 H   0  0  0  0  0  0  0  0  0  0  0  0
  140.2170   79.3721  220.9070 H   0  0  0  0  0  0  0  0  0  0  0  0
  142.8026   81.0852  221.7751 H   0  0  0  0  0  0  0  0  0  0  0  0
  140.6803   81.3435  223.8435 H   0  0  0  0  0  0  0  0  0  0  0  0
  140.8887   82.2481  222.3057 H   0  0  0  0  0  0  0  0  0  0  0  0
  140.0563   80.6563  222.3057 H   0  0  0  0  0  0  0  0  0  0  0  0
  142.2504   80.5392  224.7033 H   0  0  0  0  0  0  0  0  0  0  0  0
  143.5842   79.6091  223.9401 H   0  0  0  0  0  0  0  0  0  0  0  0
  143.6269   81.4049  223.9401 H   0  0  0  0  0  0  0  0  0  0  0  0
  142.1192   77.9265  223.7051 H   0  0  0  0  0  0  0  0  0  0  0  0
  140.5615   78.8542  223.4555 H   0  0  0  0  0  0  0  0  0  0  0  0
  140.8242   76.1650  223.0342 H   0  0  0  0  0  0  0  0  0  0  0  0
  139.6255   77.2321  222.2084 H   0  0  0  0  0  0  0  0  0  0  0  0
  1  2  1  0
  2  3  1  0
  3  4  2  0
  4  5  1  0
  5  6  2  0
  6  7  1  0
  7  8  2  0
  8  9  1  0
  9 10  1  0
 10 11  1  0
 11 12  1  0
 12 13  1  0
 13 14  1  0
 13 15  1  0
 12 16  1  0
 16 17  1  0
  8  3  1  0
 17  9  1  0
  1 18  1  0
  1 19  1  0
  1 20  1  0
  4 21  1  0
  5 22  1  0
  6 23  1  0
  7 24  1  0
 10 25  1  0
 10 26  1  0
 11 27  1  0
 11 28  1  0
 13 29  1  0
 14 30  1  0
 14 31  1  0
 14 32  1  0
 15 33  1  0
 15 34  1  0
 15 35  1  0
 16 36  1  0
 16 37  1  0
 17 38  1  0
 17 39  1  0
M  END
>  <UniqueID>  (69) 
24

>  <SMILES>  (69) 
COc1ccccc1N1CCN(C(C)C)CC1

>  <Energy>  (69) 
50.70871626687487

>  <Genealogy>  (69) 
COc1ccccc1N1CCN(C(C)C)CC1 (3D coordinates assigned)
COc1ccccc1N1CCN(C(C)C)CC1 (nonaromatic ring conformer: 50.70871626687487 kcal/mol)

>  <smiles>  (69) 
COc1ccccc1N1CCN(C(C)C)CC1

>  <score_type>  (69) 
oracle

>  <origin>  (69) 
autodockgpu

>  <m_score__min__energy>  (69) 
-4.9400000000000004

>  <m_primary>  (69) 
energy

>  <meeko>  (69) 
{"free_energy": -4.93, "intermolecular_energy": -5.83, "internal_energy": -0.64, "cluster_size": 18, "cluster_id": 1, "rank_in_cluster": 11}

>  <energy>  (69) 
-4.93

>  <cluster_rmsd>  (69) 
0.02

>  <rmsd>  (69) 
273.21

>  <cluster>  (69) 
1

$$$$
LUCSOMIVZJTSBJ-UHFFFAOYNA-N
     RDKit          3D

 39 40  0  0  0  0  0  0  0  0999 V2000
  138.6840   74.4790  221.4700 C   0  0  0  0  0  0  0  0  0  0  0  0
  139.9830   74.3940  222.0480 O   0  0  0  0  0  0  0  0  0  0  0  0
  141.1720   74.2360  221.3180 C   0  0  0  0  0  0  0  0  0  0  0  0
  141.7220   72.9630  221.0610 C   0  0  0  0  0  0  0  0  0  0  0  0
  142.9200   72.8400  220.3530 C   0  0  0  0  0  0  0  0  0  0  0  0
  143.5810   73.9790  219.8940 C   0  0  0  0  0  0  0  0  0  0  0  0
  143.0450   75.2450  220.1370 C   0  0  0  0  0  0  0  0  0  0  0  0
  141.8400   75.3840  220.8450 C   0  0  0  0  0  0  0  0  0  0  0  0
  141.2940   76.6970  221.0670 N   0  0  0  0  0  0  0  0  0  0  0  0
  141.4080   77.7310  220.0330 C   0  0  0  0  0  0  0  0  0  0  0  0
  141.3430   79.1290  220.6590 C   0  0  0  0  0  0  0  0  0  0  0  0
  142.1180   79.1420  221.9210 N   0  0  0  0  0  0  0  0  0  0  0  0
  142.3650   80.5270  222.4240 C   0  0  0  0  0  0  0  0  0  0  0  0
  141.0620   81.3590  222.4500 C   0  0  0  0  0  0  0  0  0  0  0  0
  142.9430   80.5160  223.8540 C   0  0  0  0  0  0  0  0  0  0  0  0
  141.4460   78.2940  222.9470 C   0  0  0  0  0  0  0  0  0  0  0  0
  140.7260   77.0590  222.3660 C   0  0  0  0  0  0  0  0  0  0  0  0
  137.9296   74.5284  222.2691 H   0  0  0  0  0  0  0  0  0  0  0  0
  138.6182   75.3834  220.8473 H   0  0  0  0  0  0  0  0  0  0  0  0
  138.5009   73.5909  220.8473 H   0  0  0  0  0  0  0  0  0  0  0  0
  141.2044   72.0613  221.4203 H   0  0  0  0  0  0  0  0  0  0  0  0
  143.3425   71.8434  220.1573 H   0  0  0  0  0  0  0  0  0  0  0  0
  144.5260   73.8798  219.3397 H   0  0  0  0  0  0  0  0  0  0  0  0
  143.5701   76.1398  219.7714 H   0  0  0  0  0  0  0  0  0  0  0  0
  142.3679   77.6138  219.5088 H   0  0  0  0  0  0  0  0  0  0  0  0
  140.5726   77.6196  219.3262 H   0  0  0  0  0  0  0  0  0  0  0  0
  141.7687   79.8638  219.9598 H   0  0  0  0  0  0  0  0  0  0  0  0
  140.2949   79.3876  220.8700 H   0  0  0  0  0  0  0  0  0  0  0  0
  143.0887   80.9795  221.7301 H   0  0  0  0  0  0  0  0  0  0  0  0
  140.7677   81.5469  223.4931 H   0  0  0  0  0  0  0  0  0  0  0  0
  141.2290   82.3180  221.9377 H   0  0  0  0  0  0  0  0  0  0  0  0
  140.2623   80.8040  221.9377 H   0  0  0  0  0  0  0  0  0  0  0  0
  142.1191   80.5317  224.5826 H   0  0  0  0  0  0  0  0  0  0  0  0
  143.5440   79.6063  223.9996 H   0  0  0  0  0  0  0  0  0  0  0  0
  143.5781   81.4022  223.9996 H   0  0  0  0  0  0  0  0  0  0  0  0
  142.2071   77.9466  223.6612 H   0  0  0  0  0  0  0  0  0  0  0  0
  140.6746   78.9187  223.4210 H   0  0  0  0  0  0  0  0  0  0  0  0
  140.8416   76.2132  223.0597 H   0  0  0  0  0  0  0  0  0  0  0  0
  139.6606   77.2987  222.2334 H   0  0  0  0  0  0  0  0  0  0  0  0
  1  2  1  0
  2  3  1  0
  3  4  2  0
  4  5  1  0
  5  6  2  0
  6  7  1  0
  7  8  2  0
  8  9  1  0
  9 10  1  0
 10 11  1  0
 11 12  1  0
 12 13  1  0
 13 14  1  0
 13 15  1  0
 12 16  1  0
 16 17  1  0
  8  3  1  0
 17  9  1  0
  1 18  1  0
  1 19  1  0
  1 20  1  0
  4 21  1  0
  5 22  1  0
  6 23  1  0
  7 24  1  0
 10 25  1  0
 10 26  1  0
 11 27  1  0
 11 28  1  0
 13 29  1  0
 14 30  1  0
 14 31  1  0
 14 32  1  0
 15 33  1  0
 15 34  1  0
 15 35  1  0
 16 36  1  0
 16 37  1  0
 17 38  1  0
 17 39  1  0
M  END
>  <UniqueID>  (70) 
24

>  <SMILES>  (70) 
COc1ccccc1N1CCN(C(C)C)CC1

>  <Energy>  (70) 
50.70871626687487

>  <Genealogy>  (70) 
COc1ccccc1N1CCN(C(C)C)CC1 (3D coordinates assigned)
COc1ccccc1N1CCN(C(C)C)CC1 (nonaromatic ring conformer: 50.70871626687487 kcal/mol)

>  <smiles>  (70) 
COc1ccccc1N1CCN(C(C)C)CC1

>  <score_type>  (70) 
oracle

>  <origin>  (70) 
autodockgpu

>  <m_score__min__energy>  (70) 
-4.9400000000000004

>  <m_primary>  (70) 
energy

>  <meeko>  (70) 
{"free_energy": -4.92, "intermolecular_energy": -5.82, "internal_energy": -0.67, "cluster_size": 18, "cluster_id": 1, "rank_in_cluster": 17}

>  <energy>  (70) 
-4.93

>  <cluster_rmsd>  (70) 
0.04

>  <rmsd>  (70) 
273.2

>  <cluster>  (70) 
1

$$$$
LUCSOMIVZJTSBJ-UHFFFAOYNA-N
     RDKit          3D

 39 40  0  0  0  0  0  0  0  0999 V2000
  138.6680   74.4630  221.5450 C   0  0  0  0  0  0  0  0  0  0  0  0
  139.9790   74.4330  222.0980 O   0  0  0  0  0  0  0  0  0  0  0  0
  141.1550   74.2550  221.3520 C   0  0  0  0  0  0  0  0  0  0  0  0
  141.6940   72.9750  221.1090 C   0  0  0  0  0  0  0  0  0  0  0  0
  142.8800   72.8330  220.3850 C   0  0  0  0  0  0  0  0  0  0  0  0
  143.5400   73.9600  219.8950 C   0  0  0  0  0  0  0  0  0  0  0  0
  143.0150   75.2330  220.1250 C   0  0  0  0  0  0  0  0  0  0  0  0
  141.8220   75.3910  220.8490 C   0  0  0  0  0  0  0  0  0  0  0  0
  141.2870   76.7110  221.0560 N   0  0  0  0  0  0  0  0  0  0  0  0
  141.4280   77.7390  220.0200 C   0  0  0  0  0  0  0  0  0  0  0  0
  141.3680   79.1410  220.6380 C   0  0  0  0  0  0  0  0  0  0  0  0
  142.1240   79.1510  221.9120 N   0  0  0  0  0  0  0  0  0  0  0  0
  142.3780   80.5360  222.4120 C   0  0  0  0  0  0  0  0  0  0  0  0
  141.0810   81.3770  222.4320 C   0  0  0  0  0  0  0  0  0  0  0  0
  142.9510   80.5240  223.8450 C   0  0  0  0  0  0  0  0  0  0  0  0
  141.4270   78.3150  222.9310 C   0  0  0  0  0  0  0  0  0  0  0  0
  140.7030   77.0850  222.3440 C   0  0  0  0  0  0  0  0  0  0  0  0
  137.9274   74.4799  222.3581 H   0  0  0  0  0  0  0  0  0  0  0  0
  138.5522   75.3640  220.9247 H   0  0  0  0  0  0  0  0  0  0  0  0
  138.5111   73.5682  220.9247 H   0  0  0  0  0  0  0  0  0  0  0  0
  141.1773   72.0826  221.4920 H   0  0  0  0  0  0  0  0  0  0  0  0
  143.2943   71.8308  220.2009 H   0  0  0  0  0  0  0  0  0  0  0  0
  144.4749   73.8456  219.3269 H   0  0  0  0  0  0  0  0  0  0  0  0
  143.5394   76.1184  219.7364 H   0  0  0  0  0  0  0  0  0  0  0  0
  142.3947   77.6093  219.5115 H   0  0  0  0  0  0  0  0  0  0  0  0
  140.6022   77.6331  219.3011 H   0  0  0  0  0  0  0  0  0  0  0  0
  141.8122   79.8679  219.9421 H   0  0  0  0  0  0  0  0  0  0  0  0
  140.3196   79.4124  220.8312 H   0  0  0  0  0  0  0  0  0  0  0  0
  143.1064   80.9822  221.7189 H   0  0  0  0  0  0  0  0  0  0  0  0
  140.7846   81.5692  223.4738 H   0  0  0  0  0  0  0  0  0  0  0  0
  141.2564   82.3337  221.9182 H   0  0  0  0  0  0  0  0  0  0  0  0
  140.2791   80.8265  221.9182 H   0  0  0  0  0  0  0  0  0  0  0  0
  142.1244   80.5413  224.5706 H   0  0  0  0  0  0  0  0  0  0  0  0
  143.5497   79.6131  223.9929 H   0  0  0  0  0  0  0  0  0  0  0  0
  143.5873   81.4090  223.9929 H   0  0  0  0  0  0  0  0  0  0  0  0
  142.1730   77.9628  223.6586 H   0  0  0  0  0  0  0  0  0  0  0  0
  140.6550   78.9500  223.3901 H   0  0  0  0  0  0  0  0  0  0  0  0
  140.7987   76.2412  223.0432 H   0  0  0  0  0  0  0  0  0  0  0  0
  139.6425   77.3356  222.1936 H   0  0  0  0  0  0  0  0  0  0  0  0
  1  2  1  0
  2  3  1  0
  3  4  2  0
  4  5  1  0
  5  6  2  0
  6  7  1  0
  7  8  2  0
  8  9  1  0
  9 10  1  0
 10 11  1  0
 11 12  1  0
 12 13  1  0
 13 14  1  0
 13 15  1  0
 12 16  1  0
 16 17  1  0
  8  3  1  0
 17  9  1  0
  1 18  1  0
  1 19  1  0
  1 20  1  0
  4 21  1  0
  5 22  1  0
  6 23  1  0
  7 24  1  0
 10 25  1  0
 10 26  1  0
 11 27  1  0
 11 28  1  0
 13 29  1  0
 14 30  1  0
 14 31  1  0
 14 32  1  0
 15 33  1  0
 15 34  1  0
 15 35  1  0
 16 36  1  0
 16 37  1  0
 17 38  1  0
 17 39  1  0
M  END
>  <UniqueID>  (71) 
24

>  <SMILES>  (71) 
COc1ccccc1N1CCN(C(C)C)CC1

>  <Energy>  (71) 
50.70871626687487

>  <Genealogy>  (71) 
COc1ccccc1N1CCN(C(C)C)CC1 (3D coordinates assigned)
COc1ccccc1N1CCN(C(C)C)CC1 (nonaromatic ring conformer: 50.70871626687487 kcal/mol)

>  <smiles>  (71) 
COc1ccccc1N1CCN(C(C)C)CC1

>  <score_type>  (71) 
oracle

>  <origin>  (71) 
autodockgpu

>  <m_score__min__energy>  (71) 
-4.9400000000000004

>  <m_primary>  (71) 
energy

>  <meeko>  (71) 
{"free_energy": -4.94, "intermolecular_energy": -5.84, "internal_energy": -0.65, "cluster_size": 18, "cluster_id": 1, "rank_in_cluster": 1}

>  <energy>  (71) 
-4.93

>  <cluster_rmsd>  (71) 
0.2

>  <rmsd>  (71) 
273.22

>  <cluster>  (71) 
1

$$$$
LUCSOMIVZJTSBJ-UHFFFAOYNA-N
     RDKit          3D

 39 40  0  0  0  0  0  0  0  0999 V2000
  138.6740   74.4710  221.5310 C   0  0  0  0  0  0  0  0  0  0  0  0
  139.9840   74.4190  222.0860 O   0  0  0  0  0  0  0  0  0  0  0  0
  141.1600   74.2530  221.3380 C   0  0  0  0  0  0  0  0  0  0  0  0
  141.7050   72.9780  221.0850 C   0  0  0  0  0  0  0  0  0  0  0  0
  142.8920   72.8470  220.3590 C   0  0  0  0  0  0  0  0  0  0  0  0
  143.5460   73.9810  219.8780 C   0  0  0  0  0  0  0  0  0  0  0  0
  143.0150   75.2500  220.1180 C   0  0  0  0  0  0  0  0  0  0  0  0
  141.8220   75.3960  220.8430 C   0  0  0  0  0  0  0  0  0  0  0  0
  141.2800   76.7120  221.0610 N   0  0  0  0  0  0  0  0  0  0  0  0
  141.4040   77.7450  220.0280 C   0  0  0  0  0  0  0  0  0  0  0  0
  141.3420   79.1440  220.6530 C   0  0  0  0  0  0  0  0  0  0  0  0
  142.1100   79.1530  221.9200 N   0  0  0  0  0  0  0  0  0  0  0  0
  142.3600   80.5380  222.4230 C   0  0  0  0  0  0  0  0  0  0  0  0
  141.0560   81.3680  222.4670 C   0  0  0  0  0  0  0  0  0  0  0  0
  142.9540   80.5240  223.8470 C   0  0  0  0  0  0  0  0  0  0  0  0
  141.4280   78.3090  222.9420 C   0  0  0  0  0  0  0  0  0  0  0  0
  140.7060   77.0770  222.3570 C   0  0  0  0  0  0  0  0  0  0  0  0
  137.9326   74.5004  222.3431 H   0  0  0  0  0  0  0  0  0  0  0  0
  138.5742   75.3738  220.9105 H   0  0  0  0  0  0  0  0  0  0  0  0
  138.5030   73.5789  220.9105 H   0  0  0  0  0  0  0  0  0  0  0  0
  141.1928   72.0803  221.4614 H   0  0  0  0  0  0  0  0  0  0  0  0
  143.3109   71.8482  220.1667 H   0  0  0  0  0  0  0  0  0  0  0  0
  144.4814   73.8756  219.3088 H   0  0  0  0  0  0  0  0  0  0  0  0
  143.5350   76.1410  219.7364 H   0  0  0  0  0  0  0  0  0  0  0  0
  142.3661   77.6234  219.5089 H   0  0  0  0  0  0  0  0  0  0  0  0
  140.5716   77.6371  219.3171 H   0  0  0  0  0  0  0  0  0  0  0  0
  141.7755   79.8765  219.9562 H   0  0  0  0  0  0  0  0  0  0  0  0
  140.2940   79.4083  220.8574 H   0  0  0  0  0  0  0  0  0  0  0  0
  143.0741   80.9935  221.7212 H   0  0  0  0  0  0  0  0  0  0  0  0
  140.7717   81.5490  223.5141 H   0  0  0  0  0  0  0  0  0  0  0  0
  141.2166   82.3304  221.9591 H   0  0  0  0  0  0  0  0  0  0  0  0
  140.2521   80.8150  221.9591 H   0  0  0  0  0  0  0  0  0  0  0  0
  142.1383   80.5432  224.5847 H   0  0  0  0  0  0  0  0  0  0  0  0
  143.5524   79.6115  223.9857 H   0  0  0  0  0  0  0  0  0  0  0  0
  143.5947   81.4073  223.9857 H   0  0  0  0  0  0  0  0  0  0  0  0
  142.1830   77.9585  223.6611 H   0  0  0  0  0  0  0  0  0  0  0  0
  140.6566   78.9375  223.4110 H   0  0  0  0  0  0  0  0  0  0  0  0
  140.8139   76.2309  223.0516 H   0  0  0  0  0  0  0  0  0  0  0  0
  139.6425   77.3214  222.2181 H   0  0  0  0  0  0  0  0  0  0  0  0
  1  2  1  0
  2  3  1  0
  3  4  2  0
  4  5  1  0
  5  6  2  0
  6  7  1  0
  7  8  2  0
  8  9  1  0
  9 10  1  0
 10 11  1  0
 11 12  1  0
 12 13  1  0
 13 14  1  0
 13 15  1  0
 12 16  1  0
 16 17  1  0
  8  3  1  0
 17  9  1  0
  1 18  1  0
  1 19  1  0
  1 20  1  0
  4 21  1  0
  5 22  1  0
  6 23  1  0
  7 24  1  0
 10 25  1  0
 10 26  1  0
 11 27  1  0
 11 28  1  0
 13 29  1  0
 14 30  1  0
 14 31  1  0
 14 32  1  0
 15 33  1  0
 15 34  1  0
 15 35  1  0
 16 36  1  0
 16 37  1  0
 17 38  1  0
 17 39  1  0
M  END
>  <UniqueID>  (72) 
24

>  <SMILES>  (72) 
COc1ccccc1N1CCN(C(C)C)CC1

>  <Energy>  (72) 
50.70871626687487

>  <Genealogy>  (72) 
COc1ccccc1N1CCN(C(C)C)CC1 (3D coordinates assigned)
COc1ccccc1N1CCN(C(C)C)CC1 (nonaromatic ring conformer: 50.70871626687487 kcal/mol)

>  <smiles>  (72) 
COc1ccccc1N1CCN(C(C)C)CC1

>  <score_type>  (72) 
oracle

>  <origin>  (72) 
autodockgpu

>  <m_score__min__energy>  (72) 
-4.9400000000000004

>  <m_primary>  (72) 
energy

>  <meeko>  (72) 
{"free_energy": -4.94, "intermolecular_energy": -5.83, "internal_energy": -0.66, "cluster_size": 18, "cluster_id": 1, "rank_in_cluster": 8}

>  <energy>  (72) 
-4.93

>  <cluster_rmsd>  (72) 
0.04

>  <rmsd>  (72) 
273.2

>  <cluster>  (72) 
1

$$$$
LUCSOMIVZJTSBJ-UHFFFAOYNA-N
     RDKit          3D

 39 40  0  0  0  0  0  0  0  0999 V2000
  138.6650   74.4840  221.5350 C   0  0  0  0  0  0  0  0  0  0  0  0
  139.9750   74.4340  222.0910 O   0  0  0  0  0  0  0  0  0  0  0  0
  141.1520   74.2540  221.3460 C   0  0  0  0  0  0  0  0  0  0  0  0
  141.6860   72.9720  221.1010 C   0  0  0  0  0  0  0  0  0  0  0  0
  142.8720   72.8270  220.3790 C   0  0  0  0  0  0  0  0  0  0  0  0
  143.5370   73.9520  219.8930 C   0  0  0  0  0  0  0  0  0  0  0  0
  143.0180   75.2270  220.1240 C   0  0  0  0  0  0  0  0  0  0  0  0
  141.8240   75.3880  220.8470 C   0  0  0  0  0  0  0  0  0  0  0  0
  141.2940   76.7100  221.0560 N   0  0  0  0  0  0  0  0  0  0  0  0
  141.4340   77.7370  220.0200 C   0  0  0  0  0  0  0  0  0  0  0  0
  141.3820   79.1390  220.6380 C   0  0  0  0  0  0  0  0  0  0  0  0
  142.1420   79.1470  221.9090 N   0  0  0  0  0  0  0  0  0  0  0  0
  142.4020   80.5310  222.4090 C   0  0  0  0  0  0  0  0  0  0  0  0
  141.1110   81.3810  222.4170 C   0  0  0  0  0  0  0  0  0  0  0  0
  142.9650   80.5170  223.8460 C   0  0  0  0  0  0  0  0  0  0  0  0
  141.4460   78.3130  222.9310 C   0  0  0  0  0  0  0  0  0  0  0  0
  140.7160   77.0860  222.3470 C   0  0  0  0  0  0  0  0  0  0  0  0
  137.9230   74.5123  222.3466 H   0  0  0  0  0  0  0  0  0  0  0  0
  138.5643   75.3866  220.9145 H   0  0  0  0  0  0  0  0  0  0  0  0
  138.4957   73.5917  220.9145 H   0  0  0  0  0  0  0  0  0  0  0  0
  141.1649   72.0809  221.4811 H   0  0  0  0  0  0  0  0  0  0  0  0
  143.2825   71.8235  220.1932 H   0  0  0  0  0  0  0  0  0  0  0  0
  144.4725   73.8345  219.3264 H   0  0  0  0  0  0  0  0  0  0  0  0
  143.5468   76.1109  219.7378 H   0  0  0  0  0  0  0  0  0  0  0  0
  142.3979   77.6038  219.5071 H   0  0  0  0  0  0  0  0  0  0  0  0
  140.6045   77.6342  219.3050 H   0  0  0  0  0  0  0  0  0  0  0  0
  141.8267   79.8639  219.9403 H   0  0  0  0  0  0  0  0  0  0  0  0
  140.3354   79.4141  220.8350 H   0  0  0  0  0  0  0  0  0  0  0  0
  143.1387   80.9715  221.7212 H   0  0  0  0  0  0  0  0  0  0  0  0
  140.8092   81.5797  223.4560 H   0  0  0  0  0  0  0  0  0  0  0  0
  141.2964   82.3343  221.9004 H   0  0  0  0  0  0  0  0  0  0  0  0
  140.3086   80.8340  221.9004 H   0  0  0  0  0  0  0  0  0  0  0  0
  142.1335   80.5377  224.5658 H   0  0  0  0  0  0  0  0  0  0  0  0
  143.5591   79.6038  223.9982 H   0  0  0  0  0  0  0  0  0  0  0  0
  143.6037   81.3995  223.9982 H   0  0  0  0  0  0  0  0  0  0  0  0
  142.1936   77.9583  223.6557 H   0  0  0  0  0  0  0  0  0  0  0  0
  140.6779   78.9506  223.3931 H   0  0  0  0  0  0  0  0  0  0  0  0
  140.8117   76.2418  223.0457 H   0  0  0  0  0  0  0  0  0  0  0  0
  139.6558   77.3401  222.2008 H   0  0  0  0  0  0  0  0  0  0  0  0
  1  2  1  0
  2  3  1  0
  3  4  2  0
  4  5  1  0
  5  6  2  0
  6  7  1  0
  7  8  2  0
  8  9  1  0
  9 10  1  0
 10 11  1  0
 11 12  1  0
 12 13  1  0
 13 14  1  0
 13 15  1  0
 12 16  1  0
 16 17  1  0
  8  3  1  0
 17  9  1  0
  1 18  1  0
  1 19  1  0
  1 20  1  0
  4 21  1  0
  5 22  1  0
  6 23  1  0
  7 24  1  0
 10 25  1  0
 10 26  1  0
 11 27  1  0
 11 28  1  0
 13 29  1  0
 14 30  1  0
 14 31  1  0
 14 32  1  0
 15 33  1  0
 15 34  1  0
 15 35  1  0
 16 36  1  0
 16 37  1  0
 17 38  1  0
 17 39  1  0
M  END
>  <UniqueID>  (73) 
24

>  <SMILES>  (73) 
COc1ccccc1N1CCN(C(C)C)CC1

>  <Energy>  (73) 
50.70871626687487

>  <Genealogy>  (73) 
COc1ccccc1N1CCN(C(C)C)CC1 (3D coordinates assigned)
COc1ccccc1N1CCN(C(C)C)CC1 (nonaromatic ring conformer: 50.70871626687487 kcal/mol)

>  <smiles>  (73) 
COc1ccccc1N1CCN(C(C)C)CC1

>  <score_type>  (73) 
oracle

>  <origin>  (73) 
autodockgpu

>  <m_score__min__energy>  (73) 
-4.9400000000000004

>  <m_primary>  (73) 
energy

>  <meeko>  (73) 
{"free_energy": -4.94, "intermolecular_energy": -5.83, "internal_energy": -0.65, "cluster_size": 18, "cluster_id": 1, "rank_in_cluster": 6}

>  <energy>  (73) 
-4.93

>  <cluster_rmsd>  (73) 
0.4

>  <rmsd>  (73) 
273.25

>  <cluster>  (73) 
1

$$$$
LUCSOMIVZJTSBJ-UHFFFAOYNA-N
     RDKit          3D

 39 40  0  0  0  0  0  0  0  0999 V2000
  138.6880   74.4700  221.5030 C   0  0  0  0  0  0  0  0  0  0  0  0
  139.9950   74.4300  222.0670 O   0  0  0  0  0  0  0  0  0  0  0  0
  141.1780   74.2720  221.3270 C   0  0  0  0  0  0  0  0  0  0  0  0
  141.7310   73.0000  221.0750 C   0  0  0  0  0  0  0  0  0  0  0  0
  142.9240   72.8770  220.3580 C   0  0  0  0  0  0  0  0  0  0  0  0
  143.5760   74.0140  219.8850 C   0  0  0  0  0  0  0  0  0  0  0  0
  143.0370   75.2800  220.1230 C   0  0  0  0  0  0  0  0  0  0  0  0
  141.8380   75.4190  220.8400 C   0  0  0  0  0  0  0  0  0  0  0  0
  141.2880   76.7320  221.0570 N   0  0  0  0  0  0  0  0  0  0  0  0
  141.4120   77.7670  220.0260 C   0  0  0  0  0  0  0  0  0  0  0  0
  141.3390   79.1640  220.6520 C   0  0  0  0  0  0  0  0  0  0  0  0
  142.1010   79.1760  221.9230 N   0  0  0  0  0  0  0  0  0  0  0  0
  142.3410   80.5620  222.4290 C   0  0  0  0  0  0  0  0  0  0  0  0
  141.0300   81.3780  222.4860 C   0  0  0  0  0  0  0  0  0  0  0  0
  142.9470   80.5480  223.8480 C   0  0  0  0  0  0  0  0  0  0  0  0
  141.4180   78.3270  222.9410 C   0  0  0  0  0  0  0  0  0  0  0  0
  140.7060   77.0920  222.3510 C   0  0  0  0  0  0  0  0  0  0  0  0
  137.9409   74.4929  222.3101 H   0  0  0  0  0  0  0  0  0  0  0  0
  138.5842   75.3717  220.8816 H   0  0  0  0  0  0  0  0  0  0  0  0
  138.5293   73.5763  220.8816 H   0  0  0  0  0  0  0  0  0  0  0  0
  141.2202   72.0988  221.4451 H   0  0  0  0  0  0  0  0  0  0  0  0
  143.3492   71.8807  220.1666 H   0  0  0  0  0  0  0  0  0  0  0  0
  144.5165   73.9142  219.3234 H   0  0  0  0  0  0  0  0  0  0  0  0
  143.5552   76.1742  219.7463 H   0  0  0  0  0  0  0  0  0  0  0  0
  142.3776   77.6513  219.5120 H   0  0  0  0  0  0  0  0  0  0  0  0
  140.5840   77.6555  219.3104 H   0  0  0  0  0  0  0  0  0  0  0  0
  141.7716   79.8998  219.9581 H   0  0  0  0  0  0  0  0  0  0  0  0
  140.2885   79.4220  220.8517 H   0  0  0  0  0  0  0  0  0  0  0  0
  143.0446   81.0280  221.7234 H   0  0  0  0  0  0  0  0  0  0  0  0
  140.7514   81.5514  223.5359 H   0  0  0  0  0  0  0  0  0  0  0  0
  141.1773   82.3442  221.9813 H   0  0  0  0  0  0  0  0  0  0  0  0
  140.2281   80.8192  221.9813 H   0  0  0  0  0  0  0  0  0  0  0  0
  142.1375   80.5667  224.5926 H   0  0  0  0  0  0  0  0  0  0  0  0
  143.5470   79.6358  223.9815 H   0  0  0  0  0  0  0  0  0  0  0  0
  143.5885   81.4316  223.9815 H   0  0  0  0  0  0  0  0  0  0  0  0
  142.1711   77.9799  223.6637 H   0  0  0  0  0  0  0  0  0  0  0  0
  140.6408   78.9508  223.4066 H   0  0  0  0  0  0  0  0  0  0  0  0
  140.8156   76.2455  223.0449 H   0  0  0  0  0  0  0  0  0  0  0  0
  139.6418   77.3306  222.2075 H   0  0  0  0  0  0  0  0  0  0  0  0
  1  2  1  0
  2  3  1  0
  3  4  2  0
  4  5  1  0
  5  6  2  0
  6  7  1  0
  7  8  2  0
  8  9  1  0
  9 10  1  0
 10 11  1  0
 11 12  1  0
 12 13  1  0
 13 14  1  0
 13 15  1  0
 12 16  1  0
 16 17  1  0
  8  3  1  0
 17  9  1  0
  1 18  1  0
  1 19  1  0
  1 20  1  0
  4 21  1  0
  5 22  1  0
  6 23  1  0
  7 24  1  0
 10 25  1  0
 10 26  1  0
 11 27  1  0
 11 28  1  0
 13 29  1  0
 14 30  1  0
 14 31  1  0
 14 32  1  0
 15 33  1  0
 15 34  1  0
 15 35  1  0
 16 36  1  0
 16 37  1  0
 17 38  1  0
 17 39  1  0
M  END
>  <UniqueID>  (74) 
24

>  <SMILES>  (74) 
COc1ccccc1N1CCN(C(C)C)CC1

>  <Energy>  (74) 
50.70871626687487

>  <Genealogy>  (74) 
COc1ccccc1N1CCN(C(C)C)CC1 (3D coordinates assigned)
COc1ccccc1N1CCN(C(C)C)CC1 (nonaromatic ring conformer: 50.70871626687487 kcal/mol)

>  <smiles>  (74) 
COc1ccccc1N1CCN(C(C)C)CC1

>  <score_type>  (74) 
oracle

>  <origin>  (74) 
autodockgpu

>  <m_score__min__energy>  (74) 
-4.9400000000000004

>  <m_primary>  (74) 
energy

>  <meeko>  (74) 
{"free_energy": -4.93, "intermolecular_energy": -5.83, "internal_energy": -0.66, "cluster_size": 18, "cluster_id": 1, "rank_in_cluster": 12}

>  <energy>  (74) 
-4.92

>  <cluster_rmsd>  (74) 
0.12

>  <rmsd>  (74) 
273.19

>  <cluster>  (74) 
1

$$$$
LUCSOMIVZJTSBJ-UHFFFAOYNA-N
     RDKit          3D

 39 40  0  0  0  0  0  0  0  0999 V2000
  138.6830   74.4540  221.5470 C   0  0  0  0  0  0  0  0  0  0  0  0
  139.9960   74.4300  222.0980 O   0  0  0  0  0  0  0  0  0  0  0  0
  141.1710   74.2530  221.3510 C   0  0  0  0  0  0  0  0  0  0  0  0
  141.7110   72.9730  221.1070 C   0  0  0  0  0  0  0  0  0  0  0  0
  142.8960   72.8320  220.3810 C   0  0  0  0  0  0  0  0  0  0  0  0
  143.5550   73.9590  219.8920 C   0  0  0  0  0  0  0  0  0  0  0  0
  143.0300   75.2320  220.1220 C   0  0  0  0  0  0  0  0  0  0  0  0
  141.8380   75.3890  220.8470 C   0  0  0  0  0  0  0  0  0  0  0  0
  141.3020   76.7090  221.0560 N   0  0  0  0  0  0  0  0  0  0  0  0
  141.4430   77.7380  220.0210 C   0  0  0  0  0  0  0  0  0  0  0  0
  141.3830   79.1390  220.6400 C   0  0  0  0  0  0  0  0  0  0  0  0
  142.1380   79.1480  221.9150 N   0  0  0  0  0  0  0  0  0  0  0  0
  142.3910   80.5330  222.4170 C   0  0  0  0  0  0  0  0  0  0  0  0
  141.0930   81.3730  222.4370 C   0  0  0  0  0  0  0  0  0  0  0  0
  142.9630   80.5190  223.8500 C   0  0  0  0  0  0  0  0  0  0  0  0
  141.4400   78.3110  222.9330 C   0  0  0  0  0  0  0  0  0  0  0  0
  140.7170   77.0820  222.3440 C   0  0  0  0  0  0  0  0  0  0  0  0
  137.9438   74.4675  222.3615 H   0  0  0  0  0  0  0  0  0  0  0  0
  138.5620   75.3545  220.9270 H   0  0  0  0  0  0  0  0  0  0  0  0
  138.5291   73.5585  220.9270 H   0  0  0  0  0  0  0  0  0  0  0  0
  141.1957   72.0802  221.4908 H   0  0  0  0  0  0  0  0  0  0  0  0
  143.3099   71.8300  220.1948 H   0  0  0  0  0  0  0  0  0  0  0  0
  144.4901   73.8450  219.3240 H   0  0  0  0  0  0  0  0  0  0  0  0
  143.5536   76.1176  219.7327 H   0  0  0  0  0  0  0  0  0  0  0  0
  142.4097   77.6088  219.5124 H   0  0  0  0  0  0  0  0  0  0  0  0
  140.6171   77.6327  219.3020 H   0  0  0  0  0  0  0  0  0  0  0  0
  141.8281   79.8663  219.9451 H   0  0  0  0  0  0  0  0  0  0  0  0
  140.3345   79.4103  220.8326 H   0  0  0  0  0  0  0  0  0  0  0  0
  143.1195   80.9811  221.7253 H   0  0  0  0  0  0  0  0  0  0  0  0
  140.7965   81.5649  223.4787 H   0  0  0  0  0  0  0  0  0  0  0  0
  141.2675   82.3299  221.9232 H   0  0  0  0  0  0  0  0  0  0  0  0
  140.2916   80.8218  221.9232 H   0  0  0  0  0  0  0  0  0  0  0  0
  142.1361   80.5392  224.5751 H   0  0  0  0  0  0  0  0  0  0  0  0
  143.5584   79.6060  223.9983 H   0  0  0  0  0  0  0  0  0  0  0  0
  143.6023   81.4018  223.9983 H   0  0  0  0  0  0  0  0  0  0  0  0
  142.1853   77.9582  223.6610 H   0  0  0  0  0  0  0  0  0  0  0  0
  140.6677   78.9455  223.3923 H   0  0  0  0  0  0  0  0  0  0  0  0
  140.8121   76.2375  223.0424 H   0  0  0  0  0  0  0  0  0  0  0  0
  139.6568   77.3330  222.1927 H   0  0  0  0  0  0  0  0  0  0  0  0
  1  2  1  0
  2  3  1  0
  3  4  2  0
  4  5  1  0
  5  6  2  0
  6  7  1  0
  7  8  2  0
  8  9  1  0
  9 10  1  0
 10 11  1  0
 11 12  1  0
 12 13  1  0
 13 14  1  0
 13 15  1  0
 12 16  1  0
 16 17  1  0
  8  3  1  0
 17  9  1  0
  1 18  1  0
  1 19  1  0
  1 20  1  0
  4 21  1  0
  5 22  1  0
  6 23  1  0
  7 24  1  0
 10 25  1  0
 10 26  1  0
 11 27  1  0
 11 28  1  0
 13 29  1  0
 14 30  1  0
 14 31  1  0
 14 32  1  0
 15 33  1  0
 15 34  1  0
 15 35  1  0
 16 36  1  0
 16 37  1  0
 17 38  1  0
 17 39  1  0
M  END
>  <UniqueID>  (75) 
24

>  <SMILES>  (75) 
COc1ccccc1N1CCN(C(C)C)CC1

>  <Energy>  (75) 
50.70871626687487

>  <Genealogy>  (75) 
COc1ccccc1N1CCN(C(C)C)CC1 (3D coordinates assigned)
COc1ccccc1N1CCN(C(C)C)CC1 (nonaromatic ring conformer: 50.70871626687487 kcal/mol)

>  <smiles>  (75) 
COc1ccccc1N1CCN(C(C)C)CC1

>  <score_type>  (75) 
oracle

>  <origin>  (75) 
autodockgpu

>  <m_score__min__energy>  (75) 
-4.9400000000000004

>  <m_primary>  (75) 
energy

>  <meeko>  (75) 
{"free_energy": -4.94, "intermolecular_energy": -5.84, "internal_energy": -0.65, "cluster_size": 18, "cluster_id": 1, "rank_in_cluster": 4}

>  <energy>  (75) 
-4.92

>  <cluster_rmsd>  (75) 
0.12

>  <rmsd>  (75) 
273.19

>  <cluster>  (75) 
1

$$$$
LUCSOMIVZJTSBJ-UHFFFAOYNA-N
     RDKit          3D

 39 40  0  0  0  0  0  0  0  0999 V2000
  138.7260   74.4300  221.4400 C   0  0  0  0  0  0  0  0  0  0  0  0
  140.0300   74.3700  222.0110 O   0  0  0  0  0  0  0  0  0  0  0  0
  141.2180   74.2490  221.2730 C   0  0  0  0  0  0  0  0  0  0  0  0
  141.7960   72.9930  220.9960 C   0  0  0  0  0  0  0  0  0  0  0  0
  142.9930   72.9060  220.2810 C   0  0  0  0  0  0  0  0  0  0  0  0
  143.6250   74.0660  219.8340 C   0  0  0  0  0  0  0  0  0  0  0  0
  143.0620   75.3160  220.0970 C   0  0  0  0  0  0  0  0  0  0  0  0
  141.8580   75.4180  220.8120 C   0  0  0  0  0  0  0  0  0  0  0  0
  141.2830   76.7150  221.0540 N   0  0  0  0  0  0  0  0  0  0  0  0
  141.3770   77.7690  220.0380 C   0  0  0  0  0  0  0  0  0  0  0  0
  141.2800   79.1540  220.6860 C   0  0  0  0  0  0  0  0  0  0  0  0
  142.0520   79.1630  221.9500 N   0  0  0  0  0  0  0  0  0  0  0  0
  142.2680   80.5450  222.4760 C   0  0  0  0  0  0  0  0  0  0  0  0
  140.9310   81.3070  222.6290 C   0  0  0  0  0  0  0  0  0  0  0  0
  142.9550   80.5240  223.8580 C   0  0  0  0  0  0  0  0  0  0  0  0
  141.3960   78.2840  222.9610 C   0  0  0  0  0  0  0  0  0  0  0  0
  140.7040   77.0440  222.3570 C   0  0  0  0  0  0  0  0  0  0  0  0
  137.9752   74.4645  222.2432 H   0  0  0  0  0  0  0  0  0  0  0  0
  138.6393   75.3331  220.8180 H   0  0  0  0  0  0  0  0  0  0  0  0
  138.5567   73.5387  220.8180 H   0  0  0  0  0  0  0  0  0  0  0  0
  141.3008   72.0750  221.3455 H   0  0  0  0  0  0  0  0  0  0  0  0
  143.4373   71.9220  220.0705 H   0  0  0  0  0  0  0  0  0  0  0  0
  144.5687   73.9959  219.2732 H   0  0  0  0  0  0  0  0  0  0  0  0
  143.5651   76.2274  219.7416 H   0  0  0  0  0  0  0  0  0  0  0  0
  142.3406   77.6816  219.5147 H   0  0  0  0  0  0  0  0  0  0  0  0
  140.5456   77.6513  219.3274 H   0  0  0  0  0  0  0  0  0  0  0  0
  141.6909   79.9093  220.0000 H   0  0  0  0  0  0  0  0  0  0  0  0
  140.2260   79.3863  220.8985 H   0  0  0  0  0  0  0  0  0  0  0  0
  142.9116   81.0535  221.7430 H   0  0  0  0  0  0  0  0  0  0  0  0
  140.7031   81.4369  223.6973 H   0  0  0  0  0  0  0  0  0  0  0  0
  141.0142   82.2934  222.1493 H   0  0  0  0  0  0  0  0  0  0  0  0
  140.1247   80.7328  222.1493 H   0  0  0  0  0  0  0  0  0  0  0  0
  142.1900   80.5474  224.6481 H   0  0  0  0  0  0  0  0  0  0  0  0
  143.5548   79.6071  223.9554 H   0  0  0  0  0  0  0  0  0  0  0  0
  143.6097   81.4026  223.9554 H   0  0  0  0  0  0  0  0  0  0  0  0
  142.1628   77.9410  223.6713 H   0  0  0  0  0  0  0  0  0  0  0  0
  140.6108   78.8841  223.4441 H   0  0  0  0  0  0  0  0  0  0  0  0
  140.8353   76.1895  223.0371 H   0  0  0  0  0  0  0  0  0  0  0  0
  139.6344   77.2639  222.2246 H   0  0  0  0  0  0  0  0  0  0  0  0
  1  2  1  0
  2  3  1  0
  3  4  2  0
  4  5  1  0
  5  6  2  0
  6  7  1  0
  7  8  2  0
  8  9  1  0
  9 10  1  0
 10 11  1  0
 11 12  1  0
 12 13  1  0
 13 14  1  0
 13 15  1  0
 12 16  1  0
 16 17  1  0
  8  3  1  0
 17  9  1  0
  1 18  1  0
  1 19  1  0
  1 20  1  0
  4 21  1  0
  5 22  1  0
  6 23  1  0
  7 24  1  0
 10 25  1  0
 10 26  1  0
 11 27  1  0
 11 28  1  0
 13 29  1  0
 14 30  1  0
 14 31  1  0
 14 32  1  0
 15 33  1  0
 15 34  1  0
 15 35  1  0
 16 36  1  0
 16 37  1  0
 17 38  1  0
 17 39  1  0
M  END
>  <UniqueID>  (76) 
24

>  <SMILES>  (76) 
COc1ccccc1N1CCN(C(C)C)CC1

>  <Energy>  (76) 
50.70871626687487

>  <Genealogy>  (76) 
COc1ccccc1N1CCN(C(C)C)CC1 (3D coordinates assigned)
COc1ccccc1N1CCN(C(C)C)CC1 (nonaromatic ring conformer: 50.70871626687487 kcal/mol)

>  <smiles>  (76) 
COc1ccccc1N1CCN(C(C)C)CC1

>  <score_type>  (76) 
oracle

>  <origin>  (76) 
autodockgpu

>  <m_score__min__energy>  (76) 
-4.9400000000000004

>  <m_primary>  (76) 
energy

>  <meeko>  (76) 
{"free_energy": -4.92, "intermolecular_energy": -5.82, "internal_energy": -0.66, "cluster_size": 18, "cluster_id": 1, "rank_in_cluster": 14}

>  <energy>  (76) 
-4.92

>  <cluster_rmsd>  (76) 
0.07

>  <rmsd>  (76) 
273.18

>  <cluster>  (76) 
1

$$$$
LUCSOMIVZJTSBJ-UHFFFAOYNA-N
     RDKit          3D

 39 40  0  0  0  0  0  0  0  0999 V2000
  138.6750   74.3540  221.5600 C   0  0  0  0  0  0  0  0  0  0  0  0
  139.9920   74.4430  222.0950 O   0  0  0  0  0  0  0  0  0  0  0  0
  141.1690   74.2640  221.3510 C   0  0  0  0  0  0  0  0  0  0  0  0
  141.7070   72.9840  221.1090 C   0  0  0  0  0  0  0  0  0  0  0  0
  142.8940   72.8400  220.3870 C   0  0  0  0  0  0  0  0  0  0  0  0
  143.5560   73.9660  219.8980 C   0  0  0  0  0  0  0  0  0  0  0  0
  143.0310   75.2400  220.1260 C   0  0  0  0  0  0  0  0  0  0  0  0
  141.8370   75.3990  220.8480 C   0  0  0  0  0  0  0  0  0  0  0  0
  141.3020   76.7200  221.0540 N   0  0  0  0  0  0  0  0  0  0  0  0
  141.4480   77.7480  220.0180 C   0  0  0  0  0  0  0  0  0  0  0  0
  141.3870   79.1490  220.6360 C   0  0  0  0  0  0  0  0  0  0  0  0
  142.1390   79.1580  221.9130 N   0  0  0  0  0  0  0  0  0  0  0  0
  142.3920   80.5440  222.4140 C   0  0  0  0  0  0  0  0  0  0  0  0
  141.0960   81.3860  222.4280 C   0  0  0  0  0  0  0  0  0  0  0  0
  142.9590   80.5310  223.8500 C   0  0  0  0  0  0  0  0  0  0  0  0
  141.4380   78.3230  222.9300 C   0  0  0  0  0  0  0  0  0  0  0  0
  140.7150   77.0940  222.3400 C   0  0  0  0  0  0  0  0  0  0  0  0
  137.9473   74.3048  222.3834 H   0  0  0  0  0  0  0  0  0  0  0  0
  138.4697   75.2403  220.9417 H   0  0  0  0  0  0  0  0  0  0  0  0
  138.5909   73.4481  220.9417 H   0  0  0  0  0  0  0  0  0  0  0  0
  141.1886   72.0923  221.4913 H   0  0  0  0  0  0  0  0  0  0  0  0
  143.3072   71.8372  220.2038 H   0  0  0  0  0  0  0  0  0  0  0  0
  144.4923   73.8506  219.3323 H   0  0  0  0  0  0  0  0  0  0  0  0
  143.5563   76.1249  219.7374 H   0  0  0  0  0  0  0  0  0  0  0  0
  142.4165   77.6174  219.5131 H   0  0  0  0  0  0  0  0  0  0  0  0
  140.6251   77.6429  219.2956 H   0  0  0  0  0  0  0  0  0  0  0  0
  141.8341   79.8759  219.9419 H   0  0  0  0  0  0  0  0  0  0  0  0
  140.3382   79.4210  220.8258 H   0  0  0  0  0  0  0  0  0  0  0  0
  143.1235   80.9900  221.7241 H   0  0  0  0  0  0  0  0  0  0  0  0
  140.7964   81.5806  223.4684 H   0  0  0  0  0  0  0  0  0  0  0  0
  141.2739   82.3415  221.9128 H   0  0  0  0  0  0  0  0  0  0  0  0
  140.2953   80.8352  221.9128 H   0  0  0  0  0  0  0  0  0  0  0  0
  142.1293   80.5500  224.5720 H   0  0  0  0  0  0  0  0  0  0  0  0
  143.5552   79.6189  224.0006 H   0  0  0  0  0  0  0  0  0  0  0  0
  143.5964   81.4148  224.0006 H   0  0  0  0  0  0  0  0  0  0  0  0
  142.1812   77.9700  223.6601 H   0  0  0  0  0  0  0  0  0  0  0  0
  140.6654   78.9587  223.3871 H   0  0  0  0  0  0  0  0  0  0  0  0
  140.8079   76.2498  223.0390 H   0  0  0  0  0  0  0  0  0  0  0  0
  139.6553   77.3458  222.1864 H   0  0  0  0  0  0  0  0  0  0  0  0
  1  2  1  0
  2  3  1  0
  3  4  2  0
  4  5  1  0
  5  6  2  0
  6  7  1  0
  7  8  2  0
  8  9  1  0
  9 10  1  0
 10 11  1  0
 11 12  1  0
 12 13  1  0
 13 14  1  0
 13 15  1  0
 12 16  1  0
 16 17  1  0
  8  3  1  0
 17  9  1  0
  1 18  1  0
  1 19  1  0
  1 20  1  0
  4 21  1  0
  5 22  1  0
  6 23  1  0
  7 24  1  0
 10 25  1  0
 10 26  1  0
 11 27  1  0
 11 28  1  0
 13 29  1  0
 14 30  1  0
 14 31  1  0
 14 32  1  0
 15 33  1  0
 15 34  1  0
 15 35  1  0
 16 36  1  0
 16 37  1  0
 17 38  1  0
 17 39  1  0
M  END
>  <UniqueID>  (77) 
24

>  <SMILES>  (77) 
COc1ccccc1N1CCN(C(C)C)CC1

>  <Energy>  (77) 
50.70871626687487

>  <Genealogy>  (77) 
COc1ccccc1N1CCN(C(C)C)CC1 (3D coordinates assigned)
COc1ccccc1N1CCN(C(C)C)CC1 (nonaromatic ring conformer: 50.70871626687487 kcal/mol)

>  <smiles>  (77) 
COc1ccccc1N1CCN(C(C)C)CC1

>  <score_type>  (77) 
oracle

>  <origin>  (77) 
autodockgpu

>  <m_score__min__energy>  (77) 
-4.9400000000000004

>  <m_primary>  (77) 
energy

>  <meeko>  (77) 
{"free_energy": -4.94, "intermolecular_energy": -5.83, "internal_energy": -0.65, "cluster_size": 18, "cluster_id": 1, "rank_in_cluster": 5}

>  <energy>  (77) 
-4.92

>  <cluster_rmsd>  (77) 
0.04

>  <rmsd>  (77) 
273.2

>  <cluster>  (77) 
1

$$$$
LUCSOMIVZJTSBJ-UHFFFAOYNA-N
     RDKit          3D

 39 40  0  0  0  0  0  0  0  0999 V2000
  138.6610   74.4020  221.5410 C   0  0  0  0  0  0  0  0  0  0  0  0
  139.9750   74.4420  222.0880 O   0  0  0  0  0  0  0  0  0  0  0  0
  141.1530   74.2620  221.3460 C   0  0  0  0  0  0  0  0  0  0  0  0
  141.6910   72.9820  221.1040 C   0  0  0  0  0  0  0  0  0  0  0  0
  142.8790   72.8380  220.3830 C   0  0  0  0  0  0  0  0  0  0  0  0
  143.5420   73.9630  219.8960 C   0  0  0  0  0  0  0  0  0  0  0  0
  143.0190   75.2370  220.1240 C   0  0  0  0  0  0  0  0  0  0  0  0
  141.8240   75.3970  220.8450 C   0  0  0  0  0  0  0  0  0  0  0  0
  141.2900   76.7180  221.0500 N   0  0  0  0  0  0  0  0  0  0  0  0
  141.4390   77.7470  220.0160 C   0  0  0  0  0  0  0  0  0  0  0  0
  141.3780   79.1480  220.6360 C   0  0  0  0  0  0  0  0  0  0  0  0
  142.1280   79.1550  221.9140 N   0  0  0  0  0  0  0  0  0  0  0  0
  142.3810   80.5390  222.4170 C   0  0  0  0  0  0  0  0  0  0  0  0
  141.0830   81.3790  222.4410 C   0  0  0  0  0  0  0  0  0  0  0  0
  142.9560   80.5240  223.8490 C   0  0  0  0  0  0  0  0  0  0  0  0
  141.4230   78.3200  222.9290 C   0  0  0  0  0  0  0  0  0  0  0  0
  140.7000   77.0920  222.3360 C   0  0  0  0  0  0  0  0  0  0  0  0
  137.9244   74.3796  222.3577 H   0  0  0  0  0  0  0  0  0  0  0  0
  138.4944   75.2955  220.9214 H   0  0  0  0  0  0  0  0  0  0  0  0
  138.5491   73.5000  220.9214 H   0  0  0  0  0  0  0  0  0  0  0  0
  141.1720   72.0903  221.4854 H   0  0  0  0  0  0  0  0  0  0  0  0
  143.2917   71.8350  220.1994 H   0  0  0  0  0  0  0  0  0  0  0  0
  144.4787   73.8468  219.3312 H   0  0  0  0  0  0  0  0  0  0  0  0
  143.5460   76.1214  219.7366 H   0  0  0  0  0  0  0  0  0  0  0  0
  142.4084   77.6162  219.5129 H   0  0  0  0  0  0  0  0  0  0  0  0
  140.6174   77.6436  219.2919 H   0  0  0  0  0  0  0  0  0  0  0  0
  141.8266   79.8754  219.9435 H   0  0  0  0  0  0  0  0  0  0  0  0
  140.3291   79.4204  220.8246 H   0  0  0  0  0  0  0  0  0  0  0  0
  143.1077   80.9877  221.7238 H   0  0  0  0  0  0  0  0  0  0  0  0
  140.7887   81.5694  223.4836 H   0  0  0  0  0  0  0  0  0  0  0  0
  141.2564   82.3366  221.9282 H   0  0  0  0  0  0  0  0  0  0  0  0
  140.2805   80.8285  221.9282 H   0  0  0  0  0  0  0  0  0  0  0  0
  142.1306   80.5455  224.5758 H   0  0  0  0  0  0  0  0  0  0  0  0
  143.5502   79.6101  223.9960 H   0  0  0  0  0  0  0  0  0  0  0  0
  143.5971   81.4057  223.9960 H   0  0  0  0  0  0  0  0  0  0  0  0
  142.1638   77.9657  223.6609 H   0  0  0  0  0  0  0  0  0  0  0  0
  140.6500   78.9563  223.3845 H   0  0  0  0  0  0  0  0  0  0  0  0
  140.7904   76.2471  223.0346 H   0  0  0  0  0  0  0  0  0  0  0  0
  139.6410   77.3452  222.1800 H   0  0  0  0  0  0  0  0  0  0  0  0
  1  2  1  0
  2  3  1  0
  3  4  2  0
  4  5  1  0
  5  6  2  0
  6  7  1  0
  7  8  2  0
  8  9  1  0
  9 10  1  0
 10 11  1  0
 11 12  1  0
 12 13  1  0
 13 14  1  0
 13 15  1  0
 12 16  1  0
 16 17  1  0
  8  3  1  0
 17  9  1  0
  1 18  1  0
  1 19  1  0
  1 20  1  0
  4 21  1  0
  5 22  1  0
  6 23  1  0
  7 24  1  0
 10 25  1  0
 10 26  1  0
 11 27  1  0
 11 28  1  0
 13 29  1  0
 14 30  1  0
 14 31  1  0
 14 32  1  0
 15 33  1  0
 15 34  1  0
 15 35  1  0
 16 36  1  0
 16 37  1  0
 17 38  1  0
 17 39  1  0
M  END
>  <UniqueID>  (78) 
24

>  <SMILES>  (78) 
COc1ccccc1N1CCN(C(C)C)CC1

>  <Energy>  (78) 
50.70871626687487

>  <Genealogy>  (78) 
COc1ccccc1N1CCN(C(C)C)CC1 (3D coordinates assigned)
COc1ccccc1N1CCN(C(C)C)CC1 (nonaromatic ring conformer: 50.70871626687487 kcal/mol)

>  <smiles>  (78) 
COc1ccccc1N1CCN(C(C)C)CC1

>  <score_type>  (78) 
oracle

>  <origin>  (78) 
autodockgpu

>  <m_score__min__energy>  (78) 
-4.9400000000000004

>  <m_primary>  (78) 
energy

>  <meeko>  (78) 
{"free_energy": -4.94, "intermolecular_energy": -5.84, "internal_energy": -0.65, "cluster_size": 18, "cluster_id": 1, "rank_in_cluster": 3}

>  <energy>  (78) 
-4.85

>  <cluster_rmsd>  (78) 
0.3

>  <rmsd>  (78) 
273.25

>  <cluster>  (78) 
1

$$$$
LUCSOMIVZJTSBJ-UHFFFAOYNA-N
     RDKit          3D

 39 40  0  0  0  0  0  0  0  0999 V2000
  138.7060   74.4420  221.4450 C   0  0  0  0  0  0  0  0  0  0  0  0
  140.0060   74.3770  222.0230 O   0  0  0  0  0  0  0  0  0  0  0  0
  141.1960   74.2300  221.2940 C   0  0  0  0  0  0  0  0  0  0  0  0
  141.7580   72.9630  221.0360 C   0  0  0  0  0  0  0  0  0  0  0  0
  142.9570   72.8510  220.3300 C   0  0  0  0  0  0  0  0  0  0  0  0
  143.6090   73.9960  219.8730 C   0  0  0  0  0  0  0  0  0  0  0  0
  143.0620   75.2570  220.1170 C   0  0  0  0  0  0  0  0  0  0  0  0
  141.8550   75.3850  220.8230 C   0  0  0  0  0  0  0  0  0  0  0  0
  141.2980   76.6930  221.0460 N   0  0  0  0  0  0  0  0  0  0  0  0
  141.4110   77.7320  220.0180 C   0  0  0  0  0  0  0  0  0  0  0  0
  141.3300   79.1270  220.6480 C   0  0  0  0  0  0  0  0  0  0  0  0
  142.0970   79.1410  221.9150 N   0  0  0  0  0  0  0  0  0  0  0  0
  142.3300   80.5260  222.4240 C   0  0  0  0  0  0  0  0  0  0  0  0
  141.0150   81.3380  222.4770 C   0  0  0  0  0  0  0  0  0  0  0  0
  142.9290   80.5130  223.8460 C   0  0  0  0  0  0  0  0  0  0  0  0
  141.4240   78.2840  222.9340 C   0  0  0  0  0  0  0  0  0  0  0  0
  140.7180   77.0460  222.3430 C   0  0  0  0  0  0  0  0  0  0  0  0
  137.9509   74.4798  222.2440 H   0  0  0  0  0  0  0  0  0  0  0  0
  138.6263   75.3453  220.8223 H   0  0  0  0  0  0  0  0  0  0  0  0
  138.5366   73.5512  220.8223 H   0  0  0  0  0  0  0  0  0  0  0  0
  141.2480   72.0563  221.3936 H   0  0  0  0  0  0  0  0  0  0  0  0
  143.3882   71.8582  220.1338 H   0  0  0  0  0  0  0  0  0  0  0  0
  144.5553   73.9054  219.3196 H   0  0  0  0  0  0  0  0  0  0  0  0
  143.5802   76.1567  219.7536 H   0  0  0  0  0  0  0  0  0  0  0  0
  142.3757   77.6248  219.5004 H   0  0  0  0  0  0  0  0  0  0  0  0
  140.5812   77.6166  219.3052 H   0  0  0  0  0  0  0  0  0  0  0  0
  141.7540   79.8679  219.9543 H   0  0  0  0  0  0  0  0  0  0  0  0
  140.2785   79.3767  220.8528 H   0  0  0  0  0  0  0  0  0  0  0  0
  143.0355   80.9945  221.7220 H   0  0  0  0  0  0  0  0  0  0  0  0
  140.7335   81.5118  223.5261 H   0  0  0  0  0  0  0  0  0  0  0  0
  141.1600   82.3041  221.9713 H   0  0  0  0  0  0  0  0  0  0  0  0
  140.2162   80.7757  221.9713 H   0  0  0  0  0  0  0  0  0  0  0  0
  142.1158   80.5306  224.5866 H   0  0  0  0  0  0  0  0  0  0  0  0
  143.5296   79.6016  223.9826 H   0  0  0  0  0  0  0  0  0  0  0  0
  143.5686   81.3975  223.9826 H   0  0  0  0  0  0  0  0  0  0  0  0
  142.1826   77.9399  223.6524 H   0  0  0  0  0  0  0  0  0  0  0  0
  140.6447   78.9010  223.4051 H   0  0  0  0  0  0  0  0  0  0  0  0
  140.8353   76.1984  223.0343 H   0  0  0  0  0  0  0  0  0  0  0  0
  139.6519   77.2782  222.2036 H   0  0  0  0  0  0  0  0  0  0  0  0
  1  2  1  0
  2  3  1  0
  3  4  2  0
  4  5  1  0
  5  6  2  0
  6  7  1  0
  7  8  2  0
  8  9  1  0
  9 10  1  0
 10 11  1  0
 11 12  1  0
 12 13  1  0
 13 14  1  0
 13 15  1  0
 12 16  1  0
 16 17  1  0
  8  3  1  0
 17  9  1  0
  1 18  1  0
  1 19  1  0
  1 20  1  0
  4 21  1  0
  5 22  1  0
  6 23  1  0
  7 24  1  0
 10 25  1  0
 10 26  1  0
 11 27  1  0
 11 28  1  0
 13 29  1  0
 14 30  1  0
 14 31  1  0
 14 32  1  0
 15 33  1  0
 15 34  1  0
 15 35  1  0
 16 36  1  0
 16 37  1  0
 17 38  1  0
 17 39  1  0
M  END
>  <UniqueID>  (79) 
24

>  <SMILES>  (79) 
COc1ccccc1N1CCN(C(C)C)CC1

>  <Energy>  (79) 
50.70871626687487

>  <Genealogy>  (79) 
COc1ccccc1N1CCN(C(C)C)CC1 (3D coordinates assigned)
COc1ccccc1N1CCN(C(C)C)CC1 (nonaromatic ring conformer: 50.70871626687487 kcal/mol)

>  <smiles>  (79) 
COc1ccccc1N1CCN(C(C)C)CC1

>  <score_type>  (79) 
oracle

>  <origin>  (79) 
autodockgpu

>  <m_score__min__energy>  (79) 
-4.9400000000000004

>  <m_primary>  (79) 
energy

>  <meeko>  (79) 
{"free_energy": -4.92, "intermolecular_energy": -5.82, "internal_energy": -0.66, "cluster_size": 18, "cluster_id": 1, "rank_in_cluster": 16}

>  <energy>  (79) 
-4.83

>  <cluster_rmsd>  (79) 
0.0

>  <rmsd>  (79) 
273.16

>  <cluster>  (79) 
2

$$$$
LUCSOMIVZJTSBJ-UHFFFAOYNA-N
     RDKit          3D

 39 40  0  0  0  0  0  0  0  0999 V2000
  138.7360   74.6510  221.5290 C   0  0  0  0  0  0  0  0  0  0  0  0
  140.0510   74.5310  222.0610 O   0  0  0  0  0  0  0  0  0  0  0  0
  141.2200   74.4540  221.2880 C   0  0  0  0  0  0  0  0  0  0  0  0
  141.8150   73.2180  220.9640 C   0  0  0  0  0  0  0  0  0  0  0  0
  142.9930   73.1750  220.2140 C   0  0  0  0  0  0  0  0  0  0  0  0
  143.5890   74.3580  219.7800 C   0  0  0  0  0  0  0  0  0  0  0  0
  143.0090   75.5900  220.0910 C   0  0  0  0  0  0  0  0  0  0  0  0
  141.8230   75.6480  220.8410 C   0  0  0  0  0  0  0  0  0  0  0  0
  141.2290   76.9260  221.1320 N   0  0  0  0  0  0  0  0  0  0  0  0
  141.1960   77.9780  220.1110 C   0  0  0  0  0  0  0  0  0  0  0  0
  141.1120   79.3630  220.7640 C   0  0  0  0  0  0  0  0  0  0  0  0
  141.9930   79.4020  221.9540 N   0  0  0  0  0  0  0  0  0  0  0  0
  142.2090   80.7920  222.4570 C   0  0  0  0  0  0  0  0  0  0  0  0
  140.9110   81.6280  222.3820 C   0  0  0  0  0  0  0  0  0  0  0  0
  142.6840   80.7950  223.9250 C   0  0  0  0  0  0  0  0  0  0  0  0
  141.4600   78.5060  223.0200 C   0  0  0  0  0  0  0  0  0  0  0  0
  140.7590   77.2400  222.4820 C   0  0  0  0  0  0  0  0  0  0  0  0
  138.0113   74.7171  222.3539 H   0  0  0  0  0  0  0  0  0  0  0  0
  138.6719   75.5587  220.9110 H   0  0  0  0  0  0  0  0  0  0  0  0
  138.5087   73.7699  220.9110 H   0  0  0  0  0  0  0  0  0  0  0  0
  141.3489   72.2813  221.3038 H   0  0  0  0  0  0  0  0  0  0  0  0
  143.4508   72.2061  219.9656 H   0  0  0  0  0  0  0  0  0  0  0  0
  144.5177   74.3212  219.1916 H   0  0  0  0  0  0  0  0  0  0  0  0
  143.4840   76.5204  219.7464 H   0  0  0  0  0  0  0  0  0  0  0  0
  142.1108   77.9201  219.5029 H   0  0  0  0  0  0  0  0  0  0  0  0
  140.3081   77.8301  219.4787 H   0  0  0  0  0  0  0  0  0  0  0  0
  141.4353   80.1285  220.0432 H   0  0  0  0  0  0  0  0  0  0  0  0
  140.0742   79.5620  221.0694 H   0  0  0  0  0  0  0  0  0  0  0  0
  142.9812   81.2345  221.8106 H   0  0  0  0  0  0  0  0  0  0  0  0
  140.5608   81.8535  223.4001 H   0  0  0  0  0  0  0  0  0  0  0  0
  141.1106   82.5678  221.8463 H   0  0  0  0  0  0  0  0  0  0  0  0
  140.1379   81.0576  221.8463 H   0  0  0  0  0  0  0  0  0  0  0  0
  141.8102   80.7895  224.5931 H   0  0  0  0  0  0  0  0  0  0  0  0
  143.2959   79.9007  224.1142 H   0  0  0  0  0  0  0  0  0  0  0  0
  143.2846   81.6970  224.1142 H   0  0  0  0  0  0  0  0  0  0  0  0
  142.2982   78.1922  223.6595 H   0  0  0  0  0  0  0  0  0  0  0  0
  140.7008   79.0814  223.5700 H   0  0  0  0  0  0  0  0  0  0  0  0
  140.9806   76.3932  223.1482 H   0  0  0  0  0  0  0  0  0  0  0  0
  139.6748   77.4225  222.4468 H   0  0  0  0  0  0  0  0  0  0  0  0
  1  2  1  0
  2  3  1  0
  3  4  2  0
  4  5  1  0
  5  6  2  0
  6  7  1  0
  7  8  2  0
  8  9  1  0
  9 10  1  0
 10 11  1  0
 11 12  1  0
 12 13  1  0
 13 14  1  0
 13 15  1  0
 12 16  1  0
 16 17  1  0
  8  3  1  0
 17  9  1  0
  1 18  1  0
  1 19  1  0
  1 20  1  0
  4 21  1  0
  5 22  1  0
  6 23  1  0
  7 24  1  0
 10 25  1  0
 10 26  1  0
 11 27  1  0
 11 28  1  0
 13 29  1  0
 14 30  1  0
 14 31  1  0
 14 32  1  0
 15 33  1  0
 15 34  1  0
 15 35  1  0
 16 36  1  0
 16 37  1  0
 17 38  1  0
 17 39  1  0
M  END
>  <UniqueID>  (80) 
24

>  <SMILES>  (80) 
COc1ccccc1N1CCN(C(C)C)CC1

>  <Energy>  (80) 
50.70871626687487

>  <Genealogy>  (80) 
COc1ccccc1N1CCN(C(C)C)CC1 (3D coordinates assigned)
COc1ccccc1N1CCN(C(C)C)CC1 (nonaromatic ring conformer: 50.70871626687487 kcal/mol)

>  <smiles>  (80) 
COc1ccccc1N1CCN(C(C)C)CC1

>  <score_type>  (80) 
oracle

>  <origin>  (80) 
autodockgpu

>  <m_score__min__energy>  (80) 
-4.9400000000000004

>  <m_primary>  (80) 
energy

>  <meeko>  (80) 
{"free_energy": -4.85, "intermolecular_energy": -5.75, "internal_energy": -0.69, "cluster_size": 18, "cluster_id": 1, "rank_in_cluster": 18}

>  <energy>  (80) 
-4.83

>  <cluster_rmsd>  (80) 
0.03

>  <rmsd>  (80) 
273.16

>  <cluster>  (80) 
2

$$$$
