
     RDKit          3D

 42 43  0  0  0  0  0  0  0  0999 V2000
  141.5930   72.9990  220.9980 O   0  0  0  0  0  0  0  0  0  0  0  0
  140.5480   73.4490  221.5370 C   0  0  0  0  0  0  0  0  0  0  0  0
  139.8580   74.6410  220.9480 C   0  0  0  0  0  0  0  0  0  0  0  0
  140.6700   75.8940  221.1160 C   0  0  0  0  0  0  0  0  0  0  0  0
  140.0320   76.6720  222.2650 C   0  0  0  0  0  0  0  0  0  0  0  0
  141.0770   77.1800  223.0930 O   0  0  0  0  0  0  0  0  0  0  0  0
  141.4350   78.5120  222.9180 C   0  0  0  0  0  0  0  0  0  0  0  0
  141.9650   79.1840  224.0050 C   0  0  0  0  0  0  0  0  0  0  0  0
  142.3260   80.5130  223.8480 C   0  0  0  0  0  0  0  0  0  0  0  0
  142.1770   81.1850  222.6460 C   0  0  0  0  0  0  0  0  0  0  0  0
  141.6470   80.5110  221.5630 C   0  0  0  0  0  0  0  0  0  0  0  0
  141.4450   81.3380  220.0250 Cl  0  0  0  0  0  0  0  0  0  0  0  0
  141.2820   79.1780  221.7150 C   0  0  0  0  0  0  0  0  0  0  0  0
  139.9610   72.8830  222.7020 N   0  0  0  0  0  0  0  0  0  0  0  0
  140.5670   71.7290  223.3330 C   0  0  0  0  0  0  0  0  0  0  0  0
  139.5670   70.6080  223.5840 C   0  0  0  0  0  0  0  0  0  0  0  0
  139.7590   70.1200  224.9940 C   0  0  0  0  0  0  0  0  0  0  0  0
  139.4660   68.8220  225.3570 C   0  0  0  0  0  0  0  0  0  0  0  0
  139.6710   68.4410  226.6860 C   0  0  0  0  0  0  0  0  0  0  0  0
  140.1550   69.3580  227.5980 C   0  0  0  0  0  0  0  0  0  0  0  0
  140.4380   70.6520  227.2000 C   0  0  0  0  0  0  0  0  0  0  0  0
  141.0540   71.8330  228.3410 Cl  0  0  0  0  0  0  0  0  0  0  0  0
  140.2460   71.0570  225.8920 C   0  0  0  0  0  0  0  0  0  0  0  0
  139.6945   74.4637  219.8748 H   0  0  0  0  0  0  0  0  0  0  0  0
  138.9026   74.7789  221.4755 H   0  0  0  0  0  0  0  0  0  0  0  0
  141.7124   75.6416  221.3603 H   0  0  0  0  0  0  0  0  0  0  0  0
  140.6813   76.4883  220.1905 H   0  0  0  0  0  0  0  0  0  0  0  0
  139.4355   77.5051  221.8648 H   0  0  0  0  0  0  0  0  0  0  0  0
  139.3704   76.0146  222.8482 H   0  0  0  0  0  0  0  0  0  0  0  0
  142.0968   78.6754  224.9714 H   0  0  0  0  0  0  0  0  0  0  0  0
  142.7460   81.0536  224.7091 H   0  0  0  0  0  0  0  0  0  0  0  0
  142.4763   82.2396  222.5552 H   0  0  0  0  0  0  0  0  0  0  0  0
  140.8598   78.6379  220.8548 H   0  0  0  0  0  0  0  0  0  0  0  0
  139.0760   73.3100  223.1100 H   0  0  0  0  0  0  0  0  0  0  0  0
  141.3661   71.3489  222.6796 H   0  0  0  0  0  0  0  0  0  0  0  0
  140.9603   72.0502  224.3088 H   0  0  0  0  0  0  0  0  0  0  0  0
  138.5421   70.9867  223.4565 H   0  0  0  0  0  0  0  0  0  0  0  0
  139.7273   69.7864  222.8704 H   0  0  0  0  0  0  0  0  0  0  0  0
  139.0803   68.1040  224.6183 H   0  0  0  0  0  0  0  0  0  0  0  0
  139.4472   67.4123  227.0050 H   0  0  0  0  0  0  0  0  0  0  0  0
  140.3159   69.0584  228.6441 H   0  0  0  0  0  0  0  0  0  0  0  0
  140.4716   72.0860  225.5753 H   0  0  0  0  0  0  0  0  0  0  0  0
  1  2  2  0
  2  3  1  0
  3  4  1  0
  4  5  1  0
  5  6  1  0
  6  7  1  0
  7  8  2  0
  8  9  1  0
  9 10  2  0
 10 11  1  0
 11 12  1  0
 11 13  2  0
  2 14  1  0
 14 15  1  0
 15 16  1  0
 16 17  1  0
 17 18  2  0
 18 19  1  0
 19 20  2  0
 20 21  1  0
 21 22  1  0
 21 23  2  0
 13  7  1  0
 23 17  1  0
  3 24  1  0
  3 25  1  0
  4 26  1  0
  4 27  1  0
  5 28  1  0
  5 29  1  0
  8 30  1  0
  9 31  1  0
 10 32  1  0
 13 33  1  0
 14 34  1  0
 15 35  1  0
 15 36  1  0
 16 37  1  0
 16 38  1  0
 18 39  1  0
 19 40  1  0
 20 41  1  0
 23 42  1  0
M  END
>  <smiles>  (1) 
O=C(CCCOc1cccc(Cl)c1)NCCc1cccc(Cl)c1

>  <score_type>  (1) 
oracle

>  <origin>  (1) 
autodockgpu

>  <m_score__min__energy>  (1) 
-7.7199999999999998

>  <m_primary>  (1) 
energy

>  <meeko>  (1) 
{"free_energy": -7.35, "intermolecular_energy": -9.74, "internal_energy": -0.62, "cluster_size": 4, "cluster_id": 2, "rank_in_cluster": 3}

>  <energy>  (1) 
-7.72

>  <cluster_rmsd>  (1) 
0.0

>  <rmsd>  (1) 
271.68

>  <cluster>  (1) 
1

$$$$

     RDKit          3D

 42 43  0  0  0  0  0  0  0  0999 V2000
  139.0820   75.7870  219.9220 O   0  0  0  0  0  0  0  0  0  0  0  0
  138.9590   75.0250  220.9170 C   0  0  0  0  0  0  0  0  0  0  0  0
  138.0920   73.8070  220.8210 C   0  0  0  0  0  0  0  0  0  0  0  0
  138.3010   72.8810  221.9850 C   0  0  0  0  0  0  0  0  0  0  0  0
  139.7290   72.3510  221.8660 C   0  0  0  0  0  0  0  0  0  0  0  0
  140.4020   72.6070  223.0970 O   0  0  0  0  0  0  0  0  0  0  0  0
  140.2610   71.6600  224.1050 C   0  0  0  0  0  0  0  0  0  0  0  0
  139.6830   70.4470  223.7740 C   0  0  0  0  0  0  0  0  0  0  0  0
  139.5350   69.4920  224.7680 C   0  0  0  0  0  0  0  0  0  0  0  0
  139.9450   69.7110  226.0730 C   0  0  0  0  0  0  0  0  0  0  0  0
  140.5220   70.9230  226.4000 C   0  0  0  0  0  0  0  0  0  0  0  0
  141.0510   71.2290  228.0480 Cl  0  0  0  0  0  0  0  0  0  0  0  0
  140.6720   71.8840  225.4070 C   0  0  0  0  0  0  0  0  0  0  0  0
  139.6080   75.2500  222.1620 N   0  0  0  0  0  0  0  0  0  0  0  0
  140.4640   76.4040  222.3360 C   0  0  0  0  0  0  0  0  0  0  0  0
  139.6790   77.7070  222.4260 C   0  0  0  0  0  0  0  0  0  0  0  0
  140.6530   78.8200  222.6960 C   0  0  0  0  0  0  0  0  0  0  0  0
  141.6790   78.6780  223.6070 C   0  0  0  0  0  0  0  0  0  0  0  0
  142.5460   79.7580  223.8050 C   0  0  0  0  0  0  0  0  0  0  0  0
  142.3610   80.9280  223.0960 C   0  0  0  0  0  0  0  0  0  0  0  0
  141.3220   81.0360  222.1900 C   0  0  0  0  0  0  0  0  0  0  0  0
  141.0690   82.5120  221.2790 Cl  0  0  0  0  0  0  0  0  0  0  0  0
  140.4490   79.9850  221.9730 C   0  0  0  0  0  0  0  0  0  0  0  0
  137.0379   74.1209  220.8004 H   0  0  0  0  0  0  0  0  0  0  0  0
  138.3615   73.2668  219.9014 H   0  0  0  0  0  0  0  0  0  0  0  0
  138.1757   73.4265  222.9320 H   0  0  0  0  0  0  0  0  0  0  0  0
  137.5695   72.0595  221.9764 H   0  0  0  0  0  0  0  0  0  0  0  0
  139.7097   71.2688  221.6700 H   0  0  0  0  0  0  0  0  0  0  0  0
  140.2517   72.8487  221.0359 H   0  0  0  0  0  0  0  0  0  0  0  0
  139.3486   70.2451  222.7457 H   0  0  0  0  0  0  0  0  0  0  0  0
  139.0757   68.5260  224.5113 H   0  0  0  0  0  0  0  0  0  0  0  0
  139.8131   68.9313  226.8377 H   0  0  0  0  0  0  0  0  0  0  0  0
  141.1306   72.8503  225.6637 H   0  0  0  0  0  0  0  0  0  0  0  0
  139.4640   74.5680  222.9650 H   0  0  0  0  0  0  0  0  0  0  0  0
  141.0431   76.2767  223.2625 H   0  0  0  0  0  0  0  0  0  0  0  0
  141.1187   76.4694  221.4545 H   0  0  0  0  0  0  0  0  0  0  0  0
  139.1541   77.8926  221.4773 H   0  0  0  0  0  0  0  0  0  0  0  0
  138.9334   77.6484  223.2326 H   0  0  0  0  0  0  0  0  0  0  0  0
  141.8122   77.7389  224.1640 H   0  0  0  0  0  0  0  0  0  0  0  0
  143.3739   79.6750  224.5245 H   0  0  0  0  0  0  0  0  0  0  0  0
  143.0424   81.7772  223.2523 H   0  0  0  0  0  0  0  0  0  0  0  0
  139.6224   80.0707  221.2524 H   0  0  0  0  0  0  0  0  0  0  0  0
  1  2  2  0
  2  3  1  0
  3  4  1  0
  4  5  1  0
  5  6  1  0
  6  7  1  0
  7  8  2  0
  8  9  1  0
  9 10  2  0
 10 11  1  0
 11 12  1  0
 11 13  2  0
  2 14  1  0
 14 15  1  0
 15 16  1  0
 16 17  1  0
 17 18  2  0
 18 19  1  0
 19 20  2  0
 20 21  1  0
 21 22  1  0
 21 23  2  0
 13  7  1  0
 23 17  1  0
  3 24  1  0
  3 25  1  0
  4 26  1  0
  4 27  1  0
  5 28  1  0
  5 29  1  0
  8 30  1  0
  9 31  1  0
 10 32  1  0
 13 33  1  0
 14 34  1  0
 15 35  1  0
 15 36  1  0
 16 37  1  0
 16 38  1  0
 18 39  1  0
 19 40  1  0
 20 41  1  0
 23 42  1  0
M  END
>  <smiles>  (2) 
O=C(CCCOc1cccc(Cl)c1)NCCc1cccc(Cl)c1

>  <score_type>  (2) 
oracle

>  <origin>  (2) 
autodockgpu

>  <m_score__min__energy>  (2) 
-7.7199999999999998

>  <m_primary>  (2) 
energy

>  <meeko>  (2) 
{"free_energy": -6.58, "intermolecular_energy": -8.97, "internal_energy": -1.31, "cluster_size": 12, "cluster_id": 1, "rank_in_cluster": 10}

>  <energy>  (2) 
-7.33

>  <cluster_rmsd>  (2) 
1.15

>  <rmsd>  (2) 
271.51

>  <cluster>  (2) 
1

$$$$

     RDKit          3D

 42 43  0  0  0  0  0  0  0  0999 V2000
  138.9540   74.5520  219.9050 O   0  0  0  0  0  0  0  0  0  0  0  0
  138.9600   73.9940  221.0330 C   0  0  0  0  0  0  0  0  0  0  0  0
  138.1480   72.7550  221.2560 C   0  0  0  0  0  0  0  0  0  0  0  0
  138.9990   71.6060  221.7150 C   0  0  0  0  0  0  0  0  0  0  0  0
  138.7430   71.4480  223.2130 C   0  0  0  0  0  0  0  0  0  0  0  0
  139.9060   71.8860  223.9110 O   0  0  0  0  0  0  0  0  0  0  0  0
  140.2520   71.1920  225.0650 C   0  0  0  0  0  0  0  0  0  0  0  0
  140.7380   71.9240  226.1360 C   0  0  0  0  0  0  0  0  0  0  0  0
  141.0870   71.2480  227.2940 C   0  0  0  0  0  0  0  0  0  0  0  0
  140.9670   69.8730  227.4150 C   0  0  0  0  0  0  0  0  0  0  0  0
  140.4820   69.1460  226.3450 C   0  0  0  0  0  0  0  0  0  0  0  0
  140.3190   67.4000  226.4700 Cl  0  0  0  0  0  0  0  0  0  0  0  0
  140.1300   69.8190  225.1810 C   0  0  0  0  0  0  0  0  0  0  0  0
  139.7090   74.4740  222.1420 N   0  0  0  0  0  0  0  0  0  0  0  0
  140.5200   75.6660  222.0090 C   0  0  0  0  0  0  0  0  0  0  0  0
  139.6870   76.9410  221.9870 C   0  0  0  0  0  0  0  0  0  0  0  0
  140.5910   78.0930  222.3330 C   0  0  0  0  0  0  0  0  0  0  0  0
  141.3780   78.0810  223.4650 C   0  0  0  0  0  0  0  0  0  0  0  0
  142.1930   79.1880  223.7200 C   0  0  0  0  0  0  0  0  0  0  0  0
  142.1940   80.2580  222.8470 C   0  0  0  0  0  0  0  0  0  0  0  0
  141.3910   80.2370  221.7210 C   0  0  0  0  0  0  0  0  0  0  0  0
  141.3760   81.5840  220.5990 Cl  0  0  0  0  0  0  0  0  0  0  0  0
  140.5750   79.1560  221.4430 C   0  0  0  0  0  0  0  0  0  0  0  0
  137.3858   72.9618  222.0217 H   0  0  0  0  0  0  0  0  0  0  0  0
  137.6818   72.4748  220.2999 H   0  0  0  0  0  0  0  0  0  0  0  0
  138.7156   70.6865  221.1820 H   0  0  0  0  0  0  0  0  0  0  0  0
  140.0636   71.7930  221.5109 H   0  0  0  0  0  0  0  0  0  0  0  0
  137.8780   72.0594  223.5097 H   0  0  0  0  0  0  0  0  0  0  0  0
  138.5285   70.3963  223.4535 H   0  0  0  0  0  0  0  0  0  0  0  0
  140.8444   73.0168  226.0686 H   0  0  0  0  0  0  0  0  0  0  0  0
  141.4733   71.8237  228.1480 H   0  0  0  0  0  0  0  0  0  0  0  0
  141.2536   69.3677  228.3491 H   0  0  0  0  0  0  0  0  0  0  0  0
  139.7432   69.2432  224.3273 H   0  0  0  0  0  0  0  0  0  0  0  0
  139.6720   73.9560  223.0700 H   0  0  0  0  0  0  0  0  0  0  0  0
  141.2167   75.7149  222.8588 H   0  0  0  0  0  0  0  0  0  0  0  0
  141.0545   75.6003  221.0498 H   0  0  0  0  0  0  0  0  0  0  0  0
  139.2592   77.0902  220.9846 H   0  0  0  0  0  0  0  0  0  0  0  0
  138.8624   76.8713  222.7117 H   0  0  0  0  0  0  0  0  0  0  0  0
  141.3650   77.2212  224.1510 H   0  0  0  0  0  0  0  0  0  0  0  0
  142.8325   79.2066  224.6148 H   0  0  0  0  0  0  0  0  0  0  0  0
  142.8350   81.1292  223.0476 H   0  0  0  0  0  0  0  0  0  0  0  0
  139.9360   79.1399  220.5478 H   0  0  0  0  0  0  0  0  0  0  0  0
  1  2  2  0
  2  3  1  0
  3  4  1  0
  4  5  1  0
  5  6  1  0
  6  7  1  0
  7  8  2  0
  8  9  1  0
  9 10  2  0
 10 11  1  0
 11 12  1  0
 11 13  2  0
  2 14  1  0
 14 15  1  0
 15 16  1  0
 16 17  1  0
 17 18  2  0
 18 19  1  0
 19 20  2  0
 20 21  1  0
 21 22  1  0
 21 23  2  0
 13  7  1  0
 23 17  1  0
  3 24  1  0
  3 25  1  0
  4 26  1  0
  4 27  1  0
  5 28  1  0
  5 29  1  0
  8 30  1  0
  9 31  1  0
 10 32  1  0
 13 33  1  0
 14 34  1  0
 15 35  1  0
 15 36  1  0
 16 37  1  0
 16 38  1  0
 18 39  1  0
 19 40  1  0
 20 41  1  0
 23 42  1  0
M  END
>  <smiles>  (3) 
O=C(CCCOc1cccc(Cl)c1)NCCc1cccc(Cl)c1

>  <score_type>  (3) 
oracle

>  <origin>  (3) 
autodockgpu

>  <m_score__min__energy>  (3) 
-7.7199999999999998

>  <m_primary>  (3) 
energy

>  <meeko>  (3) 
{"free_energy": -6.47, "intermolecular_energy": -8.86, "internal_energy": -1.28, "cluster_size": 12, "cluster_id": 1, "rank_in_cluster": 12}

>  <energy>  (3) 
-7.31

>  <cluster_rmsd>  (3) 
1.98

>  <rmsd>  (3) 
271.41

>  <cluster>  (3) 
1

$$$$

     RDKit          3D

 42 43  0  0  0  0  0  0  0  0999 V2000
  140.9420   74.9690  221.9810 O   0  0  0  0  0  0  0  0  0  0  0  0
  141.0920   73.9540  221.2530 C   0  0  0  0  0  0  0  0  0  0  0  0
  140.9370   72.5840  221.8420 C   0  0  0  0  0  0  0  0  0  0  0  0
  139.4920   72.2060  222.0000 C   0  0  0  0  0  0  0  0  0  0  0  0
  139.3770   71.4930  223.3470 C   0  0  0  0  0  0  0  0  0  0  0  0
  140.4740   71.9010  224.1610 O   0  0  0  0  0  0  0  0  0  0  0  0
  140.6490   71.2370  225.3700 C   0  0  0  0  0  0  0  0  0  0  0  0
  140.8980   72.0020  226.4960 C   0  0  0  0  0  0  0  0  0  0  0  0
  141.0750   71.3560  227.7090 C   0  0  0  0  0  0  0  0  0  0  0  0
  141.0110   69.9770  227.8300 C   0  0  0  0  0  0  0  0  0  0  0  0
  140.7630   69.2160  226.7050 C   0  0  0  0  0  0  0  0  0  0  0  0
  140.6770   67.4650  226.8280 Cl  0  0  0  0  0  0  0  0  0  0  0  0
  140.5850   69.8600  225.4850 C   0  0  0  0  0  0  0  0  0  0  0  0
  141.4050   74.0210  219.8680 N   0  0  0  0  0  0  0  0  0  0  0  0
  141.5700   75.3060  219.2220 C   0  0  0  0  0  0  0  0  0  0  0  0
  142.9600   75.8930  219.4340 C   0  0  0  0  0  0  0  0  0  0  0  0
  143.9520   74.7630  219.3970 C   0  0  0  0  0  0  0  0  0  0  0  0
  144.0780   73.9450  218.2940 C   0  0  0  0  0  0  0  0  0  0  0  0
  145.0230   72.9160  218.3340 C   0  0  0  0  0  0  0  0  0  0  0  0
  145.8020   72.7390  219.4600 C   0  0  0  0  0  0  0  0  0  0  0  0
  145.6500   73.5780  220.5490 C   0  0  0  0  0  0  0  0  0  0  0  0
  146.6280   73.3730  221.9900 Cl  0  0  0  0  0  0  0  0  0  0  0  0
  144.7230   74.6050  220.5390 C   0  0  0  0  0  0  0  0  0  0  0  0
  141.4258   71.8542  221.1798 H   0  0  0  0  0  0  0  0  0  0  0  0
  141.4014   72.5855  222.8391 H   0  0  0  0  0  0  0  0  0  0  0  0
  138.8601   73.1064  221.9910 H   0  0  0  0  0  0  0  0  0  0  0  0
  139.1569   71.5585  221.1763 H   0  0  0  0  0  0  0  0  0  0  0  0
  138.4295   71.7672  223.8340 H   0  0  0  0  0  0  0  0  0  0  0  0
  139.3951   70.4026  223.2030 H   0  0  0  0  0  0  0  0  0  0  0  0
  140.9542   73.0986  226.4296 H   0  0  0  0  0  0  0  0  0  0  0  0
  141.2733   71.9589  228.6074 H   0  0  0  0  0  0  0  0  0  0  0  0
  141.1557   69.4955  228.8084 H   0  0  0  0  0  0  0  0  0  0  0  0
  140.3878   69.2572  224.5862 H   0  0  0  0  0  0  0  0  0  0  0  0
  141.5180   73.1250  219.3060 H   0  0  0  0  0  0  0  0  0  0  0  0
  141.4006   75.1820  218.1422 H   0  0  0  0  0  0  0  0  0  0  0  0
  140.8430   76.0000  219.6691 H   0  0  0  0  0  0  0  0  0  0  0  0
  143.1863   76.6147  218.6353 H   0  0  0  0  0  0  0  0  0  0  0  0
  143.0111   76.4150  220.4009 H   0  0  0  0  0  0  0  0  0  0  0  0
  143.4499   74.0986  217.4041 H   0  0  0  0  0  0  0  0  0  0  0  0
  145.1460   72.2477  217.4690 H   0  0  0  0  0  0  0  0  0  0  0  0
  146.5453   71.9288  219.4911 H   0  0  0  0  0  0  0  0  0  0  0  0
  144.6019   75.2720  221.4053 H   0  0  0  0  0  0  0  0  0  0  0  0
  1  2  2  0
  2  3  1  0
  3  4  1  0
  4  5  1  0
  5  6  1  0
  6  7  1  0
  7  8  2  0
  8  9  1  0
  9 10  2  0
 10 11  1  0
 11 12  1  0
 11 13  2  0
  2 14  1  0
 14 15  1  0
 15 16  1  0
 16 17  1  0
 17 18  2  0
 18 19  1  0
 19 20  2  0
 20 21  1  0
 21 22  1  0
 21 23  2  0
 13  7  1  0
 23 17  1  0
  3 24  1  0
  3 25  1  0
  4 26  1  0
  4 27  1  0
  5 28  1  0
  5 29  1  0
  8 30  1  0
  9 31  1  0
 10 32  1  0
 13 33  1  0
 14 34  1  0
 15 35  1  0
 15 36  1  0
 16 37  1  0
 16 38  1  0
 18 39  1  0
 19 40  1  0
 20 41  1  0
 23 42  1  0
M  END
>  <smiles>  (4) 
O=C(CCCOc1cccc(Cl)c1)NCCc1cccc(Cl)c1

>  <score_type>  (4) 
oracle

>  <origin>  (4) 
autodockgpu

>  <m_score__min__energy>  (4) 
-7.7199999999999998

>  <m_primary>  (4) 
energy

>  <meeko>  (4) 
{"free_energy": -6.78, "intermolecular_energy": -9.16, "internal_energy": -0.95, "cluster_size": 1, "cluster_id": 3, "rank_in_cluster": 1}

>  <energy>  (4) 
-7.29

>  <cluster_rmsd>  (4) 
1.65

>  <rmsd>  (4) 
271.54

>  <cluster>  (4) 
1

$$$$

     RDKit          3D

 42 43  0  0  0  0  0  0  0  0999 V2000
  139.1180   79.4460  223.3680 O   0  0  0  0  0  0  0  0  0  0  0  0
  139.6180   78.4430  222.7960 C   0  0  0  0  0  0  0  0  0  0  0  0
  138.7820   77.6240  221.8600 C   0  0  0  0  0  0  0  0  0  0  0  0
  138.5380   76.2420  222.3960 C   0  0  0  0  0  0  0  0  0  0  0  0
  139.2970   75.2830  221.4810 C   0  0  0  0  0  0  0  0  0  0  0  0
  140.6340   75.1720  221.9650 O   0  0  0  0  0  0  0  0  0  0  0  0
  141.6600   75.3680  221.0470 C   0  0  0  0  0  0  0  0  0  0  0  0
  141.6450   76.5370  220.3060 C   0  0  0  0  0  0  0  0  0  0  0  0
  142.6600   76.7490  219.3860 C   0  0  0  0  0  0  0  0  0  0  0  0
  143.6830   75.8350  219.1870 C   0  0  0  0  0  0  0  0  0  0  0  0
  143.6940   74.6700  219.9290 C   0  0  0  0  0  0  0  0  0  0  0  0
  144.9780   73.4930  219.6970 Cl  0  0  0  0  0  0  0  0  0  0  0  0
  142.6780   74.4520  220.8520 C   0  0  0  0  0  0  0  0  0  0  0  0
  140.9640   78.0230  222.9820 N   0  0  0  0  0  0  0  0  0  0  0  0
  141.8380   78.7610  223.8700 C   0  0  0  0  0  0  0  0  0  0  0  0
  142.8650   79.5970  223.1180 C   0  0  0  0  0  0  0  0  0  0  0  0
  142.1260   80.4880  222.1560 C   0  0  0  0  0  0  0  0  0  0  0  0
  141.4670   81.6220  222.5800 C   0  0  0  0  0  0  0  0  0  0  0  0
  140.8030   82.4000  221.6270 C   0  0  0  0  0  0  0  0  0  0  0  0
  140.8180   82.0240  220.2990 C   0  0  0  0  0  0  0  0  0  0  0  0
  141.4900   80.8800  219.9080 C   0  0  0  0  0  0  0  0  0  0  0  0
  141.5230   80.3830  218.2270 Cl  0  0  0  0  0  0  0  0  0  0  0  0
  142.1560   80.0900  220.8280 C   0  0  0  0  0  0  0  0  0  0  0  0
  137.8140   78.1259  221.7149 H   0  0  0  0  0  0  0  0  0  0  0  0
  139.3251   77.5311  220.9079 H   0  0  0  0  0  0  0  0  0  0  0  0
  138.9141   76.1620  223.4266 H   0  0  0  0  0  0  0  0  0  0  0  0
  137.4637   76.0066  222.4163 H   0  0  0  0  0  0  0  0  0  0  0  0
  138.8132   74.2952  221.4929 H   0  0  0  0  0  0  0  0  0  0  0  0
  139.2963   75.6616  220.4482 H   0  0  0  0  0  0  0  0  0  0  0  0
  140.8462   77.2805  220.4440 H   0  0  0  0  0  0  0  0  0  0  0  0
  142.6534   77.6754  218.7929 H   0  0  0  0  0  0  0  0  0  0  0  0
  144.4742   76.0345  218.4492 H   0  0  0  0  0  0  0  0  0  0  0  0
  142.6836   73.5250  221.4441 H   0  0  0  0  0  0  0  0  0  0  0  0
  141.3280   77.1660  222.4690 H   0  0  0  0  0  0  0  0  0  0  0  0
  141.2252   79.4306  224.4914 H   0  0  0  0  0  0  0  0  0  0  0  0
  142.3866   78.0297  224.4817 H   0  0  0  0  0  0  0  0  0  0  0  0
  143.4395   80.2099  223.8282 H   0  0  0  0  0  0  0  0  0  0  0  0
  143.5641   78.9446  222.5742 H   0  0  0  0  0  0  0  0  0  0  0  0
  141.4636   81.9078  223.6422 H   0  0  0  0  0  0  0  0  0  0  0  0
  140.2691   83.3110  221.9352 H   0  0  0  0  0  0  0  0  0  0  0  0
  140.2942   82.6357  219.5497 H   0  0  0  0  0  0  0  0  0  0  0  0
  142.6897   79.1796  220.5175 H   0  0  0  0  0  0  0  0  0  0  0  0
  1  2  2  0
  2  3  1  0
  3  4  1  0
  4  5  1  0
  5  6  1  0
  6  7  1  0
  7  8  2  0
  8  9  1  0
  9 10  2  0
 10 11  1  0
 11 12  1  0
 11 13  2  0
  2 14  1  0
 14 15  1  0
 15 16  1  0
 16 17  1  0
 17 18  2  0
 18 19  1  0
 19 20  2  0
 20 21  1  0
 21 22  1  0
 21 23  2  0
 13  7  1  0
 23 17  1  0
  3 24  1  0
  3 25  1  0
  4 26  1  0
  4 27  1  0
  5 28  1  0
  5 29  1  0
  8 30  1  0
  9 31  1  0
 10 32  1  0
 13 33  1  0
 14 34  1  0
 15 35  1  0
 15 36  1  0
 16 37  1  0
 16 38  1  0
 18 39  1  0
 19 40  1  0
 20 41  1  0
 23 42  1  0
M  END
>  <smiles>  (5) 
O=C(CCCOc1cccc(Cl)c1)NCCc1cccc(Cl)c1

>  <score_type>  (5) 
oracle

>  <origin>  (5) 
autodockgpu

>  <m_score__min__energy>  (5) 
-7.7199999999999998

>  <m_primary>  (5) 
energy

>  <meeko>  (5) 
{"free_energy": -5.58, "intermolecular_energy": -7.97, "internal_energy": -2.42, "cluster_size": 1, "cluster_id": 6, "rank_in_cluster": 1}

>  <energy>  (5) 
-7.21

>  <cluster_rmsd>  (5) 
1.99

>  <rmsd>  (5) 
271.2

>  <cluster>  (5) 
1

$$$$

     RDKit          3D

 42 43  0  0  0  0  0  0  0  0999 V2000
  139.2680   75.5110  219.7220 O   0  0  0  0  0  0  0  0  0  0  0  0
  139.2070   74.6500  220.6380 C   0  0  0  0  0  0  0  0  0  0  0  0
  139.0250   73.2040  220.2900 C   0  0  0  0  0  0  0  0  0  0  0  0
  138.7740   72.3650  221.5110 C   0  0  0  0  0  0  0  0  0  0  0  0
  140.1390   71.8610  221.9760 C   0  0  0  0  0  0  0  0  0  0  0  0
  140.3980   72.4080  223.2680 O   0  0  0  0  0  0  0  0  0  0  0  0
  140.2780   71.5500  224.3560 C   0  0  0  0  0  0  0  0  0  0  0  0
  139.7080   70.3080  224.1370 C   0  0  0  0  0  0  0  0  0  0  0  0
  139.5810   69.4410  225.2110 C   0  0  0  0  0  0  0  0  0  0  0  0
  140.0030   69.7750  226.4880 C   0  0  0  0  0  0  0  0  0  0  0  0
  140.5720   71.0160  226.7020 C   0  0  0  0  0  0  0  0  0  0  0  0
  141.1170   71.4670  228.3110 Cl  0  0  0  0  0  0  0  0  0  0  0  0
  140.7020   71.8890  225.6280 C   0  0  0  0  0  0  0  0  0  0  0  0
  139.3030   74.9670  222.0200 N   0  0  0  0  0  0  0  0  0  0  0  0
  139.4800   76.3420  222.4390 C   0  0  0  0  0  0  0  0  0  0  0  0
  140.9050   76.8380  222.2290 C   0  0  0  0  0  0  0  0  0  0  0  0
  140.9720   78.2690  222.6880 C   0  0  0  0  0  0  0  0  0  0  0  0
  142.1590   78.9710  222.6990 C   0  0  0  0  0  0  0  0  0  0  0  0
  142.1420   80.2980  223.1390 C   0  0  0  0  0  0  0  0  0  0  0  0
  140.9560   80.8720  223.5490 C   0  0  0  0  0  0  0  0  0  0  0  0
  139.7830   80.1400  223.5250 C   0  0  0  0  0  0  0  0  0  0  0  0
  138.2650   80.8490  224.0410 Cl  0  0  0  0  0  0  0  0  0  0  0  0
  139.7690   78.8250  223.0950 C   0  0  0  0  0  0  0  0  0  0  0  0
  138.1671   73.1068  219.6084 H   0  0  0  0  0  0  0  0  0  0  0  0
  139.9500   72.8473  219.8135 H   0  0  0  0  0  0  0  0  0  0  0  0
  138.3037   72.9713  222.2991 H   0  0  0  0  0  0  0  0  0  0  0  0
  138.0951   71.5288  221.2876 H   0  0  0  0  0  0  0  0  0  0  0  0
  140.1317   70.7624  222.0311 H   0  0  0  0  0  0  0  0  0  0  0  0
  140.9210   72.1715  221.2674 H   0  0  0  0  0  0  0  0  0  0  0  0
  139.3638   70.0157  223.1340 H   0  0  0  0  0  0  0  0  0  0  0  0
  139.1290   68.4522  225.0436 H   0  0  0  0  0  0  0  0  0  0  0  0
  139.8868   69.0632  227.3186 H   0  0  0  0  0  0  0  0  0  0  0  0
  141.1549   72.8775  225.7946 H   0  0  0  0  0  0  0  0  0  0  0  0
  139.2450   74.1920  222.7470 H   0  0  0  0  0  0  0  0  0  0  0  0
  138.7960   76.9784  221.8583 H   0  0  0  0  0  0  0  0  0  0  0  0
  139.2641   76.3931  223.5164 H   0  0  0  0  0  0  0  0  0  0  0  0
  141.6041   76.2245  222.8164 H   0  0  0  0  0  0  0  0  0  0  0  0
  141.1826   76.7641  221.1672 H   0  0  0  0  0  0  0  0  0  0  0  0
  143.0962   78.4985  222.3697 H   0  0  0  0  0  0  0  0  0  0  0  0
  143.0729   80.8837  223.1583 H   0  0  0  0  0  0  0  0  0  0  0  0
  140.9436   81.9157  223.8962 H   0  0  0  0  0  0  0  0  0  0  0  0
  138.8367   78.2415  223.0767 H   0  0  0  0  0  0  0  0  0  0  0  0
  1  2  2  0
  2  3  1  0
  3  4  1  0
  4  5  1  0
  5  6  1  0
  6  7  1  0
  7  8  2  0
  8  9  1  0
  9 10  2  0
 10 11  1  0
 11 12  1  0
 11 13  2  0
  2 14  1  0
 14 15  1  0
 15 16  1  0
 16 17  1  0
 17 18  2  0
 18 19  1  0
 19 20  2  0
 20 21  1  0
 21 22  1  0
 21 23  2  0
 13  7  1  0
 23 17  1  0
  3 24  1  0
  3 25  1  0
  4 26  1  0
  4 27  1  0
  5 28  1  0
  5 29  1  0
  8 30  1  0
  9 31  1  0
 10 32  1  0
 13 33  1  0
 14 34  1  0
 15 35  1  0
 15 36  1  0
 16 37  1  0
 16 38  1  0
 18 39  1  0
 19 40  1  0
 20 41  1  0
 23 42  1  0
M  END
>  <smiles>  (6) 
O=C(CCCOc1cccc(Cl)c1)NCCc1cccc(Cl)c1

>  <score_type>  (6) 
oracle

>  <origin>  (6) 
autodockgpu

>  <m_score__min__energy>  (6) 
-7.7199999999999998

>  <m_primary>  (6) 
energy

>  <meeko>  (6) 
{"free_energy": -6.58, "intermolecular_energy": -8.97, "internal_energy": -1.39, "cluster_size": 12, "cluster_id": 1, "rank_in_cluster": 9}

>  <energy>  (6) 
-7.17

>  <cluster_rmsd>  (6) 
1.35

>  <rmsd>  (6) 
271.2

>  <cluster>  (6) 
1

$$$$

     RDKit          3D

 42 43  0  0  0  0  0  0  0  0999 V2000
  141.1990   74.2630  220.4380 O   0  0  0  0  0  0  0  0  0  0  0  0
  140.6390   73.5830  221.3370 C   0  0  0  0  0  0  0  0  0  0  0  0
  140.9080   72.1120  221.4370 C   0  0  0  0  0  0  0  0  0  0  0  0
  139.6730   71.3010  221.1720 C   0  0  0  0  0  0  0  0  0  0  0  0
  139.4070   70.4900  222.4400 C   0  0  0  0  0  0  0  0  0  0  0  0
  139.4220   71.3850  223.5500 O   0  0  0  0  0  0  0  0  0  0  0  0
  139.6720   70.8370  224.8030 C   0  0  0  0  0  0  0  0  0  0  0  0
  139.2320   69.5460  225.0420 C   0  0  0  0  0  0  0  0  0  0  0  0
  139.4730   68.9850  226.2860 C   0  0  0  0  0  0  0  0  0  0  0  0
  140.1350   69.6690  227.2920 C   0  0  0  0  0  0  0  0  0  0  0  0
  140.5730   70.9570  227.0510 C   0  0  0  0  0  0  0  0  0  0  0  0
  141.4170   71.8490  228.3080 Cl  0  0  0  0  0  0  0  0  0  0  0  0
  140.3340   71.5250  225.8050 C   0  0  0  0  0  0  0  0  0  0  0  0
  139.7410   74.1340  222.2920 N   0  0  0  0  0  0  0  0  0  0  0  0
  139.4290   75.5470  222.2630 C   0  0  0  0  0  0  0  0  0  0  0  0
  140.6680   76.4180  222.1010 C   0  0  0  0  0  0  0  0  0  0  0  0
  140.3480   77.7880  222.6330 C   0  0  0  0  0  0  0  0  0  0  0  0
  139.0470   78.2160  222.7940 C   0  0  0  0  0  0  0  0  0  0  0  0
  138.8280   79.5030  223.2940 C   0  0  0  0  0  0  0  0  0  0  0  0
  139.9020   80.3090  223.6140 C   0  0  0  0  0  0  0  0  0  0  0  0
  141.1950   79.8480  223.4410 C   0  0  0  0  0  0  0  0  0  0  0  0
  142.5730   80.8540  223.8400 Cl  0  0  0  0  0  0  0  0  0  0  0  0
  141.4420   78.5800  222.9470 C   0  0  0  0  0  0  0  0  0  0  0  0
  141.6779   71.8398  220.7000 H   0  0  0  0  0  0  0  0  0  0  0  0
  141.2469   71.8949  222.4607 H   0  0  0  0  0  0  0  0  0  0  0  0
  138.8214   71.9639  220.9590 H   0  0  0  0  0  0  0  0  0  0  0  0
  139.8077   70.6440  220.3001 H   0  0  0  0  0  0  0  0  0  0  0  0
  138.4248   69.9997  222.3697 H   0  0  0  0  0  0  0  0  0  0  0  0
  140.1775   69.7150  222.5651 H   0  0  0  0  0  0  0  0  0  0  0  0
  138.7031   68.9786  224.2621 H   0  0  0  0  0  0  0  0  0  0  0  0
  139.1261   67.9596  226.4815 H   0  0  0  0  0  0  0  0  0  0  0  0
  140.3095   69.1938  228.2686 H   0  0  0  0  0  0  0  0  0  0  0  0
  140.6809   72.5505  225.6098 H   0  0  0  0  0  0  0  0  0  0  0  0
  139.3000   73.5060  223.0290 H   0  0  0  0  0  0  0  0  0  0  0  0
  138.7498   75.7404  221.4196 H   0  0  0  0  0  0  0  0  0  0  0  0
  138.9643   75.8051  223.2261 H   0  0  0  0  0  0  0  0  0  0  0  0
  141.5055   75.9843  222.6672 H   0  0  0  0  0  0  0  0  0  0  0  0
  140.9560   76.4781  221.0411 H   0  0  0  0  0  0  0  0  0  0  0  0
  138.2022   77.5607  222.5353 H   0  0  0  0  0  0  0  0  0  0  0  0
  137.8013   79.8729  223.4322 H   0  0  0  0  0  0  0  0  0  0  0  0
  139.7292   81.3214  224.0079 H   0  0  0  0  0  0  0  0  0  0  0  0
  142.4696   78.2129  222.8082 H   0  0  0  0  0  0  0  0  0  0  0  0
  1  2  2  0
  2  3  1  0
  3  4  1  0
  4  5  1  0
  5  6  1  0
  6  7  1  0
  7  8  2  0
  8  9  1  0
  9 10  2  0
 10 11  1  0
 11 12  1  0
 11 13  2  0
  2 14  1  0
 14 15  1  0
 15 16  1  0
 16 17  1  0
 17 18  2  0
 18 19  1  0
 19 20  2  0
 20 21  1  0
 21 22  1  0
 21 23  2  0
 13  7  1  0
 23 17  1  0
  3 24  1  0
  3 25  1  0
  4 26  1  0
  4 27  1  0
  5 28  1  0
  5 29  1  0
  8 30  1  0
  9 31  1  0
 10 32  1  0
 13 33  1  0
 14 34  1  0
 15 35  1  0
 15 36  1  0
 16 37  1  0
 16 38  1  0
 18 39  1  0
 19 40  1  0
 20 41  1  0
 23 42  1  0
M  END
>  <smiles>  (7) 
O=C(CCCOc1cccc(Cl)c1)NCCc1cccc(Cl)c1

>  <score_type>  (7) 
oracle

>  <origin>  (7) 
autodockgpu

>  <m_score__min__energy>  (7) 
-7.7199999999999998

>  <m_primary>  (7) 
energy

>  <meeko>  (7) 
{"free_energy": -6.63, "intermolecular_energy": -9.02, "internal_energy": -1.34, "cluster_size": 12, "cluster_id": 1, "rank_in_cluster": 8}

>  <energy>  (7) 
-6.91

>  <cluster_rmsd>  (7) 
0.83

>  <rmsd>  (7) 
271.28

>  <cluster>  (7) 
1

$$$$

     RDKit          3D

 42 43  0  0  0  0  0  0  0  0999 V2000
  138.9520   70.7210  221.0230 O   0  0  0  0  0  0  0  0  0  0  0  0
  139.1110   71.8810  221.4850 C   0  0  0  0  0  0  0  0  0  0  0  0
  139.2980   73.0370  220.5490 C   0  0  0  0  0  0  0  0  0  0  0  0
  140.7470   73.2570  220.2200 C   0  0  0  0  0  0  0  0  0  0  0  0
  141.2620   74.2990  221.2110 C   0  0  0  0  0  0  0  0  0  0  0  0
  140.1940   74.6410  222.0920 O   0  0  0  0  0  0  0  0  0  0  0  0
  139.9670   75.9930  222.3200 C   0  0  0  0  0  0  0  0  0  0  0  0
  141.0700   76.8200  222.4460 C   0  0  0  0  0  0  0  0  0  0  0  0
  140.8610   78.1710  222.6730 C   0  0  0  0  0  0  0  0  0  0  0  0
  139.5920   78.7170  222.7770 C   0  0  0  0  0  0  0  0  0  0  0  0
  138.4940   77.8900  222.6510 C   0  0  0  0  0  0  0  0  0  0  0  0
  136.8720   78.5550  222.7790 Cl  0  0  0  0  0  0  0  0  0  0  0  0
  138.6980   76.5340  222.4230 C   0  0  0  0  0  0  0  0  0  0  0  0
  139.1240   72.1780  222.8760 N   0  0  0  0  0  0  0  0  0  0  0  0
  138.9490   71.1170  223.8450 C   0  0  0  0  0  0  0  0  0  0  0  0
  140.2490   70.3850  224.1530 C   0  0  0  0  0  0  0  0  0  0  0  0
  140.5730   70.6040  225.6060 C   0  0  0  0  0  0  0  0  0  0  0  0
  140.7840   71.8670  226.1190 C   0  0  0  0  0  0  0  0  0  0  0  0
  141.0800   71.9910  227.4790 C   0  0  0  0  0  0  0  0  0  0  0  0
  141.1550   70.8640  228.2730 C   0  0  0  0  0  0  0  0  0  0  0  0
  140.9380   69.6120  227.7270 C   0  0  0  0  0  0  0  0  0  0  0  0
  141.0270   68.1680  228.7160 Cl  0  0  0  0  0  0  0  0  0  0  0  0
  140.6430   69.4590  226.3840 C   0  0  0  0  0  0  0  0  0  0  0  0
  138.7479   72.8346  219.6182 H   0  0  0  0  0  0  0  0  0  0  0  0
  138.9172   73.9431  221.0430 H   0  0  0  0  0  0  0  0  0  0  0  0
  141.3087   72.3176  220.3297 H   0  0  0  0  0  0  0  0  0  0  0  0
  140.8724   73.5985  219.1819 H   0  0  0  0  0  0  0  0  0  0  0  0
  142.1013   73.8823  221.7872 H   0  0  0  0  0  0  0  0  0  0  0  0
  141.6136   75.1927  220.6747 H   0  0  0  0  0  0  0  0  0  0  0  0
  142.0893   76.4139  222.3677 H   0  0  0  0  0  0  0  0  0  0  0  0
  141.7335   78.8332  222.7742 H   0  0  0  0  0  0  0  0  0  0  0  0
  139.4613   79.7942  222.9574 H   0  0  0  0  0  0  0  0  0  0  0  0
  137.8253   75.8721  222.3216 H   0  0  0  0  0  0  0  0  0  0  0  0
  139.2630   73.1800  223.2020 H   0  0  0  0  0  0  0  0  0  0  0  0
  138.5602   71.5520  224.7775 H   0  0  0  0  0  0  0  0  0  0  0  0
  138.2484   70.3857  223.4156 H   0  0  0  0  0  0  0  0  0  0  0  0
  140.1277   69.3097  223.9555 H   0  0  0  0  0  0  0  0  0  0  0  0
  141.0622   70.7670  223.5184 H   0  0  0  0  0  0  0  0  0  0  0  0
  140.7208   72.7551  225.4731 H   0  0  0  0  0  0  0  0  0  0  0  0
  141.2531   72.9853  227.9165 H   0  0  0  0  0  0  0  0  0  0  0  0
  141.3881   70.9622  229.3435 H   0  0  0  0  0  0  0  0  0  0  0  0
  140.4701   68.4636  225.9489 H   0  0  0  0  0  0  0  0  0  0  0  0
  1  2  2  0
  2  3  1  0
  3  4  1  0
  4  5  1  0
  5  6  1  0
  6  7  1  0
  7  8  2  0
  8  9  1  0
  9 10  2  0
 10 11  1  0
 11 12  1  0
 11 13  2  0
  2 14  1  0
 14 15  1  0
 15 16  1  0
 16 17  1  0
 17 18  2  0
 18 19  1  0
 19 20  2  0
 20 21  1  0
 21 22  1  0
 21 23  2  0
 13  7  1  0
 23 17  1  0
  3 24  1  0
  3 25  1  0
  4 26  1  0
  4 27  1  0
  5 28  1  0
  5 29  1  0
  8 30  1  0
  9 31  1  0
 10 32  1  0
 13 33  1  0
 14 34  1  0
 15 35  1  0
 15 36  1  0
 16 37  1  0
 16 38  1  0
 18 39  1  0
 19 40  1  0
 20 41  1  0
 23 42  1  0
M  END
>  <smiles>  (8) 
O=C(CCCOc1cccc(Cl)c1)NCCc1cccc(Cl)c1

>  <score_type>  (8) 
oracle

>  <origin>  (8) 
autodockgpu

>  <m_score__min__energy>  (8) 
-7.7199999999999998

>  <m_primary>  (8) 
energy

>  <meeko>  (8) 
{"free_energy": -6.58, "intermolecular_energy": -8.96, "internal_energy": -1.56, "cluster_size": 12, "cluster_id": 1, "rank_in_cluster": 11}

>  <energy>  (8) 
-6.63

>  <cluster_rmsd>  (8) 
1.68

>  <rmsd>  (8) 
271.19

>  <cluster>  (8) 
1

$$$$

     RDKit          3D

 42 43  0  0  0  0  0  0  0  0999 V2000
  140.6020   74.7500  220.2950 O   0  0  0  0  0  0  0  0  0  0  0  0
  139.9280   74.2840  221.2500 C   0  0  0  0  0  0  0  0  0  0  0  0
  139.6840   72.8080  221.3400 C   0  0  0  0  0  0  0  0  0  0  0  0
  140.7650   72.1100  222.1150 C   0  0  0  0  0  0  0  0  0  0  0  0
  140.0940   71.5160  223.3530 C   0  0  0  0  0  0  0  0  0  0  0  0
  140.6990   72.0940  224.5070 O   0  0  0  0  0  0  0  0  0  0  0  0
  140.7520   71.3120  225.6550 C   0  0  0  0  0  0  0  0  0  0  0  0
  141.0120   71.9480  226.8570 C   0  0  0  0  0  0  0  0  0  0  0  0
  141.0680   71.1830  228.0110 C   0  0  0  0  0  0  0  0  0  0  0  0
  140.8730   69.8120  228.0020 C   0  0  0  0  0  0  0  0  0  0  0  0
  140.6140   69.1800  226.8010 C   0  0  0  0  0  0  0  0  0  0  0  0
  140.3630   67.4410  226.7580 Cl  0  0  0  0  0  0  0  0  0  0  0  0
  140.5570   69.9420  225.6400 C   0  0  0  0  0  0  0  0  0  0  0  0
  139.3680   75.0860  222.2820 N   0  0  0  0  0  0  0  0  0  0  0  0
  139.5590   76.5220  222.2680 C   0  0  0  0  0  0  0  0  0  0  0  0
  141.0250   76.9180  222.3800 C   0  0  0  0  0  0  0  0  0  0  0  0
  141.0870   78.3360  222.8800 C   0  0  0  0  0  0  0  0  0  0  0  0
  142.2790   79.0250  222.9550 C   0  0  0  0  0  0  0  0  0  0  0  0
  142.2570   80.3400  223.4300 C   0  0  0  0  0  0  0  0  0  0  0  0
  141.0620   80.9150  223.8100 C   0  0  0  0  0  0  0  0  0  0  0  0
  139.8840   80.1950  223.7230 C   0  0  0  0  0  0  0  0  0  0  0  0
  138.3540   80.9050  224.2000 Cl  0  0  0  0  0  0  0  0  0  0  0  0
  139.8750   78.8920  223.2570 C   0  0  0  0  0  0  0  0  0  0  0  0
  138.7196   72.6364  221.8405 H   0  0  0  0  0  0  0  0  0  0  0  0
  139.6776   72.3997  220.3186 H   0  0  0  0  0  0  0  0  0  0  0  0
  141.2147   71.3118  221.5062 H   0  0  0  0  0  0  0  0  0  0  0  0
  141.5694   72.8068  222.3932 H   0  0  0  0  0  0  0  0  0  0  0  0
  139.0186   71.7471  223.3409 H   0  0  0  0  0  0  0  0  0  0  0  0
  140.2182   70.4231  223.3655 H   0  0  0  0  0  0  0  0  0  0  0  0
  141.1705   73.0359  226.8950 H   0  0  0  0  0  0  0  0  0  0  0  0
  141.2748   71.6828  228.9688 H   0  0  0  0  0  0  0  0  0  0  0  0
  140.9236   69.2348  228.9370 H   0  0  0  0  0  0  0  0  0  0  0  0
  140.3511   69.4420  224.6821 H   0  0  0  0  0  0  0  0  0  0  0  0
  138.8090   74.6310  223.0630 H   0  0  0  0  0  0  0  0  0  0  0  0
  139.1569   76.9219  221.3254 H   0  0  0  0  0  0  0  0  0  0  0  0
  139.0338   76.9368  223.1410 H   0  0  0  0  0  0  0  0  0  0  0  0
  141.5391   76.2501  223.0869 H   0  0  0  0  0  0  0  0  0  0  0  0
  141.5187   76.8364  221.4004 H   0  0  0  0  0  0  0  0  0  0  0  0
  143.2237   78.5520  222.6488 H   0  0  0  0  0  0  0  0  0  0  0  0
  143.1918   80.9155  223.5006 H   0  0  0  0  0  0  0  0  0  0  0  0
  141.0458   81.9495  224.1834 H   0  0  0  0  0  0  0  0  0  0  0  0
  138.9391   78.3181  223.1883 H   0  0  0  0  0  0  0  0  0  0  0  0
  1  2  2  0
  2  3  1  0
  3  4  1  0
  4  5  1  0
  5  6  1  0
  6  7  1  0
  7  8  2  0
  8  9  1  0
  9 10  2  0
 10 11  1  0
 11 12  1  0
 11 13  2  0
  2 14  1  0
 14 15  1  0
 15 16  1  0
 16 17  1  0
 17 18  2  0
 18 19  1  0
 19 20  2  0
 20 21  1  0
 21 22  1  0
 21 23  2  0
 13  7  1  0
 23 17  1  0
  3 24  1  0
  3 25  1  0
  4 26  1  0
  4 27  1  0
  5 28  1  0
  5 29  1  0
  8 30  1  0
  9 31  1  0
 10 32  1  0
 13 33  1  0
 14 34  1  0
 15 35  1  0
 15 36  1  0
 16 37  1  0
 16 38  1  0
 18 39  1  0
 19 40  1  0
 20 41  1  0
 23 42  1  0
M  END
>  <smiles>  (9) 
O=C(CCCOc1cccc(Cl)c1)NCCc1cccc(Cl)c1

>  <score_type>  (9) 
oracle

>  <origin>  (9) 
autodockgpu

>  <m_score__min__energy>  (9) 
-7.7199999999999998

>  <m_primary>  (9) 
energy

>  <meeko>  (9) 
{"free_energy": -7.72, "intermolecular_energy": -10.11, "internal_energy": -0.67, "cluster_size": 12, "cluster_id": 1, "rank_in_cluster": 1}

>  <energy>  (9) 
-6.58

>  <cluster_rmsd>  (9) 
1.25

>  <rmsd>  (9) 
271.06

>  <cluster>  (9) 
1

$$$$

     RDKit          3D

 42 43  0  0  0  0  0  0  0  0999 V2000
  140.9510   73.7740  221.8840 O   0  0  0  0  0  0  0  0  0  0  0  0
  139.7110   73.6560  222.0650 C   0  0  0  0  0  0  0  0  0  0  0  0
  138.7800   74.7190  221.5650 C   0  0  0  0  0  0  0  0  0  0  0  0
  138.9880   76.0230  222.2800 C   0  0  0  0  0  0  0  0  0  0  0  0
  140.2440   76.6510  221.6780 C   0  0  0  0  0  0  0  0  0  0  0  0
  141.0570   77.1310  222.7460 O   0  0  0  0  0  0  0  0  0  0  0  0
  141.4230   78.4720  222.7130 C   0  0  0  0  0  0  0  0  0  0  0  0
  141.9590   79.0220  223.8640 C   0  0  0  0  0  0  0  0  0  0  0  0
  142.3290   80.3580  223.8480 C   0  0  0  0  0  0  0  0  0  0  0  0
  142.1810   81.1540  222.7240 C   0  0  0  0  0  0  0  0  0  0  0  0
  141.6460   80.6020  221.5770 C   0  0  0  0  0  0  0  0  0  0  0  0
  141.4470   81.5890  220.1360 Cl  0  0  0  0  0  0  0  0  0  0  0  0
  141.2730   79.2630  221.5880 C   0  0  0  0  0  0  0  0  0  0  0  0
  139.1160   72.5490  222.7300 N   0  0  0  0  0  0  0  0  0  0  0  0
  139.9460   71.4790  223.2420 C   0  0  0  0  0  0  0  0  0  0  0  0
  139.1350   70.2650  223.6760 C   0  0  0  0  0  0  0  0  0  0  0  0
  139.5920   69.8680  225.0540 C   0  0  0  0  0  0  0  0  0  0  0  0
  139.5500   68.5570  225.4810 C   0  0  0  0  0  0  0  0  0  0  0  0
  139.9920   68.2660  226.7740 C   0  0  0  0  0  0  0  0  0  0  0  0
  140.4550   69.2800  227.5890 C   0  0  0  0  0  0  0  0  0  0  0  0
  140.4830   70.5840  227.1290 C   0  0  0  0  0  0  0  0  0  0  0  0
  141.0670   71.8870  228.1460 Cl  0  0  0  0  0  0  0  0  0  0  0  0
  140.0530   70.9030  225.8540 C   0  0  0  0  0  0  0  0  0  0  0  0
  138.9566   74.8702  220.4899 H   0  0  0  0  0  0  0  0  0  0  0  0
  137.7485   74.3865  221.7530 H   0  0  0  0  0  0  0  0  0  0  0  0
  138.1217   76.6833  222.1263 H   0  0  0  0  0  0  0  0  0  0  0  0
  139.0996   75.8697  223.3635 H   0  0  0  0  0  0  0  0  0  0  0  0
  140.7969   75.8965  221.0991 H   0  0  0  0  0  0  0  0  0  0  0  0
  139.9710   77.4784  221.0065 H   0  0  0  0  0  0  0  0  0  0  0  0
  142.0886   78.4132  224.7709 H   0  0  0  0  0  0  0  0  0  0  0  0
  142.7551   80.8016  224.7600 H   0  0  0  0  0  0  0  0  0  0  0  0
  142.4854   82.2108  222.7449 H   0  0  0  0  0  0  0  0  0  0  0  0
  140.8464   78.8197  220.6762 H   0  0  0  0  0  0  0  0  0  0  0  0
  138.0600   72.5070  222.8500 H   0  0  0  0  0  0  0  0  0  0  0  0
  140.6484   71.1700  222.4538 H   0  0  0  0  0  0  0  0  0  0  0  0
  140.4734   71.8615  224.1283 H   0  0  0  0  0  0  0  0  0  0  0  0
  138.0649   70.5190  223.6964 H   0  0  0  0  0  0  0  0  0  0  0  0
  139.2836   69.4344  222.9703 H   0  0  0  0  0  0  0  0  0  0  0  0
  139.1778   67.7605  224.8199 H   0  0  0  0  0  0  0  0  0  0  0  0
  139.9712   67.2298  227.1426 H   0  0  0  0  0  0  0  0  0  0  0  0
  140.8025   69.0500  228.6070 H   0  0  0  0  0  0  0  0  0  0  0  0
  140.0757   71.9399  225.4876 H   0  0  0  0  0  0  0  0  0  0  0  0
  1  2  2  0
  2  3  1  0
  3  4  1  0
  4  5  1  0
  5  6  1  0
  6  7  1  0
  7  8  2  0
  8  9  1  0
  9 10  2  0
 10 11  1  0
 11 12  1  0
 11 13  2  0
  2 14  1  0
 14 15  1  0
 15 16  1  0
 16 17  1  0
 17 18  2  0
 18 19  1  0
 19 20  2  0
 20 21  1  0
 21 22  1  0
 21 23  2  0
 13  7  1  0
 23 17  1  0
  3 24  1  0
  3 25  1  0
  4 26  1  0
  4 27  1  0
  5 28  1  0
  5 29  1  0
  8 30  1  0
  9 31  1  0
 10 32  1  0
 13 33  1  0
 14 34  1  0
 15 35  1  0
 15 36  1  0
 16 37  1  0
 16 38  1  0
 18 39  1  0
 19 40  1  0
 20 41  1  0
 23 42  1  0
M  END
>  <smiles>  (10) 
O=C(CCCOc1cccc(Cl)c1)NCCc1cccc(Cl)c1

>  <score_type>  (10) 
oracle

>  <origin>  (10) 
autodockgpu

>  <m_score__min__energy>  (10) 
-7.7199999999999998

>  <m_primary>  (10) 
energy

>  <meeko>  (10) 
{"free_energy": -7.54, "intermolecular_energy": -9.93, "internal_energy": -0.62, "cluster_size": 4, "cluster_id": 2, "rank_in_cluster": 2}

>  <energy>  (10) 
-6.58

>  <cluster_rmsd>  (10) 
1.72

>  <rmsd>  (10) 
271.07

>  <cluster>  (10) 
1

$$$$

     RDKit          3D

 42 43  0  0  0  0  0  0  0  0999 V2000
  140.4480   71.8780  221.3310 O   0  0  0  0  0  0  0  0  0  0  0  0
  139.4670   72.5450  221.7520 C   0  0  0  0  0  0  0  0  0  0  0  0
  138.9680   73.7170  220.9610 C   0  0  0  0  0  0  0  0  0  0  0  0
  139.0930   75.0010  221.7300 C   0  0  0  0  0  0  0  0  0  0  0  0
  140.3740   75.6760  221.2400 C   0  0  0  0  0  0  0  0  0  0  0  0
  141.0550   76.2110  222.3730 O   0  0  0  0  0  0  0  0  0  0  0  0
  140.7920   77.5360  222.7040 C   0  0  0  0  0  0  0  0  0  0  0  0
  139.4740   77.9560  222.6830 C   0  0  0  0  0  0  0  0  0  0  0  0
  139.1940   79.2730  223.0100 C   0  0  0  0  0  0  0  0  0  0  0  0
  140.1850   80.1780  223.3550 C   0  0  0  0  0  0  0  0  0  0  0  0
  141.5000   79.7550  223.3750 C   0  0  0  0  0  0  0  0  0  0  0  0
  142.7790   80.8810  223.8090 Cl  0  0  0  0  0  0  0  0  0  0  0  0
  141.7860   78.4350  223.0470 C   0  0  0  0  0  0  0  0  0  0  0  0
  138.7790   72.2520  222.9610 N   0  0  0  0  0  0  0  0  0  0  0  0
  139.1980   71.1360  223.7820 C   0  0  0  0  0  0  0  0  0  0  0  0
  140.6860   71.1730  224.1040 C   0  0  0  0  0  0  0  0  0  0  0  0
  140.8410   71.1160  225.6000 C   0  0  0  0  0  0  0  0  0  0  0  0
  141.1030   72.2470  226.3440 C   0  0  0  0  0  0  0  0  0  0  0  0
  141.2330   72.1150  227.7300 C   0  0  0  0  0  0  0  0  0  0  0  0
  141.0990   70.8730  228.3190 C   0  0  0  0  0  0  0  0  0  0  0  0
  140.8350   69.7590  227.5420 C   0  0  0  0  0  0  0  0  0  0  0  0
  140.6610   68.1740  228.2690 Cl  0  0  0  0  0  0  0  0  0  0  0  0
  140.7020   69.8590  226.1690 C   0  0  0  0  0  0  0  0  0  0  0  0
  139.5556   73.7978  220.0346 H   0  0  0  0  0  0  0  0  0  0  0  0
  137.9031   73.5525  220.7398 H   0  0  0  0  0  0  0  0  0  0  0  0
  138.2243   75.6470  221.5351 H   0  0  0  0  0  0  0  0  0  0  0  0
  139.1305   74.8144  222.8134 H   0  0  0  0  0  0  0  0  0  0  0  0
  141.0142   74.9381  220.7345 H   0  0  0  0  0  0  0  0  0  0  0  0
  140.1329   76.4781  220.5269 H   0  0  0  0  0  0  0  0  0  0  0  0
  138.6663   77.2599  222.4127 H   0  0  0  0  0  0  0  0  0  0  0  0
  138.1477   79.6122  222.9952 H   0  0  0  0  0  0  0  0  0  0  0  0
  139.9286   81.2171  223.6090 H   0  0  0  0  0  0  0  0  0  0  0  0
  142.8322   78.0955  223.0605 H   0  0  0  0  0  0  0  0  0  0  0  0
  137.9550   72.8540  223.2620 H   0  0  0  0  0  0  0  0  0  0  0  0
  138.6326   71.1605  224.7252 H   0  0  0  0  0  0  0  0  0  0  0  0
  139.0021   70.2134  223.2159 H   0  0  0  0  0  0  0  0  0  0  0  0
  141.1889   70.3097  223.6437 H   0  0  0  0  0  0  0  0  0  0  0  0
  141.1393   72.0938  223.7082 H   0  0  0  0  0  0  0  0  0  0  0  0
  141.2072   73.2289  225.8592 H   0  0  0  0  0  0  0  0  0  0  0  0
  141.4417   72.9991  228.3503 H   0  0  0  0  0  0  0  0  0  0  0  0
  141.2025   70.7691  229.4092 H   0  0  0  0  0  0  0  0  0  0  0  0
  140.4935   68.9735  225.5507 H   0  0  0  0  0  0  0  0  0  0  0  0
  1  2  2  0
  2  3  1  0
  3  4  1  0
  4  5  1  0
  5  6  1  0
  6  7  1  0
  7  8  2  0
  8  9  1  0
  9 10  2  0
 10 11  1  0
 11 12  1  0
 11 13  2  0
  2 14  1  0
 14 15  1  0
 15 16  1  0
 16 17  1  0
 17 18  2  0
 18 19  1  0
 19 20  2  0
 20 21  1  0
 21 22  1  0
 21 23  2  0
 13  7  1  0
 23 17  1  0
  3 24  1  0
  3 25  1  0
  4 26  1  0
  4 27  1  0
  5 28  1  0
  5 29  1  0
  8 30  1  0
  9 31  1  0
 10 32  1  0
 13 33  1  0
 14 34  1  0
 15 35  1  0
 15 36  1  0
 16 37  1  0
 16 38  1  0
 18 39  1  0
 19 40  1  0
 20 41  1  0
 23 42  1  0
M  END
>  <smiles>  (11) 
O=C(CCCOc1cccc(Cl)c1)NCCc1cccc(Cl)c1

>  <score_type>  (11) 
oracle

>  <origin>  (11) 
autodockgpu

>  <m_score__min__energy>  (11) 
-7.7199999999999998

>  <m_primary>  (11) 
energy

>  <meeko>  (11) 
{"free_energy": -7.29, "intermolecular_energy": -9.68, "internal_energy": -0.63, "cluster_size": 12, "cluster_id": 1, "rank_in_cluster": 4}

>  <energy>  (11) 
-6.58

>  <cluster_rmsd>  (11) 
1.82

>  <rmsd>  (11) 
270.89

>  <cluster>  (11) 
1

$$$$

     RDKit          3D

 42 43  0  0  0  0  0  0  0  0999 V2000
  140.0450   73.7720  221.9710 O   0  0  0  0  0  0  0  0  0  0  0  0
  141.0920   74.2960  221.5080 C   0  0  0  0  0  0  0  0  0  0  0  0
  142.0800   73.4530  220.7610 C   0  0  0  0  0  0  0  0  0  0  0  0
  143.4380   74.0930  220.7190 C   0  0  0  0  0  0  0  0  0  0  0  0
  143.4980   74.8960  219.4200 C   0  0  0  0  0  0  0  0  0  0  0  0
  143.3840   76.2800  219.7480 O   0  0  0  0  0  0  0  0  0  0  0  0
  142.9910   77.1420  218.7300 C   0  0  0  0  0  0  0  0  0  0  0  0
  143.0430   76.6710  217.4300 C   0  0  0  0  0  0  0  0  0  0  0  0
  142.6560   77.5180  216.4030 C   0  0  0  0  0  0  0  0  0  0  0  0
  142.2210   78.8120  216.6350 C   0  0  0  0  0  0  0  0  0  0  0  0
  142.1700   79.2800  217.9340 C   0  0  0  0  0  0  0  0  0  0  0  0
  141.6220   80.9180  218.2580 Cl  0  0  0  0  0  0  0  0  0  0  0  0
  142.5580   78.4340  218.9670 C   0  0  0  0  0  0  0  0  0  0  0  0
  141.4080   75.6750  221.6500 N   0  0  0  0  0  0  0  0  0  0  0  0
  140.5040   76.5570  222.3580 C   0  0  0  0  0  0  0  0  0  0  0  0
  140.1600   77.8080  221.5590 C   0  0  0  0  0  0  0  0  0  0  0  0
  140.9400   78.9580  222.1350 C   0  0  0  0  0  0  0  0  0  0  0  0
  141.8350   78.7790  223.1690 C   0  0  0  0  0  0  0  0  0  0  0  0
  142.5240   79.8960  223.6520 C   0  0  0  0  0  0  0  0  0  0  0  0
  142.2980   81.1380  223.0950 C   0  0  0  0  0  0  0  0  0  0  0  0
  141.3930   81.2820  222.0580 C   0  0  0  0  0  0  0  0  0  0  0  0
  141.0910   82.8500  221.3350 Cl  0  0  0  0  0  0  0  0  0  0  0  0
  140.6970   80.1950  221.5600 C   0  0  0  0  0  0  0  0  0  0  0  0
  142.1621   72.4753  221.2583 H   0  0  0  0  0  0  0  0  0  0  0  0
  141.7220   73.3410  219.7269 H   0  0  0  0  0  0  0  0  0  0  0  0
  143.5714   74.7590  221.5842 H   0  0  0  0  0  0  0  0  0  0  0  0
  144.2360   73.3368  220.7570 H   0  0  0  0  0  0  0  0  0  0  0  0
  144.4557   74.7111  218.9114 H   0  0  0  0  0  0  0  0  0  0  0  0
  142.6805   74.5952  218.7483 H   0  0  0  0  0  0  0  0  0  0  0  0
  143.3838   75.6472  217.2161 H   0  0  0  0  0  0  0  0  0  0  0  0
  142.6959   77.1492  215.3674 H   0  0  0  0  0  0  0  0  0  0  0  0
  141.9203   79.4581  215.7971 H   0  0  0  0  0  0  0  0  0  0  0  0
  142.5195   78.8029  220.0026 H   0  0  0  0  0  0  0  0  0  0  0  0
  142.3090   76.0580  221.2340 H   0  0  0  0  0  0  0  0  0  0  0  0
  139.5744   76.0097  222.5732 H   0  0  0  0  0  0  0  0  0  0  0  0
  141.0080   76.8794  223.2810 H   0  0  0  0  0  0  0  0  0  0  0  0
  140.4333   77.6633  220.5034 H   0  0  0  0  0  0  0  0  0  0  0  0
  139.0807   78.0124  221.6160 H   0  0  0  0  0  0  0  0  0  0  0  0
  142.0027   77.7823  223.6030 H   0  0  0  0  0  0  0  0  0  0  0  0
  143.2453   79.7846  224.4750 H   0  0  0  0  0  0  0  0  0  0  0  0
  142.8390   82.0165  223.4765 H   0  0  0  0  0  0  0  0  0  0  0  0
  139.9763   80.3087  220.7368 H   0  0  0  0  0  0  0  0  0  0  0  0
  1  2  2  0
  2  3  1  0
  3  4  1  0
  4  5  1  0
  5  6  1  0
  6  7  1  0
  7  8  2  0
  8  9  1  0
  9 10  2  0
 10 11  1  0
 11 12  1  0
 11 13  2  0
  2 14  1  0
 14 15  1  0
 15 16  1  0
 16 17  1  0
 17 18  2  0
 18 19  1  0
 19 20  2  0
 20 21  1  0
 21 22  1  0
 21 23  2  0
 13  7  1  0
 23 17  1  0
  3 24  1  0
  3 25  1  0
  4 26  1  0
  4 27  1  0
  5 28  1  0
  5 29  1  0
  8 30  1  0
  9 31  1  0
 10 32  1  0
 13 33  1  0
 14 34  1  0
 15 35  1  0
 15 36  1  0
 16 37  1  0
 16 38  1  0
 18 39  1  0
 19 40  1  0
 20 41  1  0
 23 42  1  0
M  END
>  <smiles>  (12) 
O=C(CCCOc1cccc(Cl)c1)NCCc1cccc(Cl)c1

>  <score_type>  (12) 
oracle

>  <origin>  (12) 
autodockgpu

>  <m_score__min__energy>  (12) 
-7.7199999999999998

>  <m_primary>  (12) 
energy

>  <meeko>  (12) 
{"free_energy": -5.59, "intermolecular_energy": -7.98, "internal_energy": -2.32, "cluster_size": 1, "cluster_id": 5, "rank_in_cluster": 1}

>  <energy>  (12) 
-6.47

>  <cluster_rmsd>  (12) 
1.43

>  <rmsd>  (12) 
271.04

>  <cluster>  (12) 
1

$$$$

     RDKit          3D

 42 43  0  0  0  0  0  0  0  0999 V2000
  137.6180   71.2280  221.4930 O   0  0  0  0  0  0  0  0  0  0  0  0
  138.1040   72.2240  222.0880 C   0  0  0  0  0  0  0  0  0  0  0  0
  137.4420   73.5640  221.9620 C   0  0  0  0  0  0  0  0  0  0  0  0
  138.1850   74.4650  221.0170 C   0  0  0  0  0  0  0  0  0  0  0  0
  139.1790   75.2560  221.8660 C   0  0  0  0  0  0  0  0  0  0  0  0
  140.3800   74.4940  221.9700 O   0  0  0  0  0  0  0  0  0  0  0  0
  141.4550   74.8940  221.1840 C   0  0  0  0  0  0  0  0  0  0  0  0
  141.4510   76.1890  220.6970 C   0  0  0  0  0  0  0  0  0  0  0  0
  142.5150   76.6040  219.9110 C   0  0  0  0  0  0  0  0  0  0  0  0
  143.5760   75.7690  219.6000 C   0  0  0  0  0  0  0  0  0  0  0  0
  143.5770   74.4770  220.0870 C   0  0  0  0  0  0  0  0  0  0  0  0
  144.9100   73.3950  219.7090 Cl  0  0  0  0  0  0  0  0  0  0  0  0
  142.5120   74.0560  220.8750 C   0  0  0  0  0  0  0  0  0  0  0  0
  139.2710   72.1630  222.8970 N   0  0  0  0  0  0  0  0  0  0  0  0
  139.9690   70.9060  223.0700 C   0  0  0  0  0  0  0  0  0  0  0  0
  139.0950   69.8360  223.7100 C   0  0  0  0  0  0  0  0  0  0  0  0
  139.6250   69.5660  225.0920 C   0  0  0  0  0  0  0  0  0  0  0  0
  139.6680   68.2900  225.6140 C   0  0  0  0  0  0  0  0  0  0  0  0
  140.1750   68.1180  226.9050 C   0  0  0  0  0  0  0  0  0  0  0  0
  140.6160   69.2110  227.6240 C   0  0  0  0  0  0  0  0  0  0  0  0
  140.5580   70.4770  227.0700 C   0  0  0  0  0  0  0  0  0  0  0  0
  141.1120   71.8800  227.9630 Cl  0  0  0  0  0  0  0  0  0  0  0  0
  140.0620   70.6780  225.7940 C   0  0  0  0  0  0  0  0  0  0  0  0
  136.4176   73.4216  221.5873 H   0  0  0  0  0  0  0  0  0  0  0  0
  137.4367   74.0382  222.9545 H   0  0  0  0  0  0  0  0  0  0  0  0
  138.7193   73.8680  220.2632 H   0  0  0  0  0  0  0  0  0  0  0  0
  137.4967   75.1352  220.4812 H   0  0  0  0  0  0  0  0  0  0  0  0
  139.3916   76.2229  221.3866 H   0  0  0  0  0  0  0  0  0  0  0  0
  138.7602   75.4442  222.8656 H   0  0  0  0  0  0  0  0  0  0  0  0
  140.6221   76.8741  220.9283 H   0  0  0  0  0  0  0  0  0  0  0  0
  142.5169   77.6324  219.5205 H   0  0  0  0  0  0  0  0  0  0  0  0
  144.4055   76.1301  218.9742 H   0  0  0  0  0  0  0  0  0  0  0  0
  142.5094   73.0271  221.2641 H   0  0  0  0  0  0  0  0  0  0  0  0
  139.6320   73.0420  223.3750 H   0  0  0  0  0  0  0  0  0  0  0  0
  140.2998   70.5478  222.0840 H   0  0  0  0  0  0  0  0  0  0  0  0
  140.8210   71.0870  223.7418 H   0  0  0  0  0  0  0  0  0  0  0  0
  138.0557   70.1911  223.7718 H   0  0  0  0  0  0  0  0  0  0  0  0
  139.1152   68.9161  223.1072 H   0  0  0  0  0  0  0  0  0  0  0  0
  139.3121   67.4292  225.0288 H   0  0  0  0  0  0  0  0  0  0  0  0
  140.2227   67.1123  227.3480 H   0  0  0  0  0  0  0  0  0  0  0  0
  141.0145   69.0746  228.6401 H   0  0  0  0  0  0  0  0  0  0  0  0
  140.0162   71.6845  225.3526 H   0  0  0  0  0  0  0  0  0  0  0  0
  1  2  2  0
  2  3  1  0
  3  4  1  0
  4  5  1  0
  5  6  1  0
  6  7  1  0
  7  8  2  0
  8  9  1  0
  9 10  2  0
 10 11  1  0
 11 12  1  0
 11 13  2  0
  2 14  1  0
 14 15  1  0
 15 16  1  0
 16 17  1  0
 17 18  2  0
 18 19  1  0
 19 20  2  0
 20 21  1  0
 21 22  1  0
 21 23  2  0
 13  7  1  0
 23 17  1  0
  3 24  1  0
  3 25  1  0
  4 26  1  0
  4 27  1  0
  5 28  1  0
  5 29  1  0
  8 30  1  0
  9 31  1  0
 10 32  1  0
 13 33  1  0
 14 34  1  0
 15 35  1  0
 15 36  1  0
 16 37  1  0
 16 38  1  0
 18 39  1  0
 19 40  1  0
 20 41  1  0
 23 42  1  0
M  END
>  <smiles>  (13) 
O=C(CCCOc1cccc(Cl)c1)NCCc1cccc(Cl)c1

>  <score_type>  (13) 
oracle

>  <origin>  (13) 
autodockgpu

>  <m_score__min__energy>  (13) 
-7.7199999999999998

>  <m_primary>  (13) 
energy

>  <meeko>  (13) 
{"free_energy": -6.69, "intermolecular_energy": -9.08, "internal_energy": -1.54, "cluster_size": 1, "cluster_id": 4, "rank_in_cluster": 1}

>  <energy>  (13) 
-7.56

>  <cluster_rmsd>  (13) 
0.0

>  <rmsd>  (13) 
271.4

>  <cluster>  (13) 
2

$$$$

     RDKit          3D

 42 43  0  0  0  0  0  0  0  0999 V2000
  140.0760   70.7550  221.2500 O   0  0  0  0  0  0  0  0  0  0  0  0
  139.9460   71.8800  221.7990 C   0  0  0  0  0  0  0  0  0  0  0  0
  140.5410   73.0960  221.1560 C   0  0  0  0  0  0  0  0  0  0  0  0
  139.5420   74.2120  221.0450 C   0  0  0  0  0  0  0  0  0  0  0  0
  140.3460   75.5110  221.0070 C   0  0  0  0  0  0  0  0  0  0  0  0
  140.6520   75.8840  222.3490 O   0  0  0  0  0  0  0  0  0  0  0  0
  140.4370   77.2110  222.7040 C   0  0  0  0  0  0  0  0  0  0  0  0
  139.1330   77.6730  222.7090 C   0  0  0  0  0  0  0  0  0  0  0  0
  138.9010   78.9940  223.0600 C   0  0  0  0  0  0  0  0  0  0  0  0
  139.9260   79.8600  223.4040 C   0  0  0  0  0  0  0  0  0  0  0  0
  141.2260   79.3950  223.3970 C   0  0  0  0  0  0  0  0  0  0  0  0
  142.5470   80.4720  223.8280 Cl  0  0  0  0  0  0  0  0  0  0  0  0
  141.4650   78.0720  223.0460 C   0  0  0  0  0  0  0  0  0  0  0  0
  139.2520   72.0810  223.0230 N   0  0  0  0  0  0  0  0  0  0  0  0
  138.6490   70.9570  223.7080 C   0  0  0  0  0  0  0  0  0  0  0  0
  139.5940   69.7680  223.8260 C   0  0  0  0  0  0  0  0  0  0  0  0
  139.8700   69.5370  225.2870 C   0  0  0  0  0  0  0  0  0  0  0  0
  139.7130   68.2940  225.8650 C   0  0  0  0  0  0  0  0  0  0  0  0
  139.9900   68.1570  227.2290 C   0  0  0  0  0  0  0  0  0  0  0  0
  140.4080   69.2500  227.9600 C   0  0  0  0  0  0  0  0  0  0  0  0
  140.5540   70.4820  227.3480 C   0  0  0  0  0  0  0  0  0  0  0  0
  141.0840   71.8840  228.2580 Cl  0  0  0  0  0  0  0  0  0  0  0  0
  140.2890   70.6480  226.0010 C   0  0  0  0  0  0  0  0  0  0  0  0
  141.3925   73.4390  221.7621 H   0  0  0  0  0  0  0  0  0  0  0  0
  140.8639   72.8231  220.1405 H   0  0  0  0  0  0  0  0  0  0  0  0
  138.9515   74.1033  220.1233 H   0  0  0  0  0  0  0  0  0  0  0  0
  138.8397   74.2032  221.8916 H   0  0  0  0  0  0  0  0  0  0  0  0
  141.2769   75.3565  220.4418 H   0  0  0  0  0  0  0  0  0  0  0  0
  139.7640   76.3043  220.5150 H   0  0  0  0  0  0  0  0  0  0  0  0
  138.2993   77.0075  222.4406 H   0  0  0  0  0  0  0  0  0  0  0  0
  137.8664   79.3677  223.0655 H   0  0  0  0  0  0  0  0  0  0  0  0
  139.7075   80.9025  223.6786 H   0  0  0  0  0  0  0  0  0  0  0  0
  142.4997   77.6988  223.0398 H   0  0  0  0  0  0  0  0  0  0  0  0
  139.1770   73.0580  223.4360 H   0  0  0  0  0  0  0  0  0  0  0  0
  138.3564   71.2763  224.7191 H   0  0  0  0  0  0  0  0  0  0  0  0
  137.7791   70.6341  223.1171 H   0  0  0  0  0  0  0  0  0  0  0  0
  139.1256   68.8740  223.3886 H   0  0  0  0  0  0  0  0  0  0  0  0
  140.5315   69.9699  223.2871 H   0  0  0  0  0  0  0  0  0  0  0  0
  139.3785   67.4327  225.2682 H   0  0  0  0  0  0  0  0  0  0  0  0
  139.8747   67.1787  227.7186 H   0  0  0  0  0  0  0  0  0  0  0  0
  140.6258   69.1414  229.0327 H   0  0  0  0  0  0  0  0  0  0  0  0
  140.4067   71.6272  225.5138 H   0  0  0  0  0  0  0  0  0  0  0  0
  1  2  2  0
  2  3  1  0
  3  4  1  0
  4  5  1  0
  5  6  1  0
  6  7  1  0
  7  8  2  0
  8  9  1  0
  9 10  2  0
 10 11  1  0
 11 12  1  0
 11 13  2  0
  2 14  1  0
 14 15  1  0
 15 16  1  0
 16 17  1  0
 17 18  2  0
 18 19  1  0
 19 20  2  0
 20 21  1  0
 21 22  1  0
 21 23  2  0
 13  7  1  0
 23 17  1  0
  3 24  1  0
  3 25  1  0
  4 26  1  0
  4 27  1  0
  5 28  1  0
  5 29  1  0
  8 30  1  0
  9 31  1  0
 10 32  1  0
 13 33  1  0
 14 34  1  0
 15 35  1  0
 15 36  1  0
 16 37  1  0
 16 38  1  0
 18 39  1  0
 19 40  1  0
 20 41  1  0
 23 42  1  0
M  END
>  <smiles>  (14) 
O=C(CCCOc1cccc(Cl)c1)NCCc1cccc(Cl)c1

>  <score_type>  (14) 
oracle

>  <origin>  (14) 
autodockgpu

>  <m_score__min__energy>  (14) 
-7.7199999999999998

>  <m_primary>  (14) 
energy

>  <meeko>  (14) 
{"free_energy": -7.21, "intermolecular_energy": -9.59, "internal_energy": -0.64, "cluster_size": 12, "cluster_id": 1, "rank_in_cluster": 5}

>  <energy>  (14) 
-7.54

>  <cluster_rmsd>  (14) 
0.42

>  <rmsd>  (14) 
271.38

>  <cluster>  (14) 
2

$$$$

     RDKit          3D

 42 43  0  0  0  0  0  0  0  0999 V2000
  139.9620   74.2100  222.3480 O   0  0  0  0  0  0  0  0  0  0  0  0
  140.5830   73.2650  221.7950 C   0  0  0  0  0  0  0  0  0  0  0  0
  141.5520   73.5550  220.6890 C   0  0  0  0  0  0  0  0  0  0  0  0
  142.1710   74.9160  220.8350 C   0  0  0  0  0  0  0  0  0  0  0  0
  141.2430   75.8930  220.1160 C   0  0  0  0  0  0  0  0  0  0  0  0
  141.7770   77.2070  220.2670 O   0  0  0  0  0  0  0  0  0  0  0  0
  141.3610   77.9370  221.3740 C   0  0  0  0  0  0  0  0  0  0  0  0
  140.1110   77.6560  221.8990 C   0  0  0  0  0  0  0  0  0  0  0  0
  139.6810   78.3760  223.0030 C   0  0  0  0  0  0  0  0  0  0  0  0
  140.4560   79.3590  223.5950 C   0  0  0  0  0  0  0  0  0  0  0  0
  141.7030   79.6370  223.0680 C   0  0  0  0  0  0  0  0  0  0  0  0
  142.7080   80.8810  223.7980 Cl  0  0  0  0  0  0  0  0  0  0  0  0
  142.1390   78.9190  221.9610 C   0  0  0  0  0  0  0  0  0  0  0  0
  140.4230   71.9000  222.1600 N   0  0  0  0  0  0  0  0  0  0  0  0
  139.5060   71.5360  223.2200 C   0  0  0  0  0  0  0  0  0  0  0  0
  139.9040   70.2430  223.9200 C   0  0  0  0  0  0  0  0  0  0  0  0
  140.3200   70.5840  225.3250 C   0  0  0  0  0  0  0  0  0  0  0  0
  140.7220   71.8570  225.6730 C   0  0  0  0  0  0  0  0  0  0  0  0
  141.0930   72.0970  226.9990 C   0  0  0  0  0  0  0  0  0  0  0  0
  141.0520   71.0720  227.9220 C   0  0  0  0  0  0  0  0  0  0  0  0
  140.6440   69.8070  227.5400 C   0  0  0  0  0  0  0  0  0  0  0  0
  140.5830   68.4900  228.6960 Cl  0  0  0  0  0  0  0  0  0  0  0  0
  140.2700   69.5390  226.2350 C   0  0  0  0  0  0  0  0  0  0  0  0
  142.3492   72.7972  220.7057 H   0  0  0  0  0  0  0  0  0  0  0  0
  141.0028   73.5286  219.7363 H   0  0  0  0  0  0  0  0  0  0  0  0
  142.2543   75.1836  221.8987 H   0  0  0  0  0  0  0  0  0  0  0  0
  143.1839   74.9407  220.4068 H   0  0  0  0  0  0  0  0  0  0  0  0
  141.1853   75.6348  219.0483 H   0  0  0  0  0  0  0  0  0  0  0  0
  140.2313   75.8421  220.5448 H   0  0  0  0  0  0  0  0  0  0  0  0
  139.4739   76.8795  221.4506 H   0  0  0  0  0  0  0  0  0  0  0  0
  138.6883   78.1585  223.4239 H   0  0  0  0  0  0  0  0  0  0  0  0
  140.0847   79.9103  224.4715 H   0  0  0  0  0  0  0  0  0  0  0  0
  143.1312   79.1377  221.5393 H   0  0  0  0  0  0  0  0  0  0  0  0
  140.9780   71.1470  221.6540 H   0  0  0  0  0  0  0  0  0  0  0  0
  139.4861   72.3471  223.9628 H   0  0  0  0  0  0  0  0  0  0  0  0
  138.5168   71.3781  222.7654 H   0  0  0  0  0  0  0  0  0  0  0  0
  139.0488   69.5515  223.9413 H   0  0  0  0  0  0  0  0  0  0  0  0
  140.7324   69.7573  223.3834 H   0  0  0  0  0  0  0  0  0  0  0  0
  140.7499   72.6633  224.9253 H   0  0  0  0  0  0  0  0  0  0  0  0
  141.4174   73.1021  227.3066 H   0  0  0  0  0  0  0  0  0  0  0  0
  141.3448   71.2618  228.9652 H   0  0  0  0  0  0  0  0  0  0  0  0
  139.9448   68.5333  225.9305 H   0  0  0  0  0  0  0  0  0  0  0  0
  1  2  2  0
  2  3  1  0
  3  4  1  0
  4  5  1  0
  5  6  1  0
  6  7  1  0
  7  8  2  0
  8  9  1  0
  9 10  2  0
 10 11  1  0
 11 12  1  0
 11 13  2  0
  2 14  1  0
 14 15  1  0
 15 16  1  0
 16 17  1  0
 17 18  2  0
 18 19  1  0
 19 20  2  0
 20 21  1  0
 21 22  1  0
 21 23  2  0
 13  7  1  0
 23 17  1  0
  3 24  1  0
  3 25  1  0
  4 26  1  0
  4 27  1  0
  5 28  1  0
  5 29  1  0
  8 30  1  0
  9 31  1  0
 10 32  1  0
 13 33  1  0
 14 34  1  0
 15 35  1  0
 15 36  1  0
 16 37  1  0
 16 38  1  0
 18 39  1  0
 19 40  1  0
 20 41  1  0
 23 42  1  0
M  END
>  <smiles>  (15) 
O=C(CCCOc1cccc(Cl)c1)NCCc1cccc(Cl)c1

>  <score_type>  (15) 
oracle

>  <origin>  (15) 
autodockgpu

>  <m_score__min__energy>  (15) 
-7.7199999999999998

>  <m_primary>  (15) 
energy

>  <meeko>  (15) 
{"free_energy": -7.31, "intermolecular_energy": -9.7, "internal_energy": -0.83, "cluster_size": 12, "cluster_id": 1, "rank_in_cluster": 3}

>  <energy>  (15) 
-7.35

>  <cluster_rmsd>  (15) 
0.76

>  <rmsd>  (15) 
271.48

>  <cluster>  (15) 
2

$$$$

     RDKit          3D

 42 43  0  0  0  0  0  0  0  0999 V2000
  141.4330   74.1290  220.6640 O   0  0  0  0  0  0  0  0  0  0  0  0
  140.7060   73.5960  221.5430 C   0  0  0  0  0  0  0  0  0  0  0  0
  140.7990   72.1210  221.7940 C   0  0  0  0  0  0  0  0  0  0  0  0
  139.4500   71.4620  221.7440 C   0  0  0  0  0  0  0  0  0  0  0  0
  138.9300   71.4320  223.1800 C   0  0  0  0  0  0  0  0  0  0  0  0
  139.9430   71.9650  224.0310 O   0  0  0  0  0  0  0  0  0  0  0  0
  140.2620   71.2370  225.1720 C   0  0  0  0  0  0  0  0  0  0  0  0
  140.7420   71.9340  226.2670 C   0  0  0  0  0  0  0  0  0  0  0  0
  141.0650   71.2230  227.4120 C   0  0  0  0  0  0  0  0  0  0  0  0
  140.9230   69.8480  227.4960 C   0  0  0  0  0  0  0  0  0  0  0  0
  140.4430   69.1560  226.4010 C   0  0  0  0  0  0  0  0  0  0  0  0
  140.2530   67.4100  226.4780 Cl  0  0  0  0  0  0  0  0  0  0  0  0
  140.1180   69.8630  225.2500 C   0  0  0  0  0  0  0  0  0  0  0  0
  139.7760   74.3210  222.3380 N   0  0  0  0  0  0  0  0  0  0  0  0
  139.6270   75.7500  222.1570 C   0  0  0  0  0  0  0  0  0  0  0  0
  140.9630   76.4800  222.1400 C   0  0  0  0  0  0  0  0  0  0  0  0
  140.7510   77.8530  222.7180 C   0  0  0  0  0  0  0  0  0  0  0  0
  141.8100   78.6440  223.1130 C   0  0  0  0  0  0  0  0  0  0  0  0
  141.5340   79.9080  223.6410 C   0  0  0  0  0  0  0  0  0  0  0  0
  140.2260   80.3360  223.7560 C   0  0  0  0  0  0  0  0  0  0  0  0
  139.1880   79.5170  223.3500 C   0  0  0  0  0  0  0  0  0  0  0  0
  137.5200   80.0400  223.4870 Cl  0  0  0  0  0  0  0  0  0  0  0  0
  139.4300   78.2610  222.8240 C   0  0  0  0  0  0  0  0  0  0  0  0
  141.4450   71.6690  221.0269 H   0  0  0  0  0  0  0  0  0  0  0  0
  141.2167   71.9704  222.8004 H   0  0  0  0  0  0  0  0  0  0  0  0
  138.7675   72.0409  221.1044 H   0  0  0  0  0  0  0  0  0  0  0  0
  139.5175   70.4478  221.3235 H   0  0  0  0  0  0  0  0  0  0  0  0
  138.0181   72.0422  223.2588 H   0  0  0  0  0  0  0  0  0  0  0  0
  138.6888   70.4003  223.4757 H   0  0  0  0  0  0  0  0  0  0  0  0
  140.8643   73.0265  226.2295 H   0  0  0  0  0  0  0  0  0  0  0  0
  141.4480   71.7707  228.2857 H   0  0  0  0  0  0  0  0  0  0  0  0
  141.1885   69.3148  228.4208 H   0  0  0  0  0  0  0  0  0  0  0  0
  139.7355   69.3151  224.3762 H   0  0  0  0  0  0  0  0  0  0  0  0
  139.1910   73.8120  223.0650 H   0  0  0  0  0  0  0  0  0  0  0  0
  139.1135   75.9325  221.2015 H   0  0  0  0  0  0  0  0  0  0  0  0
  139.0474   76.1353  223.0088 H   0  0  0  0  0  0  0  0  0  0  0  0
  141.6970   75.9291  222.7464 H   0  0  0  0  0  0  0  0  0  0  0  0
  141.3447   76.5537  221.1110 H   0  0  0  0  0  0  0  0  0  0  0  0
  142.8463   78.2884  223.0147 H   0  0  0  0  0  0  0  0  0  0  0  0
  142.3576   80.5614  223.9647 H   0  0  0  0  0  0  0  0  0  0  0  0
  140.0091   81.3311  224.1717 H   0  0  0  0  0  0  0  0  0  0  0  0
  138.6045   77.6094  222.5015 H   0  0  0  0  0  0  0  0  0  0  0  0
  1  2  2  0
  2  3  1  0
  3  4  1  0
  4  5  1  0
  5  6  1  0
  6  7  1  0
  7  8  2  0
  8  9  1  0
  9 10  2  0
 10 11  1  0
 11 12  1  0
 11 13  2  0
  2 14  1  0
 14 15  1  0
 15 16  1  0
 16 17  1  0
 17 18  2  0
 18 19  1  0
 19 20  2  0
 20 21  1  0
 21 22  1  0
 21 23  2  0
 13  7  1  0
 23 17  1  0
  3 24  1  0
  3 25  1  0
  4 26  1  0
  4 27  1  0
  5 28  1  0
  5 29  1  0
  8 30  1  0
  9 31  1  0
 10 32  1  0
 13 33  1  0
 14 34  1  0
 15 35  1  0
 15 36  1  0
 16 37  1  0
 16 38  1  0
 18 39  1  0
 19 40  1  0
 20 41  1  0
 23 42  1  0
M  END
>  <smiles>  (16) 
O=C(CCCOc1cccc(Cl)c1)NCCc1cccc(Cl)c1

>  <score_type>  (16) 
oracle

>  <origin>  (16) 
autodockgpu

>  <m_score__min__energy>  (16) 
-7.7199999999999998

>  <m_primary>  (16) 
energy

>  <meeko>  (16) 
{"free_energy": -6.91, "intermolecular_energy": -9.3, "internal_energy": -1.34, "cluster_size": 12, "cluster_id": 1, "rank_in_cluster": 7}

>  <energy>  (16) 
-6.78

>  <cluster_rmsd>  (16) 
1.49

>  <rmsd>  (16) 
270.74

>  <cluster>  (16) 
2

$$$$

     RDKit          3D

 42 43  0  0  0  0  0  0  0  0999 V2000
  140.1390   71.7330  220.5450 O   0  0  0  0  0  0  0  0  0  0  0  0
  139.5850   72.6020  221.2670 C   0  0  0  0  0  0  0  0  0  0  0  0
  138.7730   73.6910  220.6330 C   0  0  0  0  0  0  0  0  0  0  0  0
  137.6890   74.1820  221.5500 C   0  0  0  0  0  0  0  0  0  0  0  0
  138.2200   75.4570  222.2030 C   0  0  0  0  0  0  0  0  0  0  0  0
  139.6330   75.3260  222.3490 O   0  0  0  0  0  0  0  0  0  0  0  0
  140.4150   76.4030  221.9470 C   0  0  0  0  0  0  0  0  0  0  0  0
  140.9890   76.3480  220.6890 C   0  0  0  0  0  0  0  0  0  0  0  0
  141.7720   77.4130  220.2720 C   0  0  0  0  0  0  0  0  0  0  0  0
  141.9970   78.5240  221.0690 C   0  0  0  0  0  0  0  0  0  0  0  0
  141.4230   78.5750  222.3250 C   0  0  0  0  0  0  0  0  0  0  0  0
  141.6910   79.9720  223.3580 Cl  0  0  0  0  0  0  0  0  0  0  0  0
  140.6370   77.5090  222.7470 C   0  0  0  0  0  0  0  0  0  0  0  0
  139.6810   72.6220  222.6860 N   0  0  0  0  0  0  0  0  0  0  0  0
  140.4480   71.6050  223.3750 C   0  0  0  0  0  0  0  0  0  0  0  0
  139.6490   70.3300  223.6120 C   0  0  0  0  0  0  0  0  0  0  0  0
  139.8320   69.9270  225.0500 C   0  0  0  0  0  0  0  0  0  0  0  0
  139.5590   68.6450  225.4820 C   0  0  0  0  0  0  0  0  0  0  0  0
  139.7550   68.3450  226.8330 C   0  0  0  0  0  0  0  0  0  0  0  0
  140.2100   69.3210  227.6970 C   0  0  0  0  0  0  0  0  0  0  0  0
  140.4740   70.5960  227.2300 C   0  0  0  0  0  0  0  0  0  0  0  0
  141.0520   71.8500  228.3090 Cl  0  0  0  0  0  0  0  0  0  0  0  0
  140.2900   70.9220  225.8980 C   0  0  0  0  0  0  0  0  0  0  0  0
  139.4371   74.5318  220.3839 H   0  0  0  0  0  0  0  0  0  0  0  0
  138.2981   73.2823  219.7289 H   0  0  0  0  0  0  0  0  0  0  0  0
  136.7759   74.4002  220.9768 H   0  0  0  0  0  0  0  0  0  0  0  0
  137.4326   73.4245  222.3053 H   0  0  0  0  0  0  0  0  0  0  0  0
  137.9899   76.3248  221.5675 H   0  0  0  0  0  0  0  0  0  0  0  0
  137.7481   75.6065  223.1853 H   0  0  0  0  0  0  0  0  0  0  0  0
  140.8275   75.4786  220.0347 H   0  0  0  0  0  0  0  0  0  0  0  0
  142.2310   77.3749  219.2731 H   0  0  0  0  0  0  0  0  0  0  0  0
  142.6231   79.3529  220.7073 H   0  0  0  0  0  0  0  0  0  0  0  0
  140.1783   77.5462  223.7461 H   0  0  0  0  0  0  0  0  0  0  0  0
  139.1890   73.3850  223.2400 H   0  0  0  0  0  0  0  0  0  0  0  0
  141.3323   71.3592  222.7687 H   0  0  0  0  0  0  0  0  0  0  0  0
  140.7304   72.0092  224.3583 H   0  0  0  0  0  0  0  0  0  0  0  0
  138.5837   70.5138  223.4085 H   0  0  0  0  0  0  0  0  0  0  0  0
  139.9992   69.5298  222.9434 H   0  0  0  0  0  0  0  0  0  0  0  0
  139.1964   67.8788  224.7809 H   0  0  0  0  0  0  0  0  0  0  0  0
  139.5469   67.3319  227.2076 H   0  0  0  0  0  0  0  0  0  0  0  0
  140.3631   69.0839  228.7602 H   0  0  0  0  0  0  0  0  0  0  0  0
  140.5000   71.9355  225.5256 H   0  0  0  0  0  0  0  0  0  0  0  0
  1  2  2  0
  2  3  1  0
  3  4  1  0
  4  5  1  0
  5  6  1  0
  6  7  1  0
  7  8  2  0
  8  9  1  0
  9 10  2  0
 10 11  1  0
 11 12  1  0
 11 13  2  0
  2 14  1  0
 14 15  1  0
 15 16  1  0
 16 17  1  0
 17 18  2  0
 18 19  1  0
 19 20  2  0
 20 21  1  0
 21 22  1  0
 21 23  2  0
 13  7  1  0
 23 17  1  0
  3 24  1  0
  3 25  1  0
  4 26  1  0
  4 27  1  0
  5 28  1  0
  5 29  1  0
  8 30  1  0
  9 31  1  0
 10 32  1  0
 13 33  1  0
 14 34  1  0
 15 35  1  0
 15 36  1  0
 16 37  1  0
 16 38  1  0
 18 39  1  0
 19 40  1  0
 20 41  1  0
 23 42  1  0
M  END
>  <smiles>  (17) 
O=C(CCCOc1cccc(Cl)c1)NCCc1cccc(Cl)c1

>  <score_type>  (17) 
oracle

>  <origin>  (17) 
autodockgpu

>  <m_score__min__energy>  (17) 
-7.7199999999999998

>  <m_primary>  (17) 
energy

>  <meeko>  (17) 
{"free_energy": -6.78, "intermolecular_energy": -9.17, "internal_energy": -1.43, "cluster_size": 4, "cluster_id": 2, "rank_in_cluster": 4}

>  <energy>  (17) 
-6.78

>  <cluster_rmsd>  (17) 
0.0

>  <rmsd>  (17) 
270.7

>  <cluster>  (17) 
3

$$$$

     RDKit          3D

 42 43  0  0  0  0  0  0  0  0999 V2000
  139.3270   72.2810  220.5950 O   0  0  0  0  0  0  0  0  0  0  0  0
  138.8390   72.8090  221.6280 C   0  0  0  0  0  0  0  0  0  0  0  0
  137.9910   71.9900  222.5540 C   0  0  0  0  0  0  0  0  0  0  0  0
  138.8240   71.1090  223.4400 C   0  0  0  0  0  0  0  0  0  0  0  0
  140.2700   71.5720  223.2730 C   0  0  0  0  0  0  0  0  0  0  0  0
  140.6860   72.1810  224.4930 O   0  0  0  0  0  0  0  0  0  0  0  0
  140.7820   71.3610  225.6120 C   0  0  0  0  0  0  0  0  0  0  0  0
  140.9780   71.9670  226.8400 C   0  0  0  0  0  0  0  0  0  0  0  0
  141.0770   71.1640  227.9660 C   0  0  0  0  0  0  0  0  0  0  0  0
  140.9840   69.7840  227.9010 C   0  0  0  0  0  0  0  0  0  0  0  0
  140.7890   69.1820  226.6730 C   0  0  0  0  0  0  0  0  0  0  0  0
  140.6680   67.4320  226.5610 Cl  0  0  0  0  0  0  0  0  0  0  0  0
  140.6900   69.9820  225.5410 C   0  0  0  0  0  0  0  0  0  0  0  0
  139.0450   74.1690  221.9880 N   0  0  0  0  0  0  0  0  0  0  0  0
  139.8530   75.0270  221.1460 C   0  0  0  0  0  0  0  0  0  0  0  0
  140.9720   75.7150  221.9160 C   0  0  0  0  0  0  0  0  0  0  0  0
  140.4550   77.0410  222.4050 C   0  0  0  0  0  0  0  0  0  0  0  0
  139.1050   77.2760  222.5660 C   0  0  0  0  0  0  0  0  0  0  0  0
  138.7000   78.5330  223.0240 C   0  0  0  0  0  0  0  0  0  0  0  0
  139.6440   79.5010  223.3030 C   0  0  0  0  0  0  0  0  0  0  0  0
  140.9900   79.2320  223.1300 C   0  0  0  0  0  0  0  0  0  0  0  0
  142.2050   80.4460  223.4780 Cl  0  0  0  0  0  0  0  0  0  0  0  0
  141.4200   77.9980  222.6780 C   0  0  0  0  0  0  0  0  0  0  0  0
  137.3953   72.6671  223.1838 H   0  0  0  0  0  0  0  0  0  0  0  0
  137.3421   71.3452  221.9432 H   0  0  0  0  0  0  0  0  0  0  0  0
  138.5088   71.2170  224.4883 H   0  0  0  0  0  0  0  0  0  0  0  0
  138.7110   70.0492  223.1679 H   0  0  0  0  0  0  0  0  0  0  0  0
  140.9140   70.7088  223.0491 H   0  0  0  0  0  0  0  0  0  0  0  0
  140.3456   72.2911  222.4440 H   0  0  0  0  0  0  0  0  0  0  0  0
  141.0536   73.0614  226.9213 H   0  0  0  0  0  0  0  0  0  0  0  0
  141.2349   71.6398  228.9451 H   0  0  0  0  0  0  0  0  0  0  0  0
  141.0642   69.1758  228.8140 H   0  0  0  0  0  0  0  0  0  0  0  0
  140.5342   69.5060  224.5616 H   0  0  0  0  0  0  0  0  0  0  0  0
  138.6050   74.5550  222.8760 H   0  0  0  0  0  0  0  0  0  0  0  0
  140.2985   74.4175  220.3460 H   0  0  0  0  0  0  0  0  0  0  0  0
  139.1963   75.8106  220.7402 H   0  0  0  0  0  0  0  0  0  0  0  0
  141.2728   75.0932  222.7721 H   0  0  0  0  0  0  0  0  0  0  0  0
  141.8473   75.8628  221.2664 H   0  0  0  0  0  0  0  0  0  0  0  0
  138.3657   76.4936  222.3395 H   0  0  0  0  0  0  0  0  0  0  0  0
  137.6306   78.7506  223.1620 H   0  0  0  0  0  0  0  0  0  0  0  0
  139.3248   80.4898  223.6641 H   0  0  0  0  0  0  0  0  0  0  0  0
  142.4900   77.7833  222.5399 H   0  0  0  0  0  0  0  0  0  0  0  0
  1  2  2  0
  2  3  1  0
  3  4  1  0
  4  5  1  0
  5  6  1  0
  6  7  1  0
  7  8  2  0
  8  9  1  0
  9 10  2  0
 10 11  1  0
 11 12  1  0
 11 13  2  0
  2 14  1  0
 14 15  1  0
 15 16  1  0
 16 17  1  0
 17 18  2  0
 18 19  1  0
 19 20  2  0
 20 21  1  0
 21 22  1  0
 21 23  2  0
 13  7  1  0
 23 17  1  0
  3 24  1  0
  3 25  1  0
  4 26  1  0
  4 27  1  0
  5 28  1  0
  5 29  1  0
  8 30  1  0
  9 31  1  0
 10 32  1  0
 13 33  1  0
 14 34  1  0
 15 35  1  0
 15 36  1  0
 16 37  1  0
 16 38  1  0
 18 39  1  0
 19 40  1  0
 20 41  1  0
 23 42  1  0
M  END
>  <smiles>  (18) 
O=C(CCCOc1cccc(Cl)c1)NCCc1cccc(Cl)c1

>  <score_type>  (18) 
oracle

>  <origin>  (18) 
autodockgpu

>  <m_score__min__energy>  (18) 
-7.7199999999999998

>  <m_primary>  (18) 
energy

>  <meeko>  (18) 
{"free_energy": -7.17, "intermolecular_energy": -9.56, "internal_energy": -0.77, "cluster_size": 12, "cluster_id": 1, "rank_in_cluster": 6}

>  <energy>  (18) 
-6.69

>  <cluster_rmsd>  (18) 
0.0

>  <rmsd>  (18) 
270.31

>  <cluster>  (18) 
4

$$$$

     RDKit          3D

 42 43  0  0  0  0  0  0  0  0999 V2000
  139.2910   74.3560  219.9110 O   0  0  0  0  0  0  0  0  0  0  0  0
  139.4370   73.7480  221.0030 C   0  0  0  0  0  0  0  0  0  0  0  0
  139.6100   72.2590  221.0100 C   0  0  0  0  0  0  0  0  0  0  0  0
  140.6880   71.8280  221.9630 C   0  0  0  0  0  0  0  0  0  0  0  0
  139.9820   71.3970  223.2480 C   0  0  0  0  0  0  0  0  0  0  0  0
  140.5210   72.1570  224.3280 O   0  0  0  0  0  0  0  0  0  0  0  0
  140.6910   71.5020  225.5420 C   0  0  0  0  0  0  0  0  0  0  0  0
  141.0230   72.2680  226.6460 C   0  0  0  0  0  0  0  0  0  0  0  0
  141.1970   71.6320  227.8650 C   0  0  0  0  0  0  0  0  0  0  0  0
  141.0480   70.2620  228.0130 C   0  0  0  0  0  0  0  0  0  0  0  0
  140.7160   69.5010  226.9100 C   0  0  0  0  0  0  0  0  0  0  0  0
  140.5220   67.7610  227.0680 Cl  0  0  0  0  0  0  0  0  0  0  0  0
  140.5420   70.1340  225.6850 C   0  0  0  0  0  0  0  0  0  0  0  0
  139.4500   74.3970  222.2680 N   0  0  0  0  0  0  0  0  0  0  0  0
  139.2890   75.8340  222.3470 C   0  0  0  0  0  0  0  0  0  0  0  0
  140.6060   76.5800  222.1770 C   0  0  0  0  0  0  0  0  0  0  0  0
  140.4260   77.9720  222.7210 C   0  0  0  0  0  0  0  0  0  0  0  0
  139.1740   78.5180  222.9130 C   0  0  0  0  0  0  0  0  0  0  0  0
  139.0870   79.8160  223.4230 C   0  0  0  0  0  0  0  0  0  0  0  0
  140.2380   80.5180  223.7200 C   0  0  0  0  0  0  0  0  0  0  0  0
  141.4780   79.9400  223.5160 C   0  0  0  0  0  0  0  0  0  0  0  0
  142.9520   80.8130  223.8870 Cl  0  0  0  0  0  0  0  0  0  0  0  0
  141.5950   78.6570  223.0130 C   0  0  0  0  0  0  0  0  0  0  0  0
  138.6608   71.7915  221.3108 H   0  0  0  0  0  0  0  0  0  0  0  0
  139.9021   71.9436  219.9975 H   0  0  0  0  0  0  0  0  0  0  0  0
  141.2552   70.9858  221.5399 H   0  0  0  0  0  0  0  0  0  0  0  0
  141.4004   72.6441  222.1542 H   0  0  0  0  0  0  0  0  0  0  0  0
  138.9020   71.5869  223.1614 H   0  0  0  0  0  0  0  0  0  0  0  0
  140.1365   70.3224  223.4248 H   0  0  0  0  0  0  0  0  0  0  0  0
  141.1460   73.3575  226.5578 H   0  0  0  0  0  0  0  0  0  0  0  0
  141.4626   72.2354  228.7456 H   0  0  0  0  0  0  0  0  0  0  0  0
  141.1922   69.7879  228.9951 H   0  0  0  0  0  0  0  0  0  0  0  0
  140.2784   69.5302  224.8041 H   0  0  0  0  0  0  0  0  0  0  0  0
  139.5780   73.8260  223.1560 H   0  0  0  0  0  0  0  0  0  0  0  0
  138.5970   76.1553  221.5546 H   0  0  0  0  0  0  0  0  0  0  0  0
  138.8977   76.0714  223.3473 H   0  0  0  0  0  0  0  0  0  0  0  0
  141.4024   76.0625  222.7319 H   0  0  0  0  0  0  0  0  0  0  0  0
  140.8888   76.6186  221.1147 H   0  0  0  0  0  0  0  0  0  0  0  0
  138.2664   77.9457  222.6706 H   0  0  0  0  0  0  0  0  0  0  0  0
  138.1024   80.2780  223.5877 H   0  0  0  0  0  0  0  0  0  0  0  0
  140.1688   81.5403  224.1202 H   0  0  0  0  0  0  0  0  0  0  0  0
  142.5807   78.1966  222.8505 H   0  0  0  0  0  0  0  0  0  0  0  0
  1  2  2  0
  2  3  1  0
  3  4  1  0
  4  5  1  0
  5  6  1  0
  6  7  1  0
  7  8  2  0
  8  9  1  0
  9 10  2  0
 10 11  1  0
 11 12  1  0
 11 13  2  0
  2 14  1  0
 14 15  1  0
 15 16  1  0
 16 17  1  0
 17 18  2  0
 18 19  1  0
 19 20  2  0
 20 21  1  0
 21 22  1  0
 21 23  2  0
 13  7  1  0
 23 17  1  0
  3 24  1  0
  3 25  1  0
  4 26  1  0
  4 27  1  0
  5 28  1  0
  5 29  1  0
  8 30  1  0
  9 31  1  0
 10 32  1  0
 13 33  1  0
 14 34  1  0
 15 35  1  0
 15 36  1  0
 16 37  1  0
 16 38  1  0
 18 39  1  0
 19 40  1  0
 20 41  1  0
 23 42  1  0
M  END
>  <smiles>  (19) 
O=C(CCCOc1cccc(Cl)c1)NCCc1cccc(Cl)c1

>  <score_type>  (19) 
oracle

>  <origin>  (19) 
autodockgpu

>  <m_score__min__energy>  (19) 
-7.7199999999999998

>  <m_primary>  (19) 
energy

>  <meeko>  (19) 
{"free_energy": -7.33, "intermolecular_energy": -9.71, "internal_energy": -1.26, "cluster_size": 12, "cluster_id": 1, "rank_in_cluster": 2}

>  <energy>  (19) 
-5.59

>  <cluster_rmsd>  (19) 
0.0

>  <rmsd>  (19) 
270.46

>  <cluster>  (19) 
5

$$$$

     RDKit          3D

 42 43  0  0  0  0  0  0  0  0999 V2000
  140.8450   73.4620  221.9700 O   0  0  0  0  0  0  0  0  0  0  0  0
  139.6380   73.3660  222.3140 C   0  0  0  0  0  0  0  0  0  0  0  0
  138.6730   74.4580  221.9600 C   0  0  0  0  0  0  0  0  0  0  0  0
  139.3630   75.6180  221.3000 C   0  0  0  0  0  0  0  0  0  0  0  0
  139.3940   76.7450  222.3310 C   0  0  0  0  0  0  0  0  0  0  0  0
  140.7500   76.9580  222.7170 O   0  0  0  0  0  0  0  0  0  0  0  0
  141.2150   78.2680  222.7060 C   0  0  0  0  0  0  0  0  0  0  0  0
  141.8210   78.7460  223.8550 C   0  0  0  0  0  0  0  0  0  0  0  0
  142.2910   80.0500  223.8610 C   0  0  0  0  0  0  0  0  0  0  0  0
  142.1750   80.8840  222.7620 C   0  0  0  0  0  0  0  0  0  0  0  0
  141.5700   80.4040  221.6160 C   0  0  0  0  0  0  0  0  0  0  0  0
  141.4080   81.4410  220.2060 Cl  0  0  0  0  0  0  0  0  0  0  0  0
  141.0970   79.0970  221.6050 C   0  0  0  0  0  0  0  0  0  0  0  0
  139.1120   72.2590  223.0340 N   0  0  0  0  0  0  0  0  0  0  0  0
  139.9790   71.1630  223.4130 C   0  0  0  0  0  0  0  0  0  0  0  0
  139.2030   69.9360  223.8740 C   0  0  0  0  0  0  0  0  0  0  0  0
  139.6130   69.6300  225.2890 C   0  0  0  0  0  0  0  0  0  0  0  0
  139.5380   68.3530  225.8050 C   0  0  0  0  0  0  0  0  0  0  0  0
  139.9380   68.1470  227.1280 C   0  0  0  0  0  0  0  0  0  0  0  0
  140.3920   69.2090  227.8840 C   0  0  0  0  0  0  0  0  0  0  0  0
  140.4540   70.4770  227.3360 C   0  0  0  0  0  0  0  0  0  0  0  0
  141.0280   71.8400  228.2770 Cl  0  0  0  0  0  0  0  0  0  0  0  0
  140.0660   70.7120  226.0290 C   0  0  0  0  0  0  0  0  0  0  0  0
  137.9158   74.0550  221.2713 H   0  0  0  0  0  0  0  0  0  0  0  0
  138.2086   74.8193  222.8894 H   0  0  0  0  0  0  0  0  0  0  0  0
  140.3869   75.3377  221.0119 H   0  0  0  0  0  0  0  0  0  0  0  0
  138.8354   75.9282  220.3860 H   0  0  0  0  0  0  0  0  0  0  0  0
  138.9835   77.6651  221.8895 H   0  0  0  0  0  0  0  0  0  0  0  0
  138.7871   76.4749  223.2078 H   0  0  0  0  0  0  0  0  0  0  0  0
  141.9272   78.1057  224.7431 H   0  0  0  0  0  0  0  0  0  0  0  0
  142.7733   80.4359  224.7712 H   0  0  0  0  0  0  0  0  0  0  0  0
  142.5590   81.9141  222.8005 H   0  0  0  0  0  0  0  0  0  0  0  0
  140.6151   78.7109  220.6947 H   0  0  0  0  0  0  0  0  0  0  0  0
  138.0810   72.2370  223.2950 H   0  0  0  0  0  0  0  0  0  0  0  0
  140.5953   70.8848  222.5454 H   0  0  0  0  0  0  0  0  0  0  0  0
  140.5973   71.5032  224.2568 H   0  0  0  0  0  0  0  0  0  0  0  0
  138.1230   70.1410  223.8345 H   0  0  0  0  0  0  0  0  0  0  0  0
  139.4203   69.0788  223.2197 H   0  0  0  0  0  0  0  0  0  0  0  0
  139.1723   67.5173  225.1902 H   0  0  0  0  0  0  0  0  0  0  0  0
  139.8911   67.1393  227.5667 H   0  0  0  0  0  0  0  0  0  0  0  0
  140.7055   69.0460  228.9257 H   0  0  0  0  0  0  0  0  0  0  0  0
  140.1150   71.7205  225.5925 H   0  0  0  0  0  0  0  0  0  0  0  0
  1  2  2  0
  2  3  1  0
  3  4  1  0
  4  5  1  0
  5  6  1  0
  6  7  1  0
  7  8  2  0
  8  9  1  0
  9 10  2  0
 10 11  1  0
 11 12  1  0
 11 13  2  0
  2 14  1  0
 14 15  1  0
 15 16  1  0
 16 17  1  0
 17 18  2  0
 18 19  1  0
 19 20  2  0
 20 21  1  0
 21 22  1  0
 21 23  2  0
 13  7  1  0
 23 17  1  0
  3 24  1  0
  3 25  1  0
  4 26  1  0
  4 27  1  0
  5 28  1  0
  5 29  1  0
  8 30  1  0
  9 31  1  0
 10 32  1  0
 13 33  1  0
 14 34  1  0
 15 35  1  0
 15 36  1  0
 16 37  1  0
 16 38  1  0
 18 39  1  0
 19 40  1  0
 20 41  1  0
 23 42  1  0
M  END
>  <smiles>  (20) 
O=C(CCCOc1cccc(Cl)c1)NCCc1cccc(Cl)c1

>  <score_type>  (20) 
oracle

>  <origin>  (20) 
autodockgpu

>  <m_score__min__energy>  (20) 
-7.7199999999999998

>  <m_primary>  (20) 
energy

>  <meeko>  (20) 
{"free_energy": -7.56, "intermolecular_energy": -9.94, "internal_energy": -0.62, "cluster_size": 4, "cluster_id": 2, "rank_in_cluster": 1}

>  <energy>  (20) 
-5.58

>  <cluster_rmsd>  (20) 
0.0

>  <rmsd>  (20) 
270.95

>  <cluster>  (20) 
6

$$$$
