
     RDKit          3D

 44 47  0  0  0  0  0  0  0  0999 V2000
  143.0090   76.6990  219.8440 O   0  0  0  0  0  0  0  0  0  0  0  0
  142.4600   75.6810  220.3320 C   0  0  0  0  0  0  0  0  0  0  0  0
  143.2110   74.5120  220.2920 C   0  0  0  0  0  0  0  0  0  0  0  0
  144.4900   74.5050  219.7350 C   0  0  0  0  0  0  0  0  0  0  0  0
  145.2170   73.3290  219.7060 C   0  0  0  0  0  0  0  0  0  0  0  0
  146.4870   73.3870  219.1370 O   0  0  0  0  0  0  0  0  0  0  0  0
  144.7220   72.1470  220.2120 C   0  0  0  0  0  0  0  0  0  0  0  0
  143.4480   72.1950  220.7560 C   0  0  0  0  0  0  0  0  0  0  0  0
  142.6970   73.3410  220.8030 C   0  0  0  0  0  0  0  0  0  0  0  0
  141.4640   73.3960  221.3280 N   0  0  0  0  0  0  0  0  0  0  0  0
  140.7510   74.5420  221.3580 C   0  0  0  0  0  0  0  0  0  0  0  0
  139.4370   74.4690  221.9800 C   0  0  0  0  0  0  0  0  0  0  0  0
  138.7110   73.3550  221.8150 C   0  0  0  0  0  0  0  0  0  0  0  0
  138.8630   72.2300  222.7560 C   0  0  0  0  0  0  0  0  0  0  0  0
  140.0130   72.0590  223.4960 C   0  0  0  0  0  0  0  0  0  0  0  0
  140.1310   70.9890  224.3760 C   0  0  0  0  0  0  0  0  0  0  0  0
  139.0880   70.0700  224.5260 C   0  0  0  0  0  0  0  0  0  0  0  0
  137.9710   70.3050  223.7540 C   0  0  0  0  0  0  0  0  0  0  0  0
  137.8750   71.3470  222.9070 N   0  0  0  0  0  0  0  0  0  0  0  0
  141.2100   75.7080  220.8710 N   0  0  0  0  0  0  0  0  0  0  0  0
  140.4610   76.9360  220.8620 C   0  0  0  0  0  0  0  0  0  0  0  0
  141.0590   78.0140  221.6900 C   0  0  0  0  0  0  0  0  0  0  0  0
  141.1040   77.8850  223.0840 C   0  0  0  0  0  0  0  0  0  0  0  0
  141.6530   78.8650  223.8870 C   0  0  0  0  0  0  0  0  0  0  0  0
  142.1850   80.0200  223.3590 C   0  0  0  0  0  0  0  0  0  0  0  0
  142.1490   80.1660  221.9900 C   0  0  0  0  0  0  0  0  0  0  0  0
  141.5940   79.1740  221.1840 C   0  0  0  0  0  0  0  0  0  0  0  0
  144.9179   75.4300  219.3211 H   0  0  0  0  0  0  0  0  0  0  0  0
  146.9570   74.2240  218.8530 H   0  0  0  0  0  0  0  0  0  0  0  0
  145.3063   71.2154  220.1857 H   0  0  0  0  0  0  0  0  0  0  0  0
  143.0194   71.2701  221.1694 H   0  0  0  0  0  0  0  0  0  0  0  0
  139.0484   75.3103  222.5727 H   0  0  0  0  0  0  0  0  0  0  0  0
  138.0017   73.2797  220.9776 H   0  0  0  0  0  0  0  0  0  0  0  0
  140.8426   72.7734  223.3898 H   0  0  0  0  0  0  0  0  0  0  0  0
  141.0546   70.8642  224.9603 H   0  0  0  0  0  0  0  0  0  0  0  0
  139.1547   69.2153  225.2152 H   0  0  0  0  0  0  0  0  0  0  0  0
  137.1211   69.6112  223.8332 H   0  0  0  0  0  0  0  0  0  0  0  0
  140.3951   77.2934  219.8238 H   0  0  0  0  0  0  0  0  0  0  0  0
  139.4755   76.7110  221.2957 H   0  0  0  0  0  0  0  0  0  0  0  0
  140.6910   76.9789  223.5515 H   0  0  0  0  0  0  0  0  0  0  0  0
  141.6657   78.7191  224.9772 H   0  0  0  0  0  0  0  0  0  0  0  0
  142.6216   80.7957  224.0053 H   0  0  0  0  0  0  0  0  0  0  0  0
  142.5625   81.0747  221.5282 H   0  0  0  0  0  0  0  0  0  0  0  0
  141.5837   79.3263  220.0946 H   0  0  0  0  0  0  0  0  0  0  0  0
  1  2  2  0
  2  3  1  0
  3  4  2  0
  4  5  1  0
  5  6  1  0
  5  7  2  0
  7  8  1  0
  8  9  2  0
  9 10  1  0
 10 11  2  0
 11 12  1  0
 12 13  2  0
 13 14  1  0
 14 15  2  0
 15 16  1  0
 16 17  2  0
 17 18  1  0
 18 19  2  0
 11 20  1  0
 20 21  1  0
 21 22  1  0
 22 23  2  0
 23 24  1  0
 24 25  2  0
 25 26  1  0
 26 27  2  0
 20  2  1  0
 27 22  1  0
  9  3  1  0
 19 14  1  0
  4 28  1  0
  6 29  1  0
  7 30  1  0
  8 31  1  0
 12 32  1  0
 13 33  1  0
 15 34  1  0
 16 35  1  0
 17 36  1  0
 18 37  1  0
 21 38  1  0
 21 39  1  0
 23 40  1  0
 24 41  1  0
 25 42  1  0
 26 43  1  0
 27 44  1  0
M  END
>  <smiles>  (1) 
O=c1c2cc(O)ccc2nc(/C=C/c2ccccn2)n1Cc1ccccc1

>  <score_type>  (1) 
oracle

>  <origin>  (1) 
autodockgpu

>  <m_score__min__energy>  (1) 
-7.9500000000000002

>  <m_primary>  (1) 
energy

>  <meeko>  (1) 
{"free_energy": -7.57, "intermolecular_energy": -9.36, "internal_energy": -1.1, "cluster_size": 19, "cluster_id": 1, "rank_in_cluster": 18}

>  <energy>  (1) 
-7.95

>  <cluster_rmsd>  (1) 
0.0

>  <rmsd>  (1) 
271.17

>  <cluster>  (1) 
1

$$$$

     RDKit          3D

 44 47  0  0  0  0  0  0  0  0999 V2000
  142.9730   76.5210  219.9850 O   0  0  0  0  0  0  0  0  0  0  0  0
  142.4550   75.4600  220.4120 C   0  0  0  0  0  0  0  0  0  0  0  0
  143.2560   74.3270  220.3410 C   0  0  0  0  0  0  0  0  0  0  0  0
  144.5490   74.3990  219.8200 C   0  0  0  0  0  0  0  0  0  0  0  0
  145.3260   73.2560  219.7590 C   0  0  0  0  0  0  0  0  0  0  0  0
  146.6070   73.3940  219.2300 O   0  0  0  0  0  0  0  0  0  0  0  0
  144.8700   72.0330  220.1980 C   0  0  0  0  0  0  0  0  0  0  0  0
  143.5800   72.0030  220.7070 C   0  0  0  0  0  0  0  0  0  0  0  0
  142.7800   73.1130  220.7840 C   0  0  0  0  0  0  0  0  0  0  0  0
  141.5320   73.0930  221.2760 N   0  0  0  0  0  0  0  0  0  0  0  0
  140.7700   74.2050  221.3370 C   0  0  0  0  0  0  0  0  0  0  0  0
  139.4440   74.0490  221.9170 C   0  0  0  0  0  0  0  0  0  0  0  0
  138.9070   72.8230  221.9660 C   0  0  0  0  0  0  0  0  0  0  0  0
  139.2510   71.9120  223.0740 C   0  0  0  0  0  0  0  0  0  0  0  0
  138.4740   70.8140  223.3730 C   0  0  0  0  0  0  0  0  0  0  0  0
  138.8210   69.9710  224.4230 C   0  0  0  0  0  0  0  0  0  0  0  0
  139.9610   70.2210  225.1920 C   0  0  0  0  0  0  0  0  0  0  0  0
  140.6880   71.3360  224.8350 C   0  0  0  0  0  0  0  0  0  0  0  0
  140.3360   72.1410  223.8150 N   0  0  0  0  0  0  0  0  0  0  0  0
  141.1910   75.4110  220.9160 N   0  0  0  0  0  0  0  0  0  0  0  0
  140.3920   76.6050  220.9410 C   0  0  0  0  0  0  0  0  0  0  0  0
  141.0040   77.7270  221.6970 C   0  0  0  0  0  0  0  0  0  0  0  0
  141.1240   77.6520  223.0900 C   0  0  0  0  0  0  0  0  0  0  0  0
  141.6890   78.6740  223.8280 C   0  0  0  0  0  0  0  0  0  0  0  0
  142.1640   79.8200  223.2300 C   0  0  0  0  0  0  0  0  0  0  0  0
  142.0540   79.9130  221.8610 C   0  0  0  0  0  0  0  0  0  0  0  0
  141.4830   78.8790  221.1220 C   0  0  0  0  0  0  0  0  0  0  0  0
  144.9478   75.3589  219.4601 H   0  0  0  0  0  0  0  0  0  0  0  0
  147.0480   74.2610  218.9960 H   0  0  0  0  0  0  0  0  0  0  0  0
  145.4948   71.1290  220.1477 H   0  0  0  0  0  0  0  0  0  0  0  0
  143.1803   71.0430  221.0657 H   0  0  0  0  0  0  0  0  0  0  0  0
  138.8950   74.9190  222.3065 H   0  0  0  0  0  0  0  0  0  0  0  0
  138.2099   72.4957  221.1806 H   0  0  0  0  0  0  0  0  0  0  0  0
  137.5736   70.6030  222.7774 H   0  0  0  0  0  0  0  0  0  0  0  0
  138.1916   69.0981  224.6508 H   0  0  0  0  0  0  0  0  0  0  0  0
  140.2585   69.5703  226.0275 H   0  0  0  0  0  0  0  0  0  0  0  0
  141.5950   71.5787  225.4082 H   0  0  0  0  0  0  0  0  0  0  0  0
  140.2303   76.9345  219.9040 H   0  0  0  0  0  0  0  0  0  0  0  0
  139.4543   76.3490  221.4559 H   0  0  0  0  0  0  0  0  0  0  0  0
  140.7584   76.7548  223.6109 H   0  0  0  0  0  0  0  0  0  0  0  0
  141.7613   78.5698  224.9207 H   0  0  0  0  0  0  0  0  0  0  0  0
  142.6139   80.6297  223.8233 H   0  0  0  0  0  0  0  0  0  0  0  0
  142.4206   80.8128  221.3452 H   0  0  0  0  0  0  0  0  0  0  0  0
  141.4126   78.9900  220.0299 H   0  0  0  0  0  0  0  0  0  0  0  0
  1  2  2  0
  2  3  1  0
  3  4  2  0
  4  5  1  0
  5  6  1  0
  5  7  2  0
  7  8  1  0
  8  9  2  0
  9 10  1  0
 10 11  2  0
 11 12  1  0
 12 13  2  0
 13 14  1  0
 14 15  2  0
 15 16  1  0
 16 17  2  0
 17 18  1  0
 18 19  2  0
 11 20  1  0
 20 21  1  0
 21 22  1  0
 22 23  2  0
 23 24  1  0
 24 25  2  0
 25 26  1  0
 26 27  2  0
 20  2  1  0
 27 22  1  0
  9  3  1  0
 19 14  1  0
  4 28  1  0
  6 29  1  0
  7 30  1  0
  8 31  1  0
 12 32  1  0
 13 33  1  0
 15 34  1  0
 16 35  1  0
 17 36  1  0
 18 37  1  0
 21 38  1  0
 21 39  1  0
 23 40  1  0
 24 41  1  0
 25 42  1  0
 26 43  1  0
 27 44  1  0
M  END
>  <smiles>  (2) 
O=c1c2cc(O)ccc2nc(/C=C/c2ccccn2)n1Cc1ccccc1

>  <score_type>  (2) 
oracle

>  <origin>  (2) 
autodockgpu

>  <m_score__min__energy>  (2) 
-7.9500000000000002

>  <m_primary>  (2) 
energy

>  <meeko>  (2) 
{"free_energy": -7.88, "intermolecular_energy": -9.67, "internal_energy": -1.12, "cluster_size": 19, "cluster_id": 1, "rank_in_cluster": 5}

>  <energy>  (2) 
-7.89

>  <cluster_rmsd>  (2) 
0.17

>  <rmsd>  (2) 
271.15

>  <cluster>  (2) 
1

$$$$

     RDKit          3D

 44 47  0  0  0  0  0  0  0  0999 V2000
  142.9690   76.4430  219.9050 O   0  0  0  0  0  0  0  0  0  0  0  0
  142.4870   75.3770  220.3630 C   0  0  0  0  0  0  0  0  0  0  0  0
  143.3150   74.2630  220.2940 C   0  0  0  0  0  0  0  0  0  0  0  0
  144.5930   74.3570  219.7420 C   0  0  0  0  0  0  0  0  0  0  0  0
  145.3980   73.2340  219.6840 C   0  0  0  0  0  0  0  0  0  0  0  0
  146.6620   73.3920  219.1230 O   0  0  0  0  0  0  0  0  0  0  0  0
  144.9820   72.0080  220.1560 C   0  0  0  0  0  0  0  0  0  0  0  0
  143.7060   71.9550  220.6950 C   0  0  0  0  0  0  0  0  0  0  0  0
  142.8800   73.0460  220.7700 C   0  0  0  0  0  0  0  0  0  0  0  0
  141.6450   73.0040  221.2910 N   0  0  0  0  0  0  0  0  0  0  0  0
  140.8560   74.0990  221.3500 C   0  0  0  0  0  0  0  0  0  0  0  0
  139.5480   73.9210  221.9630 C   0  0  0  0  0  0  0  0  0  0  0  0
  138.9940   72.7020  221.9470 C   0  0  0  0  0  0  0  0  0  0  0  0
  139.2250   71.7720  223.0690 C   0  0  0  0  0  0  0  0  0  0  0  0
  140.3660   71.8390  223.8380 C   0  0  0  0  0  0  0  0  0  0  0  0
  140.5590   70.9490  224.8890 C   0  0  0  0  0  0  0  0  0  0  0  0
  139.6030   69.9740  225.1850 C   0  0  0  0  0  0  0  0  0  0  0  0
  138.4880   69.9670  224.3730 C   0  0  0  0  0  0  0  0  0  0  0  0
  138.3190   70.8360  223.3590 N   0  0  0  0  0  0  0  0  0  0  0  0
  141.2370   75.3060  220.8970 N   0  0  0  0  0  0  0  0  0  0  0  0
  140.4080   76.4810  220.9190 C   0  0  0  0  0  0  0  0  0  0  0  0
  140.9760   77.6080  221.7010 C   0  0  0  0  0  0  0  0  0  0  0  0
  141.4520   78.7490  221.0430 C   0  0  0  0  0  0  0  0  0  0  0  0
  141.9860   79.8180  221.7360 C   0  0  0  0  0  0  0  0  0  0  0  0
  142.0770   79.8170  223.1100 C   0  0  0  0  0  0  0  0  0  0  0  0
  141.6150   78.7030  223.7740 C   0  0  0  0  0  0  0  0  0  0  0  0
  141.0780   77.6270  223.0710 C   0  0  0  0  0  0  0  0  0  0  0  0
  144.9584   75.3196  219.3549 H   0  0  0  0  0  0  0  0  0  0  0  0
  147.0910   74.2690  218.8990 H   0  0  0  0  0  0  0  0  0  0  0  0
  145.6279   71.1190  220.1076 H   0  0  0  0  0  0  0  0  0  0  0  0
  143.3393   70.9923  221.0806 H   0  0  0  0  0  0  0  0  0  0  0  0
  139.0258   74.7695  222.4293 H   0  0  0  0  0  0  0  0  0  0  0  0
  138.3667   72.3940  221.0975 H   0  0  0  0  0  0  0  0  0  0  0  0
  141.1288   72.6008  223.6195 H   0  0  0  0  0  0  0  0  0  0  0  0
  141.4751   71.0134  225.4945 H   0  0  0  0  0  0  0  0  0  0  0  0
  139.7311   69.2591  226.0111 H   0  0  0  0  0  0  0  0  0  0  0  0
  137.7035   69.2195  224.5621 H   0  0  0  0  0  0  0  0  0  0  0  0
  140.2603   76.8192  219.8828 H   0  0  0  0  0  0  0  0  0  0  0  0
  139.4662   76.1961  221.4108 H   0  0  0  0  0  0  0  0  0  0  0  0
  141.3992   78.7951  219.9452 H   0  0  0  0  0  0  0  0  0  0  0  0
  142.3479   80.6927  221.1757 H   0  0  0  0  0  0  0  0  0  0  0  0
  142.5020   80.6725  223.6555 H   0  0  0  0  0  0  0  0  0  0  0  0
  141.6705   78.6622  224.8718 H   0  0  0  0  0  0  0  0  0  0  0  0
  140.7200   76.7546  223.6373 H   0  0  0  0  0  0  0  0  0  0  0  0
  1  2  2  0
  2  3  1  0
  3  4  2  0
  4  5  1  0
  5  6  1  0
  5  7  2  0
  7  8  1  0
  8  9  2  0
  9 10  1  0
 10 11  2  0
 11 12  1  0
 12 13  2  0
 13 14  1  0
 14 15  2  0
 15 16  1  0
 16 17  2  0
 17 18  1  0
 18 19  2  0
 11 20  1  0
 20 21  1  0
 21 22  1  0
 22 23  2  0
 23 24  1  0
 24 25  2  0
 25 26  1  0
 26 27  2  0
 20  2  1  0
 27 22  1  0
  9  3  1  0
 19 14  1  0
  4 28  1  0
  6 29  1  0
  7 30  1  0
  8 31  1  0
 12 32  1  0
 13 33  1  0
 15 34  1  0
 16 35  1  0
 17 36  1  0
 18 37  1  0
 21 38  1  0
 21 39  1  0
 23 40  1  0
 24 41  1  0
 25 42  1  0
 26 43  1  0
 27 44  1  0
M  END
>  <smiles>  (3) 
O=c1c2cc(O)ccc2nc(/C=C/c2ccccn2)n1Cc1ccccc1

>  <score_type>  (3) 
oracle

>  <origin>  (3) 
autodockgpu

>  <m_score__min__energy>  (3) 
-7.9500000000000002

>  <m_primary>  (3) 
energy

>  <meeko>  (3) 
{"free_energy": -7.79, "intermolecular_energy": -9.58, "internal_energy": -1.1, "cluster_size": 19, "cluster_id": 1, "rank_in_cluster": 10}

>  <energy>  (3) 
-7.89

>  <cluster_rmsd>  (3) 
0.67

>  <rmsd>  (3) 
271.1

>  <cluster>  (3) 
1

$$$$

     RDKit          3D

 44 47  0  0  0  0  0  0  0  0999 V2000
  143.2410   76.8720  219.5980 O   0  0  0  0  0  0  0  0  0  0  0  0
  142.6040   75.9450  220.1550 C   0  0  0  0  0  0  0  0  0  0  0  0
  143.2170   74.6970  220.1370 C   0  0  0  0  0  0  0  0  0  0  0  0
  144.4600   74.5220  219.5270 C   0  0  0  0  0  0  0  0  0  0  0  0
  145.0480   73.2700  219.5220 C   0  0  0  0  0  0  0  0  0  0  0  0
  146.2890   73.1600  218.8980 O   0  0  0  0  0  0  0  0  0  0  0  0
  144.4480   72.1740  220.1020 C   0  0  0  0  0  0  0  0  0  0  0  0
  143.2140   72.3890  220.6960 C   0  0  0  0  0  0  0  0  0  0  0  0
  142.6000   73.6130  220.7220 C   0  0  0  0  0  0  0  0  0  0  0  0
  141.4060   73.8300  221.2950 N   0  0  0  0  0  0  0  0  0  0  0  0
  140.8280   75.0500  221.3030 C   0  0  0  0  0  0  0  0  0  0  0  0
  139.5450   75.1530  221.9810 C   0  0  0  0  0  0  0  0  0  0  0  0
  138.6520   74.1680  221.8170 C   0  0  0  0  0  0  0  0  0  0  0  0
  138.9320   72.8220  222.3540 C   0  0  0  0  0  0  0  0  0  0  0  0
  138.1530   71.7360  222.0210 C   0  0  0  0  0  0  0  0  0  0  0  0
  138.4390   70.4790  222.5420 C   0  0  0  0  0  0  0  0  0  0  0  0
  139.5190   70.2940  223.4100 C   0  0  0  0  0  0  0  0  0  0  0  0
  140.2530   71.4260  223.6970 C   0  0  0  0  0  0  0  0  0  0  0  0
  139.9600   72.6350  223.1830 N   0  0  0  0  0  0  0  0  0  0  0  0
  141.3920   76.1360  220.7440 N   0  0  0  0  0  0  0  0  0  0  0  0
  140.7860   77.4400  220.7110 C   0  0  0  0  0  0  0  0  0  0  0  0
  141.3040   78.3740  221.7430 C   0  0  0  0  0  0  0  0  0  0  0  0
  141.8270   79.6170  221.3640 C   0  0  0  0  0  0  0  0  0  0  0  0
  142.3160   80.5130  222.2950 C   0  0  0  0  0  0  0  0  0  0  0  0
  142.3140   80.2310  223.6420 C   0  0  0  0  0  0  0  0  0  0  0  0
  141.8050   79.0130  224.0340 C   0  0  0  0  0  0  0  0  0  0  0  0
  141.3130   78.1120  223.0910 C   0  0  0  0  0  0  0  0  0  0  0  0
  144.9689   75.3744  219.0532 H   0  0  0  0  0  0  0  0  0  0  0  0
  146.8060   73.9180  218.5000 H   0  0  0  0  0  0  0  0  0  0  0  0
  144.9225   71.1816  220.0942 H   0  0  0  0  0  0  0  0  0  0  0  0
  142.7041   71.5366  221.1686 H   0  0  0  0  0  0  0  0  0  0  0  0
  139.3130   76.0215  222.6150 H   0  0  0  0  0  0  0  0  0  0  0  0
  137.7105   74.3622  221.2824 H   0  0  0  0  0  0  0  0  0  0  0  0
  137.2996   71.8639  221.3388 H   0  0  0  0  0  0  0  0  0  0  0  0
  137.8083   69.6204  222.2681 H   0  0  0  0  0  0  0  0  0  0  0  0
  139.7671   69.3107  223.8360 H   0  0  0  0  0  0  0  0  0  0  0  0
  141.1147   71.3369  224.3749 H   0  0  0  0  0  0  0  0  0  0  0  0
  140.9705   77.8820  219.7208 H   0  0  0  0  0  0  0  0  0  0  0  0
  139.7152   77.2983  220.9192 H   0  0  0  0  0  0  0  0  0  0  0  0
  141.8489   79.8866  220.2978 H   0  0  0  0  0  0  0  0  0  0  0  0
  142.7176   81.4774  221.9505 H   0  0  0  0  0  0  0  0  0  0  0  0
  142.7038   80.9506  224.3770 H   0  0  0  0  0  0  0  0  0  0  0  0
  141.7865   78.7485  225.1016 H   0  0  0  0  0  0  0  0  0  0  0  0
  140.9144   77.1487  223.4421 H   0  0  0  0  0  0  0  0  0  0  0  0
  1  2  2  0
  2  3  1  0
  3  4  2  0
  4  5  1  0
  5  6  1  0
  5  7  2  0
  7  8  1  0
  8  9  2  0
  9 10  1  0
 10 11  2  0
 11 12  1  0
 12 13  2  0
 13 14  1  0
 14 15  2  0
 15 16  1  0
 16 17  2  0
 17 18  1  0
 18 19  2  0
 11 20  1  0
 20 21  1  0
 21 22  1  0
 22 23  2  0
 23 24  1  0
 24 25  2  0
 25 26  1  0
 26 27  2  0
 20  2  1  0
 27 22  1  0
  9  3  1  0
 19 14  1  0
  4 28  1  0
  6 29  1  0
  7 30  1  0
  8 31  1  0
 12 32  1  0
 13 33  1  0
 15 34  1  0
 16 35  1  0
 17 36  1  0
 18 37  1  0
 21 38  1  0
 21 39  1  0
 23 40  1  0
 24 41  1  0
 25 42  1  0
 26 43  1  0
 27 44  1  0
M  END
>  <smiles>  (4) 
O=c1c2cc(O)ccc2nc(/C=C/c2ccccn2)n1Cc1ccccc1

>  <score_type>  (4) 
oracle

>  <origin>  (4) 
autodockgpu

>  <m_score__min__energy>  (4) 
-7.9500000000000002

>  <m_primary>  (4) 
energy

>  <meeko>  (4) 
{"free_energy": -7.65, "intermolecular_energy": -9.44, "internal_energy": -1.11, "cluster_size": 19, "cluster_id": 1, "rank_in_cluster": 15}

>  <energy>  (4) 
-7.88

>  <cluster_rmsd>  (4) 
0.68

>  <rmsd>  (4) 
271.11

>  <cluster>  (4) 
1

$$$$

     RDKit          3D

 44 47  0  0  0  0  0  0  0  0999 V2000
  142.9860   76.5110  220.0000 O   0  0  0  0  0  0  0  0  0  0  0  0
  142.4700   75.4480  220.4260 C   0  0  0  0  0  0  0  0  0  0  0  0
  143.2760   74.3170  220.3560 C   0  0  0  0  0  0  0  0  0  0  0  0
  144.5690   74.3930  219.8380 C   0  0  0  0  0  0  0  0  0  0  0  0
  145.3510   73.2540  219.7800 C   0  0  0  0  0  0  0  0  0  0  0  0
  146.6320   73.3950  219.2530 O   0  0  0  0  0  0  0  0  0  0  0  0
  144.8970   72.0280  220.2170 C   0  0  0  0  0  0  0  0  0  0  0  0
  143.6070   71.9940  220.7240 C   0  0  0  0  0  0  0  0  0  0  0  0
  142.8030   73.1010  220.7990 C   0  0  0  0  0  0  0  0  0  0  0  0
  141.5540   73.0770  221.2880 N   0  0  0  0  0  0  0  0  0  0  0  0
  140.7880   74.1870  221.3470 C   0  0  0  0  0  0  0  0  0  0  0  0
  139.4610   74.0270  221.9240 C   0  0  0  0  0  0  0  0  0  0  0  0
  138.9300   72.7980  221.9780 C   0  0  0  0  0  0  0  0  0  0  0  0
  139.2690   71.8970  223.0950 C   0  0  0  0  0  0  0  0  0  0  0  0
  138.4850   70.8080  223.4070 C   0  0  0  0  0  0  0  0  0  0  0  0
  138.8280   69.9740  224.4650 C   0  0  0  0  0  0  0  0  0  0  0  0
  139.9700   70.2240  225.2310 C   0  0  0  0  0  0  0  0  0  0  0  0
  140.7050   71.3300  224.8600 C   0  0  0  0  0  0  0  0  0  0  0  0
  140.3570   72.1260  223.8320 N   0  0  0  0  0  0  0  0  0  0  0  0
  141.2060   75.3940  220.9270 N   0  0  0  0  0  0  0  0  0  0  0  0
  140.4020   76.5860  220.9500 C   0  0  0  0  0  0  0  0  0  0  0  0
  141.0140   77.7140  221.6970 C   0  0  0  0  0  0  0  0  0  0  0  0
  141.1410   77.6470  223.0900 C   0  0  0  0  0  0  0  0  0  0  0  0
  141.7070   78.6740  223.8190 C   0  0  0  0  0  0  0  0  0  0  0  0
  142.1760   79.8180  223.2130 C   0  0  0  0  0  0  0  0  0  0  0  0
  142.0590   79.9040  221.8440 C   0  0  0  0  0  0  0  0  0  0  0  0
  141.4880   78.8640  221.1130 C   0  0  0  0  0  0  0  0  0  0  0  0
  144.9645   75.3541  219.4775 H   0  0  0  0  0  0  0  0  0  0  0  0
  147.0730   74.2640  219.0250 H   0  0  0  0  0  0  0  0  0  0  0  0
  145.5241   71.1257  220.1662 H   0  0  0  0  0  0  0  0  0  0  0  0
  143.2102   71.0329  221.0830 H   0  0  0  0  0  0  0  0  0  0  0  0
  138.9063   74.8962  222.3073 H   0  0  0  0  0  0  0  0  0  0  0  0
  138.2413   72.4612  221.1892 H   0  0  0  0  0  0  0  0  0  0  0  0
  137.5820   70.5971  222.8153 H   0  0  0  0  0  0  0  0  0  0  0  0
  138.1933   69.1074  224.7020 H   0  0  0  0  0  0  0  0  0  0  0  0
  140.2630   69.5810  226.0740 H   0  0  0  0  0  0  0  0  0  0  0  0
  141.6149   71.5722  225.4286 H   0  0  0  0  0  0  0  0  0  0  0  0
  140.2336   76.9095  219.9122 H   0  0  0  0  0  0  0  0  0  0  0  0
  139.4678   76.3293  221.4710 H   0  0  0  0  0  0  0  0  0  0  0  0
  140.7801   76.7519  223.6178 H   0  0  0  0  0  0  0  0  0  0  0  0
  141.7852   78.5757  224.9118 H   0  0  0  0  0  0  0  0  0  0  0  0
  142.6267   80.6318  223.8001 H   0  0  0  0  0  0  0  0  0  0  0  0
  142.4198   80.8025  221.3220 H   0  0  0  0  0  0  0  0  0  0  0  0
  141.4135   78.9682  220.0205 H   0  0  0  0  0  0  0  0  0  0  0  0
  1  2  2  0
  2  3  1  0
  3  4  2  0
  4  5  1  0
  5  6  1  0
  5  7  2  0
  7  8  1  0
  8  9  2  0
  9 10  1  0
 10 11  2  0
 11 12  1  0
 12 13  2  0
 13 14  1  0
 14 15  2  0
 15 16  1  0
 16 17  2  0
 17 18  1  0
 18 19  2  0
 11 20  1  0
 20 21  1  0
 21 22  1  0
 22 23  2  0
 23 24  1  0
 24 25  2  0
 25 26  1  0
 26 27  2  0
 20  2  1  0
 27 22  1  0
  9  3  1  0
 19 14  1  0
  4 28  1  0
  6 29  1  0
  7 30  1  0
  8 31  1  0
 12 32  1  0
 13 33  1  0
 15 34  1  0
 16 35  1  0
 17 36  1  0
 18 37  1  0
 21 38  1  0
 21 39  1  0
 23 40  1  0
 24 41  1  0
 25 42  1  0
 26 43  1  0
 27 44  1  0
M  END
>  <smiles>  (5) 
O=c1c2cc(O)ccc2nc(/C=C/c2ccccn2)n1Cc1ccccc1

>  <score_type>  (5) 
oracle

>  <origin>  (5) 
autodockgpu

>  <m_score__min__energy>  (5) 
-7.9500000000000002

>  <m_primary>  (5) 
energy

>  <meeko>  (5) 
{"free_energy": -7.88, "intermolecular_energy": -9.67, "internal_energy": -1.12, "cluster_size": 19, "cluster_id": 1, "rank_in_cluster": 4}

>  <energy>  (5) 
-7.88

>  <cluster_rmsd>  (5) 
0.69

>  <rmsd>  (5) 
271.1

>  <cluster>  (5) 
1

$$$$

     RDKit          3D

 44 47  0  0  0  0  0  0  0  0999 V2000
  143.0470   76.5890  219.9040 O   0  0  0  0  0  0  0  0  0  0  0  0
  142.5110   75.5530  220.3700 C   0  0  0  0  0  0  0  0  0  0  0  0
  143.2870   74.4000  220.3220 C   0  0  0  0  0  0  0  0  0  0  0  0
  144.5730   74.4270  219.7810 C   0  0  0  0  0  0  0  0  0  0  0  0
  145.3240   73.2660  219.7440 C   0  0  0  0  0  0  0  0  0  0  0  0
  146.5990   73.3580  219.1930 O   0  0  0  0  0  0  0  0  0  0  0  0
  144.8470   72.0670  220.2270 C   0  0  0  0  0  0  0  0  0  0  0  0
  143.5650   72.0810  220.7550 C   0  0  0  0  0  0  0  0  0  0  0  0
  142.7900   73.2110  220.8090 C   0  0  0  0  0  0  0  0  0  0  0  0
  141.5500   73.2340  221.3190 N   0  0  0  0  0  0  0  0  0  0  0  0
  140.8130   74.3650  221.3570 C   0  0  0  0  0  0  0  0  0  0  0  0
  139.4930   74.2560  221.9600 C   0  0  0  0  0  0  0  0  0  0  0  0
  138.8920   73.0590  221.9750 C   0  0  0  0  0  0  0  0  0  0  0  0
  139.2130   72.0860  223.0370 C   0  0  0  0  0  0  0  0  0  0  0  0
  138.3660   71.0430  223.3390 C   0  0  0  0  0  0  0  0  0  0  0  0
  138.6920   70.1400  224.3450 C   0  0  0  0  0  0  0  0  0  0  0  0
  139.8810   70.2740  225.0670 C   0  0  0  0  0  0  0  0  0  0  0  0
  140.6780   71.3410  224.7100 C   0  0  0  0  0  0  0  0  0  0  0  0
  140.3450   72.2050  223.7330 N   0  0  0  0  0  0  0  0  0  0  0  0
  141.2540   75.5470  220.8930 N   0  0  0  0  0  0  0  0  0  0  0  0
  140.4820   76.7590  220.8930 C   0  0  0  0  0  0  0  0  0  0  0  0
  141.0620   77.8470  221.7220 C   0  0  0  0  0  0  0  0  0  0  0  0
  141.5880   78.9910  221.1100 C   0  0  0  0  0  0  0  0  0  0  0  0
  142.1340   80.0240  221.8470 C   0  0  0  0  0  0  0  0  0  0  0  0
  142.1880   79.9810  223.2220 C   0  0  0  0  0  0  0  0  0  0  0  0
  141.6770   78.8630  223.8420 C   0  0  0  0  0  0  0  0  0  0  0  0
  141.1280   77.8240  223.0940 C   0  0  0  0  0  0  0  0  0  0  0  0
  144.9872   75.3664  219.3861 H   0  0  0  0  0  0  0  0  0  0  0  0
  147.0710   74.2110  218.9620 H   0  0  0  0  0  0  0  0  0  0  0  0
  145.4508   71.1481  220.1954 H   0  0  0  0  0  0  0  0  0  0  0  0
  143.1501   71.1415  221.1491 H   0  0  0  0  0  0  0  0  0  0  0  0
  138.9993   75.1379  222.3943 H   0  0  0  0  0  0  0  0  0  0  0  0
  138.1594   72.8014  221.1959 H   0  0  0  0  0  0  0  0  0  0  0  0
  137.4256   70.9234  222.7809 H   0  0  0  0  0  0  0  0  0  0  0  0
  138.0064   69.3111  224.5750 H   0  0  0  0  0  0  0  0  0  0  0  0
  140.1626   69.5742  225.8676 H   0  0  0  0  0  0  0  0  0  0  0  0
  141.6263   71.4926  225.2464 H   0  0  0  0  0  0  0  0  0  0  0  0
  140.4036   77.1187  219.8565 H   0  0  0  0  0  0  0  0  0  0  0  0
  139.5040   76.5124  221.3320 H   0  0  0  0  0  0  0  0  0  0  0  0
  141.5659   79.0694  220.0130 H   0  0  0  0  0  0  0  0  0  0  0  0
  142.5358   80.9031  221.3220 H   0  0  0  0  0  0  0  0  0  0  0  0
  142.6226   80.8079  223.8028 H   0  0  0  0  0  0  0  0  0  0  0  0
  141.7025   78.7894  224.9392 H   0  0  0  0  0  0  0  0  0  0  0  0
  140.7299   76.9468  223.6251 H   0  0  0  0  0  0  0  0  0  0  0  0
  1  2  2  0
  2  3  1  0
  3  4  2  0
  4  5  1  0
  5  6  1  0
  5  7  2  0
  7  8  1  0
  8  9  2  0
  9 10  1  0
 10 11  2  0
 11 12  1  0
 12 13  2  0
 13 14  1  0
 14 15  2  0
 15 16  1  0
 16 17  2  0
 17 18  1  0
 18 19  2  0
 11 20  1  0
 20 21  1  0
 21 22  1  0
 22 23  2  0
 23 24  1  0
 24 25  2  0
 25 26  1  0
 26 27  2  0
 20  2  1  0
 27 22  1  0
  9  3  1  0
 19 14  1  0
  4 28  1  0
  6 29  1  0
  7 30  1  0
  8 31  1  0
 12 32  1  0
 13 33  1  0
 15 34  1  0
 16 35  1  0
 17 36  1  0
 18 37  1  0
 21 38  1  0
 21 39  1  0
 23 40  1  0
 24 41  1  0
 25 42  1  0
 26 43  1  0
 27 44  1  0
M  END
>  <smiles>  (6) 
O=c1c2cc(O)ccc2nc(/C=C/c2ccccn2)n1Cc1ccccc1

>  <score_type>  (6) 
oracle

>  <origin>  (6) 
autodockgpu

>  <m_score__min__energy>  (6) 
-7.9500000000000002

>  <m_primary>  (6) 
energy

>  <meeko>  (6) 
{"free_energy": -7.83, "intermolecular_energy": -9.62, "internal_energy": -1.13, "cluster_size": 19, "cluster_id": 1, "rank_in_cluster": 8}

>  <energy>  (6) 
-7.85

>  <cluster_rmsd>  (6) 
0.8

>  <rmsd>  (6) 
271.08

>  <cluster>  (6) 
1

$$$$

     RDKit          3D

 44 47  0  0  0  0  0  0  0  0999 V2000
  143.2790   76.8570  219.5190 O   0  0  0  0  0  0  0  0  0  0  0  0
  142.6390   75.9470  220.1010 C   0  0  0  0  0  0  0  0  0  0  0  0
  143.2410   74.6950  220.1040 C   0  0  0  0  0  0  0  0  0  0  0  0
  144.4770   74.4950  219.4890 C   0  0  0  0  0  0  0  0  0  0  0  0
  145.0540   73.2380  219.5060 C   0  0  0  0  0  0  0  0  0  0  0  0
  146.2890   73.1040  218.8750 O   0  0  0  0  0  0  0  0  0  0  0  0
  144.4500   72.1600  220.1140 C   0  0  0  0  0  0  0  0  0  0  0  0
  143.2220   72.3980  220.7130 C   0  0  0  0  0  0  0  0  0  0  0  0
  142.6190   73.6290  220.7180 C   0  0  0  0  0  0  0  0  0  0  0  0
  141.4320   73.8690  221.2950 N   0  0  0  0  0  0  0  0  0  0  0  0
  140.8650   75.0940  221.2820 C   0  0  0  0  0  0  0  0  0  0  0  0
  139.5880   75.2220  221.9680 C   0  0  0  0  0  0  0  0  0  0  0  0
  138.6750   74.2550  221.8090 C   0  0  0  0  0  0  0  0  0  0  0  0
  138.9860   72.8730  222.2190 C   0  0  0  0  0  0  0  0  0  0  0  0
  138.3120   71.7940  221.6910 C   0  0  0  0  0  0  0  0  0  0  0  0
  138.6250   70.5010  222.0950 C   0  0  0  0  0  0  0  0  0  0  0  0
  139.6260   70.2720  223.0430 C   0  0  0  0  0  0  0  0  0  0  0  0
  140.2570   71.3990  223.5270 C   0  0  0  0  0  0  0  0  0  0  0  0
  139.9390   72.6430  223.1240 N   0  0  0  0  0  0  0  0  0  0  0  0
  141.4330   76.1620  220.6960 N   0  0  0  0  0  0  0  0  0  0  0  0
  140.8390   77.4700  220.6390 C   0  0  0  0  0  0  0  0  0  0  0  0
  141.3370   78.4060  221.6790 C   0  0  0  0  0  0  0  0  0  0  0  0
  141.8710   79.6460  221.3080 C   0  0  0  0  0  0  0  0  0  0  0  0
  142.3430   80.5450  222.2460 C   0  0  0  0  0  0  0  0  0  0  0  0
  142.3110   80.2660  223.5940 C   0  0  0  0  0  0  0  0  0  0  0  0
  141.7900   79.0510  223.9780 C   0  0  0  0  0  0  0  0  0  0  0  0
  141.3160   78.1490  223.0280 C   0  0  0  0  0  0  0  0  0  0  0  0
  144.9900   75.3323  218.9933 H   0  0  0  0  0  0  0  0  0  0  0  0
  146.8130   73.8500  218.4620 H   0  0  0  0  0  0  0  0  0  0  0  0
  144.9164   71.1638  220.1240 H   0  0  0  0  0  0  0  0  0  0  0  0
  142.7081   71.5602  221.2069 H   0  0  0  0  0  0  0  0  0  0  0  0
  139.3770   76.0945  222.6037 H   0  0  0  0  0  0  0  0  0  0  0  0
  137.6934   74.4916  221.3727 H   0  0  0  0  0  0  0  0  0  0  0  0
  137.5206   71.9564  220.9445 H   0  0  0  0  0  0  0  0  0  0  0  0
  138.0789   69.6491  221.6638 H   0  0  0  0  0  0  0  0  0  0  0  0
  139.8930   69.2598  223.3809 H   0  0  0  0  0  0  0  0  0  0  0  0
  141.0545   71.2756  224.2745 H   0  0  0  0  0  0  0  0  0  0  0  0
  141.0535   77.9045  219.6515 H   0  0  0  0  0  0  0  0  0  0  0  0
  139.7619   77.3383  220.8192 H   0  0  0  0  0  0  0  0  0  0  0  0
  141.9161   79.9119  220.2416 H   0  0  0  0  0  0  0  0  0  0  0  0
  142.7544   81.5072  221.9071 H   0  0  0  0  0  0  0  0  0  0  0  0
  142.6873   80.9862  224.3355 H   0  0  0  0  0  0  0  0  0  0  0  0
  141.7475   78.7898  225.0457 H   0  0  0  0  0  0  0  0  0  0  0  0
  140.9067   77.1883  223.3737 H   0  0  0  0  0  0  0  0  0  0  0  0
  1  2  2  0
  2  3  1  0
  3  4  2  0
  4  5  1  0
  5  6  1  0
  5  7  2  0
  7  8  1  0
  8  9  2  0
  9 10  1  0
 10 11  2  0
 11 12  1  0
 12 13  2  0
 13 14  1  0
 14 15  2  0
 15 16  1  0
 16 17  2  0
 17 18  1  0
 18 19  2  0
 11 20  1  0
 20 21  1  0
 21 22  1  0
 22 23  2  0
 23 24  1  0
 24 25  2  0
 25 26  1  0
 26 27  2  0
 20  2  1  0
 27 22  1  0
  9  3  1  0
 19 14  1  0
  4 28  1  0
  6 29  1  0
  7 30  1  0
  8 31  1  0
 12 32  1  0
 13 33  1  0
 15 34  1  0
 16 35  1  0
 17 36  1  0
 18 37  1  0
 21 38  1  0
 21 39  1  0
 23 40  1  0
 24 41  1  0
 25 42  1  0
 26 43  1  0
 27 44  1  0
M  END
>  <smiles>  (7) 
O=c1c2cc(O)ccc2nc(/C=C/c2ccccn2)n1Cc1ccccc1

>  <score_type>  (7) 
oracle

>  <origin>  (7) 
autodockgpu

>  <m_score__min__energy>  (7) 
-7.9500000000000002

>  <m_primary>  (7) 
energy

>  <meeko>  (7) 
{"free_energy": -7.58, "intermolecular_energy": -9.37, "internal_energy": -1.1, "cluster_size": 19, "cluster_id": 1, "rank_in_cluster": 17}

>  <energy>  (7) 
-7.85

>  <cluster_rmsd>  (7) 
0.73

>  <rmsd>  (7) 
271.09

>  <cluster>  (7) 
1

$$$$

     RDKit          3D

 44 47  0  0  0  0  0  0  0  0999 V2000
  142.9850   76.5730  219.9450 O   0  0  0  0  0  0  0  0  0  0  0  0
  142.4610   75.5200  220.3840 C   0  0  0  0  0  0  0  0  0  0  0  0
  143.2540   74.3800  220.3180 C   0  0  0  0  0  0  0  0  0  0  0  0
  144.5440   74.4370  219.7900 C   0  0  0  0  0  0  0  0  0  0  0  0
  145.3130   73.2890  219.7350 C   0  0  0  0  0  0  0  0  0  0  0  0
  146.5910   73.4120  219.1970 O   0  0  0  0  0  0  0  0  0  0  0  0
  144.8500   72.0730  220.1870 C   0  0  0  0  0  0  0  0  0  0  0  0
  143.5630   72.0560  220.7040 C   0  0  0  0  0  0  0  0  0  0  0  0
  142.7710   73.1730  220.7750 C   0  0  0  0  0  0  0  0  0  0  0  0
  141.5260   73.1670  221.2740 N   0  0  0  0  0  0  0  0  0  0  0  0
  140.7730   74.2850  221.3300 C   0  0  0  0  0  0  0  0  0  0  0  0
  139.4490   74.1440  221.9190 C   0  0  0  0  0  0  0  0  0  0  0  0
  138.8920   72.9270  221.9590 C   0  0  0  0  0  0  0  0  0  0  0  0
  139.2500   71.9880  223.0400 C   0  0  0  0  0  0  0  0  0  0  0  0
  138.4830   70.8770  223.3130 C   0  0  0  0  0  0  0  0  0  0  0  0
  138.8430   70.0080  224.3370 C   0  0  0  0  0  0  0  0  0  0  0  0
  139.9860   70.2450  225.1070 C   0  0  0  0  0  0  0  0  0  0  0  0
  140.7020   71.3750  224.7760 C   0  0  0  0  0  0  0  0  0  0  0  0
  140.3380   72.2050  223.7800 N   0  0  0  0  0  0  0  0  0  0  0  0
  141.2000   75.4840  220.8960 N   0  0  0  0  0  0  0  0  0  0  0  0
  140.4090   76.6850  220.9150 C   0  0  0  0  0  0  0  0  0  0  0  0
  141.0220   77.8000  221.6800 C   0  0  0  0  0  0  0  0  0  0  0  0
  141.1170   77.7240  223.0750 C   0  0  0  0  0  0  0  0  0  0  0  0
  141.6820   78.7400  223.8220 C   0  0  0  0  0  0  0  0  0  0  0  0
  142.1810   79.8800  223.2310 C   0  0  0  0  0  0  0  0  0  0  0  0
  142.0950   79.9730  221.8600 C   0  0  0  0  0  0  0  0  0  0  0  0
  141.5240   78.9460  221.1120 C   0  0  0  0  0  0  0  0  0  0  0  0
  144.9476   75.3907  219.4191 H   0  0  0  0  0  0  0  0  0  0  0  0
  147.0360   74.2740  218.9490 H   0  0  0  0  0  0  0  0  0  0  0  0
  145.4678   71.1641  220.1404 H   0  0  0  0  0  0  0  0  0  0  0  0
  143.1590   71.1022  221.0742 H   0  0  0  0  0  0  0  0  0  0  0  0
  138.9176   75.0185  222.3225 H   0  0  0  0  0  0  0  0  0  0  0  0
  138.1682   72.6273  221.1868 H   0  0  0  0  0  0  0  0  0  0  0  0
  137.5803   70.6760  222.7174 H   0  0  0  0  0  0  0  0  0  0  0  0
  138.2217   69.1241  224.5437 H   0  0  0  0  0  0  0  0  0  0  0  0
  140.2932   69.5740  225.9227 H   0  0  0  0  0  0  0  0  0  0  0  0
  141.6104   71.6092  225.3504 H   0  0  0  0  0  0  0  0  0  0  0  0
  140.2608   77.0180  219.8771 H   0  0  0  0  0  0  0  0  0  0  0  0
  139.4636   76.4354  221.4189 H   0  0  0  0  0  0  0  0  0  0  0  0
  140.7316   76.8317  223.5900 H   0  0  0  0  0  0  0  0  0  0  0  0
  141.7346   78.6359  224.9158 H   0  0  0  0  0  0  0  0  0  0  0  0
  142.6307   80.6847  223.8312 H   0  0  0  0  0  0  0  0  0  0  0  0
  142.4813   80.8678  221.3500 H   0  0  0  0  0  0  0  0  0  0  0  0
  141.4727   79.0573  220.0188 H   0  0  0  0  0  0  0  0  0  0  0  0
  1  2  2  0
  2  3  1  0
  3  4  2  0
  4  5  1  0
  5  6  1  0
  5  7  2  0
  7  8  1  0
  8  9  2  0
  9 10  1  0
 10 11  2  0
 11 12  1  0
 12 13  2  0
 13 14  1  0
 14 15  2  0
 15 16  1  0
 16 17  2  0
 17 18  1  0
 18 19  2  0
 11 20  1  0
 20 21  1  0
 21 22  1  0
 22 23  2  0
 23 24  1  0
 24 25  2  0
 25 26  1  0
 26 27  2  0
 20  2  1  0
 27 22  1  0
  9  3  1  0
 19 14  1  0
  4 28  1  0
  6 29  1  0
  7 30  1  0
  8 31  1  0
 12 32  1  0
 13 33  1  0
 15 34  1  0
 16 35  1  0
 17 36  1  0
 18 37  1  0
 21 38  1  0
 21 39  1  0
 23 40  1  0
 24 41  1  0
 25 42  1  0
 26 43  1  0
 27 44  1  0
M  END
>  <smiles>  (8) 
O=c1c2cc(O)ccc2nc(/C=C/c2ccccn2)n1Cc1ccccc1

>  <score_type>  (8) 
oracle

>  <origin>  (8) 
autodockgpu

>  <m_score__min__energy>  (8) 
-7.9500000000000002

>  <m_primary>  (8) 
energy

>  <meeko>  (8) 
{"free_energy": -7.85, "intermolecular_energy": -9.64, "internal_energy": -1.13, "cluster_size": 19, "cluster_id": 1, "rank_in_cluster": 7}

>  <energy>  (8) 
-7.83

>  <cluster_rmsd>  (8) 
0.76

>  <rmsd>  (8) 
271.11

>  <cluster>  (8) 
1

$$$$

     RDKit          3D

 44 47  0  0  0  0  0  0  0  0999 V2000
  142.9910   76.4920  219.9910 O   0  0  0  0  0  0  0  0  0  0  0  0
  142.4740   75.4320  220.4230 C   0  0  0  0  0  0  0  0  0  0  0  0
  143.2700   74.2960  220.3410 C   0  0  0  0  0  0  0  0  0  0  0  0
  144.5570   74.3630  219.8060 C   0  0  0  0  0  0  0  0  0  0  0  0
  145.3290   73.2180  219.7350 C   0  0  0  0  0  0  0  0  0  0  0  0
  146.6040   73.3510  219.1910 O   0  0  0  0  0  0  0  0  0  0  0  0
  144.8730   71.9960  220.1780 C   0  0  0  0  0  0  0  0  0  0  0  0
  143.5890   71.9700  220.7020 C   0  0  0  0  0  0  0  0  0  0  0  0
  142.7940   73.0830  220.7890 C   0  0  0  0  0  0  0  0  0  0  0  0
  141.5520   73.0670  221.2950 N   0  0  0  0  0  0  0  0  0  0  0  0
  140.7950   74.1830  221.3660 C   0  0  0  0  0  0  0  0  0  0  0  0
  139.4750   74.0310  221.9620 C   0  0  0  0  0  0  0  0  0  0  0  0
  138.9170   72.8140  221.9800 C   0  0  0  0  0  0  0  0  0  0  0  0
  139.3280   71.8300  222.9990 C   0  0  0  0  0  0  0  0  0  0  0  0
  140.3620   72.0850  223.8730 C   0  0  0  0  0  0  0  0  0  0  0  0
  140.7290   71.1400  224.8250 C   0  0  0  0  0  0  0  0  0  0  0  0
  140.0590   69.9160  224.9110 C   0  0  0  0  0  0  0  0  0  0  0  0
  139.0370   69.7310  224.0050 C   0  0  0  0  0  0  0  0  0  0  0  0
  138.6960   70.6580  223.0910 N   0  0  0  0  0  0  0  0  0  0  0  0
  141.2160   75.3870  220.9410 N   0  0  0  0  0  0  0  0  0  0  0  0
  140.4210   76.5850  220.9770 C   0  0  0  0  0  0  0  0  0  0  0  0
  141.0410   77.7000  221.7360 C   0  0  0  0  0  0  0  0  0  0  0  0
  141.4800   78.8470  221.0630 C   0  0  0  0  0  0  0  0  0  0  0  0
  142.0600   79.9060  221.7340 C   0  0  0  0  0  0  0  0  0  0  0  0
  142.2360   79.8880  223.1000 C   0  0  0  0  0  0  0  0  0  0  0  0
  141.8110   78.7680  223.7790 C   0  0  0  0  0  0  0  0  0  0  0  0
  141.2270   77.7030  223.0970 C   0  0  0  0  0  0  0  0  0  0  0  0
  144.9554   75.3218  219.4426 H   0  0  0  0  0  0  0  0  0  0  0  0
  147.0420   74.2160  218.9440 H   0  0  0  0  0  0  0  0  0  0  0  0
  145.4936   71.0897  220.1194 H   0  0  0  0  0  0  0  0  0  0  0  0
  143.1901   71.0112  221.0647 H   0  0  0  0  0  0  0  0  0  0  0  0
  138.9478   74.8972  222.3882 H   0  0  0  0  0  0  0  0  0  0  0  0
  138.1524   72.5482  221.2352 H   0  0  0  0  0  0  0  0  0  0  0  0
  140.9008   73.0424  223.8175 H   0  0  0  0  0  0  0  0  0  0  0  0
  141.5552   71.3579  225.5177 H   0  0  0  0  0  0  0  0  0  0  0  0
  140.3298   69.1506  225.6532 H   0  0  0  0  0  0  0  0  0  0  0  0
  138.4760   68.7851  224.0301 H   0  0  0  0  0  0  0  0  0  0  0  0
  140.2552   76.9210  219.9428 H   0  0  0  0  0  0  0  0  0  0  0  0
  139.4850   76.3297  221.4954 H   0  0  0  0  0  0  0  0  0  0  0  0
  141.3598   78.9062  219.9712 H   0  0  0  0  0  0  0  0  0  0  0  0
  142.3898   80.7863  221.1628 H   0  0  0  0  0  0  0  0  0  0  0  0
  142.6980   80.7353  223.6279 H   0  0  0  0  0  0  0  0  0  0  0  0
  141.9339   78.7137  224.8708 H   0  0  0  0  0  0  0  0  0  0  0  0
  140.9002   76.8253  223.6740 H   0  0  0  0  0  0  0  0  0  0  0  0
  1  2  2  0
  2  3  1  0
  3  4  2  0
  4  5  1  0
  5  6  1  0
  5  7  2  0
  7  8  1  0
  8  9  2  0
  9 10  1  0
 10 11  2  0
 11 12  1  0
 12 13  2  0
 13 14  1  0
 14 15  2  0
 15 16  1  0
 16 17  2  0
 17 18  1  0
 18 19  2  0
 11 20  1  0
 20 21  1  0
 21 22  1  0
 22 23  2  0
 23 24  1  0
 24 25  2  0
 25 26  1  0
 26 27  2  0
 20  2  1  0
 27 22  1  0
  9  3  1  0
 19 14  1  0
  4 28  1  0
  6 29  1  0
  7 30  1  0
  8 31  1  0
 12 32  1  0
 13 33  1  0
 15 34  1  0
 16 35  1  0
 17 36  1  0
 18 37  1  0
 21 38  1  0
 21 39  1  0
 23 40  1  0
 24 41  1  0
 25 42  1  0
 26 43  1  0
 27 44  1  0
M  END
>  <smiles>  (9) 
O=c1c2cc(O)ccc2nc(/C=C/c2ccccn2)n1Cc1ccccc1

>  <score_type>  (9) 
oracle

>  <origin>  (9) 
autodockgpu

>  <m_score__min__energy>  (9) 
-7.9500000000000002

>  <m_primary>  (9) 
energy

>  <meeko>  (9) 
{"free_energy": -7.68, "intermolecular_energy": -9.47, "internal_energy": -1.1, "cluster_size": 19, "cluster_id": 1, "rank_in_cluster": 12}

>  <energy>  (9) 
-7.8

>  <cluster_rmsd>  (9) 
0.42

>  <rmsd>  (9) 
271.05

>  <cluster>  (9) 
1

$$$$

     RDKit          3D

 44 47  0  0  0  0  0  0  0  0999 V2000
  143.0340   76.6500  219.8940 O   0  0  0  0  0  0  0  0  0  0  0  0
  142.4890   75.6170  220.3540 C   0  0  0  0  0  0  0  0  0  0  0  0
  143.2530   74.4570  220.2980 C   0  0  0  0  0  0  0  0  0  0  0  0
  144.5390   74.4740  219.7560 C   0  0  0  0  0  0  0  0  0  0  0  0
  145.2780   73.3070  219.7110 C   0  0  0  0  0  0  0  0  0  0  0  0
  146.5540   73.3890  219.1580 O   0  0  0  0  0  0  0  0  0  0  0  0
  144.7900   72.1090  220.1870 C   0  0  0  0  0  0  0  0  0  0  0  0
  143.5090   72.1330  220.7170 C   0  0  0  0  0  0  0  0  0  0  0  0
  142.7460   73.2700  220.7790 C   0  0  0  0  0  0  0  0  0  0  0  0
  141.5070   73.3020  221.2910 N   0  0  0  0  0  0  0  0  0  0  0  0
  140.7810   74.4390  221.3370 C   0  0  0  0  0  0  0  0  0  0  0  0
  139.4610   74.3400  221.9410 C   0  0  0  0  0  0  0  0  0  0  0  0
  138.8430   73.1520  221.9390 C   0  0  0  0  0  0  0  0  0  0  0  0
  139.1880   72.1390  222.9540 C   0  0  0  0  0  0  0  0  0  0  0  0
  138.3460   71.0870  223.2390 C   0  0  0  0  0  0  0  0  0  0  0  0
  138.6960   70.1460  224.2010 C   0  0  0  0  0  0  0  0  0  0  0  0
  139.9050   70.2500  224.8950 C   0  0  0  0  0  0  0  0  0  0  0  0
  140.6950   71.3280  224.5570 C   0  0  0  0  0  0  0  0  0  0  0  0
  140.3390   72.2290  223.6230 N   0  0  0  0  0  0  0  0  0  0  0  0
  141.2330   75.6200  220.8790 N   0  0  0  0  0  0  0  0  0  0  0  0
  140.4730   76.8400  220.8880 C   0  0  0  0  0  0  0  0  0  0  0  0
  141.0720   77.9210  221.7110 C   0  0  0  0  0  0  0  0  0  0  0  0
  141.5690   79.0770  221.0970 C   0  0  0  0  0  0  0  0  0  0  0  0
  142.1320   80.1050  221.8290 C   0  0  0  0  0  0  0  0  0  0  0  0
  142.2320   80.0450  223.2000 C   0  0  0  0  0  0  0  0  0  0  0  0
  141.7480   78.9160  223.8230 C   0  0  0  0  0  0  0  0  0  0  0  0
  141.1820   77.8820  223.0800 C   0  0  0  0  0  0  0  0  0  0  0  0
  144.9623   75.4116  219.3665 H   0  0  0  0  0  0  0  0  0  0  0  0
  147.0330   74.2380  218.9320 H   0  0  0  0  0  0  0  0  0  0  0  0
  145.3845   71.1843  220.1485 H   0  0  0  0  0  0  0  0  0  0  0  0
  143.0851   71.1955  221.1060 H   0  0  0  0  0  0  0  0  0  0  0  0
  138.9809   75.2222  222.3897 H   0  0  0  0  0  0  0  0  0  0  0  0
  138.0778   72.9316  221.1801 H   0  0  0  0  0  0  0  0  0  0  0  0
  137.3907   70.9906  222.7023 H   0  0  0  0  0  0  0  0  0  0  0  0
  138.0141   69.3107  224.4183 H   0  0  0  0  0  0  0  0  0  0  0  0
  140.2062   69.5197  225.6605 H   0  0  0  0  0  0  0  0  0  0  0  0
  141.6578   71.4572  225.0730 H   0  0  0  0  0  0  0  0  0  0  0  0
  140.3872   77.2013  219.8526 H   0  0  0  0  0  0  0  0  0  0  0  0
  139.4973   76.6028  221.3372 H   0  0  0  0  0  0  0  0  0  0  0  0
  141.5097   79.1694  220.0025 H   0  0  0  0  0  0  0  0  0  0  0  0
  142.5098   80.9938  221.3023 H   0  0  0  0  0  0  0  0  0  0  0  0
  142.6812   80.8672  223.7764 H   0  0  0  0  0  0  0  0  0  0  0  0
  141.8089   78.8298  224.9179 H   0  0  0  0  0  0  0  0  0  0  0  0
  140.8069   76.9958  223.6128 H   0  0  0  0  0  0  0  0  0  0  0  0
  1  2  2  0
  2  3  1  0
  3  4  2  0
  4  5  1  0
  5  6  1  0
  5  7  2  0
  7  8  1  0
  8  9  2  0
  9 10  1  0
 10 11  2  0
 11 12  1  0
 12 13  2  0
 13 14  1  0
 14 15  2  0
 15 16  1  0
 16 17  2  0
 17 18  1  0
 18 19  2  0
 11 20  1  0
 20 21  1  0
 21 22  1  0
 22 23  2  0
 23 24  1  0
 24 25  2  0
 25 26  1  0
 26 27  2  0
 20  2  1  0
 27 22  1  0
  9  3  1  0
 19 14  1  0
  4 28  1  0
  6 29  1  0
  7 30  1  0
  8 31  1  0
 12 32  1  0
 13 33  1  0
 15 34  1  0
 16 35  1  0
 17 36  1  0
 18 37  1  0
 21 38  1  0
 21 39  1  0
 23 40  1  0
 24 41  1  0
 25 42  1  0
 26 43  1  0
 27 44  1  0
M  END
>  <smiles>  (10) 
O=c1c2cc(O)ccc2nc(/C=C/c2ccccn2)n1Cc1ccccc1

>  <score_type>  (10) 
oracle

>  <origin>  (10) 
autodockgpu

>  <m_score__min__energy>  (10) 
-7.9500000000000002

>  <m_primary>  (10) 
energy

>  <meeko>  (10) 
{"free_energy": -7.85, "intermolecular_energy": -9.64, "internal_energy": -1.12, "cluster_size": 19, "cluster_id": 1, "rank_in_cluster": 6}

>  <energy>  (10) 
-7.79

>  <cluster_rmsd>  (10) 
0.47

>  <rmsd>  (10) 
271.04

>  <cluster>  (10) 
1

$$$$

     RDKit          3D

 44 47  0  0  0  0  0  0  0  0999 V2000
  143.2760   76.9030  219.4810 O   0  0  0  0  0  0  0  0  0  0  0  0
  142.6420   76.0160  220.1050 C   0  0  0  0  0  0  0  0  0  0  0  0
  143.2350   74.7590  220.1340 C   0  0  0  0  0  0  0  0  0  0  0  0
  144.4560   74.5310  219.4970 C   0  0  0  0  0  0  0  0  0  0  0  0
  145.0240   73.2710  219.5400 C   0  0  0  0  0  0  0  0  0  0  0  0
  146.2430   73.1080  218.8860 O   0  0  0  0  0  0  0  0  0  0  0  0
  144.4260   72.2160  220.1940 C   0  0  0  0  0  0  0  0  0  0  0  0
  143.2140   72.4830  220.8130 C   0  0  0  0  0  0  0  0  0  0  0  0
  142.6190   73.7180  220.7930 C   0  0  0  0  0  0  0  0  0  0  0  0
  141.4480   73.9840  221.3890 N   0  0  0  0  0  0  0  0  0  0  0  0
  140.8890   75.2130  221.3500 C   0  0  0  0  0  0  0  0  0  0  0  0
  139.6290   75.3720  222.0600 C   0  0  0  0  0  0  0  0  0  0  0  0
  138.6730   74.4510  221.8840 C   0  0  0  0  0  0  0  0  0  0  0  0
  138.9790   73.0230  222.0910 C   0  0  0  0  0  0  0  0  0  0  0  0
  138.4450   72.0450  221.2800 C   0  0  0  0  0  0  0  0  0  0  0  0
  138.7490   70.7060  221.4980 C   0  0  0  0  0  0  0  0  0  0  0  0
  139.6010   70.3280  222.5400 C   0  0  0  0  0  0  0  0  0  0  0  0
  140.0960   71.3590  223.3090 C   0  0  0  0  0  0  0  0  0  0  0  0
  139.7900   72.6500  223.0830 N   0  0  0  0  0  0  0  0  0  0  0  0
  141.4520   76.2580  220.7190 N   0  0  0  0  0  0  0  0  0  0  0  0
  140.8660   77.5680  220.6360 C   0  0  0  0  0  0  0  0  0  0  0  0
  141.3760   78.5250  221.6510 C   0  0  0  0  0  0  0  0  0  0  0  0
  141.3570   78.1830  223.0080 C   0  0  0  0  0  0  0  0  0  0  0  0
  141.8240   79.0450  223.9820 C   0  0  0  0  0  0  0  0  0  0  0  0
  142.3330   80.2850  223.6660 C   0  0  0  0  0  0  0  0  0  0  0  0
  142.3580   80.6400  222.3360 C   0  0  0  0  0  0  0  0  0  0  0  0
  141.8860   79.7670  221.3590 C   0  0  0  0  0  0  0  0  0  0  0  0
  144.9632   75.3487  218.9640 H   0  0  0  0  0  0  0  0  0  0  0  0
  146.7870   73.8440  218.4820 H   0  0  0  0  0  0  0  0  0  0  0  0
  144.8847   71.2167  220.2236 H   0  0  0  0  0  0  0  0  0  0  0  0
  142.7061   71.6652  221.3452 H   0  0  0  0  0  0  0  0  0  0  0  0
  139.4651   76.2309  222.7274 H   0  0  0  0  0  0  0  0  0  0  0  0
  137.6602   74.7592  221.5853 H   0  0  0  0  0  0  0  0  0  0  0  0
  137.7739   72.3257  220.4548 H   0  0  0  0  0  0  0  0  0  0  0  0
  138.3145   69.9358  220.8437 H   0  0  0  0  0  0  0  0  0  0  0  0
  139.8594   69.2764  222.7334 H   0  0  0  0  0  0  0  0  0  0  0  0
  140.7703   71.1163  224.1435 H   0  0  0  0  0  0  0  0  0  0  0  0
  141.0769   77.9783  219.6374 H   0  0  0  0  0  0  0  0  0  0  0  0
  139.7894   77.4469  220.8264 H   0  0  0  0  0  0  0  0  0  0  0  0
  140.9597   77.2019  223.3073 H   0  0  0  0  0  0  0  0  0  0  0  0
  141.7883   78.7328  225.0362 H   0  0  0  0  0  0  0  0  0  0  0  0
  142.7052   80.9655  224.4460 H   0  0  0  0  0  0  0  0  0  0  0  0
  142.7548   81.6230  222.0422 H   0  0  0  0  0  0  0  0  0  0  0  0
  141.9231   80.0859  220.3069 H   0  0  0  0  0  0  0  0  0  0  0  0
  1  2  2  0
  2  3  1  0
  3  4  2  0
  4  5  1  0
  5  6  1  0
  5  7  2  0
  7  8  1  0
  8  9  2  0
  9 10  1  0
 10 11  2  0
 11 12  1  0
 12 13  2  0
 13 14  1  0
 14 15  2  0
 15 16  1  0
 16 17  2  0
 17 18  1  0
 18 19  2  0
 11 20  1  0
 20 21  1  0
 21 22  1  0
 22 23  2  0
 23 24  1  0
 24 25  2  0
 25 26  1  0
 26 27  2  0
 20  2  1  0
 27 22  1  0
  9  3  1  0
 19 14  1  0
  4 28  1  0
  6 29  1  0
  7 30  1  0
  8 31  1  0
 12 32  1  0
 13 33  1  0
 15 34  1  0
 16 35  1  0
 17 36  1  0
 18 37  1  0
 21 38  1  0
 21 39  1  0
 23 40  1  0
 24 41  1  0
 25 42  1  0
 26 43  1  0
 27 44  1  0
M  END
>  <smiles>  (11) 
O=c1c2cc(O)ccc2nc(/C=C/c2ccccn2)n1Cc1ccccc1

>  <score_type>  (11) 
oracle

>  <origin>  (11) 
autodockgpu

>  <m_score__min__energy>  (11) 
-7.9500000000000002

>  <m_primary>  (11) 
energy

>  <meeko>  (11) 
{"free_energy": -7.46, "intermolecular_energy": -9.25, "internal_energy": -1.14, "cluster_size": 19, "cluster_id": 1, "rank_in_cluster": 19}

>  <energy>  (11) 
-7.69

>  <cluster_rmsd>  (11) 
1.14

>  <rmsd>  (11) 
270.88

>  <cluster>  (11) 
1

$$$$

     RDKit          3D

 44 47  0  0  0  0  0  0  0  0999 V2000
  143.2180   76.8860  219.5820 O   0  0  0  0  0  0  0  0  0  0  0  0
  142.5890   75.9600  220.1510 C   0  0  0  0  0  0  0  0  0  0  0  0
  143.2160   74.7190  220.1540 C   0  0  0  0  0  0  0  0  0  0  0  0
  144.4630   74.5480  219.5520 C   0  0  0  0  0  0  0  0  0  0  0  0
  145.0650   73.3030  219.5680 C   0  0  0  0  0  0  0  0  0  0  0  0
  146.3090   73.1980  218.9500 O   0  0  0  0  0  0  0  0  0  0  0  0
  144.4760   72.2090  220.1630 C   0  0  0  0  0  0  0  0  0  0  0  0
  143.2370   72.4200  220.7490 C   0  0  0  0  0  0  0  0  0  0  0  0
  142.6090   73.6380  220.7540 C   0  0  0  0  0  0  0  0  0  0  0  0
  141.4110   73.8500  221.3190 N   0  0  0  0  0  0  0  0  0  0  0  0
  140.8190   75.0630  221.3060 C   0  0  0  0  0  0  0  0  0  0  0  0
  139.5320   75.1620  221.9790 C   0  0  0  0  0  0  0  0  0  0  0  0
  138.6420   74.1760  221.8070 C   0  0  0  0  0  0  0  0  0  0  0  0
  138.9290   72.8250  222.3270 C   0  0  0  0  0  0  0  0  0  0  0  0
  138.1600   71.7380  221.9740 C   0  0  0  0  0  0  0  0  0  0  0  0
  138.4530   70.4760  222.4790 C   0  0  0  0  0  0  0  0  0  0  0  0
  139.5280   70.2870  223.3510 C   0  0  0  0  0  0  0  0  0  0  0  0
  140.2520   71.4200  223.6590 C   0  0  0  0  0  0  0  0  0  0  0  0
  139.9530   72.6340  223.1600 N   0  0  0  0  0  0  0  0  0  0  0  0
  141.3720   76.1470  220.7330 N   0  0  0  0  0  0  0  0  0  0  0  0
  140.7530   77.4430  220.6770 C   0  0  0  0  0  0  0  0  0  0  0  0
  141.2980   78.4170  221.6570 C   0  0  0  0  0  0  0  0  0  0  0  0
  141.2720   78.1230  223.0260 C   0  0  0  0  0  0  0  0  0  0  0  0
  141.7710   79.0030  223.9670 C   0  0  0  0  0  0  0  0  0  0  0  0
  142.3210   80.2130  223.6070 C   0  0  0  0  0  0  0  0  0  0  0  0
  142.3540   80.5190  222.2650 C   0  0  0  0  0  0  0  0  0  0  0  0
  141.8490   79.6290  221.3200 C   0  0  0  0  0  0  0  0  0  0  0  0
  144.9645   75.3987  219.0674 H   0  0  0  0  0  0  0  0  0  0  0  0
  146.8340   73.9600  218.5690 H   0  0  0  0  0  0  0  0  0  0  0  0
  144.9619   71.2222  220.1727 H   0  0  0  0  0  0  0  0  0  0  0  0
  142.7345   71.5694  221.2327 H   0  0  0  0  0  0  0  0  0  0  0  0
  139.2956   76.0278  222.6150 H   0  0  0  0  0  0  0  0  0  0  0  0
  137.6976   74.3731  221.2785 H   0  0  0  0  0  0  0  0  0  0  0  0
  137.3095   71.8690  221.2889 H   0  0  0  0  0  0  0  0  0  0  0  0
  137.8311   69.6164  222.1885 H   0  0  0  0  0  0  0  0  0  0  0  0
  139.7805   69.2996  223.7648 H   0  0  0  0  0  0  0  0  0  0  0  0
  141.1099   71.3276  224.3412 H   0  0  0  0  0  0  0  0  0  0  0  0
  140.8979   77.8519  219.6662 H   0  0  0  0  0  0  0  0  0  0  0  0
  139.6918   77.2994  220.9284 H   0  0  0  0  0  0  0  0  0  0  0  0
  140.8433   77.1669  223.3607 H   0  0  0  0  0  0  0  0  0  0  0  0
  141.7278   78.7299  225.0317 H   0  0  0  0  0  0  0  0  0  0  0  0
  142.7183   80.9076  224.3617 H   0  0  0  0  0  0  0  0  0  0  0  0
  142.7838   81.4765  221.9356 H   0  0  0  0  0  0  0  0  0  0  0  0
  141.8935   79.9092  220.2572 H   0  0  0  0  0  0  0  0  0  0  0  0
  1  2  2  0
  2  3  1  0
  3  4  2  0
  4  5  1  0
  5  6  1  0
  5  7  2  0
  7  8  1  0
  8  9  2  0
  9 10  1  0
 10 11  2  0
 11 12  1  0
 12 13  2  0
 13 14  1  0
 14 15  2  0
 15 16  1  0
 16 17  2  0
 17 18  1  0
 18 19  2  0
 11 20  1  0
 20 21  1  0
 21 22  1  0
 22 23  2  0
 23 24  1  0
 24 25  2  0
 25 26  1  0
 26 27  2  0
 20  2  1  0
 27 22  1  0
  9  3  1  0
 19 14  1  0
  4 28  1  0
  6 29  1  0
  7 30  1  0
  8 31  1  0
 12 32  1  0
 13 33  1  0
 15 34  1  0
 16 35  1  0
 17 36  1  0
 18 37  1  0
 21 38  1  0
 21 39  1  0
 23 40  1  0
 24 41  1  0
 25 42  1  0
 26 43  1  0
 27 44  1  0
M  END
>  <smiles>  (12) 
O=c1c2cc(O)ccc2nc(/C=C/c2ccccn2)n1Cc1ccccc1

>  <score_type>  (12) 
oracle

>  <origin>  (12) 
autodockgpu

>  <m_score__min__energy>  (12) 
-7.9500000000000002

>  <m_primary>  (12) 
energy

>  <meeko>  (12) 
{"free_energy": -7.65, "intermolecular_energy": -9.44, "internal_energy": -1.1, "cluster_size": 19, "cluster_id": 1, "rank_in_cluster": 13}

>  <energy>  (12) 
-7.68

>  <cluster_rmsd>  (12) 
0.55

>  <rmsd>  (12) 
271.07

>  <cluster>  (12) 
1

$$$$

     RDKit          3D

 44 47  0  0  0  0  0  0  0  0999 V2000
  142.9990   76.5100  219.9690 O   0  0  0  0  0  0  0  0  0  0  0  0
  142.4850   75.4460  220.3920 C   0  0  0  0  0  0  0  0  0  0  0  0
  143.2870   74.3140  220.3070 C   0  0  0  0  0  0  0  0  0  0  0  0
  144.5760   74.3900  219.7770 C   0  0  0  0  0  0  0  0  0  0  0  0
  145.3540   73.2490  219.7020 C   0  0  0  0  0  0  0  0  0  0  0  0
  146.6300   73.3910  219.1640 O   0  0  0  0  0  0  0  0  0  0  0  0
  144.9010   72.0220  220.1360 C   0  0  0  0  0  0  0  0  0  0  0  0
  143.6160   71.9870  220.6550 C   0  0  0  0  0  0  0  0  0  0  0  0
  142.8160   73.0960  220.7450 C   0  0  0  0  0  0  0  0  0  0  0  0
  141.5720   73.0710  221.2470 N   0  0  0  0  0  0  0  0  0  0  0  0
  140.8090   74.1830  221.3220 C   0  0  0  0  0  0  0  0  0  0  0  0
  139.4880   74.0210  221.9110 C   0  0  0  0  0  0  0  0  0  0  0  0
  138.9640   72.7900  221.9820 C   0  0  0  0  0  0  0  0  0  0  0  0
  139.2930   71.9150  223.1240 C   0  0  0  0  0  0  0  0  0  0  0  0
  138.4970   70.8430  223.4630 C   0  0  0  0  0  0  0  0  0  0  0  0
  138.8290   70.0340  224.5440 C   0  0  0  0  0  0  0  0  0  0  0  0
  139.9740   70.2920  225.3040 C   0  0  0  0  0  0  0  0  0  0  0  0
  140.7210   71.3800  224.9050 C   0  0  0  0  0  0  0  0  0  0  0  0
  140.3830   72.1520  223.8560 N   0  0  0  0  0  0  0  0  0  0  0  0
  141.2250   75.3920  220.9060 N   0  0  0  0  0  0  0  0  0  0  0  0
  140.4250   76.5850  220.9450 C   0  0  0  0  0  0  0  0  0  0  0  0
  141.0380   77.6990  221.7120 C   0  0  0  0  0  0  0  0  0  0  0  0
  141.4800   78.8490  221.0460 C   0  0  0  0  0  0  0  0  0  0  0  0
  142.0540   79.9070  221.7250 C   0  0  0  0  0  0  0  0  0  0  0  0
  142.2190   79.8860  223.0910 C   0  0  0  0  0  0  0  0  0  0  0  0
  141.7900   78.7630  223.7640 C   0  0  0  0  0  0  0  0  0  0  0  0
  141.2130   77.6980  223.0740 C   0  0  0  0  0  0  0  0  0  0  0  0
  144.9712   75.3527  219.4207 H   0  0  0  0  0  0  0  0  0  0  0  0
  147.0660   74.2610  218.9260 H   0  0  0  0  0  0  0  0  0  0  0  0
  145.5256   71.1187  220.0739 H   0  0  0  0  0  0  0  0  0  0  0  0
  143.2202   71.0244  221.0111 H   0  0  0  0  0  0  0  0  0  0  0  0
  138.9315   74.8909  222.2899 H   0  0  0  0  0  0  0  0  0  0  0  0
  138.2895   72.4320  221.1902 H   0  0  0  0  0  0  0  0  0  0  0  0
  137.5932   70.6257  222.8749 H   0  0  0  0  0  0  0  0  0  0  0  0
  138.1839   69.1818  224.8042 H   0  0  0  0  0  0  0  0  0  0  0  0
  140.2599   69.6680  226.1636 H   0  0  0  0  0  0  0  0  0  0  0  0
  141.6326   71.6276  225.4685 H   0  0  0  0  0  0  0  0  0  0  0  0
  140.2612   76.9255  219.9119 H   0  0  0  0  0  0  0  0  0  0  0  0
  139.4881   76.3230  221.4585 H   0  0  0  0  0  0  0  0  0  0  0  0
  141.3673   78.9118  219.9536 H   0  0  0  0  0  0  0  0  0  0  0  0
  142.3877   80.7890  221.1587 H   0  0  0  0  0  0  0  0  0  0  0  0
  142.6755   80.7326  223.6247 H   0  0  0  0  0  0  0  0  0  0  0  0
  141.9039   78.7062  224.8566 H   0  0  0  0  0  0  0  0  0  0  0  0
  140.8833   76.8180  223.6458 H   0  0  0  0  0  0  0  0  0  0  0  0
  1  2  2  0
  2  3  1  0
  3  4  2  0
  4  5  1  0
  5  6  1  0
  5  7  2  0
  7  8  1  0
  8  9  2  0
  9 10  1  0
 10 11  2  0
 11 12  1  0
 12 13  2  0
 13 14  1  0
 14 15  2  0
 15 16  1  0
 16 17  2  0
 17 18  1  0
 18 19  2  0
 11 20  1  0
 20 21  1  0
 21 22  1  0
 22 23  2  0
 23 24  1  0
 24 25  2  0
 25 26  1  0
 26 27  2  0
 20  2  1  0
 27 22  1  0
  9  3  1  0
 19 14  1  0
  4 28  1  0
  6 29  1  0
  7 30  1  0
  8 31  1  0
 12 32  1  0
 13 33  1  0
 15 34  1  0
 16 35  1  0
 17 36  1  0
 18 37  1  0
 21 38  1  0
 21 39  1  0
 23 40  1  0
 24 41  1  0
 25 42  1  0
 26 43  1  0
 27 44  1  0
M  END
>  <smiles>  (13) 
O=c1c2cc(O)ccc2nc(/C=C/c2ccccn2)n1Cc1ccccc1

>  <score_type>  (13) 
oracle

>  <origin>  (13) 
autodockgpu

>  <m_score__min__energy>  (13) 
-7.9500000000000002

>  <m_primary>  (13) 
energy

>  <meeko>  (13) 
{"free_energy": -7.89, "intermolecular_energy": -9.68, "internal_energy": -1.11, "cluster_size": 19, "cluster_id": 1, "rank_in_cluster": 3}

>  <energy>  (13) 
-7.65

>  <cluster_rmsd>  (13) 
1.18

>  <rmsd>  (13) 
270.92

>  <cluster>  (13) 
1

$$$$

     RDKit          3D

 44 47  0  0  0  0  0  0  0  0999 V2000
  143.2620   76.8740  219.5020 O   0  0  0  0  0  0  0  0  0  0  0  0
  142.6250   75.9600  220.0830 C   0  0  0  0  0  0  0  0  0  0  0  0
  143.2300   74.7090  220.0800 C   0  0  0  0  0  0  0  0  0  0  0  0
  144.4650   74.5140  219.4600 C   0  0  0  0  0  0  0  0  0  0  0  0
  145.0460   73.2590  219.4710 C   0  0  0  0  0  0  0  0  0  0  0  0
  146.2780   73.1300  218.8360 O   0  0  0  0  0  0  0  0  0  0  0  0
  144.4450   72.1770  220.0770 C   0  0  0  0  0  0  0  0  0  0  0  0
  143.2190   72.4110  220.6800 C   0  0  0  0  0  0  0  0  0  0  0  0
  142.6120   73.6400  220.6910 C   0  0  0  0  0  0  0  0  0  0  0  0
  141.4270   73.8750  221.2730 N   0  0  0  0  0  0  0  0  0  0  0  0
  140.8570   75.0980  221.2650 C   0  0  0  0  0  0  0  0  0  0  0  0
  139.5810   75.2210  221.9550 C   0  0  0  0  0  0  0  0  0  0  0  0
  138.6660   74.2580  221.7860 C   0  0  0  0  0  0  0  0  0  0  0  0
  138.9570   72.8800  222.2240 C   0  0  0  0  0  0  0  0  0  0  0  0
  138.2260   71.8070  221.7630 C   0  0  0  0  0  0  0  0  0  0  0  0
  138.5220   70.5170  222.1920 C   0  0  0  0  0  0  0  0  0  0  0  0
  139.5630   70.2860  223.0950 C   0  0  0  0  0  0  0  0  0  0  0  0
  140.2500   71.4070  223.5120 C   0  0  0  0  0  0  0  0  0  0  0  0
  139.9480   72.6480  223.0860 N   0  0  0  0  0  0  0  0  0  0  0  0
  141.4210   76.1700  220.6810 N   0  0  0  0  0  0  0  0  0  0  0  0
  140.8230   77.4770  220.6310 C   0  0  0  0  0  0  0  0  0  0  0  0
  141.3290   78.4130  221.6670 C   0  0  0  0  0  0  0  0  0  0  0  0
  141.8620   79.6520  221.2920 C   0  0  0  0  0  0  0  0  0  0  0  0
  142.3400   80.5510  222.2260 C   0  0  0  0  0  0  0  0  0  0  0  0
  142.3160   80.2740  223.5740 C   0  0  0  0  0  0  0  0  0  0  0  0
  141.7960   79.0600  223.9630 C   0  0  0  0  0  0  0  0  0  0  0  0
  141.3150   78.1570  223.0160 C   0  0  0  0  0  0  0  0  0  0  0  0
  144.9738   75.3543  218.9650 H   0  0  0  0  0  0  0  0  0  0  0  0
  146.8110   73.8820  218.4460 H   0  0  0  0  0  0  0  0  0  0  0  0
  144.9129   71.1815  220.0819 H   0  0  0  0  0  0  0  0  0  0  0  0
  142.7089   71.5704  221.1732 H   0  0  0  0  0  0  0  0  0  0  0  0
  139.3730   76.0864  222.6013 H   0  0  0  0  0  0  0  0  0  0  0  0
  137.6977   74.4946  221.3207 H   0  0  0  0  0  0  0  0  0  0  0  0
  137.4034   71.9712  221.0515 H   0  0  0  0  0  0  0  0  0  0  0  0
  137.9299   69.6695  221.8161 H   0  0  0  0  0  0  0  0  0  0  0  0
  139.8179   69.2765  223.4500 H   0  0  0  0  0  0  0  0  0  0  0  0
  141.0800   71.2818  224.2229 H   0  0  0  0  0  0  0  0  0  0  0  0
  141.0267   77.9129  219.6418 H   0  0  0  0  0  0  0  0  0  0  0  0
  139.7480   77.3425  220.8215 H   0  0  0  0  0  0  0  0  0  0  0  0
  141.9013   79.9169  220.2251 H   0  0  0  0  0  0  0  0  0  0  0  0
  142.7501   81.5125  221.8836 H   0  0  0  0  0  0  0  0  0  0  0  0
  142.6976   80.9948  224.3121 H   0  0  0  0  0  0  0  0  0  0  0  0
  141.7597   78.8001  225.0312 H   0  0  0  0  0  0  0  0  0  0  0  0
  140.9063   77.1972  223.3648 H   0  0  0  0  0  0  0  0  0  0  0  0
  1  2  2  0
  2  3  1  0
  3  4  2  0
  4  5  1  0
  5  6  1  0
  5  7  2  0
  7  8  1  0
  8  9  2  0
  9 10  1  0
 10 11  2  0
 11 12  1  0
 12 13  2  0
 13 14  1  0
 14 15  2  0
 15 16  1  0
 16 17  2  0
 17 18  1  0
 18 19  2  0
 11 20  1  0
 20 21  1  0
 21 22  1  0
 22 23  2  0
 23 24  1  0
 24 25  2  0
 25 26  1  0
 26 27  2  0
 20  2  1  0
 27 22  1  0
  9  3  1  0
 19 14  1  0
  4 28  1  0
  6 29  1  0
  7 30  1  0
  8 31  1  0
 12 32  1  0
 13 33  1  0
 15 34  1  0
 16 35  1  0
 17 36  1  0
 18 37  1  0
 21 38  1  0
 21 39  1  0
 23 40  1  0
 24 41  1  0
 25 42  1  0
 26 43  1  0
 27 44  1  0
M  END
>  <smiles>  (14) 
O=c1c2cc(O)ccc2nc(/C=C/c2ccccn2)n1Cc1ccccc1

>  <score_type>  (14) 
oracle

>  <origin>  (14) 
autodockgpu

>  <m_score__min__energy>  (14) 
-7.9500000000000002

>  <m_primary>  (14) 
energy

>  <meeko>  (14) 
{"free_energy": -7.62, "intermolecular_energy": -9.41, "internal_energy": -1.09, "cluster_size": 19, "cluster_id": 1, "rank_in_cluster": 16}

>  <energy>  (14) 
-7.65

>  <cluster_rmsd>  (14) 
1.17

>  <rmsd>  (14) 
270.89

>  <cluster>  (14) 
1

$$$$

     RDKit          3D

 44 47  0  0  0  0  0  0  0  0999 V2000
  142.8920   76.3110  220.0630 O   0  0  0  0  0  0  0  0  0  0  0  0
  142.4430   75.2120  220.4730 C   0  0  0  0  0  0  0  0  0  0  0  0
  143.3020   74.1270  220.3500 C   0  0  0  0  0  0  0  0  0  0  0  0
  144.5750   74.2820  219.7990 C   0  0  0  0  0  0  0  0  0  0  0  0
  145.4110   73.1870  219.6870 C   0  0  0  0  0  0  0  0  0  0  0  0
  146.6680   73.4080  219.1300 O   0  0  0  0  0  0  0  0  0  0  0  0
  145.0330   71.9290  220.1030 C   0  0  0  0  0  0  0  0  0  0  0  0
  143.7610   71.8140  220.6430 C   0  0  0  0  0  0  0  0  0  0  0  0
  142.9040   72.8770  220.7710 C   0  0  0  0  0  0  0  0  0  0  0  0
  141.6730   72.7750  221.2930 N   0  0  0  0  0  0  0  0  0  0  0  0
  140.8540   73.8420  221.4040 C   0  0  0  0  0  0  0  0  0  0  0  0
  139.5540   73.5990  222.0130 C   0  0  0  0  0  0  0  0  0  0  0  0
  139.1500   72.3320  222.1760 C   0  0  0  0  0  0  0  0  0  0  0  0
  139.4880   71.6040  223.4140 C   0  0  0  0  0  0  0  0  0  0  0  0
  140.6650   71.8370  224.0900 C   0  0  0  0  0  0  0  0  0  0  0  0
  140.9580   71.1370  225.2550 C   0  0  0  0  0  0  0  0  0  0  0  0
  140.0670   70.1870  225.7600 C   0  0  0  0  0  0  0  0  0  0  0  0
  138.9110   70.0070  225.0310 C   0  0  0  0  0  0  0  0  0  0  0  0
  138.6440   70.6950  223.9050 N   0  0  0  0  0  0  0  0  0  0  0  0
  141.1980   75.0800  221.0070 N   0  0  0  0  0  0  0  0  0  0  0  0
  140.3360   76.2280  221.0850 C   0  0  0  0  0  0  0  0  0  0  0  0
  140.9560   77.4060  221.7420 C   0  0  0  0  0  0  0  0  0  0  0  0
  141.2950   78.5340  220.9850 C   0  0  0  0  0  0  0  0  0  0  0  0
  141.8720   79.6500  221.5600 C   0  0  0  0  0  0  0  0  0  0  0  0
  142.1410   79.7110  222.9090 C   0  0  0  0  0  0  0  0  0  0  0  0
  141.8150   78.6110  223.6700 C   0  0  0  0  0  0  0  0  0  0  0  0
  141.2340   77.4880  223.0850 C   0  0  0  0  0  0  0  0  0  0  0  0
  144.9115   75.2713  219.4554 H   0  0  0  0  0  0  0  0  0  0  0  0
  147.0900   74.3040  218.9890 H   0  0  0  0  0  0  0  0  0  0  0  0
  145.7043   71.0624  220.0116 H   0  0  0  0  0  0  0  0  0  0  0  0
  143.4237   70.8243  220.9846 H   0  0  0  0  0  0  0  0  0  0  0  0
  138.9174   74.4373  222.3323 H   0  0  0  0  0  0  0  0  0  0  0  0
  138.5665   71.8347  221.3871 H   0  0  0  0  0  0  0  0  0  0  0  0
  141.3778   72.5816  223.7058 H   0  0  0  0  0  0  0  0  0  0  0  0
  141.9017   71.3334  225.7849 H   0  0  0  0  0  0  0  0  0  0  0  0
  140.2743   69.6196  226.6793 H   0  0  0  0  0  0  0  0  0  0  0  0
  138.1752   69.2697  225.3844 H   0  0  0  0  0  0  0  0  0  0  0  0
  140.0479   76.5141  220.0627 H   0  0  0  0  0  0  0  0  0  0  0  0
  139.4737   75.9367  221.7027 H   0  0  0  0  0  0  0  0  0  0  0  0
  141.0966   78.5316  219.9030 H   0  0  0  0  0  0  0  0  0  0  0  0
  142.1228   80.5117  220.9239 H   0  0  0  0  0  0  0  0  0  0  0  0
  142.5984   80.6035  223.3609 H   0  0  0  0  0  0  0  0  0  0  0  0
  142.0154   78.6189  224.7516 H   0  0  0  0  0  0  0  0  0  0  0  0
  140.9870   76.6293  223.7265 H   0  0  0  0  0  0  0  0  0  0  0  0
  1  2  2  0
  2  3  1  0
  3  4  2  0
  4  5  1  0
  5  6  1  0
  5  7  2  0
  7  8  1  0
  8  9  2  0
  9 10  1  0
 10 11  2  0
 11 12  1  0
 12 13  2  0
 13 14  1  0
 14 15  2  0
 15 16  1  0
 16 17  2  0
 17 18  1  0
 18 19  2  0
 11 20  1  0
 20 21  1  0
 21 22  1  0
 22 23  2  0
 23 24  1  0
 24 25  2  0
 25 26  1  0
 26 27  2  0
 20  2  1  0
 27 22  1  0
  9  3  1  0
 19 14  1  0
  4 28  1  0
  6 29  1  0
  7 30  1  0
  8 31  1  0
 12 32  1  0
 13 33  1  0
 15 34  1  0
 16 35  1  0
 17 36  1  0
 18 37  1  0
 21 38  1  0
 21 39  1  0
 23 40  1  0
 24 41  1  0
 25 42  1  0
 26 43  1  0
 27 44  1  0
M  END
>  <smiles>  (15) 
O=c1c2cc(O)ccc2nc(/C=C/c2ccccn2)n1Cc1ccccc1

>  <score_type>  (15) 
oracle

>  <origin>  (15) 
autodockgpu

>  <m_score__min__energy>  (15) 
-7.9500000000000002

>  <m_primary>  (15) 
energy

>  <meeko>  (15) 
{"free_energy": -7.89, "intermolecular_energy": -9.68, "internal_energy": -1.04, "cluster_size": 19, "cluster_id": 1, "rank_in_cluster": 2}

>  <energy>  (15) 
-7.65

>  <cluster_rmsd>  (15) 
1.18

>  <rmsd>  (15) 
270.92

>  <cluster>  (15) 
1

$$$$

     RDKit          3D

 44 47  0  0  0  0  0  0  0  0999 V2000
  143.1600   76.9030  219.6100 O   0  0  0  0  0  0  0  0  0  0  0  0
  142.5370   75.9560  220.1510 C   0  0  0  0  0  0  0  0  0  0  0  0
  143.1830   74.7260  220.1410 C   0  0  0  0  0  0  0  0  0  0  0  0
  144.4430   74.5860  219.5570 C   0  0  0  0  0  0  0  0  0  0  0  0
  145.0650   73.3500  219.5600 C   0  0  0  0  0  0  0  0  0  0  0  0
  146.3200   73.2760  218.9620 O   0  0  0  0  0  0  0  0  0  0  0  0
  144.4830   72.2360  220.1240 C   0  0  0  0  0  0  0  0  0  0  0  0
  143.2310   72.4160  220.6930 C   0  0  0  0  0  0  0  0  0  0  0  0
  142.5830   73.6230  220.7100 C   0  0  0  0  0  0  0  0  0  0  0  0
  141.3730   73.8060  221.2580 N   0  0  0  0  0  0  0  0  0  0  0  0
  140.7620   75.0100  221.2580 C   0  0  0  0  0  0  0  0  0  0  0  0
  139.4630   75.0760  221.9100 C   0  0  0  0  0  0  0  0  0  0  0  0
  138.6110   74.0560  221.7440 C   0  0  0  0  0  0  0  0  0  0  0  0
  138.9160   72.7370  222.3320 C   0  0  0  0  0  0  0  0  0  0  0  0
  138.1530   71.6260  222.0470 C   0  0  0  0  0  0  0  0  0  0  0  0
  138.4630   70.3950  222.6150 C   0  0  0  0  0  0  0  0  0  0  0  0
  139.5500   70.2630  223.4830 C   0  0  0  0  0  0  0  0  0  0  0  0
  140.2660   71.4160  223.7210 C   0  0  0  0  0  0  0  0  0  0  0  0
  139.9510   72.6000  223.1620 N   0  0  0  0  0  0  0  0  0  0  0  0
  141.3080   76.1130  220.7150 N   0  0  0  0  0  0  0  0  0  0  0  0
  140.6690   77.4000  220.6730 C   0  0  0  0  0  0  0  0  0  0  0  0
  141.2450   78.3930  221.6150 C   0  0  0  0  0  0  0  0  0  0  0  0
  141.2310   78.1430  222.9930 C   0  0  0  0  0  0  0  0  0  0  0  0
  141.7590   79.0420  223.9000 C   0  0  0  0  0  0  0  0  0  0  0  0
  142.3280   80.2280  223.4950 C   0  0  0  0  0  0  0  0  0  0  0  0
  142.3520   80.4910  222.1440 C   0  0  0  0  0  0  0  0  0  0  0  0
  141.8170   79.5820  221.2330 C   0  0  0  0  0  0  0  0  0  0  0  0
  144.9388   75.4535  219.0969 H   0  0  0  0  0  0  0  0  0  0  0  0
  146.8330   74.0520  218.5920 H   0  0  0  0  0  0  0  0  0  0  0  0
  144.9841   71.2568  220.1231 H   0  0  0  0  0  0  0  0  0  0  0  0
  142.7347   71.5485  221.1524 H   0  0  0  0  0  0  0  0  0  0  0  0
  139.1867   75.9446  222.5258 H   0  0  0  0  0  0  0  0  0  0  0  0
  137.6842   74.2012  221.1696 H   0  0  0  0  0  0  0  0  0  0  0  0
  137.2935   71.7130  221.3661 H   0  0  0  0  0  0  0  0  0  0  0  0
  137.8458   69.5157  222.3784 H   0  0  0  0  0  0  0  0  0  0  0  0
  139.8167   69.3015  223.9461 H   0  0  0  0  0  0  0  0  0  0  0  0
  141.1325   71.3672  224.3969 H   0  0  0  0  0  0  0  0  0  0  0  0
  140.7611   77.7984  219.6518 H   0  0  0  0  0  0  0  0  0  0  0  0
  139.6228   77.2451  220.9754 H   0  0  0  0  0  0  0  0  0  0  0  0
  140.7881   77.2065  223.3630 H   0  0  0  0  0  0  0  0  0  0  0  0
  141.7236   78.8036  224.9733 H   0  0  0  0  0  0  0  0  0  0  0  0
  142.7474   80.9383  224.2228 H   0  0  0  0  0  0  0  0  0  0  0  0
  142.7980   81.4282  221.7797 H   0  0  0  0  0  0  0  0  0  0  0  0
  141.8544   79.8274  220.1614 H   0  0  0  0  0  0  0  0  0  0  0  0
  1  2  2  0
  2  3  1  0
  3  4  2  0
  4  5  1  0
  5  6  1  0
  5  7  2  0
  7  8  1  0
  8  9  2  0
  9 10  1  0
 10 11  2  0
 11 12  1  0
 12 13  2  0
 13 14  1  0
 14 15  2  0
 15 16  1  0
 16 17  2  0
 17 18  1  0
 18 19  2  0
 11 20  1  0
 20 21  1  0
 21 22  1  0
 22 23  2  0
 23 24  1  0
 24 25  2  0
 25 26  1  0
 26 27  2  0
 20  2  1  0
 27 22  1  0
  9  3  1  0
 19 14  1  0
  4 28  1  0
  6 29  1  0
  7 30  1  0
  8 31  1  0
 12 32  1  0
 13 33  1  0
 15 34  1  0
 16 35  1  0
 17 36  1  0
 18 37  1  0
 21 38  1  0
 21 39  1  0
 23 40  1  0
 24 41  1  0
 25 42  1  0
 26 43  1  0
 27 44  1  0
M  END
>  <smiles>  (16) 
O=c1c2cc(O)ccc2nc(/C=C/c2ccccn2)n1Cc1ccccc1

>  <score_type>  (16) 
oracle

>  <origin>  (16) 
autodockgpu

>  <m_score__min__energy>  (16) 
-7.9500000000000002

>  <m_primary>  (16) 
energy

>  <meeko>  (16) 
{"free_energy": -7.65, "intermolecular_energy": -9.44, "internal_energy": -1.12, "cluster_size": 19, "cluster_id": 1, "rank_in_cluster": 14}

>  <energy>  (16) 
-7.62

>  <cluster_rmsd>  (16) 
1.22

>  <rmsd>  (16) 
270.87

>  <cluster>  (16) 
1

$$$$

     RDKit          3D

 44 47  0  0  0  0  0  0  0  0999 V2000
  142.9730   76.4200  219.9290 O   0  0  0  0  0  0  0  0  0  0  0  0
  142.4970   75.3480  220.3760 C   0  0  0  0  0  0  0  0  0  0  0  0
  143.3300   74.2380  220.2920 C   0  0  0  0  0  0  0  0  0  0  0  0
  144.6070   74.3440  219.7400 C   0  0  0  0  0  0  0  0  0  0  0  0
  145.4160   73.2250  219.6680 C   0  0  0  0  0  0  0  0  0  0  0  0
  146.6790   73.3960  219.1070 O   0  0  0  0  0  0  0  0  0  0  0  0
  145.0070   71.9920  220.1260 C   0  0  0  0  0  0  0  0  0  0  0  0
  143.7310   71.9270  220.6670 C   0  0  0  0  0  0  0  0  0  0  0  0
  142.9010   73.0140  220.7550 C   0  0  0  0  0  0  0  0  0  0  0  0
  141.6660   72.9600  221.2770 N   0  0  0  0  0  0  0  0  0  0  0  0
  140.8730   74.0500  221.3500 C   0  0  0  0  0  0  0  0  0  0  0  0
  139.5660   73.8590  221.9630 C   0  0  0  0  0  0  0  0  0  0  0  0
  139.0380   72.6290  221.9740 C   0  0  0  0  0  0  0  0  0  0  0  0
  139.3280   71.7120  223.0930 C   0  0  0  0  0  0  0  0  0  0  0  0
  140.4300   71.8870  223.9020 C   0  0  0  0  0  0  0  0  0  0  0  0
  140.6800   71.0080  224.9500 C   0  0  0  0  0  0  0  0  0  0  0  0
  139.8220   69.9340  225.2020 C   0  0  0  0  0  0  0  0  0  0  0  0
  138.7420   69.8230  224.3530 C   0  0  0  0  0  0  0  0  0  0  0  0
  138.5160   70.6840  223.3430 N   0  0  0  0  0  0  0  0  0  0  0  0
  141.2470   75.2650  220.9100 N   0  0  0  0  0  0  0  0  0  0  0  0
  140.4130   76.4350  220.9470 C   0  0  0  0  0  0  0  0  0  0  0  0
  141.0070   77.5780  221.6870 C   0  0  0  0  0  0  0  0  0  0  0  0
  141.4300   78.7180  220.9940 C   0  0  0  0  0  0  0  0  0  0  0  0
  141.9850   79.8020  221.6470 C   0  0  0  0  0  0  0  0  0  0  0  0
  142.1480   79.8160  223.0140 C   0  0  0  0  0  0  0  0  0  0  0  0
  141.7380   78.7030  223.7130 C   0  0  0  0  0  0  0  0  0  0  0  0
  141.1800   77.6120  223.0490 C   0  0  0  0  0  0  0  0  0  0  0  0
  144.9682   75.3126  219.3641 H   0  0  0  0  0  0  0  0  0  0  0  0
  147.1010   74.2760  218.8870 H   0  0  0  0  0  0  0  0  0  0  0  0
  145.6570   71.1066  220.0661 H   0  0  0  0  0  0  0  0  0  0  0  0
  143.3690   70.9585  221.0425 H   0  0  0  0  0  0  0  0  0  0  0  0
  139.0244   74.7071  222.4073 H   0  0  0  0  0  0  0  0  0  0  0  0
  138.3881   72.3019  221.1490 H   0  0  0  0  0  0  0  0  0  0  0  0
  141.1158   72.7270  223.7175 H   0  0  0  0  0  0  0  0  0  0  0  0
  141.5631   71.1597  225.5880 H   0  0  0  0  0  0  0  0  0  0  0  0
  139.9971   69.2241  226.0238 H   0  0  0  0  0  0  0  0  0  0  0  0
  138.0342   68.9952  224.5073 H   0  0  0  0  0  0  0  0  0  0  0  0
  140.2206   76.7554  219.9124 H   0  0  0  0  0  0  0  0  0  0  0  0
  139.4937   76.1534  221.4815 H   0  0  0  0  0  0  0  0  0  0  0  0
  141.3176   78.7520  219.9003 H   0  0  0  0  0  0  0  0  0  0  0  0
  142.3046   80.6756  221.0599 H   0  0  0  0  0  0  0  0  0  0  0  0
  142.5888   80.6830  223.5279 H   0  0  0  0  0  0  0  0  0  0  0  0
  141.8520   78.6745  224.8067 H   0  0  0  0  0  0  0  0  0  0  0  0
  140.8645   76.7405  223.6414 H   0  0  0  0  0  0  0  0  0  0  0  0
  1  2  2  0
  2  3  1  0
  3  4  2  0
  4  5  1  0
  5  6  1  0
  5  7  2  0
  7  8  1  0
  8  9  2  0
  9 10  1  0
 10 11  2  0
 11 12  1  0
 12 13  2  0
 13 14  1  0
 14 15  2  0
 15 16  1  0
 16 17  2  0
 17 18  1  0
 18 19  2  0
 11 20  1  0
 20 21  1  0
 21 22  1  0
 22 23  2  0
 23 24  1  0
 24 25  2  0
 25 26  1  0
 26 27  2  0
 20  2  1  0
 27 22  1  0
  9  3  1  0
 19 14  1  0
  4 28  1  0
  6 29  1  0
  7 30  1  0
  8 31  1  0
 12 32  1  0
 13 33  1  0
 15 34  1  0
 16 35  1  0
 17 36  1  0
 18 37  1  0
 21 38  1  0
 21 39  1  0
 23 40  1  0
 24 41  1  0
 25 42  1  0
 26 43  1  0
 27 44  1  0
M  END
>  <smiles>  (17) 
O=c1c2cc(O)ccc2nc(/C=C/c2ccccn2)n1Cc1ccccc1

>  <score_type>  (17) 
oracle

>  <origin>  (17) 
autodockgpu

>  <m_score__min__energy>  (17) 
-7.9500000000000002

>  <m_primary>  (17) 
energy

>  <meeko>  (17) 
{"free_energy": -7.8, "intermolecular_energy": -9.59, "internal_energy": -1.09, "cluster_size": 19, "cluster_id": 1, "rank_in_cluster": 9}

>  <energy>  (17) 
-7.58

>  <cluster_rmsd>  (17) 
1.22

>  <rmsd>  (17) 
270.88

>  <cluster>  (17) 
1

$$$$

     RDKit          3D

 44 47  0  0  0  0  0  0  0  0999 V2000
  139.9500   74.3480  221.9210 O   0  0  0  0  0  0  0  0  0  0  0  0
  140.5990   75.1900  221.2530 C   0  0  0  0  0  0  0  0  0  0  0  0
  141.8720   74.7950  220.8590 C   0  0  0  0  0  0  0  0  0  0  0  0
  142.3680   73.5360  221.2040 C   0  0  0  0  0  0  0  0  0  0  0  0
  143.6380   73.1670  220.8000 C   0  0  0  0  0  0  0  0  0  0  0  0
  144.0740   71.8990  221.1750 O   0  0  0  0  0  0  0  0  0  0  0  0
  144.4460   74.0030  220.0620 C   0  0  0  0  0  0  0  0  0  0  0  0
  143.9190   75.2450  219.7410 C   0  0  0  0  0  0  0  0  0  0  0  0
  142.6650   75.6460  220.1220 C   0  0  0  0  0  0  0  0  0  0  0  0
  142.1470   76.8450  219.8150 N   0  0  0  0  0  0  0  0  0  0  0  0
  140.9070   77.2100  220.2070 C   0  0  0  0  0  0  0  0  0  0  0  0
  140.4570   78.5280  219.7840 C   0  0  0  0  0  0  0  0  0  0  0  0
  141.3240   79.5480  219.8380 C   0  0  0  0  0  0  0  0  0  0  0  0
  141.7350   80.0980  221.1440 C   0  0  0  0  0  0  0  0  0  0  0  0
  142.5600   79.3960  221.9940 C   0  0  0  0  0  0  0  0  0  0  0  0
  142.9320   79.9380  223.2200 C   0  0  0  0  0  0  0  0  0  0  0  0
  142.4770   81.2010  223.6100 C   0  0  0  0  0  0  0  0  0  0  0  0
  141.6550   81.8430  222.7090 C   0  0  0  0  0  0  0  0  0  0  0  0
  141.3050   81.3020  221.5270 N   0  0  0  0  0  0  0  0  0  0  0  0
  140.0990   76.4130  220.9280 N   0  0  0  0  0  0  0  0  0  0  0  0
  138.7870   76.7860  221.3840 C   0  0  0  0  0  0  0  0  0  0  0  0
  138.7740   77.9630  222.2890 C   0  0  0  0  0  0  0  0  0  0  0  0
  137.6540   78.8030  222.3310 C   0  0  0  0  0  0  0  0  0  0  0  0
  137.6020   79.9060  223.1610 C   0  0  0  0  0  0  0  0  0  0  0  0
  138.6510   80.2360  223.9900 C   0  0  0  0  0  0  0  0  0  0  0  0
  139.7610   79.4230  223.9630 C   0  0  0  0  0  0  0  0  0  0  0  0
  139.8080   78.3120  223.1230 C   0  0  0  0  0  0  0  0  0  0  0  0
  141.7518   72.8416  221.7939 H   0  0  0  0  0  0  0  0  0  0  0  0
  144.9470   71.6940  221.6210 H   0  0  0  0  0  0  0  0  0  0  0  0
  145.4551   73.7019  219.7442 H   0  0  0  0  0  0  0  0  0  0  0  0
  144.5361   75.9406  219.1533 H   0  0  0  0  0  0  0  0  0  0  0  0
  139.4279   78.6832  219.4279 H   0  0  0  0  0  0  0  0  0  0  0  0
  141.7293   79.9753  218.9089 H   0  0  0  0  0  0  0  0  0  0  0  0
  142.9270   78.4010  221.7020 H   0  0  0  0  0  0  0  0  0  0  0  0
  143.5914   79.3666  223.8898 H   0  0  0  0  0  0  0  0  0  0  0  0
  142.7568   81.6529  224.5731 H   0  0  0  0  0  0  0  0  0  0  0  0
  141.2684   82.8401  222.9668 H   0  0  0  0  0  0  0  0  0  0  0  0
  138.1685   77.0190  220.5047 H   0  0  0  0  0  0  0  0  0  0  0  0
  138.3975   75.9354  221.9626 H   0  0  0  0  0  0  0  0  0  0  0  0
  136.7922   78.5782  221.6854 H   0  0  0  0  0  0  0  0  0  0  0  0
  136.7005   80.5363  223.1597 H   0  0  0  0  0  0  0  0  0  0  0  0
  138.6035   81.1158  224.6486 H   0  0  0  0  0  0  0  0  0  0  0  0
  140.6198   79.6524  224.6110 H   0  0  0  0  0  0  0  0  0  0  0  0
  140.7132   77.6870  223.1281 H   0  0  0  0  0  0  0  0  0  0  0  0
  1  2  2  0
  2  3  1  0
  3  4  2  0
  4  5  1  0
  5  6  1  0
  5  7  2  0
  7  8  1  0
  8  9  2  0
  9 10  1  0
 10 11  2  0
 11 12  1  0
 12 13  2  0
 13 14  1  0
 14 15  2  0
 15 16  1  0
 16 17  2  0
 17 18  1  0
 18 19  2  0
 11 20  1  0
 20 21  1  0
 21 22  1  0
 22 23  2  0
 23 24  1  0
 24 25  2  0
 25 26  1  0
 26 27  2  0
 20  2  1  0
 27 22  1  0
  9  3  1  0
 19 14  1  0
  4 28  1  0
  6 29  1  0
  7 30  1  0
  8 31  1  0
 12 32  1  0
 13 33  1  0
 15 34  1  0
 16 35  1  0
 17 36  1  0
 18 37  1  0
 21 38  1  0
 21 39  1  0
 23 40  1  0
 24 41  1  0
 25 42  1  0
 26 43  1  0
 27 44  1  0
M  END
>  <smiles>  (18) 
O=c1c2cc(O)ccc2nc(/C=C/c2ccccn2)n1Cc1ccccc1

>  <score_type>  (18) 
oracle

>  <origin>  (18) 
autodockgpu

>  <m_score__min__energy>  (18) 
-7.9500000000000002

>  <m_primary>  (18) 
energy

>  <meeko>  (18) 
{"free_energy": -6.68, "intermolecular_energy": -8.47, "internal_energy": -1.76, "cluster_size": 1, "cluster_id": 2, "rank_in_cluster": 1}

>  <energy>  (18) 
-7.57

>  <cluster_rmsd>  (18) 
0.83

>  <rmsd>  (18) 
270.98

>  <cluster>  (18) 
1

$$$$

     RDKit          3D

 44 47  0  0  0  0  0  0  0  0999 V2000
  142.8190   76.2120  220.0330 O   0  0  0  0  0  0  0  0  0  0  0  0
  142.4160   75.1110  220.4830 C   0  0  0  0  0  0  0  0  0  0  0  0
  143.2990   74.0470  220.3510 C   0  0  0  0  0  0  0  0  0  0  0  0
  144.5460   74.2240  219.7510 C   0  0  0  0  0  0  0  0  0  0  0  0
  145.4070   73.1480  219.6320 C   0  0  0  0  0  0  0  0  0  0  0  0
  146.6370   73.3900  219.0240 O   0  0  0  0  0  0  0  0  0  0  0  0
  145.0790   71.8900  220.0880 C   0  0  0  0  0  0  0  0  0  0  0  0
  143.8310   71.7540  220.6770 C   0  0  0  0  0  0  0  0  0  0  0  0
  142.9510   72.7960  220.8130 C   0  0  0  0  0  0  0  0  0  0  0  0
  141.7430   72.6740  221.3830 N   0  0  0  0  0  0  0  0  0  0  0  0
  140.8990   73.7220  221.5010 C   0  0  0  0  0  0  0  0  0  0  0  0
  139.6290   73.4580  222.1620 C   0  0  0  0  0  0  0  0  0  0  0  0
  139.2530   72.1850  222.3400 C   0  0  0  0  0  0  0  0  0  0  0  0
  139.5820   71.4870  223.5980 C   0  0  0  0  0  0  0  0  0  0  0  0
  140.6810   71.8390  224.3510 C   0  0  0  0  0  0  0  0  0  0  0  0
  140.9690   71.1650  225.5330 C   0  0  0  0  0  0  0  0  0  0  0  0
  140.1510   70.1210  225.9770 C   0  0  0  0  0  0  0  0  0  0  0  0
  139.0720   69.8260  225.1720 C   0  0  0  0  0  0  0  0  0  0  0  0
  138.8090   70.4900  224.0310 N   0  0  0  0  0  0  0  0  0  0  0  0
  141.1940   74.9590  221.0650 N   0  0  0  0  0  0  0  0  0  0  0  0
  140.3050   76.0850  221.1500 C   0  0  0  0  0  0  0  0  0  0  0  0
  140.9250   77.3020  221.7330 C   0  0  0  0  0  0  0  0  0  0  0  0
  141.2430   78.3900  220.9100 C   0  0  0  0  0  0  0  0  0  0  0  0
  141.8180   79.5400  221.4160 C   0  0  0  0  0  0  0  0  0  0  0  0
  142.1070   79.6760  222.7550 C   0  0  0  0  0  0  0  0  0  0  0  0
  141.8010   78.6160  223.5800 C   0  0  0  0  0  0  0  0  0  0  0  0
  141.2220   77.4590  223.0650 C   0  0  0  0  0  0  0  0  0  0  0  0
  144.8429   75.2140  219.3746 H   0  0  0  0  0  0  0  0  0  0  0  0
  147.0740   74.2860  218.9350 H   0  0  0  0  0  0  0  0  0  0  0  0
  145.7697   71.0395  219.9901 H   0  0  0  0  0  0  0  0  0  0  0  0
  143.5334   70.7638  221.0525 H   0  0  0  0  0  0  0  0  0  0  0  0
  138.9923   74.2858  222.5076 H   0  0  0  0  0  0  0  0  0  0  0  0
  138.6988   71.6595  221.5483 H   0  0  0  0  0  0  0  0  0  0  0  0
  141.3343   72.6578  224.0153 H   0  0  0  0  0  0  0  0  0  0  0  0
  141.8493   71.4561  226.1249 H   0  0  0  0  0  0  0  0  0  0  0  0
  140.3555   69.5714  226.9077 H   0  0  0  0  0  0  0  0  0  0  0  0
  138.3963   69.0126  225.4750 H   0  0  0  0  0  0  0  0  0  0  0  0
  139.9556   76.3271  220.1354 H   0  0  0  0  0  0  0  0  0  0  0  0
  139.4849   75.7927  221.8222 H   0  0  0  0  0  0  0  0  0  0  0  0
  141.0294   78.3272  219.8328 H   0  0  0  0  0  0  0  0  0  0  0  0
  142.0509   80.3685  220.7309 H   0  0  0  0  0  0  0  0  0  0  0  0
  142.5643   80.5949  223.1507 H   0  0  0  0  0  0  0  0  0  0  0  0
  142.0162   78.6843  224.6566 H   0  0  0  0  0  0  0  0  0  0  0  0
  140.9922   76.6341  223.7555 H   0  0  0  0  0  0  0  0  0  0  0  0
  1  2  2  0
  2  3  1  0
  3  4  2  0
  4  5  1  0
  5  6  1  0
  5  7  2  0
  7  8  1  0
  8  9  2  0
  9 10  1  0
 10 11  2  0
 11 12  1  0
 12 13  2  0
 13 14  1  0
 14 15  2  0
 15 16  1  0
 16 17  2  0
 17 18  1  0
 18 19  2  0
 11 20  1  0
 20 21  1  0
 21 22  1  0
 22 23  2  0
 23 24  1  0
 24 25  2  0
 25 26  1  0
 26 27  2  0
 20  2  1  0
 27 22  1  0
  9  3  1  0
 19 14  1  0
  4 28  1  0
  6 29  1  0
  7 30  1  0
  8 31  1  0
 12 32  1  0
 13 33  1  0
 15 34  1  0
 16 35  1  0
 17 36  1  0
 18 37  1  0
 21 38  1  0
 21 39  1  0
 23 40  1  0
 24 41  1  0
 25 42  1  0
 26 43  1  0
 27 44  1  0
M  END
>  <smiles>  (19) 
O=c1c2cc(O)ccc2nc(/C=C/c2ccccn2)n1Cc1ccccc1

>  <score_type>  (19) 
oracle

>  <origin>  (19) 
autodockgpu

>  <m_score__min__energy>  (19) 
-7.9500000000000002

>  <m_primary>  (19) 
energy

>  <meeko>  (19) 
{"free_energy": -7.95, "intermolecular_energy": -9.74, "internal_energy": -1.0, "cluster_size": 19, "cluster_id": 1, "rank_in_cluster": 1}

>  <energy>  (19) 
-7.46

>  <cluster_rmsd>  (19) 
1.31

>  <rmsd>  (19) 
270.87

>  <cluster>  (19) 
1

$$$$

     RDKit          3D

 44 47  0  0  0  0  0  0  0  0999 V2000
  143.1850   76.8740  219.6200 O   0  0  0  0  0  0  0  0  0  0  0  0
  142.5450   75.9210  220.1290 C   0  0  0  0  0  0  0  0  0  0  0  0
  143.1810   74.6850  220.0990 C   0  0  0  0  0  0  0  0  0  0  0  0
  144.4480   74.5480  219.5300 C   0  0  0  0  0  0  0  0  0  0  0  0
  145.0590   73.3070  219.5130 C   0  0  0  0  0  0  0  0  0  0  0  0
  146.3220   73.2350  218.9320 O   0  0  0  0  0  0  0  0  0  0  0  0
  144.4580   72.1850  220.0410 C   0  0  0  0  0  0  0  0  0  0  0  0
  143.2000   72.3620  220.5960 C   0  0  0  0  0  0  0  0  0  0  0  0
  142.5630   73.5750  220.6320 C   0  0  0  0  0  0  0  0  0  0  0  0
  141.3460   73.7560  221.1670 N   0  0  0  0  0  0  0  0  0  0  0  0
  140.7460   74.9650  221.1870 C   0  0  0  0  0  0  0  0  0  0  0  0
  139.4370   75.0270  221.8210 C   0  0  0  0  0  0  0  0  0  0  0  0
  138.6070   73.9860  221.6780 C   0  0  0  0  0  0  0  0  0  0  0  0
  138.9140   72.7020  222.3370 C   0  0  0  0  0  0  0  0  0  0  0  0
  138.1080   71.5970  222.1740 C   0  0  0  0  0  0  0  0  0  0  0  0
  138.4210   70.3990  222.8060 C   0  0  0  0  0  0  0  0  0  0  0  0
  139.5550   70.2930  223.6160 C   0  0  0  0  0  0  0  0  0  0  0  0
  140.3120   71.4390  223.7320 C   0  0  0  0  0  0  0  0  0  0  0  0
  139.9940   72.5910  223.1130 N   0  0  0  0  0  0  0  0  0  0  0  0
  141.3090   76.0750  220.6780 N   0  0  0  0  0  0  0  0  0  0  0  0
  140.6820   77.3690  220.6580 C   0  0  0  0  0  0  0  0  0  0  0  0
  141.2580   78.3360  221.6260 C   0  0  0  0  0  0  0  0  0  0  0  0
  141.2470   78.0470  222.9970 C   0  0  0  0  0  0  0  0  0  0  0  0
  141.7750   78.9210  223.9280 C   0  0  0  0  0  0  0  0  0  0  0  0
  142.3400   80.1200  223.5560 C   0  0  0  0  0  0  0  0  0  0  0  0
  142.3600   80.4220  222.2130 C   0  0  0  0  0  0  0  0  0  0  0  0
  141.8250   79.5370  221.2780 C   0  0  0  0  0  0  0  0  0  0  0  0
  144.9577   75.4216  219.0976 H   0  0  0  0  0  0  0  0  0  0  0  0
  146.8410   74.0130  218.5750 H   0  0  0  0  0  0  0  0  0  0  0  0
  144.9501   71.2014  220.0231 H   0  0  0  0  0  0  0  0  0  0  0  0
  142.6894   71.4884  221.0275 H   0  0  0  0  0  0  0  0  0  0  0  0
  139.1364   75.9096  222.4047 H   0  0  0  0  0  0  0  0  0  0  0  0
  137.6964   74.0880  221.0693 H   0  0  0  0  0  0  0  0  0  0  0  0
  137.2115   71.6629  221.5401 H   0  0  0  0  0  0  0  0  0  0  0  0
  137.7686   69.5244  222.6669 H   0  0  0  0  0  0  0  0  0  0  0  0
  139.8254   69.3572  224.1270 H   0  0  0  0  0  0  0  0  0  0  0  0
  141.2160   71.4108  224.3581 H   0  0  0  0  0  0  0  0  0  0  0  0
  140.7872   77.7884  219.6465 H   0  0  0  0  0  0  0  0  0  0  0  0
  139.6317   77.2174  220.9476 H   0  0  0  0  0  0  0  0  0  0  0  0
  140.8065   77.0996  223.3412 H   0  0  0  0  0  0  0  0  0  0  0  0
  141.7430   78.6517  224.9940 H   0  0  0  0  0  0  0  0  0  0  0  0
  142.7593   80.8101  224.3030 H   0  0  0  0  0  0  0  0  0  0  0  0
  142.8023   81.3705  221.8744 H   0  0  0  0  0  0  0  0  0  0  0  0
  141.8587   79.8133  220.2138 H   0  0  0  0  0  0  0  0  0  0  0  0
  1  2  2  0
  2  3  1  0
  3  4  2  0
  4  5  1  0
  5  6  1  0
  5  7  2  0
  7  8  1  0
  8  9  2  0
  9 10  1  0
 10 11  2  0
 11 12  1  0
 12 13  2  0
 13 14  1  0
 14 15  2  0
 15 16  1  0
 16 17  2  0
 17 18  1  0
 18 19  2  0
 11 20  1  0
 20 21  1  0
 21 22  1  0
 22 23  2  0
 23 24  1  0
 24 25  2  0
 25 26  1  0
 26 27  2  0
 20  2  1  0
 27 22  1  0
  9  3  1  0
 19 14  1  0
  4 28  1  0
  6 29  1  0
  7 30  1  0
  8 31  1  0
 12 32  1  0
 13 33  1  0
 15 34  1  0
 16 35  1  0
 17 36  1  0
 18 37  1  0
 21 38  1  0
 21 39  1  0
 23 40  1  0
 24 41  1  0
 25 42  1  0
 26 43  1  0
 27 44  1  0
M  END
>  <smiles>  (20) 
O=c1c2cc(O)ccc2nc(/C=C/c2ccccn2)n1Cc1ccccc1

>  <score_type>  (20) 
oracle

>  <origin>  (20) 
autodockgpu

>  <m_score__min__energy>  (20) 
-7.9500000000000002

>  <m_primary>  (20) 
energy

>  <meeko>  (20) 
{"free_energy": -7.69, "intermolecular_energy": -9.48, "internal_energy": -1.09, "cluster_size": 19, "cluster_id": 1, "rank_in_cluster": 11}

>  <energy>  (20) 
-6.68

>  <cluster_rmsd>  (20) 
0.0

>  <rmsd>  (20) 
271.45

>  <cluster>  (20) 
2

$$$$
