
     RDKit          3D

 49 52  0  0  0  0  0  0  0  0999 V2000
  140.7100   73.1870  222.3420 O   0  0  0  0  0  0  0  0  0  0  0  0
  139.7250   72.5130  222.7420 C   0  0  0  0  0  0  0  0  0  0  0  0
  138.4750   72.7630  222.0960 N   0  0  0  0  0  0  0  0  0  0  0  0
  138.3460   73.7420  221.0340 C   0  0  0  0  0  0  0  0  0  0  0  0
  138.1920   75.1120  221.5490 C   0  0  0  0  0  0  0  0  0  0  0  0
  137.2030   75.5190  222.2130 O   0  0  0  0  0  0  0  0  0  0  0  0
  139.2330   76.0430  221.2770 N   0  0  0  0  0  0  0  0  0  0  0  0
  139.3240   76.9500  220.1300 C   0  0  0  0  0  0  0  0  0  0  0  0
  140.8260   77.0910  219.8910 C   0  0  2  0  0  0  0  0  0  0  0  0
  141.1600   76.7360  218.5880 O   0  0  0  0  0  0  0  0  0  0  0  0
  141.4540   76.1810  220.9300 C   0  0  0  0  0  0  0  0  0  0  0  0
  140.4320   76.3150  222.0550 C   0  0  1  0  0  0  0  0  0  0  0  0
  140.3990   77.6810  222.6310 C   0  0  0  0  0  0  0  0  0  0  0  0
  139.1650   78.2490  222.9360 C   0  0  0  0  0  0  0  0  0  0  0  0
  139.0590   79.5190  223.4770 C   0  0  0  0  0  0  0  0  0  0  0  0
  140.2060   80.2390  223.7200 C   0  0  0  0  0  0  0  0  0  0  0  0
  141.4290   79.7010  223.4300 C   0  0  0  0  0  0  0  0  0  0  0  0
  142.9010   80.6040  223.7320 Cl  0  0  0  0  0  0  0  0  0  0  0  0
  141.5100   78.4340  222.8910 C   0  0  0  0  0  0  0  0  0  0  0  0
  139.8310   71.5240  223.8070 C   0  0  0  0  0  0  0  0  0  0  0  0
  139.3870   70.2380  223.5350 C   0  0  0  0  0  0  0  0  0  0  0  0
  139.4970   69.3150  224.5620 C   0  0  0  0  0  0  0  0  0  0  0  0
  140.0170   69.6360  225.7950 C   0  0  0  0  0  0  0  0  0  0  0  0
  140.1100   68.6760  226.7990 C   0  0  0  0  0  0  0  0  0  0  0  0
  140.6390   69.0450  228.0220 C   0  0  0  0  0  0  0  0  0  0  0  0
  140.7330   68.1180  229.0080 F   0  0  0  0  0  0  0  0  0  0  0  0
  141.0690   70.3470  228.2440 C   0  0  0  0  0  0  0  0  0  0  0  0
  140.9750   71.3020  227.2380 C   0  0  0  0  0  0  0  0  0  0  0  0
  140.4480   70.9490  226.0110 C   0  0  0  0  0  0  0  0  0  0  0  0
  140.3430   71.8540  225.0110 N   0  0  0  0  0  0  0  0  0  0  0  0
  137.6570   72.2070  222.4230 H   0  0  0  0  0  0  0  0  0  0  0  0
  139.2469   73.7006  220.4042 H   0  0  0  0  0  0  0  0  0  0  0  0
  137.4407   73.4961  220.4596 H   0  0  0  0  0  0  0  0  0  0  0  0
  138.8265   76.5181  219.2492 H   0  0  0  0  0  0  0  0  0  0  0  0
  138.8312   77.9162  220.3133 H   0  0  0  0  0  0  0  0  0  0  0  0
  141.1856   78.1253  219.9951 H   0  0  0  0  0  0  0  0  0  0  0  0
  142.1310   76.9340  218.4850 H   0  0  0  0  0  0  0  0  0  0  0  0
  141.5315   75.1442  220.5707 H   0  0  0  0  0  0  0  0  0  0  0  0
  142.4858   76.4406  221.2091 H   0  0  0  0  0  0  0  0  0  0  0  0
  140.6071   75.6738  222.9315 H   0  0  0  0  0  0  0  0  0  0  0  0
  138.2485   77.6725  222.7417 H   0  0  0  0  0  0  0  0  0  0  0  0
  138.0723   79.9461  223.7092 H   0  0  0  0  0  0  0  0  0  0  0  0
  140.1389   81.2498  224.1486 H   0  0  0  0  0  0  0  0  0  0  0  0
  142.5014   78.0156  222.6628 H   0  0  0  0  0  0  0  0  0  0  0  0
  138.9693   69.9655  222.5546 H   0  0  0  0  0  0  0  0  0  0  0  0
  139.1551   68.2846  224.3849 H   0  0  0  0  0  0  0  0  0  0  0  0
  139.7696   67.6449  226.6229 H   0  0  0  0  0  0  0  0  0  0  0  0
  141.4870   70.6245  229.2229 H   0  0  0  0  0  0  0  0  0  0  0  0
  141.3179   72.3316  227.4180 H   0  0  0  0  0  0  0  0  0  0  0  0
  1  2  2  0
  2  3  1  0
  3  4  1  0
  4  5  1  0
  5  6  2  0
  5  7  1  0
  7  8  1  0
  8  9  1  0
  9 10  1  0
  9 11  1  0
 11 12  1  0
 12 13  1  0
 13 14  2  0
 14 15  1  0
 15 16  2  0
 16 17  1  0
 17 18  1  0
 17 19  2  0
  2 20  1  0
 20 21  2  0
 21 22  1  0
 22 23  2  0
 23 24  1  0
 24 25  2  0
 25 26  1  0
 25 27  1  0
 27 28  2  0
 28 29  1  0
 29 30  2  0
 12  7  1  0
 19 13  1  0
 30 20  1  0
 29 23  1  0
  3 31  1  0
  4 32  1  0
  4 33  1  0
  8 34  1  0
  8 35  1  0
  9 36  1  1
 10 37  1  0
 11 38  1  0
 11 39  1  0
 12 40  1  1
 14 41  1  0
 15 42  1  0
 16 43  1  0
 19 44  1  0
 21 45  1  0
 22 46  1  0
 24 47  1  0
 27 48  1  0
 28 49  1  0
M  END
>  <smiles>  (1) 
O=C(NCC(=O)N1C[C@H](O)C[C@H]1c1cccc(Cl)c1)c1ccc2cc(F)ccc2n1

>  <score_type>  (1) 
oracle

>  <origin>  (1) 
autodockgpu

>  <m_score__min__energy>  (1) 
-8.8399999999999999

>  <m_primary>  (1) 
energy

>  <meeko>  (1) 
{"free_energy": -8.49, "intermolecular_energy": -10.28, "internal_energy": -1.37, "cluster_size": 14, "cluster_id": 1, "rank_in_cluster": 9}

>  <energy>  (1) 
-8.84

>  <cluster_rmsd>  (1) 
0.0

>  <rmsd>  (1) 
270.76

>  <cluster>  (1) 
1

$$$$

     RDKit          3D

 49 52  0  0  0  0  0  0  0  0999 V2000
  141.0460   72.2190  221.4730 O   0  0  0  0  0  0  0  0  0  0  0  0
  140.2390   72.4090  222.4200 C   0  0  0  0  0  0  0  0  0  0  0  0
  139.3920   73.5560  222.3160 N   0  0  0  0  0  0  0  0  0  0  0  0
  139.4590   74.4550  221.1800 C   0  0  0  0  0  0  0  0  0  0  0  0
  139.0070   75.8150  221.5130 C   0  0  0  0  0  0  0  0  0  0  0  0
  137.9150   76.0870  222.0790 O   0  0  0  0  0  0  0  0  0  0  0  0
  139.8620   76.9000  221.1730 N   0  0  0  0  0  0  0  0  0  0  0  0
  139.6340   77.9050  220.1320 C   0  0  0  0  0  0  0  0  0  0  0  0
  141.0410   78.2700  219.6600 C   0  0  2  0  0  0  0  0  0  0  0  0
  141.1720   78.0780  218.2880 O   0  0  0  0  0  0  0  0  0  0  0  0
  141.9520   77.3690  220.4730 C   0  0  0  0  0  0  0  0  0  0  0  0
  141.1420   77.2640  221.7610 C   0  0  1  0  0  0  0  0  0  0  0  0
  141.0520   78.5580  222.4810 C   0  0  0  0  0  0  0  0  0  0  0  0
  142.2120   79.3090  222.6560 C   0  0  0  0  0  0  0  0  0  0  0  0
  142.2010   80.5250  223.3160 C   0  0  0  0  0  0  0  0  0  0  0  0
  141.0120   81.0050  223.8130 C   0  0  0  0  0  0  0  0  0  0  0  0
  139.8600   80.2860  223.6530 C   0  0  0  0  0  0  0  0  0  0  0  0
  138.3350   80.8820  224.2810 Cl  0  0  0  0  0  0  0  0  0  0  0  0
  139.8940   79.0760  222.9920 C   0  0  0  0  0  0  0  0  0  0  0  0
  140.1550   71.5190  223.5710 C   0  0  0  0  0  0  0  0  0  0  0  0
  139.5740   70.2740  223.3770 C   0  0  0  0  0  0  0  0  0  0  0  0
  139.5040   69.4450  224.4850 C   0  0  0  0  0  0  0  0  0  0  0  0
  139.9800   69.8170  225.7210 C   0  0  0  0  0  0  0  0  0  0  0  0
  139.8900   68.9520  226.8070 C   0  0  0  0  0  0  0  0  0  0  0  0
  140.3830   69.3690  228.0300 C   0  0  0  0  0  0  0  0  0  0  0  0
  140.3000   68.5350  229.0960 F   0  0  0  0  0  0  0  0  0  0  0  0
  140.9550   70.6270  228.1710 C   0  0  0  0  0  0  0  0  0  0  0  0
  141.0430   71.4880  227.0820 C   0  0  0  0  0  0  0  0  0  0  0  0
  140.5560   71.0850  225.8550 C   0  0  0  0  0  0  0  0  0  0  0  0
  140.6260   71.8980  224.7760 N   0  0  0  0  0  0  0  0  0  0  0  0
  138.7220   73.7180  223.0970 H   0  0  0  0  0  0  0  0  0  0  0  0
  140.5006   74.5048  220.8300 H   0  0  0  0  0  0  0  0  0  0  0  0
  138.7901   74.0609  220.4007 H   0  0  0  0  0  0  0  0  0  0  0  0
  139.0406   77.4856  219.3062 H   0  0  0  0  0  0  0  0  0  0  0  0
  139.0701   78.7754  220.4985 H   0  0  0  0  0  0  0  0  0  0  0  0
  141.2882   79.3307  219.8145 H   0  0  0  0  0  0  0  0  0  0  0  0
  140.2890   77.7500  217.9660 H   0  0  0  0  0  0  0  0  0  0  0  0
  142.0875   76.3876  219.9951 H   0  0  0  0  0  0  0  0  0  0  0  0
  142.9785   77.7430  220.6010 H   0  0  0  0  0  0  0  0  0  0  0  0
  141.5484   76.5781  222.5189 H   0  0  0  0  0  0  0  0  0  0  0  0
  143.1630   78.9247  222.2586 H   0  0  0  0  0  0  0  0  0  0  0  0
  143.1304   81.0998  223.4414 H   0  0  0  0  0  0  0  0  0  0  0  0
  140.9876   81.9699  224.3407 H   0  0  0  0  0  0  0  0  0  0  0  0
  138.9591   78.5090  222.8719 H   0  0  0  0  0  0  0  0  0  0  0  0
  139.1892   69.9615  222.3950 H   0  0  0  0  0  0  0  0  0  0  0  0
  139.0497   68.4496  224.3718 H   0  0  0  0  0  0  0  0  0  0  0  0
  139.4358   67.9564  226.6951 H   0  0  0  0  0  0  0  0  0  0  0  0
  141.3411   70.9446  229.1508 H   0  0  0  0  0  0  0  0  0  0  0  0
  141.4975   72.4830  227.1979 H   0  0  0  0  0  0  0  0  0  0  0  0
  1  2  2  0
  2  3  1  0
  3  4  1  0
  4  5  1  0
  5  6  2  0
  5  7  1  0
  7  8  1  0
  8  9  1  0
  9 10  1  0
  9 11  1  0
 11 12  1  0
 12 13  1  0
 13 14  2  0
 14 15  1  0
 15 16  2  0
 16 17  1  0
 17 18  1  0
 17 19  2  0
  2 20  1  0
 20 21  2  0
 21 22  1  0
 22 23  2  0
 23 24  1  0
 24 25  2  0
 25 26  1  0
 25 27  1  0
 27 28  2  0
 28 29  1  0
 29 30  2  0
 12  7  1  0
 19 13  1  0
 30 20  1  0
 29 23  1  0
  3 31  1  0
  4 32  1  0
  4 33  1  0
  8 34  1  0
  8 35  1  0
  9 36  1  6
 10 37  1  0
 11 38  1  0
 11 39  1  0
 12 40  1  1
 14 41  1  0
 15 42  1  0
 16 43  1  0
 19 44  1  0
 21 45  1  0
 22 46  1  0
 24 47  1  0
 27 48  1  0
 28 49  1  0
M  END
>  <smiles>  (2) 
O=C(NCC(=O)N1C[C@H](O)C[C@H]1c1cccc(Cl)c1)c1ccc2cc(F)ccc2n1

>  <score_type>  (2) 
oracle

>  <origin>  (2) 
autodockgpu

>  <m_score__min__energy>  (2) 
-8.8399999999999999

>  <m_primary>  (2) 
energy

>  <meeko>  (2) 
{"free_energy": -8.71, "intermolecular_energy": -10.5, "internal_energy": -1.3, "cluster_size": 14, "cluster_id": 1, "rank_in_cluster": 6}

>  <energy>  (2) 
-8.84

>  <cluster_rmsd>  (2) 
0.3

>  <rmsd>  (2) 
270.74

>  <cluster>  (2) 
1

$$$$

     RDKit          3D

 49 52  0  0  0  0  0  0  0  0999 V2000
  138.7280   72.7180  221.7080 O   0  0  0  0  0  0  0  0  0  0  0  0
  139.7860   72.3310  222.2690 C   0  0  0  0  0  0  0  0  0  0  0  0
  141.0150   72.7510  221.6720 N   0  0  0  0  0  0  0  0  0  0  0  0
  141.0430   73.5790  220.4810 C   0  0  0  0  0  0  0  0  0  0  0  0
  141.3390   74.9880  220.7840 C   0  0  0  0  0  0  0  0  0  0  0  0
  142.4370   75.5560  220.5400 O   0  0  0  0  0  0  0  0  0  0  0  0
  140.3170   75.7650  221.3970 N   0  0  0  0  0  0  0  0  0  0  0  0
  139.5570   75.4240  222.6020 C   0  0  0  0  0  0  0  0  0  0  0  0
  138.1940   76.0750  222.3730 C   0  0  2  0  0  0  0  0  0  0  0  0
  137.1710   75.1360  222.4620 O   0  0  0  0  0  0  0  0  0  0  0  0
  138.3060   76.6980  220.9940 C   0  0  0  0  0  0  0  0  0  0  0  0
  139.7890   77.0550  220.9830 C   0  0  1  0  0  0  0  0  0  0  0  0
  140.1240   78.1130  221.9680 C   0  0  0  0  0  0  0  0  0  0  0  0
  141.4600   78.3110  222.3090 C   0  0  0  0  0  0  0  0  0  0  0  0
  141.8450   79.2790  223.2200 C   0  0  0  0  0  0  0  0  0  0  0  0
  140.8810   80.0670  223.8050 C   0  0  0  0  0  0  0  0  0  0  0  0
  139.5630   79.8910  223.4850 C   0  0  0  0  0  0  0  0  0  0  0  0
  138.3210   80.8860  224.2210 Cl  0  0  0  0  0  0  0  0  0  0  0  0
  139.2020   78.9200  222.5750 C   0  0  0  0  0  0  0  0  0  0  0  0
  139.7820   71.4990  223.4650 C   0  0  0  0  0  0  0  0  0  0  0  0
  139.1010   70.2920  223.4030 C   0  0  0  0  0  0  0  0  0  0  0  0
  139.1100   69.5180  224.5520 C   0  0  0  0  0  0  0  0  0  0  0  0
  139.7540   69.9070  225.7040 C   0  0  0  0  0  0  0  0  0  0  0  0
  139.7380   69.0970  226.8360 C   0  0  0  0  0  0  0  0  0  0  0  0
  140.4000   69.5290  227.9710 C   0  0  0  0  0  0  0  0  0  0  0  0
  140.3900   68.7490  229.0790 F   0  0  0  0  0  0  0  0  0  0  0  0
  141.0670   70.7480  227.9800 C   0  0  0  0  0  0  0  0  0  0  0  0
  141.0810   71.5540  226.8460 C   0  0  0  0  0  0  0  0  0  0  0  0
  140.4240   71.1350  225.7060 C   0  0  0  0  0  0  0  0  0  0  0  0
  140.4180   71.8940  224.5870 N   0  0  0  0  0  0  0  0  0  0  0  0
  141.8940   72.4350  222.1320 H   0  0  0  0  0  0  0  0  0  0  0  0
  141.8172   73.1937  219.8011 H   0  0  0  0  0  0  0  0  0  0  0  0
  140.0450   73.5376  220.0204 H   0  0  0  0  0  0  0  0  0  0  0  0
  139.4573   74.3335  222.7064 H   0  0  0  0  0  0  0  0  0  0  0  0
  140.0445   75.7733  223.5241 H   0  0  0  0  0  0  0  0  0  0  0  0
  137.9418   76.8296  223.1326 H   0  0  0  0  0  0  0  0  0  0  0  0
  137.6030   74.2770  222.7220 H   0  0  0  0  0  0  0  0  0  0  0  0
  138.0533   75.9798  220.2001 H   0  0  0  0  0  0  0  0  0  0  0  0
  137.6253   77.5424  220.8109 H   0  0  0  0  0  0  0  0  0  0  0  0
  140.1697   77.4604  220.0339 H   0  0  0  0  0  0  0  0  0  0  0  0
  142.2304   77.6804  221.8412 H   0  0  0  0  0  0  0  0  0  0  0  0
  142.9067   79.4164  223.4727 H   0  0  0  0  0  0  0  0  0  0  0  0
  141.1708   80.8403  224.5317 H   0  0  0  0  0  0  0  0  0  0  0  0
  138.1376   78.7903  222.3293 H   0  0  0  0  0  0  0  0  0  0  0  0
  138.5813   69.9666  222.4897 H   0  0  0  0  0  0  0  0  0  0  0  0
  138.5810   68.5536  224.5429 H   0  0  0  0  0  0  0  0  0  0  0  0
  139.2093   68.1324  226.8280 H   0  0  0  0  0  0  0  0  0  0  0  0
  141.5880   71.0783  228.8908 H   0  0  0  0  0  0  0  0  0  0  0  0
  141.6114   72.5176  226.8575 H   0  0  0  0  0  0  0  0  0  0  0  0
  1  2  2  0
  2  3  1  0
  3  4  1  0
  4  5  1  0
  5  6  2  0
  5  7  1  0
  7  8  1  0
  8  9  1  0
  9 10  1  0
  9 11  1  0
 11 12  1  0
 12 13  1  0
 13 14  2  0
 14 15  1  0
 15 16  2  0
 16 17  1  0
 17 18  1  0
 17 19  2  0
  2 20  1  0
 20 21  2  0
 21 22  1  0
 22 23  2  0
 23 24  1  0
 24 25  2  0
 25 26  1  0
 25 27  1  0
 27 28  2  0
 28 29  1  0
 29 30  2  0
 12  7  1  0
 19 13  1  0
 30 20  1  0
 29 23  1  0
  3 31  1  0
  4 32  1  0
  4 33  1  0
  8 34  1  0
  8 35  1  0
  9 36  1  1
 10 37  1  0
 11 38  1  0
 11 39  1  0
 12 40  1  6
 14 41  1  0
 15 42  1  0
 16 43  1  0
 19 44  1  0
 21 45  1  0
 22 46  1  0
 24 47  1  0
 27 48  1  0
 28 49  1  0
M  END
>  <smiles>  (3) 
O=C(NCC(=O)N1C[C@H](O)C[C@H]1c1cccc(Cl)c1)c1ccc2cc(F)ccc2n1

>  <score_type>  (3) 
oracle

>  <origin>  (3) 
autodockgpu

>  <m_score__min__energy>  (3) 
-8.8399999999999999

>  <m_primary>  (3) 
energy

>  <meeko>  (3) 
{"free_energy": -7.72, "intermolecular_energy": -9.51, "internal_energy": -2.09, "cluster_size": 14, "cluster_id": 1, "rank_in_cluster": 13}

>  <energy>  (3) 
-8.81

>  <cluster_rmsd>  (3) 
0.36

>  <rmsd>  (3) 
270.75

>  <cluster>  (3) 
1

$$$$

     RDKit          3D

 49 52  0  0  0  0  0  0  0  0999 V2000
  139.4610   71.5520  221.1000 O   0  0  0  0  0  0  0  0  0  0  0  0
  139.5500   72.0300  222.2610 C   0  0  0  0  0  0  0  0  0  0  0  0
  139.4750   73.4530  222.3730 N   0  0  0  0  0  0  0  0  0  0  0  0
  139.3050   74.3030  221.2100 C   0  0  0  0  0  0  0  0  0  0  0  0
  138.9180   75.6770  221.5700 C   0  0  0  0  0  0  0  0  0  0  0  0
  137.8670   75.9830  222.1930 O   0  0  0  0  0  0  0  0  0  0  0  0
  139.7910   76.7330  221.1880 N   0  0  0  0  0  0  0  0  0  0  0  0
  139.5730   77.7100  220.1190 C   0  0  0  0  0  0  0  0  0  0  0  0
  140.9810   78.0330  219.6230 C   0  0  2  0  0  0  0  0  0  0  0  0
  141.0960   77.7960  218.2570 O   0  0  0  0  0  0  0  0  0  0  0  0
  141.8820   77.1390  220.4550 C   0  0  0  0  0  0  0  0  0  0  0  0
  141.0830   77.0900  221.7540 C   0  0  1  0  0  0  0  0  0  0  0  0
  141.0240   78.4080  222.4340 C   0  0  0  0  0  0  0  0  0  0  0  0
  142.1980   79.1470  222.5620 C   0  0  0  0  0  0  0  0  0  0  0  0
  142.2170   80.3840  223.1840 C   0  0  0  0  0  0  0  0  0  0  0  0
  141.0440   80.8960  223.6880 C   0  0  0  0  0  0  0  0  0  0  0  0
  139.8790   80.1890  223.5720 C   0  0  0  0  0  0  0  0  0  0  0  0
  138.3750   80.8260  224.2090 Cl  0  0  0  0  0  0  0  0  0  0  0  0
  139.8840   78.9590  222.9490 C   0  0  0  0  0  0  0  0  0  0  0  0
  139.7210   71.1950  223.4430 C   0  0  0  0  0  0  0  0  0  0  0  0
  139.3370   69.8650  223.3490 C   0  0  0  0  0  0  0  0  0  0  0  0
  139.5080   69.0910  224.4850 C   0  0  0  0  0  0  0  0  0  0  0  0
  140.0290   69.5940  225.6540 C   0  0  0  0  0  0  0  0  0  0  0  0
  140.1840   68.7790  226.7720 C   0  0  0  0  0  0  0  0  0  0  0  0
  140.7130   69.3290  227.9260 C   0  0  0  0  0  0  0  0  0  0  0  0
  140.8680   68.5450  229.0210 F   0  0  0  0  0  0  0  0  0  0  0  0
  141.0820   70.6680  227.9670 C   0  0  0  0  0  0  0  0  0  0  0  0
  140.9250   71.4780  226.8470 C   0  0  0  0  0  0  0  0  0  0  0  0
  140.3990   70.9430  225.6880 C   0  0  0  0  0  0  0  0  0  0  0  0
  140.2340   71.7030  224.5820 N   0  0  0  0  0  0  0  0  0  0  0  0
  139.5470   73.8540  223.3310 H   0  0  0  0  0  0  0  0  0  0  0  0
  140.2546   74.3373  220.6558 H   0  0  0  0  0  0  0  0  0  0  0  0
  138.4962   73.8764  220.5985 H   0  0  0  0  0  0  0  0  0  0  0  0
  138.9635   77.2774  219.3119 H   0  0  0  0  0  0  0  0  0  0  0  0
  139.0300   78.6022  220.4643 H   0  0  0  0  0  0  0  0  0  0  0  0
  141.2491   79.0932  219.7420 H   0  0  0  0  0  0  0  0  0  0  0  0
  141.9810   78.1620  217.9830 H   0  0  0  0  0  0  0  0  0  0  0  0
  141.9930   76.1408  220.0064 H   0  0  0  0  0  0  0  0  0  0  0  0
  142.9170   77.4959  220.5616 H   0  0  0  0  0  0  0  0  0  0  0  0
  141.4837   76.4209  222.5297 H   0  0  0  0  0  0  0  0  0  0  0  0
  143.1353   78.7367  222.1580 H   0  0  0  0  0  0  0  0  0  0  0  0
  143.1565   80.9490  223.2738 H   0  0  0  0  0  0  0  0  0  0  0  0
  141.0430   81.8769  224.1858 H   0  0  0  0  0  0  0  0  0  0  0  0
  138.9390   78.4025  222.8636 H   0  0  0  0  0  0  0  0  0  0  0  0
  138.9189   69.4472  222.4213 H   0  0  0  0  0  0  0  0  0  0  0  0
  139.2152   68.0312  224.4506 H   0  0  0  0  0  0  0  0  0  0  0  0
  139.8918   67.7191  226.7385 H   0  0  0  0  0  0  0  0  0  0  0  0
  141.5014   71.0906  228.8919 H   0  0  0  0  0  0  0  0  0  0  0  0
  141.2180   72.5376  226.8845 H   0  0  0  0  0  0  0  0  0  0  0  0
  1  2  2  0
  2  3  1  0
  3  4  1  0
  4  5  1  0
  5  6  2  0
  5  7  1  0
  7  8  1  0
  8  9  1  0
  9 10  1  0
  9 11  1  0
 11 12  1  0
 12 13  1  0
 13 14  2  0
 14 15  1  0
 15 16  2  0
 16 17  1  0
 17 18  1  0
 17 19  2  0
  2 20  1  0
 20 21  2  0
 21 22  1  0
 22 23  2  0
 23 24  1  0
 24 25  2  0
 25 26  1  0
 25 27  1  0
 27 28  2  0
 28 29  1  0
 29 30  2  0
 12  7  1  0
 19 13  1  0
 30 20  1  0
 29 23  1  0
  3 31  1  0
  4 32  1  0
  4 33  1  0
  8 34  1  0
  8 35  1  0
  9 36  1  6
 10 37  1  0
 11 38  1  0
 11 39  1  0
 12 40  1  1
 14 41  1  0
 15 42  1  0
 16 43  1  0
 19 44  1  0
 21 45  1  0
 22 46  1  0
 24 47  1  0
 27 48  1  0
 28 49  1  0
M  END
>  <smiles>  (4) 
O=C(NCC(=O)N1C[C@H](O)C[C@H]1c1cccc(Cl)c1)c1ccc2cc(F)ccc2n1

>  <score_type>  (4) 
oracle

>  <origin>  (4) 
autodockgpu

>  <m_score__min__energy>  (4) 
-8.8399999999999999

>  <m_primary>  (4) 
energy

>  <meeko>  (4) 
{"free_energy": -8.45, "intermolecular_energy": -10.24, "internal_energy": -1.38, "cluster_size": 14, "cluster_id": 1, "rank_in_cluster": 10}

>  <energy>  (4) 
-8.81

>  <cluster_rmsd>  (4) 
0.35

>  <rmsd>  (4) 
270.72

>  <cluster>  (4) 
1

$$$$

     RDKit          3D

 49 52  0  0  0  0  0  0  0  0999 V2000
  141.2460   72.5280  221.8270 O   0  0  0  0  0  0  0  0  0  0  0  0
  140.2560   72.4770  222.6030 C   0  0  0  0  0  0  0  0  0  0  0  0
  139.1910   73.3940  222.3400 N   0  0  0  0  0  0  0  0  0  0  0  0
  139.2470   74.3330  221.2370 C   0  0  0  0  0  0  0  0  0  0  0  0
  138.9020   75.7030  221.6480 C   0  0  0  0  0  0  0  0  0  0  0  0
  137.8870   76.0110  222.3270 O   0  0  0  0  0  0  0  0  0  0  0  0
  139.7730   76.7550  221.2490 N   0  0  0  0  0  0  0  0  0  0  0  0
  139.5370   77.7390  220.1900 C   0  0  0  0  0  0  0  0  0  0  0  0
  140.9360   78.0520  219.6610 C   0  0  2  0  0  0  0  0  0  0  0  0
  141.0150   77.8200  218.2920 O   0  0  0  0  0  0  0  0  0  0  0  0
  141.8490   77.1480  220.4670 C   0  0  0  0  0  0  0  0  0  0  0  0
  141.0810   77.0990  221.7850 C   0  0  1  0  0  0  0  0  0  0  0  0
  141.0500   78.4140  222.4710 C   0  0  0  0  0  0  0  0  0  0  0  0
  142.2410   79.1220  222.6160 C   0  0  0  0  0  0  0  0  0  0  0  0
  142.2850   80.3540  223.2440 C   0  0  0  0  0  0  0  0  0  0  0  0
  141.1210   80.8930  223.7400 C   0  0  0  0  0  0  0  0  0  0  0  0
  139.9400   80.2170  223.6100 C   0  0  0  0  0  0  0  0  0  0  0  0
  138.4470   80.8890  224.2360 Cl  0  0  0  0  0  0  0  0  0  0  0  0
  139.9190   78.9910  222.9790 C   0  0  0  0  0  0  0  0  0  0  0  0
  140.1790   71.5420  223.7180 C   0  0  0  0  0  0  0  0  0  0  0  0
  139.6020   70.3040  223.4770 C   0  0  0  0  0  0  0  0  0  0  0  0
  139.5390   69.4310  224.5510 C   0  0  0  0  0  0  0  0  0  0  0  0
  140.0170   69.7550  225.8000 C   0  0  0  0  0  0  0  0  0  0  0  0
  139.9340   68.8470  226.8510 C   0  0  0  0  0  0  0  0  0  0  0  0
  140.4280   69.2180  228.0880 C   0  0  0  0  0  0  0  0  0  0  0  0
  140.3520   68.3410  229.1200 F   0  0  0  0  0  0  0  0  0  0  0  0
  140.9970   70.4710  228.2770 C   0  0  0  0  0  0  0  0  0  0  0  0
  141.0780   71.3750  227.2230 C   0  0  0  0  0  0  0  0  0  0  0  0
  140.5890   71.0190  225.9820 C   0  0  0  0  0  0  0  0  0  0  0  0
  140.6520   71.8750  224.9370 N   0  0  0  0  0  0  0  0  0  0  0  0
  138.3690   73.3570  222.9790 H   0  0  0  0  0  0  0  0  0  0  0  0
  140.2671   74.3341  220.8255 H   0  0  0  0  0  0  0  0  0  0  0  0
  138.5096   74.0126  220.4863 H   0  0  0  0  0  0  0  0  0  0  0  0
  138.9041   77.3155  219.3962 H   0  0  0  0  0  0  0  0  0  0  0  0
  139.0103   78.6342  220.5523 H   0  0  0  0  0  0  0  0  0  0  0  0
  141.2165   79.1092  219.7776 H   0  0  0  0  0  0  0  0  0  0  0  0
  140.0910   77.9290  217.9360 H   0  0  0  0  0  0  0  0  0  0  0  0
  141.9415   76.1510  220.0115 H   0  0  0  0  0  0  0  0  0  0  0  0
  142.8889   77.4968  220.5504 H   0  0  0  0  0  0  0  0  0  0  0  0
  141.4942   76.4228  222.5479 H   0  0  0  0  0  0  0  0  0  0  0  0
  143.1719   78.6897  222.2204 H   0  0  0  0  0  0  0  0  0  0  0  0
  143.2375   80.8948  223.3452 H   0  0  0  0  0  0  0  0  0  0  0  0
  141.1404   81.8711  224.2429 H   0  0  0  0  0  0  0  0  0  0  0  0
  138.9609   78.4596  222.8811 H   0  0  0  0  0  0  0  0  0  0  0  0
  139.2146   70.0295  222.4848 H   0  0  0  0  0  0  0  0  0  0  0  0
  139.0887   68.4389  224.3991 H   0  0  0  0  0  0  0  0  0  0  0  0
  139.4846   67.8543  226.7009 H   0  0  0  0  0  0  0  0  0  0  0  0
  141.3863   70.7503  229.2672 H   0  0  0  0  0  0  0  0  0  0  0  0
  141.5285   72.3666  227.3772 H   0  0  0  0  0  0  0  0  0  0  0  0
  1  2  2  0
  2  3  1  0
  3  4  1  0
  4  5  1  0
  5  6  2  0
  5  7  1  0
  7  8  1  0
  8  9  1  0
  9 10  1  0
  9 11  1  0
 11 12  1  0
 12 13  1  0
 13 14  2  0
 14 15  1  0
 15 16  2  0
 16 17  1  0
 17 18  1  0
 17 19  2  0
  2 20  1  0
 20 21  2  0
 21 22  1  0
 22 23  2  0
 23 24  1  0
 24 25  2  0
 25 26  1  0
 25 27  1  0
 27 28  2  0
 28 29  1  0
 29 30  2  0
 12  7  1  0
 19 13  1  0
 30 20  1  0
 29 23  1  0
  3 31  1  0
  4 32  1  0
  4 33  1  0
  8 34  1  0
  8 35  1  0
  9 36  1  6
 10 37  1  0
 11 38  1  0
 11 39  1  0
 12 40  1  1
 14 41  1  0
 15 42  1  0
 16 43  1  0
 19 44  1  0
 21 45  1  0
 22 46  1  0
 24 47  1  0
 27 48  1  0
 28 49  1  0
M  END
>  <smiles>  (5) 
O=C(NCC(=O)N1C[C@H](O)C[C@H]1c1cccc(Cl)c1)c1ccc2cc(F)ccc2n1

>  <score_type>  (5) 
oracle

>  <origin>  (5) 
autodockgpu

>  <m_score__min__energy>  (5) 
-8.8399999999999999

>  <m_primary>  (5) 
energy

>  <meeko>  (5) 
{"free_energy": -8.84, "intermolecular_energy": -10.63, "internal_energy": -1.27, "cluster_size": 14, "cluster_id": 1, "rank_in_cluster": 2}

>  <energy>  (5) 
-8.73

>  <cluster_rmsd>  (5) 
0.3

>  <rmsd>  (5) 
270.7

>  <cluster>  (5) 
1

$$$$

     RDKit          3D

 49 52  0  0  0  0  0  0  0  0999 V2000
  138.9830   70.4770  221.2610 O   0  0  0  0  0  0  0  0  0  0  0  0
  138.9870   71.2840  222.2270 C   0  0  0  0  0  0  0  0  0  0  0  0
  138.4340   72.5790  221.9790 N   0  0  0  0  0  0  0  0  0  0  0  0
  137.8960   72.9440  220.6820 C   0  0  0  0  0  0  0  0  0  0  0  0
  138.4000   74.2430  220.2110 C   0  0  0  0  0  0  0  0  0  0  0  0
  137.7550   75.0360  219.4750 O   0  0  0  0  0  0  0  0  0  0  0  0
  139.7080   74.6330  220.6130 N   0  0  0  0  0  0  0  0  0  0  0  0
  140.1420   74.9930  221.9650 C   0  0  0  0  0  0  0  0  0  0  0  0
  141.2540   76.0150  221.7340 C   0  0  2  0  0  0  0  0  0  0  0  0
  140.9800   77.2080  222.3940 O   0  0  0  0  0  0  0  0  0  0  0  0
  141.3060   76.1730  220.2250 C   0  0  0  0  0  0  0  0  0  0  0  0
  140.9050   74.7650  219.7960 C   0  0  1  0  0  0  0  0  0  0  0  0
  141.9210   73.7490  220.1650 C   0  0  0  0  0  0  0  0  0  0  0  0
  141.5140   72.4290  220.3410 C   0  0  0  0  0  0  0  0  0  0  0  0
  142.4080   71.4290  220.6840 C   0  0  0  0  0  0  0  0  0  0  0  0
  143.7340   71.7490  220.8560 C   0  0  0  0  0  0  0  0  0  0  0  0
  144.1570   73.0390  220.6880 C   0  0  0  0  0  0  0  0  0  0  0  0
  145.8440   73.4650  220.9030 Cl  0  0  0  0  0  0  0  0  0  0  0  0
  143.2490   74.0190  220.3460 C   0  0  0  0  0  0  0  0  0  0  0  0
  139.5220   70.9390  223.5370 C   0  0  0  0  0  0  0  0  0  0  0  0
  140.3370   71.8710  224.1630 C   0  0  0  0  0  0  0  0  0  0  0  0
  140.8350   71.5210  225.4070 C   0  0  0  0  0  0  0  0  0  0  0  0
  140.5490   70.3180  226.0090 C   0  0  0  0  0  0  0  0  0  0  0  0
  141.0700   70.0070  227.2620 C   0  0  0  0  0  0  0  0  0  0  0  0
  140.7550   68.7850  227.8270 C   0  0  0  0  0  0  0  0  0  0  0  0
  141.2580   68.4720  229.0470 F   0  0  0  0  0  0  0  0  0  0  0  0
  139.9340   67.8860  227.1580 C   0  0  0  0  0  0  0  0  0  0  0  0
  139.4150   68.2010  225.9070 C   0  0  0  0  0  0  0  0  0  0  0  0
  139.7210   69.4170  225.3290 C   0  0  0  0  0  0  0  0  0  0  0  0
  139.2330   69.7540  224.1140 N   0  0  0  0  0  0  0  0  0  0  0  0
  138.4340   73.2510  222.7740 H   0  0  0  0  0  0  0  0  0  0  0  0
  138.1774   72.1704  219.9524 H   0  0  0  0  0  0  0  0  0  0  0  0
  136.8036   73.0248  220.7829 H   0  0  0  0  0  0  0  0  0  0  0  0
  139.3140   75.4379  222.5364 H   0  0  0  0  0  0  0  0  0  0  0  0
  140.4795   74.1233  222.5479 H   0  0  0  0  0  0  0  0  0  0  0  0
  142.2266   75.6950  222.1361 H   0  0  0  0  0  0  0  0  0  0  0  0
  141.8570   77.5660  222.7010 H   0  0  0  0  0  0  0  0  0  0  0  0
  140.5894   76.9277  219.8688 H   0  0  0  0  0  0  0  0  0  0  0  0
  142.2718   76.5201  219.8290 H   0  0  0  0  0  0  0  0  0  0  0  0
  140.7807   74.6188  218.7129 H   0  0  0  0  0  0  0  0  0  0  0  0
  140.4529   72.1737  220.2037 H   0  0  0  0  0  0  0  0  0  0  0  0
  142.0623   70.3932  220.8170 H   0  0  0  0  0  0  0  0  0  0  0  0
  144.4565   70.9658  221.1294 H   0  0  0  0  0  0  0  0  0  0  0  0
  143.6048   75.0515  220.2145 H   0  0  0  0  0  0  0  0  0  0  0  0
  140.5753   72.8378  223.6955 H   0  0  0  0  0  0  0  0  0  0  0  0
  141.4855   72.2339  225.9348 H   0  0  0  0  0  0  0  0  0  0  0  0
  141.7194   70.7193  227.7920 H   0  0  0  0  0  0  0  0  0  0  0  0
  139.6927   66.9179  227.6213 H   0  0  0  0  0  0  0  0  0  0  0  0
  138.7649   67.4861  225.3813 H   0  0  0  0  0  0  0  0  0  0  0  0
  1  2  2  0
  2  3  1  0
  3  4  1  0
  4  5  1  0
  5  6  2  0
  5  7  1  0
  7  8  1  0
  8  9  1  0
  9 10  1  0
  9 11  1  0
 11 12  1  0
 12 13  1  0
 13 14  2  0
 14 15  1  0
 15 16  2  0
 16 17  1  0
 17 18  1  0
 17 19  2  0
  2 20  1  0
 20 21  2  0
 21 22  1  0
 22 23  2  0
 23 24  1  0
 24 25  2  0
 25 26  1  0
 25 27  1  0
 27 28  2  0
 28 29  1  0
 29 30  2  0
 12  7  1  0
 19 13  1  0
 30 20  1  0
 29 23  1  0
  3 31  1  0
  4 32  1  0
  4 33  1  0
  8 34  1  0
  8 35  1  0
  9 36  1  1
 10 37  1  0
 11 38  1  0
 11 39  1  0
 12 40  1  6
 14 41  1  0
 15 42  1  0
 16 43  1  0
 19 44  1  0
 21 45  1  0
 22 46  1  0
 24 47  1  0
 27 48  1  0
 28 49  1  0
M  END
>  <smiles>  (6) 
O=C(NCC(=O)N1C[C@H](O)C[C@H]1c1cccc(Cl)c1)c1ccc2cc(F)ccc2n1

>  <score_type>  (6) 
oracle

>  <origin>  (6) 
autodockgpu

>  <m_score__min__energy>  (6) 
-8.8399999999999999

>  <m_primary>  (6) 
energy

>  <meeko>  (6) 
{"free_energy": -7.54, "intermolecular_energy": -9.33, "internal_energy": -1.85, "cluster_size": 3, "cluster_id": 2, "rank_in_cluster": 2}

>  <energy>  (6) 
-8.71

>  <cluster_rmsd>  (6) 
0.34

>  <rmsd>  (6) 
270.73

>  <cluster>  (6) 
1

$$$$

     RDKit          3D

 49 52  0  0  0  0  0  0  0  0999 V2000
  141.3040   72.2440  221.5410 O   0  0  0  0  0  0  0  0  0  0  0  0
  140.4340   72.4610  222.4240 C   0  0  0  0  0  0  0  0  0  0  0  0
  139.6220   73.6250  222.2460 N   0  0  0  0  0  0  0  0  0  0  0  0
  139.7920   74.5090  221.1090 C   0  0  0  0  0  0  0  0  0  0  0  0
  140.8810   75.4780  221.3090 C   0  0  0  0  0  0  0  0  0  0  0  0
  141.0320   76.1800  222.3440 O   0  0  0  0  0  0  0  0  0  0  0  0
  141.8300   75.6350  220.2610 N   0  0  0  0  0  0  0  0  0  0  0  0
  142.7710   76.7430  220.0860 C   0  0  0  0  0  0  0  0  0  0  0  0
  142.9330   76.8530  218.5710 C   0  0  2  0  0  0  0  0  0  0  0  0
  142.6210   78.1340  218.1270 O   0  0  0  0  0  0  0  0  0  0  0  0
  141.9980   75.7930  218.0200 C   0  0  0  0  0  0  0  0  0  0  0  0
  142.0880   74.7530  219.1330 C   0  0  1  0  0  0  0  0  0  0  0  0
  143.4360   74.1410  219.2290 C   0  0  0  0  0  0  0  0  0  0  0  0
  144.0160   73.6170  218.0770 C   0  0  0  0  0  0  0  0  0  0  0  0
  145.2710   73.0320  218.0930 C   0  0  0  0  0  0  0  0  0  0  0  0
  145.9620   72.9670  219.2800 C   0  0  0  0  0  0  0  0  0  0  0  0
  145.4130   73.4750  220.4240 C   0  0  0  0  0  0  0  0  0  0  0  0
  146.2790   73.4000  221.9460 Cl  0  0  0  0  0  0  0  0  0  0  0  0
  144.1610   74.0540  220.3850 C   0  0  0  0  0  0  0  0  0  0  0  0
  140.2460   71.5870  223.5740 C   0  0  0  0  0  0  0  0  0  0  0  0
  139.5840   70.3860  223.3640 C   0  0  0  0  0  0  0  0  0  0  0  0
  139.4160   69.5710  224.4720 C   0  0  0  0  0  0  0  0  0  0  0  0
  139.8740   69.9160  225.7230 C   0  0  0  0  0  0  0  0  0  0  0  0
  139.6840   69.0660  226.8090 C   0  0  0  0  0  0  0  0  0  0  0  0
  140.1610   69.4550  228.0470 C   0  0  0  0  0  0  0  0  0  0  0  0
  139.9810   68.6350  229.1120 F   0  0  0  0  0  0  0  0  0  0  0  0
  140.8170   70.6690  228.2030 C   0  0  0  0  0  0  0  0  0  0  0  0
  141.0050   71.5150  227.1150 C   0  0  0  0  0  0  0  0  0  0  0  0
  140.5340   71.1400  225.8720 C   0  0  0  0  0  0  0  0  0  0  0  0
  140.7000   71.9390  224.7940 N   0  0  0  0  0  0  0  0  0  0  0  0
  138.8990   73.8100  222.9730 H   0  0  0  0  0  0  0  0  0  0  0  0
  140.0185   73.9017  220.2203 H   0  0  0  0  0  0  0  0  0  0  0  0
  138.8579   75.0760  220.9827 H   0  0  0  0  0  0  0  0  0  0  0  0
  142.3610   77.6741  220.5042 H   0  0  0  0  0  0  0  0  0  0  0  0
  143.7268   76.5730  220.6032 H   0  0  0  0  0  0  0  0  0  0  0  0
  143.9669   76.6891  218.2331 H   0  0  0  0  0  0  0  0  0  0  0  0
  143.2650   78.7490  218.5720 H   0  0  0  0  0  0  0  0  0  0  0  0
  140.9734   76.1750  217.9006 H   0  0  0  0  0  0  0  0  0  0  0  0
  142.2588   75.4218  217.0179 H   0  0  0  0  0  0  0  0  0  0  0  0
  141.4212   73.8850  219.0233 H   0  0  0  0  0  0  0  0  0  0  0  0
  143.4622   73.6691  217.1280 H   0  0  0  0  0  0  0  0  0  0  0  0
  145.7088   72.6252  217.1695 H   0  0  0  0  0  0  0  0  0  0  0  0
  146.9597   72.5047  219.3090 H   0  0  0  0  0  0  0  0  0  0  0  0
  143.7325   74.4586  221.3138 H   0  0  0  0  0  0  0  0  0  0  0  0
  139.2121   70.0960  222.3702 H   0  0  0  0  0  0  0  0  0  0  0  0
  138.8958   68.6099  224.3466 H   0  0  0  0  0  0  0  0  0  0  0  0
  139.1648   68.1042  226.6846 H   0  0  0  0  0  0  0  0  0  0  0  0
  141.1908   70.9639  229.1946 H   0  0  0  0  0  0  0  0  0  0  0  0
  141.5250   72.4757  227.2437 H   0  0  0  0  0  0  0  0  0  0  0  0
  1  2  2  0
  2  3  1  0
  3  4  1  0
  4  5  1  0
  5  6  2  0
  5  7  1  0
  7  8  1  0
  8  9  1  0
  9 10  1  0
  9 11  1  0
 11 12  1  0
 12 13  1  0
 13 14  2  0
 14 15  1  0
 15 16  2  0
 16 17  1  0
 17 18  1  0
 17 19  2  0
  2 20  1  0
 20 21  2  0
 21 22  1  0
 22 23  2  0
 23 24  1  0
 24 25  2  0
 25 26  1  0
 25 27  1  0
 27 28  2  0
 28 29  1  0
 29 30  2  0
 12  7  1  0
 19 13  1  0
 30 20  1  0
 29 23  1  0
  3 31  1  0
  4 32  1  0
  4 33  1  0
  8 34  1  0
  8 35  1  0
  9 36  1  1
 10 37  1  0
 11 38  1  0
 11 39  1  0
 12 40  1  6
 14 41  1  0
 15 42  1  0
 16 43  1  0
 19 44  1  0
 21 45  1  0
 22 46  1  0
 24 47  1  0
 27 48  1  0
 28 49  1  0
M  END
>  <smiles>  (7) 
O=C(NCC(=O)N1C[C@H](O)C[C@H]1c1cccc(Cl)c1)c1ccc2cc(F)ccc2n1

>  <score_type>  (7) 
oracle

>  <origin>  (7) 
autodockgpu

>  <m_score__min__energy>  (7) 
-8.8399999999999999

>  <m_primary>  (7) 
energy

>  <meeko>  (7) 
{"free_energy": -8.63, "intermolecular_energy": -10.42, "internal_energy": -1.47, "cluster_size": 3, "cluster_id": 2, "rank_in_cluster": 1}

>  <energy>  (7) 
-8.67

>  <cluster_rmsd>  (7) 
0.35

>  <rmsd>  (7) 
270.7

>  <cluster>  (7) 
1

$$$$

     RDKit          3D

 49 52  0  0  0  0  0  0  0  0999 V2000
  140.8380   73.0370  222.3200 O   0  0  0  0  0  0  0  0  0  0  0  0
  139.8190   72.5060  222.8350 C   0  0  0  0  0  0  0  0  0  0  0  0
  138.5530   72.9230  222.3200 N   0  0  0  0  0  0  0  0  0  0  0  0
  138.4450   73.9070  221.2590 C   0  0  0  0  0  0  0  0  0  0  0  0
  138.2680   75.2730  221.7760 C   0  0  0  0  0  0  0  0  0  0  0  0
  137.2990   75.6470  222.4900 O   0  0  0  0  0  0  0  0  0  0  0  0
  139.2580   76.2410  221.4480 N   0  0  0  0  0  0  0  0  0  0  0  0
  139.2470   77.1560  220.3050 C   0  0  0  0  0  0  0  0  0  0  0  0
  140.7260   77.3490  219.9740 C   0  0  2  0  0  0  0  0  0  0  0  0
  140.9890   77.0130  218.6500 O   0  0  0  0  0  0  0  0  0  0  0  0
  141.4480   76.4540  220.9650 C   0  0  0  0  0  0  0  0  0  0  0  0
  140.4930   76.5470  222.1510 C   0  0  1  0  0  0  0  0  0  0  0  0
  140.4520   77.9080  222.7410 C   0  0  0  0  0  0  0  0  0  0  0  0
  139.2140   78.4610  223.0590 C   0  0  0  0  0  0  0  0  0  0  0  0
  139.1010   79.7250  223.6120 C   0  0  0  0  0  0  0  0  0  0  0  0
  140.2420   80.4540  223.8530 C   0  0  0  0  0  0  0  0  0  0  0  0
  141.4690   79.9310  223.5490 C   0  0  0  0  0  0  0  0  0  0  0  0
  142.9340   80.8450  223.8480 Cl  0  0  0  0  0  0  0  0  0  0  0  0
  141.5580   78.6690  222.9990 C   0  0  0  0  0  0  0  0  0  0  0  0
  139.9030   71.5160  223.9000 C   0  0  0  0  0  0  0  0  0  0  0  0
  139.4320   70.2400  223.6280 C   0  0  0  0  0  0  0  0  0  0  0  0
  139.5220   69.3150  224.6560 C   0  0  0  0  0  0  0  0  0  0  0  0
  140.0470   69.6260  225.8900 C   0  0  0  0  0  0  0  0  0  0  0  0
  140.1180   68.6660  226.8940 C   0  0  0  0  0  0  0  0  0  0  0  0
  140.6540   69.0240  228.1180 C   0  0  0  0  0  0  0  0  0  0  0  0
  140.7280   68.0960  229.1040 F   0  0  0  0  0  0  0  0  0  0  0  0
  141.1110   70.3170  228.3390 C   0  0  0  0  0  0  0  0  0  0  0  0
  141.0380   71.2730  227.3320 C   0  0  0  0  0  0  0  0  0  0  0  0
  140.5060   70.9300  226.1050 C   0  0  0  0  0  0  0  0  0  0  0  0
  140.4200   71.8360  225.1050 N   0  0  0  0  0  0  0  0  0  0  0  0
  137.7060   72.4870  222.7420 H   0  0  0  0  0  0  0  0  0  0  0  0
  139.3624   73.8749  220.6529 H   0  0  0  0  0  0  0  0  0  0  0  0
  137.5568   73.6577  220.6599 H   0  0  0  0  0  0  0  0  0  0  0  0
  138.7102   76.7122  219.4536 H   0  0  0  0  0  0  0  0  0  0  0  0
  138.7346   78.1040  220.5257 H   0  0  0  0  0  0  0  0  0  0  0  0
  141.0571   78.3941  220.0639 H   0  0  0  0  0  0  0  0  0  0  0  0
  141.9390   77.2610  218.4820 H   0  0  0  0  0  0  0  0  0  0  0  0
  141.5379   75.4226  220.5933 H   0  0  0  0  0  0  0  0  0  0  0  0
  142.4860   76.7462  221.1821 H   0  0  0  0  0  0  0  0  0  0  0  0
  140.7426   75.9054  223.0090 H   0  0  0  0  0  0  0  0  0  0  0  0
  138.3016   77.8778  222.8656 H   0  0  0  0  0  0  0  0  0  0  0  0
  138.1121   80.1407  223.8554 H   0  0  0  0  0  0  0  0  0  0  0  0
  140.1678   81.4602  224.2913 H   0  0  0  0  0  0  0  0  0  0  0  0
  142.5515   78.2617  222.7602 H   0  0  0  0  0  0  0  0  0  0  0  0
  139.0091   69.9761  222.6474 H   0  0  0  0  0  0  0  0  0  0  0  0
  139.1595   68.2916  224.4789 H   0  0  0  0  0  0  0  0  0  0  0  0
  139.7552   67.6425  226.7182 H   0  0  0  0  0  0  0  0  0  0  0  0
  141.5338   70.5866  229.3180 H   0  0  0  0  0  0  0  0  0  0  0  0
  141.4016   72.2955  227.5117 H   0  0  0  0  0  0  0  0  0  0  0  0
  1  2  2  0
  2  3  1  0
  3  4  1  0
  4  5  1  0
  5  6  2  0
  5  7  1  0
  7  8  1  0
  8  9  1  0
  9 10  1  0
  9 11  1  0
 11 12  1  0
 12 13  1  0
 13 14  2  0
 14 15  1  0
 15 16  2  0
 16 17  1  0
 17 18  1  0
 17 19  2  0
  2 20  1  0
 20 21  2  0
 21 22  1  0
 22 23  2  0
 23 24  1  0
 24 25  2  0
 25 26  1  0
 25 27  1  0
 27 28  2  0
 28 29  1  0
 29 30  2  0
 12  7  1  0
 19 13  1  0
 30 20  1  0
 29 23  1  0
  3 31  1  0
  4 32  1  0
  4 33  1  0
  8 34  1  0
  8 35  1  0
  9 36  1  6
 10 37  1  0
 11 38  1  0
 11 39  1  0
 12 40  1  1
 14 41  1  0
 15 42  1  0
 16 43  1  0
 19 44  1  0
 21 45  1  0
 22 46  1  0
 24 47  1  0
 27 48  1  0
 28 49  1  0
M  END
>  <smiles>  (8) 
O=C(NCC(=O)N1C[C@H](O)C[C@H]1c1cccc(Cl)c1)c1ccc2cc(F)ccc2n1

>  <score_type>  (8) 
oracle

>  <origin>  (8) 
autodockgpu

>  <m_score__min__energy>  (8) 
-8.8399999999999999

>  <m_primary>  (8) 
energy

>  <meeko>  (8) 
{"free_energy": -8.63, "intermolecular_energy": -10.42, "internal_energy": -1.3, "cluster_size": 14, "cluster_id": 1, "rank_in_cluster": 8}

>  <energy>  (8) 
-8.63

>  <cluster_rmsd>  (8) 
1.07

>  <rmsd>  (8) 
270.71

>  <cluster>  (8) 
1

$$$$

     RDKit          3D

 49 52  0  0  0  0  0  0  0  0999 V2000
  138.5380   71.1390  220.8860 O   0  0  0  0  0  0  0  0  0  0  0  0
  138.6110   71.7210  221.9990 C   0  0  0  0  0  0  0  0  0  0  0  0
  138.1950   73.0880  222.0340 N   0  0  0  0  0  0  0  0  0  0  0  0
  137.7150   73.7710  220.8480 C   0  0  0  0  0  0  0  0  0  0  0  0
  138.7860   74.0200  219.8700 C   0  0  0  0  0  0  0  0  0  0  0  0
  138.6760   73.8390  218.6290 O   0  0  0  0  0  0  0  0  0  0  0  0
  140.0330   74.4980  220.3600 N   0  0  0  0  0  0  0  0  0  0  0  0
  140.3540   74.8590  221.7430 C   0  0  0  0  0  0  0  0  0  0  0  0
  141.3960   75.9680  221.6010 C   0  0  2  0  0  0  0  0  0  0  0  0
  140.9910   77.1220  222.2640 O   0  0  0  0  0  0  0  0  0  0  0  0
  141.5280   76.1640  220.1010 C   0  0  0  0  0  0  0  0  0  0  0  0
  141.2630   74.7400  219.6220 C   0  0  1  0  0  0  0  0  0  0  0  0
  142.3300   73.7950  220.0360 C   0  0  0  0  0  0  0  0  0  0  0  0
  142.0000   72.4570  220.2340 C   0  0  0  0  0  0  0  0  0  0  0  0
  142.9440   71.5210  220.6180 C   0  0  0  0  0  0  0  0  0  0  0  0
  144.2450   71.9250  220.8110 C   0  0  0  0  0  0  0  0  0  0  0  0
  144.5930   73.2340  220.6220 C   0  0  0  0  0  0  0  0  0  0  0  0
  146.2460   73.7660  220.8620 Cl  0  0  0  0  0  0  0  0  0  0  0  0
  143.6360   74.1490  220.2380 C   0  0  0  0  0  0  0  0  0  0  0  0
  139.0910   71.0550  223.2030 C   0  0  0  0  0  0  0  0  0  0  0  0
  138.9390   69.6780  223.2780 C   0  0  0  0  0  0  0  0  0  0  0  0
  139.4020   69.0660  224.4310 C   0  0  0  0  0  0  0  0  0  0  0  0
  139.9850   69.7690  225.4610 C   0  0  0  0  0  0  0  0  0  0  0  0
  140.4370   69.1130  226.6020 C   0  0  0  0  0  0  0  0  0  0  0  0
  141.0160   69.8610  227.6110 C   0  0  0  0  0  0  0  0  0  0  0  0
  141.4590   69.2330  228.7280 F   0  0  0  0  0  0  0  0  0  0  0  0
  141.1440   71.2390  227.4870 C   0  0  0  0  0  0  0  0  0  0  0  0
  140.6910   71.8890  226.3440 C   0  0  0  0  0  0  0  0  0  0  0  0
  140.1110   71.1560  225.3280 C   0  0  0  0  0  0  0  0  0  0  0  0
  139.6600   71.7570  224.2040 N   0  0  0  0  0  0  0  0  0  0  0  0
  138.2530   73.5750  222.9530 H   0  0  0  0  0  0  0  0  0  0  0  0
  136.9403   73.1512  220.3730 H   0  0  0  0  0  0  0  0  0  0  0  0
  137.3153   74.7465  221.1623 H   0  0  0  0  0  0  0  0  0  0  0  0
  139.4605   75.2265  222.2690 H   0  0  0  0  0  0  0  0  0  0  0  0
  140.7213   74.0044  222.3302 H   0  0  0  0  0  0  0  0  0  0  0  0
  142.3637   75.7135  222.0579 H   0  0  0  0  0  0  0  0  0  0  0  0
  141.8210   77.5580  222.5980 H   0  0  0  0  0  0  0  0  0  0  0  0
  140.7788   76.8706  219.7144 H   0  0  0  0  0  0  0  0  0  0  0  0
  142.4868   76.5918  219.7728 H   0  0  0  0  0  0  0  0  0  0  0  0
  141.2163   74.6107  218.5306 H   0  0  0  0  0  0  0  0  0  0  0  0
  140.9594   72.1348  220.0808 H   0  0  0  0  0  0  0  0  0  0  0  0
  142.6585   70.4692  220.7668 H   0  0  0  0  0  0  0  0  0  0  0  0
  145.0069   71.1935  221.1180 H   0  0  0  0  0  0  0  0  0  0  0  0
  143.9321   75.1979  220.0892 H   0  0  0  0  0  0  0  0  0  0  0  0
  138.4748   69.1021  222.4639 H   0  0  0  0  0  0  0  0  0  0  0  0
  139.2998   67.9750  224.5275 H   0  0  0  0  0  0  0  0  0  0  0  0
  140.3359   68.0220  226.6994 H   0  0  0  0  0  0  0  0  0  0  0  0
  141.6068   71.8198  228.2985 H   0  0  0  0  0  0  0  0  0  0  0  0
  140.7942   72.9801  226.2501 H   0  0  0  0  0  0  0  0  0  0  0  0
  1  2  2  0
  2  3  1  0
  3  4  1  0
  4  5  1  0
  5  6  2  0
  5  7  1  0
  7  8  1  0
  8  9  1  0
  9 10  1  0
  9 11  1  0
 11 12  1  0
 12 13  1  0
 13 14  2  0
 14 15  1  0
 15 16  2  0
 16 17  1  0
 17 18  1  0
 17 19  2  0
  2 20  1  0
 20 21  2  0
 21 22  1  0
 22 23  2  0
 23 24  1  0
 24 25  2  0
 25 26  1  0
 25 27  1  0
 27 28  2  0
 28 29  1  0
 29 30  2  0
 12  7  1  0
 19 13  1  0
 30 20  1  0
 29 23  1  0
  3 31  1  0
  4 32  1  0
  4 33  1  0
  8 34  1  0
  8 35  1  0
  9 36  1  1
 10 37  1  0
 11 38  1  0
 11 39  1  0
 12 40  1  6
 14 41  1  0
 15 42  1  0
 16 43  1  0
 19 44  1  0
 21 45  1  0
 22 46  1  0
 24 47  1  0
 27 48  1  0
 28 49  1  0
M  END
>  <smiles>  (9) 
O=C(NCC(=O)N1C[C@H](O)C[C@H]1c1cccc(Cl)c1)c1ccc2cc(F)ccc2n1

>  <score_type>  (9) 
oracle

>  <origin>  (9) 
autodockgpu

>  <m_score__min__energy>  (9) 
-8.8399999999999999

>  <m_primary>  (9) 
energy

>  <meeko>  (9) 
{"free_energy": -7.28, "intermolecular_energy": -9.07, "internal_energy": -1.91, "cluster_size": 3, "cluster_id": 2, "rank_in_cluster": 3}

>  <energy>  (9) 
-8.49

>  <cluster_rmsd>  (9) 
1.16

>  <rmsd>  (9) 
270.56

>  <cluster>  (9) 
1

$$$$

     RDKit          3D

 49 52  0  0  0  0  0  0  0  0999 V2000
  141.1300   72.9420  222.1110 O   0  0  0  0  0  0  0  0  0  0  0  0
  140.0790   72.6140  222.7200 C   0  0  0  0  0  0  0  0  0  0  0  0
  138.8780   73.2830  222.3280 N   0  0  0  0  0  0  0  0  0  0  0  0
  138.8700   74.2880  221.2830 C   0  0  0  0  0  0  0  0  0  0  0  0
  138.7300   75.6520  221.8160 C   0  0  0  0  0  0  0  0  0  0  0  0
  137.8490   76.0090  222.6430 O   0  0  0  0  0  0  0  0  0  0  0  0
  139.6530   76.6380  221.3680 N   0  0  0  0  0  0  0  0  0  0  0  0
  139.4850   77.5470  220.2320 C   0  0  0  0  0  0  0  0  0  0  0  0
  140.9100   77.7680  219.7250 C   0  0  2  0  0  0  0  0  0  0  0  0
  141.0190   77.4300  218.3800 O   0  0  0  0  0  0  0  0  0  0  0  0
  141.7640   76.8930  220.6250 C   0  0  0  0  0  0  0  0  0  0  0  0
  140.9570   76.9730  221.9170 C   0  0  1  0  0  0  0  0  0  0  0  0
  140.9580   78.3360  222.5030 C   0  0  0  0  0  0  0  0  0  0  0  0
  142.1530   79.0520  222.5310 C   0  0  0  0  0  0  0  0  0  0  0  0
  142.2260   80.3280  223.0610 C   0  0  0  0  0  0  0  0  0  0  0  0
  141.0880   80.9050  223.5750 C   0  0  0  0  0  0  0  0  0  0  0  0
  139.9040   80.2220  223.5570 C   0  0  0  0  0  0  0  0  0  0  0  0
  138.4430   80.9410  224.2080 Cl  0  0  0  0  0  0  0  0  0  0  0  0
  139.8540   78.9510  223.0240 C   0  0  0  0  0  0  0  0  0  0  0  0
  140.0640   71.6070  223.7730 C   0  0  0  0  0  0  0  0  0  0  0  0
  139.5240   70.3660  223.4660 C   0  0  0  0  0  0  0  0  0  0  0  0
  139.5200   69.4250  224.4820 C   0  0  0  0  0  0  0  0  0  0  0  0
  140.0190   69.6860  225.7380 C   0  0  0  0  0  0  0  0  0  0  0  0
  139.9950   68.7100  226.7290 C   0  0  0  0  0  0  0  0  0  0  0  0
  140.5080   69.0180  227.9760 C   0  0  0  0  0  0  0  0  0  0  0  0
  140.4890   68.0750  228.9500 F   0  0  0  0  0  0  0  0  0  0  0  0
  141.0370   70.2770  228.2320 C   0  0  0  0  0  0  0  0  0  0  0  0
  141.0590   71.2490  227.2380 C   0  0  0  0  0  0  0  0  0  0  0  0
  140.5500   70.9560  225.9880 C   0  0  0  0  0  0  0  0  0  0  0  0
  140.5570   71.8780  224.9990 N   0  0  0  0  0  0  0  0  0  0  0  0
  138.0050   73.0140  222.8280 H   0  0  0  0  0  0  0  0  0  0  0  0
  139.8148   74.2229  220.7234 H   0  0  0  0  0  0  0  0  0  0  0  0
  138.0028   74.0909  220.6356 H   0  0  0  0  0  0  0  0  0  0  0  0
  138.8590   77.0880  219.4526 H   0  0  0  0  0  0  0  0  0  0  0  0
  138.9830   78.4855  220.5099 H   0  0  0  0  0  0  0  0  0  0  0  0
  141.2280   78.8200  219.7713 H   0  0  0  0  0  0  0  0  0  0  0  0
  140.8830   78.2740  217.8680 H   0  0  0  0  0  0  0  0  0  0  0  0
  141.8298   75.8616  220.2482 H   0  0  0  0  0  0  0  0  0  0  0  0
  142.8143   77.2074  220.7150 H   0  0  0  0  0  0  0  0  0  0  0  0
  141.3215   76.3417  222.7407 H   0  0  0  0  0  0  0  0  0  0  0  0
  143.0631   78.5902  222.1206 H   0  0  0  0  0  0  0  0  0  0  0  0
  143.1811   80.8736  223.0712 H   0  0  0  0  0  0  0  0  0  0  0  0
  141.1308   81.9181  224.0014 H   0  0  0  0  0  0  0  0  0  0  0  0
  138.8938   78.4143  223.0179 H   0  0  0  0  0  0  0  0  0  0  0  0
  139.1202   70.1415  222.4677 H   0  0  0  0  0  0  0  0  0  0  0  0
  139.1011   68.4287  224.2770 H   0  0  0  0  0  0  0  0  0  0  0  0
  139.5765   67.7134  226.5250 H   0  0  0  0  0  0  0  0  0  0  0  0
  141.4416   70.5066  229.2288 H   0  0  0  0  0  0  0  0  0  0  0  0
  141.4788   72.2443  227.4457 H   0  0  0  0  0  0  0  0  0  0  0  0
  1  2  2  0
  2  3  1  0
  3  4  1  0
  4  5  1  0
  5  6  2  0
  5  7  1  0
  7  8  1  0
  8  9  1  0
  9 10  1  0
  9 11  1  0
 11 12  1  0
 12 13  1  0
 13 14  2  0
 14 15  1  0
 15 16  2  0
 16 17  1  0
 17 18  1  0
 17 19  2  0
  2 20  1  0
 20 21  2  0
 21 22  1  0
 22 23  2  0
 23 24  1  0
 24 25  2  0
 25 26  1  0
 25 27  1  0
 27 28  2  0
 28 29  1  0
 29 30  2  0
 12  7  1  0
 19 13  1  0
 30 20  1  0
 29 23  1  0
  3 31  1  0
  4 32  1  0
  4 33  1  0
  8 34  1  0
  8 35  1  0
  9 36  1  6
 10 37  1  0
 11 38  1  0
 11 39  1  0
 12 40  1  1
 14 41  1  0
 15 42  1  0
 16 43  1  0
 19 44  1  0
 21 45  1  0
 22 46  1  0
 24 47  1  0
 27 48  1  0
 28 49  1  0
M  END
>  <smiles>  (10) 
O=C(NCC(=O)N1C[C@H](O)C[C@H]1c1cccc(Cl)c1)c1ccc2cc(F)ccc2n1

>  <score_type>  (10) 
oracle

>  <origin>  (10) 
autodockgpu

>  <m_score__min__energy>  (10) 
-8.8399999999999999

>  <m_primary>  (10) 
energy

>  <meeko>  (10) 
{"free_energy": -8.73, "intermolecular_energy": -10.52, "internal_energy": -1.3, "cluster_size": 14, "cluster_id": 1, "rank_in_cluster": 5}

>  <energy>  (10) 
-8.45

>  <cluster_rmsd>  (10) 
0.54

>  <rmsd>  (10) 
270.63

>  <cluster>  (10) 
1

$$$$

     RDKit          3D

 49 52  0  0  0  0  0  0  0  0999 V2000
  137.9620   70.1840  221.6490 O   0  0  0  0  0  0  0  0  0  0  0  0
  138.1950   70.7630  222.7420 C   0  0  0  0  0  0  0  0  0  0  0  0
  137.8650   72.1520  222.8110 N   0  0  0  0  0  0  0  0  0  0  0  0
  137.2910   72.8580  221.6820 C   0  0  0  0  0  0  0  0  0  0  0  0
  138.3060   73.5740  220.8920 C   0  0  0  0  0  0  0  0  0  0  0  0
  138.1110   74.6700  220.3040 O   0  0  0  0  0  0  0  0  0  0  0  0
  139.5970   72.9870  220.7840 N   0  0  0  0  0  0  0  0  0  0  0  0
  140.0570   72.0590  219.7480 C   0  0  0  0  0  0  0  0  0  0  0  0
  141.0820   71.1830  220.4680 C   0  0  2  0  0  0  0  0  0  0  0  0
  140.7490   69.8370  220.3640 O   0  0  0  0  0  0  0  0  0  0  0  0
  141.0620   71.6880  221.8990 C   0  0  0  0  0  0  0  0  0  0  0  0
  140.7470   73.1610  221.6580 C   0  0  1  0  0  0  0  0  0  0  0  0
  141.8480   73.8690  220.9590 C   0  0  0  0  0  0  0  0  0  0  0  0
  141.5870   75.1090  220.3820 C   0  0  0  0  0  0  0  0  0  0  0  0
  142.5660   75.8260  219.7170 C   0  0  0  0  0  0  0  0  0  0  0  0
  143.8320   75.2970  219.6220 C   0  0  0  0  0  0  0  0  0  0  0  0
  144.1130   74.0820  220.1820 C   0  0  0  0  0  0  0  0  0  0  0  0
  145.7220   73.3930  220.0720 Cl  0  0  0  0  0  0  0  0  0  0  0  0
  143.1220   73.3850  220.8410 C   0  0  0  0  0  0  0  0  0  0  0  0
  138.7720   70.0730  223.8880 C   0  0  0  0  0  0  0  0  0  0  0  0
  138.6780   68.6890  223.9170 C   0  0  0  0  0  0  0  0  0  0  0  0
  139.2330   68.0550  225.0170 C   0  0  0  0  0  0  0  0  0  0  0  0
  139.8480   68.7420  226.0380 C   0  0  0  0  0  0  0  0  0  0  0  0
  140.3920   68.0640  227.1250 C   0  0  0  0  0  0  0  0  0  0  0  0
  141.0010   68.7970  228.1270 C   0  0  0  0  0  0  0  0  0  0  0  0
  141.5340   68.1460  229.1910 F   0  0  0  0  0  0  0  0  0  0  0  0
  141.0670   70.1820  228.0500 C   0  0  0  0  0  0  0  0  0  0  0  0
  140.5220   70.8550  226.9620 C   0  0  0  0  0  0  0  0  0  0  0  0
  139.9110   70.1370  225.9530 C   0  0  0  0  0  0  0  0  0  0  0  0
  139.3720   70.7610  224.8820 N   0  0  0  0  0  0  0  0  0  0  0  0
  138.0560   72.6360  223.7130 H   0  0  0  0  0  0  0  0  0  0  0  0
  136.7852   72.1302  221.0305 H   0  0  0  0  0  0  0  0  0  0  0  0
  136.5859   73.6043  222.0769 H   0  0  0  0  0  0  0  0  0  0  0  0
  139.2222   71.4522  219.3674 H   0  0  0  0  0  0  0  0  0  0  0  0
  140.4798   72.5752  218.8735 H   0  0  0  0  0  0  0  0  0  0  0  0
  142.0906   71.2509  220.0342 H   0  0  0  0  0  0  0  0  0  0  0  0
  139.7930   69.7640  220.6350 H   0  0  0  0  0  0  0  0  0  0  0  0
  140.2790   71.1956  222.4944 H   0  0  0  0  0  0  0  0  0  0  0  0
  141.9837   71.4994  222.4689 H   0  0  0  0  0  0  0  0  0  0  0  0
  140.5903   73.7642  222.5644 H   0  0  0  0  0  0  0  0  0  0  0  0
  140.5738   75.5306  220.4569 H   0  0  0  0  0  0  0  0  0  0  0  0
  142.3351   76.8046  219.2709 H   0  0  0  0  0  0  0  0  0  0  0  0
  144.6206   75.8531  219.0939 H   0  0  0  0  0  0  0  0  0  0  0  0
  143.3638   72.4085  221.2860 H   0  0  0  0  0  0  0  0  0  0  0  0
  138.1887   68.1248  223.1094 H   0  0  0  0  0  0  0  0  0  0  0  0
  139.1797   66.9579  225.0763 H   0  0  0  0  0  0  0  0  0  0  0  0
  140.3385   66.9670  227.1858 H   0  0  0  0  0  0  0  0  0  0  0  0
  141.5540   70.7509  228.8557 H   0  0  0  0  0  0  0  0  0  0  0  0
  140.5772   71.9522  226.9055 H   0  0  0  0  0  0  0  0  0  0  0  0
  1  2  2  0
  2  3  1  0
  3  4  1  0
  4  5  1  0
  5  6  2  0
  5  7  1  0
  7  8  1  0
  8  9  1  0
  9 10  1  0
  9 11  1  0
 11 12  1  0
 12 13  1  0
 13 14  2  0
 14 15  1  0
 15 16  2  0
 16 17  1  0
 17 18  1  0
 17 19  2  0
  2 20  1  0
 20 21  2  0
 21 22  1  0
 22 23  2  0
 23 24  1  0
 24 25  2  0
 25 26  1  0
 25 27  1  0
 27 28  2  0
 28 29  1  0
 29 30  2  0
 12  7  1  0
 19 13  1  0
 30 20  1  0
 29 23  1  0
  3 31  1  0
  4 32  1  0
  4 33  1  0
  8 34  1  0
  8 35  1  0
  9 36  1  6
 10 37  1  0
 11 38  1  0
 11 39  1  0
 12 40  1  1
 14 41  1  0
 15 42  1  0
 16 43  1  0
 19 44  1  0
 21 45  1  0
 22 46  1  0
 24 47  1  0
 27 48  1  0
 28 49  1  0
M  END
>  <smiles>  (11) 
O=C(NCC(=O)N1C[C@H](O)C[C@H]1c1cccc(Cl)c1)c1ccc2cc(F)ccc2n1

>  <score_type>  (11) 
oracle

>  <origin>  (11) 
autodockgpu

>  <m_score__min__energy>  (11) 
-8.8399999999999999

>  <m_primary>  (11) 
energy

>  <meeko>  (11) 
{"free_energy": -7.04, "intermolecular_energy": -8.83, "internal_energy": -2.66, "cluster_size": 3, "cluster_id": 3, "rank_in_cluster": 2}

>  <energy>  (11) 
-8.2

>  <cluster_rmsd>  (11) 
1.63

>  <rmsd>  (11) 
270.59

>  <cluster>  (11) 
1

$$$$

     RDKit          3D

 49 52  0  0  0  0  0  0  0  0999 V2000
  140.8690   72.0910  221.3230 O   0  0  0  0  0  0  0  0  0  0  0  0
  140.1530   72.3500  222.3250 C   0  0  0  0  0  0  0  0  0  0  0  0
  139.3760   73.5480  222.2620 N   0  0  0  0  0  0  0  0  0  0  0  0
  139.4090   74.4200  221.1050 C   0  0  0  0  0  0  0  0  0  0  0  0
  138.9630   75.7870  221.4180 C   0  0  0  0  0  0  0  0  0  0  0  0
  137.8540   76.0740  221.9430 O   0  0  0  0  0  0  0  0  0  0  0  0
  139.8430   76.8600  221.1070 N   0  0  0  0  0  0  0  0  0  0  0  0
  139.6530   77.8830  220.0760 C   0  0  0  0  0  0  0  0  0  0  0  0
  141.0740   78.2280  219.6340 C   0  0  2  0  0  0  0  0  0  0  0  0
  141.2280   78.0510  218.2630 O   0  0  0  0  0  0  0  0  0  0  0  0
  141.9530   77.3000  220.4520 C   0  0  0  0  0  0  0  0  0  0  0  0
  141.1180   77.1940  221.7240 C   0  0  1  0  0  0  0  0  0  0  0  0
  141.0370   78.4810  222.4580 C   0  0  0  0  0  0  0  0  0  0  0  0
  142.2070   79.2070  222.6670 C   0  0  0  0  0  0  0  0  0  0  0  0
  142.2060   80.4150  223.3430 C   0  0  0  0  0  0  0  0  0  0  0  0
  141.0160   80.9110  223.8210 C   0  0  0  0  0  0  0  0  0  0  0  0
  139.8540   80.2170  223.6270 C   0  0  0  0  0  0  0  0  0  0  0  0
  138.3270   80.8340  224.2300 Cl  0  0  0  0  0  0  0  0  0  0  0  0
  139.8790   79.0150  222.9510 C   0  0  0  0  0  0  0  0  0  0  0  0
  140.1050   71.4880  223.4990 C   0  0  0  0  0  0  0  0  0  0  0  0
  139.5470   70.2260  223.3440 C   0  0  0  0  0  0  0  0  0  0  0  0
  139.5110   69.4240  224.4730 C   0  0  0  0  0  0  0  0  0  0  0  0
  139.9960   69.8370  225.6930 C   0  0  0  0  0  0  0  0  0  0  0  0
  139.9400   68.9980  226.8010 C   0  0  0  0  0  0  0  0  0  0  0  0
  140.4400   69.4560  228.0070 C   0  0  0  0  0  0  0  0  0  0  0  0
  140.3900   68.6470  229.0930 F   0  0  0  0  0  0  0  0  0  0  0  0
  140.9880   70.7290  228.1070 C   0  0  0  0  0  0  0  0  0  0  0  0
  141.0420   71.5640  226.9970 C   0  0  0  0  0  0  0  0  0  0  0  0
  140.5470   71.1200  225.7860 C   0  0  0  0  0  0  0  0  0  0  0  0
  140.5840   71.9070  224.6880 N   0  0  0  0  0  0  0  0  0  0  0  0
  138.7810   73.7670  223.0890 H   0  0  0  0  0  0  0  0  0  0  0  0
  140.4404   74.4635  220.7251 H   0  0  0  0  0  0  0  0  0  0  0  0
  138.7193   74.0065  220.3545 H   0  0  0  0  0  0  0  0  0  0  0  0
  139.0669   77.4860  219.2341 H   0  0  0  0  0  0  0  0  0  0  0  0
  139.0991   78.7589  220.4447 H   0  0  0  0  0  0  0  0  0  0  0  0
  141.3366   79.2823  219.8059 H   0  0  0  0  0  0  0  0  0  0  0  0
  141.6480   77.1560  218.1430 H   0  0  0  0  0  0  0  0  0  0  0  0
  142.0790   76.3222  219.9641 H   0  0  0  0  0  0  0  0  0  0  0  0
  142.9837   77.6532  220.6034 H   0  0  0  0  0  0  0  0  0  0  0  0
  141.4982   76.4924  222.4811 H   0  0  0  0  0  0  0  0  0  0  0  0
  143.1585   78.8094  222.2842 H   0  0  0  0  0  0  0  0  0  0  0  0
  143.1434   80.9700  223.4955 H   0  0  0  0  0  0  0  0  0  0  0  0
  140.9988   81.8691  224.3611 H   0  0  0  0  0  0  0  0  0  0  0  0
  138.9361   78.4680  222.8037 H   0  0  0  0  0  0  0  0  0  0  0  0
  139.1543   69.8813  222.3760 H   0  0  0  0  0  0  0  0  0  0  0  0
  139.0773   68.4164  224.3911 H   0  0  0  0  0  0  0  0  0  0  0  0
  139.5067   67.9902  226.7200 H   0  0  0  0  0  0  0  0  0  0  0  0
  141.3823   71.0788  229.0725 H   0  0  0  0  0  0  0  0  0  0  0  0
  141.4758   72.5712  227.0822 H   0  0  0  0  0  0  0  0  0  0  0  0
  1  2  2  0
  2  3  1  0
  3  4  1  0
  4  5  1  0
  5  6  2  0
  5  7  1  0
  7  8  1  0
  8  9  1  0
  9 10  1  0
  9 11  1  0
 11 12  1  0
 12 13  1  0
 13 14  2  0
 14 15  1  0
 15 16  2  0
 16 17  1  0
 17 18  1  0
 17 19  2  0
  2 20  1  0
 20 21  2  0
 21 22  1  0
 22 23  2  0
 23 24  1  0
 24 25  2  0
 25 26  1  0
 25 27  1  0
 27 28  2  0
 28 29  1  0
 29 30  2  0
 12  7  1  0
 19 13  1  0
 30 20  1  0
 29 23  1  0
  3 31  1  0
  4 32  1  0
  4 33  1  0
  8 34  1  0
  8 35  1  0
  9 36  1  6
 10 37  1  0
 11 38  1  0
 11 39  1  0
 12 40  1  1
 14 41  1  0
 15 42  1  0
 16 43  1  0
 19 44  1  0
 21 45  1  0
 22 46  1  0
 24 47  1  0
 27 48  1  0
 28 49  1  0
M  END
>  <smiles>  (12) 
O=C(NCC(=O)N1C[C@H](O)C[C@H]1c1cccc(Cl)c1)c1ccc2cc(F)ccc2n1

>  <score_type>  (12) 
oracle

>  <origin>  (12) 
autodockgpu

>  <m_score__min__energy>  (12) 
-8.8399999999999999

>  <m_primary>  (12) 
energy

>  <meeko>  (12) 
{"free_energy": -8.67, "intermolecular_energy": -10.46, "internal_energy": -1.28, "cluster_size": 14, "cluster_id": 1, "rank_in_cluster": 7}

>  <energy>  (12) 
-7.76

>  <cluster_rmsd>  (12) 
1.39

>  <rmsd>  (12) 
270.57

>  <cluster>  (12) 
1

$$$$

     RDKit          3D

 49 52  0  0  0  0  0  0  0  0999 V2000
  138.0880   70.2350  221.6900 O   0  0  0  0  0  0  0  0  0  0  0  0
  138.2360   70.7800  222.8150 C   0  0  0  0  0  0  0  0  0  0  0  0
  137.8280   72.1460  222.9200 N   0  0  0  0  0  0  0  0  0  0  0  0
  137.2720   72.8670  221.7920 C   0  0  0  0  0  0  0  0  0  0  0  0
  138.2890   73.6400  221.0620 C   0  0  0  0  0  0  0  0  0  0  0  0
  138.1160   74.8030  220.6100 O   0  0  0  0  0  0  0  0  0  0  0  0
  139.5580   73.0320  220.8500 N   0  0  0  0  0  0  0  0  0  0  0  0
  139.9400   72.1590  219.7380 C   0  0  0  0  0  0  0  0  0  0  0  0
  140.9790   71.2190  220.3490 C   0  0  2  0  0  0  0  0  0  0  0  0
  140.6070   69.8890  220.1840 O   0  0  0  0  0  0  0  0  0  0  0  0
  141.0470   71.6370  221.8060 C   0  0  0  0  0  0  0  0  0  0  0  0
  140.7570   73.1290  221.6690 C   0  0  1  0  0  0  0  0  0  0  0  0
  141.8370   73.8530  220.9550 C   0  0  0  0  0  0  0  0  0  0  0  0
  141.5580   75.1050  220.4140 C   0  0  0  0  0  0  0  0  0  0  0  0
  142.5180   75.8370  219.7370 C   0  0  0  0  0  0  0  0  0  0  0  0
  143.7810   75.3120  219.5940 C   0  0  0  0  0  0  0  0  0  0  0  0
  144.0790   74.0850  220.1180 C   0  0  0  0  0  0  0  0  0  0  0  0
  145.6830   73.4000  219.9460 Cl  0  0  0  0  0  0  0  0  0  0  0  0
  143.1070   73.3730  220.7890 C   0  0  0  0  0  0  0  0  0  0  0  0
  138.7930   70.0760  223.9620 C   0  0  0  0  0  0  0  0  0  0  0  0
  138.6670   68.6940  223.9890 C   0  0  0  0  0  0  0  0  0  0  0  0
  139.2030   68.0450  225.0900 C   0  0  0  0  0  0  0  0  0  0  0  0
  139.8320   68.7160  226.1130 C   0  0  0  0  0  0  0  0  0  0  0  0
  140.3570   68.0240  227.2000 C   0  0  0  0  0  0  0  0  0  0  0  0
  140.9800   68.7410  228.2050 C   0  0  0  0  0  0  0  0  0  0  0  0
  141.4950   68.0770  229.2690 F   0  0  0  0  0  0  0  0  0  0  0  0
  141.0800   70.1250  228.1290 C   0  0  0  0  0  0  0  0  0  0  0  0
  140.5540   70.8120  227.0410 C   0  0  0  0  0  0  0  0  0  0  0  0
  139.9290   70.1100  226.0300 C   0  0  0  0  0  0  0  0  0  0  0  0
  139.4070   70.7480  224.9580 N   0  0  0  0  0  0  0  0  0  0  0  0
  137.9490   72.6030  223.8490 H   0  0  0  0  0  0  0  0  0  0  0  0
  136.8154   72.1432  221.1009 H   0  0  0  0  0  0  0  0  0  0  0  0
  136.5283   73.5772  222.1825 H   0  0  0  0  0  0  0  0  0  0  0  0
  139.0716   71.5946  219.3673 H   0  0  0  0  0  0  0  0  0  0  0  0
  140.3294   72.7179  218.8742 H   0  0  0  0  0  0  0  0  0  0  0  0
  141.9648   71.2909  219.8662 H   0  0  0  0  0  0  0  0  0  0  0  0
  139.6400   69.8380  220.4160 H   0  0  0  0  0  0  0  0  0  0  0  0
  140.2842   71.1271  222.4127 H   0  0  0  0  0  0  0  0  0  0  0  0
  141.9922   71.3940  222.3135 H   0  0  0  0  0  0  0  0  0  0  0  0
  140.6635   73.6809  222.6159 H   0  0  0  0  0  0  0  0  0  0  0  0
  140.5472   75.5239  220.5276 H   0  0  0  0  0  0  0  0  0  0  0  0
  142.2741   76.8249  219.3192 H   0  0  0  0  0  0  0  0  0  0  0  0
  144.5538   75.8810  219.0564 H   0  0  0  0  0  0  0  0  0  0  0  0
  143.3614   72.3867  221.2043 H   0  0  0  0  0  0  0  0  0  0  0  0
  138.1677   68.1426  223.1787 H   0  0  0  0  0  0  0  0  0  0  0  0
  139.1222   66.9495  225.1482 H   0  0  0  0  0  0  0  0  0  0  0  0
  140.2780   66.9284  227.2587 H   0  0  0  0  0  0  0  0  0  0  0  0
  141.5793   70.6812  228.9361 H   0  0  0  0  0  0  0  0  0  0  0  0
  140.6353   71.9076  226.9861 H   0  0  0  0  0  0  0  0  0  0  0  0
  1  2  2  0
  2  3  1  0
  3  4  1  0
  4  5  1  0
  5  6  2  0
  5  7  1  0
  7  8  1  0
  8  9  1  0
  9 10  1  0
  9 11  1  0
 11 12  1  0
 12 13  1  0
 13 14  2  0
 14 15  1  0
 15 16  2  0
 16 17  1  0
 17 18  1  0
 17 19  2  0
  2 20  1  0
 20 21  2  0
 21 22  1  0
 22 23  2  0
 23 24  1  0
 24 25  2  0
 25 26  1  0
 25 27  1  0
 27 28  2  0
 28 29  1  0
 29 30  2  0
 12  7  1  0
 19 13  1  0
 30 20  1  0
 29 23  1  0
  3 31  1  0
  4 32  1  0
  4 33  1  0
  8 34  1  0
  8 35  1  0
  9 36  1  6
 10 37  1  0
 11 38  1  0
 11 39  1  0
 12 40  1  1
 14 41  1  0
 15 42  1  0
 16 43  1  0
 19 44  1  0
 21 45  1  0
 22 46  1  0
 24 47  1  0
 27 48  1  0
 28 49  1  0
M  END
>  <smiles>  (13) 
O=C(NCC(=O)N1C[C@H](O)C[C@H]1c1cccc(Cl)c1)c1ccc2cc(F)ccc2n1

>  <score_type>  (13) 
oracle

>  <origin>  (13) 
autodockgpu

>  <m_score__min__energy>  (13) 
-8.8399999999999999

>  <m_primary>  (13) 
energy

>  <meeko>  (13) 
{"free_energy": -7.03, "intermolecular_energy": -8.82, "internal_energy": -2.62, "cluster_size": 3, "cluster_id": 3, "rank_in_cluster": 3}

>  <energy>  (13) 
-7.72

>  <cluster_rmsd>  (13) 
1.38

>  <rmsd>  (13) 
270.6

>  <cluster>  (13) 
1

$$$$

     RDKit          3D

 49 52  0  0  0  0  0  0  0  0999 V2000
  138.6630   72.7100  221.7120 O   0  0  0  0  0  0  0  0  0  0  0  0
  139.7320   72.3630  222.2790 C   0  0  0  0  0  0  0  0  0  0  0  0
  140.9460   72.8540  221.7070 N   0  0  0  0  0  0  0  0  0  0  0  0
  140.9490   73.7070  220.5350 C   0  0  0  0  0  0  0  0  0  0  0  0
  141.2250   75.1140  220.8650 C   0  0  0  0  0  0  0  0  0  0  0  0
  142.3310   75.6880  220.6800 O   0  0  0  0  0  0  0  0  0  0  0  0
  140.1700   75.8820  221.4330 N   0  0  0  0  0  0  0  0  0  0  0  0
  139.4850   75.6300  222.7020 C   0  0  0  0  0  0  0  0  0  0  0  0
  138.0680   76.1510  222.4650 C   0  0  2  0  0  0  0  0  0  0  0  0
  137.1240   75.1590  222.7060 O   0  0  0  0  0  0  0  0  0  0  0  0
  138.0810   76.6170  221.0210 C   0  0  0  0  0  0  0  0  0  0  0  0
  139.5310   77.0760  220.9010 C   0  0  1  0  0  0  0  0  0  0  0  0
  139.8230   78.2600  221.7460 C   0  0  0  0  0  0  0  0  0  0  0  0
  138.7640   79.0660  222.1560 C   0  0  0  0  0  0  0  0  0  0  0  0
  138.9620   80.1860  222.9450 C   0  0  0  0  0  0  0  0  0  0  0  0
  140.2400   80.5110  223.3340 C   0  0  0  0  0  0  0  0  0  0  0  0
  141.2960   79.7340  222.9450 C   0  0  0  0  0  0  0  0  0  0  0  0
  142.9320   80.1330  223.4310 Cl  0  0  0  0  0  0  0  0  0  0  0  0
  141.0750   78.6230  222.1580 C   0  0  0  0  0  0  0  0  0  0  0  0
  139.7530   71.5070  223.4580 C   0  0  0  0  0  0  0  0  0  0  0  0
  139.1230   70.2740  223.3660 C   0  0  0  0  0  0  0  0  0  0  0  0
  139.1560   69.4770  224.4980 C   0  0  0  0  0  0  0  0  0  0  0  0
  139.7740   69.8670  225.6630 C   0  0  0  0  0  0  0  0  0  0  0  0
  139.7840   69.0340  226.7780 C   0  0  0  0  0  0  0  0  0  0  0  0
  140.4180   69.4700  227.9270 C   0  0  0  0  0  0  0  0  0  0  0  0
  140.4320   68.6660  229.0190 F   0  0  0  0  0  0  0  0  0  0  0  0
  141.0340   70.7140  227.9670 C   0  0  0  0  0  0  0  0  0  0  0  0
  141.0230   71.5430  226.8500 C   0  0  0  0  0  0  0  0  0  0  0  0
  140.3930   71.1220  225.6960 C   0  0  0  0  0  0  0  0  0  0  0  0
  140.3640   71.9040  224.5930 N   0  0  0  0  0  0  0  0  0  0  0  0
  141.8340   72.5700  222.1730 H   0  0  0  0  0  0  0  0  0  0  0  0
  141.7227   73.3491  219.8398 H   0  0  0  0  0  0  0  0  0  0  0  0
  139.9472   73.6592  220.0833 H   0  0  0  0  0  0  0  0  0  0  0  0
  139.4729   74.5547  222.9334 H   0  0  0  0  0  0  0  0  0  0  0  0
  139.9792   76.1182  223.5549 H   0  0  0  0  0  0  0  0  0  0  0  0
  137.7872   76.9678  223.1462 H   0  0  0  0  0  0  0  0  0  0  0  0
  137.6280   74.3020  222.7660 H   0  0  0  0  0  0  0  0  0  0  0  0
  137.8544   75.7956  220.3254 H   0  0  0  0  0  0  0  0  0  0  0  0
  137.3315   77.3840  220.7760 H   0  0  0  0  0  0  0  0  0  0  0  0
  139.8427   77.3966  219.8960 H   0  0  0  0  0  0  0  0  0  0  0  0
  137.7418   78.8054  221.8442 H   0  0  0  0  0  0  0  0  0  0  0  0
  138.1091   80.8070  223.2563 H   0  0  0  0  0  0  0  0  0  0  0  0
  140.4136   81.3987  223.9600 H   0  0  0  0  0  0  0  0  0  0  0  0
  141.9346   78.0087  221.8517 H   0  0  0  0  0  0  0  0  0  0  0  0
  138.6235   69.9468  222.4422 H   0  0  0  0  0  0  0  0  0  0  0  0
  138.6680   68.4918  224.4639 H   0  0  0  0  0  0  0  0  0  0  0  0
  139.2971   68.0481  226.7459 H   0  0  0  0  0  0  0  0  0  0  0  0
  141.5342   71.0462  228.8886 H   0  0  0  0  0  0  0  0  0  0  0  0
  141.5129   72.5272  226.8860 H   0  0  0  0  0  0  0  0  0  0  0  0
  1  2  2  0
  2  3  1  0
  3  4  1  0
  4  5  1  0
  5  6  2  0
  5  7  1  0
  7  8  1  0
  8  9  1  0
  9 10  1  0
  9 11  1  0
 11 12  1  0
 12 13  1  0
 13 14  2  0
 14 15  1  0
 15 16  2  0
 16 17  1  0
 17 18  1  0
 17 19  2  0
  2 20  1  0
 20 21  2  0
 21 22  1  0
 22 23  2  0
 23 24  1  0
 24 25  2  0
 25 26  1  0
 25 27  1  0
 27 28  2  0
 28 29  1  0
 29 30  2  0
 12  7  1  0
 19 13  1  0
 30 20  1  0
 29 23  1  0
  3 31  1  0
  4 32  1  0
  4 33  1  0
  8 34  1  0
  8 35  1  0
  9 36  1  1
 10 37  1  0
 11 38  1  0
 11 39  1  0
 12 40  1  6
 14 41  1  0
 15 42  1  0
 16 43  1  0
 19 44  1  0
 21 45  1  0
 22 46  1  0
 24 47  1  0
 27 48  1  0
 28 49  1  0
M  END
>  <smiles>  (14) 
O=C(NCC(=O)N1C[C@H](O)C[C@H]1c1cccc(Cl)c1)c1ccc2cc(F)ccc2n1

>  <score_type>  (14) 
oracle

>  <origin>  (14) 
autodockgpu

>  <m_score__min__energy>  (14) 
-8.8399999999999999

>  <m_primary>  (14) 
energy

>  <meeko>  (14) 
{"free_energy": -7.67, "intermolecular_energy": -9.46, "internal_energy": -2.14, "cluster_size": 14, "cluster_id": 1, "rank_in_cluster": 14}

>  <energy>  (14) 
-7.67

>  <cluster_rmsd>  (14) 
1.62

>  <rmsd>  (14) 
270.56

>  <cluster>  (14) 
1

$$$$

     RDKit          3D

 49 52  0  0  0  0  0  0  0  0999 V2000
  139.1480   70.9780  221.5240 O   0  0  0  0  0  0  0  0  0  0  0  0
  139.4320   71.4410  222.6590 C   0  0  0  0  0  0  0  0  0  0  0  0
  139.5840   72.8600  222.7510 N   0  0  0  0  0  0  0  0  0  0  0  0
  139.4180   73.7220  221.5970 C   0  0  0  0  0  0  0  0  0  0  0  0
  140.4200   74.7990  221.5520 C   0  0  0  0  0  0  0  0  0  0  0  0
  141.6660   74.6190  221.6010 O   0  0  0  0  0  0  0  0  0  0  0  0
  139.9500   76.1380  221.4470 N   0  0  0  0  0  0  0  0  0  0  0  0
  138.7130   76.6820  222.0110 C   0  0  0  0  0  0  0  0  0  0  0  0
  138.3100   77.7780  221.0250 C   0  0  2  0  0  0  0  0  0  0  0  0
  137.0240   77.5660  220.5420 O   0  0  0  0  0  0  0  0  0  0  0  0
  139.3690   77.7080  219.9400 C   0  0  0  0  0  0  0  0  0  0  0  0
  140.5710   77.2640  220.7680 C   0  0  1  0  0  0  0  0  0  0  0  0
  141.0050   78.3010  221.7360 C   0  0  0  0  0  0  0  0  0  0  0  0
  141.4190   77.9010  223.0040 C   0  0  0  0  0  0  0  0  0  0  0  0
  141.8380   78.8130  223.9570 C   0  0  0  0  0  0  0  0  0  0  0  0
  141.8460   80.1520  223.6420 C   0  0  0  0  0  0  0  0  0  0  0  0
  141.4440   80.5690  222.4030 C   0  0  0  0  0  0  0  0  0  0  0  0
  141.4470   82.2710  221.9850 Cl  0  0  0  0  0  0  0  0  0  0  0  0
  141.0310   79.6420  221.4690 C   0  0  0  0  0  0  0  0  0  0  0  0
  139.6030   70.5940  223.8320 C   0  0  0  0  0  0  0  0  0  0  0  0
  139.1640   69.2810  223.7440 C   0  0  0  0  0  0  0  0  0  0  0  0
  139.3360   68.4940  224.8710 C   0  0  0  0  0  0  0  0  0  0  0  0
  139.9100   68.9690  226.0270 C   0  0  0  0  0  0  0  0  0  0  0  0
  140.0640   68.1430  227.1360 C   0  0  0  0  0  0  0  0  0  0  0  0
  140.6470   68.6650  228.2770 C   0  0  0  0  0  0  0  0  0  0  0  0
  140.8020   67.8690  229.3640 F   0  0  0  0  0  0  0  0  0  0  0  0
  141.0700   69.9880  228.3130 C   0  0  0  0  0  0  0  0  0  0  0  0
  140.9150   70.8100  227.2020 C   0  0  0  0  0  0  0  0  0  0  0  0
  140.3340   70.3020  226.0560 C   0  0  0  0  0  0  0  0  0  0  0  0
  140.1680   71.0740  224.9590 N   0  0  0  0  0  0  0  0  0  0  0  0
  139.8190   73.2480  223.6880 H   0  0  0  0  0  0  0  0  0  0  0  0
  139.5121   73.1137  220.6853 H   0  0  0  0  0  0  0  0  0  0  0  0
  138.4253   74.1905  221.6685 H   0  0  0  0  0  0  0  0  0  0  0  0
  137.9362   75.9056  222.0721 H   0  0  0  0  0  0  0  0  0  0  0  0
  138.8445   77.0605  223.0354 H   0  0  0  0  0  0  0  0  0  0  0  0
  138.2704   78.7784  221.4807 H   0  0  0  0  0  0  0  0  0  0  0  0
  137.1180   76.9690  219.7500 H   0  0  0  0  0  0  0  0  0  0  0  0
  139.1118   76.9698  219.1661 H   0  0  0  0  0  0  0  0  0  0  0  0
  139.5153   78.6409  219.3758 H   0  0  0  0  0  0  0  0  0  0  0  0
  141.4859   77.0500  220.1960 H   0  0  0  0  0  0  0  0  0  0  0  0
  141.4128   76.8301  223.2552 H   0  0  0  0  0  0  0  0  0  0  0  0
  142.1600   78.4720  224.9520 H   0  0  0  0  0  0  0  0  0  0  0  0
  142.1765   80.8892  224.3885 H   0  0  0  0  0  0  0  0  0  0  0  0
  140.7120   79.9929  220.4765 H   0  0  0  0  0  0  0  0  0  0  0  0
  138.7032   68.8853  222.8269 H   0  0  0  0  0  0  0  0  0  0  0  0
  138.9999   67.4471  224.8401 H   0  0  0  0  0  0  0  0  0  0  0  0
  139.7289   67.0957  227.1062 H   0  0  0  0  0  0  0  0  0  0  0  0
  141.5313   70.3885  229.2278 H   0  0  0  0  0  0  0  0  0  0  0  0
  141.2523   71.8565  227.2354 H   0  0  0  0  0  0  0  0  0  0  0  0
  1  2  2  0
  2  3  1  0
  3  4  1  0
  4  5  1  0
  5  6  2  0
  5  7  1  0
  7  8  1  0
  8  9  1  0
  9 10  1  0
  9 11  1  0
 11 12  1  0
 12 13  1  0
 13 14  2  0
 14 15  1  0
 15 16  2  0
 16 17  1  0
 17 18  1  0
 17 19  2  0
  2 20  1  0
 20 21  2  0
 21 22  1  0
 22 23  2  0
 23 24  1  0
 24 25  2  0
 25 26  1  0
 25 27  1  0
 27 28  2  0
 28 29  1  0
 29 30  2  0
 12  7  1  0
 19 13  1  0
 30 20  1  0
 29 23  1  0
  3 31  1  0
  4 32  1  0
  4 33  1  0
  8 34  1  0
  8 35  1  0
  9 36  1  1
 10 37  1  0
 11 38  1  0
 11 39  1  0
 12 40  1  6
 14 41  1  0
 15 42  1  0
 16 43  1  0
 19 44  1  0
 21 45  1  0
 22 46  1  0
 24 47  1  0
 27 48  1  0
 28 49  1  0
M  END
>  <smiles>  (15) 
O=C(NCC(=O)N1C[C@H](O)C[C@H]1c1cccc(Cl)c1)c1ccc2cc(F)ccc2n1

>  <score_type>  (15) 
oracle

>  <origin>  (15) 
autodockgpu

>  <m_score__min__energy>  (15) 
-8.8399999999999999

>  <m_primary>  (15) 
energy

>  <meeko>  (15) 
{"free_energy": -8.2, "intermolecular_energy": -9.99, "internal_energy": -1.39, "cluster_size": 14, "cluster_id": 1, "rank_in_cluster": 11}

>  <energy>  (15) 
-8.63

>  <cluster_rmsd>  (15) 
0.0

>  <rmsd>  (15) 
270.22

>  <cluster>  (15) 
2

$$$$

     RDKit          3D

 49 52  0  0  0  0  0  0  0  0999 V2000
  141.2840   72.6290  221.9570 O   0  0  0  0  0  0  0  0  0  0  0  0
  140.2540   72.5020  222.6680 C   0  0  0  0  0  0  0  0  0  0  0  0
  139.1470   73.3470  222.3470 N   0  0  0  0  0  0  0  0  0  0  0  0
  139.2060   74.3030  221.2570 C   0  0  0  0  0  0  0  0  0  0  0  0
  138.8850   75.6710  221.6910 C   0  0  0  0  0  0  0  0  0  0  0  0
  137.8860   75.9830  222.3920 O   0  0  0  0  0  0  0  0  0  0  0  0
  139.7630   76.7170  221.2920 N   0  0  0  0  0  0  0  0  0  0  0  0
  139.5410   77.6890  220.2200 C   0  0  0  0  0  0  0  0  0  0  0  0
  140.9470   77.9950  219.7040 C   0  0  2  0  0  0  0  0  0  0  0  0
  141.0430   77.7480  218.3390 O   0  0  0  0  0  0  0  0  0  0  0  0
  141.8490   77.0980  220.5310 C   0  0  0  0  0  0  0  0  0  0  0  0
  141.0650   77.0650  221.8400 C   0  0  1  0  0  0  0  0  0  0  0  0
  141.0280   78.3870  222.5120 C   0  0  0  0  0  0  0  0  0  0  0  0
  142.2180   79.0930  222.6660 C   0  0  0  0  0  0  0  0  0  0  0  0
  142.2570   80.3320  223.2820 C   0  0  0  0  0  0  0  0  0  0  0  0
  141.0880   80.8810  223.7550 C   0  0  0  0  0  0  0  0  0  0  0  0
  139.9060   80.2060  223.6130 C   0  0  0  0  0  0  0  0  0  0  0  0
  138.4060   80.8900  224.2100 Cl  0  0  0  0  0  0  0  0  0  0  0  0
  139.8910   78.9730  222.9960 C   0  0  0  0  0  0  0  0  0  0  0  0
  140.1720   71.5490  223.7680 C   0  0  0  0  0  0  0  0  0  0  0  0
  139.5850   70.3190  223.5070 C   0  0  0  0  0  0  0  0  0  0  0  0
  139.5180   69.4290  224.5680 C   0  0  0  0  0  0  0  0  0  0  0  0
  140.0000   69.7300  225.8210 C   0  0  0  0  0  0  0  0  0  0  0  0
  139.9120   68.8060  226.8570 C   0  0  0  0  0  0  0  0  0  0  0  0
  140.4100   69.1530  228.1000 C   0  0  0  0  0  0  0  0  0  0  0  0
  140.3290   68.2600  229.1170 F   0  0  0  0  0  0  0  0  0  0  0  0
  140.9880   70.3990  228.3080 C   0  0  0  0  0  0  0  0  0  0  0  0
  141.0740   71.3190  227.2690 C   0  0  0  0  0  0  0  0  0  0  0  0
  140.5810   70.9870  226.0220 C   0  0  0  0  0  0  0  0  0  0  0  0
  140.6490   71.8590  224.9910 N   0  0  0  0  0  0  0  0  0  0  0  0
  138.2910   73.2460  222.9320 H   0  0  0  0  0  0  0  0  0  0  0  0
  140.2221   74.2957  220.8357 H   0  0  0  0  0  0  0  0  0  0  0  0
  138.4565   74.0046  220.5092 H   0  0  0  0  0  0  0  0  0  0  0  0
  138.9171   77.2574  219.4234 H   0  0  0  0  0  0  0  0  0  0  0  0
  139.0111   78.5886  220.5662 H   0  0  0  0  0  0  0  0  0  0  0  0
  141.2269   79.0533  219.8122 H   0  0  0  0  0  0  0  0  0  0  0  0
  140.4260   76.9900  218.1480 H   0  0  0  0  0  0  0  0  0  0  0  0
  141.9451   76.0959  220.0877 H   0  0  0  0  0  0  0  0  0  0  0  0
  142.8885   77.4457  220.6230 H   0  0  0  0  0  0  0  0  0  0  0  0
  141.4680   76.3967  222.6152 H   0  0  0  0  0  0  0  0  0  0  0  0
  143.1530   78.6541  222.2877 H   0  0  0  0  0  0  0  0  0  0  0  0
  143.2100   80.8702  223.3917 H   0  0  0  0  0  0  0  0  0  0  0  0
  141.1031   81.8641  224.2482 H   0  0  0  0  0  0  0  0  0  0  0  0
  138.9329   78.4432  222.8896 H   0  0  0  0  0  0  0  0  0  0  0  0
  139.1936   70.0636  222.5112 H   0  0  0  0  0  0  0  0  0  0  0  0
  139.0610   68.4424  224.4012 H   0  0  0  0  0  0  0  0  0  0  0  0
  139.4555   67.8190  226.6911 H   0  0  0  0  0  0  0  0  0  0  0  0
  141.3805   70.6597  229.3020 H   0  0  0  0  0  0  0  0  0  0  0  0
  141.5316   72.3048  227.4389 H   0  0  0  0  0  0  0  0  0  0  0  0
  1  2  2  0
  2  3  1  0
  3  4  1  0
  4  5  1  0
  5  6  2  0
  5  7  1  0
  7  8  1  0
  8  9  1  0
  9 10  1  0
  9 11  1  0
 11 12  1  0
 12 13  1  0
 13 14  2  0
 14 15  1  0
 15 16  2  0
 16 17  1  0
 17 18  1  0
 17 19  2  0
  2 20  1  0
 20 21  2  0
 21 22  1  0
 22 23  2  0
 23 24  1  0
 24 25  2  0
 25 26  1  0
 25 27  1  0
 27 28  2  0
 28 29  1  0
 29 30  2  0
 12  7  1  0
 19 13  1  0
 30 20  1  0
 29 23  1  0
  3 31  1  0
  4 32  1  0
  4 33  1  0
  8 34  1  0
  8 35  1  0
  9 36  1  6
 10 37  1  0
 11 38  1  0
 11 39  1  0
 12 40  1  1
 14 41  1  0
 15 42  1  0
 16 43  1  0
 19 44  1  0
 21 45  1  0
 22 46  1  0
 24 47  1  0
 27 48  1  0
 28 49  1  0
M  END
>  <smiles>  (16) 
O=C(NCC(=O)N1C[C@H](O)C[C@H]1c1cccc(Cl)c1)c1ccc2cc(F)ccc2n1

>  <score_type>  (16) 
oracle

>  <origin>  (16) 
autodockgpu

>  <m_score__min__energy>  (16) 
-8.8399999999999999

>  <m_primary>  (16) 
energy

>  <meeko>  (16) 
{"free_energy": -8.81, "intermolecular_energy": -10.6, "internal_energy": -1.28, "cluster_size": 14, "cluster_id": 1, "rank_in_cluster": 3}

>  <energy>  (16) 
-7.54

>  <cluster_rmsd>  (16) 
1.95

>  <rmsd>  (16) 
269.86

>  <cluster>  (16) 
2

$$$$

     RDKit          3D

 49 52  0  0  0  0  0  0  0  0999 V2000
  138.1010   70.1950  221.6600 O   0  0  0  0  0  0  0  0  0  0  0  0
  138.2760   70.7610  222.7710 C   0  0  0  0  0  0  0  0  0  0  0  0
  137.8940   72.1360  222.8540 N   0  0  0  0  0  0  0  0  0  0  0  0
  137.3330   72.8430  221.7200 C   0  0  0  0  0  0  0  0  0  0  0  0
  138.3500   73.5910  220.9650 C   0  0  0  0  0  0  0  0  0  0  0  0
  138.1680   74.7250  220.4490 O   0  0  0  0  0  0  0  0  0  0  0  0
  139.6310   72.9920  220.8050 N   0  0  0  0  0  0  0  0  0  0  0  0
  140.0570   72.1060  219.7190 C   0  0  0  0  0  0  0  0  0  0  0  0
  141.0830   71.1840  220.3770 C   0  0  2  0  0  0  0  0  0  0  0  0
  140.7280   69.8490  220.2190 O   0  0  0  0  0  0  0  0  0  0  0  0
  141.0980   71.6230  221.8300 C   0  0  0  0  0  0  0  0  0  0  0  0
  140.8000   73.1100  221.6620 C   0  0  1  0  0  0  0  0  0  0  0  0
  141.8980   73.8340  220.9750 C   0  0  0  0  0  0  0  0  0  0  0  0
  141.6310   75.0830  220.4200 C   0  0  0  0  0  0  0  0  0  0  0  0
  142.6080   75.8140  219.7660 C   0  0  0  0  0  0  0  0  0  0  0  0
  143.8760   75.2920  219.6620 C   0  0  0  0  0  0  0  0  0  0  0  0
  144.1610   74.0680  220.2000 C   0  0  0  0  0  0  0  0  0  0  0  0
  145.7720   73.3860  220.0760 Cl  0  0  0  0  0  0  0  0  0  0  0  0
  143.1730   73.3570  220.8470 C   0  0  0  0  0  0  0  0  0  0  0  0
  138.8380   70.0700  223.9240 C   0  0  0  0  0  0  0  0  0  0  0  0
  138.7430   68.6860  223.9500 C   0  0  0  0  0  0  0  0  0  0  0  0
  139.2840   68.0500  225.0560 C   0  0  0  0  0  0  0  0  0  0  0  0
  139.8870   68.7360  226.0850 C   0  0  0  0  0  0  0  0  0  0  0  0
  140.4180   68.0570  227.1780 C   0  0  0  0  0  0  0  0  0  0  0  0
  141.0150   68.7890  228.1880 C   0  0  0  0  0  0  0  0  0  0  0  0
  141.5350   68.1370  229.2580 F   0  0  0  0  0  0  0  0  0  0  0  0
  141.0830   70.1750  228.1130 C   0  0  0  0  0  0  0  0  0  0  0  0
  140.5520   70.8490  227.0190 C   0  0  0  0  0  0  0  0  0  0  0  0
  139.9530   70.1320  226.0020 C   0  0  0  0  0  0  0  0  0  0  0  0
  139.4260   70.7570  224.9250 N   0  0  0  0  0  0  0  0  0  0  0  0
  138.0360   72.6090  223.7710 H   0  0  0  0  0  0  0  0  0  0  0  0
  136.8603   72.1124  221.0472 H   0  0  0  0  0  0  0  0  0  0  0  0
  136.6017   73.5684  222.1061 H   0  0  0  0  0  0  0  0  0  0  0  0
  139.2060   71.5288  219.3283 H   0  0  0  0  0  0  0  0  0  0  0  0
  140.4702   72.6559  218.8606 H   0  0  0  0  0  0  0  0  0  0  0  0
  142.0836   71.2579  219.9262 H   0  0  0  0  0  0  0  0  0  0  0  0
  139.7780   69.7760  220.5100 H   0  0  0  0  0  0  0  0  0  0  0  0
  140.3195   71.1147  222.4179 H   0  0  0  0  0  0  0  0  0  0  0  0
  142.0275   71.3957  222.3726 H   0  0  0  0  0  0  0  0  0  0  0  0
  140.6695   73.6737  222.5975 H   0  0  0  0  0  0  0  0  0  0  0  0
  140.6165   75.5000  220.5035 H   0  0  0  0  0  0  0  0  0  0  0  0
  142.3733   76.7987  219.3355 H   0  0  0  0  0  0  0  0  0  0  0  0
  144.6628   75.8607  219.1447 H   0  0  0  0  0  0  0  0  0  0  0  0
  143.4184   72.3736  221.2744 H   0  0  0  0  0  0  0  0  0  0  0  0
  138.2635   68.1232  223.1355 H   0  0  0  0  0  0  0  0  0  0  0  0
  139.2291   66.9529  225.1135 H   0  0  0  0  0  0  0  0  0  0  0  0
  140.3638   66.9599  227.2371 H   0  0  0  0  0  0  0  0  0  0  0  0
  141.5604   70.7430  228.9251 H   0  0  0  0  0  0  0  0  0  0  0  0
  140.6086   71.9462  226.9639 H   0  0  0  0  0  0  0  0  0  0  0  0
  1  2  2  0
  2  3  1  0
  3  4  1  0
  4  5  1  0
  5  6  2  0
  5  7  1  0
  7  8  1  0
  8  9  1  0
  9 10  1  0
  9 11  1  0
 11 12  1  0
 12 13  1  0
 13 14  2  0
 14 15  1  0
 15 16  2  0
 16 17  1  0
 17 18  1  0
 17 19  2  0
  2 20  1  0
 20 21  2  0
 21 22  1  0
 22 23  2  0
 23 24  1  0
 24 25  2  0
 25 26  1  0
 25 27  1  0
 27 28  2  0
 28 29  1  0
 29 30  2  0
 12  7  1  0
 19 13  1  0
 30 20  1  0
 29 23  1  0
  3 31  1  0
  4 32  1  0
  4 33  1  0
  8 34  1  0
  8 35  1  0
  9 36  1  6
 10 37  1  0
 11 38  1  0
 11 39  1  0
 12 40  1  1
 14 41  1  0
 15 42  1  0
 16 43  1  0
 19 44  1  0
 21 45  1  0
 22 46  1  0
 24 47  1  0
 27 48  1  0
 28 49  1  0
M  END
>  <smiles>  (17) 
O=C(NCC(=O)N1C[C@H](O)C[C@H]1c1cccc(Cl)c1)c1ccc2cc(F)ccc2n1

>  <score_type>  (17) 
oracle

>  <origin>  (17) 
autodockgpu

>  <m_score__min__energy>  (17) 
-8.8399999999999999

>  <m_primary>  (17) 
energy

>  <meeko>  (17) 
{"free_energy": -7.06, "intermolecular_energy": -8.85, "internal_energy": -2.63, "cluster_size": 3, "cluster_id": 3, "rank_in_cluster": 1}

>  <energy>  (17) 
-7.28

>  <cluster_rmsd>  (17) 
1.79

>  <rmsd>  (17) 
269.83

>  <cluster>  (17) 
2

$$$$

     RDKit          3D

 49 52  0  0  0  0  0  0  0  0999 V2000
  141.2220   72.4880  221.8010 O   0  0  0  0  0  0  0  0  0  0  0  0
  140.2490   72.4690  222.5990 C   0  0  0  0  0  0  0  0  0  0  0  0
  139.2010   73.4090  222.3520 N   0  0  0  0  0  0  0  0  0  0  0  0
  139.2550   74.3380  221.2390 C   0  0  0  0  0  0  0  0  0  0  0  0
  138.9000   75.7100  221.6360 C   0  0  0  0  0  0  0  0  0  0  0  0
  137.8800   76.0190  222.3060 O   0  0  0  0  0  0  0  0  0  0  0  0
  139.7700   76.7620  221.2330 N   0  0  0  0  0  0  0  0  0  0  0  0
  139.5350   77.7360  220.1640 C   0  0  0  0  0  0  0  0  0  0  0  0
  140.9350   78.0510  219.6400 C   0  0  2  0  0  0  0  0  0  0  0  0
  141.0230   77.8080  218.2730 O   0  0  0  0  0  0  0  0  0  0  0  0
  141.8480   77.1570  220.4590 C   0  0  0  0  0  0  0  0  0  0  0  0
  141.0730   77.1160  221.7730 C   0  0  1  0  0  0  0  0  0  0  0  0
  141.0320   78.4370  222.4480 C   0  0  0  0  0  0  0  0  0  0  0  0
  142.2160   79.1580  222.5780 C   0  0  0  0  0  0  0  0  0  0  0  0
  142.2520   80.3970  223.1960 C   0  0  0  0  0  0  0  0  0  0  0  0
  141.0860   80.9280  223.6950 C   0  0  0  0  0  0  0  0  0  0  0  0
  139.9110   80.2380  223.5780 C   0  0  0  0  0  0  0  0  0  0  0  0
  138.4150   80.9000  224.2090 Cl  0  0  0  0  0  0  0  0  0  0  0  0
  139.8990   79.0060  222.9590 C   0  0  0  0  0  0  0  0  0  0  0  0
  140.1740   71.5440  223.7230 C   0  0  0  0  0  0  0  0  0  0  0  0
  139.6060   70.3000  223.4920 C   0  0  0  0  0  0  0  0  0  0  0  0
  139.5440   69.4380  224.5750 C   0  0  0  0  0  0  0  0  0  0  0  0
  140.0160   69.7780  225.8220 C   0  0  0  0  0  0  0  0  0  0  0  0
  139.9350   68.8810  226.8830 C   0  0  0  0  0  0  0  0  0  0  0  0
  140.4220   69.2670  228.1180 C   0  0  0  0  0  0  0  0  0  0  0  0
  140.3470   68.4010  229.1580 F   0  0  0  0  0  0  0  0  0  0  0  0
  140.9810   70.5260  228.2960 C   0  0  0  0  0  0  0  0  0  0  0  0
  141.0610   71.4200  227.2330 C   0  0  0  0  0  0  0  0  0  0  0  0
  140.5780   71.0480  225.9930 C   0  0  0  0  0  0  0  0  0  0  0  0
  140.6400   71.8930  224.9400 N   0  0  0  0  0  0  0  0  0  0  0  0
  138.3930   73.3970  223.0090 H   0  0  0  0  0  0  0  0  0  0  0  0
  140.2765   74.3414  220.8309 H   0  0  0  0  0  0  0  0  0  0  0  0
  138.5225   74.0056  220.4887 H   0  0  0  0  0  0  0  0  0  0  0  0
  138.9084   77.3027  219.3705 H   0  0  0  0  0  0  0  0  0  0  0  0
  139.0021   78.6317  220.5157 H   0  0  0  0  0  0  0  0  0  0  0  0
  141.2099   79.1105  219.7492 H   0  0  0  0  0  0  0  0  0  0  0  0
  141.6890   78.4570  217.9170 H   0  0  0  0  0  0  0  0  0  0  0  0
  141.9471   76.1566  220.0125 H   0  0  0  0  0  0  0  0  0  0  0  0
  142.8860   77.5107  220.5451 H   0  0  0  0  0  0  0  0  0  0  0  0
  141.4852   76.4482  222.5438 H   0  0  0  0  0  0  0  0  0  0  0  0
  143.1483   78.7319  222.1790 H   0  0  0  0  0  0  0  0  0  0  0  0
  143.1996   80.9482  223.2863 H   0  0  0  0  0  0  0  0  0  0  0  0
  141.0983   81.9104  224.1897 H   0  0  0  0  0  0  0  0  0  0  0  0
  138.9462   78.4630  222.8735 H   0  0  0  0  0  0  0  0  0  0  0  0
  139.2247   70.0128  222.5010 H   0  0  0  0  0  0  0  0  0  0  0  0
  139.0997   68.4419  224.4322 H   0  0  0  0  0  0  0  0  0  0  0  0
  139.4920   67.8841  226.7417 H   0  0  0  0  0  0  0  0  0  0  0  0
  141.3634   70.8185  229.2851 H   0  0  0  0  0  0  0  0  0  0  0  0
  141.5055   72.4156  227.3786 H   0  0  0  0  0  0  0  0  0  0  0  0
  1  2  2  0
  2  3  1  0
  3  4  1  0
  4  5  1  0
  5  6  2  0
  5  7  1  0
  7  8  1  0
  8  9  1  0
  9 10  1  0
  9 11  1  0
 11 12  1  0
 12 13  1  0
 13 14  2  0
 14 15  1  0
 15 16  2  0
 16 17  1  0
 17 18  1  0
 17 19  2  0
  2 20  1  0
 20 21  2  0
 21 22  1  0
 22 23  2  0
 23 24  1  0
 24 25  2  0
 25 26  1  0
 25 27  1  0
 27 28  2  0
 28 29  1  0
 29 30  2  0
 12  7  1  0
 19 13  1  0
 30 20  1  0
 29 23  1  0
  3 31  1  0
  4 32  1  0
  4 33  1  0
  8 34  1  0
  8 35  1  0
  9 36  1  6
 10 37  1  0
 11 38  1  0
 11 39  1  0
 12 40  1  1
 14 41  1  0
 15 42  1  0
 16 43  1  0
 19 44  1  0
 21 45  1  0
 22 46  1  0
 24 47  1  0
 27 48  1  0
 28 49  1  0
M  END
>  <smiles>  (18) 
O=C(NCC(=O)N1C[C@H](O)C[C@H]1c1cccc(Cl)c1)c1ccc2cc(F)ccc2n1

>  <score_type>  (18) 
oracle

>  <origin>  (18) 
autodockgpu

>  <m_score__min__energy>  (18) 
-8.8399999999999999

>  <m_primary>  (18) 
energy

>  <meeko>  (18) 
{"free_energy": -8.84, "intermolecular_energy": -10.63, "internal_energy": -1.27, "cluster_size": 14, "cluster_id": 1, "rank_in_cluster": 1}

>  <energy>  (18) 
-7.06

>  <cluster_rmsd>  (18) 
0.0

>  <rmsd>  (18) 
269.6

>  <cluster>  (18) 
3

$$$$

     RDKit          3D

 49 52  0  0  0  0  0  0  0  0999 V2000
  138.7480   72.7260  221.7660 O   0  0  0  0  0  0  0  0  0  0  0  0
  139.8280   72.2980  222.2500 C   0  0  0  0  0  0  0  0  0  0  0  0
  141.0280   72.6990  221.5860 N   0  0  0  0  0  0  0  0  0  0  0  0
  141.0040   73.5530  220.4140 C   0  0  0  0  0  0  0  0  0  0  0  0
  141.3280   74.9530  220.7320 C   0  0  0  0  0  0  0  0  0  0  0  0
  142.4370   75.5010  220.4980 O   0  0  0  0  0  0  0  0  0  0  0  0
  140.3180   75.7430  221.3480 N   0  0  0  0  0  0  0  0  0  0  0  0
  139.5630   75.4170  222.5600 C   0  0  0  0  0  0  0  0  0  0  0  0
  138.2050   76.0810  222.3380 C   0  0  2  0  0  0  0  0  0  0  0  0
  137.1730   75.1540  222.4380 O   0  0  0  0  0  0  0  0  0  0  0  0
  138.3150   76.6960  220.9550 C   0  0  0  0  0  0  0  0  0  0  0  0
  139.8020   77.0380  220.9320 C   0  0  1  0  0  0  0  0  0  0  0  0
  140.1550   78.0960  221.9100 C   0  0  0  0  0  0  0  0  0  0  0  0
  141.4960   78.2880  222.2330 C   0  0  0  0  0  0  0  0  0  0  0  0
  141.8980   79.2570  223.1360 C   0  0  0  0  0  0  0  0  0  0  0  0
  140.9460   80.0510  223.7320 C   0  0  0  0  0  0  0  0  0  0  0  0
  139.6230   79.8810  223.4310 C   0  0  0  0  0  0  0  0  0  0  0  0
  138.3960   80.8830  224.1800 Cl  0  0  0  0  0  0  0  0  0  0  0  0
  139.2450   78.9090  222.5270 C   0  0  0  0  0  0  0  0  0  0  0  0
  139.8760   71.4400  223.4260 C   0  0  0  0  0  0  0  0  0  0  0  0
  139.3410   70.1640  223.3100 C   0  0  0  0  0  0  0  0  0  0  0  0
  139.3970   69.3650  224.4410 C   0  0  0  0  0  0  0  0  0  0  0  0
  139.9490   69.7940  225.6260 C   0  0  0  0  0  0  0  0  0  0  0  0
  139.9850   68.9580  226.7380 C   0  0  0  0  0  0  0  0  0  0  0  0
  140.5500   69.4330  227.9080 C   0  0  0  0  0  0  0  0  0  0  0  0
  140.5890   68.6270  228.9970 F   0  0  0  0  0  0  0  0  0  0  0  0
  141.0710   70.7190  227.9710 C   0  0  0  0  0  0  0  0  0  0  0  0
  141.0330   71.5510  226.8570 C   0  0  0  0  0  0  0  0  0  0  0  0
  140.4720   71.0910  225.6820 C   0  0  0  0  0  0  0  0  0  0  0  0
  140.4200   71.8740  224.5810 N   0  0  0  0  0  0  0  0  0  0  0  0
  141.9250   72.3490  221.9820 H   0  0  0  0  0  0  0  0  0  0  0  0
  141.7394   73.1766  219.6877 H   0  0  0  0  0  0  0  0  0  0  0  0
  139.9836   73.5302  220.0038 H   0  0  0  0  0  0  0  0  0  0  0  0
  139.4526   74.3282  222.6711 H   0  0  0  0  0  0  0  0  0  0  0  0
  140.0610   75.7667  223.4764 H   0  0  0  0  0  0  0  0  0  0  0  0
  137.9655   76.8411  223.0962 H   0  0  0  0  0  0  0  0  0  0  0  0
  137.5950   74.2960  222.7170 H   0  0  0  0  0  0  0  0  0  0  0  0
  138.0498   75.9764  220.1664 H   0  0  0  0  0  0  0  0  0  0  0  0
  137.6420   77.5467  220.7723 H   0  0  0  0  0  0  0  0  0  0  0  0
  140.1809   77.4360  219.9791 H   0  0  0  0  0  0  0  0  0  0  0  0
  142.2569   77.6519  221.7573 H   0  0  0  0  0  0  0  0  0  0  0  0
  142.9637   79.3902  223.3736 H   0  0  0  0  0  0  0  0  0  0  0  0
  141.2497   80.8247  224.4526 H   0  0  0  0  0  0  0  0  0  0  0  0
  138.1769   78.7843  222.2953 H   0  0  0  0  0  0  0  0  0  0  0  0
  138.8961   69.8061  222.3698 H   0  0  0  0  0  0  0  0  0  0  0  0
  138.9835   68.3470  224.3892 H   0  0  0  0  0  0  0  0  0  0  0  0
  139.5723   67.9396  226.6876 H   0  0  0  0  0  0  0  0  0  0  0  0
  141.5169   71.0821  228.9087 H   0  0  0  0  0  0  0  0  0  0  0  0
  141.4471   72.5686  226.9116 H   0  0  0  0  0  0  0  0  0  0  0  0
  1  2  2  0
  2  3  1  0
  3  4  1  0
  4  5  1  0
  5  6  2  0
  5  7  1  0
  7  8  1  0
  8  9  1  0
  9 10  1  0
  9 11  1  0
 11 12  1  0
 12 13  1  0
 13 14  2  0
 14 15  1  0
 15 16  2  0
 16 17  1  0
 17 18  1  0
 17 19  2  0
  2 20  1  0
 20 21  2  0
 21 22  1  0
 22 23  2  0
 23 24  1  0
 24 25  2  0
 25 26  1  0
 25 27  1  0
 27 28  2  0
 28 29  1  0
 29 30  2  0
 12  7  1  0
 19 13  1  0
 30 20  1  0
 29 23  1  0
  3 31  1  0
  4 32  1  0
  4 33  1  0
  8 34  1  0
  8 35  1  0
  9 36  1  1
 10 37  1  0
 11 38  1  0
 11 39  1  0
 12 40  1  6
 14 41  1  0
 15 42  1  0
 16 43  1  0
 19 44  1  0
 21 45  1  0
 22 46  1  0
 24 47  1  0
 27 48  1  0
 28 49  1  0
M  END
>  <smiles>  (19) 
O=C(NCC(=O)N1C[C@H](O)C[C@H]1c1cccc(Cl)c1)c1ccc2cc(F)ccc2n1

>  <score_type>  (19) 
oracle

>  <origin>  (19) 
autodockgpu

>  <m_score__min__energy>  (19) 
-8.8399999999999999

>  <m_primary>  (19) 
energy

>  <meeko>  (19) 
{"free_energy": -7.76, "intermolecular_energy": -9.55, "internal_energy": -2.04, "cluster_size": 14, "cluster_id": 1, "rank_in_cluster": 12}

>  <energy>  (19) 
-7.04

>  <cluster_rmsd>  (19) 
0.08

>  <rmsd>  (19) 
269.56

>  <cluster>  (19) 
3

$$$$

     RDKit          3D

 49 52  0  0  0  0  0  0  0  0999 V2000
  141.2530   72.5700  221.8830 O   0  0  0  0  0  0  0  0  0  0  0  0
  140.2430   72.4870  222.6280 C   0  0  0  0  0  0  0  0  0  0  0  0
  139.1590   73.3710  222.3350 N   0  0  0  0  0  0  0  0  0  0  0  0
  139.2190   74.3160  221.2360 C   0  0  0  0  0  0  0  0  0  0  0  0
  138.8880   75.6870  221.6550 C   0  0  0  0  0  0  0  0  0  0  0  0
  137.8840   76.0000  222.3500 O   0  0  0  0  0  0  0  0  0  0  0  0
  139.7610   76.7340  221.2480 N   0  0  0  0  0  0  0  0  0  0  0  0
  139.5310   77.7010  220.1720 C   0  0  0  0  0  0  0  0  0  0  0  0
  140.9330   78.0100  219.6500 C   0  0  2  0  0  0  0  0  0  0  0  0
  141.0240   77.7570  218.2850 O   0  0  0  0  0  0  0  0  0  0  0  0
  141.8420   77.1190  220.4770 C   0  0  0  0  0  0  0  0  0  0  0  0
  141.0630   77.0890  221.7890 C   0  0  1  0  0  0  0  0  0  0  0  0
  141.0240   78.4140  222.4550 C   0  0  0  0  0  0  0  0  0  0  0  0
  142.2070   79.1400  222.5700 C   0  0  0  0  0  0  0  0  0  0  0  0
  142.2440   80.3830  223.1790 C   0  0  0  0  0  0  0  0  0  0  0  0
  141.0800   80.9140  223.6840 C   0  0  0  0  0  0  0  0  0  0  0  0
  139.9070   80.2200  223.5820 C   0  0  0  0  0  0  0  0  0  0  0  0
  138.4140   80.8810  224.2200 Cl  0  0  0  0  0  0  0  0  0  0  0  0
  139.8930   78.9830  222.9710 C   0  0  0  0  0  0  0  0  0  0  0  0
  140.1600   71.5460  223.7370 C   0  0  0  0  0  0  0  0  0  0  0  0
  139.5830   70.3090  223.4870 C   0  0  0  0  0  0  0  0  0  0  0  0
  139.5150   69.4310  224.5570 C   0  0  0  0  0  0  0  0  0  0  0  0
  139.9890   69.7480  225.8090 C   0  0  0  0  0  0  0  0  0  0  0  0
  139.9010   68.8350  226.8550 C   0  0  0  0  0  0  0  0  0  0  0  0
  140.3910   69.1980  228.0960 C   0  0  0  0  0  0  0  0  0  0  0  0
  140.3100   68.3160  229.1230 F   0  0  0  0  0  0  0  0  0  0  0  0
  140.9600   70.4500  228.2940 C   0  0  0  0  0  0  0  0  0  0  0  0
  141.0460   71.3590  227.2450 C   0  0  0  0  0  0  0  0  0  0  0  0
  140.5610   71.0110  226.0000 C   0  0  0  0  0  0  0  0  0  0  0  0
  140.6290   71.8710  224.9600 N   0  0  0  0  0  0  0  0  0  0  0  0
  138.3190   73.3070  222.9490 H   0  0  0  0  0  0  0  0  0  0  0  0
  140.2375   74.3100  220.8204 H   0  0  0  0  0  0  0  0  0  0  0  0
  138.4755   74.0061  220.4869 H   0  0  0  0  0  0  0  0  0  0  0  0
  138.9060   77.2635  219.3796 H   0  0  0  0  0  0  0  0  0  0  0  0
  138.9987   78.6000  220.5161 H   0  0  0  0  0  0  0  0  0  0  0  0
  141.2096   79.0696  219.7532 H   0  0  0  0  0  0  0  0  0  0  0  0
  140.3790   77.0240  218.0930 H   0  0  0  0  0  0  0  0  0  0  0  0
  141.9397   76.1154  220.0374 H   0  0  0  0  0  0  0  0  0  0  0  0
  142.8808   77.4702  220.5633 H   0  0  0  0  0  0  0  0  0  0  0  0
  141.4711   76.4256  222.5657 H   0  0  0  0  0  0  0  0  0  0  0  0
  143.1374   78.7143  222.1660 H   0  0  0  0  0  0  0  0  0  0  0  0
  143.1906   80.9378  223.2578 H   0  0  0  0  0  0  0  0  0  0  0  0
  141.0932   81.9001  224.1714 H   0  0  0  0  0  0  0  0  0  0  0  0
  138.9410   78.4369  222.8966 H   0  0  0  0  0  0  0  0  0  0  0  0
  139.1997   70.0395  222.4918 H   0  0  0  0  0  0  0  0  0  0  0  0
  139.0637   68.4404  224.3989 H   0  0  0  0  0  0  0  0  0  0  0  0
  139.4505   67.8439  226.6979 H   0  0  0  0  0  0  0  0  0  0  0  0
  141.3451   70.7241  229.2873 H   0  0  0  0  0  0  0  0  0  0  0  0
  141.4976   72.3490  227.4061 H   0  0  0  0  0  0  0  0  0  0  0  0
  1  2  2  0
  2  3  1  0
  3  4  1  0
  4  5  1  0
  5  6  2  0
  5  7  1  0
  7  8  1  0
  8  9  1  0
  9 10  1  0
  9 11  1  0
 11 12  1  0
 12 13  1  0
 13 14  2  0
 14 15  1  0
 15 16  2  0
 16 17  1  0
 17 18  1  0
 17 19  2  0
  2 20  1  0
 20 21  2  0
 21 22  1  0
 22 23  2  0
 23 24  1  0
 24 25  2  0
 25 26  1  0
 25 27  1  0
 27 28  2  0
 28 29  1  0
 29 30  2  0
 12  7  1  0
 19 13  1  0
 30 20  1  0
 29 23  1  0
  3 31  1  0
  4 32  1  0
  4 33  1  0
  8 34  1  0
  8 35  1  0
  9 36  1  6
 10 37  1  0
 11 38  1  0
 11 39  1  0
 12 40  1  1
 14 41  1  0
 15 42  1  0
 16 43  1  0
 19 44  1  0
 21 45  1  0
 22 46  1  0
 24 47  1  0
 27 48  1  0
 28 49  1  0
M  END
>  <smiles>  (20) 
O=C(NCC(=O)N1C[C@H](O)C[C@H]1c1cccc(Cl)c1)c1ccc2cc(F)ccc2n1

>  <score_type>  (20) 
oracle

>  <origin>  (20) 
autodockgpu

>  <m_score__min__energy>  (20) 
-8.8399999999999999

>  <m_primary>  (20) 
energy

>  <meeko>  (20) 
{"free_energy": -8.81, "intermolecular_energy": -10.6, "internal_energy": -1.29, "cluster_size": 14, "cluster_id": 1, "rank_in_cluster": 4}

>  <energy>  (20) 
-7.03

>  <cluster_rmsd>  (20) 
0.1

>  <rmsd>  (20) 
269.58

>  <cluster>  (20) 
3

$$$$
