AUISRQYXECVJTM-UHFFFAOYNA-N
     RDKit          3D

 56 60  0  0  0  0  0  0  0  0999 V2000
  138.2880   75.5380  222.3470 O   0  0  0  0  0  0  0  0  0  0  0  0
  139.5150   75.7100  221.6790 C   0  0  0  0  0  0  0  0  0  0  0  0
  140.3140   74.4230  221.7340 C   0  0  0  0  0  0  0  0  0  0  0  0
  141.4600   74.2940  221.0160 N   0  0  0  0  0  0  0  0  0  0  0  0
  142.2120   73.1660  221.1070 C   0  0  0  0  0  0  0  0  0  0  0  0
  143.4210   73.0250  220.3310 N   0  0  0  0  0  0  0  0  0  0  0  0
  143.5780   71.8530  219.4590 C   0  0  0  0  0  0  0  0  0  0  0  0
  144.9300   71.8790  218.7420 C   0  0  0  0  0  0  0  0  0  0  0  0
  145.9970   72.2220  219.6870 N   0  0  0  0  0  0  0  0  0  0  0  0
  145.8500   73.5830  220.2390 C   0  0  0  0  0  0  0  0  0  0  0  0
  144.4010   74.1170  220.2520 C   0  0  0  0  0  0  0  0  0  0  0  0
  141.8170   72.1710  221.9440 N   0  0  0  0  0  0  0  0  0  0  0  0
  140.6870   72.2940  222.6880 C   0  0  0  0  0  0  0  0  0  0  0  0
  140.2770   71.2400  223.5850 N   0  0  0  0  0  0  0  0  0  0  0  0
  139.0280   70.5020  223.3360 C   0  0  0  0  0  0  0  0  0  0  0  0
  139.1790   69.0410  223.7460 C   0  0  0  0  0  0  0  0  0  0  0  0
  139.6310   68.9490  225.1720 C   0  0  0  0  0  0  0  0  0  0  0  0
  139.2220   67.8730  225.9760 C   0  0  0  0  0  0  0  0  0  0  0  0
  139.6700   67.7690  227.2950 C   0  0  0  0  0  0  0  0  0  0  0  0
  140.5420   68.7280  227.8140 C   0  0  0  0  0  0  0  0  0  0  0  0
  140.9680   69.7930  227.0170 C   0  0  0  0  0  0  0  0  0  0  0  0
  140.5150   69.9150  225.6930 C   0  0  0  0  0  0  0  0  0  0  0  0
  141.0320   71.0480  224.8370 C   0  0  0  0  0  0  0  0  0  0  0  0
  139.9450   73.4290  222.5830 N   0  0  0  0  0  0  0  0  0  0  0  0
  139.2760   76.1920  220.2430 C   0  0  0  0  0  0  0  0  0  0  0  0
  139.0910   77.7030  220.3360 C   0  0  0  0  0  0  0  0  0  0  0  0
  139.6990   78.1360  221.6680 C   0  0  0  0  0  0  0  0  0  0  0  0
  140.2630   76.8800  222.3190 C   0  0  0  0  0  0  0  0  0  0  0  0
  138.3780   74.7540  222.9510 H   0  0  0  0  0  0  0  0  0  0  0  0
  143.5118   70.9398  220.0686 H   0  0  0  0  0  0  0  0  0  0  0  0
  142.7799   71.8703  218.7022 H   0  0  0  0  0  0  0  0  0  0  0  0
  145.1316   70.8875  218.3104 H   0  0  0  0  0  0  0  0  0  0  0  0
  144.8992   72.6362  217.9447 H   0  0  0  0  0  0  0  0  0  0  0  0
  145.9780   71.5320  220.4760 H   0  0  0  0  0  0  0  0  0  0  0  0
  146.2226   73.5758  221.2740 H   0  0  0  0  0  0  0  0  0  0  0  0
  146.4232   74.2511  219.5794 H   0  0  0  0  0  0  0  0  0  0  0  0
  144.2716   74.7761  221.1231 H   0  0  0  0  0  0  0  0  0  0  0  0
  144.2289   74.6656  219.3142 H   0  0  0  0  0  0  0  0  0  0  0  0
  138.2151   70.9593  223.9192 H   0  0  0  0  0  0  0  0  0  0  0  0
  138.7966   70.5475  222.2616 H   0  0  0  0  0  0  0  0  0  0  0  0
  138.2103   68.5311  223.6380 H   0  0  0  0  0  0  0  0  0  0  0  0
  139.9290   68.5619  223.0995 H   0  0  0  0  0  0  0  0  0  0  0  0
  138.5459   67.1086  225.5654 H   0  0  0  0  0  0  0  0  0  0  0  0
  139.3357   66.9314  227.9249 H   0  0  0  0  0  0  0  0  0  0  0  0
  140.8943   68.6446  228.8527 H   0  0  0  0  0  0  0  0  0  0  0  0
  141.6622   70.5405  227.4285 H   0  0  0  0  0  0  0  0  0  0  0  0
  140.9762   71.9780  225.4218 H   0  0  0  0  0  0  0  0  0  0  0  0
  142.0631   70.7906  224.5532 H   0  0  0  0  0  0  0  0  0  0  0  0
  140.1419   75.9506  219.6090 H   0  0  0  0  0  0  0  0  0  0  0  0
  138.3986   75.7041  219.7934 H   0  0  0  0  0  0  0  0  0  0  0  0
  139.6088   78.2007  219.5028 H   0  0  0  0  0  0  0  0  0  0  0  0
  138.0272   77.9766  220.2780 H   0  0  0  0  0  0  0  0  0  0  0  0
  140.5019   78.8685  221.4982 H   0  0  0  0  0  0  0  0  0  0  0  0
  138.9445   78.6114  222.3120 H   0  0  0  0  0  0  0  0  0  0  0  0
  141.3423   76.7982  222.1231 H   0  0  0  0  0  0  0  0  0  0  0  0
  140.1332   76.8958  223.4112 H   0  0  0  0  0  0  0  0  0  0  0  0
  1  2  1  0
  2  3  1  0
  3  4  2  0
  4  5  1  0
  5  6  1  0
  6  7  1  0
  7  8  1  0
  8  9  1  0
  9 10  1  0
 10 11  1  0
  5 12  2  0
 12 13  1  0
 13 14  1  0
 14 15  1  0
 15 16  1  0
 16 17  1  0
 17 18  2  0
 18 19  1  0
 19 20  2  0
 20 21  1  0
 21 22  2  0
 22 23  1  0
 13 24  2  0
  2 25  1  0
 25 26  1  0
 26 27  1  0
 27 28  1  0
 28  2  1  0
 24  3  1  0
 11  6  1  0
 23 14  1  0
 22 17  1  0
  1 29  1  0
  7 30  1  0
  7 31  1  0
  8 32  1  0
  8 33  1  0
  9 34  1  0
 10 35  1  0
 10 36  1  0
 11 37  1  0
 11 38  1  0
 15 39  1  0
 15 40  1  0
 16 41  1  0
 16 42  1  0
 18 43  1  0
 19 44  1  0
 20 45  1  0
 21 46  1  0
 23 47  1  0
 23 48  1  0
 25 49  1  0
 25 50  1  0
 26 51  1  0
 26 52  1  0
 27 53  1  0
 27 54  1  0
 28 55  1  0
 28 56  1  0
M  END
>  <UniqueID>  (1) 
510

>  <SMILES>  (1) 
OC1(c2nc(N3CCNCC3)nc(N3CCc4ccccc4C3)n2)CCCC1

>  <Energy>  (1) 
63.84610375342874

>  <Genealogy>  (1) 
OC1(c2nc(N3CCNCC3)nc(N3CCc4ccccc4C3)n2)CCCC1 (3D coordinates assigned)
OC1(c2nc(N3CCNCC3)nc(N3CCc4ccccc4C3)n2)CCCC1 (nonaromatic ring conformer: 63.84610375342874 kcal/mol)

>  <smiles>  (1) 
OC1(c2nc(N3CCNCC3)nc(N3CCc4ccccc4C3)n2)CCCC1

>  <score_type>  (1) 
oracle

>  <origin>  (1) 
autodockgpu

>  <m_score__min__energy>  (1) 
-8.8599999999999994

>  <m_primary>  (1) 
energy

>  <meeko>  (1) 
{"free_energy": -8.85, "intermolecular_energy": -10.04, "internal_energy": -1.5, "cluster_size": 20, "cluster_id": 1, "rank_in_cluster": 19}

>  <energy>  (1) 
-8.86

>  <cluster_rmsd>  (1) 
0.0

>  <rmsd>  (1) 
271.09

>  <cluster>  (1) 
1

$$$$
AUISRQYXECVJTM-UHFFFAOYNA-N
     RDKit          3D

 56 60  0  0  0  0  0  0  0  0999 V2000
  138.3210   75.5360  222.3590 O   0  0  0  0  0  0  0  0  0  0  0  0
  139.5510   75.6920  221.6930 C   0  0  0  0  0  0  0  0  0  0  0  0
  140.3340   74.3950  221.7510 C   0  0  0  0  0  0  0  0  0  0  0  0
  141.4720   74.2460  221.0230 N   0  0  0  0  0  0  0  0  0  0  0  0
  142.2100   73.1100  221.1150 C   0  0  0  0  0  0  0  0  0  0  0  0
  143.4090   72.9470  220.3300 N   0  0  0  0  0  0  0  0  0  0  0  0
  143.5790   71.7290  219.5260 C   0  0  0  0  0  0  0  0  0  0  0  0
  144.9200   71.7400  218.7880 C   0  0  0  0  0  0  0  0  0  0  0  0
  145.9930   72.1610  219.6930 N   0  0  0  0  0  0  0  0  0  0  0  0
  145.8250   73.5490  220.1660 C   0  0  0  0  0  0  0  0  0  0  0  0
  144.3650   74.0530  220.1710 C   0  0  0  0  0  0  0  0  0  0  0  0
  141.8080   72.1250  221.9620 N   0  0  0  0  0  0  0  0  0  0  0  0
  140.6870   72.2690  222.7160 C   0  0  0  0  0  0  0  0  0  0  0  0
  140.2710   71.2260  223.6230 N   0  0  0  0  0  0  0  0  0  0  0  0
  139.0260   70.4820  223.3740 C   0  0  0  0  0  0  0  0  0  0  0  0
  139.1770   69.0270  223.8060 C   0  0  0  0  0  0  0  0  0  0  0  0
  139.6160   68.9560  225.2370 C   0  0  0  0  0  0  0  0  0  0  0  0
  139.2020   67.8900  226.0520 C   0  0  0  0  0  0  0  0  0  0  0  0
  139.6390   67.8060  227.3760 C   0  0  0  0  0  0  0  0  0  0  0  0
  140.5040   68.7740  227.8900 C   0  0  0  0  0  0  0  0  0  0  0  0
  140.9340   69.8290  227.0810 C   0  0  0  0  0  0  0  0  0  0  0  0
  140.4930   69.9310  225.7520 C   0  0  0  0  0  0  0  0  0  0  0  0
  141.0150   71.0530  224.8850 C   0  0  0  0  0  0  0  0  0  0  0  0
  139.9590   73.4120  222.6090 N   0  0  0  0  0  0  0  0  0  0  0  0
  139.3210   76.1770  220.2560 C   0  0  0  0  0  0  0  0  0  0  0  0
  139.1550   77.6900  220.3490 C   0  0  0  0  0  0  0  0  0  0  0  0
  139.7650   78.1160  221.6820 C   0  0  0  0  0  0  0  0  0  0  0  0
  140.3120   76.8530  222.3340 C   0  0  0  0  0  0  0  0  0  0  0  0
  138.3510   74.6770  222.8570 H   0  0  0  0  0  0  0  0  0  0  0  0
  143.5408   70.8522  220.1892 H   0  0  0  0  0  0  0  0  0  0  0  0
  142.7703   71.6854  218.7816 H   0  0  0  0  0  0  0  0  0  0  0  0
  145.1367   70.7287  218.4133 H   0  0  0  0  0  0  0  0  0  0  0  0
  144.8612   72.4475  217.9478 H   0  0  0  0  0  0  0  0  0  0  0  0
  146.0010   71.5190  220.5220 H   0  0  0  0  0  0  0  0  0  0  0  0
  146.2131   73.6110  221.1934 H   0  0  0  0  0  0  0  0  0  0  0  0
  146.3737   74.1885  219.4589 H   0  0  0  0  0  0  0  0  0  0  0  0
  144.2345   74.7596  221.0039 H   0  0  0  0  0  0  0  0  0  0  0  0
  144.1672   74.5414  219.2054 H   0  0  0  0  0  0  0  0  0  0  0  0
  138.2072   70.9456  223.9438 H   0  0  0  0  0  0  0  0  0  0  0  0
  138.8033   70.5119  222.2972 H   0  0  0  0  0  0  0  0  0  0  0  0
  138.2107   68.5130  223.6963 H   0  0  0  0  0  0  0  0  0  0  0  0
  139.9343   68.5410  223.1733 H   0  0  0  0  0  0  0  0  0  0  0  0
  138.5312   67.1184  225.6463 H   0  0  0  0  0  0  0  0  0  0  0  0
  139.3013   66.9763  228.0144 H   0  0  0  0  0  0  0  0  0  0  0  0
  140.8473   68.7060  228.9328 H   0  0  0  0  0  0  0  0  0  0  0  0
  141.6224   70.5844  227.4879 H   0  0  0  0  0  0  0  0  0  0  0  0
  140.9516   71.9909  225.4563 H   0  0  0  0  0  0  0  0  0  0  0  0
  142.0492   70.7939  224.6142 H   0  0  0  0  0  0  0  0  0  0  0  0
  140.1851   75.9247  219.6238 H   0  0  0  0  0  0  0  0  0  0  0  0
  138.4386   75.7002  219.8044 H   0  0  0  0  0  0  0  0  0  0  0  0
  139.6809   78.1811  219.5170 H   0  0  0  0  0  0  0  0  0  0  0  0
  138.0947   77.9766  220.2890 H   0  0  0  0  0  0  0  0  0  0  0  0
  140.5772   78.8386  221.5140 H   0  0  0  0  0  0  0  0  0  0  0  0
  139.0152   78.6010  222.3243 H   0  0  0  0  0  0  0  0  0  0  0  0
  141.3906   76.7578  222.1401 H   0  0  0  0  0  0  0  0  0  0  0  0
  140.1801   76.8706  223.4259 H   0  0  0  0  0  0  0  0  0  0  0  0
  1  2  1  0
  2  3  1  0
  3  4  2  0
  4  5  1  0
  5  6  1  0
  6  7  1  0
  7  8  1  0
  8  9  1  0
  9 10  1  0
 10 11  1  0
  5 12  2  0
 12 13  1  0
 13 14  1  0
 14 15  1  0
 15 16  1  0
 16 17  1  0
 17 18  2  0
 18 19  1  0
 19 20  2  0
 20 21  1  0
 21 22  2  0
 22 23  1  0
 13 24  2  0
  2 25  1  0
 25 26  1  0
 26 27  1  0
 27 28  1  0
 28  2  1  0
 24  3  1  0
 11  6  1  0
 23 14  1  0
 22 17  1  0
  1 29  1  0
  7 30  1  0
  7 31  1  0
  8 32  1  0
  8 33  1  0
  9 34  1  0
 10 35  1  0
 10 36  1  0
 11 37  1  0
 11 38  1  0
 15 39  1  0
 15 40  1  0
 16 41  1  0
 16 42  1  0
 18 43  1  0
 19 44  1  0
 20 45  1  0
 21 46  1  0
 23 47  1  0
 23 48  1  0
 25 49  1  0
 25 50  1  0
 26 51  1  0
 26 52  1  0
 27 53  1  0
 27 54  1  0
 28 55  1  0
 28 56  1  0
M  END
>  <UniqueID>  (2) 
510

>  <SMILES>  (2) 
OC1(c2nc(N3CCNCC3)nc(N3CCc4ccccc4C3)n2)CCCC1

>  <Energy>  (2) 
63.84610375342874

>  <Genealogy>  (2) 
OC1(c2nc(N3CCNCC3)nc(N3CCc4ccccc4C3)n2)CCCC1 (3D coordinates assigned)
OC1(c2nc(N3CCNCC3)nc(N3CCc4ccccc4C3)n2)CCCC1 (nonaromatic ring conformer: 63.84610375342874 kcal/mol)

>  <smiles>  (2) 
OC1(c2nc(N3CCNCC3)nc(N3CCc4ccccc4C3)n2)CCCC1

>  <score_type>  (2) 
oracle

>  <origin>  (2) 
autodockgpu

>  <m_score__min__energy>  (2) 
-8.8599999999999994

>  <m_primary>  (2) 
energy

>  <meeko>  (2) 
{"free_energy": -8.86, "intermolecular_energy": -10.05, "internal_energy": -1.51, "cluster_size": 20, "cluster_id": 1, "rank_in_cluster": 2}

>  <energy>  (2) 
-8.86

>  <cluster_rmsd>  (2) 
0.02

>  <rmsd>  (2) 
271.09

>  <cluster>  (2) 
1

$$$$
AUISRQYXECVJTM-UHFFFAOYNA-N
     RDKit          3D

 56 60  0  0  0  0  0  0  0  0999 V2000
  138.3620   75.5390  222.3710 O   0  0  0  0  0  0  0  0  0  0  0  0
  139.5870   75.6830  221.6940 C   0  0  0  0  0  0  0  0  0  0  0  0
  140.3620   74.3820  221.7520 C   0  0  0  0  0  0  0  0  0  0  0  0
  141.4980   74.2250  221.0230 N   0  0  0  0  0  0  0  0  0  0  0  0
  142.2290   73.0840  221.1150 C   0  0  0  0  0  0  0  0  0  0  0  0
  143.4260   72.9120  220.3280 N   0  0  0  0  0  0  0  0  0  0  0  0
  143.6000   71.6790  219.5490 C   0  0  0  0  0  0  0  0  0  0  0  0
  144.9370   71.6830  218.8040 C   0  0  0  0  0  0  0  0  0  0  0  0
  146.0120   72.1300  219.6960 N   0  0  0  0  0  0  0  0  0  0  0  0
  145.8370   73.5260  220.1400 C   0  0  0  0  0  0  0  0  0  0  0  0
  144.3730   74.0210  220.1410 C   0  0  0  0  0  0  0  0  0  0  0  0
  141.8240   72.1030  221.9650 N   0  0  0  0  0  0  0  0  0  0  0  0
  140.7040   72.2550  222.7210 C   0  0  0  0  0  0  0  0  0  0  0  0
  140.2840   71.2160  223.6310 N   0  0  0  0  0  0  0  0  0  0  0  0
  139.0300   70.4860  223.3900 C   0  0  0  0  0  0  0  0  0  0  0  0
  139.1670   69.0290  223.8200 C   0  0  0  0  0  0  0  0  0  0  0  0
  139.6170   68.9530  225.2480 C   0  0  0  0  0  0  0  0  0  0  0  0
  139.1970   67.8910  226.0660 C   0  0  0  0  0  0  0  0  0  0  0  0
  139.6440   67.8010  227.3860 C   0  0  0  0  0  0  0  0  0  0  0  0
  140.5230   68.7590  227.8940 C   0  0  0  0  0  0  0  0  0  0  0  0
  140.9590   69.8100  227.0830 C   0  0  0  0  0  0  0  0  0  0  0  0
  140.5080   69.9180  225.7570 C   0  0  0  0  0  0  0  0  0  0  0  0
  141.0360   71.0340  224.8870 C   0  0  0  0  0  0  0  0  0  0  0  0
  139.9840   73.4030  222.6140 N   0  0  0  0  0  0  0  0  0  0  0  0
  139.3490   76.1620  220.2570 C   0  0  0  0  0  0  0  0  0  0  0  0
  139.1930   77.6760  220.3420 C   0  0  0  0  0  0  0  0  0  0  0  0
  139.8160   78.1060  221.6680 C   0  0  0  0  0  0  0  0  0  0  0  0
  140.3610   76.8430  222.3230 C   0  0  0  0  0  0  0  0  0  0  0  0
  138.4330   74.7450  222.9640 H   0  0  0  0  0  0  0  0  0  0  0  0
  143.5709   70.8161  220.2306 H   0  0  0  0  0  0  0  0  0  0  0  0
  142.7879   71.6148  218.8098 H   0  0  0  0  0  0  0  0  0  0  0  0
  145.1585   70.6656  218.4494 H   0  0  0  0  0  0  0  0  0  0  0  0
  144.8698   72.3721  217.9492 H   0  0  0  0  0  0  0  0  0  0  0  0
  146.0270   71.5050  220.5370 H   0  0  0  0  0  0  0  0  0  0  0  0
  146.2293   73.6123  221.1641 H   0  0  0  0  0  0  0  0  0  0  0  0
  146.3783   74.1538  219.4169 H   0  0  0  0  0  0  0  0  0  0  0  0
  144.2415   74.7443  220.9592 H   0  0  0  0  0  0  0  0  0  0  0  0
  144.1674   74.4879  219.1665 H   0  0  0  0  0  0  0  0  0  0  0  0
  138.2202   70.9583  223.9654 H   0  0  0  0  0  0  0  0  0  0  0  0
  138.8011   70.5188  222.3146 H   0  0  0  0  0  0  0  0  0  0  0  0
  138.1938   68.5266  223.7181 H   0  0  0  0  0  0  0  0  0  0  0  0
  139.9128   68.5338  223.1809 H   0  0  0  0  0  0  0  0  0  0  0  0
  138.5137   67.1277  225.6654 H   0  0  0  0  0  0  0  0  0  0  0  0
  139.3029   66.9741  228.0262 H   0  0  0  0  0  0  0  0  0  0  0  0
  140.8730   68.6865  228.9343 H   0  0  0  0  0  0  0  0  0  0  0  0
  141.6593   70.5569  227.4851 H   0  0  0  0  0  0  0  0  0  0  0  0
  140.9879   71.9722  225.4592 H   0  0  0  0  0  0  0  0  0  0  0  0
  142.0651   70.7634  224.6081 H   0  0  0  0  0  0  0  0  0  0  0  0
  140.2066   75.9009  219.6196 H   0  0  0  0  0  0  0  0  0  0  0  0
  138.4598   75.6884  219.8154 H   0  0  0  0  0  0  0  0  0  0  0  0
  139.7155   78.1589  219.5031 H   0  0  0  0  0  0  0  0  0  0  0  0
  138.1341   77.9689  220.2882 H   0  0  0  0  0  0  0  0  0  0  0  0
  140.6310   78.8229  221.4896 H   0  0  0  0  0  0  0  0  0  0  0  0
  139.0741   78.5990  222.3134 H   0  0  0  0  0  0  0  0  0  0  0  0
  141.4374   76.7401  222.1209 H   0  0  0  0  0  0  0  0  0  0  0  0
  140.2385   76.8674  223.4159 H   0  0  0  0  0  0  0  0  0  0  0  0
  1  2  1  0
  2  3  1  0
  3  4  2  0
  4  5  1  0
  5  6  1  0
  6  7  1  0
  7  8  1  0
  8  9  1  0
  9 10  1  0
 10 11  1  0
  5 12  2  0
 12 13  1  0
 13 14  1  0
 14 15  1  0
 15 16  1  0
 16 17  1  0
 17 18  2  0
 18 19  1  0
 19 20  2  0
 20 21  1  0
 21 22  2  0
 22 23  1  0
 13 24  2  0
  2 25  1  0
 25 26  1  0
 26 27  1  0
 27 28  1  0
 28  2  1  0
 24  3  1  0
 11  6  1  0
 23 14  1  0
 22 17  1  0
  1 29  1  0
  7 30  1  0
  7 31  1  0
  8 32  1  0
  8 33  1  0
  9 34  1  0
 10 35  1  0
 10 36  1  0
 11 37  1  0
 11 38  1  0
 15 39  1  0
 15 40  1  0
 16 41  1  0
 16 42  1  0
 18 43  1  0
 19 44  1  0
 20 45  1  0
 21 46  1  0
 23 47  1  0
 23 48  1  0
 25 49  1  0
 25 50  1  0
 26 51  1  0
 26 52  1  0
 27 53  1  0
 27 54  1  0
 28 55  1  0
 28 56  1  0
M  END
>  <UniqueID>  (3) 
510

>  <SMILES>  (3) 
OC1(c2nc(N3CCNCC3)nc(N3CCc4ccccc4C3)n2)CCCC1

>  <Energy>  (3) 
63.84610375342874

>  <Genealogy>  (3) 
OC1(c2nc(N3CCNCC3)nc(N3CCc4ccccc4C3)n2)CCCC1 (3D coordinates assigned)
OC1(c2nc(N3CCNCC3)nc(N3CCc4ccccc4C3)n2)CCCC1 (nonaromatic ring conformer: 63.84610375342874 kcal/mol)

>  <smiles>  (3) 
OC1(c2nc(N3CCNCC3)nc(N3CCc4ccccc4C3)n2)CCCC1

>  <score_type>  (3) 
oracle

>  <origin>  (3) 
autodockgpu

>  <m_score__min__energy>  (3) 
-8.8599999999999994

>  <m_primary>  (3) 
energy

>  <meeko>  (3) 
{"free_energy": -8.85, "intermolecular_energy": -10.05, "internal_energy": -1.5, "cluster_size": 20, "cluster_id": 1, "rank_in_cluster": 12}

>  <energy>  (3) 
-8.86

>  <cluster_rmsd>  (3) 
0.05

>  <rmsd>  (3) 
271.1

>  <cluster>  (3) 
1

$$$$
AUISRQYXECVJTM-UHFFFAOYNA-N
     RDKit          3D

 56 60  0  0  0  0  0  0  0  0999 V2000
  138.3400   75.5760  222.3650 O   0  0  0  0  0  0  0  0  0  0  0  0
  139.5610   75.7110  221.6780 C   0  0  0  0  0  0  0  0  0  0  0  0
  140.3330   74.4070  221.7440 C   0  0  0  0  0  0  0  0  0  0  0  0
  141.4690   74.2440  221.0160 N   0  0  0  0  0  0  0  0  0  0  0  0
  142.1970   73.1020  221.1150 C   0  0  0  0  0  0  0  0  0  0  0  0
  143.3950   72.9240  220.3300 N   0  0  0  0  0  0  0  0  0  0  0  0
  143.5790   71.6750  219.5780 C   0  0  0  0  0  0  0  0  0  0  0  0
  144.9150   71.6750  218.8310 C   0  0  0  0  0  0  0  0  0  0  0  0
  145.9870   72.1510  219.7100 N   0  0  0  0  0  0  0  0  0  0  0  0
  145.7990   73.5550  220.1240 C   0  0  0  0  0  0  0  0  0  0  0  0
  144.3320   74.0370  220.1160 C   0  0  0  0  0  0  0  0  0  0  0  0
  141.7890   72.1270  221.9690 N   0  0  0  0  0  0  0  0  0  0  0  0
  140.6700   72.2850  222.7230 C   0  0  0  0  0  0  0  0  0  0  0  0
  140.2460   71.2510  223.6380 N   0  0  0  0  0  0  0  0  0  0  0  0
  138.9960   70.5150  223.3940 C   0  0  0  0  0  0  0  0  0  0  0  0
  139.1350   69.0620  223.8360 C   0  0  0  0  0  0  0  0  0  0  0  0
  139.5740   68.9980  225.2670 C   0  0  0  0  0  0  0  0  0  0  0  0
  139.1520   67.9410  226.0910 C   0  0  0  0  0  0  0  0  0  0  0  0
  139.5890   67.8630  227.4140 C   0  0  0  0  0  0  0  0  0  0  0  0
  140.4620   68.8280  227.9210 C   0  0  0  0  0  0  0  0  0  0  0  0
  140.9010   69.8740  227.1050 C   0  0  0  0  0  0  0  0  0  0  0  0
  140.4590   69.9700  225.7750 C   0  0  0  0  0  0  0  0  0  0  0  0
  140.9900   71.0820  224.9010 C   0  0  0  0  0  0  0  0  0  0  0  0
  139.9520   73.4340  222.6090 N   0  0  0  0  0  0  0  0  0  0  0  0
  139.3130   76.1750  220.2380 C   0  0  0  0  0  0  0  0  0  0  0  0
  139.1620   77.6910  220.3090 C   0  0  0  0  0  0  0  0  0  0  0  0
  139.7970   78.1320  221.6260 C   0  0  0  0  0  0  0  0  0  0  0  0
  140.3430   76.8740  222.2890 C   0  0  0  0  0  0  0  0  0  0  0  0
  138.3870   74.7460  222.9090 H   0  0  0  0  0  0  0  0  0  0  0  0
  143.5588   70.8272  220.2786 H   0  0  0  0  0  0  0  0  0  0  0  0
  142.7664   71.5867  218.8419 H   0  0  0  0  0  0  0  0  0  0  0  0
  145.1452   70.6521  218.4984 H   0  0  0  0  0  0  0  0  0  0  0  0
  144.8399   72.3448  217.9617 H   0  0  0  0  0  0  0  0  0  0  0  0
  146.0090   71.5450  220.5660 H   0  0  0  0  0  0  0  0  0  0  0  0
  146.1913   73.6669  221.1456 H   0  0  0  0  0  0  0  0  0  0  0  0
  146.3336   74.1716  219.3864 H   0  0  0  0  0  0  0  0  0  0  0  0
  144.1953   74.7778  220.9176 H   0  0  0  0  0  0  0  0  0  0  0  0
  144.1209   74.4798  219.1315 H   0  0  0  0  0  0  0  0  0  0  0  0
  138.1807   70.9890  223.9603 H   0  0  0  0  0  0  0  0  0  0  0  0
  138.7743   70.5389  222.3168 H   0  0  0  0  0  0  0  0  0  0  0  0
  138.1644   68.5553  223.7304 H   0  0  0  0  0  0  0  0  0  0  0  0
  139.8876   68.5650  223.2063 H   0  0  0  0  0  0  0  0  0  0  0  0
  138.4744   67.1720  225.6916 H   0  0  0  0  0  0  0  0  0  0  0  0
  139.2454   67.0404  228.0584 H   0  0  0  0  0  0  0  0  0  0  0  0
  140.8046   68.7646  228.9644 H   0  0  0  0  0  0  0  0  0  0  0  0
  141.5963   70.6261  227.5062 H   0  0  0  0  0  0  0  0  0  0  0  0
  140.9340   72.0243  225.4657 H   0  0  0  0  0  0  0  0  0  0  0  0
  142.0225   70.8142  224.6323 H   0  0  0  0  0  0  0  0  0  0  0  0
  140.1648   75.9047  219.5966 H   0  0  0  0  0  0  0  0  0  0  0  0
  138.4193   75.6992  219.8080 H   0  0  0  0  0  0  0  0  0  0  0  0
  139.6793   78.1640  219.4612 H   0  0  0  0  0  0  0  0  0  0  0  0
  138.1036   77.9867  220.2605 H   0  0  0  0  0  0  0  0  0  0  0  0
  140.6128   78.8445  221.4341 H   0  0  0  0  0  0  0  0  0  0  0  0
  139.0618   78.6337  222.2723 H   0  0  0  0  0  0  0  0  0  0  0  0
  141.4174   76.7657  222.0796 H   0  0  0  0  0  0  0  0  0  0  0  0
  140.2291   76.9095  223.3825 H   0  0  0  0  0  0  0  0  0  0  0  0
  1  2  1  0
  2  3  1  0
  3  4  2  0
  4  5  1  0
  5  6  1  0
  6  7  1  0
  7  8  1  0
  8  9  1  0
  9 10  1  0
 10 11  1  0
  5 12  2  0
 12 13  1  0
 13 14  1  0
 14 15  1  0
 15 16  1  0
 16 17  1  0
 17 18  2  0
 18 19  1  0
 19 20  2  0
 20 21  1  0
 21 22  2  0
 22 23  1  0
 13 24  2  0
  2 25  1  0
 25 26  1  0
 26 27  1  0
 27 28  1  0
 28  2  1  0
 24  3  1  0
 11  6  1  0
 23 14  1  0
 22 17  1  0
  1 29  1  0
  7 30  1  0
  7 31  1  0
  8 32  1  0
  8 33  1  0
  9 34  1  0
 10 35  1  0
 10 36  1  0
 11 37  1  0
 11 38  1  0
 15 39  1  0
 15 40  1  0
 16 41  1  0
 16 42  1  0
 18 43  1  0
 19 44  1  0
 20 45  1  0
 21 46  1  0
 23 47  1  0
 23 48  1  0
 25 49  1  0
 25 50  1  0
 26 51  1  0
 26 52  1  0
 27 53  1  0
 27 54  1  0
 28 55  1  0
 28 56  1  0
M  END
>  <UniqueID>  (4) 
510

>  <SMILES>  (4) 
OC1(c2nc(N3CCNCC3)nc(N3CCc4ccccc4C3)n2)CCCC1

>  <Energy>  (4) 
63.84610375342874

>  <Genealogy>  (4) 
OC1(c2nc(N3CCNCC3)nc(N3CCc4ccccc4C3)n2)CCCC1 (3D coordinates assigned)
OC1(c2nc(N3CCNCC3)nc(N3CCc4ccccc4C3)n2)CCCC1 (nonaromatic ring conformer: 63.84610375342874 kcal/mol)

>  <smiles>  (4) 
OC1(c2nc(N3CCNCC3)nc(N3CCc4ccccc4C3)n2)CCCC1

>  <score_type>  (4) 
oracle

>  <origin>  (4) 
autodockgpu

>  <m_score__min__energy>  (4) 
-8.8599999999999994

>  <m_primary>  (4) 
energy

>  <meeko>  (4) 
{"free_energy": -8.84, "intermolecular_energy": -10.03, "internal_energy": -1.51, "cluster_size": 20, "cluster_id": 1, "rank_in_cluster": 20}

>  <energy>  (4) 
-8.86

>  <cluster_rmsd>  (4) 
0.05

>  <rmsd>  (4) 
271.1

>  <cluster>  (4) 
1

$$$$
AUISRQYXECVJTM-UHFFFAOYNA-N
     RDKit          3D

 56 60  0  0  0  0  0  0  0  0999 V2000
  138.3650   75.5390  222.3790 O   0  0  0  0  0  0  0  0  0  0  0  0
  139.5930   75.6840  221.7050 C   0  0  0  0  0  0  0  0  0  0  0  0
  140.3640   74.3790  221.7580 C   0  0  0  0  0  0  0  0  0  0  0  0
  141.4980   74.2220  221.0270 N   0  0  0  0  0  0  0  0  0  0  0  0
  142.2260   73.0780  221.1140 C   0  0  0  0  0  0  0  0  0  0  0  0
  143.4220   72.9060  220.3260 N   0  0  0  0  0  0  0  0  0  0  0  0
  143.6000   71.6680  219.5560 C   0  0  0  0  0  0  0  0  0  0  0  0
  144.9360   71.6730  218.8080 C   0  0  0  0  0  0  0  0  0  0  0  0
  146.0100   72.1310  219.6940 N   0  0  0  0  0  0  0  0  0  0  0  0
  145.8290   73.5300  220.1280 C   0  0  0  0  0  0  0  0  0  0  0  0
  144.3640   74.0180  220.1290 C   0  0  0  0  0  0  0  0  0  0  0  0
  141.8170   72.0950  221.9600 N   0  0  0  0  0  0  0  0  0  0  0  0
  140.6990   72.2470  222.7160 C   0  0  0  0  0  0  0  0  0  0  0  0
  140.2760   71.2050  223.6220 N   0  0  0  0  0  0  0  0  0  0  0  0
  139.0300   70.4660  223.3670 C   0  0  0  0  0  0  0  0  0  0  0  0
  139.1730   69.0100  223.7990 C   0  0  0  0  0  0  0  0  0  0  0  0
  139.6060   68.9380  225.2320 C   0  0  0  0  0  0  0  0  0  0  0  0
  139.1840   67.8730  226.0460 C   0  0  0  0  0  0  0  0  0  0  0  0
  139.6150   67.7870  227.3710 C   0  0  0  0  0  0  0  0  0  0  0  0
  140.4810   68.7530  227.8890 C   0  0  0  0  0  0  0  0  0  0  0  0
  140.9190   69.8060  227.0820 C   0  0  0  0  0  0  0  0  0  0  0  0
  140.4840   69.9100  225.7510 C   0  0  0  0  0  0  0  0  0  0  0  0
  141.0140   71.0300  224.8870 C   0  0  0  0  0  0  0  0  0  0  0  0
  139.9820   73.3980  222.6150 N   0  0  0  0  0  0  0  0  0  0  0  0
  139.3590   76.1720  220.2700 C   0  0  0  0  0  0  0  0  0  0  0  0
  139.2080   77.6860  220.3650 C   0  0  0  0  0  0  0  0  0  0  0  0
  139.8300   78.1050  221.6950 C   0  0  0  0  0  0  0  0  0  0  0  0
  140.3690   76.8370  222.3430 C   0  0  0  0  0  0  0  0  0  0  0  0
  138.4140   74.7110  222.9250 H   0  0  0  0  0  0  0  0  0  0  0  0
  143.5764   70.8101  220.2441 H   0  0  0  0  0  0  0  0  0  0  0  0
  142.7866   71.5942  218.8191 H   0  0  0  0  0  0  0  0  0  0  0  0
  145.1615   70.6541  218.4601 H   0  0  0  0  0  0  0  0  0  0  0  0
  144.8638   72.3557  217.9485 H   0  0  0  0  0  0  0  0  0  0  0  0
  146.0300   71.5120  220.5400 H   0  0  0  0  0  0  0  0  0  0  0  0
  146.2233   73.6259  221.1504 H   0  0  0  0  0  0  0  0  0  0  0  0
  146.3653   74.1547  219.3986 H   0  0  0  0  0  0  0  0  0  0  0  0
  144.2312   74.7465  220.9424 H   0  0  0  0  0  0  0  0  0  0  0  0
  144.1541   74.4770  219.1516 H   0  0  0  0  0  0  0  0  0  0  0  0
  138.2104   70.9325  223.9332 H   0  0  0  0  0  0  0  0  0  0  0  0
  138.8128   70.4970  222.2891 H   0  0  0  0  0  0  0  0  0  0  0  0
  138.2050   68.5001  223.6854 H   0  0  0  0  0  0  0  0  0  0  0  0
  139.9303   68.5203  223.1691 H   0  0  0  0  0  0  0  0  0  0  0  0
  138.5115   67.1043  225.6376 H   0  0  0  0  0  0  0  0  0  0  0  0
  139.2724   66.9579  228.0077 H   0  0  0  0  0  0  0  0  0  0  0  0
  140.8185   68.6845  228.9337 H   0  0  0  0  0  0  0  0  0  0  0  0
  141.6090   70.5583  227.4919 H   0  0  0  0  0  0  0  0  0  0  0  0
  140.9513   71.9681  225.4579 H   0  0  0  0  0  0  0  0  0  0  0  0
  142.0487   70.7679  224.6211 H   0  0  0  0  0  0  0  0  0  0  0  0
  140.2168   75.9120  219.6324 H   0  0  0  0  0  0  0  0  0  0  0  0
  138.4694   75.7039  219.8234 H   0  0  0  0  0  0  0  0  0  0  0  0
  139.7337   78.1728  219.5303 H   0  0  0  0  0  0  0  0  0  0  0  0
  138.1502   77.9828  220.3113 H   0  0  0  0  0  0  0  0  0  0  0  0
  140.6479   78.8201  221.5227 H   0  0  0  0  0  0  0  0  0  0  0  0
  139.0883   78.5962  222.3420 H   0  0  0  0  0  0  0  0  0  0  0  0
  141.4455   76.7318  222.1429 H   0  0  0  0  0  0  0  0  0  0  0  0
  140.2440   76.8549  223.4357 H   0  0  0  0  0  0  0  0  0  0  0  0
  1  2  1  0
  2  3  1  0
  3  4  2  0
  4  5  1  0
  5  6  1  0
  6  7  1  0
  7  8  1  0
  8  9  1  0
  9 10  1  0
 10 11  1  0
  5 12  2  0
 12 13  1  0
 13 14  1  0
 14 15  1  0
 15 16  1  0
 16 17  1  0
 17 18  2  0
 18 19  1  0
 19 20  2  0
 20 21  1  0
 21 22  2  0
 22 23  1  0
 13 24  2  0
  2 25  1  0
 25 26  1  0
 26 27  1  0
 27 28  1  0
 28  2  1  0
 24  3  1  0
 11  6  1  0
 23 14  1  0
 22 17  1  0
  1 29  1  0
  7 30  1  0
  7 31  1  0
  8 32  1  0
  8 33  1  0
  9 34  1  0
 10 35  1  0
 10 36  1  0
 11 37  1  0
 11 38  1  0
 15 39  1  0
 15 40  1  0
 16 41  1  0
 16 42  1  0
 18 43  1  0
 19 44  1  0
 20 45  1  0
 21 46  1  0
 23 47  1  0
 23 48  1  0
 25 49  1  0
 25 50  1  0
 26 51  1  0
 26 52  1  0
 27 53  1  0
 27 54  1  0
 28 55  1  0
 28 56  1  0
M  END
>  <UniqueID>  (5) 
510

>  <SMILES>  (5) 
OC1(c2nc(N3CCNCC3)nc(N3CCc4ccccc4C3)n2)CCCC1

>  <Energy>  (5) 
63.84610375342874

>  <Genealogy>  (5) 
OC1(c2nc(N3CCNCC3)nc(N3CCc4ccccc4C3)n2)CCCC1 (3D coordinates assigned)
OC1(c2nc(N3CCNCC3)nc(N3CCc4ccccc4C3)n2)CCCC1 (nonaromatic ring conformer: 63.84610375342874 kcal/mol)

>  <smiles>  (5) 
OC1(c2nc(N3CCNCC3)nc(N3CCc4ccccc4C3)n2)CCCC1

>  <score_type>  (5) 
oracle

>  <origin>  (5) 
autodockgpu

>  <m_score__min__energy>  (5) 
-8.8599999999999994

>  <m_primary>  (5) 
energy

>  <meeko>  (5) 
{"free_energy": -8.86, "intermolecular_energy": -10.05, "internal_energy": -1.51, "cluster_size": 20, "cluster_id": 1, "rank_in_cluster": 3}

>  <energy>  (5) 
-8.86

>  <cluster_rmsd>  (5) 
0.05

>  <rmsd>  (5) 
271.1

>  <cluster>  (5) 
1

$$$$
AUISRQYXECVJTM-UHFFFAOYNA-N
     RDKit          3D

 56 60  0  0  0  0  0  0  0  0999 V2000
  138.3260   75.5600  222.3630 O   0  0  0  0  0  0  0  0  0  0  0  0
  139.5520   75.7230  221.6920 C   0  0  0  0  0  0  0  0  0  0  0  0
  140.3410   74.4290  221.7420 C   0  0  0  0  0  0  0  0  0  0  0  0
  141.4840   74.2930  221.0210 N   0  0  0  0  0  0  0  0  0  0  0  0
  142.2270   73.1590  221.1070 C   0  0  0  0  0  0  0  0  0  0  0  0
  143.4330   73.0090  220.3290 N   0  0  0  0  0  0  0  0  0  0  0  0
  143.5830   71.8330  219.4610 C   0  0  0  0  0  0  0  0  0  0  0  0
  144.9330   71.8510  218.7400 C   0  0  0  0  0  0  0  0  0  0  0  0
  146.0040   72.1940  219.6810 N   0  0  0  0  0  0  0  0  0  0  0  0
  145.8640   73.5580  220.2280 C   0  0  0  0  0  0  0  0  0  0  0  0
  144.4170   74.0980  220.2430 C   0  0  0  0  0  0  0  0  0  0  0  0
  141.8240   72.1640  221.9420 N   0  0  0  0  0  0  0  0  0  0  0  0
  140.6970   72.2950  222.6890 C   0  0  0  0  0  0  0  0  0  0  0  0
  140.2800   71.2410  223.5840 N   0  0  0  0  0  0  0  0  0  0  0  0
  139.0360   70.5000  223.3230 C   0  0  0  0  0  0  0  0  0  0  0  0
  139.1860   69.0400  223.7380 C   0  0  0  0  0  0  0  0  0  0  0  0
  139.6230   68.9530  225.1690 C   0  0  0  0  0  0  0  0  0  0  0  0
  139.2080   67.8770  225.9710 C   0  0  0  0  0  0  0  0  0  0  0  0
  139.6420   67.7770  227.2940 C   0  0  0  0  0  0  0  0  0  0  0  0
  140.5060   68.7400  227.8220 C   0  0  0  0  0  0  0  0  0  0  0  0
  140.9380   69.8040  227.0260 C   0  0  0  0  0  0  0  0  0  0  0  0
  140.4990   69.9220  225.6970 C   0  0  0  0  0  0  0  0  0  0  0  0
  141.0220   71.0540  224.8450 C   0  0  0  0  0  0  0  0  0  0  0  0
  139.9650   73.4360  222.5890 N   0  0  0  0  0  0  0  0  0  0  0  0
  139.3140   76.2110  220.2570 C   0  0  0  0  0  0  0  0  0  0  0  0
  139.1420   77.7230  220.3550 C   0  0  0  0  0  0  0  0  0  0  0  0
  139.7560   78.1480  221.6870 C   0  0  0  0  0  0  0  0  0  0  0  0
  140.3120   76.8850  222.3330 C   0  0  0  0  0  0  0  0  0  0  0  0
  138.3930   74.7440  222.9250 H   0  0  0  0  0  0  0  0  0  0  0  0
  143.5150   70.9224  220.0743 H   0  0  0  0  0  0  0  0  0  0  0  0
  142.7828   71.8505  218.7064 H   0  0  0  0  0  0  0  0  0  0  0  0
  145.1298   70.8570  218.3119 H   0  0  0  0  0  0  0  0  0  0  0  0
  144.9029   72.6049  217.9395 H   0  0  0  0  0  0  0  0  0  0  0  0
  145.9850   71.5070  220.4730 H   0  0  0  0  0  0  0  0  0  0  0  0
  146.2395   73.5535  221.2619 H   0  0  0  0  0  0  0  0  0  0  0  0
  146.4380   74.2212  219.5641 H   0  0  0  0  0  0  0  0  0  0  0  0
  144.2925   74.7609  221.1120 H   0  0  0  0  0  0  0  0  0  0  0  0
  144.2442   74.6441  219.3039 H   0  0  0  0  0  0  0  0  0  0  0  0
  138.2157   70.9567  223.8962 H   0  0  0  0  0  0  0  0  0  0  0  0
  138.8161   70.5426  222.2460 H   0  0  0  0  0  0  0  0  0  0  0  0
  138.2198   68.5275  223.6210 H   0  0  0  0  0  0  0  0  0  0  0  0
  139.9438   68.5608  223.1007 H   0  0  0  0  0  0  0  0  0  0  0  0
  138.5383   67.1100  225.5548 H   0  0  0  0  0  0  0  0  0  0  0  0
  139.3035   66.9393  227.9215 H   0  0  0  0  0  0  0  0  0  0  0  0
  140.8463   68.6604  228.8650 H   0  0  0  0  0  0  0  0  0  0  0  0
  141.6263   70.5540  227.4428 H   0  0  0  0  0  0  0  0  0  0  0  0
  140.9570   71.9851  225.4271 H   0  0  0  0  0  0  0  0  0  0  0  0
  142.0570   70.7992  224.5733 H   0  0  0  0  0  0  0  0  0  0  0  0
  140.1765   75.9641  219.6205 H   0  0  0  0  0  0  0  0  0  0  0  0
  138.4318   75.7316  219.8077 H   0  0  0  0  0  0  0  0  0  0  0  0
  139.6623   78.2187  219.5222 H   0  0  0  0  0  0  0  0  0  0  0  0
  138.0802   78.0052  220.3003 H   0  0  0  0  0  0  0  0  0  0  0  0
  140.5640   78.8749  221.5177 H   0  0  0  0  0  0  0  0  0  0  0  0
  139.0068   78.6276  222.3340 H   0  0  0  0  0  0  0  0  0  0  0  0
  141.3900   76.7948  222.1333 H   0  0  0  0  0  0  0  0  0  0  0  0
  140.1860   76.8988  223.4257 H   0  0  0  0  0  0  0  0  0  0  0  0
  1  2  1  0
  2  3  1  0
  3  4  2  0
  4  5  1  0
  5  6  1  0
  6  7  1  0
  7  8  1  0
  8  9  1  0
  9 10  1  0
 10 11  1  0
  5 12  2  0
 12 13  1  0
 13 14  1  0
 14 15  1  0
 15 16  1  0
 16 17  1  0
 17 18  2  0
 18 19  1  0
 19 20  2  0
 20 21  1  0
 21 22  2  0
 22 23  1  0
 13 24  2  0
  2 25  1  0
 25 26  1  0
 26 27  1  0
 27 28  1  0
 28  2  1  0
 24  3  1  0
 11  6  1  0
 23 14  1  0
 22 17  1  0
  1 29  1  0
  7 30  1  0
  7 31  1  0
  8 32  1  0
  8 33  1  0
  9 34  1  0
 10 35  1  0
 10 36  1  0
 11 37  1  0
 11 38  1  0
 15 39  1  0
 15 40  1  0
 16 41  1  0
 16 42  1  0
 18 43  1  0
 19 44  1  0
 20 45  1  0
 21 46  1  0
 23 47  1  0
 23 48  1  0
 25 49  1  0
 25 50  1  0
 26 51  1  0
 26 52  1  0
 27 53  1  0
 27 54  1  0
 28 55  1  0
 28 56  1  0
M  END
>  <UniqueID>  (6) 
510

>  <SMILES>  (6) 
OC1(c2nc(N3CCNCC3)nc(N3CCc4ccccc4C3)n2)CCCC1

>  <Energy>  (6) 
63.84610375342874

>  <Genealogy>  (6) 
OC1(c2nc(N3CCNCC3)nc(N3CCc4ccccc4C3)n2)CCCC1 (3D coordinates assigned)
OC1(c2nc(N3CCNCC3)nc(N3CCc4ccccc4C3)n2)CCCC1 (nonaromatic ring conformer: 63.84610375342874 kcal/mol)

>  <smiles>  (6) 
OC1(c2nc(N3CCNCC3)nc(N3CCc4ccccc4C3)n2)CCCC1

>  <score_type>  (6) 
oracle

>  <origin>  (6) 
autodockgpu

>  <m_score__min__energy>  (6) 
-8.8599999999999994

>  <m_primary>  (6) 
energy

>  <meeko>  (6) 
{"free_energy": -8.85, "intermolecular_energy": -10.05, "internal_energy": -1.5, "cluster_size": 20, "cluster_id": 1, "rank_in_cluster": 13}

>  <energy>  (6) 
-8.86

>  <cluster_rmsd>  (6) 
0.04

>  <rmsd>  (6) 
271.1

>  <cluster>  (6) 
1

$$$$
AUISRQYXECVJTM-UHFFFAOYNA-N
     RDKit          3D

 56 60  0  0  0  0  0  0  0  0999 V2000
  138.3400   75.5390  222.3550 O   0  0  0  0  0  0  0  0  0  0  0  0
  139.5670   75.6920  221.6840 C   0  0  0  0  0  0  0  0  0  0  0  0
  140.3490   74.3940  221.7410 C   0  0  0  0  0  0  0  0  0  0  0  0
  141.4880   74.2460  221.0150 N   0  0  0  0  0  0  0  0  0  0  0  0
  142.2250   73.1090  221.1060 C   0  0  0  0  0  0  0  0  0  0  0  0
  143.4250   72.9460  220.3220 N   0  0  0  0  0  0  0  0  0  0  0  0
  143.5840   71.7400  219.4980 C   0  0  0  0  0  0  0  0  0  0  0  0
  144.9270   71.7480  218.7640 C   0  0  0  0  0  0  0  0  0  0  0  0
  146.0020   72.1420  219.6800 N   0  0  0  0  0  0  0  0  0  0  0  0
  145.8480   73.5240  220.1750 C   0  0  0  0  0  0  0  0  0  0  0  0
  144.3930   74.0440  220.1840 C   0  0  0  0  0  0  0  0  0  0  0  0
  141.8220   72.1230  221.9520 N   0  0  0  0  0  0  0  0  0  0  0  0
  140.7000   72.2670  222.7040 C   0  0  0  0  0  0  0  0  0  0  0  0
  140.2830   71.2230  223.6100 N   0  0  0  0  0  0  0  0  0  0  0  0
  139.0420   70.4740  223.3540 C   0  0  0  0  0  0  0  0  0  0  0  0
  139.1960   69.0200  223.7880 C   0  0  0  0  0  0  0  0  0  0  0  0
  139.6270   68.9530  225.2220 C   0  0  0  0  0  0  0  0  0  0  0  0
  139.2120   67.8860  226.0360 C   0  0  0  0  0  0  0  0  0  0  0  0
  139.6410   67.8040  227.3620 C   0  0  0  0  0  0  0  0  0  0  0  0
  140.4990   68.7760  227.8800 C   0  0  0  0  0  0  0  0  0  0  0  0
  140.9310   69.8320  227.0730 C   0  0  0  0  0  0  0  0  0  0  0  0
  140.4970   69.9310  225.7410 C   0  0  0  0  0  0  0  0  0  0  0  0
  141.0200   71.0540  224.8770 C   0  0  0  0  0  0  0  0  0  0  0  0
  139.9730   73.4110  222.5980 N   0  0  0  0  0  0  0  0  0  0  0  0
  139.3320   76.1750  220.2470 C   0  0  0  0  0  0  0  0  0  0  0  0
  139.1680   77.6880  220.3380 C   0  0  0  0  0  0  0  0  0  0  0  0
  139.7830   78.1160  221.6680 C   0  0  0  0  0  0  0  0  0  0  0  0
  140.3320   76.8540  222.3200 C   0  0  0  0  0  0  0  0  0  0  0  0
  138.4370   74.7880  222.9990 H   0  0  0  0  0  0  0  0  0  0  0  0
  143.5340   70.8527  220.1462 H   0  0  0  0  0  0  0  0  0  0  0  0
  142.7772   71.7184  218.7506 H   0  0  0  0  0  0  0  0  0  0  0  0
  145.1335   70.7407  218.3732 H   0  0  0  0  0  0  0  0  0  0  0  0
  144.8789   72.4697  217.9352 H   0  0  0  0  0  0  0  0  0  0  0  0
  146.0000   71.4860  220.4970 H   0  0  0  0  0  0  0  0  0  0  0  0
  146.2337   73.5650  221.2043 H   0  0  0  0  0  0  0  0  0  0  0  0
  146.4059   74.1688  219.4800 H   0  0  0  0  0  0  0  0  0  0  0  0
  144.2676   74.7382  221.0280 H   0  0  0  0  0  0  0  0  0  0  0  0
  144.2035   74.5505  219.2261 H   0  0  0  0  0  0  0  0  0  0  0  0
  138.2181   70.9349  223.9186 H   0  0  0  0  0  0  0  0  0  0  0  0
  138.8256   70.5023  222.2759 H   0  0  0  0  0  0  0  0  0  0  0  0
  138.2323   68.5021  223.6732 H   0  0  0  0  0  0  0  0  0  0  0  0
  139.9584   68.5358  223.1601 H   0  0  0  0  0  0  0  0  0  0  0  0
  138.5462   67.1118  225.6269 H   0  0  0  0  0  0  0  0  0  0  0  0
  139.3029   66.9733  227.9989 H   0  0  0  0  0  0  0  0  0  0  0  0
  140.8355   68.7105  228.9252 H   0  0  0  0  0  0  0  0  0  0  0  0
  141.6147   70.5898  227.4833 H   0  0  0  0  0  0  0  0  0  0  0  0
  140.9494   71.9921  225.4471 H   0  0  0  0  0  0  0  0  0  0  0  0
  142.0570   70.7990  224.6130 H   0  0  0  0  0  0  0  0  0  0  0  0
  140.1934   75.9207  219.6119 H   0  0  0  0  0  0  0  0  0  0  0  0
  138.4473   75.6984  219.7996 H   0  0  0  0  0  0  0  0  0  0  0  0
  139.6915   78.1771  219.5033 H   0  0  0  0  0  0  0  0  0  0  0  0
  138.1077   77.9755  220.2813 H   0  0  0  0  0  0  0  0  0  0  0  0
  140.5947   78.8381  221.4958 H   0  0  0  0  0  0  0  0  0  0  0  0
  139.0357   78.6023  222.3122 H   0  0  0  0  0  0  0  0  0  0  0  0
  141.4097   76.7577  222.1217 H   0  0  0  0  0  0  0  0  0  0  0  0
  140.2049   76.8737  223.4125 H   0  0  0  0  0  0  0  0  0  0  0  0
  1  2  1  0
  2  3  1  0
  3  4  2  0
  4  5  1  0
  5  6  1  0
  6  7  1  0
  7  8  1  0
  8  9  1  0
  9 10  1  0
 10 11  1  0
  5 12  2  0
 12 13  1  0
 13 14  1  0
 14 15  1  0
 15 16  1  0
 16 17  1  0
 17 18  2  0
 18 19  1  0
 19 20  2  0
 20 21  1  0
 21 22  2  0
 22 23  1  0
 13 24  2  0
  2 25  1  0
 25 26  1  0
 26 27  1  0
 27 28  1  0
 28  2  1  0
 24  3  1  0
 11  6  1  0
 23 14  1  0
 22 17  1  0
  1 29  1  0
  7 30  1  0
  7 31  1  0
  8 32  1  0
  8 33  1  0
  9 34  1  0
 10 35  1  0
 10 36  1  0
 11 37  1  0
 11 38  1  0
 15 39  1  0
 15 40  1  0
 16 41  1  0
 16 42  1  0
 18 43  1  0
 19 44  1  0
 20 45  1  0
 21 46  1  0
 23 47  1  0
 23 48  1  0
 25 49  1  0
 25 50  1  0
 26 51  1  0
 26 52  1  0
 27 53  1  0
 27 54  1  0
 28 55  1  0
 28 56  1  0
M  END
>  <UniqueID>  (7) 
510

>  <SMILES>  (7) 
OC1(c2nc(N3CCNCC3)nc(N3CCc4ccccc4C3)n2)CCCC1

>  <Energy>  (7) 
63.84610375342874

>  <Genealogy>  (7) 
OC1(c2nc(N3CCNCC3)nc(N3CCc4ccccc4C3)n2)CCCC1 (3D coordinates assigned)
OC1(c2nc(N3CCNCC3)nc(N3CCc4ccccc4C3)n2)CCCC1 (nonaromatic ring conformer: 63.84610375342874 kcal/mol)

>  <smiles>  (7) 
OC1(c2nc(N3CCNCC3)nc(N3CCc4ccccc4C3)n2)CCCC1

>  <score_type>  (7) 
oracle

>  <origin>  (7) 
autodockgpu

>  <m_score__min__energy>  (7) 
-8.8599999999999994

>  <m_primary>  (7) 
energy

>  <meeko>  (7) 
{"free_energy": -8.85, "intermolecular_energy": -10.05, "internal_energy": -1.5, "cluster_size": 20, "cluster_id": 1, "rank_in_cluster": 11}

>  <energy>  (7) 
-8.86

>  <cluster_rmsd>  (7) 
0.02

>  <rmsd>  (7) 
271.08

>  <cluster>  (7) 
1

$$$$
AUISRQYXECVJTM-UHFFFAOYNA-N
     RDKit          3D

 56 60  0  0  0  0  0  0  0  0999 V2000
  138.3120   75.5410  222.3780 O   0  0  0  0  0  0  0  0  0  0  0  0
  139.5320   75.7050  221.6940 C   0  0  0  0  0  0  0  0  0  0  0  0
  140.3290   74.4170  221.7510 C   0  0  0  0  0  0  0  0  0  0  0  0
  141.4750   74.2860  221.0340 N   0  0  0  0  0  0  0  0  0  0  0  0
  142.2260   73.1580  221.1250 C   0  0  0  0  0  0  0  0  0  0  0  0
  143.4350   73.0140  220.3510 N   0  0  0  0  0  0  0  0  0  0  0  0
  143.5900   71.8450  219.4750 C   0  0  0  0  0  0  0  0  0  0  0  0
  144.9430   71.8690  218.7600 C   0  0  0  0  0  0  0  0  0  0  0  0
  146.0100   72.2050  219.7080 N   0  0  0  0  0  0  0  0  0  0  0  0
  145.8670   73.5650  220.2650 C   0  0  0  0  0  0  0  0  0  0  0  0
  144.4190   74.1040  220.2780 C   0  0  0  0  0  0  0  0  0  0  0  0
  141.8280   72.1630  221.9620 N   0  0  0  0  0  0  0  0  0  0  0  0
  140.6970   72.2880  222.7050 C   0  0  0  0  0  0  0  0  0  0  0  0
  140.2850   71.2340  223.6010 N   0  0  0  0  0  0  0  0  0  0  0  0
  139.0430   70.4880  223.3430 C   0  0  0  0  0  0  0  0  0  0  0  0
  139.1980   69.0290  223.7590 C   0  0  0  0  0  0  0  0  0  0  0  0
  139.6370   68.9450  225.1900 C   0  0  0  0  0  0  0  0  0  0  0  0
  139.2270   67.8690  225.9930 C   0  0  0  0  0  0  0  0  0  0  0  0
  139.6630   67.7710  227.3160 C   0  0  0  0  0  0  0  0  0  0  0  0
  140.5250   68.7370  227.8410 C   0  0  0  0  0  0  0  0  0  0  0  0
  140.9520   69.8020  227.0440 C   0  0  0  0  0  0  0  0  0  0  0  0
  140.5110   69.9170  225.7160 C   0  0  0  0  0  0  0  0  0  0  0  0
  141.0300   71.0500  224.8610 C   0  0  0  0  0  0  0  0  0  0  0  0
  139.9580   73.4230  222.5990 N   0  0  0  0  0  0  0  0  0  0  0  0
  139.2770   76.1770  220.2570 C   0  0  0  0  0  0  0  0  0  0  0  0
  139.0960   77.6880  220.3410 C   0  0  0  0  0  0  0  0  0  0  0  0
  139.7190   78.1310  221.6630 C   0  0  0  0  0  0  0  0  0  0  0  0
  140.2890   76.8790  222.3170 C   0  0  0  0  0  0  0  0  0  0  0  0
  138.3980   74.7460  222.9680 H   0  0  0  0  0  0  0  0  0  0  0  0
  143.5200   70.9298  220.0812 H   0  0  0  0  0  0  0  0  0  0  0  0
  142.7933   71.8679  218.7169 H   0  0  0  0  0  0  0  0  0  0  0  0
  145.1419   70.8784  218.3250 H   0  0  0  0  0  0  0  0  0  0  0  0
  144.9159   72.6291  217.9653 H   0  0  0  0  0  0  0  0  0  0  0  0
  145.9870   71.5120  220.4950 H   0  0  0  0  0  0  0  0  0  0  0  0
  146.2382   73.5528  221.3004 H   0  0  0  0  0  0  0  0  0  0  0  0
  146.4434   74.2336  219.6088 H   0  0  0  0  0  0  0  0  0  0  0  0
  144.2903   74.7598  221.1517 H   0  0  0  0  0  0  0  0  0  0  0  0
  144.2500   74.6572  219.3424 H   0  0  0  0  0  0  0  0  0  0  0  0
  138.2222   70.9425  223.9171 H   0  0  0  0  0  0  0  0  0  0  0  0
  138.8217   70.5286  222.2663 H   0  0  0  0  0  0  0  0  0  0  0  0
  138.2332   68.5133  223.6436 H   0  0  0  0  0  0  0  0  0  0  0  0
  139.9564   68.5515  223.1212 H   0  0  0  0  0  0  0  0  0  0  0  0
  138.5593   67.0996  225.5782 H   0  0  0  0  0  0  0  0  0  0  0  0
  139.3277   66.9331  227.9449 H   0  0  0  0  0  0  0  0  0  0  0  0
  140.8679   68.6589  228.8833 H   0  0  0  0  0  0  0  0  0  0  0  0
  141.6379   70.5550  227.4594 H   0  0  0  0  0  0  0  0  0  0  0  0
  140.9640   71.9816  225.4422 H   0  0  0  0  0  0  0  0  0  0  0  0
  142.0650   70.7971  224.5875 H   0  0  0  0  0  0  0  0  0  0  0  0
  140.1350   75.9293  219.6147 H   0  0  0  0  0  0  0  0  0  0  0  0
  138.3935   75.6875  219.8213 H   0  0  0  0  0  0  0  0  0  0  0  0
  139.6055   78.1784  219.4985 H   0  0  0  0  0  0  0  0  0  0  0  0
  138.0319   77.9626  220.2930 H   0  0  0  0  0  0  0  0  0  0  0  0
  140.5206   78.8614  221.4788 H   0  0  0  0  0  0  0  0  0  0  0  0
  138.9723   78.6123  222.3117 H   0  0  0  0  0  0  0  0  0  0  0  0
  141.3659   76.7943  222.1095 H   0  0  0  0  0  0  0  0  0  0  0  0
  140.1718   76.9031  223.4105 H   0  0  0  0  0  0  0  0  0  0  0  0
  1  2  1  0
  2  3  1  0
  3  4  2  0
  4  5  1  0
  5  6  1  0
  6  7  1  0
  7  8  1  0
  8  9  1  0
  9 10  1  0
 10 11  1  0
  5 12  2  0
 12 13  1  0
 13 14  1  0
 14 15  1  0
 15 16  1  0
 16 17  1  0
 17 18  2  0
 18 19  1  0
 19 20  2  0
 20 21  1  0
 21 22  2  0
 22 23  1  0
 13 24  2  0
  2 25  1  0
 25 26  1  0
 26 27  1  0
 27 28  1  0
 28  2  1  0
 24  3  1  0
 11  6  1  0
 23 14  1  0
 22 17  1  0
  1 29  1  0
  7 30  1  0
  7 31  1  0
  8 32  1  0
  8 33  1  0
  9 34  1  0
 10 35  1  0
 10 36  1  0
 11 37  1  0
 11 38  1  0
 15 39  1  0
 15 40  1  0
 16 41  1  0
 16 42  1  0
 18 43  1  0
 19 44  1  0
 20 45  1  0
 21 46  1  0
 23 47  1  0
 23 48  1  0
 25 49  1  0
 25 50  1  0
 26 51  1  0
 26 52  1  0
 27 53  1  0
 27 54  1  0
 28 55  1  0
 28 56  1  0
M  END
>  <UniqueID>  (8) 
510

>  <SMILES>  (8) 
OC1(c2nc(N3CCNCC3)nc(N3CCc4ccccc4C3)n2)CCCC1

>  <Energy>  (8) 
63.84610375342874

>  <Genealogy>  (8) 
OC1(c2nc(N3CCNCC3)nc(N3CCc4ccccc4C3)n2)CCCC1 (3D coordinates assigned)
OC1(c2nc(N3CCNCC3)nc(N3CCc4ccccc4C3)n2)CCCC1 (nonaromatic ring conformer: 63.84610375342874 kcal/mol)

>  <smiles>  (8) 
OC1(c2nc(N3CCNCC3)nc(N3CCc4ccccc4C3)n2)CCCC1

>  <score_type>  (8) 
oracle

>  <origin>  (8) 
autodockgpu

>  <m_score__min__energy>  (8) 
-8.8599999999999994

>  <m_primary>  (8) 
energy

>  <meeko>  (8) 
{"free_energy": -8.85, "intermolecular_energy": -10.04, "internal_energy": -1.5, "cluster_size": 20, "cluster_id": 1, "rank_in_cluster": 15}

>  <energy>  (8) 
-8.86

>  <cluster_rmsd>  (8) 
0.02

>  <rmsd>  (8) 
271.08

>  <cluster>  (8) 
1

$$$$
AUISRQYXECVJTM-UHFFFAOYNA-N
     RDKit          3D

 56 60  0  0  0  0  0  0  0  0999 V2000
  138.2890   75.5170  222.3300 O   0  0  0  0  0  0  0  0  0  0  0  0
  139.5250   75.6850  221.6780 C   0  0  0  0  0  0  0  0  0  0  0  0
  140.3160   74.3930  221.7370 C   0  0  0  0  0  0  0  0  0  0  0  0
  141.4570   74.2530  221.0140 N   0  0  0  0  0  0  0  0  0  0  0  0
  142.2020   73.1210  221.1070 C   0  0  0  0  0  0  0  0  0  0  0  0
  143.4060   72.9670  220.3260 N   0  0  0  0  0  0  0  0  0  0  0  0
  143.5670   71.7710  219.4870 C   0  0  0  0  0  0  0  0  0  0  0  0
  144.9130   71.7880  218.7590 C   0  0  0  0  0  0  0  0  0  0  0  0
  145.9850   72.1680  219.6850 N   0  0  0  0  0  0  0  0  0  0  0  0
  145.8290   73.5440  220.1980 C   0  0  0  0  0  0  0  0  0  0  0  0
  144.3760   74.0650  220.2070 C   0  0  0  0  0  0  0  0  0  0  0  0
  141.8040   72.1320  221.9510 N   0  0  0  0  0  0  0  0  0  0  0  0
  140.6790   72.2680  222.7010 C   0  0  0  0  0  0  0  0  0  0  0  0
  140.2670   71.2210  223.6050 N   0  0  0  0  0  0  0  0  0  0  0  0
  139.0190   70.4800  223.3590 C   0  0  0  0  0  0  0  0  0  0  0  0
  139.1700   69.0230  223.7830 C   0  0  0  0  0  0  0  0  0  0  0  0
  139.6170   68.9440  225.2110 C   0  0  0  0  0  0  0  0  0  0  0  0
  139.2060   67.8750  226.0230 C   0  0  0  0  0  0  0  0  0  0  0  0
  139.6500   67.7830  227.3440 C   0  0  0  0  0  0  0  0  0  0  0  0
  140.5200   68.7470  227.8580 C   0  0  0  0  0  0  0  0  0  0  0  0
  140.9480   69.8050  227.0520 C   0  0  0  0  0  0  0  0  0  0  0  0
  140.4990   69.9150  225.7260 C   0  0  0  0  0  0  0  0  0  0  0  0
  141.0180   71.0410  224.8620 C   0  0  0  0  0  0  0  0  0  0  0  0
  139.9450   73.4070  222.5930 N   0  0  0  0  0  0  0  0  0  0  0  0
  139.3070   76.1760  220.2420 C   0  0  0  0  0  0  0  0  0  0  0  0
  139.1300   77.6880  220.3410 C   0  0  0  0  0  0  0  0  0  0  0  0
  139.7220   78.1100  221.6830 C   0  0  0  0  0  0  0  0  0  0  0  0
  140.2710   76.8470  222.3340 C   0  0  0  0  0  0  0  0  0  0  0  0
  138.3620   74.7220  222.9220 H   0  0  0  0  0  0  0  0  0  0  0  0
  143.5137   70.8754  220.1235 H   0  0  0  0  0  0  0  0  0  0  0  0
  142.7630   71.7591  218.7363 H   0  0  0  0  0  0  0  0  0  0  0  0
  145.1202   70.7861  218.3548 H   0  0  0  0  0  0  0  0  0  0  0  0
  144.8690   72.5215  217.9404 H   0  0  0  0  0  0  0  0  0  0  0  0
  145.9780   71.5020  220.4940 H   0  0  0  0  0  0  0  0  0  0  0  0
  146.2096   73.5708  221.2297 H   0  0  0  0  0  0  0  0  0  0  0  0
  146.3905   74.1975  219.5141 H   0  0  0  0  0  0  0  0  0  0  0  0
  144.2475   74.7483  221.0594 H   0  0  0  0  0  0  0  0  0  0  0  0
  144.1917   74.5840  219.2548 H   0  0  0  0  0  0  0  0  0  0  0  0
  138.2041   70.9421  223.9355 H   0  0  0  0  0  0  0  0  0  0  0  0
  138.7905   70.5155  222.2836 H   0  0  0  0  0  0  0  0  0  0  0  0
  138.2022   68.5112  223.6763 H   0  0  0  0  0  0  0  0  0  0  0  0
  139.9229   68.5390  223.1436 H   0  0  0  0  0  0  0  0  0  0  0  0
  138.5315   67.1067  225.6171 H   0  0  0  0  0  0  0  0  0  0  0  0
  139.3142   66.9507  227.9800 H   0  0  0  0  0  0  0  0  0  0  0  0
  140.8687   68.6733  228.8987 H   0  0  0  0  0  0  0  0  0  0  0  0
  141.6409   70.5564  227.4586 H   0  0  0  0  0  0  0  0  0  0  0  0
  140.9589   71.9761  225.4383 H   0  0  0  0  0  0  0  0  0  0  0  0
  142.0505   70.7824  224.5844 H   0  0  0  0  0  0  0  0  0  0  0  0
  140.1793   75.9327  219.6176 H   0  0  0  0  0  0  0  0  0  0  0  0
  138.4324   75.6959  219.7788 H   0  0  0  0  0  0  0  0  0  0  0  0
  139.6622   78.1870  219.5178 H   0  0  0  0  0  0  0  0  0  0  0  0
  138.0687   77.9684  220.2701 H   0  0  0  0  0  0  0  0  0  0  0  0
  140.5307   78.8394  221.5283 H   0  0  0  0  0  0  0  0  0  0  0  0
  138.9614   78.5856  222.3197 H   0  0  0  0  0  0  0  0  0  0  0  0
  141.3523   76.7604  222.1514 H   0  0  0  0  0  0  0  0  0  0  0  0
  140.1275   76.8573  223.4245 H   0  0  0  0  0  0  0  0  0  0  0  0
  1  2  1  0
  2  3  1  0
  3  4  2  0
  4  5  1  0
  5  6  1  0
  6  7  1  0
  7  8  1  0
  8  9  1  0
  9 10  1  0
 10 11  1  0
  5 12  2  0
 12 13  1  0
 13 14  1  0
 14 15  1  0
 15 16  1  0
 16 17  1  0
 17 18  2  0
 18 19  1  0
 19 20  2  0
 20 21  1  0
 21 22  2  0
 22 23  1  0
 13 24  2  0
  2 25  1  0
 25 26  1  0
 26 27  1  0
 27 28  1  0
 28  2  1  0
 24  3  1  0
 11  6  1  0
 23 14  1  0
 22 17  1  0
  1 29  1  0
  7 30  1  0
  7 31  1  0
  8 32  1  0
  8 33  1  0
  9 34  1  0
 10 35  1  0
 10 36  1  0
 11 37  1  0
 11 38  1  0
 15 39  1  0
 15 40  1  0
 16 41  1  0
 16 42  1  0
 18 43  1  0
 19 44  1  0
 20 45  1  0
 21 46  1  0
 23 47  1  0
 23 48  1  0
 25 49  1  0
 25 50  1  0
 26 51  1  0
 26 52  1  0
 27 53  1  0
 27 54  1  0
 28 55  1  0
 28 56  1  0
M  END
>  <UniqueID>  (9) 
510

>  <SMILES>  (9) 
OC1(c2nc(N3CCNCC3)nc(N3CCc4ccccc4C3)n2)CCCC1

>  <Energy>  (9) 
63.84610375342874

>  <Genealogy>  (9) 
OC1(c2nc(N3CCNCC3)nc(N3CCc4ccccc4C3)n2)CCCC1 (3D coordinates assigned)
OC1(c2nc(N3CCNCC3)nc(N3CCc4ccccc4C3)n2)CCCC1 (nonaromatic ring conformer: 63.84610375342874 kcal/mol)

>  <smiles>  (9) 
OC1(c2nc(N3CCNCC3)nc(N3CCc4ccccc4C3)n2)CCCC1

>  <score_type>  (9) 
oracle

>  <origin>  (9) 
autodockgpu

>  <m_score__min__energy>  (9) 
-8.8599999999999994

>  <m_primary>  (9) 
energy

>  <meeko>  (9) 
{"free_energy": -8.85, "intermolecular_energy": -10.05, "internal_energy": -1.5, "cluster_size": 20, "cluster_id": 1, "rank_in_cluster": 10}

>  <energy>  (9) 
-8.85

>  <cluster_rmsd>  (9) 
0.03

>  <rmsd>  (9) 
271.09

>  <cluster>  (9) 
1

$$$$
AUISRQYXECVJTM-UHFFFAOYNA-N
     RDKit          3D

 56 60  0  0  0  0  0  0  0  0999 V2000
  138.2980   75.5160  222.3560 O   0  0  0  0  0  0  0  0  0  0  0  0
  139.5300   75.6760  221.6930 C   0  0  0  0  0  0  0  0  0  0  0  0
  140.3170   74.3820  221.7540 C   0  0  0  0  0  0  0  0  0  0  0  0
  141.4590   74.2380  221.0320 N   0  0  0  0  0  0  0  0  0  0  0  0
  142.2010   73.1040  221.1270 C   0  0  0  0  0  0  0  0  0  0  0  0
  143.4050   72.9460  220.3470 N   0  0  0  0  0  0  0  0  0  0  0  0
  143.5730   71.7380  219.5270 C   0  0  0  0  0  0  0  0  0  0  0  0
  144.9190   71.7520  218.7970 C   0  0  0  0  0  0  0  0  0  0  0  0
  145.9880   72.1550  219.7160 N   0  0  0  0  0  0  0  0  0  0  0  0
  145.8240   73.5370  220.2060 C   0  0  0  0  0  0  0  0  0  0  0  0
  144.3670   74.0490  220.2090 C   0  0  0  0  0  0  0  0  0  0  0  0
  141.7990   72.1170  221.9720 N   0  0  0  0  0  0  0  0  0  0  0  0
  140.6740   72.2560  222.7200 C   0  0  0  0  0  0  0  0  0  0  0  0
  140.2580   71.2110  223.6250 N   0  0  0  0  0  0  0  0  0  0  0  0
  139.0070   70.4760  223.3800 C   0  0  0  0  0  0  0  0  0  0  0  0
  139.1510   69.0180  223.8040 C   0  0  0  0  0  0  0  0  0  0  0  0
  139.6000   68.9380  225.2320 C   0  0  0  0  0  0  0  0  0  0  0  0
  139.1850   67.8710  226.0450 C   0  0  0  0  0  0  0  0  0  0  0  0
  139.6300   67.7770  227.3650 C   0  0  0  0  0  0  0  0  0  0  0  0
  140.5050   68.7370  227.8780 C   0  0  0  0  0  0  0  0  0  0  0  0
  140.9360   69.7930  227.0710 C   0  0  0  0  0  0  0  0  0  0  0  0
  140.4860   69.9050  225.7460 C   0  0  0  0  0  0  0  0  0  0  0  0
  141.0100   71.0280  224.8810 C   0  0  0  0  0  0  0  0  0  0  0  0
  139.9430   73.3970  222.6110 N   0  0  0  0  0  0  0  0  0  0  0  0
  139.3030   76.1590  220.2550 C   0  0  0  0  0  0  0  0  0  0  0  0
  139.1310   77.6720  220.3460 C   0  0  0  0  0  0  0  0  0  0  0  0
  139.7350   78.1010  221.6810 C   0  0  0  0  0  0  0  0  0  0  0  0
  140.2850   76.8400  222.3360 C   0  0  0  0  0  0  0  0  0  0  0  0
  138.3620   74.7040  222.9250 H   0  0  0  0  0  0  0  0  0  0  0  0
  143.5261   70.8523  220.1777 H   0  0  0  0  0  0  0  0  0  0  0  0
  142.7685   71.7091  218.7774 H   0  0  0  0  0  0  0  0  0  0  0  0
  145.1330   70.7449  218.4096 H   0  0  0  0  0  0  0  0  0  0  0  0
  144.8696   72.4708  217.9658 H   0  0  0  0  0  0  0  0  0  0  0  0
  145.9870   71.5020  220.5350 H   0  0  0  0  0  0  0  0  0  0  0  0
  146.2062   73.5834  221.2364 H   0  0  0  0  0  0  0  0  0  0  0  0
  146.3801   74.1826  219.5103 H   0  0  0  0  0  0  0  0  0  0  0  0
  144.2351   74.7449  221.0507 H   0  0  0  0  0  0  0  0  0  0  0  0
  144.1776   74.5521  219.2493 H   0  0  0  0  0  0  0  0  0  0  0  0
  138.1946   70.9420  223.9570 H   0  0  0  0  0  0  0  0  0  0  0  0
  138.7783   70.5124  222.3047 H   0  0  0  0  0  0  0  0  0  0  0  0
  138.1804   68.5111  223.6990 H   0  0  0  0  0  0  0  0  0  0  0  0
  139.9000   68.5294  223.1635 H   0  0  0  0  0  0  0  0  0  0  0  0
  138.5063   67.1058  225.6401 H   0  0  0  0  0  0  0  0  0  0  0  0
  139.2912   66.9462  228.0014 H   0  0  0  0  0  0  0  0  0  0  0  0
  140.8551   68.6617  228.9181 H   0  0  0  0  0  0  0  0  0  0  0  0
  141.6325   70.5416  227.4766 H   0  0  0  0  0  0  0  0  0  0  0  0
  140.9566   71.9636  225.4570 H   0  0  0  0  0  0  0  0  0  0  0  0
  142.0409   70.7643  224.6023 H   0  0  0  0  0  0  0  0  0  0  0  0
  140.1701   75.9094  219.6259 H   0  0  0  0  0  0  0  0  0  0  0  0
  138.4238   75.6786  219.8010 H   0  0  0  0  0  0  0  0  0  0  0  0
  139.6580   78.1644  219.5154 H   0  0  0  0  0  0  0  0  0  0  0  0
  138.0699   77.9549  220.2819 H   0  0  0  0  0  0  0  0  0  0  0  0
  140.5449   78.8267  221.5153 H   0  0  0  0  0  0  0  0  0  0  0  0
  138.9811   78.5833  222.3205 H   0  0  0  0  0  0  0  0  0  0  0  0
  141.3645   76.7487  222.1456 H   0  0  0  0  0  0  0  0  0  0  0  0
  140.1499   76.8577  223.4275 H   0  0  0  0  0  0  0  0  0  0  0  0
  1  2  1  0
  2  3  1  0
  3  4  2  0
  4  5  1  0
  5  6  1  0
  6  7  1  0
  7  8  1  0
  8  9  1  0
  9 10  1  0
 10 11  1  0
  5 12  2  0
 12 13  1  0
 13 14  1  0
 14 15  1  0
 15 16  1  0
 16 17  1  0
 17 18  2  0
 18 19  1  0
 19 20  2  0
 20 21  1  0
 21 22  2  0
 22 23  1  0
 13 24  2  0
  2 25  1  0
 25 26  1  0
 26 27  1  0
 27 28  1  0
 28  2  1  0
 24  3  1  0
 11  6  1  0
 23 14  1  0
 22 17  1  0
  1 29  1  0
  7 30  1  0
  7 31  1  0
  8 32  1  0
  8 33  1  0
  9 34  1  0
 10 35  1  0
 10 36  1  0
 11 37  1  0
 11 38  1  0
 15 39  1  0
 15 40  1  0
 16 41  1  0
 16 42  1  0
 18 43  1  0
 19 44  1  0
 20 45  1  0
 21 46  1  0
 23 47  1  0
 23 48  1  0
 25 49  1  0
 25 50  1  0
 26 51  1  0
 26 52  1  0
 27 53  1  0
 27 54  1  0
 28 55  1  0
 28 56  1  0
M  END
>  <UniqueID>  (10) 
510

>  <SMILES>  (10) 
OC1(c2nc(N3CCNCC3)nc(N3CCc4ccccc4C3)n2)CCCC1

>  <Energy>  (10) 
63.84610375342874

>  <Genealogy>  (10) 
OC1(c2nc(N3CCNCC3)nc(N3CCc4ccccc4C3)n2)CCCC1 (3D coordinates assigned)
OC1(c2nc(N3CCNCC3)nc(N3CCc4ccccc4C3)n2)CCCC1 (nonaromatic ring conformer: 63.84610375342874 kcal/mol)

>  <smiles>  (10) 
OC1(c2nc(N3CCNCC3)nc(N3CCc4ccccc4C3)n2)CCCC1

>  <score_type>  (10) 
oracle

>  <origin>  (10) 
autodockgpu

>  <m_score__min__energy>  (10) 
-8.8599999999999994

>  <m_primary>  (10) 
energy

>  <meeko>  (10) 
{"free_energy": -8.86, "intermolecular_energy": -10.05, "internal_energy": -1.5, "cluster_size": 20, "cluster_id": 1, "rank_in_cluster": 7}

>  <energy>  (10) 
-8.85

>  <cluster_rmsd>  (10) 
0.03

>  <rmsd>  (10) 
271.07

>  <cluster>  (10) 
1

$$$$
AUISRQYXECVJTM-UHFFFAOYNA-N
     RDKit          3D

 56 60  0  0  0  0  0  0  0  0999 V2000
  138.3330   75.5330  222.3790 O   0  0  0  0  0  0  0  0  0  0  0  0
  139.5610   75.6800  221.7060 C   0  0  0  0  0  0  0  0  0  0  0  0
  140.3360   74.3790  221.7640 C   0  0  0  0  0  0  0  0  0  0  0  0
  141.4740   74.2240  221.0370 N   0  0  0  0  0  0  0  0  0  0  0  0
  142.2050   73.0830  221.1280 C   0  0  0  0  0  0  0  0  0  0  0  0
  143.4040   72.9140  220.3440 N   0  0  0  0  0  0  0  0  0  0  0  0
  143.5840   71.6790  219.5690 C   0  0  0  0  0  0  0  0  0  0  0  0
  144.9230   71.6860  218.8260 C   0  0  0  0  0  0  0  0  0  0  0  0
  145.9940   72.1400  219.7180 N   0  0  0  0  0  0  0  0  0  0  0  0
  145.8130   73.5370  220.1580 C   0  0  0  0  0  0  0  0  0  0  0  0
  144.3480   74.0260  220.1550 C   0  0  0  0  0  0  0  0  0  0  0  0
  141.7980   72.1010  221.9750 N   0  0  0  0  0  0  0  0  0  0  0  0
  140.6770   72.2500  222.7280 C   0  0  0  0  0  0  0  0  0  0  0  0
  140.2550   71.2090  223.6350 N   0  0  0  0  0  0  0  0  0  0  0  0
  139.0090   70.4680  223.3810 C   0  0  0  0  0  0  0  0  0  0  0  0
  139.1540   69.0130  223.8150 C   0  0  0  0  0  0  0  0  0  0  0  0
  139.5880   68.9420  225.2470 C   0  0  0  0  0  0  0  0  0  0  0  0
  139.1680   67.8780  226.0620 C   0  0  0  0  0  0  0  0  0  0  0  0
  139.6000   67.7930  227.3870 C   0  0  0  0  0  0  0  0  0  0  0  0
  140.4660   68.7590  227.9040 C   0  0  0  0  0  0  0  0  0  0  0  0
  140.9030   69.8120  227.0960 C   0  0  0  0  0  0  0  0  0  0  0  0
  140.4660   69.9150  225.7650 C   0  0  0  0  0  0  0  0  0  0  0  0
  140.9950   71.0350  224.8990 C   0  0  0  0  0  0  0  0  0  0  0  0
  139.9560   73.3980  222.6220 N   0  0  0  0  0  0  0  0  0  0  0  0
  139.3270   76.1630  220.2690 C   0  0  0  0  0  0  0  0  0  0  0  0
  139.1700   77.6770  220.3590 C   0  0  0  0  0  0  0  0  0  0  0  0
  139.7890   78.1030  221.6880 C   0  0  0  0  0  0  0  0  0  0  0  0
  140.3320   76.8380  222.3410 C   0  0  0  0  0  0  0  0  0  0  0  0
  138.4000   74.7320  222.9630 H   0  0  0  0  0  0  0  0  0  0  0  0
  143.5570   70.8181  220.2532 H   0  0  0  0  0  0  0  0  0  0  0  0
  142.7734   71.6092  218.8287 H   0  0  0  0  0  0  0  0  0  0  0  0
  145.1492   70.6683  218.4751 H   0  0  0  0  0  0  0  0  0  0  0  0
  144.8545   72.3720  217.9689 H   0  0  0  0  0  0  0  0  0  0  0  0
  146.0110   71.5180  220.5620 H   0  0  0  0  0  0  0  0  0  0  0  0
  146.2031   73.6276  221.1825 H   0  0  0  0  0  0  0  0  0  0  0  0
  146.3533   74.1649  219.4342 H   0  0  0  0  0  0  0  0  0  0  0  0
  144.2125   74.7515  220.9707 H   0  0  0  0  0  0  0  0  0  0  0  0
  144.1425   74.4887  219.1784 H   0  0  0  0  0  0  0  0  0  0  0  0
  138.1889   70.9343  223.9467 H   0  0  0  0  0  0  0  0  0  0  0  0
  138.7914   70.4974  222.3031 H   0  0  0  0  0  0  0  0  0  0  0  0
  138.1864   68.5020  223.7026 H   0  0  0  0  0  0  0  0  0  0  0  0
  139.9118   68.5240  223.1852 H   0  0  0  0  0  0  0  0  0  0  0  0
  138.4959   67.1084  225.6547 H   0  0  0  0  0  0  0  0  0  0  0  0
  139.2579   66.9643  228.0243 H   0  0  0  0  0  0  0  0  0  0  0  0
  140.8045   68.6909  228.9484 H   0  0  0  0  0  0  0  0  0  0  0  0
  141.5933   70.5647  227.5046 H   0  0  0  0  0  0  0  0  0  0  0  0
  140.9331   71.9735  225.4694 H   0  0  0  0  0  0  0  0  0  0  0  0
  142.0293   70.7729  224.6318 H   0  0  0  0  0  0  0  0  0  0  0  0
  140.1867   75.9043  219.6333 H   0  0  0  0  0  0  0  0  0  0  0  0
  138.4397   75.6902  219.8228 H   0  0  0  0  0  0  0  0  0  0  0  0
  139.6945   78.1631  219.5232 H   0  0  0  0  0  0  0  0  0  0  0  0
  138.1110   77.9694  220.3035 H   0  0  0  0  0  0  0  0  0  0  0  0
  140.6045   78.8204  221.5141 H   0  0  0  0  0  0  0  0  0  0  0  0
  139.0452   78.5941  222.3326 H   0  0  0  0  0  0  0  0  0  0  0  0
  141.4091   76.7361  222.1425 H   0  0  0  0  0  0  0  0  0  0  0  0
  140.2054   76.8590  223.4335 H   0  0  0  0  0  0  0  0  0  0  0  0
  1  2  1  0
  2  3  1  0
  3  4  2  0
  4  5  1  0
  5  6  1  0
  6  7  1  0
  7  8  1  0
  8  9  1  0
  9 10  1  0
 10 11  1  0
  5 12  2  0
 12 13  1  0
 13 14  1  0
 14 15  1  0
 15 16  1  0
 16 17  1  0
 17 18  2  0
 18 19  1  0
 19 20  2  0
 20 21  1  0
 21 22  2  0
 22 23  1  0
 13 24  2  0
  2 25  1  0
 25 26  1  0
 26 27  1  0
 27 28  1  0
 28  2  1  0
 24  3  1  0
 11  6  1  0
 23 14  1  0
 22 17  1  0
  1 29  1  0
  7 30  1  0
  7 31  1  0
  8 32  1  0
  8 33  1  0
  9 34  1  0
 10 35  1  0
 10 36  1  0
 11 37  1  0
 11 38  1  0
 15 39  1  0
 15 40  1  0
 16 41  1  0
 16 42  1  0
 18 43  1  0
 19 44  1  0
 20 45  1  0
 21 46  1  0
 23 47  1  0
 23 48  1  0
 25 49  1  0
 25 50  1  0
 26 51  1  0
 26 52  1  0
 27 53  1  0
 27 54  1  0
 28 55  1  0
 28 56  1  0
M  END
>  <UniqueID>  (11) 
510

>  <SMILES>  (11) 
OC1(c2nc(N3CCNCC3)nc(N3CCc4ccccc4C3)n2)CCCC1

>  <Energy>  (11) 
63.84610375342874

>  <Genealogy>  (11) 
OC1(c2nc(N3CCNCC3)nc(N3CCc4ccccc4C3)n2)CCCC1 (3D coordinates assigned)
OC1(c2nc(N3CCNCC3)nc(N3CCc4ccccc4C3)n2)CCCC1 (nonaromatic ring conformer: 63.84610375342874 kcal/mol)

>  <smiles>  (11) 
OC1(c2nc(N3CCNCC3)nc(N3CCc4ccccc4C3)n2)CCCC1

>  <score_type>  (11) 
oracle

>  <origin>  (11) 
autodockgpu

>  <m_score__min__energy>  (11) 
-8.8599999999999994

>  <m_primary>  (11) 
energy

>  <meeko>  (11) 
{"free_energy": -8.86, "intermolecular_energy": -10.05, "internal_energy": -1.5, "cluster_size": 20, "cluster_id": 1, "rank_in_cluster": 6}

>  <energy>  (11) 
-8.85

>  <cluster_rmsd>  (11) 
0.04

>  <rmsd>  (11) 
271.09

>  <cluster>  (11) 
1

$$$$
AUISRQYXECVJTM-UHFFFAOYNA-N
     RDKit          3D

 56 60  0  0  0  0  0  0  0  0999 V2000
  138.3130   75.5360  222.3710 O   0  0  0  0  0  0  0  0  0  0  0  0
  139.5400   75.6920  221.6990 C   0  0  0  0  0  0  0  0  0  0  0  0
  140.3250   74.3960  221.7570 C   0  0  0  0  0  0  0  0  0  0  0  0
  141.4640   74.2500  221.0310 N   0  0  0  0  0  0  0  0  0  0  0  0
  142.2040   73.1150  221.1220 C   0  0  0  0  0  0  0  0  0  0  0  0
  143.4050   72.9550  220.3390 N   0  0  0  0  0  0  0  0  0  0  0  0
  143.5650   71.7520  219.5110 C   0  0  0  0  0  0  0  0  0  0  0  0
  144.9090   71.7640  218.7780 C   0  0  0  0  0  0  0  0  0  0  0  0
  145.9830   72.1550  219.6960 N   0  0  0  0  0  0  0  0  0  0  0  0
  145.8280   73.5350  220.1960 C   0  0  0  0  0  0  0  0  0  0  0  0
  144.3730   74.0540  220.2050 C   0  0  0  0  0  0  0  0  0  0  0  0
  141.8040   72.1290  221.9680 N   0  0  0  0  0  0  0  0  0  0  0  0
  140.6810   72.2690  222.7200 C   0  0  0  0  0  0  0  0  0  0  0  0
  140.2660   71.2240  223.6260 N   0  0  0  0  0  0  0  0  0  0  0  0
  139.0200   70.4830  223.3770 C   0  0  0  0  0  0  0  0  0  0  0  0
  139.1690   69.0270  223.8050 C   0  0  0  0  0  0  0  0  0  0  0  0
  139.6120   68.9520  225.2350 C   0  0  0  0  0  0  0  0  0  0  0  0
  139.1980   67.8840  226.0480 C   0  0  0  0  0  0  0  0  0  0  0  0
  139.6390   67.7960  227.3710 C   0  0  0  0  0  0  0  0  0  0  0  0
  140.5060   68.7610  227.8850 C   0  0  0  0  0  0  0  0  0  0  0  0
  140.9360   69.8180  227.0780 C   0  0  0  0  0  0  0  0  0  0  0  0
  140.4920   69.9240  225.7500 C   0  0  0  0  0  0  0  0  0  0  0  0
  141.0130   71.0480  224.8850 C   0  0  0  0  0  0  0  0  0  0  0  0
  139.9510   73.4110  222.6140 N   0  0  0  0  0  0  0  0  0  0  0  0
  139.3020   76.1720  220.2620 C   0  0  0  0  0  0  0  0  0  0  0  0
  139.1340   77.6850  220.3510 C   0  0  0  0  0  0  0  0  0  0  0  0
  139.7500   78.1160  221.6810 C   0  0  0  0  0  0  0  0  0  0  0  0
  140.3030   76.8560  222.3330 C   0  0  0  0  0  0  0  0  0  0  0  0
  138.3670   74.7040  222.9130 H   0  0  0  0  0  0  0  0  0  0  0  0
  143.5152   70.8624  220.1560 H   0  0  0  0  0  0  0  0  0  0  0  0
  142.7586   71.7320  218.7631 H   0  0  0  0  0  0  0  0  0  0  0  0
  145.1165   70.7585  218.3833 H   0  0  0  0  0  0  0  0  0  0  0  0
  144.8610   72.4892  217.9523 H   0  0  0  0  0  0  0  0  0  0  0  0
  145.9810   71.4960  220.5120 H   0  0  0  0  0  0  0  0  0  0  0  0
  146.2124   73.5724  221.2260 H   0  0  0  0  0  0  0  0  0  0  0  0
  146.3867   74.1827  219.5044 H   0  0  0  0  0  0  0  0  0  0  0  0
  144.2464   74.7458  221.0508 H   0  0  0  0  0  0  0  0  0  0  0  0
  144.1842   74.5629  219.2482 H   0  0  0  0  0  0  0  0  0  0  0  0
  138.2028   70.9465  223.9491 H   0  0  0  0  0  0  0  0  0  0  0  0
  138.7960   70.5159  222.3006 H   0  0  0  0  0  0  0  0  0  0  0  0
  138.2013   68.5154  223.6968 H   0  0  0  0  0  0  0  0  0  0  0  0
  139.9233   68.5407  223.1690 H   0  0  0  0  0  0  0  0  0  0  0  0
  138.5247   67.1147  225.6420 H   0  0  0  0  0  0  0  0  0  0  0  0
  139.3023   66.9649  228.0081 H   0  0  0  0  0  0  0  0  0  0  0  0
  140.8515   68.6897  228.9269 H   0  0  0  0  0  0  0  0  0  0  0  0
  141.6263   70.5713  227.4855 H   0  0  0  0  0  0  0  0  0  0  0  0
  140.9516   71.9845  225.4588 H   0  0  0  0  0  0  0  0  0  0  0  0
  142.0466   70.7896  224.6113 H   0  0  0  0  0  0  0  0  0  0  0  0
  140.1633   75.9191  219.6262 H   0  0  0  0  0  0  0  0  0  0  0  0
  138.4181   75.6923  219.8164 H   0  0  0  0  0  0  0  0  0  0  0  0
  139.6553   78.1744  219.5151 H   0  0  0  0  0  0  0  0  0  0  0  0
  138.0730   77.9699  220.2948 H   0  0  0  0  0  0  0  0  0  0  0  0
  140.5596   78.8401  221.5073 H   0  0  0  0  0  0  0  0  0  0  0  0
  139.0023   78.6009  222.3258 H   0  0  0  0  0  0  0  0  0  0  0  0
  141.3806   76.7622  222.1331 H   0  0  0  0  0  0  0  0  0  0  0  0
  140.1776   76.8761  223.4256 H   0  0  0  0  0  0  0  0  0  0  0  0
  1  2  1  0
  2  3  1  0
  3  4  2  0
  4  5  1  0
  5  6  1  0
  6  7  1  0
  7  8  1  0
  8  9  1  0
  9 10  1  0
 10 11  1  0
  5 12  2  0
 12 13  1  0
 13 14  1  0
 14 15  1  0
 15 16  1  0
 16 17  1  0
 17 18  2  0
 18 19  1  0
 19 20  2  0
 20 21  1  0
 21 22  2  0
 22 23  1  0
 13 24  2  0
  2 25  1  0
 25 26  1  0
 26 27  1  0
 27 28  1  0
 28  2  1  0
 24  3  1  0
 11  6  1  0
 23 14  1  0
 22 17  1  0
  1 29  1  0
  7 30  1  0
  7 31  1  0
  8 32  1  0
  8 33  1  0
  9 34  1  0
 10 35  1  0
 10 36  1  0
 11 37  1  0
 11 38  1  0
 15 39  1  0
 15 40  1  0
 16 41  1  0
 16 42  1  0
 18 43  1  0
 19 44  1  0
 20 45  1  0
 21 46  1  0
 23 47  1  0
 23 48  1  0
 25 49  1  0
 25 50  1  0
 26 51  1  0
 26 52  1  0
 27 53  1  0
 27 54  1  0
 28 55  1  0
 28 56  1  0
M  END
>  <UniqueID>  (12) 
510

>  <SMILES>  (12) 
OC1(c2nc(N3CCNCC3)nc(N3CCc4ccccc4C3)n2)CCCC1

>  <Energy>  (12) 
63.84610375342874

>  <Genealogy>  (12) 
OC1(c2nc(N3CCNCC3)nc(N3CCc4ccccc4C3)n2)CCCC1 (3D coordinates assigned)
OC1(c2nc(N3CCNCC3)nc(N3CCc4ccccc4C3)n2)CCCC1 (nonaromatic ring conformer: 63.84610375342874 kcal/mol)

>  <smiles>  (12) 
OC1(c2nc(N3CCNCC3)nc(N3CCc4ccccc4C3)n2)CCCC1

>  <score_type>  (12) 
oracle

>  <origin>  (12) 
autodockgpu

>  <m_score__min__energy>  (12) 
-8.8599999999999994

>  <m_primary>  (12) 
energy

>  <meeko>  (12) 
{"free_energy": -8.86, "intermolecular_energy": -10.05, "internal_energy": -1.5, "cluster_size": 20, "cluster_id": 1, "rank_in_cluster": 1}

>  <energy>  (12) 
-8.85

>  <cluster_rmsd>  (12) 
0.05

>  <rmsd>  (12) 
271.1

>  <cluster>  (12) 
1

$$$$
AUISRQYXECVJTM-UHFFFAOYNA-N
     RDKit          3D

 56 60  0  0  0  0  0  0  0  0999 V2000
  138.3340   75.5540  222.3590 O   0  0  0  0  0  0  0  0  0  0  0  0
  139.5580   75.7050  221.6820 C   0  0  0  0  0  0  0  0  0  0  0  0
  140.3440   74.4100  221.7470 C   0  0  0  0  0  0  0  0  0  0  0  0
  141.4850   74.2620  221.0250 N   0  0  0  0  0  0  0  0  0  0  0  0
  142.2260   73.1280  221.1240 C   0  0  0  0  0  0  0  0  0  0  0  0
  143.4300   72.9660  220.3450 N   0  0  0  0  0  0  0  0  0  0  0  0
  143.6000   71.7520  219.5350 C   0  0  0  0  0  0  0  0  0  0  0  0
  144.9460   71.7630  218.8050 C   0  0  0  0  0  0  0  0  0  0  0  0
  146.0150   72.1750  219.7200 N   0  0  0  0  0  0  0  0  0  0  0  0
  145.8480   73.5610  220.1990 C   0  0  0  0  0  0  0  0  0  0  0  0
  144.3890   74.0700  220.1980 C   0  0  0  0  0  0  0  0  0  0  0  0
  141.8230   72.1440  221.9720 N   0  0  0  0  0  0  0  0  0  0  0  0
  140.6970   72.2870  222.7190 C   0  0  0  0  0  0  0  0  0  0  0  0
  140.2790   71.2450  223.6270 N   0  0  0  0  0  0  0  0  0  0  0  0
  139.0480   70.4840  223.3620 C   0  0  0  0  0  0  0  0  0  0  0  0
  139.2090   69.0340  223.8070 C   0  0  0  0  0  0  0  0  0  0  0  0
  139.6260   68.9790  225.2460 C   0  0  0  0  0  0  0  0  0  0  0  0
  139.2110   67.9140  226.0620 C   0  0  0  0  0  0  0  0  0  0  0  0
  139.6270   67.8440  227.3930 C   0  0  0  0  0  0  0  0  0  0  0  0
  140.4710   68.8270  227.9140 C   0  0  0  0  0  0  0  0  0  0  0  0
  140.9020   69.8810  227.1050 C   0  0  0  0  0  0  0  0  0  0  0  0
  140.4820   69.9690  225.7680 C   0  0  0  0  0  0  0  0  0  0  0  0
  141.0050   71.0910  224.9020 C   0  0  0  0  0  0  0  0  0  0  0  0
  139.9670   73.4290  222.6060 N   0  0  0  0  0  0  0  0  0  0  0  0
  139.3160   76.1750  220.2420 C   0  0  0  0  0  0  0  0  0  0  0  0
  139.1470   77.6880  220.3200 C   0  0  0  0  0  0  0  0  0  0  0  0
  139.7680   78.1290  221.6440 C   0  0  0  0  0  0  0  0  0  0  0  0
  140.3230   76.8740  222.3050 C   0  0  0  0  0  0  0  0  0  0  0  0
  138.4240   74.7870  222.9840 H   0  0  0  0  0  0  0  0  0  0  0  0
  143.5548   70.8715  220.1928 H   0  0  0  0  0  0  0  0  0  0  0  0
  142.7954   71.7152  218.7858 H   0  0  0  0  0  0  0  0  0  0  0  0
  145.1617   70.7534  218.4254 H   0  0  0  0  0  0  0  0  0  0  0  0
  144.8949   72.4757  217.9687 H   0  0  0  0  0  0  0  0  0  0  0  0
  146.0150   71.5280  220.5440 H   0  0  0  0  0  0  0  0  0  0  0  0
  146.2302   73.6165  221.2290 H   0  0  0  0  0  0  0  0  0  0  0  0
  146.4026   74.2023  219.4982 H   0  0  0  0  0  0  0  0  0  0  0  0
  144.2555   74.7723  221.0340 H   0  0  0  0  0  0  0  0  0  0  0  0
  144.1983   74.5650  219.2343 H   0  0  0  0  0  0  0  0  0  0  0  0
  138.2139   70.9415  223.9142 H   0  0  0  0  0  0  0  0  0  0  0  0
  138.8439   70.5035  222.2813 H   0  0  0  0  0  0  0  0  0  0  0  0
  138.2506   68.5079  223.6858 H   0  0  0  0  0  0  0  0  0  0  0  0
  139.9817   68.5521  223.1900 H   0  0  0  0  0  0  0  0  0  0  0  0
  138.5557   67.1320  225.6510 H   0  0  0  0  0  0  0  0  0  0  0  0
  139.2898   67.0142  228.0315 H   0  0  0  0  0  0  0  0  0  0  0  0
  140.7969   68.7712  228.9631 H   0  0  0  0  0  0  0  0  0  0  0  0
  141.5748   70.6470  227.5180 H   0  0  0  0  0  0  0  0  0  0  0  0
  140.9210   72.0322  225.4651 H   0  0  0  0  0  0  0  0  0  0  0  0
  142.0468   70.8435  224.6504 H   0  0  0  0  0  0  0  0  0  0  0  0
  140.1759   75.9182  219.6059 H   0  0  0  0  0  0  0  0  0  0  0  0
  138.4311   75.6916  219.8024 H   0  0  0  0  0  0  0  0  0  0  0  0
  139.6645   78.1716  219.4784 H   0  0  0  0  0  0  0  0  0  0  0  0
  138.0856   77.9719  220.2657 H   0  0  0  0  0  0  0  0  0  0  0  0
  140.5774   78.8512  221.4615 H   0  0  0  0  0  0  0  0  0  0  0  0
  139.0226   78.6192  222.2875 H   0  0  0  0  0  0  0  0  0  0  0  0
  141.4001   76.7786  222.1031 H   0  0  0  0  0  0  0  0  0  0  0  0
  140.2007   76.9028  223.3978 H   0  0  0  0  0  0  0  0  0  0  0  0
  1  2  1  0
  2  3  1  0
  3  4  2  0
  4  5  1  0
  5  6  1  0
  6  7  1  0
  7  8  1  0
  8  9  1  0
  9 10  1  0
 10 11  1  0
  5 12  2  0
 12 13  1  0
 13 14  1  0
 14 15  1  0
 15 16  1  0
 16 17  1  0
 17 18  2  0
 18 19  1  0
 19 20  2  0
 20 21  1  0
 21 22  2  0
 22 23  1  0
 13 24  2  0
  2 25  1  0
 25 26  1  0
 26 27  1  0
 27 28  1  0
 28  2  1  0
 24  3  1  0
 11  6  1  0
 23 14  1  0
 22 17  1  0
  1 29  1  0
  7 30  1  0
  7 31  1  0
  8 32  1  0
  8 33  1  0
  9 34  1  0
 10 35  1  0
 10 36  1  0
 11 37  1  0
 11 38  1  0
 15 39  1  0
 15 40  1  0
 16 41  1  0
 16 42  1  0
 18 43  1  0
 19 44  1  0
 20 45  1  0
 21 46  1  0
 23 47  1  0
 23 48  1  0
 25 49  1  0
 25 50  1  0
 26 51  1  0
 26 52  1  0
 27 53  1  0
 27 54  1  0
 28 55  1  0
 28 56  1  0
M  END
>  <UniqueID>  (13) 
510

>  <SMILES>  (13) 
OC1(c2nc(N3CCNCC3)nc(N3CCc4ccccc4C3)n2)CCCC1

>  <Energy>  (13) 
63.84610375342874

>  <Genealogy>  (13) 
OC1(c2nc(N3CCNCC3)nc(N3CCc4ccccc4C3)n2)CCCC1 (3D coordinates assigned)
OC1(c2nc(N3CCNCC3)nc(N3CCc4ccccc4C3)n2)CCCC1 (nonaromatic ring conformer: 63.84610375342874 kcal/mol)

>  <smiles>  (13) 
OC1(c2nc(N3CCNCC3)nc(N3CCc4ccccc4C3)n2)CCCC1

>  <score_type>  (13) 
oracle

>  <origin>  (13) 
autodockgpu

>  <m_score__min__energy>  (13) 
-8.8599999999999994

>  <m_primary>  (13) 
energy

>  <meeko>  (13) 
{"free_energy": -8.85, "intermolecular_energy": -10.04, "internal_energy": -1.5, "cluster_size": 20, "cluster_id": 1, "rank_in_cluster": 17}

>  <energy>  (13) 
-8.85

>  <cluster_rmsd>  (13) 
0.06

>  <rmsd>  (13) 
271.08

>  <cluster>  (13) 
1

$$$$
AUISRQYXECVJTM-UHFFFAOYNA-N
     RDKit          3D

 56 60  0  0  0  0  0  0  0  0999 V2000
  138.3240   75.5230  222.3440 O   0  0  0  0  0  0  0  0  0  0  0  0
  139.5580   75.6760  221.6850 C   0  0  0  0  0  0  0  0  0  0  0  0
  140.3360   74.3750  221.7430 C   0  0  0  0  0  0  0  0  0  0  0  0
  141.4760   74.2240  221.0200 N   0  0  0  0  0  0  0  0  0  0  0  0
  142.2100   73.0850  221.1130 C   0  0  0  0  0  0  0  0  0  0  0  0
  143.4120   72.9190  220.3330 N   0  0  0  0  0  0  0  0  0  0  0  0
  143.5770   71.7060  219.5210 C   0  0  0  0  0  0  0  0  0  0  0  0
  144.9220   71.7120  218.7890 C   0  0  0  0  0  0  0  0  0  0  0  0
  145.9930   72.1190  219.7040 N   0  0  0  0  0  0  0  0  0  0  0  0
  145.8330   73.5050  220.1850 C   0  0  0  0  0  0  0  0  0  0  0  0
  144.3760   74.0190  220.1860 C   0  0  0  0  0  0  0  0  0  0  0  0
  141.8010   72.1000  221.9560 N   0  0  0  0  0  0  0  0  0  0  0  0
  140.6770   72.2460  222.7050 C   0  0  0  0  0  0  0  0  0  0  0  0
  140.2530   71.2020  223.6080 N   0  0  0  0  0  0  0  0  0  0  0  0
  139.0070   70.4630  223.3510 C   0  0  0  0  0  0  0  0  0  0  0  0
  139.1510   69.0060  223.7800 C   0  0  0  0  0  0  0  0  0  0  0  0
  139.5820   68.9310  225.2130 C   0  0  0  0  0  0  0  0  0  0  0  0
  139.1610   67.8650  226.0250 C   0  0  0  0  0  0  0  0  0  0  0  0
  139.5910   67.7770  227.3500 C   0  0  0  0  0  0  0  0  0  0  0  0
  140.4560   68.7410  227.8710 C   0  0  0  0  0  0  0  0  0  0  0  0
  140.8940   69.7960  227.0660 C   0  0  0  0  0  0  0  0  0  0  0  0
  140.4600   69.9030  225.7350 C   0  0  0  0  0  0  0  0  0  0  0  0
  140.9900   71.0250  224.8730 C   0  0  0  0  0  0  0  0  0  0  0  0
  139.9540   73.3920  222.5980 N   0  0  0  0  0  0  0  0  0  0  0  0
  139.3370   76.1650  220.2480 C   0  0  0  0  0  0  0  0  0  0  0  0
  139.1770   77.6780  220.3440 C   0  0  0  0  0  0  0  0  0  0  0  0
  139.7820   78.0990  221.6810 C   0  0  0  0  0  0  0  0  0  0  0  0
  140.3210   76.8320  222.3330 C   0  0  0  0  0  0  0  0  0  0  0  0
  138.4020   74.7460  222.9590 H   0  0  0  0  0  0  0  0  0  0  0  0
  143.5291   70.8248  220.1776 H   0  0  0  0  0  0  0  0  0  0  0  0
  142.7717   71.6742  218.7724 H   0  0  0  0  0  0  0  0  0  0  0  0
  145.1333   70.7018  218.4083 H   0  0  0  0  0  0  0  0  0  0  0  0
  144.8731   72.4250  217.9528 H   0  0  0  0  0  0  0  0  0  0  0  0
  145.9920   71.4710  220.5280 H   0  0  0  0  0  0  0  0  0  0  0  0
  146.2166   73.5577  221.2146 H   0  0  0  0  0  0  0  0  0  0  0  0
  146.3899   74.1452  219.4850 H   0  0  0  0  0  0  0  0  0  0  0  0
  144.2462   74.7211  221.0228 H   0  0  0  0  0  0  0  0  0  0  0  0
  144.1865   74.5149  219.2226 H   0  0  0  0  0  0  0  0  0  0  0  0
  138.1870   70.9279  223.9180 H   0  0  0  0  0  0  0  0  0  0  0  0
  138.7897   70.4964  222.2732 H   0  0  0  0  0  0  0  0  0  0  0  0
  138.1837   68.4953  223.6639 H   0  0  0  0  0  0  0  0  0  0  0  0
  139.9097   68.5187  223.1500 H   0  0  0  0  0  0  0  0  0  0  0  0
  138.4895   67.0962  225.6149 H   0  0  0  0  0  0  0  0  0  0  0  0
  139.2478   66.9467  227.9847 H   0  0  0  0  0  0  0  0  0  0  0  0
  140.7930   68.6701  228.9157 H   0  0  0  0  0  0  0  0  0  0  0  0
  141.5834   70.5477  227.4779 H   0  0  0  0  0  0  0  0  0  0  0  0
  140.9264   71.9621  225.4456 H   0  0  0  0  0  0  0  0  0  0  0  0
  142.0250   70.7637  224.6073 H   0  0  0  0  0  0  0  0  0  0  0  0
  140.2031   75.9105  219.6194 H   0  0  0  0  0  0  0  0  0  0  0  0
  138.4549   75.6928  219.7909 H   0  0  0  0  0  0  0  0  0  0  0  0
  139.7091   78.1688  219.5158 H   0  0  0  0  0  0  0  0  0  0  0  0
  138.1181   77.9688  220.2797 H   0  0  0  0  0  0  0  0  0  0  0  0
  140.5978   78.8188  221.5186 H   0  0  0  0  0  0  0  0  0  0  0  0
  139.0310   78.5857  222.3206 H   0  0  0  0  0  0  0  0  0  0  0  0
  141.4001   76.7328  222.1442 H   0  0  0  0  0  0  0  0  0  0  0  0
  140.1842   76.8474  223.4243 H   0  0  0  0  0  0  0  0  0  0  0  0
  1  2  1  0
  2  3  1  0
  3  4  2  0
  4  5  1  0
  5  6  1  0
  6  7  1  0
  7  8  1  0
  8  9  1  0
  9 10  1  0
 10 11  1  0
  5 12  2  0
 12 13  1  0
 13 14  1  0
 14 15  1  0
 15 16  1  0
 16 17  1  0
 17 18  2  0
 18 19  1  0
 19 20  2  0
 20 21  1  0
 21 22  2  0
 22 23  1  0
 13 24  2  0
  2 25  1  0
 25 26  1  0
 26 27  1  0
 27 28  1  0
 28  2  1  0
 24  3  1  0
 11  6  1  0
 23 14  1  0
 22 17  1  0
  1 29  1  0
  7 30  1  0
  7 31  1  0
  8 32  1  0
  8 33  1  0
  9 34  1  0
 10 35  1  0
 10 36  1  0
 11 37  1  0
 11 38  1  0
 15 39  1  0
 15 40  1  0
 16 41  1  0
 16 42  1  0
 18 43  1  0
 19 44  1  0
 20 45  1  0
 21 46  1  0
 23 47  1  0
 23 48  1  0
 25 49  1  0
 25 50  1  0
 26 51  1  0
 26 52  1  0
 27 53  1  0
 27 54  1  0
 28 55  1  0
 28 56  1  0
M  END
>  <UniqueID>  (14) 
510

>  <SMILES>  (14) 
OC1(c2nc(N3CCNCC3)nc(N3CCc4ccccc4C3)n2)CCCC1

>  <Energy>  (14) 
63.84610375342874

>  <Genealogy>  (14) 
OC1(c2nc(N3CCNCC3)nc(N3CCc4ccccc4C3)n2)CCCC1 (3D coordinates assigned)
OC1(c2nc(N3CCNCC3)nc(N3CCc4ccccc4C3)n2)CCCC1 (nonaromatic ring conformer: 63.84610375342874 kcal/mol)

>  <smiles>  (14) 
OC1(c2nc(N3CCNCC3)nc(N3CCc4ccccc4C3)n2)CCCC1

>  <score_type>  (14) 
oracle

>  <origin>  (14) 
autodockgpu

>  <m_score__min__energy>  (14) 
-8.8599999999999994

>  <m_primary>  (14) 
energy

>  <meeko>  (14) 
{"free_energy": -8.85, "intermolecular_energy": -10.04, "internal_energy": -1.5, "cluster_size": 20, "cluster_id": 1, "rank_in_cluster": 18}

>  <energy>  (14) 
-8.85

>  <cluster_rmsd>  (14) 
0.04

>  <rmsd>  (14) 
271.09

>  <cluster>  (14) 
1

$$$$
AUISRQYXECVJTM-UHFFFAOYNA-N
     RDKit          3D

 56 60  0  0  0  0  0  0  0  0999 V2000
  138.3140   75.5360  222.3730 O   0  0  0  0  0  0  0  0  0  0  0  0
  139.5450   75.6970  221.7100 C   0  0  0  0  0  0  0  0  0  0  0  0
  140.3290   74.4000  221.7610 C   0  0  0  0  0  0  0  0  0  0  0  0
  141.4700   74.2580  221.0380 N   0  0  0  0  0  0  0  0  0  0  0  0
  142.2090   73.1220  221.1250 C   0  0  0  0  0  0  0  0  0  0  0  0
  143.4130   72.9660  220.3440 N   0  0  0  0  0  0  0  0  0  0  0  0
  143.5840   71.7590  219.5250 C   0  0  0  0  0  0  0  0  0  0  0  0
  144.9290   71.7760  218.7940 C   0  0  0  0  0  0  0  0  0  0  0  0
  145.9980   72.1820  219.7120 N   0  0  0  0  0  0  0  0  0  0  0  0
  145.8310   73.5640  220.2020 C   0  0  0  0  0  0  0  0  0  0  0  0
  144.3720   74.0720  220.2050 C   0  0  0  0  0  0  0  0  0  0  0  0
  141.8050   72.1300  221.9620 N   0  0  0  0  0  0  0  0  0  0  0  0
  140.6790   72.2660  222.7110 C   0  0  0  0  0  0  0  0  0  0  0  0
  140.2600   71.2160  223.6080 N   0  0  0  0  0  0  0  0  0  0  0  0
  139.0120   70.4800  223.3520 C   0  0  0  0  0  0  0  0  0  0  0  0
  139.1560   69.0200  223.7680 C   0  0  0  0  0  0  0  0  0  0  0  0
  139.5970   68.9320  225.1980 C   0  0  0  0  0  0  0  0  0  0  0  0
  139.1790   67.8590  226.0020 C   0  0  0  0  0  0  0  0  0  0  0  0
  139.6170   67.7590  227.3240 C   0  0  0  0  0  0  0  0  0  0  0  0
  140.4870   68.7180  227.8480 C   0  0  0  0  0  0  0  0  0  0  0  0
  140.9210   69.7800  227.0500 C   0  0  0  0  0  0  0  0  0  0  0  0
  140.4790   69.8980  225.7220 C   0  0  0  0  0  0  0  0  0  0  0  0
  141.0050   71.0270  224.8670 C   0  0  0  0  0  0  0  0  0  0  0  0
  139.9510   73.4100  222.6100 N   0  0  0  0  0  0  0  0  0  0  0  0
  139.3170   76.1900  220.2760 C   0  0  0  0  0  0  0  0  0  0  0  0
  139.1500   77.7030  220.3770 C   0  0  0  0  0  0  0  0  0  0  0  0
  139.7570   78.1210  221.7140 C   0  0  0  0  0  0  0  0  0  0  0  0
  140.3050   76.8550  222.3590 C   0  0  0  0  0  0  0  0  0  0  0  0
  138.4080   74.7780  223.0090 H   0  0  0  0  0  0  0  0  0  0  0  0
  143.5400   70.8736  220.1762 H   0  0  0  0  0  0  0  0  0  0  0  0
  142.7792   71.7278  218.7758 H   0  0  0  0  0  0  0  0  0  0  0  0
  145.1451   70.7693  218.4068 H   0  0  0  0  0  0  0  0  0  0  0  0
  144.8771   72.4944  217.9626 H   0  0  0  0  0  0  0  0  0  0  0  0
  145.9990   71.5290  220.5320 H   0  0  0  0  0  0  0  0  0  0  0  0
  146.2132   73.6115  221.2324 H   0  0  0  0  0  0  0  0  0  0  0  0
  146.3856   74.2111  219.5065 H   0  0  0  0  0  0  0  0  0  0  0  0
  144.2383   74.7680  221.0462 H   0  0  0  0  0  0  0  0  0  0  0  0
  144.1809   74.5739  219.2450 H   0  0  0  0  0  0  0  0  0  0  0  0
  138.1956   70.9411  223.9273 H   0  0  0  0  0  0  0  0  0  0  0  0
  138.7894   70.5221  222.2756 H   0  0  0  0  0  0  0  0  0  0  0  0
  138.1869   68.5122  223.6544 H   0  0  0  0  0  0  0  0  0  0  0  0
  139.9095   68.5366  223.1289 H   0  0  0  0  0  0  0  0  0  0  0  0
  138.5043   67.0948  225.5888 H   0  0  0  0  0  0  0  0  0  0  0  0
  139.2765   66.9238  227.9537 H   0  0  0  0  0  0  0  0  0  0  0  0
  140.8308   68.6372  228.8898 H   0  0  0  0  0  0  0  0  0  0  0  0
  141.6129   70.5280  227.4644 H   0  0  0  0  0  0  0  0  0  0  0  0
  140.9461   71.9590  225.4483 H   0  0  0  0  0  0  0  0  0  0  0  0
  142.0380   70.7672  224.5926 H   0  0  0  0  0  0  0  0  0  0  0  0
  140.1822   75.9417  219.6437 H   0  0  0  0  0  0  0  0  0  0  0  0
  138.4354   75.7154  219.8206 H   0  0  0  0  0  0  0  0  0  0  0  0
  139.6776   78.1991  219.5491 H   0  0  0  0  0  0  0  0  0  0  0  0
  138.0898   77.9899  220.3159 H   0  0  0  0  0  0  0  0  0  0  0  0
  140.5683   78.8460  221.5522 H   0  0  0  0  0  0  0  0  0  0  0  0
  139.0050   78.6003  222.3581 H   0  0  0  0  0  0  0  0  0  0  0  0
  141.3838   76.7620  222.1653 H   0  0  0  0  0  0  0  0  0  0  0  0
  140.1727   76.8659  223.4510 H   0  0  0  0  0  0  0  0  0  0  0  0
  1  2  1  0
  2  3  1  0
  3  4  2  0
  4  5  1  0
  5  6  1  0
  6  7  1  0
  7  8  1  0
  8  9  1  0
  9 10  1  0
 10 11  1  0
  5 12  2  0
 12 13  1  0
 13 14  1  0
 14 15  1  0
 15 16  1  0
 16 17  1  0
 17 18  2  0
 18 19  1  0
 19 20  2  0
 20 21  1  0
 21 22  2  0
 22 23  1  0
 13 24  2  0
  2 25  1  0
 25 26  1  0
 26 27  1  0
 27 28  1  0
 28  2  1  0
 24  3  1  0
 11  6  1  0
 23 14  1  0
 22 17  1  0
  1 29  1  0
  7 30  1  0
  7 31  1  0
  8 32  1  0
  8 33  1  0
  9 34  1  0
 10 35  1  0
 10 36  1  0
 11 37  1  0
 11 38  1  0
 15 39  1  0
 15 40  1  0
 16 41  1  0
 16 42  1  0
 18 43  1  0
 19 44  1  0
 20 45  1  0
 21 46  1  0
 23 47  1  0
 23 48  1  0
 25 49  1  0
 25 50  1  0
 26 51  1  0
 26 52  1  0
 27 53  1  0
 27 54  1  0
 28 55  1  0
 28 56  1  0
M  END
>  <UniqueID>  (15) 
510

>  <SMILES>  (15) 
OC1(c2nc(N3CCNCC3)nc(N3CCc4ccccc4C3)n2)CCCC1

>  <Energy>  (15) 
63.84610375342874

>  <Genealogy>  (15) 
OC1(c2nc(N3CCNCC3)nc(N3CCc4ccccc4C3)n2)CCCC1 (3D coordinates assigned)
OC1(c2nc(N3CCNCC3)nc(N3CCc4ccccc4C3)n2)CCCC1 (nonaromatic ring conformer: 63.84610375342874 kcal/mol)

>  <smiles>  (15) 
OC1(c2nc(N3CCNCC3)nc(N3CCc4ccccc4C3)n2)CCCC1

>  <score_type>  (15) 
oracle

>  <origin>  (15) 
autodockgpu

>  <m_score__min__energy>  (15) 
-8.8599999999999994

>  <m_primary>  (15) 
energy

>  <meeko>  (15) 
{"free_energy": -8.85, "intermolecular_energy": -10.05, "internal_energy": -1.5, "cluster_size": 20, "cluster_id": 1, "rank_in_cluster": 14}

>  <energy>  (15) 
-8.85

>  <cluster_rmsd>  (15) 
0.05

>  <rmsd>  (15) 
271.09

>  <cluster>  (15) 
1

$$$$
AUISRQYXECVJTM-UHFFFAOYNA-N
     RDKit          3D

 56 60  0  0  0  0  0  0  0  0999 V2000
  138.3150   75.5330  222.3860 O   0  0  0  0  0  0  0  0  0  0  0  0
  139.5390   75.6880  221.7070 C   0  0  0  0  0  0  0  0  0  0  0  0
  140.3220   74.3900  221.7600 C   0  0  0  0  0  0  0  0  0  0  0  0
  141.4590   74.2440  221.0300 N   0  0  0  0  0  0  0  0  0  0  0  0
  142.1970   73.1070  221.1180 C   0  0  0  0  0  0  0  0  0  0  0  0
  143.3950   72.9470  220.3300 N   0  0  0  0  0  0  0  0  0  0  0  0
  143.5440   71.7520  219.4880 C   0  0  0  0  0  0  0  0  0  0  0  0
  144.8860   71.7610  218.7530 C   0  0  0  0  0  0  0  0  0  0  0  0
  145.9650   72.1320  219.6740 N   0  0  0  0  0  0  0  0  0  0  0  0
  145.8220   73.5070  220.1900 C   0  0  0  0  0  0  0  0  0  0  0  0
  144.3720   74.0390  220.2090 C   0  0  0  0  0  0  0  0  0  0  0  0
  141.7970   72.1200  221.9630 N   0  0  0  0  0  0  0  0  0  0  0  0
  140.6770   72.2610  222.7190 C   0  0  0  0  0  0  0  0  0  0  0  0
  140.2630   71.2160  223.6240 N   0  0  0  0  0  0  0  0  0  0  0  0
  139.0150   70.4760  223.3780 C   0  0  0  0  0  0  0  0  0  0  0  0
  139.1640   69.0190  223.8030 C   0  0  0  0  0  0  0  0  0  0  0  0
  139.6100   68.9420  225.2320 C   0  0  0  0  0  0  0  0  0  0  0  0
  139.1970   67.8730  226.0450 C   0  0  0  0  0  0  0  0  0  0  0  0
  139.6400   67.7830  227.3660 C   0  0  0  0  0  0  0  0  0  0  0  0
  140.5100   68.7470  227.8800 C   0  0  0  0  0  0  0  0  0  0  0  0
  140.9400   69.8040  227.0730 C   0  0  0  0  0  0  0  0  0  0  0  0
  140.4920   69.9130  225.7470 C   0  0  0  0  0  0  0  0  0  0  0  0
  141.0130   71.0360  224.8820 C   0  0  0  0  0  0  0  0  0  0  0  0
  139.9490   73.4050  222.6170 N   0  0  0  0  0  0  0  0  0  0  0  0
  139.2950   76.1690  220.2720 C   0  0  0  0  0  0  0  0  0  0  0  0
  139.1300   77.6820  220.3620 C   0  0  0  0  0  0  0  0  0  0  0  0
  139.7530   78.1110  221.6890 C   0  0  0  0  0  0  0  0  0  0  0  0
  140.3070   76.8500  222.3380 C   0  0  0  0  0  0  0  0  0  0  0  0
  138.3720   74.7040  222.9310 H   0  0  0  0  0  0  0  0  0  0  0  0
  143.4880   70.8556  220.1231 H   0  0  0  0  0  0  0  0  0  0  0  0
  142.7363   71.7473  218.7413 H   0  0  0  0  0  0  0  0  0  0  0  0
  145.0842   70.7584  218.3461 H   0  0  0  0  0  0  0  0  0  0  0  0
  144.8429   72.4961  217.9358 H   0  0  0  0  0  0  0  0  0  0  0  0
  145.9580   71.4630  220.4810 H   0  0  0  0  0  0  0  0  0  0  0  0
  146.2091   73.5292  221.2194 H   0  0  0  0  0  0  0  0  0  0  0  0
  146.3839   74.1576  219.5037 H   0  0  0  0  0  0  0  0  0  0  0  0
  144.2532   74.7204  221.0644 H   0  0  0  0  0  0  0  0  0  0  0  0
  144.1859   74.5628  219.2598 H   0  0  0  0  0  0  0  0  0  0  0  0
  138.2002   70.9393  223.9538 H   0  0  0  0  0  0  0  0  0  0  0  0
  138.7874   70.5108  222.3024 H   0  0  0  0  0  0  0  0  0  0  0  0
  138.1958   68.5080  223.6961 H   0  0  0  0  0  0  0  0  0  0  0  0
  139.9164   68.5330  223.1645 H   0  0  0  0  0  0  0  0  0  0  0  0
  138.5225   67.1045  225.6394 H   0  0  0  0  0  0  0  0  0  0  0  0
  139.3033   66.9516  228.0028 H   0  0  0  0  0  0  0  0  0  0  0  0
  140.8572   68.6743  228.9212 H   0  0  0  0  0  0  0  0  0  0  0  0
  141.6336   70.5549  227.4792 H   0  0  0  0  0  0  0  0  0  0  0  0
  140.9554   71.9720  225.4570 H   0  0  0  0  0  0  0  0  0  0  0  0
  142.0450   70.7747  224.6051 H   0  0  0  0  0  0  0  0  0  0  0  0
  140.1528   75.9149  219.6320 H   0  0  0  0  0  0  0  0  0  0  0  0
  138.4079   75.6911  219.8307 H   0  0  0  0  0  0  0  0  0  0  0  0
  139.6483   78.1708  219.5238 H   0  0  0  0  0  0  0  0  0  0  0  0
  138.0694   77.9690  220.3107 H   0  0  0  0  0  0  0  0  0  0  0  0
  140.5630   78.8338  221.5118 H   0  0  0  0  0  0  0  0  0  0  0  0
  139.0090   78.5966  222.3376 H   0  0  0  0  0  0  0  0  0  0  0  0
  141.3835   76.7544  222.1331 H   0  0  0  0  0  0  0  0  0  0  0  0
  140.1870   76.8698  223.4313 H   0  0  0  0  0  0  0  0  0  0  0  0
  1  2  1  0
  2  3  1  0
  3  4  2  0
  4  5  1  0
  5  6  1  0
  6  7  1  0
  7  8  1  0
  8  9  1  0
  9 10  1  0
 10 11  1  0
  5 12  2  0
 12 13  1  0
 13 14  1  0
 14 15  1  0
 15 16  1  0
 16 17  1  0
 17 18  2  0
 18 19  1  0
 19 20  2  0
 20 21  1  0
 21 22  2  0
 22 23  1  0
 13 24  2  0
  2 25  1  0
 25 26  1  0
 26 27  1  0
 27 28  1  0
 28  2  1  0
 24  3  1  0
 11  6  1  0
 23 14  1  0
 22 17  1  0
  1 29  1  0
  7 30  1  0
  7 31  1  0
  8 32  1  0
  8 33  1  0
  9 34  1  0
 10 35  1  0
 10 36  1  0
 11 37  1  0
 11 38  1  0
 15 39  1  0
 15 40  1  0
 16 41  1  0
 16 42  1  0
 18 43  1  0
 19 44  1  0
 20 45  1  0
 21 46  1  0
 23 47  1  0
 23 48  1  0
 25 49  1  0
 25 50  1  0
 26 51  1  0
 26 52  1  0
 27 53  1  0
 27 54  1  0
 28 55  1  0
 28 56  1  0
M  END
>  <UniqueID>  (16) 
510

>  <SMILES>  (16) 
OC1(c2nc(N3CCNCC3)nc(N3CCc4ccccc4C3)n2)CCCC1

>  <Energy>  (16) 
63.84610375342874

>  <Genealogy>  (16) 
OC1(c2nc(N3CCNCC3)nc(N3CCc4ccccc4C3)n2)CCCC1 (3D coordinates assigned)
OC1(c2nc(N3CCNCC3)nc(N3CCc4ccccc4C3)n2)CCCC1 (nonaromatic ring conformer: 63.84610375342874 kcal/mol)

>  <smiles>  (16) 
OC1(c2nc(N3CCNCC3)nc(N3CCc4ccccc4C3)n2)CCCC1

>  <score_type>  (16) 
oracle

>  <origin>  (16) 
autodockgpu

>  <m_score__min__energy>  (16) 
-8.8599999999999994

>  <m_primary>  (16) 
energy

>  <meeko>  (16) 
{"free_energy": -8.86, "intermolecular_energy": -10.05, "internal_energy": -1.5, "cluster_size": 20, "cluster_id": 1, "rank_in_cluster": 8}

>  <energy>  (16) 
-8.85

>  <cluster_rmsd>  (16) 
0.03

>  <rmsd>  (16) 
271.1

>  <cluster>  (16) 
1

$$$$
AUISRQYXECVJTM-UHFFFAOYNA-N
     RDKit          3D

 56 60  0  0  0  0  0  0  0  0999 V2000
  138.3010   75.5480  222.3910 O   0  0  0  0  0  0  0  0  0  0  0  0
  139.5260   75.7130  221.7180 C   0  0  0  0  0  0  0  0  0  0  0  0
  140.3180   74.4210  221.7680 C   0  0  0  0  0  0  0  0  0  0  0  0
  141.4590   74.2850  221.0440 N   0  0  0  0  0  0  0  0  0  0  0  0
  142.2040   73.1530  221.1290 C   0  0  0  0  0  0  0  0  0  0  0  0
  143.4080   73.0050  220.3470 N   0  0  0  0  0  0  0  0  0  0  0  0
  143.5670   71.8180  219.4960 C   0  0  0  0  0  0  0  0  0  0  0  0
  144.9140   71.8390  218.7690 C   0  0  0  0  0  0  0  0  0  0  0  0
  145.9850   72.2080  219.6990 N   0  0  0  0  0  0  0  0  0  0  0  0
  145.8330   73.5790  220.2250 C   0  0  0  0  0  0  0  0  0  0  0  0
  144.3800   74.1030  220.2390 C   0  0  0  0  0  0  0  0  0  0  0  0
  141.8070   72.1590  221.9670 N   0  0  0  0  0  0  0  0  0  0  0  0
  140.6810   72.2890  222.7170 C   0  0  0  0  0  0  0  0  0  0  0  0
  140.2700   71.2350  223.6140 N   0  0  0  0  0  0  0  0  0  0  0  0
  139.0290   70.4880  223.3560 C   0  0  0  0  0  0  0  0  0  0  0  0
  139.1850   69.0300  223.7750 C   0  0  0  0  0  0  0  0  0  0  0  0
  139.6230   68.9480  225.2060 C   0  0  0  0  0  0  0  0  0  0  0  0
  139.2130   67.8720  226.0110 C   0  0  0  0  0  0  0  0  0  0  0  0
  139.6480   67.7780  227.3340 C   0  0  0  0  0  0  0  0  0  0  0  0
  140.5070   68.7460  227.8580 C   0  0  0  0  0  0  0  0  0  0  0  0
  140.9340   69.8100  227.0600 C   0  0  0  0  0  0  0  0  0  0  0  0
  140.4940   69.9230  225.7310 C   0  0  0  0  0  0  0  0  0  0  0  0
  141.0130   71.0550  224.8760 C   0  0  0  0  0  0  0  0  0  0  0  0
  139.9470   73.4280  222.6170 N   0  0  0  0  0  0  0  0  0  0  0  0
  139.2850   76.2000  220.2840 C   0  0  0  0  0  0  0  0  0  0  0  0
  139.1100   77.7120  220.3810 C   0  0  0  0  0  0  0  0  0  0  0  0
  139.7250   78.1380  221.7120 C   0  0  0  0  0  0  0  0  0  0  0  0
  140.2840   76.8770  222.3580 C   0  0  0  0  0  0  0  0  0  0  0  0
  138.3950   74.7740  223.0070 H   0  0  0  0  0  0  0  0  0  0  0  0
  143.5110   70.9160  220.1231 H   0  0  0  0  0  0  0  0  0  0  0  0
  142.7638   71.8162  218.7445 H   0  0  0  0  0  0  0  0  0  0  0  0
  145.1195   70.8405  218.3557 H   0  0  0  0  0  0  0  0  0  0  0  0
  144.8723   72.5800  217.9571 H   0  0  0  0  0  0  0  0  0  0  0  0
  145.9770   71.5340  220.5010 H   0  0  0  0  0  0  0  0  0  0  0  0
  146.2139   73.5952  221.2568 H   0  0  0  0  0  0  0  0  0  0  0  0
  146.3963   74.2378  219.5478 H   0  0  0  0  0  0  0  0  0  0  0  0
  144.2525   74.7780  221.0981 H   0  0  0  0  0  0  0  0  0  0  0  0
  144.1966   74.6320  219.2921 H   0  0  0  0  0  0  0  0  0  0  0  0
  138.2072   70.9430  223.9284 H   0  0  0  0  0  0  0  0  0  0  0  0
  138.8085   70.5265  222.2790 H   0  0  0  0  0  0  0  0  0  0  0  0
  138.2207   68.5134  223.6597 H   0  0  0  0  0  0  0  0  0  0  0  0
  139.9446   68.5524  223.1386 H   0  0  0  0  0  0  0  0  0  0  0  0
  138.5467   67.1008  225.5971 H   0  0  0  0  0  0  0  0  0  0  0  0
  139.3138   66.9407  227.9642 H   0  0  0  0  0  0  0  0  0  0  0  0
  140.8481   68.6706  228.9011 H   0  0  0  0  0  0  0  0  0  0  0  0
  141.6191   70.5640  227.4750 H   0  0  0  0  0  0  0  0  0  0  0  0
  140.9440   71.9875  225.4554 H   0  0  0  0  0  0  0  0  0  0  0  0
  142.0493   70.8041  224.6055 H   0  0  0  0  0  0  0  0  0  0  0  0
  140.1471   75.9545  219.6464 H   0  0  0  0  0  0  0  0  0  0  0  0
  138.4029   75.7188  219.8365 H   0  0  0  0  0  0  0  0  0  0  0  0
  139.6283   78.2083  219.5473 H   0  0  0  0  0  0  0  0  0  0  0  0
  138.0478   77.9926  220.3270 H   0  0  0  0  0  0  0  0  0  0  0  0
  140.5315   78.8663  221.5414 H   0  0  0  0  0  0  0  0  0  0  0  0
  138.9755   78.6161  222.3598 H   0  0  0  0  0  0  0  0  0  0  0  0
  141.3620   76.7890  222.1577 H   0  0  0  0  0  0  0  0  0  0  0  0
  140.1588   76.8910  223.4508 H   0  0  0  0  0  0  0  0  0  0  0  0
  1  2  1  0
  2  3  1  0
  3  4  2  0
  4  5  1  0
  5  6  1  0
  6  7  1  0
  7  8  1  0
  8  9  1  0
  9 10  1  0
 10 11  1  0
  5 12  2  0
 12 13  1  0
 13 14  1  0
 14 15  1  0
 15 16  1  0
 16 17  1  0
 17 18  2  0
 18 19  1  0
 19 20  2  0
 20 21  1  0
 21 22  2  0
 22 23  1  0
 13 24  2  0
  2 25  1  0
 25 26  1  0
 26 27  1  0
 27 28  1  0
 28  2  1  0
 24  3  1  0
 11  6  1  0
 23 14  1  0
 22 17  1  0
  1 29  1  0
  7 30  1  0
  7 31  1  0
  8 32  1  0
  8 33  1  0
  9 34  1  0
 10 35  1  0
 10 36  1  0
 11 37  1  0
 11 38  1  0
 15 39  1  0
 15 40  1  0
 16 41  1  0
 16 42  1  0
 18 43  1  0
 19 44  1  0
 20 45  1  0
 21 46  1  0
 23 47  1  0
 23 48  1  0
 25 49  1  0
 25 50  1  0
 26 51  1  0
 26 52  1  0
 27 53  1  0
 27 54  1  0
 28 55  1  0
 28 56  1  0
M  END
>  <UniqueID>  (17) 
510

>  <SMILES>  (17) 
OC1(c2nc(N3CCNCC3)nc(N3CCc4ccccc4C3)n2)CCCC1

>  <Energy>  (17) 
63.84610375342874

>  <Genealogy>  (17) 
OC1(c2nc(N3CCNCC3)nc(N3CCc4ccccc4C3)n2)CCCC1 (3D coordinates assigned)
OC1(c2nc(N3CCNCC3)nc(N3CCc4ccccc4C3)n2)CCCC1 (nonaromatic ring conformer: 63.84610375342874 kcal/mol)

>  <smiles>  (17) 
OC1(c2nc(N3CCNCC3)nc(N3CCc4ccccc4C3)n2)CCCC1

>  <score_type>  (17) 
oracle

>  <origin>  (17) 
autodockgpu

>  <m_score__min__energy>  (17) 
-8.8599999999999994

>  <m_primary>  (17) 
energy

>  <meeko>  (17) 
{"free_energy": -8.86, "intermolecular_energy": -10.05, "internal_energy": -1.5, "cluster_size": 20, "cluster_id": 1, "rank_in_cluster": 5}

>  <energy>  (17) 
-8.85

>  <cluster_rmsd>  (17) 
0.05

>  <rmsd>  (17) 
271.11

>  <cluster>  (17) 
1

$$$$
AUISRQYXECVJTM-UHFFFAOYNA-N
     RDKit          3D

 56 60  0  0  0  0  0  0  0  0999 V2000
  138.3260   75.5170  222.3420 O   0  0  0  0  0  0  0  0  0  0  0  0
  139.5580   75.6730  221.6800 C   0  0  0  0  0  0  0  0  0  0  0  0
  140.3440   74.3780  221.7440 C   0  0  0  0  0  0  0  0  0  0  0  0
  141.4850   74.2310  221.0220 N   0  0  0  0  0  0  0  0  0  0  0  0
  142.2260   73.0960  221.1200 C   0  0  0  0  0  0  0  0  0  0  0  0
  143.4300   72.9350  220.3410 N   0  0  0  0  0  0  0  0  0  0  0  0
  143.5950   71.7270  219.5220 C   0  0  0  0  0  0  0  0  0  0  0  0
  144.9410   71.7370  218.7920 C   0  0  0  0  0  0  0  0  0  0  0  0
  146.0110   72.1380  219.7110 N   0  0  0  0  0  0  0  0  0  0  0  0
  145.8500   73.5200  220.2010 C   0  0  0  0  0  0  0  0  0  0  0  0
  144.3940   74.0360  220.2030 C   0  0  0  0  0  0  0  0  0  0  0  0
  141.8230   72.1120  221.9670 N   0  0  0  0  0  0  0  0  0  0  0  0
  140.6970   72.2550  222.7150 C   0  0  0  0  0  0  0  0  0  0  0  0
  140.2800   71.2130  223.6230 N   0  0  0  0  0  0  0  0  0  0  0  0
  139.0300   70.4770  223.3780 C   0  0  0  0  0  0  0  0  0  0  0  0
  139.1730   69.0200  223.8060 C   0  0  0  0  0  0  0  0  0  0  0  0
  139.6200   68.9440  225.2350 C   0  0  0  0  0  0  0  0  0  0  0  0
  139.2030   67.8790  226.0510 C   0  0  0  0  0  0  0  0  0  0  0  0
  139.6460   67.7890  227.3720 C   0  0  0  0  0  0  0  0  0  0  0  0
  140.5190   68.7510  227.8830 C   0  0  0  0  0  0  0  0  0  0  0  0
  140.9520   69.8050  227.0740 C   0  0  0  0  0  0  0  0  0  0  0  0
  140.5050   69.9130  225.7480 C   0  0  0  0  0  0  0  0  0  0  0  0
  141.0300   71.0330  224.8800 C   0  0  0  0  0  0  0  0  0  0  0  0
  139.9680   73.3960  222.6030 N   0  0  0  0  0  0  0  0  0  0  0  0
  139.3320   76.1540  220.2410 C   0  0  0  0  0  0  0  0  0  0  0  0
  139.1620   77.6660  220.3280 C   0  0  0  0  0  0  0  0  0  0  0  0
  139.7660   78.0980  221.6630 C   0  0  0  0  0  0  0  0  0  0  0  0
  140.3150   76.8380  222.3200 C   0  0  0  0  0  0  0  0  0  0  0  0
  138.4130   74.7510  222.9690 H   0  0  0  0  0  0  0  0  0  0  0  0
  143.5457   70.8418  220.1731 H   0  0  0  0  0  0  0  0  0  0  0  0
  142.7905   71.7000  218.7723 H   0  0  0  0  0  0  0  0  0  0  0  0
  145.1525   70.7291  218.4054 H   0  0  0  0  0  0  0  0  0  0  0  0
  144.8935   72.4552  217.9602 H   0  0  0  0  0  0  0  0  0  0  0  0
  146.0080   71.4840  220.5310 H   0  0  0  0  0  0  0  0  0  0  0  0
  146.2315   73.5652  221.2318 H   0  0  0  0  0  0  0  0  0  0  0  0
  146.4082   74.1643  219.5058 H   0  0  0  0  0  0  0  0  0  0  0  0
  144.2633   74.7325  221.0443 H   0  0  0  0  0  0  0  0  0  0  0  0
  144.2061   74.5396  219.2433 H   0  0  0  0  0  0  0  0  0  0  0  0
  138.2166   70.9445  223.9523 H   0  0  0  0  0  0  0  0  0  0  0  0
  138.8036   70.5103  222.3021 H   0  0  0  0  0  0  0  0  0  0  0  0
  138.2024   68.5131  223.7010 H   0  0  0  0  0  0  0  0  0  0  0  0
  139.9227   68.5293  223.1678 H   0  0  0  0  0  0  0  0  0  0  0  0
  138.5247   67.1129  225.6474 H   0  0  0  0  0  0  0  0  0  0  0  0
  139.3070   66.9598  228.0103 H   0  0  0  0  0  0  0  0  0  0  0  0
  140.8666   68.6793  228.9241 H   0  0  0  0  0  0  0  0  0  0  0  0
  141.6476   70.5547  227.4791 H   0  0  0  0  0  0  0  0  0  0  0  0
  140.9764   71.9703  225.4532 H   0  0  0  0  0  0  0  0  0  0  0  0
  142.0609   70.7675  224.6029 H   0  0  0  0  0  0  0  0  0  0  0  0
  140.1990   75.9019  219.6127 H   0  0  0  0  0  0  0  0  0  0  0  0
  138.4519   75.6740  219.7882 H   0  0  0  0  0  0  0  0  0  0  0  0
  139.6901   78.1556  219.4965 H   0  0  0  0  0  0  0  0  0  0  0  0
  138.1013   77.9499  220.2625 H   0  0  0  0  0  0  0  0  0  0  0  0
  140.5763   78.8230  221.4962 H   0  0  0  0  0  0  0  0  0  0  0  0
  139.0124   78.5823  222.3014 H   0  0  0  0  0  0  0  0  0  0  0  0
  141.3943   76.7451  222.1289 H   0  0  0  0  0  0  0  0  0  0  0  0
  140.1807   76.8582  223.4116 H   0  0  0  0  0  0  0  0  0  0  0  0
  1  2  1  0
  2  3  1  0
  3  4  2  0
  4  5  1  0
  5  6  1  0
  6  7  1  0
  7  8  1  0
  8  9  1  0
  9 10  1  0
 10 11  1  0
  5 12  2  0
 12 13  1  0
 13 14  1  0
 14 15  1  0
 15 16  1  0
 16 17  1  0
 17 18  2  0
 18 19  1  0
 19 20  2  0
 20 21  1  0
 21 22  2  0
 22 23  1  0
 13 24  2  0
  2 25  1  0
 25 26  1  0
 26 27  1  0
 27 28  1  0
 28  2  1  0
 24  3  1  0
 11  6  1  0
 23 14  1  0
 22 17  1  0
  1 29  1  0
  7 30  1  0
  7 31  1  0
  8 32  1  0
  8 33  1  0
  9 34  1  0
 10 35  1  0
 10 36  1  0
 11 37  1  0
 11 38  1  0
 15 39  1  0
 15 40  1  0
 16 41  1  0
 16 42  1  0
 18 43  1  0
 19 44  1  0
 20 45  1  0
 21 46  1  0
 23 47  1  0
 23 48  1  0
 25 49  1  0
 25 50  1  0
 26 51  1  0
 26 52  1  0
 27 53  1  0
 27 54  1  0
 28 55  1  0
 28 56  1  0
M  END
>  <UniqueID>  (18) 
510

>  <SMILES>  (18) 
OC1(c2nc(N3CCNCC3)nc(N3CCc4ccccc4C3)n2)CCCC1

>  <Energy>  (18) 
63.84610375342874

>  <Genealogy>  (18) 
OC1(c2nc(N3CCNCC3)nc(N3CCc4ccccc4C3)n2)CCCC1 (3D coordinates assigned)
OC1(c2nc(N3CCNCC3)nc(N3CCc4ccccc4C3)n2)CCCC1 (nonaromatic ring conformer: 63.84610375342874 kcal/mol)

>  <smiles>  (18) 
OC1(c2nc(N3CCNCC3)nc(N3CCc4ccccc4C3)n2)CCCC1

>  <score_type>  (18) 
oracle

>  <origin>  (18) 
autodockgpu

>  <m_score__min__energy>  (18) 
-8.8599999999999994

>  <m_primary>  (18) 
energy

>  <meeko>  (18) 
{"free_energy": -8.85, "intermolecular_energy": -10.05, "internal_energy": -1.5, "cluster_size": 20, "cluster_id": 1, "rank_in_cluster": 9}

>  <energy>  (18) 
-8.85

>  <cluster_rmsd>  (18) 
0.04

>  <rmsd>  (18) 
271.08

>  <cluster>  (18) 
1

$$$$
AUISRQYXECVJTM-UHFFFAOYNA-N
     RDKit          3D

 56 60  0  0  0  0  0  0  0  0999 V2000
  138.3640   75.5460  222.4110 O   0  0  0  0  0  0  0  0  0  0  0  0
  139.5810   75.6920  221.7200 C   0  0  0  0  0  0  0  0  0  0  0  0
  140.3570   74.3900  221.7670 C   0  0  0  0  0  0  0  0  0  0  0  0
  141.4950   74.2410  221.0400 N   0  0  0  0  0  0  0  0  0  0  0  0
  142.2260   73.1000  221.1220 C   0  0  0  0  0  0  0  0  0  0  0  0
  143.4260   72.9380  220.3370 N   0  0  0  0  0  0  0  0  0  0  0  0
  143.6050   71.7120  219.5480 C   0  0  0  0  0  0  0  0  0  0  0  0
  144.9440   71.7250  218.8070 C   0  0  0  0  0  0  0  0  0  0  0  0
  146.0150   72.1650  219.7070 N   0  0  0  0  0  0  0  0  0  0  0  0
  145.8360   73.5570  220.1630 C   0  0  0  0  0  0  0  0  0  0  0  0
  144.3720   74.0490  220.1640 C   0  0  0  0  0  0  0  0  0  0  0  0
  141.8180   72.1100  221.9590 N   0  0  0  0  0  0  0  0  0  0  0  0
  140.6960   72.2530  222.7120 C   0  0  0  0  0  0  0  0  0  0  0  0
  140.2730   71.2040  223.6090 N   0  0  0  0  0  0  0  0  0  0  0  0
  139.0460   70.4410  223.3290 C   0  0  0  0  0  0  0  0  0  0  0  0
  139.2070   68.9880  223.7650 C   0  0  0  0  0  0  0  0  0  0  0  0
  139.6110   68.9250  225.2070 C   0  0  0  0  0  0  0  0  0  0  0  0
  139.1920   67.8520  226.0120 C   0  0  0  0  0  0  0  0  0  0  0  0
  139.5970   67.7750  227.3460 C   0  0  0  0  0  0  0  0  0  0  0  0
  140.4330   68.7560  227.8820 C   0  0  0  0  0  0  0  0  0  0  0  0
  140.8690   69.8170  227.0840 C   0  0  0  0  0  0  0  0  0  0  0  0
  140.4600   69.9130  225.7440 C   0  0  0  0  0  0  0  0  0  0  0  0
  140.9870   71.0420  224.8900 C   0  0  0  0  0  0  0  0  0  0  0  0
  139.9750   73.4010  222.6150 N   0  0  0  0  0  0  0  0  0  0  0  0
  139.3260   76.1730  220.2860 C   0  0  0  0  0  0  0  0  0  0  0  0
  139.1720   77.6880  220.3760 C   0  0  0  0  0  0  0  0  0  0  0  0
  139.8110   78.1140  221.6960 C   0  0  0  0  0  0  0  0  0  0  0  0
  140.3630   76.8500  222.3410 C   0  0  0  0  0  0  0  0  0  0  0  0
  138.4330   74.7360  222.9820 H   0  0  0  0  0  0  0  0  0  0  0  0
  143.5758   70.8433  220.2222 H   0  0  0  0  0  0  0  0  0  0  0  0
  142.7953   71.6525  218.8059 H   0  0  0  0  0  0  0  0  0  0  0  0
  145.1682   70.7114  218.4433 H   0  0  0  0  0  0  0  0  0  0  0  0
  144.8786   72.4218  217.9584 H   0  0  0  0  0  0  0  0  0  0  0  0
  146.0290   71.5330  220.5430 H   0  0  0  0  0  0  0  0  0  0  0  0
  146.2250   73.6348  221.1890 H   0  0  0  0  0  0  0  0  0  0  0  0
  146.3783   74.1922  219.4471 H   0  0  0  0  0  0  0  0  0  0  0  0
  144.2367   74.7642  220.9887 H   0  0  0  0  0  0  0  0  0  0  0  0
  144.1691   74.5244  219.1930 H   0  0  0  0  0  0  0  0  0  0  0  0
  138.2063   70.8923  223.8778 H   0  0  0  0  0  0  0  0  0  0  0  0
  138.8508   70.4673  222.2468 H   0  0  0  0  0  0  0  0  0  0  0  0
  138.2513   68.4600  223.6315 H   0  0  0  0  0  0  0  0  0  0  0  0
  139.9862   68.5121  223.1515 H   0  0  0  0  0  0  0  0  0  0  0  0
  138.5431   67.0705  225.5899 H   0  0  0  0  0  0  0  0  0  0  0  0
  139.2567   66.9398  227.9757 H   0  0  0  0  0  0  0  0  0  0  0  0
  140.7489   68.6938  228.9338 H   0  0  0  0  0  0  0  0  0  0  0  0
  141.5366   70.5816  227.5080 H   0  0  0  0  0  0  0  0  0  0  0  0
  140.8953   71.9790  225.4589 H   0  0  0  0  0  0  0  0  0  0  0  0
  142.0314   70.7979  224.6456 H   0  0  0  0  0  0  0  0  0  0  0  0
  140.1757   75.9123  219.6379 H   0  0  0  0  0  0  0  0  0  0  0  0
  138.4316   75.7005  219.8539 H   0  0  0  0  0  0  0  0  0  0  0  0
  139.6851   78.1724  219.5322 H   0  0  0  0  0  0  0  0  0  0  0  0
  138.1129   77.9822  220.3349 H   0  0  0  0  0  0  0  0  0  0  0  0
  140.6241   78.8311  221.5099 H   0  0  0  0  0  0  0  0  0  0  0  0
  139.0768   78.6053  222.3514 H   0  0  0  0  0  0  0  0  0  0  0  0
  141.4367   76.7469  222.1251 H   0  0  0  0  0  0  0  0  0  0  0  0
  140.2541   76.8723  223.4354 H   0  0  0  0  0  0  0  0  0  0  0  0
  1  2  1  0
  2  3  1  0
  3  4  2  0
  4  5  1  0
  5  6  1  0
  6  7  1  0
  7  8  1  0
  8  9  1  0
  9 10  1  0
 10 11  1  0
  5 12  2  0
 12 13  1  0
 13 14  1  0
 14 15  1  0
 15 16  1  0
 16 17  1  0
 17 18  2  0
 18 19  1  0
 19 20  2  0
 20 21  1  0
 21 22  2  0
 22 23  1  0
 13 24  2  0
  2 25  1  0
 25 26  1  0
 26 27  1  0
 27 28  1  0
 28  2  1  0
 24  3  1  0
 11  6  1  0
 23 14  1  0
 22 17  1  0
  1 29  1  0
  7 30  1  0
  7 31  1  0
  8 32  1  0
  8 33  1  0
  9 34  1  0
 10 35  1  0
 10 36  1  0
 11 37  1  0
 11 38  1  0
 15 39  1  0
 15 40  1  0
 16 41  1  0
 16 42  1  0
 18 43  1  0
 19 44  1  0
 20 45  1  0
 21 46  1  0
 23 47  1  0
 23 48  1  0
 25 49  1  0
 25 50  1  0
 26 51  1  0
 26 52  1  0
 27 53  1  0
 27 54  1  0
 28 55  1  0
 28 56  1  0
M  END
>  <UniqueID>  (19) 
510

>  <SMILES>  (19) 
OC1(c2nc(N3CCNCC3)nc(N3CCc4ccccc4C3)n2)CCCC1

>  <Energy>  (19) 
63.84610375342874

>  <Genealogy>  (19) 
OC1(c2nc(N3CCNCC3)nc(N3CCc4ccccc4C3)n2)CCCC1 (3D coordinates assigned)
OC1(c2nc(N3CCNCC3)nc(N3CCc4ccccc4C3)n2)CCCC1 (nonaromatic ring conformer: 63.84610375342874 kcal/mol)

>  <smiles>  (19) 
OC1(c2nc(N3CCNCC3)nc(N3CCc4ccccc4C3)n2)CCCC1

>  <score_type>  (19) 
oracle

>  <origin>  (19) 
autodockgpu

>  <m_score__min__energy>  (19) 
-8.8599999999999994

>  <m_primary>  (19) 
energy

>  <meeko>  (19) 
{"free_energy": -8.86, "intermolecular_energy": -10.05, "internal_energy": -1.5, "cluster_size": 20, "cluster_id": 1, "rank_in_cluster": 4}

>  <energy>  (19) 
-8.85

>  <cluster_rmsd>  (19) 
0.06

>  <rmsd>  (19) 
271.08

>  <cluster>  (19) 
1

$$$$
AUISRQYXECVJTM-UHFFFAOYNA-N
     RDKit          3D

 56 60  0  0  0  0  0  0  0  0999 V2000
  138.3390   75.5360  222.3490 O   0  0  0  0  0  0  0  0  0  0  0  0
  139.5720   75.6880  221.6860 C   0  0  0  0  0  0  0  0  0  0  0  0
  140.3520   74.3900  221.7500 C   0  0  0  0  0  0  0  0  0  0  0  0
  141.4900   74.2360  221.0240 N   0  0  0  0  0  0  0  0  0  0  0  0
  142.2260   73.0990  221.1210 C   0  0  0  0  0  0  0  0  0  0  0  0
  143.4260   72.9310  220.3370 N   0  0  0  0  0  0  0  0  0  0  0  0
  143.5870   71.7170  219.5260 C   0  0  0  0  0  0  0  0  0  0  0  0
  144.9300   71.7210  218.7900 C   0  0  0  0  0  0  0  0  0  0  0  0
  146.0050   72.1270  219.7010 N   0  0  0  0  0  0  0  0  0  0  0  0
  145.8470   73.5130  220.1830 C   0  0  0  0  0  0  0  0  0  0  0  0
  144.3920   74.0300  220.1880 C   0  0  0  0  0  0  0  0  0  0  0  0
  141.8220   72.1180  221.9710 N   0  0  0  0  0  0  0  0  0  0  0  0
  140.7000   72.2660  222.7230 C   0  0  0  0  0  0  0  0  0  0  0  0
  140.2820   71.2270  223.6330 N   0  0  0  0  0  0  0  0  0  0  0  0
  139.0270   70.4960  223.3950 C   0  0  0  0  0  0  0  0  0  0  0  0
  139.1660   69.0400  223.8250 C   0  0  0  0  0  0  0  0  0  0  0  0
  139.6170   68.9640  225.2520 C   0  0  0  0  0  0  0  0  0  0  0  0
  139.1990   67.9020  226.0700 C   0  0  0  0  0  0  0  0  0  0  0  0
  139.6470   67.8120  227.3900 C   0  0  0  0  0  0  0  0  0  0  0  0
  140.5270   68.7710  227.8970 C   0  0  0  0  0  0  0  0  0  0  0  0
  140.9620   69.8220  227.0850 C   0  0  0  0  0  0  0  0  0  0  0  0
  140.5090   69.9290  225.7590 C   0  0  0  0  0  0  0  0  0  0  0  0
  141.0360   71.0460  224.8890 C   0  0  0  0  0  0  0  0  0  0  0  0
  139.9750   73.4110  222.6110 N   0  0  0  0  0  0  0  0  0  0  0  0
  139.3470   76.1700  220.2480 C   0  0  0  0  0  0  0  0  0  0  0  0
  139.1840   77.6840  220.3360 C   0  0  0  0  0  0  0  0  0  0  0  0
  139.7900   78.1110  221.6710 C   0  0  0  0  0  0  0  0  0  0  0  0
  140.3330   76.8490  222.3280 C   0  0  0  0  0  0  0  0  0  0  0  0
  138.4060   74.7370  222.9360 H   0  0  0  0  0  0  0  0  0  0  0  0
  143.5402   70.8365  220.1837 H   0  0  0  0  0  0  0  0  0  0  0  0
  142.7793   71.6850  218.7799 H   0  0  0  0  0  0  0  0  0  0  0  0
  145.1387   70.7104  218.4091 H   0  0  0  0  0  0  0  0  0  0  0  0
  144.8792   72.4341  217.9540 H   0  0  0  0  0  0  0  0  0  0  0  0
  146.0050   71.4790  220.5260 H   0  0  0  0  0  0  0  0  0  0  0  0
  146.2330   73.5646  221.2118 H   0  0  0  0  0  0  0  0  0  0  0  0
  146.4026   74.1523  219.4811 H   0  0  0  0  0  0  0  0  0  0  0  0
  144.2657   74.7319  221.0255 H   0  0  0  0  0  0  0  0  0  0  0  0
  144.2009   74.5272  219.2256 H   0  0  0  0  0  0  0  0  0  0  0  0
  138.2183   70.9681  223.9722 H   0  0  0  0  0  0  0  0  0  0  0  0
  138.7953   70.5284  222.3202 H   0  0  0  0  0  0  0  0  0  0  0  0
  138.1932   68.5365  223.7238 H   0  0  0  0  0  0  0  0  0  0  0  0
  139.9122   68.5459  223.1854 H   0  0  0  0  0  0  0  0  0  0  0  0
  138.5162   67.1381  225.6698 H   0  0  0  0  0  0  0  0  0  0  0  0
  139.3065   66.9852  228.0307 H   0  0  0  0  0  0  0  0  0  0  0  0
  140.8781   68.6989  228.9370 H   0  0  0  0  0  0  0  0  0  0  0  0
  141.6626   70.5693  227.4859 H   0  0  0  0  0  0  0  0  0  0  0  0
  140.9874   71.9841  225.4613 H   0  0  0  0  0  0  0  0  0  0  0  0
  142.0654   70.7771  224.6097 H   0  0  0  0  0  0  0  0  0  0  0  0
  140.2122   75.9141  219.6188 H   0  0  0  0  0  0  0  0  0  0  0  0
  138.4644   75.6941  219.7957 H   0  0  0  0  0  0  0  0  0  0  0  0
  139.7145   78.1718  219.5050 H   0  0  0  0  0  0  0  0  0  0  0  0
  138.1248   77.9735  220.2704 H   0  0  0  0  0  0  0  0  0  0  0  0
  140.6038   78.8322  221.5047 H   0  0  0  0  0  0  0  0  0  0  0  0
  139.0380   78.5976  222.3095 H   0  0  0  0  0  0  0  0  0  0  0  0
  141.4122   76.7518  222.1384 H   0  0  0  0  0  0  0  0  0  0  0  0
  140.1976   76.8690  223.4195 H   0  0  0  0  0  0  0  0  0  0  0  0
  1  2  1  0
  2  3  1  0
  3  4  2  0
  4  5  1  0
  5  6  1  0
  6  7  1  0
  7  8  1  0
  8  9  1  0
  9 10  1  0
 10 11  1  0
  5 12  2  0
 12 13  1  0
 13 14  1  0
 14 15  1  0
 15 16  1  0
 16 17  1  0
 17 18  2  0
 18 19  1  0
 19 20  2  0
 20 21  1  0
 21 22  2  0
 22 23  1  0
 13 24  2  0
  2 25  1  0
 25 26  1  0
 26 27  1  0
 27 28  1  0
 28  2  1  0
 24  3  1  0
 11  6  1  0
 23 14  1  0
 22 17  1  0
  1 29  1  0
  7 30  1  0
  7 31  1  0
  8 32  1  0
  8 33  1  0
  9 34  1  0
 10 35  1  0
 10 36  1  0
 11 37  1  0
 11 38  1  0
 15 39  1  0
 15 40  1  0
 16 41  1  0
 16 42  1  0
 18 43  1  0
 19 44  1  0
 20 45  1  0
 21 46  1  0
 23 47  1  0
 23 48  1  0
 25 49  1  0
 25 50  1  0
 26 51  1  0
 26 52  1  0
 27 53  1  0
 27 54  1  0
 28 55  1  0
 28 56  1  0
M  END
>  <UniqueID>  (20) 
510

>  <SMILES>  (20) 
OC1(c2nc(N3CCNCC3)nc(N3CCc4ccccc4C3)n2)CCCC1

>  <Energy>  (20) 
63.84610375342874

>  <Genealogy>  (20) 
OC1(c2nc(N3CCNCC3)nc(N3CCc4ccccc4C3)n2)CCCC1 (3D coordinates assigned)
OC1(c2nc(N3CCNCC3)nc(N3CCc4ccccc4C3)n2)CCCC1 (nonaromatic ring conformer: 63.84610375342874 kcal/mol)

>  <smiles>  (20) 
OC1(c2nc(N3CCNCC3)nc(N3CCc4ccccc4C3)n2)CCCC1

>  <score_type>  (20) 
oracle

>  <origin>  (20) 
autodockgpu

>  <m_score__min__energy>  (20) 
-8.8599999999999994

>  <m_primary>  (20) 
energy

>  <meeko>  (20) 
{"free_energy": -8.85, "intermolecular_energy": -10.04, "internal_energy": -1.5, "cluster_size": 20, "cluster_id": 1, "rank_in_cluster": 16}

>  <energy>  (20) 
-8.84

>  <cluster_rmsd>  (20) 
0.06

>  <rmsd>  (20) 
271.09

>  <cluster>  (20) 
1

$$$$
AUISRQYXECVJTM-UHFFFAOYNA-N
     RDKit          3D

 56 60  0  0  0  0  0  0  0  0999 V2000
  138.2880   75.5380  222.3470 O   0  0  0  0  0  0  0  0  0  0  0  0
  139.5150   75.7100  221.6790 C   0  0  0  0  0  0  0  0  0  0  0  0
  140.3140   74.4230  221.7340 C   0  0  0  0  0  0  0  0  0  0  0  0
  141.4600   74.2940  221.0160 N   0  0  0  0  0  0  0  0  0  0  0  0
  142.2120   73.1660  221.1070 C   0  0  0  0  0  0  0  0  0  0  0  0
  143.4210   73.0250  220.3310 N   0  0  0  0  0  0  0  0  0  0  0  0
  143.5780   71.8530  219.4590 C   0  0  0  0  0  0  0  0  0  0  0  0
  144.9300   71.8790  218.7420 C   0  0  0  0  0  0  0  0  0  0  0  0
  145.9970   72.2220  219.6870 N   0  0  0  0  0  0  0  0  0  0  0  0
  145.8500   73.5830  220.2390 C   0  0  0  0  0  0  0  0  0  0  0  0
  144.4010   74.1170  220.2520 C   0  0  0  0  0  0  0  0  0  0  0  0
  141.8170   72.1710  221.9440 N   0  0  0  0  0  0  0  0  0  0  0  0
  140.6870   72.2940  222.6880 C   0  0  0  0  0  0  0  0  0  0  0  0
  140.2770   71.2400  223.5850 N   0  0  0  0  0  0  0  0  0  0  0  0
  139.0280   70.5020  223.3360 C   0  0  0  0  0  0  0  0  0  0  0  0
  139.1790   69.0410  223.7460 C   0  0  0  0  0  0  0  0  0  0  0  0
  139.6310   68.9490  225.1720 C   0  0  0  0  0  0  0  0  0  0  0  0
  139.2220   67.8730  225.9760 C   0  0  0  0  0  0  0  0  0  0  0  0
  139.6700   67.7690  227.2950 C   0  0  0  0  0  0  0  0  0  0  0  0
  140.5420   68.7280  227.8140 C   0  0  0  0  0  0  0  0  0  0  0  0
  140.9680   69.7930  227.0170 C   0  0  0  0  0  0  0  0  0  0  0  0
  140.5150   69.9150  225.6930 C   0  0  0  0  0  0  0  0  0  0  0  0
  141.0320   71.0480  224.8370 C   0  0  0  0  0  0  0  0  0  0  0  0
  139.9450   73.4290  222.5830 N   0  0  0  0  0  0  0  0  0  0  0  0
  139.2760   76.1920  220.2430 C   0  0  0  0  0  0  0  0  0  0  0  0
  139.0910   77.7030  220.3360 C   0  0  0  0  0  0  0  0  0  0  0  0
  139.6990   78.1360  221.6680 C   0  0  0  0  0  0  0  0  0  0  0  0
  140.2630   76.8800  222.3190 C   0  0  0  0  0  0  0  0  0  0  0  0
  138.3780   74.7540  222.9510 H   0  0  0  0  0  0  0  0  0  0  0  0
  143.5118   70.9398  220.0686 H   0  0  0  0  0  0  0  0  0  0  0  0
  142.7799   71.8703  218.7022 H   0  0  0  0  0  0  0  0  0  0  0  0
  145.1316   70.8875  218.3104 H   0  0  0  0  0  0  0  0  0  0  0  0
  144.8992   72.6362  217.9447 H   0  0  0  0  0  0  0  0  0  0  0  0
  145.9780   71.5320  220.4760 H   0  0  0  0  0  0  0  0  0  0  0  0
  146.2226   73.5758  221.2740 H   0  0  0  0  0  0  0  0  0  0  0  0
  146.4232   74.2511  219.5794 H   0  0  0  0  0  0  0  0  0  0  0  0
  144.2716   74.7761  221.1231 H   0  0  0  0  0  0  0  0  0  0  0  0
  144.2289   74.6656  219.3142 H   0  0  0  0  0  0  0  0  0  0  0  0
  138.2151   70.9593  223.9192 H   0  0  0  0  0  0  0  0  0  0  0  0
  138.7966   70.5475  222.2616 H   0  0  0  0  0  0  0  0  0  0  0  0
  138.2103   68.5311  223.6380 H   0  0  0  0  0  0  0  0  0  0  0  0
  139.9290   68.5619  223.0995 H   0  0  0  0  0  0  0  0  0  0  0  0
  138.5459   67.1086  225.5654 H   0  0  0  0  0  0  0  0  0  0  0  0
  139.3357   66.9314  227.9249 H   0  0  0  0  0  0  0  0  0  0  0  0
  140.8943   68.6446  228.8527 H   0  0  0  0  0  0  0  0  0  0  0  0
  141.6622   70.5405  227.4285 H   0  0  0  0  0  0  0  0  0  0  0  0
  140.9762   71.9780  225.4218 H   0  0  0  0  0  0  0  0  0  0  0  0
  142.0631   70.7906  224.5532 H   0  0  0  0  0  0  0  0  0  0  0  0
  140.1419   75.9506  219.6090 H   0  0  0  0  0  0  0  0  0  0  0  0
  138.3986   75.7041  219.7934 H   0  0  0  0  0  0  0  0  0  0  0  0
  139.6088   78.2007  219.5028 H   0  0  0  0  0  0  0  0  0  0  0  0
  138.0272   77.9766  220.2780 H   0  0  0  0  0  0  0  0  0  0  0  0
  140.5019   78.8685  221.4982 H   0  0  0  0  0  0  0  0  0  0  0  0
  138.9445   78.6114  222.3120 H   0  0  0  0  0  0  0  0  0  0  0  0
  141.3423   76.7982  222.1231 H   0  0  0  0  0  0  0  0  0  0  0  0
  140.1332   76.8958  223.4112 H   0  0  0  0  0  0  0  0  0  0  0  0
  1  2  1  0
  2  3  1  0
  3  4  2  0
  4  5  1  0
  5  6  1  0
  6  7  1  0
  7  8  1  0
  8  9  1  0
  9 10  1  0
 10 11  1  0
  5 12  2  0
 12 13  1  0
 13 14  1  0
 14 15  1  0
 15 16  1  0
 16 17  1  0
 17 18  2  0
 18 19  1  0
 19 20  2  0
 20 21  1  0
 21 22  2  0
 22 23  1  0
 13 24  2  0
  2 25  1  0
 25 26  1  0
 26 27  1  0
 27 28  1  0
 28  2  1  0
 24  3  1  0
 11  6  1  0
 23 14  1  0
 22 17  1  0
  1 29  1  0
  7 30  1  0
  7 31  1  0
  8 32  1  0
  8 33  1  0
  9 34  1  0
 10 35  1  0
 10 36  1  0
 11 37  1  0
 11 38  1  0
 15 39  1  0
 15 40  1  0
 16 41  1  0
 16 42  1  0
 18 43  1  0
 19 44  1  0
 20 45  1  0
 21 46  1  0
 23 47  1  0
 23 48  1  0
 25 49  1  0
 25 50  1  0
 26 51  1  0
 26 52  1  0
 27 53  1  0
 27 54  1  0
 28 55  1  0
 28 56  1  0
M  END
>  <UniqueID>  (21) 
511

>  <SMILES>  (21) 
OC1(c2nc(N3CCNCC3)nc(N3CCc4ccccc4C3)n2)CCCC1

>  <Energy>  (21) 
68.3109644264867

>  <Genealogy>  (21) 
OC1(c2nc(N3CCNCC3)nc(N3CCc4ccccc4C3)n2)CCCC1 (3D coordinates assigned)
OC1(c2nc(N3CCNCC3)nc(N3CCc4ccccc4C3)n2)CCCC1 (nonaromatic ring conformer: 68.3109644264867 kcal/mol)

>  <smiles>  (21) 
OC1(c2nc(N3CCNCC3)nc(N3CCc4ccccc4C3)n2)CCCC1

>  <score_type>  (21) 
oracle

>  <origin>  (21) 
autodockgpu

>  <m_score__min__energy>  (21) 
-8.8599999999999994

>  <m_primary>  (21) 
energy

>  <meeko>  (21) 
{"free_energy": -8.85, "intermolecular_energy": -10.04, "internal_energy": -1.5, "cluster_size": 20, "cluster_id": 1, "rank_in_cluster": 19}

>  <energy>  (21) 
-8.86

>  <cluster_rmsd>  (21) 
0.0

>  <rmsd>  (21) 
271.09

>  <cluster>  (21) 
1

$$$$
AUISRQYXECVJTM-UHFFFAOYNA-N
     RDKit          3D

 56 60  0  0  0  0  0  0  0  0999 V2000
  138.3210   75.5360  222.3590 O   0  0  0  0  0  0  0  0  0  0  0  0
  139.5510   75.6920  221.6930 C   0  0  0  0  0  0  0  0  0  0  0  0
  140.3340   74.3950  221.7510 C   0  0  0  0  0  0  0  0  0  0  0  0
  141.4720   74.2460  221.0230 N   0  0  0  0  0  0  0  0  0  0  0  0
  142.2100   73.1100  221.1150 C   0  0  0  0  0  0  0  0  0  0  0  0
  143.4090   72.9470  220.3300 N   0  0  0  0  0  0  0  0  0  0  0  0
  143.5790   71.7290  219.5260 C   0  0  0  0  0  0  0  0  0  0  0  0
  144.9200   71.7400  218.7880 C   0  0  0  0  0  0  0  0  0  0  0  0
  145.9930   72.1610  219.6930 N   0  0  0  0  0  0  0  0  0  0  0  0
  145.8250   73.5490  220.1660 C   0  0  0  0  0  0  0  0  0  0  0  0
  144.3650   74.0530  220.1710 C   0  0  0  0  0  0  0  0  0  0  0  0
  141.8080   72.1250  221.9620 N   0  0  0  0  0  0  0  0  0  0  0  0
  140.6870   72.2690  222.7160 C   0  0  0  0  0  0  0  0  0  0  0  0
  140.2710   71.2260  223.6230 N   0  0  0  0  0  0  0  0  0  0  0  0
  139.0260   70.4820  223.3740 C   0  0  0  0  0  0  0  0  0  0  0  0
  139.1770   69.0270  223.8060 C   0  0  0  0  0  0  0  0  0  0  0  0
  139.6160   68.9560  225.2370 C   0  0  0  0  0  0  0  0  0  0  0  0
  139.2020   67.8900  226.0520 C   0  0  0  0  0  0  0  0  0  0  0  0
  139.6390   67.8060  227.3760 C   0  0  0  0  0  0  0  0  0  0  0  0
  140.5040   68.7740  227.8900 C   0  0  0  0  0  0  0  0  0  0  0  0
  140.9340   69.8290  227.0810 C   0  0  0  0  0  0  0  0  0  0  0  0
  140.4930   69.9310  225.7520 C   0  0  0  0  0  0  0  0  0  0  0  0
  141.0150   71.0530  224.8850 C   0  0  0  0  0  0  0  0  0  0  0  0
  139.9590   73.4120  222.6090 N   0  0  0  0  0  0  0  0  0  0  0  0
  139.3210   76.1770  220.2560 C   0  0  0  0  0  0  0  0  0  0  0  0
  139.1550   77.6900  220.3490 C   0  0  0  0  0  0  0  0  0  0  0  0
  139.7650   78.1160  221.6820 C   0  0  0  0  0  0  0  0  0  0  0  0
  140.3120   76.8530  222.3340 C   0  0  0  0  0  0  0  0  0  0  0  0
  138.3510   74.6770  222.8570 H   0  0  0  0  0  0  0  0  0  0  0  0
  143.5408   70.8522  220.1892 H   0  0  0  0  0  0  0  0  0  0  0  0
  142.7703   71.6854  218.7816 H   0  0  0  0  0  0  0  0  0  0  0  0
  145.1367   70.7287  218.4133 H   0  0  0  0  0  0  0  0  0  0  0  0
  144.8612   72.4475  217.9478 H   0  0  0  0  0  0  0  0  0  0  0  0
  146.0010   71.5190  220.5220 H   0  0  0  0  0  0  0  0  0  0  0  0
  146.2131   73.6110  221.1934 H   0  0  0  0  0  0  0  0  0  0  0  0
  146.3737   74.1885  219.4589 H   0  0  0  0  0  0  0  0  0  0  0  0
  144.2345   74.7596  221.0039 H   0  0  0  0  0  0  0  0  0  0  0  0
  144.1672   74.5414  219.2054 H   0  0  0  0  0  0  0  0  0  0  0  0
  138.2072   70.9456  223.9438 H   0  0  0  0  0  0  0  0  0  0  0  0
  138.8033   70.5119  222.2972 H   0  0  0  0  0  0  0  0  0  0  0  0
  138.2107   68.5130  223.6963 H   0  0  0  0  0  0  0  0  0  0  0  0
  139.9343   68.5410  223.1733 H   0  0  0  0  0  0  0  0  0  0  0  0
  138.5312   67.1184  225.6463 H   0  0  0  0  0  0  0  0  0  0  0  0
  139.3013   66.9763  228.0144 H   0  0  0  0  0  0  0  0  0  0  0  0
  140.8473   68.7060  228.9328 H   0  0  0  0  0  0  0  0  0  0  0  0
  141.6224   70.5844  227.4879 H   0  0  0  0  0  0  0  0  0  0  0  0
  140.9516   71.9909  225.4563 H   0  0  0  0  0  0  0  0  0  0  0  0
  142.0492   70.7939  224.6142 H   0  0  0  0  0  0  0  0  0  0  0  0
  140.1851   75.9247  219.6238 H   0  0  0  0  0  0  0  0  0  0  0  0
  138.4386   75.7002  219.8044 H   0  0  0  0  0  0  0  0  0  0  0  0
  139.6809   78.1811  219.5170 H   0  0  0  0  0  0  0  0  0  0  0  0
  138.0947   77.9766  220.2890 H   0  0  0  0  0  0  0  0  0  0  0  0
  140.5772   78.8386  221.5140 H   0  0  0  0  0  0  0  0  0  0  0  0
  139.0152   78.6010  222.3243 H   0  0  0  0  0  0  0  0  0  0  0  0
  141.3906   76.7578  222.1401 H   0  0  0  0  0  0  0  0  0  0  0  0
  140.1801   76.8706  223.4259 H   0  0  0  0  0  0  0  0  0  0  0  0
  1  2  1  0
  2  3  1  0
  3  4  2  0
  4  5  1  0
  5  6  1  0
  6  7  1  0
  7  8  1  0
  8  9  1  0
  9 10  1  0
 10 11  1  0
  5 12  2  0
 12 13  1  0
 13 14  1  0
 14 15  1  0
 15 16  1  0
 16 17  1  0
 17 18  2  0
 18 19  1  0
 19 20  2  0
 20 21  1  0
 21 22  2  0
 22 23  1  0
 13 24  2  0
  2 25  1  0
 25 26  1  0
 26 27  1  0
 27 28  1  0
 28  2  1  0
 24  3  1  0
 11  6  1  0
 23 14  1  0
 22 17  1  0
  1 29  1  0
  7 30  1  0
  7 31  1  0
  8 32  1  0
  8 33  1  0
  9 34  1  0
 10 35  1  0
 10 36  1  0
 11 37  1  0
 11 38  1  0
 15 39  1  0
 15 40  1  0
 16 41  1  0
 16 42  1  0
 18 43  1  0
 19 44  1  0
 20 45  1  0
 21 46  1  0
 23 47  1  0
 23 48  1  0
 25 49  1  0
 25 50  1  0
 26 51  1  0
 26 52  1  0
 27 53  1  0
 27 54  1  0
 28 55  1  0
 28 56  1  0
M  END
>  <UniqueID>  (22) 
511

>  <SMILES>  (22) 
OC1(c2nc(N3CCNCC3)nc(N3CCc4ccccc4C3)n2)CCCC1

>  <Energy>  (22) 
68.3109644264867

>  <Genealogy>  (22) 
OC1(c2nc(N3CCNCC3)nc(N3CCc4ccccc4C3)n2)CCCC1 (3D coordinates assigned)
OC1(c2nc(N3CCNCC3)nc(N3CCc4ccccc4C3)n2)CCCC1 (nonaromatic ring conformer: 68.3109644264867 kcal/mol)

>  <smiles>  (22) 
OC1(c2nc(N3CCNCC3)nc(N3CCc4ccccc4C3)n2)CCCC1

>  <score_type>  (22) 
oracle

>  <origin>  (22) 
autodockgpu

>  <m_score__min__energy>  (22) 
-8.8599999999999994

>  <m_primary>  (22) 
energy

>  <meeko>  (22) 
{"free_energy": -8.86, "intermolecular_energy": -10.05, "internal_energy": -1.51, "cluster_size": 20, "cluster_id": 1, "rank_in_cluster": 2}

>  <energy>  (22) 
-8.86

>  <cluster_rmsd>  (22) 
0.02

>  <rmsd>  (22) 
271.09

>  <cluster>  (22) 
1

$$$$
AUISRQYXECVJTM-UHFFFAOYNA-N
     RDKit          3D

 56 60  0  0  0  0  0  0  0  0999 V2000
  138.3620   75.5390  222.3710 O   0  0  0  0  0  0  0  0  0  0  0  0
  139.5870   75.6830  221.6940 C   0  0  0  0  0  0  0  0  0  0  0  0
  140.3620   74.3820  221.7520 C   0  0  0  0  0  0  0  0  0  0  0  0
  141.4980   74.2250  221.0230 N   0  0  0  0  0  0  0  0  0  0  0  0
  142.2290   73.0840  221.1150 C   0  0  0  0  0  0  0  0  0  0  0  0
  143.4260   72.9120  220.3280 N   0  0  0  0  0  0  0  0  0  0  0  0
  143.6000   71.6790  219.5490 C   0  0  0  0  0  0  0  0  0  0  0  0
  144.9370   71.6830  218.8040 C   0  0  0  0  0  0  0  0  0  0  0  0
  146.0120   72.1300  219.6960 N   0  0  0  0  0  0  0  0  0  0  0  0
  145.8370   73.5260  220.1400 C   0  0  0  0  0  0  0  0  0  0  0  0
  144.3730   74.0210  220.1410 C   0  0  0  0  0  0  0  0  0  0  0  0
  141.8240   72.1030  221.9650 N   0  0  0  0  0  0  0  0  0  0  0  0
  140.7040   72.2550  222.7210 C   0  0  0  0  0  0  0  0  0  0  0  0
  140.2840   71.2160  223.6310 N   0  0  0  0  0  0  0  0  0  0  0  0
  139.0300   70.4860  223.3900 C   0  0  0  0  0  0  0  0  0  0  0  0
  139.1670   69.0290  223.8200 C   0  0  0  0  0  0  0  0  0  0  0  0
  139.6170   68.9530  225.2480 C   0  0  0  0  0  0  0  0  0  0  0  0
  139.1970   67.8910  226.0660 C   0  0  0  0  0  0  0  0  0  0  0  0
  139.6440   67.8010  227.3860 C   0  0  0  0  0  0  0  0  0  0  0  0
  140.5230   68.7590  227.8940 C   0  0  0  0  0  0  0  0  0  0  0  0
  140.9590   69.8100  227.0830 C   0  0  0  0  0  0  0  0  0  0  0  0
  140.5080   69.9180  225.7570 C   0  0  0  0  0  0  0  0  0  0  0  0
  141.0360   71.0340  224.8870 C   0  0  0  0  0  0  0  0  0  0  0  0
  139.9840   73.4030  222.6140 N   0  0  0  0  0  0  0  0  0  0  0  0
  139.3490   76.1620  220.2570 C   0  0  0  0  0  0  0  0  0  0  0  0
  139.1930   77.6760  220.3420 C   0  0  0  0  0  0  0  0  0  0  0  0
  139.8160   78.1060  221.6680 C   0  0  0  0  0  0  0  0  0  0  0  0
  140.3610   76.8430  222.3230 C   0  0  0  0  0  0  0  0  0  0  0  0
  138.4330   74.7450  222.9640 H   0  0  0  0  0  0  0  0  0  0  0  0
  143.5709   70.8161  220.2306 H   0  0  0  0  0  0  0  0  0  0  0  0
  142.7879   71.6148  218.8098 H   0  0  0  0  0  0  0  0  0  0  0  0
  145.1585   70.6656  218.4494 H   0  0  0  0  0  0  0  0  0  0  0  0
  144.8698   72.3721  217.9492 H   0  0  0  0  0  0  0  0  0  0  0  0
  146.0270   71.5050  220.5370 H   0  0  0  0  0  0  0  0  0  0  0  0
  146.2293   73.6123  221.1641 H   0  0  0  0  0  0  0  0  0  0  0  0
  146.3783   74.1538  219.4169 H   0  0  0  0  0  0  0  0  0  0  0  0
  144.2415   74.7443  220.9592 H   0  0  0  0  0  0  0  0  0  0  0  0
  144.1674   74.4879  219.1665 H   0  0  0  0  0  0  0  0  0  0  0  0
  138.2202   70.9583  223.9654 H   0  0  0  0  0  0  0  0  0  0  0  0
  138.8011   70.5188  222.3146 H   0  0  0  0  0  0  0  0  0  0  0  0
  138.1938   68.5266  223.7181 H   0  0  0  0  0  0  0  0  0  0  0  0
  139.9128   68.5338  223.1809 H   0  0  0  0  0  0  0  0  0  0  0  0
  138.5137   67.1277  225.6654 H   0  0  0  0  0  0  0  0  0  0  0  0
  139.3029   66.9741  228.0262 H   0  0  0  0  0  0  0  0  0  0  0  0
  140.8730   68.6865  228.9343 H   0  0  0  0  0  0  0  0  0  0  0  0
  141.6593   70.5569  227.4851 H   0  0  0  0  0  0  0  0  0  0  0  0
  140.9879   71.9722  225.4592 H   0  0  0  0  0  0  0  0  0  0  0  0
  142.0651   70.7634  224.6081 H   0  0  0  0  0  0  0  0  0  0  0  0
  140.2066   75.9009  219.6196 H   0  0  0  0  0  0  0  0  0  0  0  0
  138.4598   75.6884  219.8154 H   0  0  0  0  0  0  0  0  0  0  0  0
  139.7155   78.1589  219.5031 H   0  0  0  0  0  0  0  0  0  0  0  0
  138.1341   77.9689  220.2882 H   0  0  0  0  0  0  0  0  0  0  0  0
  140.6310   78.8229  221.4896 H   0  0  0  0  0  0  0  0  0  0  0  0
  139.0741   78.5990  222.3134 H   0  0  0  0  0  0  0  0  0  0  0  0
  141.4374   76.7401  222.1209 H   0  0  0  0  0  0  0  0  0  0  0  0
  140.2385   76.8674  223.4159 H   0  0  0  0  0  0  0  0  0  0  0  0
  1  2  1  0
  2  3  1  0
  3  4  2  0
  4  5  1  0
  5  6  1  0
  6  7  1  0
  7  8  1  0
  8  9  1  0
  9 10  1  0
 10 11  1  0
  5 12  2  0
 12 13  1  0
 13 14  1  0
 14 15  1  0
 15 16  1  0
 16 17  1  0
 17 18  2  0
 18 19  1  0
 19 20  2  0
 20 21  1  0
 21 22  2  0
 22 23  1  0
 13 24  2  0
  2 25  1  0
 25 26  1  0
 26 27  1  0
 27 28  1  0
 28  2  1  0
 24  3  1  0
 11  6  1  0
 23 14  1  0
 22 17  1  0
  1 29  1  0
  7 30  1  0
  7 31  1  0
  8 32  1  0
  8 33  1  0
  9 34  1  0
 10 35  1  0
 10 36  1  0
 11 37  1  0
 11 38  1  0
 15 39  1  0
 15 40  1  0
 16 41  1  0
 16 42  1  0
 18 43  1  0
 19 44  1  0
 20 45  1  0
 21 46  1  0
 23 47  1  0
 23 48  1  0
 25 49  1  0
 25 50  1  0
 26 51  1  0
 26 52  1  0
 27 53  1  0
 27 54  1  0
 28 55  1  0
 28 56  1  0
M  END
>  <UniqueID>  (23) 
511

>  <SMILES>  (23) 
OC1(c2nc(N3CCNCC3)nc(N3CCc4ccccc4C3)n2)CCCC1

>  <Energy>  (23) 
68.3109644264867

>  <Genealogy>  (23) 
OC1(c2nc(N3CCNCC3)nc(N3CCc4ccccc4C3)n2)CCCC1 (3D coordinates assigned)
OC1(c2nc(N3CCNCC3)nc(N3CCc4ccccc4C3)n2)CCCC1 (nonaromatic ring conformer: 68.3109644264867 kcal/mol)

>  <smiles>  (23) 
OC1(c2nc(N3CCNCC3)nc(N3CCc4ccccc4C3)n2)CCCC1

>  <score_type>  (23) 
oracle

>  <origin>  (23) 
autodockgpu

>  <m_score__min__energy>  (23) 
-8.8599999999999994

>  <m_primary>  (23) 
energy

>  <meeko>  (23) 
{"free_energy": -8.85, "intermolecular_energy": -10.05, "internal_energy": -1.5, "cluster_size": 20, "cluster_id": 1, "rank_in_cluster": 12}

>  <energy>  (23) 
-8.86

>  <cluster_rmsd>  (23) 
0.05

>  <rmsd>  (23) 
271.1

>  <cluster>  (23) 
1

$$$$
AUISRQYXECVJTM-UHFFFAOYNA-N
     RDKit          3D

 56 60  0  0  0  0  0  0  0  0999 V2000
  138.3400   75.5760  222.3650 O   0  0  0  0  0  0  0  0  0  0  0  0
  139.5610   75.7110  221.6780 C   0  0  0  0  0  0  0  0  0  0  0  0
  140.3330   74.4070  221.7440 C   0  0  0  0  0  0  0  0  0  0  0  0
  141.4690   74.2440  221.0160 N   0  0  0  0  0  0  0  0  0  0  0  0
  142.1970   73.1020  221.1150 C   0  0  0  0  0  0  0  0  0  0  0  0
  143.3950   72.9240  220.3300 N   0  0  0  0  0  0  0  0  0  0  0  0
  143.5790   71.6750  219.5780 C   0  0  0  0  0  0  0  0  0  0  0  0
  144.9150   71.6750  218.8310 C   0  0  0  0  0  0  0  0  0  0  0  0
  145.9870   72.1510  219.7100 N   0  0  0  0  0  0  0  0  0  0  0  0
  145.7990   73.5550  220.1240 C   0  0  0  0  0  0  0  0  0  0  0  0
  144.3320   74.0370  220.1160 C   0  0  0  0  0  0  0  0  0  0  0  0
  141.7890   72.1270  221.9690 N   0  0  0  0  0  0  0  0  0  0  0  0
  140.6700   72.2850  222.7230 C   0  0  0  0  0  0  0  0  0  0  0  0
  140.2460   71.2510  223.6380 N   0  0  0  0  0  0  0  0  0  0  0  0
  138.9960   70.5150  223.3940 C   0  0  0  0  0  0  0  0  0  0  0  0
  139.1350   69.0620  223.8360 C   0  0  0  0  0  0  0  0  0  0  0  0
  139.5740   68.9980  225.2670 C   0  0  0  0  0  0  0  0  0  0  0  0
  139.1520   67.9410  226.0910 C   0  0  0  0  0  0  0  0  0  0  0  0
  139.5890   67.8630  227.4140 C   0  0  0  0  0  0  0  0  0  0  0  0
  140.4620   68.8280  227.9210 C   0  0  0  0  0  0  0  0  0  0  0  0
  140.9010   69.8740  227.1050 C   0  0  0  0  0  0  0  0  0  0  0  0
  140.4590   69.9700  225.7750 C   0  0  0  0  0  0  0  0  0  0  0  0
  140.9900   71.0820  224.9010 C   0  0  0  0  0  0  0  0  0  0  0  0
  139.9520   73.4340  222.6090 N   0  0  0  0  0  0  0  0  0  0  0  0
  139.3130   76.1750  220.2380 C   0  0  0  0  0  0  0  0  0  0  0  0
  139.1620   77.6910  220.3090 C   0  0  0  0  0  0  0  0  0  0  0  0
  139.7970   78.1320  221.6260 C   0  0  0  0  0  0  0  0  0  0  0  0
  140.3430   76.8740  222.2890 C   0  0  0  0  0  0  0  0  0  0  0  0
  138.3870   74.7460  222.9090 H   0  0  0  0  0  0  0  0  0  0  0  0
  143.5588   70.8272  220.2786 H   0  0  0  0  0  0  0  0  0  0  0  0
  142.7664   71.5867  218.8419 H   0  0  0  0  0  0  0  0  0  0  0  0
  145.1452   70.6521  218.4984 H   0  0  0  0  0  0  0  0  0  0  0  0
  144.8399   72.3448  217.9617 H   0  0  0  0  0  0  0  0  0  0  0  0
  146.0090   71.5450  220.5660 H   0  0  0  0  0  0  0  0  0  0  0  0
  146.1913   73.6669  221.1456 H   0  0  0  0  0  0  0  0  0  0  0  0
  146.3336   74.1716  219.3864 H   0  0  0  0  0  0  0  0  0  0  0  0
  144.1953   74.7778  220.9176 H   0  0  0  0  0  0  0  0  0  0  0  0
  144.1209   74.4798  219.1315 H   0  0  0  0  0  0  0  0  0  0  0  0
  138.1807   70.9890  223.9603 H   0  0  0  0  0  0  0  0  0  0  0  0
  138.7743   70.5389  222.3168 H   0  0  0  0  0  0  0  0  0  0  0  0
  138.1644   68.5553  223.7304 H   0  0  0  0  0  0  0  0  0  0  0  0
  139.8876   68.5650  223.2063 H   0  0  0  0  0  0  0  0  0  0  0  0
  138.4744   67.1720  225.6916 H   0  0  0  0  0  0  0  0  0  0  0  0
  139.2454   67.0404  228.0584 H   0  0  0  0  0  0  0  0  0  0  0  0
  140.8046   68.7646  228.9644 H   0  0  0  0  0  0  0  0  0  0  0  0
  141.5963   70.6261  227.5062 H   0  0  0  0  0  0  0  0  0  0  0  0
  140.9340   72.0243  225.4657 H   0  0  0  0  0  0  0  0  0  0  0  0
  142.0225   70.8142  224.6323 H   0  0  0  0  0  0  0  0  0  0  0  0
  140.1648   75.9047  219.5966 H   0  0  0  0  0  0  0  0  0  0  0  0
  138.4193   75.6992  219.8080 H   0  0  0  0  0  0  0  0  0  0  0  0
  139.6793   78.1640  219.4612 H   0  0  0  0  0  0  0  0  0  0  0  0
  138.1036   77.9867  220.2605 H   0  0  0  0  0  0  0  0  0  0  0  0
  140.6128   78.8445  221.4341 H   0  0  0  0  0  0  0  0  0  0  0  0
  139.0618   78.6337  222.2723 H   0  0  0  0  0  0  0  0  0  0  0  0
  141.4174   76.7657  222.0796 H   0  0  0  0  0  0  0  0  0  0  0  0
  140.2291   76.9095  223.3825 H   0  0  0  0  0  0  0  0  0  0  0  0
  1  2  1  0
  2  3  1  0
  3  4  2  0
  4  5  1  0
  5  6  1  0
  6  7  1  0
  7  8  1  0
  8  9  1  0
  9 10  1  0
 10 11  1  0
  5 12  2  0
 12 13  1  0
 13 14  1  0
 14 15  1  0
 15 16  1  0
 16 17  1  0
 17 18  2  0
 18 19  1  0
 19 20  2  0
 20 21  1  0
 21 22  2  0
 22 23  1  0
 13 24  2  0
  2 25  1  0
 25 26  1  0
 26 27  1  0
 27 28  1  0
 28  2  1  0
 24  3  1  0
 11  6  1  0
 23 14  1  0
 22 17  1  0
  1 29  1  0
  7 30  1  0
  7 31  1  0
  8 32  1  0
  8 33  1  0
  9 34  1  0
 10 35  1  0
 10 36  1  0
 11 37  1  0
 11 38  1  0
 15 39  1  0
 15 40  1  0
 16 41  1  0
 16 42  1  0
 18 43  1  0
 19 44  1  0
 20 45  1  0
 21 46  1  0
 23 47  1  0
 23 48  1  0
 25 49  1  0
 25 50  1  0
 26 51  1  0
 26 52  1  0
 27 53  1  0
 27 54  1  0
 28 55  1  0
 28 56  1  0
M  END
>  <UniqueID>  (24) 
511

>  <SMILES>  (24) 
OC1(c2nc(N3CCNCC3)nc(N3CCc4ccccc4C3)n2)CCCC1

>  <Energy>  (24) 
68.3109644264867

>  <Genealogy>  (24) 
OC1(c2nc(N3CCNCC3)nc(N3CCc4ccccc4C3)n2)CCCC1 (3D coordinates assigned)
OC1(c2nc(N3CCNCC3)nc(N3CCc4ccccc4C3)n2)CCCC1 (nonaromatic ring conformer: 68.3109644264867 kcal/mol)

>  <smiles>  (24) 
OC1(c2nc(N3CCNCC3)nc(N3CCc4ccccc4C3)n2)CCCC1

>  <score_type>  (24) 
oracle

>  <origin>  (24) 
autodockgpu

>  <m_score__min__energy>  (24) 
-8.8599999999999994

>  <m_primary>  (24) 
energy

>  <meeko>  (24) 
{"free_energy": -8.84, "intermolecular_energy": -10.03, "internal_energy": -1.51, "cluster_size": 20, "cluster_id": 1, "rank_in_cluster": 20}

>  <energy>  (24) 
-8.86

>  <cluster_rmsd>  (24) 
0.05

>  <rmsd>  (24) 
271.1

>  <cluster>  (24) 
1

$$$$
AUISRQYXECVJTM-UHFFFAOYNA-N
     RDKit          3D

 56 60  0  0  0  0  0  0  0  0999 V2000
  138.3650   75.5390  222.3790 O   0  0  0  0  0  0  0  0  0  0  0  0
  139.5930   75.6840  221.7050 C   0  0  0  0  0  0  0  0  0  0  0  0
  140.3640   74.3790  221.7580 C   0  0  0  0  0  0  0  0  0  0  0  0
  141.4980   74.2220  221.0270 N   0  0  0  0  0  0  0  0  0  0  0  0
  142.2260   73.0780  221.1140 C   0  0  0  0  0  0  0  0  0  0  0  0
  143.4220   72.9060  220.3260 N   0  0  0  0  0  0  0  0  0  0  0  0
  143.6000   71.6680  219.5560 C   0  0  0  0  0  0  0  0  0  0  0  0
  144.9360   71.6730  218.8080 C   0  0  0  0  0  0  0  0  0  0  0  0
  146.0100   72.1310  219.6940 N   0  0  0  0  0  0  0  0  0  0  0  0
  145.8290   73.5300  220.1280 C   0  0  0  0  0  0  0  0  0  0  0  0
  144.3640   74.0180  220.1290 C   0  0  0  0  0  0  0  0  0  0  0  0
  141.8170   72.0950  221.9600 N   0  0  0  0  0  0  0  0  0  0  0  0
  140.6990   72.2470  222.7160 C   0  0  0  0  0  0  0  0  0  0  0  0
  140.2760   71.2050  223.6220 N   0  0  0  0  0  0  0  0  0  0  0  0
  139.0300   70.4660  223.3670 C   0  0  0  0  0  0  0  0  0  0  0  0
  139.1730   69.0100  223.7990 C   0  0  0  0  0  0  0  0  0  0  0  0
  139.6060   68.9380  225.2320 C   0  0  0  0  0  0  0  0  0  0  0  0
  139.1840   67.8730  226.0460 C   0  0  0  0  0  0  0  0  0  0  0  0
  139.6150   67.7870  227.3710 C   0  0  0  0  0  0  0  0  0  0  0  0
  140.4810   68.7530  227.8890 C   0  0  0  0  0  0  0  0  0  0  0  0
  140.9190   69.8060  227.0820 C   0  0  0  0  0  0  0  0  0  0  0  0
  140.4840   69.9100  225.7510 C   0  0  0  0  0  0  0  0  0  0  0  0
  141.0140   71.0300  224.8870 C   0  0  0  0  0  0  0  0  0  0  0  0
  139.9820   73.3980  222.6150 N   0  0  0  0  0  0  0  0  0  0  0  0
  139.3590   76.1720  220.2700 C   0  0  0  0  0  0  0  0  0  0  0  0
  139.2080   77.6860  220.3650 C   0  0  0  0  0  0  0  0  0  0  0  0
  139.8300   78.1050  221.6950 C   0  0  0  0  0  0  0  0  0  0  0  0
  140.3690   76.8370  222.3430 C   0  0  0  0  0  0  0  0  0  0  0  0
  138.4140   74.7110  222.9250 H   0  0  0  0  0  0  0  0  0  0  0  0
  143.5764   70.8101  220.2441 H   0  0  0  0  0  0  0  0  0  0  0  0
  142.7866   71.5942  218.8191 H   0  0  0  0  0  0  0  0  0  0  0  0
  145.1615   70.6541  218.4601 H   0  0  0  0  0  0  0  0  0  0  0  0
  144.8638   72.3557  217.9485 H   0  0  0  0  0  0  0  0  0  0  0  0
  146.0300   71.5120  220.5400 H   0  0  0  0  0  0  0  0  0  0  0  0
  146.2233   73.6259  221.1504 H   0  0  0  0  0  0  0  0  0  0  0  0
  146.3653   74.1547  219.3986 H   0  0  0  0  0  0  0  0  0  0  0  0
  144.2312   74.7465  220.9424 H   0  0  0  0  0  0  0  0  0  0  0  0
  144.1541   74.4770  219.1516 H   0  0  0  0  0  0  0  0  0  0  0  0
  138.2104   70.9325  223.9332 H   0  0  0  0  0  0  0  0  0  0  0  0
  138.8128   70.4970  222.2891 H   0  0  0  0  0  0  0  0  0  0  0  0
  138.2050   68.5001  223.6854 H   0  0  0  0  0  0  0  0  0  0  0  0
  139.9303   68.5203  223.1691 H   0  0  0  0  0  0  0  0  0  0  0  0
  138.5115   67.1043  225.6376 H   0  0  0  0  0  0  0  0  0  0  0  0
  139.2724   66.9579  228.0077 H   0  0  0  0  0  0  0  0  0  0  0  0
  140.8185   68.6845  228.9337 H   0  0  0  0  0  0  0  0  0  0  0  0
  141.6090   70.5583  227.4919 H   0  0  0  0  0  0  0  0  0  0  0  0
  140.9513   71.9681  225.4579 H   0  0  0  0  0  0  0  0  0  0  0  0
  142.0487   70.7679  224.6211 H   0  0  0  0  0  0  0  0  0  0  0  0
  140.2168   75.9120  219.6324 H   0  0  0  0  0  0  0  0  0  0  0  0
  138.4694   75.7039  219.8234 H   0  0  0  0  0  0  0  0  0  0  0  0
  139.7337   78.1728  219.5303 H   0  0  0  0  0  0  0  0  0  0  0  0
  138.1502   77.9828  220.3113 H   0  0  0  0  0  0  0  0  0  0  0  0
  140.6479   78.8201  221.5227 H   0  0  0  0  0  0  0  0  0  0  0  0
  139.0883   78.5962  222.3420 H   0  0  0  0  0  0  0  0  0  0  0  0
  141.4455   76.7318  222.1429 H   0  0  0  0  0  0  0  0  0  0  0  0
  140.2440   76.8549  223.4357 H   0  0  0  0  0  0  0  0  0  0  0  0
  1  2  1  0
  2  3  1  0
  3  4  2  0
  4  5  1  0
  5  6  1  0
  6  7  1  0
  7  8  1  0
  8  9  1  0
  9 10  1  0
 10 11  1  0
  5 12  2  0
 12 13  1  0
 13 14  1  0
 14 15  1  0
 15 16  1  0
 16 17  1  0
 17 18  2  0
 18 19  1  0
 19 20  2  0
 20 21  1  0
 21 22  2  0
 22 23  1  0
 13 24  2  0
  2 25  1  0
 25 26  1  0
 26 27  1  0
 27 28  1  0
 28  2  1  0
 24  3  1  0
 11  6  1  0
 23 14  1  0
 22 17  1  0
  1 29  1  0
  7 30  1  0
  7 31  1  0
  8 32  1  0
  8 33  1  0
  9 34  1  0
 10 35  1  0
 10 36  1  0
 11 37  1  0
 11 38  1  0
 15 39  1  0
 15 40  1  0
 16 41  1  0
 16 42  1  0
 18 43  1  0
 19 44  1  0
 20 45  1  0
 21 46  1  0
 23 47  1  0
 23 48  1  0
 25 49  1  0
 25 50  1  0
 26 51  1  0
 26 52  1  0
 27 53  1  0
 27 54  1  0
 28 55  1  0
 28 56  1  0
M  END
>  <UniqueID>  (25) 
511

>  <SMILES>  (25) 
OC1(c2nc(N3CCNCC3)nc(N3CCc4ccccc4C3)n2)CCCC1

>  <Energy>  (25) 
68.3109644264867

>  <Genealogy>  (25) 
OC1(c2nc(N3CCNCC3)nc(N3CCc4ccccc4C3)n2)CCCC1 (3D coordinates assigned)
OC1(c2nc(N3CCNCC3)nc(N3CCc4ccccc4C3)n2)CCCC1 (nonaromatic ring conformer: 68.3109644264867 kcal/mol)

>  <smiles>  (25) 
OC1(c2nc(N3CCNCC3)nc(N3CCc4ccccc4C3)n2)CCCC1

>  <score_type>  (25) 
oracle

>  <origin>  (25) 
autodockgpu

>  <m_score__min__energy>  (25) 
-8.8599999999999994

>  <m_primary>  (25) 
energy

>  <meeko>  (25) 
{"free_energy": -8.86, "intermolecular_energy": -10.05, "internal_energy": -1.51, "cluster_size": 20, "cluster_id": 1, "rank_in_cluster": 3}

>  <energy>  (25) 
-8.86

>  <cluster_rmsd>  (25) 
0.05

>  <rmsd>  (25) 
271.1

>  <cluster>  (25) 
1

$$$$
AUISRQYXECVJTM-UHFFFAOYNA-N
     RDKit          3D

 56 60  0  0  0  0  0  0  0  0999 V2000
  138.3260   75.5600  222.3630 O   0  0  0  0  0  0  0  0  0  0  0  0
  139.5520   75.7230  221.6920 C   0  0  0  0  0  0  0  0  0  0  0  0
  140.3410   74.4290  221.7420 C   0  0  0  0  0  0  0  0  0  0  0  0
  141.4840   74.2930  221.0210 N   0  0  0  0  0  0  0  0  0  0  0  0
  142.2270   73.1590  221.1070 C   0  0  0  0  0  0  0  0  0  0  0  0
  143.4330   73.0090  220.3290 N   0  0  0  0  0  0  0  0  0  0  0  0
  143.5830   71.8330  219.4610 C   0  0  0  0  0  0  0  0  0  0  0  0
  144.9330   71.8510  218.7400 C   0  0  0  0  0  0  0  0  0  0  0  0
  146.0040   72.1940  219.6810 N   0  0  0  0  0  0  0  0  0  0  0  0
  145.8640   73.5580  220.2280 C   0  0  0  0  0  0  0  0  0  0  0  0
  144.4170   74.0980  220.2430 C   0  0  0  0  0  0  0  0  0  0  0  0
  141.8240   72.1640  221.9420 N   0  0  0  0  0  0  0  0  0  0  0  0
  140.6970   72.2950  222.6890 C   0  0  0  0  0  0  0  0  0  0  0  0
  140.2800   71.2410  223.5840 N   0  0  0  0  0  0  0  0  0  0  0  0
  139.0360   70.5000  223.3230 C   0  0  0  0  0  0  0  0  0  0  0  0
  139.1860   69.0400  223.7380 C   0  0  0  0  0  0  0  0  0  0  0  0
  139.6230   68.9530  225.1690 C   0  0  0  0  0  0  0  0  0  0  0  0
  139.2080   67.8770  225.9710 C   0  0  0  0  0  0  0  0  0  0  0  0
  139.6420   67.7770  227.2940 C   0  0  0  0  0  0  0  0  0  0  0  0
  140.5060   68.7400  227.8220 C   0  0  0  0  0  0  0  0  0  0  0  0
  140.9380   69.8040  227.0260 C   0  0  0  0  0  0  0  0  0  0  0  0
  140.4990   69.9220  225.6970 C   0  0  0  0  0  0  0  0  0  0  0  0
  141.0220   71.0540  224.8450 C   0  0  0  0  0  0  0  0  0  0  0  0
  139.9650   73.4360  222.5890 N   0  0  0  0  0  0  0  0  0  0  0  0
  139.3140   76.2110  220.2570 C   0  0  0  0  0  0  0  0  0  0  0  0
  139.1420   77.7230  220.3550 C   0  0  0  0  0  0  0  0  0  0  0  0
  139.7560   78.1480  221.6870 C   0  0  0  0  0  0  0  0  0  0  0  0
  140.3120   76.8850  222.3330 C   0  0  0  0  0  0  0  0  0  0  0  0
  138.3930   74.7440  222.9250 H   0  0  0  0  0  0  0  0  0  0  0  0
  143.5150   70.9224  220.0743 H   0  0  0  0  0  0  0  0  0  0  0  0
  142.7828   71.8505  218.7064 H   0  0  0  0  0  0  0  0  0  0  0  0
  145.1298   70.8570  218.3119 H   0  0  0  0  0  0  0  0  0  0  0  0
  144.9029   72.6049  217.9395 H   0  0  0  0  0  0  0  0  0  0  0  0
  145.9850   71.5070  220.4730 H   0  0  0  0  0  0  0  0  0  0  0  0
  146.2395   73.5535  221.2619 H   0  0  0  0  0  0  0  0  0  0  0  0
  146.4380   74.2212  219.5641 H   0  0  0  0  0  0  0  0  0  0  0  0
  144.2925   74.7609  221.1120 H   0  0  0  0  0  0  0  0  0  0  0  0
  144.2442   74.6441  219.3039 H   0  0  0  0  0  0  0  0  0  0  0  0
  138.2157   70.9567  223.8962 H   0  0  0  0  0  0  0  0  0  0  0  0
  138.8161   70.5426  222.2460 H   0  0  0  0  0  0  0  0  0  0  0  0
  138.2198   68.5275  223.6210 H   0  0  0  0  0  0  0  0  0  0  0  0
  139.9438   68.5608  223.1007 H   0  0  0  0  0  0  0  0  0  0  0  0
  138.5383   67.1100  225.5548 H   0  0  0  0  0  0  0  0  0  0  0  0
  139.3035   66.9393  227.9215 H   0  0  0  0  0  0  0  0  0  0  0  0
  140.8463   68.6604  228.8650 H   0  0  0  0  0  0  0  0  0  0  0  0
  141.6263   70.5540  227.4428 H   0  0  0  0  0  0  0  0  0  0  0  0
  140.9570   71.9851  225.4271 H   0  0  0  0  0  0  0  0  0  0  0  0
  142.0570   70.7992  224.5733 H   0  0  0  0  0  0  0  0  0  0  0  0
  140.1765   75.9641  219.6205 H   0  0  0  0  0  0  0  0  0  0  0  0
  138.4318   75.7316  219.8077 H   0  0  0  0  0  0  0  0  0  0  0  0
  139.6623   78.2187  219.5222 H   0  0  0  0  0  0  0  0  0  0  0  0
  138.0802   78.0052  220.3003 H   0  0  0  0  0  0  0  0  0  0  0  0
  140.5640   78.8749  221.5177 H   0  0  0  0  0  0  0  0  0  0  0  0
  139.0068   78.6276  222.3340 H   0  0  0  0  0  0  0  0  0  0  0  0
  141.3900   76.7948  222.1333 H   0  0  0  0  0  0  0  0  0  0  0  0
  140.1860   76.8988  223.4257 H   0  0  0  0  0  0  0  0  0  0  0  0
  1  2  1  0
  2  3  1  0
  3  4  2  0
  4  5  1  0
  5  6  1  0
  6  7  1  0
  7  8  1  0
  8  9  1  0
  9 10  1  0
 10 11  1  0
  5 12  2  0
 12 13  1  0
 13 14  1  0
 14 15  1  0
 15 16  1  0
 16 17  1  0
 17 18  2  0
 18 19  1  0
 19 20  2  0
 20 21  1  0
 21 22  2  0
 22 23  1  0
 13 24  2  0
  2 25  1  0
 25 26  1  0
 26 27  1  0
 27 28  1  0
 28  2  1  0
 24  3  1  0
 11  6  1  0
 23 14  1  0
 22 17  1  0
  1 29  1  0
  7 30  1  0
  7 31  1  0
  8 32  1  0
  8 33  1  0
  9 34  1  0
 10 35  1  0
 10 36  1  0
 11 37  1  0
 11 38  1  0
 15 39  1  0
 15 40  1  0
 16 41  1  0
 16 42  1  0
 18 43  1  0
 19 44  1  0
 20 45  1  0
 21 46  1  0
 23 47  1  0
 23 48  1  0
 25 49  1  0
 25 50  1  0
 26 51  1  0
 26 52  1  0
 27 53  1  0
 27 54  1  0
 28 55  1  0
 28 56  1  0
M  END
>  <UniqueID>  (26) 
511

>  <SMILES>  (26) 
OC1(c2nc(N3CCNCC3)nc(N3CCc4ccccc4C3)n2)CCCC1

>  <Energy>  (26) 
68.3109644264867

>  <Genealogy>  (26) 
OC1(c2nc(N3CCNCC3)nc(N3CCc4ccccc4C3)n2)CCCC1 (3D coordinates assigned)
OC1(c2nc(N3CCNCC3)nc(N3CCc4ccccc4C3)n2)CCCC1 (nonaromatic ring conformer: 68.3109644264867 kcal/mol)

>  <smiles>  (26) 
OC1(c2nc(N3CCNCC3)nc(N3CCc4ccccc4C3)n2)CCCC1

>  <score_type>  (26) 
oracle

>  <origin>  (26) 
autodockgpu

>  <m_score__min__energy>  (26) 
-8.8599999999999994

>  <m_primary>  (26) 
energy

>  <meeko>  (26) 
{"free_energy": -8.85, "intermolecular_energy": -10.05, "internal_energy": -1.5, "cluster_size": 20, "cluster_id": 1, "rank_in_cluster": 13}

>  <energy>  (26) 
-8.86

>  <cluster_rmsd>  (26) 
0.04

>  <rmsd>  (26) 
271.1

>  <cluster>  (26) 
1

$$$$
AUISRQYXECVJTM-UHFFFAOYNA-N
     RDKit          3D

 56 60  0  0  0  0  0  0  0  0999 V2000
  138.3400   75.5390  222.3550 O   0  0  0  0  0  0  0  0  0  0  0  0
  139.5670   75.6920  221.6840 C   0  0  0  0  0  0  0  0  0  0  0  0
  140.3490   74.3940  221.7410 C   0  0  0  0  0  0  0  0  0  0  0  0
  141.4880   74.2460  221.0150 N   0  0  0  0  0  0  0  0  0  0  0  0
  142.2250   73.1090  221.1060 C   0  0  0  0  0  0  0  0  0  0  0  0
  143.4250   72.9460  220.3220 N   0  0  0  0  0  0  0  0  0  0  0  0
  143.5840   71.7400  219.4980 C   0  0  0  0  0  0  0  0  0  0  0  0
  144.9270   71.7480  218.7640 C   0  0  0  0  0  0  0  0  0  0  0  0
  146.0020   72.1420  219.6800 N   0  0  0  0  0  0  0  0  0  0  0  0
  145.8480   73.5240  220.1750 C   0  0  0  0  0  0  0  0  0  0  0  0
  144.3930   74.0440  220.1840 C   0  0  0  0  0  0  0  0  0  0  0  0
  141.8220   72.1230  221.9520 N   0  0  0  0  0  0  0  0  0  0  0  0
  140.7000   72.2670  222.7040 C   0  0  0  0  0  0  0  0  0  0  0  0
  140.2830   71.2230  223.6100 N   0  0  0  0  0  0  0  0  0  0  0  0
  139.0420   70.4740  223.3540 C   0  0  0  0  0  0  0  0  0  0  0  0
  139.1960   69.0200  223.7880 C   0  0  0  0  0  0  0  0  0  0  0  0
  139.6270   68.9530  225.2220 C   0  0  0  0  0  0  0  0  0  0  0  0
  139.2120   67.8860  226.0360 C   0  0  0  0  0  0  0  0  0  0  0  0
  139.6410   67.8040  227.3620 C   0  0  0  0  0  0  0  0  0  0  0  0
  140.4990   68.7760  227.8800 C   0  0  0  0  0  0  0  0  0  0  0  0
  140.9310   69.8320  227.0730 C   0  0  0  0  0  0  0  0  0  0  0  0
  140.4970   69.9310  225.7410 C   0  0  0  0  0  0  0  0  0  0  0  0
  141.0200   71.0540  224.8770 C   0  0  0  0  0  0  0  0  0  0  0  0
  139.9730   73.4110  222.5980 N   0  0  0  0  0  0  0  0  0  0  0  0
  139.3320   76.1750  220.2470 C   0  0  0  0  0  0  0  0  0  0  0  0
  139.1680   77.6880  220.3380 C   0  0  0  0  0  0  0  0  0  0  0  0
  139.7830   78.1160  221.6680 C   0  0  0  0  0  0  0  0  0  0  0  0
  140.3320   76.8540  222.3200 C   0  0  0  0  0  0  0  0  0  0  0  0
  138.4370   74.7880  222.9990 H   0  0  0  0  0  0  0  0  0  0  0  0
  143.5340   70.8527  220.1462 H   0  0  0  0  0  0  0  0  0  0  0  0
  142.7772   71.7184  218.7506 H   0  0  0  0  0  0  0  0  0  0  0  0
  145.1335   70.7407  218.3732 H   0  0  0  0  0  0  0  0  0  0  0  0
  144.8789   72.4697  217.9352 H   0  0  0  0  0  0  0  0  0  0  0  0
  146.0000   71.4860  220.4970 H   0  0  0  0  0  0  0  0  0  0  0  0
  146.2337   73.5650  221.2043 H   0  0  0  0  0  0  0  0  0  0  0  0
  146.4059   74.1688  219.4800 H   0  0  0  0  0  0  0  0  0  0  0  0
  144.2676   74.7382  221.0280 H   0  0  0  0  0  0  0  0  0  0  0  0
  144.2035   74.5505  219.2261 H   0  0  0  0  0  0  0  0  0  0  0  0
  138.2181   70.9349  223.9186 H   0  0  0  0  0  0  0  0  0  0  0  0
  138.8256   70.5023  222.2759 H   0  0  0  0  0  0  0  0  0  0  0  0
  138.2323   68.5021  223.6732 H   0  0  0  0  0  0  0  0  0  0  0  0
  139.9584   68.5358  223.1601 H   0  0  0  0  0  0  0  0  0  0  0  0
  138.5462   67.1118  225.6269 H   0  0  0  0  0  0  0  0  0  0  0  0
  139.3029   66.9733  227.9989 H   0  0  0  0  0  0  0  0  0  0  0  0
  140.8355   68.7105  228.9252 H   0  0  0  0  0  0  0  0  0  0  0  0
  141.6147   70.5898  227.4833 H   0  0  0  0  0  0  0  0  0  0  0  0
  140.9494   71.9921  225.4471 H   0  0  0  0  0  0  0  0  0  0  0  0
  142.0570   70.7990  224.6130 H   0  0  0  0  0  0  0  0  0  0  0  0
  140.1934   75.9207  219.6119 H   0  0  0  0  0  0  0  0  0  0  0  0
  138.4473   75.6984  219.7996 H   0  0  0  0  0  0  0  0  0  0  0  0
  139.6915   78.1771  219.5033 H   0  0  0  0  0  0  0  0  0  0  0  0
  138.1077   77.9755  220.2813 H   0  0  0  0  0  0  0  0  0  0  0  0
  140.5947   78.8381  221.4958 H   0  0  0  0  0  0  0  0  0  0  0  0
  139.0357   78.6023  222.3122 H   0  0  0  0  0  0  0  0  0  0  0  0
  141.4097   76.7577  222.1217 H   0  0  0  0  0  0  0  0  0  0  0  0
  140.2049   76.8737  223.4125 H   0  0  0  0  0  0  0  0  0  0  0  0
  1  2  1  0
  2  3  1  0
  3  4  2  0
  4  5  1  0
  5  6  1  0
  6  7  1  0
  7  8  1  0
  8  9  1  0
  9 10  1  0
 10 11  1  0
  5 12  2  0
 12 13  1  0
 13 14  1  0
 14 15  1  0
 15 16  1  0
 16 17  1  0
 17 18  2  0
 18 19  1  0
 19 20  2  0
 20 21  1  0
 21 22  2  0
 22 23  1  0
 13 24  2  0
  2 25  1  0
 25 26  1  0
 26 27  1  0
 27 28  1  0
 28  2  1  0
 24  3  1  0
 11  6  1  0
 23 14  1  0
 22 17  1  0
  1 29  1  0
  7 30  1  0
  7 31  1  0
  8 32  1  0
  8 33  1  0
  9 34  1  0
 10 35  1  0
 10 36  1  0
 11 37  1  0
 11 38  1  0
 15 39  1  0
 15 40  1  0
 16 41  1  0
 16 42  1  0
 18 43  1  0
 19 44  1  0
 20 45  1  0
 21 46  1  0
 23 47  1  0
 23 48  1  0
 25 49  1  0
 25 50  1  0
 26 51  1  0
 26 52  1  0
 27 53  1  0
 27 54  1  0
 28 55  1  0
 28 56  1  0
M  END
>  <UniqueID>  (27) 
511

>  <SMILES>  (27) 
OC1(c2nc(N3CCNCC3)nc(N3CCc4ccccc4C3)n2)CCCC1

>  <Energy>  (27) 
68.3109644264867

>  <Genealogy>  (27) 
OC1(c2nc(N3CCNCC3)nc(N3CCc4ccccc4C3)n2)CCCC1 (3D coordinates assigned)
OC1(c2nc(N3CCNCC3)nc(N3CCc4ccccc4C3)n2)CCCC1 (nonaromatic ring conformer: 68.3109644264867 kcal/mol)

>  <smiles>  (27) 
OC1(c2nc(N3CCNCC3)nc(N3CCc4ccccc4C3)n2)CCCC1

>  <score_type>  (27) 
oracle

>  <origin>  (27) 
autodockgpu

>  <m_score__min__energy>  (27) 
-8.8599999999999994

>  <m_primary>  (27) 
energy

>  <meeko>  (27) 
{"free_energy": -8.85, "intermolecular_energy": -10.05, "internal_energy": -1.5, "cluster_size": 20, "cluster_id": 1, "rank_in_cluster": 11}

>  <energy>  (27) 
-8.86

>  <cluster_rmsd>  (27) 
0.02

>  <rmsd>  (27) 
271.08

>  <cluster>  (27) 
1

$$$$
AUISRQYXECVJTM-UHFFFAOYNA-N
     RDKit          3D

 56 60  0  0  0  0  0  0  0  0999 V2000
  138.3120   75.5410  222.3780 O   0  0  0  0  0  0  0  0  0  0  0  0
  139.5320   75.7050  221.6940 C   0  0  0  0  0  0  0  0  0  0  0  0
  140.3290   74.4170  221.7510 C   0  0  0  0  0  0  0  0  0  0  0  0
  141.4750   74.2860  221.0340 N   0  0  0  0  0  0  0  0  0  0  0  0
  142.2260   73.1580  221.1250 C   0  0  0  0  0  0  0  0  0  0  0  0
  143.4350   73.0140  220.3510 N   0  0  0  0  0  0  0  0  0  0  0  0
  143.5900   71.8450  219.4750 C   0  0  0  0  0  0  0  0  0  0  0  0
  144.9430   71.8690  218.7600 C   0  0  0  0  0  0  0  0  0  0  0  0
  146.0100   72.2050  219.7080 N   0  0  0  0  0  0  0  0  0  0  0  0
  145.8670   73.5650  220.2650 C   0  0  0  0  0  0  0  0  0  0  0  0
  144.4190   74.1040  220.2780 C   0  0  0  0  0  0  0  0  0  0  0  0
  141.8280   72.1630  221.9620 N   0  0  0  0  0  0  0  0  0  0  0  0
  140.6970   72.2880  222.7050 C   0  0  0  0  0  0  0  0  0  0  0  0
  140.2850   71.2340  223.6010 N   0  0  0  0  0  0  0  0  0  0  0  0
  139.0430   70.4880  223.3430 C   0  0  0  0  0  0  0  0  0  0  0  0
  139.1980   69.0290  223.7590 C   0  0  0  0  0  0  0  0  0  0  0  0
  139.6370   68.9450  225.1900 C   0  0  0  0  0  0  0  0  0  0  0  0
  139.2270   67.8690  225.9930 C   0  0  0  0  0  0  0  0  0  0  0  0
  139.6630   67.7710  227.3160 C   0  0  0  0  0  0  0  0  0  0  0  0
  140.5250   68.7370  227.8410 C   0  0  0  0  0  0  0  0  0  0  0  0
  140.9520   69.8020  227.0440 C   0  0  0  0  0  0  0  0  0  0  0  0
  140.5110   69.9170  225.7160 C   0  0  0  0  0  0  0  0  0  0  0  0
  141.0300   71.0500  224.8610 C   0  0  0  0  0  0  0  0  0  0  0  0
  139.9580   73.4230  222.5990 N   0  0  0  0  0  0  0  0  0  0  0  0
  139.2770   76.1770  220.2570 C   0  0  0  0  0  0  0  0  0  0  0  0
  139.0960   77.6880  220.3410 C   0  0  0  0  0  0  0  0  0  0  0  0
  139.7190   78.1310  221.6630 C   0  0  0  0  0  0  0  0  0  0  0  0
  140.2890   76.8790  222.3170 C   0  0  0  0  0  0  0  0  0  0  0  0
  138.3980   74.7460  222.9680 H   0  0  0  0  0  0  0  0  0  0  0  0
  143.5200   70.9298  220.0812 H   0  0  0  0  0  0  0  0  0  0  0  0
  142.7933   71.8679  218.7169 H   0  0  0  0  0  0  0  0  0  0  0  0
  145.1419   70.8784  218.3250 H   0  0  0  0  0  0  0  0  0  0  0  0
  144.9159   72.6291  217.9653 H   0  0  0  0  0  0  0  0  0  0  0  0
  145.9870   71.5120  220.4950 H   0  0  0  0  0  0  0  0  0  0  0  0
  146.2382   73.5528  221.3004 H   0  0  0  0  0  0  0  0  0  0  0  0
  146.4434   74.2336  219.6088 H   0  0  0  0  0  0  0  0  0  0  0  0
  144.2903   74.7598  221.1517 H   0  0  0  0  0  0  0  0  0  0  0  0
  144.2500   74.6572  219.3424 H   0  0  0  0  0  0  0  0  0  0  0  0
  138.2222   70.9425  223.9171 H   0  0  0  0  0  0  0  0  0  0  0  0
  138.8217   70.5286  222.2663 H   0  0  0  0  0  0  0  0  0  0  0  0
  138.2332   68.5133  223.6436 H   0  0  0  0  0  0  0  0  0  0  0  0
  139.9564   68.5515  223.1212 H   0  0  0  0  0  0  0  0  0  0  0  0
  138.5593   67.0996  225.5782 H   0  0  0  0  0  0  0  0  0  0  0  0
  139.3277   66.9331  227.9449 H   0  0  0  0  0  0  0  0  0  0  0  0
  140.8679   68.6589  228.8833 H   0  0  0  0  0  0  0  0  0  0  0  0
  141.6379   70.5550  227.4594 H   0  0  0  0  0  0  0  0  0  0  0  0
  140.9640   71.9816  225.4422 H   0  0  0  0  0  0  0  0  0  0  0  0
  142.0650   70.7971  224.5875 H   0  0  0  0  0  0  0  0  0  0  0  0
  140.1350   75.9293  219.6147 H   0  0  0  0  0  0  0  0  0  0  0  0
  138.3935   75.6875  219.8213 H   0  0  0  0  0  0  0  0  0  0  0  0
  139.6055   78.1784  219.4985 H   0  0  0  0  0  0  0  0  0  0  0  0
  138.0319   77.9626  220.2930 H   0  0  0  0  0  0  0  0  0  0  0  0
  140.5206   78.8614  221.4788 H   0  0  0  0  0  0  0  0  0  0  0  0
  138.9723   78.6123  222.3117 H   0  0  0  0  0  0  0  0  0  0  0  0
  141.3659   76.7943  222.1095 H   0  0  0  0  0  0  0  0  0  0  0  0
  140.1718   76.9031  223.4105 H   0  0  0  0  0  0  0  0  0  0  0  0
  1  2  1  0
  2  3  1  0
  3  4  2  0
  4  5  1  0
  5  6  1  0
  6  7  1  0
  7  8  1  0
  8  9  1  0
  9 10  1  0
 10 11  1  0
  5 12  2  0
 12 13  1  0
 13 14  1  0
 14 15  1  0
 15 16  1  0
 16 17  1  0
 17 18  2  0
 18 19  1  0
 19 20  2  0
 20 21  1  0
 21 22  2  0
 22 23  1  0
 13 24  2  0
  2 25  1  0
 25 26  1  0
 26 27  1  0
 27 28  1  0
 28  2  1  0
 24  3  1  0
 11  6  1  0
 23 14  1  0
 22 17  1  0
  1 29  1  0
  7 30  1  0
  7 31  1  0
  8 32  1  0
  8 33  1  0
  9 34  1  0
 10 35  1  0
 10 36  1  0
 11 37  1  0
 11 38  1  0
 15 39  1  0
 15 40  1  0
 16 41  1  0
 16 42  1  0
 18 43  1  0
 19 44  1  0
 20 45  1  0
 21 46  1  0
 23 47  1  0
 23 48  1  0
 25 49  1  0
 25 50  1  0
 26 51  1  0
 26 52  1  0
 27 53  1  0
 27 54  1  0
 28 55  1  0
 28 56  1  0
M  END
>  <UniqueID>  (28) 
511

>  <SMILES>  (28) 
OC1(c2nc(N3CCNCC3)nc(N3CCc4ccccc4C3)n2)CCCC1

>  <Energy>  (28) 
68.3109644264867

>  <Genealogy>  (28) 
OC1(c2nc(N3CCNCC3)nc(N3CCc4ccccc4C3)n2)CCCC1 (3D coordinates assigned)
OC1(c2nc(N3CCNCC3)nc(N3CCc4ccccc4C3)n2)CCCC1 (nonaromatic ring conformer: 68.3109644264867 kcal/mol)

>  <smiles>  (28) 
OC1(c2nc(N3CCNCC3)nc(N3CCc4ccccc4C3)n2)CCCC1

>  <score_type>  (28) 
oracle

>  <origin>  (28) 
autodockgpu

>  <m_score__min__energy>  (28) 
-8.8599999999999994

>  <m_primary>  (28) 
energy

>  <meeko>  (28) 
{"free_energy": -8.85, "intermolecular_energy": -10.04, "internal_energy": -1.5, "cluster_size": 20, "cluster_id": 1, "rank_in_cluster": 15}

>  <energy>  (28) 
-8.86

>  <cluster_rmsd>  (28) 
0.02

>  <rmsd>  (28) 
271.08

>  <cluster>  (28) 
1

$$$$
AUISRQYXECVJTM-UHFFFAOYNA-N
     RDKit          3D

 56 60  0  0  0  0  0  0  0  0999 V2000
  138.2890   75.5170  222.3300 O   0  0  0  0  0  0  0  0  0  0  0  0
  139.5250   75.6850  221.6780 C   0  0  0  0  0  0  0  0  0  0  0  0
  140.3160   74.3930  221.7370 C   0  0  0  0  0  0  0  0  0  0  0  0
  141.4570   74.2530  221.0140 N   0  0  0  0  0  0  0  0  0  0  0  0
  142.2020   73.1210  221.1070 C   0  0  0  0  0  0  0  0  0  0  0  0
  143.4060   72.9670  220.3260 N   0  0  0  0  0  0  0  0  0  0  0  0
  143.5670   71.7710  219.4870 C   0  0  0  0  0  0  0  0  0  0  0  0
  144.9130   71.7880  218.7590 C   0  0  0  0  0  0  0  0  0  0  0  0
  145.9850   72.1680  219.6850 N   0  0  0  0  0  0  0  0  0  0  0  0
  145.8290   73.5440  220.1980 C   0  0  0  0  0  0  0  0  0  0  0  0
  144.3760   74.0650  220.2070 C   0  0  0  0  0  0  0  0  0  0  0  0
  141.8040   72.1320  221.9510 N   0  0  0  0  0  0  0  0  0  0  0  0
  140.6790   72.2680  222.7010 C   0  0  0  0  0  0  0  0  0  0  0  0
  140.2670   71.2210  223.6050 N   0  0  0  0  0  0  0  0  0  0  0  0
  139.0190   70.4800  223.3590 C   0  0  0  0  0  0  0  0  0  0  0  0
  139.1700   69.0230  223.7830 C   0  0  0  0  0  0  0  0  0  0  0  0
  139.6170   68.9440  225.2110 C   0  0  0  0  0  0  0  0  0  0  0  0
  139.2060   67.8750  226.0230 C   0  0  0  0  0  0  0  0  0  0  0  0
  139.6500   67.7830  227.3440 C   0  0  0  0  0  0  0  0  0  0  0  0
  140.5200   68.7470  227.8580 C   0  0  0  0  0  0  0  0  0  0  0  0
  140.9480   69.8050  227.0520 C   0  0  0  0  0  0  0  0  0  0  0  0
  140.4990   69.9150  225.7260 C   0  0  0  0  0  0  0  0  0  0  0  0
  141.0180   71.0410  224.8620 C   0  0  0  0  0  0  0  0  0  0  0  0
  139.9450   73.4070  222.5930 N   0  0  0  0  0  0  0  0  0  0  0  0
  139.3070   76.1760  220.2420 C   0  0  0  0  0  0  0  0  0  0  0  0
  139.1300   77.6880  220.3410 C   0  0  0  0  0  0  0  0  0  0  0  0
  139.7220   78.1100  221.6830 C   0  0  0  0  0  0  0  0  0  0  0  0
  140.2710   76.8470  222.3340 C   0  0  0  0  0  0  0  0  0  0  0  0
  138.3620   74.7220  222.9220 H   0  0  0  0  0  0  0  0  0  0  0  0
  143.5137   70.8754  220.1235 H   0  0  0  0  0  0  0  0  0  0  0  0
  142.7630   71.7591  218.7363 H   0  0  0  0  0  0  0  0  0  0  0  0
  145.1202   70.7861  218.3548 H   0  0  0  0  0  0  0  0  0  0  0  0
  144.8690   72.5215  217.9404 H   0  0  0  0  0  0  0  0  0  0  0  0
  145.9780   71.5020  220.4940 H   0  0  0  0  0  0  0  0  0  0  0  0
  146.2096   73.5708  221.2297 H   0  0  0  0  0  0  0  0  0  0  0  0
  146.3905   74.1975  219.5141 H   0  0  0  0  0  0  0  0  0  0  0  0
  144.2475   74.7483  221.0594 H   0  0  0  0  0  0  0  0  0  0  0  0
  144.1917   74.5840  219.2548 H   0  0  0  0  0  0  0  0  0  0  0  0
  138.2041   70.9421  223.9355 H   0  0  0  0  0  0  0  0  0  0  0  0
  138.7905   70.5155  222.2836 H   0  0  0  0  0  0  0  0  0  0  0  0
  138.2022   68.5112  223.6763 H   0  0  0  0  0  0  0  0  0  0  0  0
  139.9229   68.5390  223.1436 H   0  0  0  0  0  0  0  0  0  0  0  0
  138.5315   67.1067  225.6171 H   0  0  0  0  0  0  0  0  0  0  0  0
  139.3142   66.9507  227.9800 H   0  0  0  0  0  0  0  0  0  0  0  0
  140.8687   68.6733  228.8987 H   0  0  0  0  0  0  0  0  0  0  0  0
  141.6409   70.5564  227.4586 H   0  0  0  0  0  0  0  0  0  0  0  0
  140.9589   71.9761  225.4383 H   0  0  0  0  0  0  0  0  0  0  0  0
  142.0505   70.7824  224.5844 H   0  0  0  0  0  0  0  0  0  0  0  0
  140.1793   75.9327  219.6176 H   0  0  0  0  0  0  0  0  0  0  0  0
  138.4324   75.6959  219.7788 H   0  0  0  0  0  0  0  0  0  0  0  0
  139.6622   78.1870  219.5178 H   0  0  0  0  0  0  0  0  0  0  0  0
  138.0687   77.9684  220.2701 H   0  0  0  0  0  0  0  0  0  0  0  0
  140.5307   78.8394  221.5283 H   0  0  0  0  0  0  0  0  0  0  0  0
  138.9614   78.5856  222.3197 H   0  0  0  0  0  0  0  0  0  0  0  0
  141.3523   76.7604  222.1514 H   0  0  0  0  0  0  0  0  0  0  0  0
  140.1275   76.8573  223.4245 H   0  0  0  0  0  0  0  0  0  0  0  0
  1  2  1  0
  2  3  1  0
  3  4  2  0
  4  5  1  0
  5  6  1  0
  6  7  1  0
  7  8  1  0
  8  9  1  0
  9 10  1  0
 10 11  1  0
  5 12  2  0
 12 13  1  0
 13 14  1  0
 14 15  1  0
 15 16  1  0
 16 17  1  0
 17 18  2  0
 18 19  1  0
 19 20  2  0
 20 21  1  0
 21 22  2  0
 22 23  1  0
 13 24  2  0
  2 25  1  0
 25 26  1  0
 26 27  1  0
 27 28  1  0
 28  2  1  0
 24  3  1  0
 11  6  1  0
 23 14  1  0
 22 17  1  0
  1 29  1  0
  7 30  1  0
  7 31  1  0
  8 32  1  0
  8 33  1  0
  9 34  1  0
 10 35  1  0
 10 36  1  0
 11 37  1  0
 11 38  1  0
 15 39  1  0
 15 40  1  0
 16 41  1  0
 16 42  1  0
 18 43  1  0
 19 44  1  0
 20 45  1  0
 21 46  1  0
 23 47  1  0
 23 48  1  0
 25 49  1  0
 25 50  1  0
 26 51  1  0
 26 52  1  0
 27 53  1  0
 27 54  1  0
 28 55  1  0
 28 56  1  0
M  END
>  <UniqueID>  (29) 
511

>  <SMILES>  (29) 
OC1(c2nc(N3CCNCC3)nc(N3CCc4ccccc4C3)n2)CCCC1

>  <Energy>  (29) 
68.3109644264867

>  <Genealogy>  (29) 
OC1(c2nc(N3CCNCC3)nc(N3CCc4ccccc4C3)n2)CCCC1 (3D coordinates assigned)
OC1(c2nc(N3CCNCC3)nc(N3CCc4ccccc4C3)n2)CCCC1 (nonaromatic ring conformer: 68.3109644264867 kcal/mol)

>  <smiles>  (29) 
OC1(c2nc(N3CCNCC3)nc(N3CCc4ccccc4C3)n2)CCCC1

>  <score_type>  (29) 
oracle

>  <origin>  (29) 
autodockgpu

>  <m_score__min__energy>  (29) 
-8.8599999999999994

>  <m_primary>  (29) 
energy

>  <meeko>  (29) 
{"free_energy": -8.85, "intermolecular_energy": -10.05, "internal_energy": -1.5, "cluster_size": 20, "cluster_id": 1, "rank_in_cluster": 10}

>  <energy>  (29) 
-8.85

>  <cluster_rmsd>  (29) 
0.03

>  <rmsd>  (29) 
271.09

>  <cluster>  (29) 
1

$$$$
AUISRQYXECVJTM-UHFFFAOYNA-N
     RDKit          3D

 56 60  0  0  0  0  0  0  0  0999 V2000
  138.2980   75.5160  222.3560 O   0  0  0  0  0  0  0  0  0  0  0  0
  139.5300   75.6760  221.6930 C   0  0  0  0  0  0  0  0  0  0  0  0
  140.3170   74.3820  221.7540 C   0  0  0  0  0  0  0  0  0  0  0  0
  141.4590   74.2380  221.0320 N   0  0  0  0  0  0  0  0  0  0  0  0
  142.2010   73.1040  221.1270 C   0  0  0  0  0  0  0  0  0  0  0  0
  143.4050   72.9460  220.3470 N   0  0  0  0  0  0  0  0  0  0  0  0
  143.5730   71.7380  219.5270 C   0  0  0  0  0  0  0  0  0  0  0  0
  144.9190   71.7520  218.7970 C   0  0  0  0  0  0  0  0  0  0  0  0
  145.9880   72.1550  219.7160 N   0  0  0  0  0  0  0  0  0  0  0  0
  145.8240   73.5370  220.2060 C   0  0  0  0  0  0  0  0  0  0  0  0
  144.3670   74.0490  220.2090 C   0  0  0  0  0  0  0  0  0  0  0  0
  141.7990   72.1170  221.9720 N   0  0  0  0  0  0  0  0  0  0  0  0
  140.6740   72.2560  222.7200 C   0  0  0  0  0  0  0  0  0  0  0  0
  140.2580   71.2110  223.6250 N   0  0  0  0  0  0  0  0  0  0  0  0
  139.0070   70.4760  223.3800 C   0  0  0  0  0  0  0  0  0  0  0  0
  139.1510   69.0180  223.8040 C   0  0  0  0  0  0  0  0  0  0  0  0
  139.6000   68.9380  225.2320 C   0  0  0  0  0  0  0  0  0  0  0  0
  139.1850   67.8710  226.0450 C   0  0  0  0  0  0  0  0  0  0  0  0
  139.6300   67.7770  227.3650 C   0  0  0  0  0  0  0  0  0  0  0  0
  140.5050   68.7370  227.8780 C   0  0  0  0  0  0  0  0  0  0  0  0
  140.9360   69.7930  227.0710 C   0  0  0  0  0  0  0  0  0  0  0  0
  140.4860   69.9050  225.7460 C   0  0  0  0  0  0  0  0  0  0  0  0
  141.0100   71.0280  224.8810 C   0  0  0  0  0  0  0  0  0  0  0  0
  139.9430   73.3970  222.6110 N   0  0  0  0  0  0  0  0  0  0  0  0
  139.3030   76.1590  220.2550 C   0  0  0  0  0  0  0  0  0  0  0  0
  139.1310   77.6720  220.3460 C   0  0  0  0  0  0  0  0  0  0  0  0
  139.7350   78.1010  221.6810 C   0  0  0  0  0  0  0  0  0  0  0  0
  140.2850   76.8400  222.3360 C   0  0  0  0  0  0  0  0  0  0  0  0
  138.3620   74.7040  222.9250 H   0  0  0  0  0  0  0  0  0  0  0  0
  143.5261   70.8523  220.1777 H   0  0  0  0  0  0  0  0  0  0  0  0
  142.7685   71.7091  218.7774 H   0  0  0  0  0  0  0  0  0  0  0  0
  145.1330   70.7449  218.4096 H   0  0  0  0  0  0  0  0  0  0  0  0
  144.8696   72.4708  217.9658 H   0  0  0  0  0  0  0  0  0  0  0  0
  145.9870   71.5020  220.5350 H   0  0  0  0  0  0  0  0  0  0  0  0
  146.2062   73.5834  221.2364 H   0  0  0  0  0  0  0  0  0  0  0  0
  146.3801   74.1826  219.5103 H   0  0  0  0  0  0  0  0  0  0  0  0
  144.2351   74.7449  221.0507 H   0  0  0  0  0  0  0  0  0  0  0  0
  144.1776   74.5521  219.2493 H   0  0  0  0  0  0  0  0  0  0  0  0
  138.1946   70.9420  223.9570 H   0  0  0  0  0  0  0  0  0  0  0  0
  138.7783   70.5124  222.3047 H   0  0  0  0  0  0  0  0  0  0  0  0
  138.1804   68.5111  223.6990 H   0  0  0  0  0  0  0  0  0  0  0  0
  139.9000   68.5294  223.1635 H   0  0  0  0  0  0  0  0  0  0  0  0
  138.5063   67.1058  225.6401 H   0  0  0  0  0  0  0  0  0  0  0  0
  139.2912   66.9462  228.0014 H   0  0  0  0  0  0  0  0  0  0  0  0
  140.8551   68.6617  228.9181 H   0  0  0  0  0  0  0  0  0  0  0  0
  141.6325   70.5416  227.4766 H   0  0  0  0  0  0  0  0  0  0  0  0
  140.9566   71.9636  225.4570 H   0  0  0  0  0  0  0  0  0  0  0  0
  142.0409   70.7643  224.6023 H   0  0  0  0  0  0  0  0  0  0  0  0
  140.1701   75.9094  219.6259 H   0  0  0  0  0  0  0  0  0  0  0  0
  138.4238   75.6786  219.8010 H   0  0  0  0  0  0  0  0  0  0  0  0
  139.6580   78.1644  219.5154 H   0  0  0  0  0  0  0  0  0  0  0  0
  138.0699   77.9549  220.2819 H   0  0  0  0  0  0  0  0  0  0  0  0
  140.5449   78.8267  221.5153 H   0  0  0  0  0  0  0  0  0  0  0  0
  138.9811   78.5833  222.3205 H   0  0  0  0  0  0  0  0  0  0  0  0
  141.3645   76.7487  222.1456 H   0  0  0  0  0  0  0  0  0  0  0  0
  140.1499   76.8577  223.4275 H   0  0  0  0  0  0  0  0  0  0  0  0
  1  2  1  0
  2  3  1  0
  3  4  2  0
  4  5  1  0
  5  6  1  0
  6  7  1  0
  7  8  1  0
  8  9  1  0
  9 10  1  0
 10 11  1  0
  5 12  2  0
 12 13  1  0
 13 14  1  0
 14 15  1  0
 15 16  1  0
 16 17  1  0
 17 18  2  0
 18 19  1  0
 19 20  2  0
 20 21  1  0
 21 22  2  0
 22 23  1  0
 13 24  2  0
  2 25  1  0
 25 26  1  0
 26 27  1  0
 27 28  1  0
 28  2  1  0
 24  3  1  0
 11  6  1  0
 23 14  1  0
 22 17  1  0
  1 29  1  0
  7 30  1  0
  7 31  1  0
  8 32  1  0
  8 33  1  0
  9 34  1  0
 10 35  1  0
 10 36  1  0
 11 37  1  0
 11 38  1  0
 15 39  1  0
 15 40  1  0
 16 41  1  0
 16 42  1  0
 18 43  1  0
 19 44  1  0
 20 45  1  0
 21 46  1  0
 23 47  1  0
 23 48  1  0
 25 49  1  0
 25 50  1  0
 26 51  1  0
 26 52  1  0
 27 53  1  0
 27 54  1  0
 28 55  1  0
 28 56  1  0
M  END
>  <UniqueID>  (30) 
511

>  <SMILES>  (30) 
OC1(c2nc(N3CCNCC3)nc(N3CCc4ccccc4C3)n2)CCCC1

>  <Energy>  (30) 
68.3109644264867

>  <Genealogy>  (30) 
OC1(c2nc(N3CCNCC3)nc(N3CCc4ccccc4C3)n2)CCCC1 (3D coordinates assigned)
OC1(c2nc(N3CCNCC3)nc(N3CCc4ccccc4C3)n2)CCCC1 (nonaromatic ring conformer: 68.3109644264867 kcal/mol)

>  <smiles>  (30) 
OC1(c2nc(N3CCNCC3)nc(N3CCc4ccccc4C3)n2)CCCC1

>  <score_type>  (30) 
oracle

>  <origin>  (30) 
autodockgpu

>  <m_score__min__energy>  (30) 
-8.8599999999999994

>  <m_primary>  (30) 
energy

>  <meeko>  (30) 
{"free_energy": -8.86, "intermolecular_energy": -10.05, "internal_energy": -1.5, "cluster_size": 20, "cluster_id": 1, "rank_in_cluster": 7}

>  <energy>  (30) 
-8.85

>  <cluster_rmsd>  (30) 
0.03

>  <rmsd>  (30) 
271.07

>  <cluster>  (30) 
1

$$$$
AUISRQYXECVJTM-UHFFFAOYNA-N
     RDKit          3D

 56 60  0  0  0  0  0  0  0  0999 V2000
  138.3330   75.5330  222.3790 O   0  0  0  0  0  0  0  0  0  0  0  0
  139.5610   75.6800  221.7060 C   0  0  0  0  0  0  0  0  0  0  0  0
  140.3360   74.3790  221.7640 C   0  0  0  0  0  0  0  0  0  0  0  0
  141.4740   74.2240  221.0370 N   0  0  0  0  0  0  0  0  0  0  0  0
  142.2050   73.0830  221.1280 C   0  0  0  0  0  0  0  0  0  0  0  0
  143.4040   72.9140  220.3440 N   0  0  0  0  0  0  0  0  0  0  0  0
  143.5840   71.6790  219.5690 C   0  0  0  0  0  0  0  0  0  0  0  0
  144.9230   71.6860  218.8260 C   0  0  0  0  0  0  0  0  0  0  0  0
  145.9940   72.1400  219.7180 N   0  0  0  0  0  0  0  0  0  0  0  0
  145.8130   73.5370  220.1580 C   0  0  0  0  0  0  0  0  0  0  0  0
  144.3480   74.0260  220.1550 C   0  0  0  0  0  0  0  0  0  0  0  0
  141.7980   72.1010  221.9750 N   0  0  0  0  0  0  0  0  0  0  0  0
  140.6770   72.2500  222.7280 C   0  0  0  0  0  0  0  0  0  0  0  0
  140.2550   71.2090  223.6350 N   0  0  0  0  0  0  0  0  0  0  0  0
  139.0090   70.4680  223.3810 C   0  0  0  0  0  0  0  0  0  0  0  0
  139.1540   69.0130  223.8150 C   0  0  0  0  0  0  0  0  0  0  0  0
  139.5880   68.9420  225.2470 C   0  0  0  0  0  0  0  0  0  0  0  0
  139.1680   67.8780  226.0620 C   0  0  0  0  0  0  0  0  0  0  0  0
  139.6000   67.7930  227.3870 C   0  0  0  0  0  0  0  0  0  0  0  0
  140.4660   68.7590  227.9040 C   0  0  0  0  0  0  0  0  0  0  0  0
  140.9030   69.8120  227.0960 C   0  0  0  0  0  0  0  0  0  0  0  0
  140.4660   69.9150  225.7650 C   0  0  0  0  0  0  0  0  0  0  0  0
  140.9950   71.0350  224.8990 C   0  0  0  0  0  0  0  0  0  0  0  0
  139.9560   73.3980  222.6220 N   0  0  0  0  0  0  0  0  0  0  0  0
  139.3270   76.1630  220.2690 C   0  0  0  0  0  0  0  0  0  0  0  0
  139.1700   77.6770  220.3590 C   0  0  0  0  0  0  0  0  0  0  0  0
  139.7890   78.1030  221.6880 C   0  0  0  0  0  0  0  0  0  0  0  0
  140.3320   76.8380  222.3410 C   0  0  0  0  0  0  0  0  0  0  0  0
  138.4000   74.7320  222.9630 H   0  0  0  0  0  0  0  0  0  0  0  0
  143.5570   70.8181  220.2532 H   0  0  0  0  0  0  0  0  0  0  0  0
  142.7734   71.6092  218.8287 H   0  0  0  0  0  0  0  0  0  0  0  0
  145.1492   70.6683  218.4751 H   0  0  0  0  0  0  0  0  0  0  0  0
  144.8545   72.3720  217.9689 H   0  0  0  0  0  0  0  0  0  0  0  0
  146.0110   71.5180  220.5620 H   0  0  0  0  0  0  0  0  0  0  0  0
  146.2031   73.6276  221.1825 H   0  0  0  0  0  0  0  0  0  0  0  0
  146.3533   74.1649  219.4342 H   0  0  0  0  0  0  0  0  0  0  0  0
  144.2125   74.7515  220.9707 H   0  0  0  0  0  0  0  0  0  0  0  0
  144.1425   74.4887  219.1784 H   0  0  0  0  0  0  0  0  0  0  0  0
  138.1889   70.9343  223.9467 H   0  0  0  0  0  0  0  0  0  0  0  0
  138.7914   70.4974  222.3031 H   0  0  0  0  0  0  0  0  0  0  0  0
  138.1864   68.5020  223.7026 H   0  0  0  0  0  0  0  0  0  0  0  0
  139.9118   68.5240  223.1852 H   0  0  0  0  0  0  0  0  0  0  0  0
  138.4959   67.1084  225.6547 H   0  0  0  0  0  0  0  0  0  0  0  0
  139.2579   66.9643  228.0243 H   0  0  0  0  0  0  0  0  0  0  0  0
  140.8045   68.6909  228.9484 H   0  0  0  0  0  0  0  0  0  0  0  0
  141.5933   70.5647  227.5046 H   0  0  0  0  0  0  0  0  0  0  0  0
  140.9331   71.9735  225.4694 H   0  0  0  0  0  0  0  0  0  0  0  0
  142.0293   70.7729  224.6318 H   0  0  0  0  0  0  0  0  0  0  0  0
  140.1867   75.9043  219.6333 H   0  0  0  0  0  0  0  0  0  0  0  0
  138.4397   75.6902  219.8228 H   0  0  0  0  0  0  0  0  0  0  0  0
  139.6945   78.1631  219.5232 H   0  0  0  0  0  0  0  0  0  0  0  0
  138.1110   77.9694  220.3035 H   0  0  0  0  0  0  0  0  0  0  0  0
  140.6045   78.8204  221.5141 H   0  0  0  0  0  0  0  0  0  0  0  0
  139.0452   78.5941  222.3326 H   0  0  0  0  0  0  0  0  0  0  0  0
  141.4091   76.7361  222.1425 H   0  0  0  0  0  0  0  0  0  0  0  0
  140.2054   76.8590  223.4335 H   0  0  0  0  0  0  0  0  0  0  0  0
  1  2  1  0
  2  3  1  0
  3  4  2  0
  4  5  1  0
  5  6  1  0
  6  7  1  0
  7  8  1  0
  8  9  1  0
  9 10  1  0
 10 11  1  0
  5 12  2  0
 12 13  1  0
 13 14  1  0
 14 15  1  0
 15 16  1  0
 16 17  1  0
 17 18  2  0
 18 19  1  0
 19 20  2  0
 20 21  1  0
 21 22  2  0
 22 23  1  0
 13 24  2  0
  2 25  1  0
 25 26  1  0
 26 27  1  0
 27 28  1  0
 28  2  1  0
 24  3  1  0
 11  6  1  0
 23 14  1  0
 22 17  1  0
  1 29  1  0
  7 30  1  0
  7 31  1  0
  8 32  1  0
  8 33  1  0
  9 34  1  0
 10 35  1  0
 10 36  1  0
 11 37  1  0
 11 38  1  0
 15 39  1  0
 15 40  1  0
 16 41  1  0
 16 42  1  0
 18 43  1  0
 19 44  1  0
 20 45  1  0
 21 46  1  0
 23 47  1  0
 23 48  1  0
 25 49  1  0
 25 50  1  0
 26 51  1  0
 26 52  1  0
 27 53  1  0
 27 54  1  0
 28 55  1  0
 28 56  1  0
M  END
>  <UniqueID>  (31) 
511

>  <SMILES>  (31) 
OC1(c2nc(N3CCNCC3)nc(N3CCc4ccccc4C3)n2)CCCC1

>  <Energy>  (31) 
68.3109644264867

>  <Genealogy>  (31) 
OC1(c2nc(N3CCNCC3)nc(N3CCc4ccccc4C3)n2)CCCC1 (3D coordinates assigned)
OC1(c2nc(N3CCNCC3)nc(N3CCc4ccccc4C3)n2)CCCC1 (nonaromatic ring conformer: 68.3109644264867 kcal/mol)

>  <smiles>  (31) 
OC1(c2nc(N3CCNCC3)nc(N3CCc4ccccc4C3)n2)CCCC1

>  <score_type>  (31) 
oracle

>  <origin>  (31) 
autodockgpu

>  <m_score__min__energy>  (31) 
-8.8599999999999994

>  <m_primary>  (31) 
energy

>  <meeko>  (31) 
{"free_energy": -8.86, "intermolecular_energy": -10.05, "internal_energy": -1.5, "cluster_size": 20, "cluster_id": 1, "rank_in_cluster": 6}

>  <energy>  (31) 
-8.85

>  <cluster_rmsd>  (31) 
0.04

>  <rmsd>  (31) 
271.09

>  <cluster>  (31) 
1

$$$$
AUISRQYXECVJTM-UHFFFAOYNA-N
     RDKit          3D

 56 60  0  0  0  0  0  0  0  0999 V2000
  138.3130   75.5360  222.3710 O   0  0  0  0  0  0  0  0  0  0  0  0
  139.5400   75.6920  221.6990 C   0  0  0  0  0  0  0  0  0  0  0  0
  140.3250   74.3960  221.7570 C   0  0  0  0  0  0  0  0  0  0  0  0
  141.4640   74.2500  221.0310 N   0  0  0  0  0  0  0  0  0  0  0  0
  142.2040   73.1150  221.1220 C   0  0  0  0  0  0  0  0  0  0  0  0
  143.4050   72.9550  220.3390 N   0  0  0  0  0  0  0  0  0  0  0  0
  143.5650   71.7520  219.5110 C   0  0  0  0  0  0  0  0  0  0  0  0
  144.9090   71.7640  218.7780 C   0  0  0  0  0  0  0  0  0  0  0  0
  145.9830   72.1550  219.6960 N   0  0  0  0  0  0  0  0  0  0  0  0
  145.8280   73.5350  220.1960 C   0  0  0  0  0  0  0  0  0  0  0  0
  144.3730   74.0540  220.2050 C   0  0  0  0  0  0  0  0  0  0  0  0
  141.8040   72.1290  221.9680 N   0  0  0  0  0  0  0  0  0  0  0  0
  140.6810   72.2690  222.7200 C   0  0  0  0  0  0  0  0  0  0  0  0
  140.2660   71.2240  223.6260 N   0  0  0  0  0  0  0  0  0  0  0  0
  139.0200   70.4830  223.3770 C   0  0  0  0  0  0  0  0  0  0  0  0
  139.1690   69.0270  223.8050 C   0  0  0  0  0  0  0  0  0  0  0  0
  139.6120   68.9520  225.2350 C   0  0  0  0  0  0  0  0  0  0  0  0
  139.1980   67.8840  226.0480 C   0  0  0  0  0  0  0  0  0  0  0  0
  139.6390   67.7960  227.3710 C   0  0  0  0  0  0  0  0  0  0  0  0
  140.5060   68.7610  227.8850 C   0  0  0  0  0  0  0  0  0  0  0  0
  140.9360   69.8180  227.0780 C   0  0  0  0  0  0  0  0  0  0  0  0
  140.4920   69.9240  225.7500 C   0  0  0  0  0  0  0  0  0  0  0  0
  141.0130   71.0480  224.8850 C   0  0  0  0  0  0  0  0  0  0  0  0
  139.9510   73.4110  222.6140 N   0  0  0  0  0  0  0  0  0  0  0  0
  139.3020   76.1720  220.2620 C   0  0  0  0  0  0  0  0  0  0  0  0
  139.1340   77.6850  220.3510 C   0  0  0  0  0  0  0  0  0  0  0  0
  139.7500   78.1160  221.6810 C   0  0  0  0  0  0  0  0  0  0  0  0
  140.3030   76.8560  222.3330 C   0  0  0  0  0  0  0  0  0  0  0  0
  138.3670   74.7040  222.9130 H   0  0  0  0  0  0  0  0  0  0  0  0
  143.5152   70.8624  220.1560 H   0  0  0  0  0  0  0  0  0  0  0  0
  142.7586   71.7320  218.7631 H   0  0  0  0  0  0  0  0  0  0  0  0
  145.1165   70.7585  218.3833 H   0  0  0  0  0  0  0  0  0  0  0  0
  144.8610   72.4892  217.9523 H   0  0  0  0  0  0  0  0  0  0  0  0
  145.9810   71.4960  220.5120 H   0  0  0  0  0  0  0  0  0  0  0  0
  146.2124   73.5724  221.2260 H   0  0  0  0  0  0  0  0  0  0  0  0
  146.3867   74.1827  219.5044 H   0  0  0  0  0  0  0  0  0  0  0  0
  144.2464   74.7458  221.0508 H   0  0  0  0  0  0  0  0  0  0  0  0
  144.1842   74.5629  219.2482 H   0  0  0  0  0  0  0  0  0  0  0  0
  138.2028   70.9465  223.9491 H   0  0  0  0  0  0  0  0  0  0  0  0
  138.7960   70.5159  222.3006 H   0  0  0  0  0  0  0  0  0  0  0  0
  138.2013   68.5154  223.6968 H   0  0  0  0  0  0  0  0  0  0  0  0
  139.9233   68.5407  223.1690 H   0  0  0  0  0  0  0  0  0  0  0  0
  138.5247   67.1147  225.6420 H   0  0  0  0  0  0  0  0  0  0  0  0
  139.3023   66.9649  228.0081 H   0  0  0  0  0  0  0  0  0  0  0  0
  140.8515   68.6897  228.9269 H   0  0  0  0  0  0  0  0  0  0  0  0
  141.6263   70.5713  227.4855 H   0  0  0  0  0  0  0  0  0  0  0  0
  140.9516   71.9845  225.4588 H   0  0  0  0  0  0  0  0  0  0  0  0
  142.0466   70.7896  224.6113 H   0  0  0  0  0  0  0  0  0  0  0  0
  140.1633   75.9191  219.6262 H   0  0  0  0  0  0  0  0  0  0  0  0
  138.4181   75.6923  219.8164 H   0  0  0  0  0  0  0  0  0  0  0  0
  139.6553   78.1744  219.5151 H   0  0  0  0  0  0  0  0  0  0  0  0
  138.0730   77.9699  220.2948 H   0  0  0  0  0  0  0  0  0  0  0  0
  140.5596   78.8401  221.5073 H   0  0  0  0  0  0  0  0  0  0  0  0
  139.0023   78.6009  222.3258 H   0  0  0  0  0  0  0  0  0  0  0  0
  141.3806   76.7622  222.1331 H   0  0  0  0  0  0  0  0  0  0  0  0
  140.1776   76.8761  223.4256 H   0  0  0  0  0  0  0  0  0  0  0  0
  1  2  1  0
  2  3  1  0
  3  4  2  0
  4  5  1  0
  5  6  1  0
  6  7  1  0
  7  8  1  0
  8  9  1  0
  9 10  1  0
 10 11  1  0
  5 12  2  0
 12 13  1  0
 13 14  1  0
 14 15  1  0
 15 16  1  0
 16 17  1  0
 17 18  2  0
 18 19  1  0
 19 20  2  0
 20 21  1  0
 21 22  2  0
 22 23  1  0
 13 24  2  0
  2 25  1  0
 25 26  1  0
 26 27  1  0
 27 28  1  0
 28  2  1  0
 24  3  1  0
 11  6  1  0
 23 14  1  0
 22 17  1  0
  1 29  1  0
  7 30  1  0
  7 31  1  0
  8 32  1  0
  8 33  1  0
  9 34  1  0
 10 35  1  0
 10 36  1  0
 11 37  1  0
 11 38  1  0
 15 39  1  0
 15 40  1  0
 16 41  1  0
 16 42  1  0
 18 43  1  0
 19 44  1  0
 20 45  1  0
 21 46  1  0
 23 47  1  0
 23 48  1  0
 25 49  1  0
 25 50  1  0
 26 51  1  0
 26 52  1  0
 27 53  1  0
 27 54  1  0
 28 55  1  0
 28 56  1  0
M  END
>  <UniqueID>  (32) 
511

>  <SMILES>  (32) 
OC1(c2nc(N3CCNCC3)nc(N3CCc4ccccc4C3)n2)CCCC1

>  <Energy>  (32) 
68.3109644264867

>  <Genealogy>  (32) 
OC1(c2nc(N3CCNCC3)nc(N3CCc4ccccc4C3)n2)CCCC1 (3D coordinates assigned)
OC1(c2nc(N3CCNCC3)nc(N3CCc4ccccc4C3)n2)CCCC1 (nonaromatic ring conformer: 68.3109644264867 kcal/mol)

>  <smiles>  (32) 
OC1(c2nc(N3CCNCC3)nc(N3CCc4ccccc4C3)n2)CCCC1

>  <score_type>  (32) 
oracle

>  <origin>  (32) 
autodockgpu

>  <m_score__min__energy>  (32) 
-8.8599999999999994

>  <m_primary>  (32) 
energy

>  <meeko>  (32) 
{"free_energy": -8.86, "intermolecular_energy": -10.05, "internal_energy": -1.5, "cluster_size": 20, "cluster_id": 1, "rank_in_cluster": 1}

>  <energy>  (32) 
-8.85

>  <cluster_rmsd>  (32) 
0.05

>  <rmsd>  (32) 
271.1

>  <cluster>  (32) 
1

$$$$
AUISRQYXECVJTM-UHFFFAOYNA-N
     RDKit          3D

 56 60  0  0  0  0  0  0  0  0999 V2000
  138.3340   75.5540  222.3590 O   0  0  0  0  0  0  0  0  0  0  0  0
  139.5580   75.7050  221.6820 C   0  0  0  0  0  0  0  0  0  0  0  0
  140.3440   74.4100  221.7470 C   0  0  0  0  0  0  0  0  0  0  0  0
  141.4850   74.2620  221.0250 N   0  0  0  0  0  0  0  0  0  0  0  0
  142.2260   73.1280  221.1240 C   0  0  0  0  0  0  0  0  0  0  0  0
  143.4300   72.9660  220.3450 N   0  0  0  0  0  0  0  0  0  0  0  0
  143.6000   71.7520  219.5350 C   0  0  0  0  0  0  0  0  0  0  0  0
  144.9460   71.7630  218.8050 C   0  0  0  0  0  0  0  0  0  0  0  0
  146.0150   72.1750  219.7200 N   0  0  0  0  0  0  0  0  0  0  0  0
  145.8480   73.5610  220.1990 C   0  0  0  0  0  0  0  0  0  0  0  0
  144.3890   74.0700  220.1980 C   0  0  0  0  0  0  0  0  0  0  0  0
  141.8230   72.1440  221.9720 N   0  0  0  0  0  0  0  0  0  0  0  0
  140.6970   72.2870  222.7190 C   0  0  0  0  0  0  0  0  0  0  0  0
  140.2790   71.2450  223.6270 N   0  0  0  0  0  0  0  0  0  0  0  0
  139.0480   70.4840  223.3620 C   0  0  0  0  0  0  0  0  0  0  0  0
  139.2090   69.0340  223.8070 C   0  0  0  0  0  0  0  0  0  0  0  0
  139.6260   68.9790  225.2460 C   0  0  0  0  0  0  0  0  0  0  0  0
  139.2110   67.9140  226.0620 C   0  0  0  0  0  0  0  0  0  0  0  0
  139.6270   67.8440  227.3930 C   0  0  0  0  0  0  0  0  0  0  0  0
  140.4710   68.8270  227.9140 C   0  0  0  0  0  0  0  0  0  0  0  0
  140.9020   69.8810  227.1050 C   0  0  0  0  0  0  0  0  0  0  0  0
  140.4820   69.9690  225.7680 C   0  0  0  0  0  0  0  0  0  0  0  0
  141.0050   71.0910  224.9020 C   0  0  0  0  0  0  0  0  0  0  0  0
  139.9670   73.4290  222.6060 N   0  0  0  0  0  0  0  0  0  0  0  0
  139.3160   76.1750  220.2420 C   0  0  0  0  0  0  0  0  0  0  0  0
  139.1470   77.6880  220.3200 C   0  0  0  0  0  0  0  0  0  0  0  0
  139.7680   78.1290  221.6440 C   0  0  0  0  0  0  0  0  0  0  0  0
  140.3230   76.8740  222.3050 C   0  0  0  0  0  0  0  0  0  0  0  0
  138.4240   74.7870  222.9840 H   0  0  0  0  0  0  0  0  0  0  0  0
  143.5548   70.8715  220.1928 H   0  0  0  0  0  0  0  0  0  0  0  0
  142.7954   71.7152  218.7858 H   0  0  0  0  0  0  0  0  0  0  0  0
  145.1617   70.7534  218.4254 H   0  0  0  0  0  0  0  0  0  0  0  0
  144.8949   72.4757  217.9687 H   0  0  0  0  0  0  0  0  0  0  0  0
  146.0150   71.5280  220.5440 H   0  0  0  0  0  0  0  0  0  0  0  0
  146.2302   73.6165  221.2290 H   0  0  0  0  0  0  0  0  0  0  0  0
  146.4026   74.2023  219.4982 H   0  0  0  0  0  0  0  0  0  0  0  0
  144.2555   74.7723  221.0340 H   0  0  0  0  0  0  0  0  0  0  0  0
  144.1983   74.5650  219.2343 H   0  0  0  0  0  0  0  0  0  0  0  0
  138.2139   70.9415  223.9142 H   0  0  0  0  0  0  0  0  0  0  0  0
  138.8439   70.5035  222.2813 H   0  0  0  0  0  0  0  0  0  0  0  0
  138.2506   68.5079  223.6858 H   0  0  0  0  0  0  0  0  0  0  0  0
  139.9817   68.5521  223.1900 H   0  0  0  0  0  0  0  0  0  0  0  0
  138.5557   67.1320  225.6510 H   0  0  0  0  0  0  0  0  0  0  0  0
  139.2898   67.0142  228.0315 H   0  0  0  0  0  0  0  0  0  0  0  0
  140.7969   68.7712  228.9631 H   0  0  0  0  0  0  0  0  0  0  0  0
  141.5748   70.6470  227.5180 H   0  0  0  0  0  0  0  0  0  0  0  0
  140.9210   72.0322  225.4651 H   0  0  0  0  0  0  0  0  0  0  0  0
  142.0468   70.8435  224.6504 H   0  0  0  0  0  0  0  0  0  0  0  0
  140.1759   75.9182  219.6059 H   0  0  0  0  0  0  0  0  0  0  0  0
  138.4311   75.6916  219.8024 H   0  0  0  0  0  0  0  0  0  0  0  0
  139.6645   78.1716  219.4784 H   0  0  0  0  0  0  0  0  0  0  0  0
  138.0856   77.9719  220.2657 H   0  0  0  0  0  0  0  0  0  0  0  0
  140.5774   78.8512  221.4615 H   0  0  0  0  0  0  0  0  0  0  0  0
  139.0226   78.6192  222.2875 H   0  0  0  0  0  0  0  0  0  0  0  0
  141.4001   76.7786  222.1031 H   0  0  0  0  0  0  0  0  0  0  0  0
  140.2007   76.9028  223.3978 H   0  0  0  0  0  0  0  0  0  0  0  0
  1  2  1  0
  2  3  1  0
  3  4  2  0
  4  5  1  0
  5  6  1  0
  6  7  1  0
  7  8  1  0
  8  9  1  0
  9 10  1  0
 10 11  1  0
  5 12  2  0
 12 13  1  0
 13 14  1  0
 14 15  1  0
 15 16  1  0
 16 17  1  0
 17 18  2  0
 18 19  1  0
 19 20  2  0
 20 21  1  0
 21 22  2  0
 22 23  1  0
 13 24  2  0
  2 25  1  0
 25 26  1  0
 26 27  1  0
 27 28  1  0
 28  2  1  0
 24  3  1  0
 11  6  1  0
 23 14  1  0
 22 17  1  0
  1 29  1  0
  7 30  1  0
  7 31  1  0
  8 32  1  0
  8 33  1  0
  9 34  1  0
 10 35  1  0
 10 36  1  0
 11 37  1  0
 11 38  1  0
 15 39  1  0
 15 40  1  0
 16 41  1  0
 16 42  1  0
 18 43  1  0
 19 44  1  0
 20 45  1  0
 21 46  1  0
 23 47  1  0
 23 48  1  0
 25 49  1  0
 25 50  1  0
 26 51  1  0
 26 52  1  0
 27 53  1  0
 27 54  1  0
 28 55  1  0
 28 56  1  0
M  END
>  <UniqueID>  (33) 
511

>  <SMILES>  (33) 
OC1(c2nc(N3CCNCC3)nc(N3CCc4ccccc4C3)n2)CCCC1

>  <Energy>  (33) 
68.3109644264867

>  <Genealogy>  (33) 
OC1(c2nc(N3CCNCC3)nc(N3CCc4ccccc4C3)n2)CCCC1 (3D coordinates assigned)
OC1(c2nc(N3CCNCC3)nc(N3CCc4ccccc4C3)n2)CCCC1 (nonaromatic ring conformer: 68.3109644264867 kcal/mol)

>  <smiles>  (33) 
OC1(c2nc(N3CCNCC3)nc(N3CCc4ccccc4C3)n2)CCCC1

>  <score_type>  (33) 
oracle

>  <origin>  (33) 
autodockgpu

>  <m_score__min__energy>  (33) 
-8.8599999999999994

>  <m_primary>  (33) 
energy

>  <meeko>  (33) 
{"free_energy": -8.85, "intermolecular_energy": -10.04, "internal_energy": -1.5, "cluster_size": 20, "cluster_id": 1, "rank_in_cluster": 17}

>  <energy>  (33) 
-8.85

>  <cluster_rmsd>  (33) 
0.06

>  <rmsd>  (33) 
271.08

>  <cluster>  (33) 
1

$$$$
AUISRQYXECVJTM-UHFFFAOYNA-N
     RDKit          3D

 56 60  0  0  0  0  0  0  0  0999 V2000
  138.3240   75.5230  222.3440 O   0  0  0  0  0  0  0  0  0  0  0  0
  139.5580   75.6760  221.6850 C   0  0  0  0  0  0  0  0  0  0  0  0
  140.3360   74.3750  221.7430 C   0  0  0  0  0  0  0  0  0  0  0  0
  141.4760   74.2240  221.0200 N   0  0  0  0  0  0  0  0  0  0  0  0
  142.2100   73.0850  221.1130 C   0  0  0  0  0  0  0  0  0  0  0  0
  143.4120   72.9190  220.3330 N   0  0  0  0  0  0  0  0  0  0  0  0
  143.5770   71.7060  219.5210 C   0  0  0  0  0  0  0  0  0  0  0  0
  144.9220   71.7120  218.7890 C   0  0  0  0  0  0  0  0  0  0  0  0
  145.9930   72.1190  219.7040 N   0  0  0  0  0  0  0  0  0  0  0  0
  145.8330   73.5050  220.1850 C   0  0  0  0  0  0  0  0  0  0  0  0
  144.3760   74.0190  220.1860 C   0  0  0  0  0  0  0  0  0  0  0  0
  141.8010   72.1000  221.9560 N   0  0  0  0  0  0  0  0  0  0  0  0
  140.6770   72.2460  222.7050 C   0  0  0  0  0  0  0  0  0  0  0  0
  140.2530   71.2020  223.6080 N   0  0  0  0  0  0  0  0  0  0  0  0
  139.0070   70.4630  223.3510 C   0  0  0  0  0  0  0  0  0  0  0  0
  139.1510   69.0060  223.7800 C   0  0  0  0  0  0  0  0  0  0  0  0
  139.5820   68.9310  225.2130 C   0  0  0  0  0  0  0  0  0  0  0  0
  139.1610   67.8650  226.0250 C   0  0  0  0  0  0  0  0  0  0  0  0
  139.5910   67.7770  227.3500 C   0  0  0  0  0  0  0  0  0  0  0  0
  140.4560   68.7410  227.8710 C   0  0  0  0  0  0  0  0  0  0  0  0
  140.8940   69.7960  227.0660 C   0  0  0  0  0  0  0  0  0  0  0  0
  140.4600   69.9030  225.7350 C   0  0  0  0  0  0  0  0  0  0  0  0
  140.9900   71.0250  224.8730 C   0  0  0  0  0  0  0  0  0  0  0  0
  139.9540   73.3920  222.5980 N   0  0  0  0  0  0  0  0  0  0  0  0
  139.3370   76.1650  220.2480 C   0  0  0  0  0  0  0  0  0  0  0  0
  139.1770   77.6780  220.3440 C   0  0  0  0  0  0  0  0  0  0  0  0
  139.7820   78.0990  221.6810 C   0  0  0  0  0  0  0  0  0  0  0  0
  140.3210   76.8320  222.3330 C   0  0  0  0  0  0  0  0  0  0  0  0
  138.4020   74.7460  222.9590 H   0  0  0  0  0  0  0  0  0  0  0  0
  143.5291   70.8248  220.1776 H   0  0  0  0  0  0  0  0  0  0  0  0
  142.7717   71.6742  218.7724 H   0  0  0  0  0  0  0  0  0  0  0  0
  145.1333   70.7018  218.4083 H   0  0  0  0  0  0  0  0  0  0  0  0
  144.8731   72.4250  217.9528 H   0  0  0  0  0  0  0  0  0  0  0  0
  145.9920   71.4710  220.5280 H   0  0  0  0  0  0  0  0  0  0  0  0
  146.2166   73.5577  221.2146 H   0  0  0  0  0  0  0  0  0  0  0  0
  146.3899   74.1452  219.4850 H   0  0  0  0  0  0  0  0  0  0  0  0
  144.2462   74.7211  221.0228 H   0  0  0  0  0  0  0  0  0  0  0  0
  144.1865   74.5149  219.2226 H   0  0  0  0  0  0  0  0  0  0  0  0
  138.1870   70.9279  223.9180 H   0  0  0  0  0  0  0  0  0  0  0  0
  138.7897   70.4964  222.2732 H   0  0  0  0  0  0  0  0  0  0  0  0
  138.1837   68.4953  223.6639 H   0  0  0  0  0  0  0  0  0  0  0  0
  139.9097   68.5187  223.1500 H   0  0  0  0  0  0  0  0  0  0  0  0
  138.4895   67.0962  225.6149 H   0  0  0  0  0  0  0  0  0  0  0  0
  139.2478   66.9467  227.9847 H   0  0  0  0  0  0  0  0  0  0  0  0
  140.7930   68.6701  228.9157 H   0  0  0  0  0  0  0  0  0  0  0  0
  141.5834   70.5477  227.4779 H   0  0  0  0  0  0  0  0  0  0  0  0
  140.9264   71.9621  225.4456 H   0  0  0  0  0  0  0  0  0  0  0  0
  142.0250   70.7637  224.6073 H   0  0  0  0  0  0  0  0  0  0  0  0
  140.2031   75.9105  219.6194 H   0  0  0  0  0  0  0  0  0  0  0  0
  138.4549   75.6928  219.7909 H   0  0  0  0  0  0  0  0  0  0  0  0
  139.7091   78.1688  219.5158 H   0  0  0  0  0  0  0  0  0  0  0  0
  138.1181   77.9688  220.2797 H   0  0  0  0  0  0  0  0  0  0  0  0
  140.5978   78.8188  221.5186 H   0  0  0  0  0  0  0  0  0  0  0  0
  139.0310   78.5857  222.3206 H   0  0  0  0  0  0  0  0  0  0  0  0
  141.4001   76.7328  222.1442 H   0  0  0  0  0  0  0  0  0  0  0  0
  140.1842   76.8474  223.4243 H   0  0  0  0  0  0  0  0  0  0  0  0
  1  2  1  0
  2  3  1  0
  3  4  2  0
  4  5  1  0
  5  6  1  0
  6  7  1  0
  7  8  1  0
  8  9  1  0
  9 10  1  0
 10 11  1  0
  5 12  2  0
 12 13  1  0
 13 14  1  0
 14 15  1  0
 15 16  1  0
 16 17  1  0
 17 18  2  0
 18 19  1  0
 19 20  2  0
 20 21  1  0
 21 22  2  0
 22 23  1  0
 13 24  2  0
  2 25  1  0
 25 26  1  0
 26 27  1  0
 27 28  1  0
 28  2  1  0
 24  3  1  0
 11  6  1  0
 23 14  1  0
 22 17  1  0
  1 29  1  0
  7 30  1  0
  7 31  1  0
  8 32  1  0
  8 33  1  0
  9 34  1  0
 10 35  1  0
 10 36  1  0
 11 37  1  0
 11 38  1  0
 15 39  1  0
 15 40  1  0
 16 41  1  0
 16 42  1  0
 18 43  1  0
 19 44  1  0
 20 45  1  0
 21 46  1  0
 23 47  1  0
 23 48  1  0
 25 49  1  0
 25 50  1  0
 26 51  1  0
 26 52  1  0
 27 53  1  0
 27 54  1  0
 28 55  1  0
 28 56  1  0
M  END
>  <UniqueID>  (34) 
511

>  <SMILES>  (34) 
OC1(c2nc(N3CCNCC3)nc(N3CCc4ccccc4C3)n2)CCCC1

>  <Energy>  (34) 
68.3109644264867

>  <Genealogy>  (34) 
OC1(c2nc(N3CCNCC3)nc(N3CCc4ccccc4C3)n2)CCCC1 (3D coordinates assigned)
OC1(c2nc(N3CCNCC3)nc(N3CCc4ccccc4C3)n2)CCCC1 (nonaromatic ring conformer: 68.3109644264867 kcal/mol)

>  <smiles>  (34) 
OC1(c2nc(N3CCNCC3)nc(N3CCc4ccccc4C3)n2)CCCC1

>  <score_type>  (34) 
oracle

>  <origin>  (34) 
autodockgpu

>  <m_score__min__energy>  (34) 
-8.8599999999999994

>  <m_primary>  (34) 
energy

>  <meeko>  (34) 
{"free_energy": -8.85, "intermolecular_energy": -10.04, "internal_energy": -1.5, "cluster_size": 20, "cluster_id": 1, "rank_in_cluster": 18}

>  <energy>  (34) 
-8.85

>  <cluster_rmsd>  (34) 
0.04

>  <rmsd>  (34) 
271.09

>  <cluster>  (34) 
1

$$$$
AUISRQYXECVJTM-UHFFFAOYNA-N
     RDKit          3D

 56 60  0  0  0  0  0  0  0  0999 V2000
  138.3140   75.5360  222.3730 O   0  0  0  0  0  0  0  0  0  0  0  0
  139.5450   75.6970  221.7100 C   0  0  0  0  0  0  0  0  0  0  0  0
  140.3290   74.4000  221.7610 C   0  0  0  0  0  0  0  0  0  0  0  0
  141.4700   74.2580  221.0380 N   0  0  0  0  0  0  0  0  0  0  0  0
  142.2090   73.1220  221.1250 C   0  0  0  0  0  0  0  0  0  0  0  0
  143.4130   72.9660  220.3440 N   0  0  0  0  0  0  0  0  0  0  0  0
  143.5840   71.7590  219.5250 C   0  0  0  0  0  0  0  0  0  0  0  0
  144.9290   71.7760  218.7940 C   0  0  0  0  0  0  0  0  0  0  0  0
  145.9980   72.1820  219.7120 N   0  0  0  0  0  0  0  0  0  0  0  0
  145.8310   73.5640  220.2020 C   0  0  0  0  0  0  0  0  0  0  0  0
  144.3720   74.0720  220.2050 C   0  0  0  0  0  0  0  0  0  0  0  0
  141.8050   72.1300  221.9620 N   0  0  0  0  0  0  0  0  0  0  0  0
  140.6790   72.2660  222.7110 C   0  0  0  0  0  0  0  0  0  0  0  0
  140.2600   71.2160  223.6080 N   0  0  0  0  0  0  0  0  0  0  0  0
  139.0120   70.4800  223.3520 C   0  0  0  0  0  0  0  0  0  0  0  0
  139.1560   69.0200  223.7680 C   0  0  0  0  0  0  0  0  0  0  0  0
  139.5970   68.9320  225.1980 C   0  0  0  0  0  0  0  0  0  0  0  0
  139.1790   67.8590  226.0020 C   0  0  0  0  0  0  0  0  0  0  0  0
  139.6170   67.7590  227.3240 C   0  0  0  0  0  0  0  0  0  0  0  0
  140.4870   68.7180  227.8480 C   0  0  0  0  0  0  0  0  0  0  0  0
  140.9210   69.7800  227.0500 C   0  0  0  0  0  0  0  0  0  0  0  0
  140.4790   69.8980  225.7220 C   0  0  0  0  0  0  0  0  0  0  0  0
  141.0050   71.0270  224.8670 C   0  0  0  0  0  0  0  0  0  0  0  0
  139.9510   73.4100  222.6100 N   0  0  0  0  0  0  0  0  0  0  0  0
  139.3170   76.1900  220.2760 C   0  0  0  0  0  0  0  0  0  0  0  0
  139.1500   77.7030  220.3770 C   0  0  0  0  0  0  0  0  0  0  0  0
  139.7570   78.1210  221.7140 C   0  0  0  0  0  0  0  0  0  0  0  0
  140.3050   76.8550  222.3590 C   0  0  0  0  0  0  0  0  0  0  0  0
  138.4080   74.7780  223.0090 H   0  0  0  0  0  0  0  0  0  0  0  0
  143.5400   70.8736  220.1762 H   0  0  0  0  0  0  0  0  0  0  0  0
  142.7792   71.7278  218.7758 H   0  0  0  0  0  0  0  0  0  0  0  0
  145.1451   70.7693  218.4068 H   0  0  0  0  0  0  0  0  0  0  0  0
  144.8771   72.4944  217.9626 H   0  0  0  0  0  0  0  0  0  0  0  0
  145.9990   71.5290  220.5320 H   0  0  0  0  0  0  0  0  0  0  0  0
  146.2132   73.6115  221.2324 H   0  0  0  0  0  0  0  0  0  0  0  0
  146.3856   74.2111  219.5065 H   0  0  0  0  0  0  0  0  0  0  0  0
  144.2383   74.7680  221.0462 H   0  0  0  0  0  0  0  0  0  0  0  0
  144.1809   74.5739  219.2450 H   0  0  0  0  0  0  0  0  0  0  0  0
  138.1956   70.9411  223.9273 H   0  0  0  0  0  0  0  0  0  0  0  0
  138.7894   70.5221  222.2756 H   0  0  0  0  0  0  0  0  0  0  0  0
  138.1869   68.5122  223.6544 H   0  0  0  0  0  0  0  0  0  0  0  0
  139.9095   68.5366  223.1289 H   0  0  0  0  0  0  0  0  0  0  0  0
  138.5043   67.0948  225.5888 H   0  0  0  0  0  0  0  0  0  0  0  0
  139.2765   66.9238  227.9537 H   0  0  0  0  0  0  0  0  0  0  0  0
  140.8308   68.6372  228.8898 H   0  0  0  0  0  0  0  0  0  0  0  0
  141.6129   70.5280  227.4644 H   0  0  0  0  0  0  0  0  0  0  0  0
  140.9461   71.9590  225.4483 H   0  0  0  0  0  0  0  0  0  0  0  0
  142.0380   70.7672  224.5926 H   0  0  0  0  0  0  0  0  0  0  0  0
  140.1822   75.9417  219.6437 H   0  0  0  0  0  0  0  0  0  0  0  0
  138.4354   75.7154  219.8206 H   0  0  0  0  0  0  0  0  0  0  0  0
  139.6776   78.1991  219.5491 H   0  0  0  0  0  0  0  0  0  0  0  0
  138.0898   77.9899  220.3159 H   0  0  0  0  0  0  0  0  0  0  0  0
  140.5683   78.8460  221.5522 H   0  0  0  0  0  0  0  0  0  0  0  0
  139.0050   78.6003  222.3581 H   0  0  0  0  0  0  0  0  0  0  0  0
  141.3838   76.7620  222.1653 H   0  0  0  0  0  0  0  0  0  0  0  0
  140.1727   76.8659  223.4510 H   0  0  0  0  0  0  0  0  0  0  0  0
  1  2  1  0
  2  3  1  0
  3  4  2  0
  4  5  1  0
  5  6  1  0
  6  7  1  0
  7  8  1  0
  8  9  1  0
  9 10  1  0
 10 11  1  0
  5 12  2  0
 12 13  1  0
 13 14  1  0
 14 15  1  0
 15 16  1  0
 16 17  1  0
 17 18  2  0
 18 19  1  0
 19 20  2  0
 20 21  1  0
 21 22  2  0
 22 23  1  0
 13 24  2  0
  2 25  1  0
 25 26  1  0
 26 27  1  0
 27 28  1  0
 28  2  1  0
 24  3  1  0
 11  6  1  0
 23 14  1  0
 22 17  1  0
  1 29  1  0
  7 30  1  0
  7 31  1  0
  8 32  1  0
  8 33  1  0
  9 34  1  0
 10 35  1  0
 10 36  1  0
 11 37  1  0
 11 38  1  0
 15 39  1  0
 15 40  1  0
 16 41  1  0
 16 42  1  0
 18 43  1  0
 19 44  1  0
 20 45  1  0
 21 46  1  0
 23 47  1  0
 23 48  1  0
 25 49  1  0
 25 50  1  0
 26 51  1  0
 26 52  1  0
 27 53  1  0
 27 54  1  0
 28 55  1  0
 28 56  1  0
M  END
>  <UniqueID>  (35) 
511

>  <SMILES>  (35) 
OC1(c2nc(N3CCNCC3)nc(N3CCc4ccccc4C3)n2)CCCC1

>  <Energy>  (35) 
68.3109644264867

>  <Genealogy>  (35) 
OC1(c2nc(N3CCNCC3)nc(N3CCc4ccccc4C3)n2)CCCC1 (3D coordinates assigned)
OC1(c2nc(N3CCNCC3)nc(N3CCc4ccccc4C3)n2)CCCC1 (nonaromatic ring conformer: 68.3109644264867 kcal/mol)

>  <smiles>  (35) 
OC1(c2nc(N3CCNCC3)nc(N3CCc4ccccc4C3)n2)CCCC1

>  <score_type>  (35) 
oracle

>  <origin>  (35) 
autodockgpu

>  <m_score__min__energy>  (35) 
-8.8599999999999994

>  <m_primary>  (35) 
energy

>  <meeko>  (35) 
{"free_energy": -8.85, "intermolecular_energy": -10.05, "internal_energy": -1.5, "cluster_size": 20, "cluster_id": 1, "rank_in_cluster": 14}

>  <energy>  (35) 
-8.85

>  <cluster_rmsd>  (35) 
0.05

>  <rmsd>  (35) 
271.09

>  <cluster>  (35) 
1

$$$$
AUISRQYXECVJTM-UHFFFAOYNA-N
     RDKit          3D

 56 60  0  0  0  0  0  0  0  0999 V2000
  138.3150   75.5330  222.3860 O   0  0  0  0  0  0  0  0  0  0  0  0
  139.5390   75.6880  221.7070 C   0  0  0  0  0  0  0  0  0  0  0  0
  140.3220   74.3900  221.7600 C   0  0  0  0  0  0  0  0  0  0  0  0
  141.4590   74.2440  221.0300 N   0  0  0  0  0  0  0  0  0  0  0  0
  142.1970   73.1070  221.1180 C   0  0  0  0  0  0  0  0  0  0  0  0
  143.3950   72.9470  220.3300 N   0  0  0  0  0  0  0  0  0  0  0  0
  143.5440   71.7520  219.4880 C   0  0  0  0  0  0  0  0  0  0  0  0
  144.8860   71.7610  218.7530 C   0  0  0  0  0  0  0  0  0  0  0  0
  145.9650   72.1320  219.6740 N   0  0  0  0  0  0  0  0  0  0  0  0
  145.8220   73.5070  220.1900 C   0  0  0  0  0  0  0  0  0  0  0  0
  144.3720   74.0390  220.2090 C   0  0  0  0  0  0  0  0  0  0  0  0
  141.7970   72.1200  221.9630 N   0  0  0  0  0  0  0  0  0  0  0  0
  140.6770   72.2610  222.7190 C   0  0  0  0  0  0  0  0  0  0  0  0
  140.2630   71.2160  223.6240 N   0  0  0  0  0  0  0  0  0  0  0  0
  139.0150   70.4760  223.3780 C   0  0  0  0  0  0  0  0  0  0  0  0
  139.1640   69.0190  223.8030 C   0  0  0  0  0  0  0  0  0  0  0  0
  139.6100   68.9420  225.2320 C   0  0  0  0  0  0  0  0  0  0  0  0
  139.1970   67.8730  226.0450 C   0  0  0  0  0  0  0  0  0  0  0  0
  139.6400   67.7830  227.3660 C   0  0  0  0  0  0  0  0  0  0  0  0
  140.5100   68.7470  227.8800 C   0  0  0  0  0  0  0  0  0  0  0  0
  140.9400   69.8040  227.0730 C   0  0  0  0  0  0  0  0  0  0  0  0
  140.4920   69.9130  225.7470 C   0  0  0  0  0  0  0  0  0  0  0  0
  141.0130   71.0360  224.8820 C   0  0  0  0  0  0  0  0  0  0  0  0
  139.9490   73.4050  222.6170 N   0  0  0  0  0  0  0  0  0  0  0  0
  139.2950   76.1690  220.2720 C   0  0  0  0  0  0  0  0  0  0  0  0
  139.1300   77.6820  220.3620 C   0  0  0  0  0  0  0  0  0  0  0  0
  139.7530   78.1110  221.6890 C   0  0  0  0  0  0  0  0  0  0  0  0
  140.3070   76.8500  222.3380 C   0  0  0  0  0  0  0  0  0  0  0  0
  138.3720   74.7040  222.9310 H   0  0  0  0  0  0  0  0  0  0  0  0
  143.4880   70.8556  220.1231 H   0  0  0  0  0  0  0  0  0  0  0  0
  142.7363   71.7473  218.7413 H   0  0  0  0  0  0  0  0  0  0  0  0
  145.0842   70.7584  218.3461 H   0  0  0  0  0  0  0  0  0  0  0  0
  144.8429   72.4961  217.9358 H   0  0  0  0  0  0  0  0  0  0  0  0
  145.9580   71.4630  220.4810 H   0  0  0  0  0  0  0  0  0  0  0  0
  146.2091   73.5292  221.2194 H   0  0  0  0  0  0  0  0  0  0  0  0
  146.3839   74.1576  219.5037 H   0  0  0  0  0  0  0  0  0  0  0  0
  144.2532   74.7204  221.0644 H   0  0  0  0  0  0  0  0  0  0  0  0
  144.1859   74.5628  219.2598 H   0  0  0  0  0  0  0  0  0  0  0  0
  138.2002   70.9393  223.9538 H   0  0  0  0  0  0  0  0  0  0  0  0
  138.7874   70.5108  222.3024 H   0  0  0  0  0  0  0  0  0  0  0  0
  138.1958   68.5080  223.6961 H   0  0  0  0  0  0  0  0  0  0  0  0
  139.9164   68.5330  223.1645 H   0  0  0  0  0  0  0  0  0  0  0  0
  138.5225   67.1045  225.6394 H   0  0  0  0  0  0  0  0  0  0  0  0
  139.3033   66.9516  228.0028 H   0  0  0  0  0  0  0  0  0  0  0  0
  140.8572   68.6743  228.9212 H   0  0  0  0  0  0  0  0  0  0  0  0
  141.6336   70.5549  227.4792 H   0  0  0  0  0  0  0  0  0  0  0  0
  140.9554   71.9720  225.4570 H   0  0  0  0  0  0  0  0  0  0  0  0
  142.0450   70.7747  224.6051 H   0  0  0  0  0  0  0  0  0  0  0  0
  140.1528   75.9149  219.6320 H   0  0  0  0  0  0  0  0  0  0  0  0
  138.4079   75.6911  219.8307 H   0  0  0  0  0  0  0  0  0  0  0  0
  139.6483   78.1708  219.5238 H   0  0  0  0  0  0  0  0  0  0  0  0
  138.0694   77.9690  220.3107 H   0  0  0  0  0  0  0  0  0  0  0  0
  140.5630   78.8338  221.5118 H   0  0  0  0  0  0  0  0  0  0  0  0
  139.0090   78.5966  222.3376 H   0  0  0  0  0  0  0  0  0  0  0  0
  141.3835   76.7544  222.1331 H   0  0  0  0  0  0  0  0  0  0  0  0
  140.1870   76.8698  223.4313 H   0  0  0  0  0  0  0  0  0  0  0  0
  1  2  1  0
  2  3  1  0
  3  4  2  0
  4  5  1  0
  5  6  1  0
  6  7  1  0
  7  8  1  0
  8  9  1  0
  9 10  1  0
 10 11  1  0
  5 12  2  0
 12 13  1  0
 13 14  1  0
 14 15  1  0
 15 16  1  0
 16 17  1  0
 17 18  2  0
 18 19  1  0
 19 20  2  0
 20 21  1  0
 21 22  2  0
 22 23  1  0
 13 24  2  0
  2 25  1  0
 25 26  1  0
 26 27  1  0
 27 28  1  0
 28  2  1  0
 24  3  1  0
 11  6  1  0
 23 14  1  0
 22 17  1  0
  1 29  1  0
  7 30  1  0
  7 31  1  0
  8 32  1  0
  8 33  1  0
  9 34  1  0
 10 35  1  0
 10 36  1  0
 11 37  1  0
 11 38  1  0
 15 39  1  0
 15 40  1  0
 16 41  1  0
 16 42  1  0
 18 43  1  0
 19 44  1  0
 20 45  1  0
 21 46  1  0
 23 47  1  0
 23 48  1  0
 25 49  1  0
 25 50  1  0
 26 51  1  0
 26 52  1  0
 27 53  1  0
 27 54  1  0
 28 55  1  0
 28 56  1  0
M  END
>  <UniqueID>  (36) 
511

>  <SMILES>  (36) 
OC1(c2nc(N3CCNCC3)nc(N3CCc4ccccc4C3)n2)CCCC1

>  <Energy>  (36) 
68.3109644264867

>  <Genealogy>  (36) 
OC1(c2nc(N3CCNCC3)nc(N3CCc4ccccc4C3)n2)CCCC1 (3D coordinates assigned)
OC1(c2nc(N3CCNCC3)nc(N3CCc4ccccc4C3)n2)CCCC1 (nonaromatic ring conformer: 68.3109644264867 kcal/mol)

>  <smiles>  (36) 
OC1(c2nc(N3CCNCC3)nc(N3CCc4ccccc4C3)n2)CCCC1

>  <score_type>  (36) 
oracle

>  <origin>  (36) 
autodockgpu

>  <m_score__min__energy>  (36) 
-8.8599999999999994

>  <m_primary>  (36) 
energy

>  <meeko>  (36) 
{"free_energy": -8.86, "intermolecular_energy": -10.05, "internal_energy": -1.5, "cluster_size": 20, "cluster_id": 1, "rank_in_cluster": 8}

>  <energy>  (36) 
-8.85

>  <cluster_rmsd>  (36) 
0.03

>  <rmsd>  (36) 
271.1

>  <cluster>  (36) 
1

$$$$
AUISRQYXECVJTM-UHFFFAOYNA-N
     RDKit          3D

 56 60  0  0  0  0  0  0  0  0999 V2000
  138.3010   75.5480  222.3910 O   0  0  0  0  0  0  0  0  0  0  0  0
  139.5260   75.7130  221.7180 C   0  0  0  0  0  0  0  0  0  0  0  0
  140.3180   74.4210  221.7680 C   0  0  0  0  0  0  0  0  0  0  0  0
  141.4590   74.2850  221.0440 N   0  0  0  0  0  0  0  0  0  0  0  0
  142.2040   73.1530  221.1290 C   0  0  0  0  0  0  0  0  0  0  0  0
  143.4080   73.0050  220.3470 N   0  0  0  0  0  0  0  0  0  0  0  0
  143.5670   71.8180  219.4960 C   0  0  0  0  0  0  0  0  0  0  0  0
  144.9140   71.8390  218.7690 C   0  0  0  0  0  0  0  0  0  0  0  0
  145.9850   72.2080  219.6990 N   0  0  0  0  0  0  0  0  0  0  0  0
  145.8330   73.5790  220.2250 C   0  0  0  0  0  0  0  0  0  0  0  0
  144.3800   74.1030  220.2390 C   0  0  0  0  0  0  0  0  0  0  0  0
  141.8070   72.1590  221.9670 N   0  0  0  0  0  0  0  0  0  0  0  0
  140.6810   72.2890  222.7170 C   0  0  0  0  0  0  0  0  0  0  0  0
  140.2700   71.2350  223.6140 N   0  0  0  0  0  0  0  0  0  0  0  0
  139.0290   70.4880  223.3560 C   0  0  0  0  0  0  0  0  0  0  0  0
  139.1850   69.0300  223.7750 C   0  0  0  0  0  0  0  0  0  0  0  0
  139.6230   68.9480  225.2060 C   0  0  0  0  0  0  0  0  0  0  0  0
  139.2130   67.8720  226.0110 C   0  0  0  0  0  0  0  0  0  0  0  0
  139.6480   67.7780  227.3340 C   0  0  0  0  0  0  0  0  0  0  0  0
  140.5070   68.7460  227.8580 C   0  0  0  0  0  0  0  0  0  0  0  0
  140.9340   69.8100  227.0600 C   0  0  0  0  0  0  0  0  0  0  0  0
  140.4940   69.9230  225.7310 C   0  0  0  0  0  0  0  0  0  0  0  0
  141.0130   71.0550  224.8760 C   0  0  0  0  0  0  0  0  0  0  0  0
  139.9470   73.4280  222.6170 N   0  0  0  0  0  0  0  0  0  0  0  0
  139.2850   76.2000  220.2840 C   0  0  0  0  0  0  0  0  0  0  0  0
  139.1100   77.7120  220.3810 C   0  0  0  0  0  0  0  0  0  0  0  0
  139.7250   78.1380  221.7120 C   0  0  0  0  0  0  0  0  0  0  0  0
  140.2840   76.8770  222.3580 C   0  0  0  0  0  0  0  0  0  0  0  0
  138.3950   74.7740  223.0070 H   0  0  0  0  0  0  0  0  0  0  0  0
  143.5110   70.9160  220.1231 H   0  0  0  0  0  0  0  0  0  0  0  0
  142.7638   71.8162  218.7445 H   0  0  0  0  0  0  0  0  0  0  0  0
  145.1195   70.8405  218.3557 H   0  0  0  0  0  0  0  0  0  0  0  0
  144.8723   72.5800  217.9571 H   0  0  0  0  0  0  0  0  0  0  0  0
  145.9770   71.5340  220.5010 H   0  0  0  0  0  0  0  0  0  0  0  0
  146.2139   73.5952  221.2568 H   0  0  0  0  0  0  0  0  0  0  0  0
  146.3963   74.2378  219.5478 H   0  0  0  0  0  0  0  0  0  0  0  0
  144.2525   74.7780  221.0981 H   0  0  0  0  0  0  0  0  0  0  0  0
  144.1966   74.6320  219.2921 H   0  0  0  0  0  0  0  0  0  0  0  0
  138.2072   70.9430  223.9284 H   0  0  0  0  0  0  0  0  0  0  0  0
  138.8085   70.5265  222.2790 H   0  0  0  0  0  0  0  0  0  0  0  0
  138.2207   68.5134  223.6597 H   0  0  0  0  0  0  0  0  0  0  0  0
  139.9446   68.5524  223.1386 H   0  0  0  0  0  0  0  0  0  0  0  0
  138.5467   67.1008  225.5971 H   0  0  0  0  0  0  0  0  0  0  0  0
  139.3138   66.9407  227.9642 H   0  0  0  0  0  0  0  0  0  0  0  0
  140.8481   68.6706  228.9011 H   0  0  0  0  0  0  0  0  0  0  0  0
  141.6191   70.5640  227.4750 H   0  0  0  0  0  0  0  0  0  0  0  0
  140.9440   71.9875  225.4554 H   0  0  0  0  0  0  0  0  0  0  0  0
  142.0493   70.8041  224.6055 H   0  0  0  0  0  0  0  0  0  0  0  0
  140.1471   75.9545  219.6464 H   0  0  0  0  0  0  0  0  0  0  0  0
  138.4029   75.7188  219.8365 H   0  0  0  0  0  0  0  0  0  0  0  0
  139.6283   78.2083  219.5473 H   0  0  0  0  0  0  0  0  0  0  0  0
  138.0478   77.9926  220.3270 H   0  0  0  0  0  0  0  0  0  0  0  0
  140.5315   78.8663  221.5414 H   0  0  0  0  0  0  0  0  0  0  0  0
  138.9755   78.6161  222.3598 H   0  0  0  0  0  0  0  0  0  0  0  0
  141.3620   76.7890  222.1577 H   0  0  0  0  0  0  0  0  0  0  0  0
  140.1588   76.8910  223.4508 H   0  0  0  0  0  0  0  0  0  0  0  0
  1  2  1  0
  2  3  1  0
  3  4  2  0
  4  5  1  0
  5  6  1  0
  6  7  1  0
  7  8  1  0
  8  9  1  0
  9 10  1  0
 10 11  1  0
  5 12  2  0
 12 13  1  0
 13 14  1  0
 14 15  1  0
 15 16  1  0
 16 17  1  0
 17 18  2  0
 18 19  1  0
 19 20  2  0
 20 21  1  0
 21 22  2  0
 22 23  1  0
 13 24  2  0
  2 25  1  0
 25 26  1  0
 26 27  1  0
 27 28  1  0
 28  2  1  0
 24  3  1  0
 11  6  1  0
 23 14  1  0
 22 17  1  0
  1 29  1  0
  7 30  1  0
  7 31  1  0
  8 32  1  0
  8 33  1  0
  9 34  1  0
 10 35  1  0
 10 36  1  0
 11 37  1  0
 11 38  1  0
 15 39  1  0
 15 40  1  0
 16 41  1  0
 16 42  1  0
 18 43  1  0
 19 44  1  0
 20 45  1  0
 21 46  1  0
 23 47  1  0
 23 48  1  0
 25 49  1  0
 25 50  1  0
 26 51  1  0
 26 52  1  0
 27 53  1  0
 27 54  1  0
 28 55  1  0
 28 56  1  0
M  END
>  <UniqueID>  (37) 
511

>  <SMILES>  (37) 
OC1(c2nc(N3CCNCC3)nc(N3CCc4ccccc4C3)n2)CCCC1

>  <Energy>  (37) 
68.3109644264867

>  <Genealogy>  (37) 
OC1(c2nc(N3CCNCC3)nc(N3CCc4ccccc4C3)n2)CCCC1 (3D coordinates assigned)
OC1(c2nc(N3CCNCC3)nc(N3CCc4ccccc4C3)n2)CCCC1 (nonaromatic ring conformer: 68.3109644264867 kcal/mol)

>  <smiles>  (37) 
OC1(c2nc(N3CCNCC3)nc(N3CCc4ccccc4C3)n2)CCCC1

>  <score_type>  (37) 
oracle

>  <origin>  (37) 
autodockgpu

>  <m_score__min__energy>  (37) 
-8.8599999999999994

>  <m_primary>  (37) 
energy

>  <meeko>  (37) 
{"free_energy": -8.86, "intermolecular_energy": -10.05, "internal_energy": -1.5, "cluster_size": 20, "cluster_id": 1, "rank_in_cluster": 5}

>  <energy>  (37) 
-8.85

>  <cluster_rmsd>  (37) 
0.05

>  <rmsd>  (37) 
271.11

>  <cluster>  (37) 
1

$$$$
AUISRQYXECVJTM-UHFFFAOYNA-N
     RDKit          3D

 56 60  0  0  0  0  0  0  0  0999 V2000
  138.3260   75.5170  222.3420 O   0  0  0  0  0  0  0  0  0  0  0  0
  139.5580   75.6730  221.6800 C   0  0  0  0  0  0  0  0  0  0  0  0
  140.3440   74.3780  221.7440 C   0  0  0  0  0  0  0  0  0  0  0  0
  141.4850   74.2310  221.0220 N   0  0  0  0  0  0  0  0  0  0  0  0
  142.2260   73.0960  221.1200 C   0  0  0  0  0  0  0  0  0  0  0  0
  143.4300   72.9350  220.3410 N   0  0  0  0  0  0  0  0  0  0  0  0
  143.5950   71.7270  219.5220 C   0  0  0  0  0  0  0  0  0  0  0  0
  144.9410   71.7370  218.7920 C   0  0  0  0  0  0  0  0  0  0  0  0
  146.0110   72.1380  219.7110 N   0  0  0  0  0  0  0  0  0  0  0  0
  145.8500   73.5200  220.2010 C   0  0  0  0  0  0  0  0  0  0  0  0
  144.3940   74.0360  220.2030 C   0  0  0  0  0  0  0  0  0  0  0  0
  141.8230   72.1120  221.9670 N   0  0  0  0  0  0  0  0  0  0  0  0
  140.6970   72.2550  222.7150 C   0  0  0  0  0  0  0  0  0  0  0  0
  140.2800   71.2130  223.6230 N   0  0  0  0  0  0  0  0  0  0  0  0
  139.0300   70.4770  223.3780 C   0  0  0  0  0  0  0  0  0  0  0  0
  139.1730   69.0200  223.8060 C   0  0  0  0  0  0  0  0  0  0  0  0
  139.6200   68.9440  225.2350 C   0  0  0  0  0  0  0  0  0  0  0  0
  139.2030   67.8790  226.0510 C   0  0  0  0  0  0  0  0  0  0  0  0
  139.6460   67.7890  227.3720 C   0  0  0  0  0  0  0  0  0  0  0  0
  140.5190   68.7510  227.8830 C   0  0  0  0  0  0  0  0  0  0  0  0
  140.9520   69.8050  227.0740 C   0  0  0  0  0  0  0  0  0  0  0  0
  140.5050   69.9130  225.7480 C   0  0  0  0  0  0  0  0  0  0  0  0
  141.0300   71.0330  224.8800 C   0  0  0  0  0  0  0  0  0  0  0  0
  139.9680   73.3960  222.6030 N   0  0  0  0  0  0  0  0  0  0  0  0
  139.3320   76.1540  220.2410 C   0  0  0  0  0  0  0  0  0  0  0  0
  139.1620   77.6660  220.3280 C   0  0  0  0  0  0  0  0  0  0  0  0
  139.7660   78.0980  221.6630 C   0  0  0  0  0  0  0  0  0  0  0  0
  140.3150   76.8380  222.3200 C   0  0  0  0  0  0  0  0  0  0  0  0
  138.4130   74.7510  222.9690 H   0  0  0  0  0  0  0  0  0  0  0  0
  143.5457   70.8418  220.1731 H   0  0  0  0  0  0  0  0  0  0  0  0
  142.7905   71.7000  218.7723 H   0  0  0  0  0  0  0  0  0  0  0  0
  145.1525   70.7291  218.4054 H   0  0  0  0  0  0  0  0  0  0  0  0
  144.8935   72.4552  217.9602 H   0  0  0  0  0  0  0  0  0  0  0  0
  146.0080   71.4840  220.5310 H   0  0  0  0  0  0  0  0  0  0  0  0
  146.2315   73.5652  221.2318 H   0  0  0  0  0  0  0  0  0  0  0  0
  146.4082   74.1643  219.5058 H   0  0  0  0  0  0  0  0  0  0  0  0
  144.2633   74.7325  221.0443 H   0  0  0  0  0  0  0  0  0  0  0  0
  144.2061   74.5396  219.2433 H   0  0  0  0  0  0  0  0  0  0  0  0
  138.2166   70.9445  223.9523 H   0  0  0  0  0  0  0  0  0  0  0  0
  138.8036   70.5103  222.3021 H   0  0  0  0  0  0  0  0  0  0  0  0
  138.2024   68.5131  223.7010 H   0  0  0  0  0  0  0  0  0  0  0  0
  139.9227   68.5293  223.1678 H   0  0  0  0  0  0  0  0  0  0  0  0
  138.5247   67.1129  225.6474 H   0  0  0  0  0  0  0  0  0  0  0  0
  139.3070   66.9598  228.0103 H   0  0  0  0  0  0  0  0  0  0  0  0
  140.8666   68.6793  228.9241 H   0  0  0  0  0  0  0  0  0  0  0  0
  141.6476   70.5547  227.4791 H   0  0  0  0  0  0  0  0  0  0  0  0
  140.9764   71.9703  225.4532 H   0  0  0  0  0  0  0  0  0  0  0  0
  142.0609   70.7675  224.6029 H   0  0  0  0  0  0  0  0  0  0  0  0
  140.1990   75.9019  219.6127 H   0  0  0  0  0  0  0  0  0  0  0  0
  138.4519   75.6740  219.7882 H   0  0  0  0  0  0  0  0  0  0  0  0
  139.6901   78.1556  219.4965 H   0  0  0  0  0  0  0  0  0  0  0  0
  138.1013   77.9499  220.2625 H   0  0  0  0  0  0  0  0  0  0  0  0
  140.5763   78.8230  221.4962 H   0  0  0  0  0  0  0  0  0  0  0  0
  139.0124   78.5823  222.3014 H   0  0  0  0  0  0  0  0  0  0  0  0
  141.3943   76.7451  222.1289 H   0  0  0  0  0  0  0  0  0  0  0  0
  140.1807   76.8582  223.4116 H   0  0  0  0  0  0  0  0  0  0  0  0
  1  2  1  0
  2  3  1  0
  3  4  2  0
  4  5  1  0
  5  6  1  0
  6  7  1  0
  7  8  1  0
  8  9  1  0
  9 10  1  0
 10 11  1  0
  5 12  2  0
 12 13  1  0
 13 14  1  0
 14 15  1  0
 15 16  1  0
 16 17  1  0
 17 18  2  0
 18 19  1  0
 19 20  2  0
 20 21  1  0
 21 22  2  0
 22 23  1  0
 13 24  2  0
  2 25  1  0
 25 26  1  0
 26 27  1  0
 27 28  1  0
 28  2  1  0
 24  3  1  0
 11  6  1  0
 23 14  1  0
 22 17  1  0
  1 29  1  0
  7 30  1  0
  7 31  1  0
  8 32  1  0
  8 33  1  0
  9 34  1  0
 10 35  1  0
 10 36  1  0
 11 37  1  0
 11 38  1  0
 15 39  1  0
 15 40  1  0
 16 41  1  0
 16 42  1  0
 18 43  1  0
 19 44  1  0
 20 45  1  0
 21 46  1  0
 23 47  1  0
 23 48  1  0
 25 49  1  0
 25 50  1  0
 26 51  1  0
 26 52  1  0
 27 53  1  0
 27 54  1  0
 28 55  1  0
 28 56  1  0
M  END
>  <UniqueID>  (38) 
511

>  <SMILES>  (38) 
OC1(c2nc(N3CCNCC3)nc(N3CCc4ccccc4C3)n2)CCCC1

>  <Energy>  (38) 
68.3109644264867

>  <Genealogy>  (38) 
OC1(c2nc(N3CCNCC3)nc(N3CCc4ccccc4C3)n2)CCCC1 (3D coordinates assigned)
OC1(c2nc(N3CCNCC3)nc(N3CCc4ccccc4C3)n2)CCCC1 (nonaromatic ring conformer: 68.3109644264867 kcal/mol)

>  <smiles>  (38) 
OC1(c2nc(N3CCNCC3)nc(N3CCc4ccccc4C3)n2)CCCC1

>  <score_type>  (38) 
oracle

>  <origin>  (38) 
autodockgpu

>  <m_score__min__energy>  (38) 
-8.8599999999999994

>  <m_primary>  (38) 
energy

>  <meeko>  (38) 
{"free_energy": -8.85, "intermolecular_energy": -10.05, "internal_energy": -1.5, "cluster_size": 20, "cluster_id": 1, "rank_in_cluster": 9}

>  <energy>  (38) 
-8.85

>  <cluster_rmsd>  (38) 
0.04

>  <rmsd>  (38) 
271.08

>  <cluster>  (38) 
1

$$$$
AUISRQYXECVJTM-UHFFFAOYNA-N
     RDKit          3D

 56 60  0  0  0  0  0  0  0  0999 V2000
  138.3640   75.5460  222.4110 O   0  0  0  0  0  0  0  0  0  0  0  0
  139.5810   75.6920  221.7200 C   0  0  0  0  0  0  0  0  0  0  0  0
  140.3570   74.3900  221.7670 C   0  0  0  0  0  0  0  0  0  0  0  0
  141.4950   74.2410  221.0400 N   0  0  0  0  0  0  0  0  0  0  0  0
  142.2260   73.1000  221.1220 C   0  0  0  0  0  0  0  0  0  0  0  0
  143.4260   72.9380  220.3370 N   0  0  0  0  0  0  0  0  0  0  0  0
  143.6050   71.7120  219.5480 C   0  0  0  0  0  0  0  0  0  0  0  0
  144.9440   71.7250  218.8070 C   0  0  0  0  0  0  0  0  0  0  0  0
  146.0150   72.1650  219.7070 N   0  0  0  0  0  0  0  0  0  0  0  0
  145.8360   73.5570  220.1630 C   0  0  0  0  0  0  0  0  0  0  0  0
  144.3720   74.0490  220.1640 C   0  0  0  0  0  0  0  0  0  0  0  0
  141.8180   72.1100  221.9590 N   0  0  0  0  0  0  0  0  0  0  0  0
  140.6960   72.2530  222.7120 C   0  0  0  0  0  0  0  0  0  0  0  0
  140.2730   71.2040  223.6090 N   0  0  0  0  0  0  0  0  0  0  0  0
  139.0460   70.4410  223.3290 C   0  0  0  0  0  0  0  0  0  0  0  0
  139.2070   68.9880  223.7650 C   0  0  0  0  0  0  0  0  0  0  0  0
  139.6110   68.9250  225.2070 C   0  0  0  0  0  0  0  0  0  0  0  0
  139.1920   67.8520  226.0120 C   0  0  0  0  0  0  0  0  0  0  0  0
  139.5970   67.7750  227.3460 C   0  0  0  0  0  0  0  0  0  0  0  0
  140.4330   68.7560  227.8820 C   0  0  0  0  0  0  0  0  0  0  0  0
  140.8690   69.8170  227.0840 C   0  0  0  0  0  0  0  0  0  0  0  0
  140.4600   69.9130  225.7440 C   0  0  0  0  0  0  0  0  0  0  0  0
  140.9870   71.0420  224.8900 C   0  0  0  0  0  0  0  0  0  0  0  0
  139.9750   73.4010  222.6150 N   0  0  0  0  0  0  0  0  0  0  0  0
  139.3260   76.1730  220.2860 C   0  0  0  0  0  0  0  0  0  0  0  0
  139.1720   77.6880  220.3760 C   0  0  0  0  0  0  0  0  0  0  0  0
  139.8110   78.1140  221.6960 C   0  0  0  0  0  0  0  0  0  0  0  0
  140.3630   76.8500  222.3410 C   0  0  0  0  0  0  0  0  0  0  0  0
  138.4330   74.7360  222.9820 H   0  0  0  0  0  0  0  0  0  0  0  0
  143.5758   70.8433  220.2222 H   0  0  0  0  0  0  0  0  0  0  0  0
  142.7953   71.6525  218.8059 H   0  0  0  0  0  0  0  0  0  0  0  0
  145.1682   70.7114  218.4433 H   0  0  0  0  0  0  0  0  0  0  0  0
  144.8786   72.4218  217.9584 H   0  0  0  0  0  0  0  0  0  0  0  0
  146.0290   71.5330  220.5430 H   0  0  0  0  0  0  0  0  0  0  0  0
  146.2250   73.6348  221.1890 H   0  0  0  0  0  0  0  0  0  0  0  0
  146.3783   74.1922  219.4471 H   0  0  0  0  0  0  0  0  0  0  0  0
  144.2367   74.7642  220.9887 H   0  0  0  0  0  0  0  0  0  0  0  0
  144.1691   74.5244  219.1930 H   0  0  0  0  0  0  0  0  0  0  0  0
  138.2063   70.8923  223.8778 H   0  0  0  0  0  0  0  0  0  0  0  0
  138.8508   70.4673  222.2468 H   0  0  0  0  0  0  0  0  0  0  0  0
  138.2513   68.4600  223.6315 H   0  0  0  0  0  0  0  0  0  0  0  0
  139.9862   68.5121  223.1515 H   0  0  0  0  0  0  0  0  0  0  0  0
  138.5431   67.0705  225.5899 H   0  0  0  0  0  0  0  0  0  0  0  0
  139.2567   66.9398  227.9757 H   0  0  0  0  0  0  0  0  0  0  0  0
  140.7489   68.6938  228.9338 H   0  0  0  0  0  0  0  0  0  0  0  0
  141.5366   70.5816  227.5080 H   0  0  0  0  0  0  0  0  0  0  0  0
  140.8953   71.9790  225.4589 H   0  0  0  0  0  0  0  0  0  0  0  0
  142.0314   70.7979  224.6456 H   0  0  0  0  0  0  0  0  0  0  0  0
  140.1757   75.9123  219.6379 H   0  0  0  0  0  0  0  0  0  0  0  0
  138.4316   75.7005  219.8539 H   0  0  0  0  0  0  0  0  0  0  0  0
  139.6851   78.1724  219.5322 H   0  0  0  0  0  0  0  0  0  0  0  0
  138.1129   77.9822  220.3349 H   0  0  0  0  0  0  0  0  0  0  0  0
  140.6241   78.8311  221.5099 H   0  0  0  0  0  0  0  0  0  0  0  0
  139.0768   78.6053  222.3514 H   0  0  0  0  0  0  0  0  0  0  0  0
  141.4367   76.7469  222.1251 H   0  0  0  0  0  0  0  0  0  0  0  0
  140.2541   76.8723  223.4354 H   0  0  0  0  0  0  0  0  0  0  0  0
  1  2  1  0
  2  3  1  0
  3  4  2  0
  4  5  1  0
  5  6  1  0
  6  7  1  0
  7  8  1  0
  8  9  1  0
  9 10  1  0
 10 11  1  0
  5 12  2  0
 12 13  1  0
 13 14  1  0
 14 15  1  0
 15 16  1  0
 16 17  1  0
 17 18  2  0
 18 19  1  0
 19 20  2  0
 20 21  1  0
 21 22  2  0
 22 23  1  0
 13 24  2  0
  2 25  1  0
 25 26  1  0
 26 27  1  0
 27 28  1  0
 28  2  1  0
 24  3  1  0
 11  6  1  0
 23 14  1  0
 22 17  1  0
  1 29  1  0
  7 30  1  0
  7 31  1  0
  8 32  1  0
  8 33  1  0
  9 34  1  0
 10 35  1  0
 10 36  1  0
 11 37  1  0
 11 38  1  0
 15 39  1  0
 15 40  1  0
 16 41  1  0
 16 42  1  0
 18 43  1  0
 19 44  1  0
 20 45  1  0
 21 46  1  0
 23 47  1  0
 23 48  1  0
 25 49  1  0
 25 50  1  0
 26 51  1  0
 26 52  1  0
 27 53  1  0
 27 54  1  0
 28 55  1  0
 28 56  1  0
M  END
>  <UniqueID>  (39) 
511

>  <SMILES>  (39) 
OC1(c2nc(N3CCNCC3)nc(N3CCc4ccccc4C3)n2)CCCC1

>  <Energy>  (39) 
68.3109644264867

>  <Genealogy>  (39) 
OC1(c2nc(N3CCNCC3)nc(N3CCc4ccccc4C3)n2)CCCC1 (3D coordinates assigned)
OC1(c2nc(N3CCNCC3)nc(N3CCc4ccccc4C3)n2)CCCC1 (nonaromatic ring conformer: 68.3109644264867 kcal/mol)

>  <smiles>  (39) 
OC1(c2nc(N3CCNCC3)nc(N3CCc4ccccc4C3)n2)CCCC1

>  <score_type>  (39) 
oracle

>  <origin>  (39) 
autodockgpu

>  <m_score__min__energy>  (39) 
-8.8599999999999994

>  <m_primary>  (39) 
energy

>  <meeko>  (39) 
{"free_energy": -8.86, "intermolecular_energy": -10.05, "internal_energy": -1.5, "cluster_size": 20, "cluster_id": 1, "rank_in_cluster": 4}

>  <energy>  (39) 
-8.85

>  <cluster_rmsd>  (39) 
0.06

>  <rmsd>  (39) 
271.08

>  <cluster>  (39) 
1

$$$$
AUISRQYXECVJTM-UHFFFAOYNA-N
     RDKit          3D

 56 60  0  0  0  0  0  0  0  0999 V2000
  138.3390   75.5360  222.3490 O   0  0  0  0  0  0  0  0  0  0  0  0
  139.5720   75.6880  221.6860 C   0  0  0  0  0  0  0  0  0  0  0  0
  140.3520   74.3900  221.7500 C   0  0  0  0  0  0  0  0  0  0  0  0
  141.4900   74.2360  221.0240 N   0  0  0  0  0  0  0  0  0  0  0  0
  142.2260   73.0990  221.1210 C   0  0  0  0  0  0  0  0  0  0  0  0
  143.4260   72.9310  220.3370 N   0  0  0  0  0  0  0  0  0  0  0  0
  143.5870   71.7170  219.5260 C   0  0  0  0  0  0  0  0  0  0  0  0
  144.9300   71.7210  218.7900 C   0  0  0  0  0  0  0  0  0  0  0  0
  146.0050   72.1270  219.7010 N   0  0  0  0  0  0  0  0  0  0  0  0
  145.8470   73.5130  220.1830 C   0  0  0  0  0  0  0  0  0  0  0  0
  144.3920   74.0300  220.1880 C   0  0  0  0  0  0  0  0  0  0  0  0
  141.8220   72.1180  221.9710 N   0  0  0  0  0  0  0  0  0  0  0  0
  140.7000   72.2660  222.7230 C   0  0  0  0  0  0  0  0  0  0  0  0
  140.2820   71.2270  223.6330 N   0  0  0  0  0  0  0  0  0  0  0  0
  139.0270   70.4960  223.3950 C   0  0  0  0  0  0  0  0  0  0  0  0
  139.1660   69.0400  223.8250 C   0  0  0  0  0  0  0  0  0  0  0  0
  139.6170   68.9640  225.2520 C   0  0  0  0  0  0  0  0  0  0  0  0
  139.1990   67.9020  226.0700 C   0  0  0  0  0  0  0  0  0  0  0  0
  139.6470   67.8120  227.3900 C   0  0  0  0  0  0  0  0  0  0  0  0
  140.5270   68.7710  227.8970 C   0  0  0  0  0  0  0  0  0  0  0  0
  140.9620   69.8220  227.0850 C   0  0  0  0  0  0  0  0  0  0  0  0
  140.5090   69.9290  225.7590 C   0  0  0  0  0  0  0  0  0  0  0  0
  141.0360   71.0460  224.8890 C   0  0  0  0  0  0  0  0  0  0  0  0
  139.9750   73.4110  222.6110 N   0  0  0  0  0  0  0  0  0  0  0  0
  139.3470   76.1700  220.2480 C   0  0  0  0  0  0  0  0  0  0  0  0
  139.1840   77.6840  220.3360 C   0  0  0  0  0  0  0  0  0  0  0  0
  139.7900   78.1110  221.6710 C   0  0  0  0  0  0  0  0  0  0  0  0
  140.3330   76.8490  222.3280 C   0  0  0  0  0  0  0  0  0  0  0  0
  138.4060   74.7370  222.9360 H   0  0  0  0  0  0  0  0  0  0  0  0
  143.5402   70.8365  220.1837 H   0  0  0  0  0  0  0  0  0  0  0  0
  142.7793   71.6850  218.7799 H   0  0  0  0  0  0  0  0  0  0  0  0
  145.1387   70.7104  218.4091 H   0  0  0  0  0  0  0  0  0  0  0  0
  144.8792   72.4341  217.9540 H   0  0  0  0  0  0  0  0  0  0  0  0
  146.0050   71.4790  220.5260 H   0  0  0  0  0  0  0  0  0  0  0  0
  146.2330   73.5646  221.2118 H   0  0  0  0  0  0  0  0  0  0  0  0
  146.4026   74.1523  219.4811 H   0  0  0  0  0  0  0  0  0  0  0  0
  144.2657   74.7319  221.0255 H   0  0  0  0  0  0  0  0  0  0  0  0
  144.2009   74.5272  219.2256 H   0  0  0  0  0  0  0  0  0  0  0  0
  138.2183   70.9681  223.9722 H   0  0  0  0  0  0  0  0  0  0  0  0
  138.7953   70.5284  222.3202 H   0  0  0  0  0  0  0  0  0  0  0  0
  138.1932   68.5365  223.7238 H   0  0  0  0  0  0  0  0  0  0  0  0
  139.9122   68.5459  223.1854 H   0  0  0  0  0  0  0  0  0  0  0  0
  138.5162   67.1381  225.6698 H   0  0  0  0  0  0  0  0  0  0  0  0
  139.3065   66.9852  228.0307 H   0  0  0  0  0  0  0  0  0  0  0  0
  140.8781   68.6989  228.9370 H   0  0  0  0  0  0  0  0  0  0  0  0
  141.6626   70.5693  227.4859 H   0  0  0  0  0  0  0  0  0  0  0  0
  140.9874   71.9841  225.4613 H   0  0  0  0  0  0  0  0  0  0  0  0
  142.0654   70.7771  224.6097 H   0  0  0  0  0  0  0  0  0  0  0  0
  140.2122   75.9141  219.6188 H   0  0  0  0  0  0  0  0  0  0  0  0
  138.4644   75.6941  219.7957 H   0  0  0  0  0  0  0  0  0  0  0  0
  139.7145   78.1718  219.5050 H   0  0  0  0  0  0  0  0  0  0  0  0
  138.1248   77.9735  220.2704 H   0  0  0  0  0  0  0  0  0  0  0  0
  140.6038   78.8322  221.5047 H   0  0  0  0  0  0  0  0  0  0  0  0
  139.0380   78.5976  222.3095 H   0  0  0  0  0  0  0  0  0  0  0  0
  141.4122   76.7518  222.1384 H   0  0  0  0  0  0  0  0  0  0  0  0
  140.1976   76.8690  223.4195 H   0  0  0  0  0  0  0  0  0  0  0  0
  1  2  1  0
  2  3  1  0
  3  4  2  0
  4  5  1  0
  5  6  1  0
  6  7  1  0
  7  8  1  0
  8  9  1  0
  9 10  1  0
 10 11  1  0
  5 12  2  0
 12 13  1  0
 13 14  1  0
 14 15  1  0
 15 16  1  0
 16 17  1  0
 17 18  2  0
 18 19  1  0
 19 20  2  0
 20 21  1  0
 21 22  2  0
 22 23  1  0
 13 24  2  0
  2 25  1  0
 25 26  1  0
 26 27  1  0
 27 28  1  0
 28  2  1  0
 24  3  1  0
 11  6  1  0
 23 14  1  0
 22 17  1  0
  1 29  1  0
  7 30  1  0
  7 31  1  0
  8 32  1  0
  8 33  1  0
  9 34  1  0
 10 35  1  0
 10 36  1  0
 11 37  1  0
 11 38  1  0
 15 39  1  0
 15 40  1  0
 16 41  1  0
 16 42  1  0
 18 43  1  0
 19 44  1  0
 20 45  1  0
 21 46  1  0
 23 47  1  0
 23 48  1  0
 25 49  1  0
 25 50  1  0
 26 51  1  0
 26 52  1  0
 27 53  1  0
 27 54  1  0
 28 55  1  0
 28 56  1  0
M  END
>  <UniqueID>  (40) 
511

>  <SMILES>  (40) 
OC1(c2nc(N3CCNCC3)nc(N3CCc4ccccc4C3)n2)CCCC1

>  <Energy>  (40) 
68.3109644264867

>  <Genealogy>  (40) 
OC1(c2nc(N3CCNCC3)nc(N3CCc4ccccc4C3)n2)CCCC1 (3D coordinates assigned)
OC1(c2nc(N3CCNCC3)nc(N3CCc4ccccc4C3)n2)CCCC1 (nonaromatic ring conformer: 68.3109644264867 kcal/mol)

>  <smiles>  (40) 
OC1(c2nc(N3CCNCC3)nc(N3CCc4ccccc4C3)n2)CCCC1

>  <score_type>  (40) 
oracle

>  <origin>  (40) 
autodockgpu

>  <m_score__min__energy>  (40) 
-8.8599999999999994

>  <m_primary>  (40) 
energy

>  <meeko>  (40) 
{"free_energy": -8.85, "intermolecular_energy": -10.04, "internal_energy": -1.5, "cluster_size": 20, "cluster_id": 1, "rank_in_cluster": 16}

>  <energy>  (40) 
-8.84

>  <cluster_rmsd>  (40) 
0.06

>  <rmsd>  (40) 
271.09

>  <cluster>  (40) 
1

$$$$
AUISRQYXECVJTM-UHFFFAOYNA-N
     RDKit          3D

 56 60  0  0  0  0  0  0  0  0999 V2000
  138.2880   75.5380  222.3470 O   0  0  0  0  0  0  0  0  0  0  0  0
  139.5150   75.7100  221.6790 C   0  0  0  0  0  0  0  0  0  0  0  0
  140.3140   74.4230  221.7340 C   0  0  0  0  0  0  0  0  0  0  0  0
  141.4600   74.2940  221.0160 N   0  0  0  0  0  0  0  0  0  0  0  0
  142.2120   73.1660  221.1070 C   0  0  0  0  0  0  0  0  0  0  0  0
  143.4210   73.0250  220.3310 N   0  0  0  0  0  0  0  0  0  0  0  0
  143.5780   71.8530  219.4590 C   0  0  0  0  0  0  0  0  0  0  0  0
  144.9300   71.8790  218.7420 C   0  0  0  0  0  0  0  0  0  0  0  0
  145.9970   72.2220  219.6870 N   0  0  0  0  0  0  0  0  0  0  0  0
  145.8500   73.5830  220.2390 C   0  0  0  0  0  0  0  0  0  0  0  0
  144.4010   74.1170  220.2520 C   0  0  0  0  0  0  0  0  0  0  0  0
  141.8170   72.1710  221.9440 N   0  0  0  0  0  0  0  0  0  0  0  0
  140.6870   72.2940  222.6880 C   0  0  0  0  0  0  0  0  0  0  0  0
  140.2770   71.2400  223.5850 N   0  0  0  0  0  0  0  0  0  0  0  0
  139.0280   70.5020  223.3360 C   0  0  0  0  0  0  0  0  0  0  0  0
  139.1790   69.0410  223.7460 C   0  0  0  0  0  0  0  0  0  0  0  0
  139.6310   68.9490  225.1720 C   0  0  0  0  0  0  0  0  0  0  0  0
  139.2220   67.8730  225.9760 C   0  0  0  0  0  0  0  0  0  0  0  0
  139.6700   67.7690  227.2950 C   0  0  0  0  0  0  0  0  0  0  0  0
  140.5420   68.7280  227.8140 C   0  0  0  0  0  0  0  0  0  0  0  0
  140.9680   69.7930  227.0170 C   0  0  0  0  0  0  0  0  0  0  0  0
  140.5150   69.9150  225.6930 C   0  0  0  0  0  0  0  0  0  0  0  0
  141.0320   71.0480  224.8370 C   0  0  0  0  0  0  0  0  0  0  0  0
  139.9450   73.4290  222.5830 N   0  0  0  0  0  0  0  0  0  0  0  0
  139.2760   76.1920  220.2430 C   0  0  0  0  0  0  0  0  0  0  0  0
  139.0910   77.7030  220.3360 C   0  0  0  0  0  0  0  0  0  0  0  0
  139.6990   78.1360  221.6680 C   0  0  0  0  0  0  0  0  0  0  0  0
  140.2630   76.8800  222.3190 C   0  0  0  0  0  0  0  0  0  0  0  0
  138.3780   74.7540  222.9510 H   0  0  0  0  0  0  0  0  0  0  0  0
  143.5118   70.9398  220.0686 H   0  0  0  0  0  0  0  0  0  0  0  0
  142.7799   71.8703  218.7022 H   0  0  0  0  0  0  0  0  0  0  0  0
  145.1316   70.8875  218.3104 H   0  0  0  0  0  0  0  0  0  0  0  0
  144.8992   72.6362  217.9447 H   0  0  0  0  0  0  0  0  0  0  0  0
  145.9780   71.5320  220.4760 H   0  0  0  0  0  0  0  0  0  0  0  0
  146.2226   73.5758  221.2740 H   0  0  0  0  0  0  0  0  0  0  0  0
  146.4232   74.2511  219.5794 H   0  0  0  0  0  0  0  0  0  0  0  0
  144.2716   74.7761  221.1231 H   0  0  0  0  0  0  0  0  0  0  0  0
  144.2289   74.6656  219.3142 H   0  0  0  0  0  0  0  0  0  0  0  0
  138.2151   70.9593  223.9192 H   0  0  0  0  0  0  0  0  0  0  0  0
  138.7966   70.5475  222.2616 H   0  0  0  0  0  0  0  0  0  0  0  0
  138.2103   68.5311  223.6380 H   0  0  0  0  0  0  0  0  0  0  0  0
  139.9290   68.5619  223.0995 H   0  0  0  0  0  0  0  0  0  0  0  0
  138.5459   67.1086  225.5654 H   0  0  0  0  0  0  0  0  0  0  0  0
  139.3357   66.9314  227.9249 H   0  0  0  0  0  0  0  0  0  0  0  0
  140.8943   68.6446  228.8527 H   0  0  0  0  0  0  0  0  0  0  0  0
  141.6622   70.5405  227.4285 H   0  0  0  0  0  0  0  0  0  0  0  0
  140.9762   71.9780  225.4218 H   0  0  0  0  0  0  0  0  0  0  0  0
  142.0631   70.7906  224.5532 H   0  0  0  0  0  0  0  0  0  0  0  0
  140.1419   75.9506  219.6090 H   0  0  0  0  0  0  0  0  0  0  0  0
  138.3986   75.7041  219.7934 H   0  0  0  0  0  0  0  0  0  0  0  0
  139.6088   78.2007  219.5028 H   0  0  0  0  0  0  0  0  0  0  0  0
  138.0272   77.9766  220.2780 H   0  0  0  0  0  0  0  0  0  0  0  0
  140.5019   78.8685  221.4982 H   0  0  0  0  0  0  0  0  0  0  0  0
  138.9445   78.6114  222.3120 H   0  0  0  0  0  0  0  0  0  0  0  0
  141.3423   76.7982  222.1231 H   0  0  0  0  0  0  0  0  0  0  0  0
  140.1332   76.8958  223.4112 H   0  0  0  0  0  0  0  0  0  0  0  0
  1  2  1  0
  2  3  1  0
  3  4  2  0
  4  5  1  0
  5  6  1  0
  6  7  1  0
  7  8  1  0
  8  9  1  0
  9 10  1  0
 10 11  1  0
  5 12  2  0
 12 13  1  0
 13 14  1  0
 14 15  1  0
 15 16  1  0
 16 17  1  0
 17 18  2  0
 18 19  1  0
 19 20  2  0
 20 21  1  0
 21 22  2  0
 22 23  1  0
 13 24  2  0
  2 25  1  0
 25 26  1  0
 26 27  1  0
 27 28  1  0
 28  2  1  0
 24  3  1  0
 11  6  1  0
 23 14  1  0
 22 17  1  0
  1 29  1  0
  7 30  1  0
  7 31  1  0
  8 32  1  0
  8 33  1  0
  9 34  1  0
 10 35  1  0
 10 36  1  0
 11 37  1  0
 11 38  1  0
 15 39  1  0
 15 40  1  0
 16 41  1  0
 16 42  1  0
 18 43  1  0
 19 44  1  0
 20 45  1  0
 21 46  1  0
 23 47  1  0
 23 48  1  0
 25 49  1  0
 25 50  1  0
 26 51  1  0
 26 52  1  0
 27 53  1  0
 27 54  1  0
 28 55  1  0
 28 56  1  0
M  END
>  <UniqueID>  (41) 
512

>  <SMILES>  (41) 
OC1(c2nc(N3CCNCC3)nc(N3CCc4ccccc4C3)n2)CCCC1

>  <Energy>  (41) 
68.49375287355913

>  <Genealogy>  (41) 
OC1(c2nc(N3CCNCC3)nc(N3CCc4ccccc4C3)n2)CCCC1 (3D coordinates assigned)
OC1(c2nc(N3CCNCC3)nc(N3CCc4ccccc4C3)n2)CCCC1 (nonaromatic ring conformer: 68.49375287355913 kcal/mol)

>  <smiles>  (41) 
OC1(c2nc(N3CCNCC3)nc(N3CCc4ccccc4C3)n2)CCCC1

>  <score_type>  (41) 
oracle

>  <origin>  (41) 
autodockgpu

>  <m_score__min__energy>  (41) 
-8.8599999999999994

>  <m_primary>  (41) 
energy

>  <meeko>  (41) 
{"free_energy": -8.85, "intermolecular_energy": -10.04, "internal_energy": -1.5, "cluster_size": 20, "cluster_id": 1, "rank_in_cluster": 19}

>  <energy>  (41) 
-8.86

>  <cluster_rmsd>  (41) 
0.0

>  <rmsd>  (41) 
271.09

>  <cluster>  (41) 
1

$$$$
AUISRQYXECVJTM-UHFFFAOYNA-N
     RDKit          3D

 56 60  0  0  0  0  0  0  0  0999 V2000
  138.3210   75.5360  222.3590 O   0  0  0  0  0  0  0  0  0  0  0  0
  139.5510   75.6920  221.6930 C   0  0  0  0  0  0  0  0  0  0  0  0
  140.3340   74.3950  221.7510 C   0  0  0  0  0  0  0  0  0  0  0  0
  141.4720   74.2460  221.0230 N   0  0  0  0  0  0  0  0  0  0  0  0
  142.2100   73.1100  221.1150 C   0  0  0  0  0  0  0  0  0  0  0  0
  143.4090   72.9470  220.3300 N   0  0  0  0  0  0  0  0  0  0  0  0
  143.5790   71.7290  219.5260 C   0  0  0  0  0  0  0  0  0  0  0  0
  144.9200   71.7400  218.7880 C   0  0  0  0  0  0  0  0  0  0  0  0
  145.9930   72.1610  219.6930 N   0  0  0  0  0  0  0  0  0  0  0  0
  145.8250   73.5490  220.1660 C   0  0  0  0  0  0  0  0  0  0  0  0
  144.3650   74.0530  220.1710 C   0  0  0  0  0  0  0  0  0  0  0  0
  141.8080   72.1250  221.9620 N   0  0  0  0  0  0  0  0  0  0  0  0
  140.6870   72.2690  222.7160 C   0  0  0  0  0  0  0  0  0  0  0  0
  140.2710   71.2260  223.6230 N   0  0  0  0  0  0  0  0  0  0  0  0
  139.0260   70.4820  223.3740 C   0  0  0  0  0  0  0  0  0  0  0  0
  139.1770   69.0270  223.8060 C   0  0  0  0  0  0  0  0  0  0  0  0
  139.6160   68.9560  225.2370 C   0  0  0  0  0  0  0  0  0  0  0  0
  139.2020   67.8900  226.0520 C   0  0  0  0  0  0  0  0  0  0  0  0
  139.6390   67.8060  227.3760 C   0  0  0  0  0  0  0  0  0  0  0  0
  140.5040   68.7740  227.8900 C   0  0  0  0  0  0  0  0  0  0  0  0
  140.9340   69.8290  227.0810 C   0  0  0  0  0  0  0  0  0  0  0  0
  140.4930   69.9310  225.7520 C   0  0  0  0  0  0  0  0  0  0  0  0
  141.0150   71.0530  224.8850 C   0  0  0  0  0  0  0  0  0  0  0  0
  139.9590   73.4120  222.6090 N   0  0  0  0  0  0  0  0  0  0  0  0
  139.3210   76.1770  220.2560 C   0  0  0  0  0  0  0  0  0  0  0  0
  139.1550   77.6900  220.3490 C   0  0  0  0  0  0  0  0  0  0  0  0
  139.7650   78.1160  221.6820 C   0  0  0  0  0  0  0  0  0  0  0  0
  140.3120   76.8530  222.3340 C   0  0  0  0  0  0  0  0  0  0  0  0
  138.3510   74.6770  222.8570 H   0  0  0  0  0  0  0  0  0  0  0  0
  143.5408   70.8522  220.1892 H   0  0  0  0  0  0  0  0  0  0  0  0
  142.7703   71.6854  218.7816 H   0  0  0  0  0  0  0  0  0  0  0  0
  145.1367   70.7287  218.4133 H   0  0  0  0  0  0  0  0  0  0  0  0
  144.8612   72.4475  217.9478 H   0  0  0  0  0  0  0  0  0  0  0  0
  146.0010   71.5190  220.5220 H   0  0  0  0  0  0  0  0  0  0  0  0
  146.2131   73.6110  221.1934 H   0  0  0  0  0  0  0  0  0  0  0  0
  146.3737   74.1885  219.4589 H   0  0  0  0  0  0  0  0  0  0  0  0
  144.2345   74.7596  221.0039 H   0  0  0  0  0  0  0  0  0  0  0  0
  144.1672   74.5414  219.2054 H   0  0  0  0  0  0  0  0  0  0  0  0
  138.2072   70.9456  223.9438 H   0  0  0  0  0  0  0  0  0  0  0  0
  138.8033   70.5119  222.2972 H   0  0  0  0  0  0  0  0  0  0  0  0
  138.2107   68.5130  223.6963 H   0  0  0  0  0  0  0  0  0  0  0  0
  139.9343   68.5410  223.1733 H   0  0  0  0  0  0  0  0  0  0  0  0
  138.5312   67.1184  225.6463 H   0  0  0  0  0  0  0  0  0  0  0  0
  139.3013   66.9763  228.0144 H   0  0  0  0  0  0  0  0  0  0  0  0
  140.8473   68.7060  228.9328 H   0  0  0  0  0  0  0  0  0  0  0  0
  141.6224   70.5844  227.4879 H   0  0  0  0  0  0  0  0  0  0  0  0
  140.9516   71.9909  225.4563 H   0  0  0  0  0  0  0  0  0  0  0  0
  142.0492   70.7939  224.6142 H   0  0  0  0  0  0  0  0  0  0  0  0
  140.1851   75.9247  219.6238 H   0  0  0  0  0  0  0  0  0  0  0  0
  138.4386   75.7002  219.8044 H   0  0  0  0  0  0  0  0  0  0  0  0
  139.6809   78.1811  219.5170 H   0  0  0  0  0  0  0  0  0  0  0  0
  138.0947   77.9766  220.2890 H   0  0  0  0  0  0  0  0  0  0  0  0
  140.5772   78.8386  221.5140 H   0  0  0  0  0  0  0  0  0  0  0  0
  139.0152   78.6010  222.3243 H   0  0  0  0  0  0  0  0  0  0  0  0
  141.3906   76.7578  222.1401 H   0  0  0  0  0  0  0  0  0  0  0  0
  140.1801   76.8706  223.4259 H   0  0  0  0  0  0  0  0  0  0  0  0
  1  2  1  0
  2  3  1  0
  3  4  2  0
  4  5  1  0
  5  6  1  0
  6  7  1  0
  7  8  1  0
  8  9  1  0
  9 10  1  0
 10 11  1  0
  5 12  2  0
 12 13  1  0
 13 14  1  0
 14 15  1  0
 15 16  1  0
 16 17  1  0
 17 18  2  0
 18 19  1  0
 19 20  2  0
 20 21  1  0
 21 22  2  0
 22 23  1  0
 13 24  2  0
  2 25  1  0
 25 26  1  0
 26 27  1  0
 27 28  1  0
 28  2  1  0
 24  3  1  0
 11  6  1  0
 23 14  1  0
 22 17  1  0
  1 29  1  0
  7 30  1  0
  7 31  1  0
  8 32  1  0
  8 33  1  0
  9 34  1  0
 10 35  1  0
 10 36  1  0
 11 37  1  0
 11 38  1  0
 15 39  1  0
 15 40  1  0
 16 41  1  0
 16 42  1  0
 18 43  1  0
 19 44  1  0
 20 45  1  0
 21 46  1  0
 23 47  1  0
 23 48  1  0
 25 49  1  0
 25 50  1  0
 26 51  1  0
 26 52  1  0
 27 53  1  0
 27 54  1  0
 28 55  1  0
 28 56  1  0
M  END
>  <UniqueID>  (42) 
512

>  <SMILES>  (42) 
OC1(c2nc(N3CCNCC3)nc(N3CCc4ccccc4C3)n2)CCCC1

>  <Energy>  (42) 
68.49375287355913

>  <Genealogy>  (42) 
OC1(c2nc(N3CCNCC3)nc(N3CCc4ccccc4C3)n2)CCCC1 (3D coordinates assigned)
OC1(c2nc(N3CCNCC3)nc(N3CCc4ccccc4C3)n2)CCCC1 (nonaromatic ring conformer: 68.49375287355913 kcal/mol)

>  <smiles>  (42) 
OC1(c2nc(N3CCNCC3)nc(N3CCc4ccccc4C3)n2)CCCC1

>  <score_type>  (42) 
oracle

>  <origin>  (42) 
autodockgpu

>  <m_score__min__energy>  (42) 
-8.8599999999999994

>  <m_primary>  (42) 
energy

>  <meeko>  (42) 
{"free_energy": -8.86, "intermolecular_energy": -10.05, "internal_energy": -1.51, "cluster_size": 20, "cluster_id": 1, "rank_in_cluster": 2}

>  <energy>  (42) 
-8.86

>  <cluster_rmsd>  (42) 
0.02

>  <rmsd>  (42) 
271.09

>  <cluster>  (42) 
1

$$$$
AUISRQYXECVJTM-UHFFFAOYNA-N
     RDKit          3D

 56 60  0  0  0  0  0  0  0  0999 V2000
  138.3620   75.5390  222.3710 O   0  0  0  0  0  0  0  0  0  0  0  0
  139.5870   75.6830  221.6940 C   0  0  0  0  0  0  0  0  0  0  0  0
  140.3620   74.3820  221.7520 C   0  0  0  0  0  0  0  0  0  0  0  0
  141.4980   74.2250  221.0230 N   0  0  0  0  0  0  0  0  0  0  0  0
  142.2290   73.0840  221.1150 C   0  0  0  0  0  0  0  0  0  0  0  0
  143.4260   72.9120  220.3280 N   0  0  0  0  0  0  0  0  0  0  0  0
  143.6000   71.6790  219.5490 C   0  0  0  0  0  0  0  0  0  0  0  0
  144.9370   71.6830  218.8040 C   0  0  0  0  0  0  0  0  0  0  0  0
  146.0120   72.1300  219.6960 N   0  0  0  0  0  0  0  0  0  0  0  0
  145.8370   73.5260  220.1400 C   0  0  0  0  0  0  0  0  0  0  0  0
  144.3730   74.0210  220.1410 C   0  0  0  0  0  0  0  0  0  0  0  0
  141.8240   72.1030  221.9650 N   0  0  0  0  0  0  0  0  0  0  0  0
  140.7040   72.2550  222.7210 C   0  0  0  0  0  0  0  0  0  0  0  0
  140.2840   71.2160  223.6310 N   0  0  0  0  0  0  0  0  0  0  0  0
  139.0300   70.4860  223.3900 C   0  0  0  0  0  0  0  0  0  0  0  0
  139.1670   69.0290  223.8200 C   0  0  0  0  0  0  0  0  0  0  0  0
  139.6170   68.9530  225.2480 C   0  0  0  0  0  0  0  0  0  0  0  0
  139.1970   67.8910  226.0660 C   0  0  0  0  0  0  0  0  0  0  0  0
  139.6440   67.8010  227.3860 C   0  0  0  0  0  0  0  0  0  0  0  0
  140.5230   68.7590  227.8940 C   0  0  0  0  0  0  0  0  0  0  0  0
  140.9590   69.8100  227.0830 C   0  0  0  0  0  0  0  0  0  0  0  0
  140.5080   69.9180  225.7570 C   0  0  0  0  0  0  0  0  0  0  0  0
  141.0360   71.0340  224.8870 C   0  0  0  0  0  0  0  0  0  0  0  0
  139.9840   73.4030  222.6140 N   0  0  0  0  0  0  0  0  0  0  0  0
  139.3490   76.1620  220.2570 C   0  0  0  0  0  0  0  0  0  0  0  0
  139.1930   77.6760  220.3420 C   0  0  0  0  0  0  0  0  0  0  0  0
  139.8160   78.1060  221.6680 C   0  0  0  0  0  0  0  0  0  0  0  0
  140.3610   76.8430  222.3230 C   0  0  0  0  0  0  0  0  0  0  0  0
  138.4330   74.7450  222.9640 H   0  0  0  0  0  0  0  0  0  0  0  0
  143.5709   70.8161  220.2306 H   0  0  0  0  0  0  0  0  0  0  0  0
  142.7879   71.6148  218.8098 H   0  0  0  0  0  0  0  0  0  0  0  0
  145.1585   70.6656  218.4494 H   0  0  0  0  0  0  0  0  0  0  0  0
  144.8698   72.3721  217.9492 H   0  0  0  0  0  0  0  0  0  0  0  0
  146.0270   71.5050  220.5370 H   0  0  0  0  0  0  0  0  0  0  0  0
  146.2293   73.6123  221.1641 H   0  0  0  0  0  0  0  0  0  0  0  0
  146.3783   74.1538  219.4169 H   0  0  0  0  0  0  0  0  0  0  0  0
  144.2415   74.7443  220.9592 H   0  0  0  0  0  0  0  0  0  0  0  0
  144.1674   74.4879  219.1665 H   0  0  0  0  0  0  0  0  0  0  0  0
  138.2202   70.9583  223.9654 H   0  0  0  0  0  0  0  0  0  0  0  0
  138.8011   70.5188  222.3146 H   0  0  0  0  0  0  0  0  0  0  0  0
  138.1938   68.5266  223.7181 H   0  0  0  0  0  0  0  0  0  0  0  0
  139.9128   68.5338  223.1809 H   0  0  0  0  0  0  0  0  0  0  0  0
  138.5137   67.1277  225.6654 H   0  0  0  0  0  0  0  0  0  0  0  0
  139.3029   66.9741  228.0262 H   0  0  0  0  0  0  0  0  0  0  0  0
  140.8730   68.6865  228.9343 H   0  0  0  0  0  0  0  0  0  0  0  0
  141.6593   70.5569  227.4851 H   0  0  0  0  0  0  0  0  0  0  0  0
  140.9879   71.9722  225.4592 H   0  0  0  0  0  0  0  0  0  0  0  0
  142.0651   70.7634  224.6081 H   0  0  0  0  0  0  0  0  0  0  0  0
  140.2066   75.9009  219.6196 H   0  0  0  0  0  0  0  0  0  0  0  0
  138.4598   75.6884  219.8154 H   0  0  0  0  0  0  0  0  0  0  0  0
  139.7155   78.1589  219.5031 H   0  0  0  0  0  0  0  0  0  0  0  0
  138.1341   77.9689  220.2882 H   0  0  0  0  0  0  0  0  0  0  0  0
  140.6310   78.8229  221.4896 H   0  0  0  0  0  0  0  0  0  0  0  0
  139.0741   78.5990  222.3134 H   0  0  0  0  0  0  0  0  0  0  0  0
  141.4374   76.7401  222.1209 H   0  0  0  0  0  0  0  0  0  0  0  0
  140.2385   76.8674  223.4159 H   0  0  0  0  0  0  0  0  0  0  0  0
  1  2  1  0
  2  3  1  0
  3  4  2  0
  4  5  1  0
  5  6  1  0
  6  7  1  0
  7  8  1  0
  8  9  1  0
  9 10  1  0
 10 11  1  0
  5 12  2  0
 12 13  1  0
 13 14  1  0
 14 15  1  0
 15 16  1  0
 16 17  1  0
 17 18  2  0
 18 19  1  0
 19 20  2  0
 20 21  1  0
 21 22  2  0
 22 23  1  0
 13 24  2  0
  2 25  1  0
 25 26  1  0
 26 27  1  0
 27 28  1  0
 28  2  1  0
 24  3  1  0
 11  6  1  0
 23 14  1  0
 22 17  1  0
  1 29  1  0
  7 30  1  0
  7 31  1  0
  8 32  1  0
  8 33  1  0
  9 34  1  0
 10 35  1  0
 10 36  1  0
 11 37  1  0
 11 38  1  0
 15 39  1  0
 15 40  1  0
 16 41  1  0
 16 42  1  0
 18 43  1  0
 19 44  1  0
 20 45  1  0
 21 46  1  0
 23 47  1  0
 23 48  1  0
 25 49  1  0
 25 50  1  0
 26 51  1  0
 26 52  1  0
 27 53  1  0
 27 54  1  0
 28 55  1  0
 28 56  1  0
M  END
>  <UniqueID>  (43) 
512

>  <SMILES>  (43) 
OC1(c2nc(N3CCNCC3)nc(N3CCc4ccccc4C3)n2)CCCC1

>  <Energy>  (43) 
68.49375287355913

>  <Genealogy>  (43) 
OC1(c2nc(N3CCNCC3)nc(N3CCc4ccccc4C3)n2)CCCC1 (3D coordinates assigned)
OC1(c2nc(N3CCNCC3)nc(N3CCc4ccccc4C3)n2)CCCC1 (nonaromatic ring conformer: 68.49375287355913 kcal/mol)

>  <smiles>  (43) 
OC1(c2nc(N3CCNCC3)nc(N3CCc4ccccc4C3)n2)CCCC1

>  <score_type>  (43) 
oracle

>  <origin>  (43) 
autodockgpu

>  <m_score__min__energy>  (43) 
-8.8599999999999994

>  <m_primary>  (43) 
energy

>  <meeko>  (43) 
{"free_energy": -8.85, "intermolecular_energy": -10.05, "internal_energy": -1.5, "cluster_size": 20, "cluster_id": 1, "rank_in_cluster": 12}

>  <energy>  (43) 
-8.86

>  <cluster_rmsd>  (43) 
0.05

>  <rmsd>  (43) 
271.1

>  <cluster>  (43) 
1

$$$$
AUISRQYXECVJTM-UHFFFAOYNA-N
     RDKit          3D

 56 60  0  0  0  0  0  0  0  0999 V2000
  138.3400   75.5760  222.3650 O   0  0  0  0  0  0  0  0  0  0  0  0
  139.5610   75.7110  221.6780 C   0  0  0  0  0  0  0  0  0  0  0  0
  140.3330   74.4070  221.7440 C   0  0  0  0  0  0  0  0  0  0  0  0
  141.4690   74.2440  221.0160 N   0  0  0  0  0  0  0  0  0  0  0  0
  142.1970   73.1020  221.1150 C   0  0  0  0  0  0  0  0  0  0  0  0
  143.3950   72.9240  220.3300 N   0  0  0  0  0  0  0  0  0  0  0  0
  143.5790   71.6750  219.5780 C   0  0  0  0  0  0  0  0  0  0  0  0
  144.9150   71.6750  218.8310 C   0  0  0  0  0  0  0  0  0  0  0  0
  145.9870   72.1510  219.7100 N   0  0  0  0  0  0  0  0  0  0  0  0
  145.7990   73.5550  220.1240 C   0  0  0  0  0  0  0  0  0  0  0  0
  144.3320   74.0370  220.1160 C   0  0  0  0  0  0  0  0  0  0  0  0
  141.7890   72.1270  221.9690 N   0  0  0  0  0  0  0  0  0  0  0  0
  140.6700   72.2850  222.7230 C   0  0  0  0  0  0  0  0  0  0  0  0
  140.2460   71.2510  223.6380 N   0  0  0  0  0  0  0  0  0  0  0  0
  138.9960   70.5150  223.3940 C   0  0  0  0  0  0  0  0  0  0  0  0
  139.1350   69.0620  223.8360 C   0  0  0  0  0  0  0  0  0  0  0  0
  139.5740   68.9980  225.2670 C   0  0  0  0  0  0  0  0  0  0  0  0
  139.1520   67.9410  226.0910 C   0  0  0  0  0  0  0  0  0  0  0  0
  139.5890   67.8630  227.4140 C   0  0  0  0  0  0  0  0  0  0  0  0
  140.4620   68.8280  227.9210 C   0  0  0  0  0  0  0  0  0  0  0  0
  140.9010   69.8740  227.1050 C   0  0  0  0  0  0  0  0  0  0  0  0
  140.4590   69.9700  225.7750 C   0  0  0  0  0  0  0  0  0  0  0  0
  140.9900   71.0820  224.9010 C   0  0  0  0  0  0  0  0  0  0  0  0
  139.9520   73.4340  222.6090 N   0  0  0  0  0  0  0  0  0  0  0  0
  139.3130   76.1750  220.2380 C   0  0  0  0  0  0  0  0  0  0  0  0
  139.1620   77.6910  220.3090 C   0  0  0  0  0  0  0  0  0  0  0  0
  139.7970   78.1320  221.6260 C   0  0  0  0  0  0  0  0  0  0  0  0
  140.3430   76.8740  222.2890 C   0  0  0  0  0  0  0  0  0  0  0  0
  138.3870   74.7460  222.9090 H   0  0  0  0  0  0  0  0  0  0  0  0
  143.5588   70.8272  220.2786 H   0  0  0  0  0  0  0  0  0  0  0  0
  142.7664   71.5867  218.8419 H   0  0  0  0  0  0  0  0  0  0  0  0
  145.1452   70.6521  218.4984 H   0  0  0  0  0  0  0  0  0  0  0  0
  144.8399   72.3448  217.9617 H   0  0  0  0  0  0  0  0  0  0  0  0
  146.0090   71.5450  220.5660 H   0  0  0  0  0  0  0  0  0  0  0  0
  146.1913   73.6669  221.1456 H   0  0  0  0  0  0  0  0  0  0  0  0
  146.3336   74.1716  219.3864 H   0  0  0  0  0  0  0  0  0  0  0  0
  144.1953   74.7778  220.9176 H   0  0  0  0  0  0  0  0  0  0  0  0
  144.1209   74.4798  219.1315 H   0  0  0  0  0  0  0  0  0  0  0  0
  138.1807   70.9890  223.9603 H   0  0  0  0  0  0  0  0  0  0  0  0
  138.7743   70.5389  222.3168 H   0  0  0  0  0  0  0  0  0  0  0  0
  138.1644   68.5553  223.7304 H   0  0  0  0  0  0  0  0  0  0  0  0
  139.8876   68.5650  223.2063 H   0  0  0  0  0  0  0  0  0  0  0  0
  138.4744   67.1720  225.6916 H   0  0  0  0  0  0  0  0  0  0  0  0
  139.2454   67.0404  228.0584 H   0  0  0  0  0  0  0  0  0  0  0  0
  140.8046   68.7646  228.9644 H   0  0  0  0  0  0  0  0  0  0  0  0
  141.5963   70.6261  227.5062 H   0  0  0  0  0  0  0  0  0  0  0  0
  140.9340   72.0243  225.4657 H   0  0  0  0  0  0  0  0  0  0  0  0
  142.0225   70.8142  224.6323 H   0  0  0  0  0  0  0  0  0  0  0  0
  140.1648   75.9047  219.5966 H   0  0  0  0  0  0  0  0  0  0  0  0
  138.4193   75.6992  219.8080 H   0  0  0  0  0  0  0  0  0  0  0  0
  139.6793   78.1640  219.4612 H   0  0  0  0  0  0  0  0  0  0  0  0
  138.1036   77.9867  220.2605 H   0  0  0  0  0  0  0  0  0  0  0  0
  140.6128   78.8445  221.4341 H   0  0  0  0  0  0  0  0  0  0  0  0
  139.0618   78.6337  222.2723 H   0  0  0  0  0  0  0  0  0  0  0  0
  141.4174   76.7657  222.0796 H   0  0  0  0  0  0  0  0  0  0  0  0
  140.2291   76.9095  223.3825 H   0  0  0  0  0  0  0  0  0  0  0  0
  1  2  1  0
  2  3  1  0
  3  4  2  0
  4  5  1  0
  5  6  1  0
  6  7  1  0
  7  8  1  0
  8  9  1  0
  9 10  1  0
 10 11  1  0
  5 12  2  0
 12 13  1  0
 13 14  1  0
 14 15  1  0
 15 16  1  0
 16 17  1  0
 17 18  2  0
 18 19  1  0
 19 20  2  0
 20 21  1  0
 21 22  2  0
 22 23  1  0
 13 24  2  0
  2 25  1  0
 25 26  1  0
 26 27  1  0
 27 28  1  0
 28  2  1  0
 24  3  1  0
 11  6  1  0
 23 14  1  0
 22 17  1  0
  1 29  1  0
  7 30  1  0
  7 31  1  0
  8 32  1  0
  8 33  1  0
  9 34  1  0
 10 35  1  0
 10 36  1  0
 11 37  1  0
 11 38  1  0
 15 39  1  0
 15 40  1  0
 16 41  1  0
 16 42  1  0
 18 43  1  0
 19 44  1  0
 20 45  1  0
 21 46  1  0
 23 47  1  0
 23 48  1  0
 25 49  1  0
 25 50  1  0
 26 51  1  0
 26 52  1  0
 27 53  1  0
 27 54  1  0
 28 55  1  0
 28 56  1  0
M  END
>  <UniqueID>  (44) 
512

>  <SMILES>  (44) 
OC1(c2nc(N3CCNCC3)nc(N3CCc4ccccc4C3)n2)CCCC1

>  <Energy>  (44) 
68.49375287355913

>  <Genealogy>  (44) 
OC1(c2nc(N3CCNCC3)nc(N3CCc4ccccc4C3)n2)CCCC1 (3D coordinates assigned)
OC1(c2nc(N3CCNCC3)nc(N3CCc4ccccc4C3)n2)CCCC1 (nonaromatic ring conformer: 68.49375287355913 kcal/mol)

>  <smiles>  (44) 
OC1(c2nc(N3CCNCC3)nc(N3CCc4ccccc4C3)n2)CCCC1

>  <score_type>  (44) 
oracle

>  <origin>  (44) 
autodockgpu

>  <m_score__min__energy>  (44) 
-8.8599999999999994

>  <m_primary>  (44) 
energy

>  <meeko>  (44) 
{"free_energy": -8.84, "intermolecular_energy": -10.03, "internal_energy": -1.51, "cluster_size": 20, "cluster_id": 1, "rank_in_cluster": 20}

>  <energy>  (44) 
-8.86

>  <cluster_rmsd>  (44) 
0.05

>  <rmsd>  (44) 
271.1

>  <cluster>  (44) 
1

$$$$
AUISRQYXECVJTM-UHFFFAOYNA-N
     RDKit          3D

 56 60  0  0  0  0  0  0  0  0999 V2000
  138.3650   75.5390  222.3790 O   0  0  0  0  0  0  0  0  0  0  0  0
  139.5930   75.6840  221.7050 C   0  0  0  0  0  0  0  0  0  0  0  0
  140.3640   74.3790  221.7580 C   0  0  0  0  0  0  0  0  0  0  0  0
  141.4980   74.2220  221.0270 N   0  0  0  0  0  0  0  0  0  0  0  0
  142.2260   73.0780  221.1140 C   0  0  0  0  0  0  0  0  0  0  0  0
  143.4220   72.9060  220.3260 N   0  0  0  0  0  0  0  0  0  0  0  0
  143.6000   71.6680  219.5560 C   0  0  0  0  0  0  0  0  0  0  0  0
  144.9360   71.6730  218.8080 C   0  0  0  0  0  0  0  0  0  0  0  0
  146.0100   72.1310  219.6940 N   0  0  0  0  0  0  0  0  0  0  0  0
  145.8290   73.5300  220.1280 C   0  0  0  0  0  0  0  0  0  0  0  0
  144.3640   74.0180  220.1290 C   0  0  0  0  0  0  0  0  0  0  0  0
  141.8170   72.0950  221.9600 N   0  0  0  0  0  0  0  0  0  0  0  0
  140.6990   72.2470  222.7160 C   0  0  0  0  0  0  0  0  0  0  0  0
  140.2760   71.2050  223.6220 N   0  0  0  0  0  0  0  0  0  0  0  0
  139.0300   70.4660  223.3670 C   0  0  0  0  0  0  0  0  0  0  0  0
  139.1730   69.0100  223.7990 C   0  0  0  0  0  0  0  0  0  0  0  0
  139.6060   68.9380  225.2320 C   0  0  0  0  0  0  0  0  0  0  0  0
  139.1840   67.8730  226.0460 C   0  0  0  0  0  0  0  0  0  0  0  0
  139.6150   67.7870  227.3710 C   0  0  0  0  0  0  0  0  0  0  0  0
  140.4810   68.7530  227.8890 C   0  0  0  0  0  0  0  0  0  0  0  0
  140.9190   69.8060  227.0820 C   0  0  0  0  0  0  0  0  0  0  0  0
  140.4840   69.9100  225.7510 C   0  0  0  0  0  0  0  0  0  0  0  0
  141.0140   71.0300  224.8870 C   0  0  0  0  0  0  0  0  0  0  0  0
  139.9820   73.3980  222.6150 N   0  0  0  0  0  0  0  0  0  0  0  0
  139.3590   76.1720  220.2700 C   0  0  0  0  0  0  0  0  0  0  0  0
  139.2080   77.6860  220.3650 C   0  0  0  0  0  0  0  0  0  0  0  0
  139.8300   78.1050  221.6950 C   0  0  0  0  0  0  0  0  0  0  0  0
  140.3690   76.8370  222.3430 C   0  0  0  0  0  0  0  0  0  0  0  0
  138.4140   74.7110  222.9250 H   0  0  0  0  0  0  0  0  0  0  0  0
  143.5764   70.8101  220.2441 H   0  0  0  0  0  0  0  0  0  0  0  0
  142.7866   71.5942  218.8191 H   0  0  0  0  0  0  0  0  0  0  0  0
  145.1615   70.6541  218.4601 H   0  0  0  0  0  0  0  0  0  0  0  0
  144.8638   72.3557  217.9485 H   0  0  0  0  0  0  0  0  0  0  0  0
  146.0300   71.5120  220.5400 H   0  0  0  0  0  0  0  0  0  0  0  0
  146.2233   73.6259  221.1504 H   0  0  0  0  0  0  0  0  0  0  0  0
  146.3653   74.1547  219.3986 H   0  0  0  0  0  0  0  0  0  0  0  0
  144.2312   74.7465  220.9424 H   0  0  0  0  0  0  0  0  0  0  0  0
  144.1541   74.4770  219.1516 H   0  0  0  0  0  0  0  0  0  0  0  0
  138.2104   70.9325  223.9332 H   0  0  0  0  0  0  0  0  0  0  0  0
  138.8128   70.4970  222.2891 H   0  0  0  0  0  0  0  0  0  0  0  0
  138.2050   68.5001  223.6854 H   0  0  0  0  0  0  0  0  0  0  0  0
  139.9303   68.5203  223.1691 H   0  0  0  0  0  0  0  0  0  0  0  0
  138.5115   67.1043  225.6376 H   0  0  0  0  0  0  0  0  0  0  0  0
  139.2724   66.9579  228.0077 H   0  0  0  0  0  0  0  0  0  0  0  0
  140.8185   68.6845  228.9337 H   0  0  0  0  0  0  0  0  0  0  0  0
  141.6090   70.5583  227.4919 H   0  0  0  0  0  0  0  0  0  0  0  0
  140.9513   71.9681  225.4579 H   0  0  0  0  0  0  0  0  0  0  0  0
  142.0487   70.7679  224.6211 H   0  0  0  0  0  0  0  0  0  0  0  0
  140.2168   75.9120  219.6324 H   0  0  0  0  0  0  0  0  0  0  0  0
  138.4694   75.7039  219.8234 H   0  0  0  0  0  0  0  0  0  0  0  0
  139.7337   78.1728  219.5303 H   0  0  0  0  0  0  0  0  0  0  0  0
  138.1502   77.9828  220.3113 H   0  0  0  0  0  0  0  0  0  0  0  0
  140.6479   78.8201  221.5227 H   0  0  0  0  0  0  0  0  0  0  0  0
  139.0883   78.5962  222.3420 H   0  0  0  0  0  0  0  0  0  0  0  0
  141.4455   76.7318  222.1429 H   0  0  0  0  0  0  0  0  0  0  0  0
  140.2440   76.8549  223.4357 H   0  0  0  0  0  0  0  0  0  0  0  0
  1  2  1  0
  2  3  1  0
  3  4  2  0
  4  5  1  0
  5  6  1  0
  6  7  1  0
  7  8  1  0
  8  9  1  0
  9 10  1  0
 10 11  1  0
  5 12  2  0
 12 13  1  0
 13 14  1  0
 14 15  1  0
 15 16  1  0
 16 17  1  0
 17 18  2  0
 18 19  1  0
 19 20  2  0
 20 21  1  0
 21 22  2  0
 22 23  1  0
 13 24  2  0
  2 25  1  0
 25 26  1  0
 26 27  1  0
 27 28  1  0
 28  2  1  0
 24  3  1  0
 11  6  1  0
 23 14  1  0
 22 17  1  0
  1 29  1  0
  7 30  1  0
  7 31  1  0
  8 32  1  0
  8 33  1  0
  9 34  1  0
 10 35  1  0
 10 36  1  0
 11 37  1  0
 11 38  1  0
 15 39  1  0
 15 40  1  0
 16 41  1  0
 16 42  1  0
 18 43  1  0
 19 44  1  0
 20 45  1  0
 21 46  1  0
 23 47  1  0
 23 48  1  0
 25 49  1  0
 25 50  1  0
 26 51  1  0
 26 52  1  0
 27 53  1  0
 27 54  1  0
 28 55  1  0
 28 56  1  0
M  END
>  <UniqueID>  (45) 
512

>  <SMILES>  (45) 
OC1(c2nc(N3CCNCC3)nc(N3CCc4ccccc4C3)n2)CCCC1

>  <Energy>  (45) 
68.49375287355913

>  <Genealogy>  (45) 
OC1(c2nc(N3CCNCC3)nc(N3CCc4ccccc4C3)n2)CCCC1 (3D coordinates assigned)
OC1(c2nc(N3CCNCC3)nc(N3CCc4ccccc4C3)n2)CCCC1 (nonaromatic ring conformer: 68.49375287355913 kcal/mol)

>  <smiles>  (45) 
OC1(c2nc(N3CCNCC3)nc(N3CCc4ccccc4C3)n2)CCCC1

>  <score_type>  (45) 
oracle

>  <origin>  (45) 
autodockgpu

>  <m_score__min__energy>  (45) 
-8.8599999999999994

>  <m_primary>  (45) 
energy

>  <meeko>  (45) 
{"free_energy": -8.86, "intermolecular_energy": -10.05, "internal_energy": -1.51, "cluster_size": 20, "cluster_id": 1, "rank_in_cluster": 3}

>  <energy>  (45) 
-8.86

>  <cluster_rmsd>  (45) 
0.05

>  <rmsd>  (45) 
271.1

>  <cluster>  (45) 
1

$$$$
AUISRQYXECVJTM-UHFFFAOYNA-N
     RDKit          3D

 56 60  0  0  0  0  0  0  0  0999 V2000
  138.3260   75.5600  222.3630 O   0  0  0  0  0  0  0  0  0  0  0  0
  139.5520   75.7230  221.6920 C   0  0  0  0  0  0  0  0  0  0  0  0
  140.3410   74.4290  221.7420 C   0  0  0  0  0  0  0  0  0  0  0  0
  141.4840   74.2930  221.0210 N   0  0  0  0  0  0  0  0  0  0  0  0
  142.2270   73.1590  221.1070 C   0  0  0  0  0  0  0  0  0  0  0  0
  143.4330   73.0090  220.3290 N   0  0  0  0  0  0  0  0  0  0  0  0
  143.5830   71.8330  219.4610 C   0  0  0  0  0  0  0  0  0  0  0  0
  144.9330   71.8510  218.7400 C   0  0  0  0  0  0  0  0  0  0  0  0
  146.0040   72.1940  219.6810 N   0  0  0  0  0  0  0  0  0  0  0  0
  145.8640   73.5580  220.2280 C   0  0  0  0  0  0  0  0  0  0  0  0
  144.4170   74.0980  220.2430 C   0  0  0  0  0  0  0  0  0  0  0  0
  141.8240   72.1640  221.9420 N   0  0  0  0  0  0  0  0  0  0  0  0
  140.6970   72.2950  222.6890 C   0  0  0  0  0  0  0  0  0  0  0  0
  140.2800   71.2410  223.5840 N   0  0  0  0  0  0  0  0  0  0  0  0
  139.0360   70.5000  223.3230 C   0  0  0  0  0  0  0  0  0  0  0  0
  139.1860   69.0400  223.7380 C   0  0  0  0  0  0  0  0  0  0  0  0
  139.6230   68.9530  225.1690 C   0  0  0  0  0  0  0  0  0  0  0  0
  139.2080   67.8770  225.9710 C   0  0  0  0  0  0  0  0  0  0  0  0
  139.6420   67.7770  227.2940 C   0  0  0  0  0  0  0  0  0  0  0  0
  140.5060   68.7400  227.8220 C   0  0  0  0  0  0  0  0  0  0  0  0
  140.9380   69.8040  227.0260 C   0  0  0  0  0  0  0  0  0  0  0  0
  140.4990   69.9220  225.6970 C   0  0  0  0  0  0  0  0  0  0  0  0
  141.0220   71.0540  224.8450 C   0  0  0  0  0  0  0  0  0  0  0  0
  139.9650   73.4360  222.5890 N   0  0  0  0  0  0  0  0  0  0  0  0
  139.3140   76.2110  220.2570 C   0  0  0  0  0  0  0  0  0  0  0  0
  139.1420   77.7230  220.3550 C   0  0  0  0  0  0  0  0  0  0  0  0
  139.7560   78.1480  221.6870 C   0  0  0  0  0  0  0  0  0  0  0  0
  140.3120   76.8850  222.3330 C   0  0  0  0  0  0  0  0  0  0  0  0
  138.3930   74.7440  222.9250 H   0  0  0  0  0  0  0  0  0  0  0  0
  143.5150   70.9224  220.0743 H   0  0  0  0  0  0  0  0  0  0  0  0
  142.7828   71.8505  218.7064 H   0  0  0  0  0  0  0  0  0  0  0  0
  145.1298   70.8570  218.3119 H   0  0  0  0  0  0  0  0  0  0  0  0
  144.9029   72.6049  217.9395 H   0  0  0  0  0  0  0  0  0  0  0  0
  145.9850   71.5070  220.4730 H   0  0  0  0  0  0  0  0  0  0  0  0
  146.2395   73.5535  221.2619 H   0  0  0  0  0  0  0  0  0  0  0  0
  146.4380   74.2212  219.5641 H   0  0  0  0  0  0  0  0  0  0  0  0
  144.2925   74.7609  221.1120 H   0  0  0  0  0  0  0  0  0  0  0  0
  144.2442   74.6441  219.3039 H   0  0  0  0  0  0  0  0  0  0  0  0
  138.2157   70.9567  223.8962 H   0  0  0  0  0  0  0  0  0  0  0  0
  138.8161   70.5426  222.2460 H   0  0  0  0  0  0  0  0  0  0  0  0
  138.2198   68.5275  223.6210 H   0  0  0  0  0  0  0  0  0  0  0  0
  139.9438   68.5608  223.1007 H   0  0  0  0  0  0  0  0  0  0  0  0
  138.5383   67.1100  225.5548 H   0  0  0  0  0  0  0  0  0  0  0  0
  139.3035   66.9393  227.9215 H   0  0  0  0  0  0  0  0  0  0  0  0
  140.8463   68.6604  228.8650 H   0  0  0  0  0  0  0  0  0  0  0  0
  141.6263   70.5540  227.4428 H   0  0  0  0  0  0  0  0  0  0  0  0
  140.9570   71.9851  225.4271 H   0  0  0  0  0  0  0  0  0  0  0  0
  142.0570   70.7992  224.5733 H   0  0  0  0  0  0  0  0  0  0  0  0
  140.1765   75.9641  219.6205 H   0  0  0  0  0  0  0  0  0  0  0  0
  138.4318   75.7316  219.8077 H   0  0  0  0  0  0  0  0  0  0  0  0
  139.6623   78.2187  219.5222 H   0  0  0  0  0  0  0  0  0  0  0  0
  138.0802   78.0052  220.3003 H   0  0  0  0  0  0  0  0  0  0  0  0
  140.5640   78.8749  221.5177 H   0  0  0  0  0  0  0  0  0  0  0  0
  139.0068   78.6276  222.3340 H   0  0  0  0  0  0  0  0  0  0  0  0
  141.3900   76.7948  222.1333 H   0  0  0  0  0  0  0  0  0  0  0  0
  140.1860   76.8988  223.4257 H   0  0  0  0  0  0  0  0  0  0  0  0
  1  2  1  0
  2  3  1  0
  3  4  2  0
  4  5  1  0
  5  6  1  0
  6  7  1  0
  7  8  1  0
  8  9  1  0
  9 10  1  0
 10 11  1  0
  5 12  2  0
 12 13  1  0
 13 14  1  0
 14 15  1  0
 15 16  1  0
 16 17  1  0
 17 18  2  0
 18 19  1  0
 19 20  2  0
 20 21  1  0
 21 22  2  0
 22 23  1  0
 13 24  2  0
  2 25  1  0
 25 26  1  0
 26 27  1  0
 27 28  1  0
 28  2  1  0
 24  3  1  0
 11  6  1  0
 23 14  1  0
 22 17  1  0
  1 29  1  0
  7 30  1  0
  7 31  1  0
  8 32  1  0
  8 33  1  0
  9 34  1  0
 10 35  1  0
 10 36  1  0
 11 37  1  0
 11 38  1  0
 15 39  1  0
 15 40  1  0
 16 41  1  0
 16 42  1  0
 18 43  1  0
 19 44  1  0
 20 45  1  0
 21 46  1  0
 23 47  1  0
 23 48  1  0
 25 49  1  0
 25 50  1  0
 26 51  1  0
 26 52  1  0
 27 53  1  0
 27 54  1  0
 28 55  1  0
 28 56  1  0
M  END
>  <UniqueID>  (46) 
512

>  <SMILES>  (46) 
OC1(c2nc(N3CCNCC3)nc(N3CCc4ccccc4C3)n2)CCCC1

>  <Energy>  (46) 
68.49375287355913

>  <Genealogy>  (46) 
OC1(c2nc(N3CCNCC3)nc(N3CCc4ccccc4C3)n2)CCCC1 (3D coordinates assigned)
OC1(c2nc(N3CCNCC3)nc(N3CCc4ccccc4C3)n2)CCCC1 (nonaromatic ring conformer: 68.49375287355913 kcal/mol)

>  <smiles>  (46) 
OC1(c2nc(N3CCNCC3)nc(N3CCc4ccccc4C3)n2)CCCC1

>  <score_type>  (46) 
oracle

>  <origin>  (46) 
autodockgpu

>  <m_score__min__energy>  (46) 
-8.8599999999999994

>  <m_primary>  (46) 
energy

>  <meeko>  (46) 
{"free_energy": -8.85, "intermolecular_energy": -10.05, "internal_energy": -1.5, "cluster_size": 20, "cluster_id": 1, "rank_in_cluster": 13}

>  <energy>  (46) 
-8.86

>  <cluster_rmsd>  (46) 
0.04

>  <rmsd>  (46) 
271.1

>  <cluster>  (46) 
1

$$$$
AUISRQYXECVJTM-UHFFFAOYNA-N
     RDKit          3D

 56 60  0  0  0  0  0  0  0  0999 V2000
  138.3400   75.5390  222.3550 O   0  0  0  0  0  0  0  0  0  0  0  0
  139.5670   75.6920  221.6840 C   0  0  0  0  0  0  0  0  0  0  0  0
  140.3490   74.3940  221.7410 C   0  0  0  0  0  0  0  0  0  0  0  0
  141.4880   74.2460  221.0150 N   0  0  0  0  0  0  0  0  0  0  0  0
  142.2250   73.1090  221.1060 C   0  0  0  0  0  0  0  0  0  0  0  0
  143.4250   72.9460  220.3220 N   0  0  0  0  0  0  0  0  0  0  0  0
  143.5840   71.7400  219.4980 C   0  0  0  0  0  0  0  0  0  0  0  0
  144.9270   71.7480  218.7640 C   0  0  0  0  0  0  0  0  0  0  0  0
  146.0020   72.1420  219.6800 N   0  0  0  0  0  0  0  0  0  0  0  0
  145.8480   73.5240  220.1750 C   0  0  0  0  0  0  0  0  0  0  0  0
  144.3930   74.0440  220.1840 C   0  0  0  0  0  0  0  0  0  0  0  0
  141.8220   72.1230  221.9520 N   0  0  0  0  0  0  0  0  0  0  0  0
  140.7000   72.2670  222.7040 C   0  0  0  0  0  0  0  0  0  0  0  0
  140.2830   71.2230  223.6100 N   0  0  0  0  0  0  0  0  0  0  0  0
  139.0420   70.4740  223.3540 C   0  0  0  0  0  0  0  0  0  0  0  0
  139.1960   69.0200  223.7880 C   0  0  0  0  0  0  0  0  0  0  0  0
  139.6270   68.9530  225.2220 C   0  0  0  0  0  0  0  0  0  0  0  0
  139.2120   67.8860  226.0360 C   0  0  0  0  0  0  0  0  0  0  0  0
  139.6410   67.8040  227.3620 C   0  0  0  0  0  0  0  0  0  0  0  0
  140.4990   68.7760  227.8800 C   0  0  0  0  0  0  0  0  0  0  0  0
  140.9310   69.8320  227.0730 C   0  0  0  0  0  0  0  0  0  0  0  0
  140.4970   69.9310  225.7410 C   0  0  0  0  0  0  0  0  0  0  0  0
  141.0200   71.0540  224.8770 C   0  0  0  0  0  0  0  0  0  0  0  0
  139.9730   73.4110  222.5980 N   0  0  0  0  0  0  0  0  0  0  0  0
  139.3320   76.1750  220.2470 C   0  0  0  0  0  0  0  0  0  0  0  0
  139.1680   77.6880  220.3380 C   0  0  0  0  0  0  0  0  0  0  0  0
  139.7830   78.1160  221.6680 C   0  0  0  0  0  0  0  0  0  0  0  0
  140.3320   76.8540  222.3200 C   0  0  0  0  0  0  0  0  0  0  0  0
  138.4370   74.7880  222.9990 H   0  0  0  0  0  0  0  0  0  0  0  0
  143.5340   70.8527  220.1462 H   0  0  0  0  0  0  0  0  0  0  0  0
  142.7772   71.7184  218.7506 H   0  0  0  0  0  0  0  0  0  0  0  0
  145.1335   70.7407  218.3732 H   0  0  0  0  0  0  0  0  0  0  0  0
  144.8789   72.4697  217.9352 H   0  0  0  0  0  0  0  0  0  0  0  0
  146.0000   71.4860  220.4970 H   0  0  0  0  0  0  0  0  0  0  0  0
  146.2337   73.5650  221.2043 H   0  0  0  0  0  0  0  0  0  0  0  0
  146.4059   74.1688  219.4800 H   0  0  0  0  0  0  0  0  0  0  0  0
  144.2676   74.7382  221.0280 H   0  0  0  0  0  0  0  0  0  0  0  0
  144.2035   74.5505  219.2261 H   0  0  0  0  0  0  0  0  0  0  0  0
  138.2181   70.9349  223.9186 H   0  0  0  0  0  0  0  0  0  0  0  0
  138.8256   70.5023  222.2759 H   0  0  0  0  0  0  0  0  0  0  0  0
  138.2323   68.5021  223.6732 H   0  0  0  0  0  0  0  0  0  0  0  0
  139.9584   68.5358  223.1601 H   0  0  0  0  0  0  0  0  0  0  0  0
  138.5462   67.1118  225.6269 H   0  0  0  0  0  0  0  0  0  0  0  0
  139.3029   66.9733  227.9989 H   0  0  0  0  0  0  0  0  0  0  0  0
  140.8355   68.7105  228.9252 H   0  0  0  0  0  0  0  0  0  0  0  0
  141.6147   70.5898  227.4833 H   0  0  0  0  0  0  0  0  0  0  0  0
  140.9494   71.9921  225.4471 H   0  0  0  0  0  0  0  0  0  0  0  0
  142.0570   70.7990  224.6130 H   0  0  0  0  0  0  0  0  0  0  0  0
  140.1934   75.9207  219.6119 H   0  0  0  0  0  0  0  0  0  0  0  0
  138.4473   75.6984  219.7996 H   0  0  0  0  0  0  0  0  0  0  0  0
  139.6915   78.1771  219.5033 H   0  0  0  0  0  0  0  0  0  0  0  0
  138.1077   77.9755  220.2813 H   0  0  0  0  0  0  0  0  0  0  0  0
  140.5947   78.8381  221.4958 H   0  0  0  0  0  0  0  0  0  0  0  0
  139.0357   78.6023  222.3122 H   0  0  0  0  0  0  0  0  0  0  0  0
  141.4097   76.7577  222.1217 H   0  0  0  0  0  0  0  0  0  0  0  0
  140.2049   76.8737  223.4125 H   0  0  0  0  0  0  0  0  0  0  0  0
  1  2  1  0
  2  3  1  0
  3  4  2  0
  4  5  1  0
  5  6  1  0
  6  7  1  0
  7  8  1  0
  8  9  1  0
  9 10  1  0
 10 11  1  0
  5 12  2  0
 12 13  1  0
 13 14  1  0
 14 15  1  0
 15 16  1  0
 16 17  1  0
 17 18  2  0
 18 19  1  0
 19 20  2  0
 20 21  1  0
 21 22  2  0
 22 23  1  0
 13 24  2  0
  2 25  1  0
 25 26  1  0
 26 27  1  0
 27 28  1  0
 28  2  1  0
 24  3  1  0
 11  6  1  0
 23 14  1  0
 22 17  1  0
  1 29  1  0
  7 30  1  0
  7 31  1  0
  8 32  1  0
  8 33  1  0
  9 34  1  0
 10 35  1  0
 10 36  1  0
 11 37  1  0
 11 38  1  0
 15 39  1  0
 15 40  1  0
 16 41  1  0
 16 42  1  0
 18 43  1  0
 19 44  1  0
 20 45  1  0
 21 46  1  0
 23 47  1  0
 23 48  1  0
 25 49  1  0
 25 50  1  0
 26 51  1  0
 26 52  1  0
 27 53  1  0
 27 54  1  0
 28 55  1  0
 28 56  1  0
M  END
>  <UniqueID>  (47) 
512

>  <SMILES>  (47) 
OC1(c2nc(N3CCNCC3)nc(N3CCc4ccccc4C3)n2)CCCC1

>  <Energy>  (47) 
68.49375287355913

>  <Genealogy>  (47) 
OC1(c2nc(N3CCNCC3)nc(N3CCc4ccccc4C3)n2)CCCC1 (3D coordinates assigned)
OC1(c2nc(N3CCNCC3)nc(N3CCc4ccccc4C3)n2)CCCC1 (nonaromatic ring conformer: 68.49375287355913 kcal/mol)

>  <smiles>  (47) 
OC1(c2nc(N3CCNCC3)nc(N3CCc4ccccc4C3)n2)CCCC1

>  <score_type>  (47) 
oracle

>  <origin>  (47) 
autodockgpu

>  <m_score__min__energy>  (47) 
-8.8599999999999994

>  <m_primary>  (47) 
energy

>  <meeko>  (47) 
{"free_energy": -8.85, "intermolecular_energy": -10.05, "internal_energy": -1.5, "cluster_size": 20, "cluster_id": 1, "rank_in_cluster": 11}

>  <energy>  (47) 
-8.86

>  <cluster_rmsd>  (47) 
0.02

>  <rmsd>  (47) 
271.08

>  <cluster>  (47) 
1

$$$$
AUISRQYXECVJTM-UHFFFAOYNA-N
     RDKit          3D

 56 60  0  0  0  0  0  0  0  0999 V2000
  138.3120   75.5410  222.3780 O   0  0  0  0  0  0  0  0  0  0  0  0
  139.5320   75.7050  221.6940 C   0  0  0  0  0  0  0  0  0  0  0  0
  140.3290   74.4170  221.7510 C   0  0  0  0  0  0  0  0  0  0  0  0
  141.4750   74.2860  221.0340 N   0  0  0  0  0  0  0  0  0  0  0  0
  142.2260   73.1580  221.1250 C   0  0  0  0  0  0  0  0  0  0  0  0
  143.4350   73.0140  220.3510 N   0  0  0  0  0  0  0  0  0  0  0  0
  143.5900   71.8450  219.4750 C   0  0  0  0  0  0  0  0  0  0  0  0
  144.9430   71.8690  218.7600 C   0  0  0  0  0  0  0  0  0  0  0  0
  146.0100   72.2050  219.7080 N   0  0  0  0  0  0  0  0  0  0  0  0
  145.8670   73.5650  220.2650 C   0  0  0  0  0  0  0  0  0  0  0  0
  144.4190   74.1040  220.2780 C   0  0  0  0  0  0  0  0  0  0  0  0
  141.8280   72.1630  221.9620 N   0  0  0  0  0  0  0  0  0  0  0  0
  140.6970   72.2880  222.7050 C   0  0  0  0  0  0  0  0  0  0  0  0
  140.2850   71.2340  223.6010 N   0  0  0  0  0  0  0  0  0  0  0  0
  139.0430   70.4880  223.3430 C   0  0  0  0  0  0  0  0  0  0  0  0
  139.1980   69.0290  223.7590 C   0  0  0  0  0  0  0  0  0  0  0  0
  139.6370   68.9450  225.1900 C   0  0  0  0  0  0  0  0  0  0  0  0
  139.2270   67.8690  225.9930 C   0  0  0  0  0  0  0  0  0  0  0  0
  139.6630   67.7710  227.3160 C   0  0  0  0  0  0  0  0  0  0  0  0
  140.5250   68.7370  227.8410 C   0  0  0  0  0  0  0  0  0  0  0  0
  140.9520   69.8020  227.0440 C   0  0  0  0  0  0  0  0  0  0  0  0
  140.5110   69.9170  225.7160 C   0  0  0  0  0  0  0  0  0  0  0  0
  141.0300   71.0500  224.8610 C   0  0  0  0  0  0  0  0  0  0  0  0
  139.9580   73.4230  222.5990 N   0  0  0  0  0  0  0  0  0  0  0  0
  139.2770   76.1770  220.2570 C   0  0  0  0  0  0  0  0  0  0  0  0
  139.0960   77.6880  220.3410 C   0  0  0  0  0  0  0  0  0  0  0  0
  139.7190   78.1310  221.6630 C   0  0  0  0  0  0  0  0  0  0  0  0
  140.2890   76.8790  222.3170 C   0  0  0  0  0  0  0  0  0  0  0  0
  138.3980   74.7460  222.9680 H   0  0  0  0  0  0  0  0  0  0  0  0
  143.5200   70.9298  220.0812 H   0  0  0  0  0  0  0  0  0  0  0  0
  142.7933   71.8679  218.7169 H   0  0  0  0  0  0  0  0  0  0  0  0
  145.1419   70.8784  218.3250 H   0  0  0  0  0  0  0  0  0  0  0  0
  144.9159   72.6291  217.9653 H   0  0  0  0  0  0  0  0  0  0  0  0
  145.9870   71.5120  220.4950 H   0  0  0  0  0  0  0  0  0  0  0  0
  146.2382   73.5528  221.3004 H   0  0  0  0  0  0  0  0  0  0  0  0
  146.4434   74.2336  219.6088 H   0  0  0  0  0  0  0  0  0  0  0  0
  144.2903   74.7598  221.1517 H   0  0  0  0  0  0  0  0  0  0  0  0
  144.2500   74.6572  219.3424 H   0  0  0  0  0  0  0  0  0  0  0  0
  138.2222   70.9425  223.9171 H   0  0  0  0  0  0  0  0  0  0  0  0
  138.8217   70.5286  222.2663 H   0  0  0  0  0  0  0  0  0  0  0  0
  138.2332   68.5133  223.6436 H   0  0  0  0  0  0  0  0  0  0  0  0
  139.9564   68.5515  223.1212 H   0  0  0  0  0  0  0  0  0  0  0  0
  138.5593   67.0996  225.5782 H   0  0  0  0  0  0  0  0  0  0  0  0
  139.3277   66.9331  227.9449 H   0  0  0  0  0  0  0  0  0  0  0  0
  140.8679   68.6589  228.8833 H   0  0  0  0  0  0  0  0  0  0  0  0
  141.6379   70.5550  227.4594 H   0  0  0  0  0  0  0  0  0  0  0  0
  140.9640   71.9816  225.4422 H   0  0  0  0  0  0  0  0  0  0  0  0
  142.0650   70.7971  224.5875 H   0  0  0  0  0  0  0  0  0  0  0  0
  140.1350   75.9293  219.6147 H   0  0  0  0  0  0  0  0  0  0  0  0
  138.3935   75.6875  219.8213 H   0  0  0  0  0  0  0  0  0  0  0  0
  139.6055   78.1784  219.4985 H   0  0  0  0  0  0  0  0  0  0  0  0
  138.0319   77.9626  220.2930 H   0  0  0  0  0  0  0  0  0  0  0  0
  140.5206   78.8614  221.4788 H   0  0  0  0  0  0  0  0  0  0  0  0
  138.9723   78.6123  222.3117 H   0  0  0  0  0  0  0  0  0  0  0  0
  141.3659   76.7943  222.1095 H   0  0  0  0  0  0  0  0  0  0  0  0
  140.1718   76.9031  223.4105 H   0  0  0  0  0  0  0  0  0  0  0  0
  1  2  1  0
  2  3  1  0
  3  4  2  0
  4  5  1  0
  5  6  1  0
  6  7  1  0
  7  8  1  0
  8  9  1  0
  9 10  1  0
 10 11  1  0
  5 12  2  0
 12 13  1  0
 13 14  1  0
 14 15  1  0
 15 16  1  0
 16 17  1  0
 17 18  2  0
 18 19  1  0
 19 20  2  0
 20 21  1  0
 21 22  2  0
 22 23  1  0
 13 24  2  0
  2 25  1  0
 25 26  1  0
 26 27  1  0
 27 28  1  0
 28  2  1  0
 24  3  1  0
 11  6  1  0
 23 14  1  0
 22 17  1  0
  1 29  1  0
  7 30  1  0
  7 31  1  0
  8 32  1  0
  8 33  1  0
  9 34  1  0
 10 35  1  0
 10 36  1  0
 11 37  1  0
 11 38  1  0
 15 39  1  0
 15 40  1  0
 16 41  1  0
 16 42  1  0
 18 43  1  0
 19 44  1  0
 20 45  1  0
 21 46  1  0
 23 47  1  0
 23 48  1  0
 25 49  1  0
 25 50  1  0
 26 51  1  0
 26 52  1  0
 27 53  1  0
 27 54  1  0
 28 55  1  0
 28 56  1  0
M  END
>  <UniqueID>  (48) 
512

>  <SMILES>  (48) 
OC1(c2nc(N3CCNCC3)nc(N3CCc4ccccc4C3)n2)CCCC1

>  <Energy>  (48) 
68.49375287355913

>  <Genealogy>  (48) 
OC1(c2nc(N3CCNCC3)nc(N3CCc4ccccc4C3)n2)CCCC1 (3D coordinates assigned)
OC1(c2nc(N3CCNCC3)nc(N3CCc4ccccc4C3)n2)CCCC1 (nonaromatic ring conformer: 68.49375287355913 kcal/mol)

>  <smiles>  (48) 
OC1(c2nc(N3CCNCC3)nc(N3CCc4ccccc4C3)n2)CCCC1

>  <score_type>  (48) 
oracle

>  <origin>  (48) 
autodockgpu

>  <m_score__min__energy>  (48) 
-8.8599999999999994

>  <m_primary>  (48) 
energy

>  <meeko>  (48) 
{"free_energy": -8.85, "intermolecular_energy": -10.04, "internal_energy": -1.5, "cluster_size": 20, "cluster_id": 1, "rank_in_cluster": 15}

>  <energy>  (48) 
-8.86

>  <cluster_rmsd>  (48) 
0.02

>  <rmsd>  (48) 
271.08

>  <cluster>  (48) 
1

$$$$
AUISRQYXECVJTM-UHFFFAOYNA-N
     RDKit          3D

 56 60  0  0  0  0  0  0  0  0999 V2000
  138.2890   75.5170  222.3300 O   0  0  0  0  0  0  0  0  0  0  0  0
  139.5250   75.6850  221.6780 C   0  0  0  0  0  0  0  0  0  0  0  0
  140.3160   74.3930  221.7370 C   0  0  0  0  0  0  0  0  0  0  0  0
  141.4570   74.2530  221.0140 N   0  0  0  0  0  0  0  0  0  0  0  0
  142.2020   73.1210  221.1070 C   0  0  0  0  0  0  0  0  0  0  0  0
  143.4060   72.9670  220.3260 N   0  0  0  0  0  0  0  0  0  0  0  0
  143.5670   71.7710  219.4870 C   0  0  0  0  0  0  0  0  0  0  0  0
  144.9130   71.7880  218.7590 C   0  0  0  0  0  0  0  0  0  0  0  0
  145.9850   72.1680  219.6850 N   0  0  0  0  0  0  0  0  0  0  0  0
  145.8290   73.5440  220.1980 C   0  0  0  0  0  0  0  0  0  0  0  0
  144.3760   74.0650  220.2070 C   0  0  0  0  0  0  0  0  0  0  0  0
  141.8040   72.1320  221.9510 N   0  0  0  0  0  0  0  0  0  0  0  0
  140.6790   72.2680  222.7010 C   0  0  0  0  0  0  0  0  0  0  0  0
  140.2670   71.2210  223.6050 N   0  0  0  0  0  0  0  0  0  0  0  0
  139.0190   70.4800  223.3590 C   0  0  0  0  0  0  0  0  0  0  0  0
  139.1700   69.0230  223.7830 C   0  0  0  0  0  0  0  0  0  0  0  0
  139.6170   68.9440  225.2110 C   0  0  0  0  0  0  0  0  0  0  0  0
  139.2060   67.8750  226.0230 C   0  0  0  0  0  0  0  0  0  0  0  0
  139.6500   67.7830  227.3440 C   0  0  0  0  0  0  0  0  0  0  0  0
  140.5200   68.7470  227.8580 C   0  0  0  0  0  0  0  0  0  0  0  0
  140.9480   69.8050  227.0520 C   0  0  0  0  0  0  0  0  0  0  0  0
  140.4990   69.9150  225.7260 C   0  0  0  0  0  0  0  0  0  0  0  0
  141.0180   71.0410  224.8620 C   0  0  0  0  0  0  0  0  0  0  0  0
  139.9450   73.4070  222.5930 N   0  0  0  0  0  0  0  0  0  0  0  0
  139.3070   76.1760  220.2420 C   0  0  0  0  0  0  0  0  0  0  0  0
  139.1300   77.6880  220.3410 C   0  0  0  0  0  0  0  0  0  0  0  0
  139.7220   78.1100  221.6830 C   0  0  0  0  0  0  0  0  0  0  0  0
  140.2710   76.8470  222.3340 C   0  0  0  0  0  0  0  0  0  0  0  0
  138.3620   74.7220  222.9220 H   0  0  0  0  0  0  0  0  0  0  0  0
  143.5137   70.8754  220.1235 H   0  0  0  0  0  0  0  0  0  0  0  0
  142.7630   71.7591  218.7363 H   0  0  0  0  0  0  0  0  0  0  0  0
  145.1202   70.7861  218.3548 H   0  0  0  0  0  0  0  0  0  0  0  0
  144.8690   72.5215  217.9404 H   0  0  0  0  0  0  0  0  0  0  0  0
  145.9780   71.5020  220.4940 H   0  0  0  0  0  0  0  0  0  0  0  0
  146.2096   73.5708  221.2297 H   0  0  0  0  0  0  0  0  0  0  0  0
  146.3905   74.1975  219.5141 H   0  0  0  0  0  0  0  0  0  0  0  0
  144.2475   74.7483  221.0594 H   0  0  0  0  0  0  0  0  0  0  0  0
  144.1917   74.5840  219.2548 H   0  0  0  0  0  0  0  0  0  0  0  0
  138.2041   70.9421  223.9355 H   0  0  0  0  0  0  0  0  0  0  0  0
  138.7905   70.5155  222.2836 H   0  0  0  0  0  0  0  0  0  0  0  0
  138.2022   68.5112  223.6763 H   0  0  0  0  0  0  0  0  0  0  0  0
  139.9229   68.5390  223.1436 H   0  0  0  0  0  0  0  0  0  0  0  0
  138.5315   67.1067  225.6171 H   0  0  0  0  0  0  0  0  0  0  0  0
  139.3142   66.9507  227.9800 H   0  0  0  0  0  0  0  0  0  0  0  0
  140.8687   68.6733  228.8987 H   0  0  0  0  0  0  0  0  0  0  0  0
  141.6409   70.5564  227.4586 H   0  0  0  0  0  0  0  0  0  0  0  0
  140.9589   71.9761  225.4383 H   0  0  0  0  0  0  0  0  0  0  0  0
  142.0505   70.7824  224.5844 H   0  0  0  0  0  0  0  0  0  0  0  0
  140.1793   75.9327  219.6176 H   0  0  0  0  0  0  0  0  0  0  0  0
  138.4324   75.6959  219.7788 H   0  0  0  0  0  0  0  0  0  0  0  0
  139.6622   78.1870  219.5178 H   0  0  0  0  0  0  0  0  0  0  0  0
  138.0687   77.9684  220.2701 H   0  0  0  0  0  0  0  0  0  0  0  0
  140.5307   78.8394  221.5283 H   0  0  0  0  0  0  0  0  0  0  0  0
  138.9614   78.5856  222.3197 H   0  0  0  0  0  0  0  0  0  0  0  0
  141.3523   76.7604  222.1514 H   0  0  0  0  0  0  0  0  0  0  0  0
  140.1275   76.8573  223.4245 H   0  0  0  0  0  0  0  0  0  0  0  0
  1  2  1  0
  2  3  1  0
  3  4  2  0
  4  5  1  0
  5  6  1  0
  6  7  1  0
  7  8  1  0
  8  9  1  0
  9 10  1  0
 10 11  1  0
  5 12  2  0
 12 13  1  0
 13 14  1  0
 14 15  1  0
 15 16  1  0
 16 17  1  0
 17 18  2  0
 18 19  1  0
 19 20  2  0
 20 21  1  0
 21 22  2  0
 22 23  1  0
 13 24  2  0
  2 25  1  0
 25 26  1  0
 26 27  1  0
 27 28  1  0
 28  2  1  0
 24  3  1  0
 11  6  1  0
 23 14  1  0
 22 17  1  0
  1 29  1  0
  7 30  1  0
  7 31  1  0
  8 32  1  0
  8 33  1  0
  9 34  1  0
 10 35  1  0
 10 36  1  0
 11 37  1  0
 11 38  1  0
 15 39  1  0
 15 40  1  0
 16 41  1  0
 16 42  1  0
 18 43  1  0
 19 44  1  0
 20 45  1  0
 21 46  1  0
 23 47  1  0
 23 48  1  0
 25 49  1  0
 25 50  1  0
 26 51  1  0
 26 52  1  0
 27 53  1  0
 27 54  1  0
 28 55  1  0
 28 56  1  0
M  END
>  <UniqueID>  (49) 
512

>  <SMILES>  (49) 
OC1(c2nc(N3CCNCC3)nc(N3CCc4ccccc4C3)n2)CCCC1

>  <Energy>  (49) 
68.49375287355913

>  <Genealogy>  (49) 
OC1(c2nc(N3CCNCC3)nc(N3CCc4ccccc4C3)n2)CCCC1 (3D coordinates assigned)
OC1(c2nc(N3CCNCC3)nc(N3CCc4ccccc4C3)n2)CCCC1 (nonaromatic ring conformer: 68.49375287355913 kcal/mol)

>  <smiles>  (49) 
OC1(c2nc(N3CCNCC3)nc(N3CCc4ccccc4C3)n2)CCCC1

>  <score_type>  (49) 
oracle

>  <origin>  (49) 
autodockgpu

>  <m_score__min__energy>  (49) 
-8.8599999999999994

>  <m_primary>  (49) 
energy

>  <meeko>  (49) 
{"free_energy": -8.85, "intermolecular_energy": -10.05, "internal_energy": -1.5, "cluster_size": 20, "cluster_id": 1, "rank_in_cluster": 10}

>  <energy>  (49) 
-8.85

>  <cluster_rmsd>  (49) 
0.03

>  <rmsd>  (49) 
271.09

>  <cluster>  (49) 
1

$$$$
AUISRQYXECVJTM-UHFFFAOYNA-N
     RDKit          3D

 56 60  0  0  0  0  0  0  0  0999 V2000
  138.2980   75.5160  222.3560 O   0  0  0  0  0  0  0  0  0  0  0  0
  139.5300   75.6760  221.6930 C   0  0  0  0  0  0  0  0  0  0  0  0
  140.3170   74.3820  221.7540 C   0  0  0  0  0  0  0  0  0  0  0  0
  141.4590   74.2380  221.0320 N   0  0  0  0  0  0  0  0  0  0  0  0
  142.2010   73.1040  221.1270 C   0  0  0  0  0  0  0  0  0  0  0  0
  143.4050   72.9460  220.3470 N   0  0  0  0  0  0  0  0  0  0  0  0
  143.5730   71.7380  219.5270 C   0  0  0  0  0  0  0  0  0  0  0  0
  144.9190   71.7520  218.7970 C   0  0  0  0  0  0  0  0  0  0  0  0
  145.9880   72.1550  219.7160 N   0  0  0  0  0  0  0  0  0  0  0  0
  145.8240   73.5370  220.2060 C   0  0  0  0  0  0  0  0  0  0  0  0
  144.3670   74.0490  220.2090 C   0  0  0  0  0  0  0  0  0  0  0  0
  141.7990   72.1170  221.9720 N   0  0  0  0  0  0  0  0  0  0  0  0
  140.6740   72.2560  222.7200 C   0  0  0  0  0  0  0  0  0  0  0  0
  140.2580   71.2110  223.6250 N   0  0  0  0  0  0  0  0  0  0  0  0
  139.0070   70.4760  223.3800 C   0  0  0  0  0  0  0  0  0  0  0  0
  139.1510   69.0180  223.8040 C   0  0  0  0  0  0  0  0  0  0  0  0
  139.6000   68.9380  225.2320 C   0  0  0  0  0  0  0  0  0  0  0  0
  139.1850   67.8710  226.0450 C   0  0  0  0  0  0  0  0  0  0  0  0
  139.6300   67.7770  227.3650 C   0  0  0  0  0  0  0  0  0  0  0  0
  140.5050   68.7370  227.8780 C   0  0  0  0  0  0  0  0  0  0  0  0
  140.9360   69.7930  227.0710 C   0  0  0  0  0  0  0  0  0  0  0  0
  140.4860   69.9050  225.7460 C   0  0  0  0  0  0  0  0  0  0  0  0
  141.0100   71.0280  224.8810 C   0  0  0  0  0  0  0  0  0  0  0  0
  139.9430   73.3970  222.6110 N   0  0  0  0  0  0  0  0  0  0  0  0
  139.3030   76.1590  220.2550 C   0  0  0  0  0  0  0  0  0  0  0  0
  139.1310   77.6720  220.3460 C   0  0  0  0  0  0  0  0  0  0  0  0
  139.7350   78.1010  221.6810 C   0  0  0  0  0  0  0  0  0  0  0  0
  140.2850   76.8400  222.3360 C   0  0  0  0  0  0  0  0  0  0  0  0
  138.3620   74.7040  222.9250 H   0  0  0  0  0  0  0  0  0  0  0  0
  143.5261   70.8523  220.1777 H   0  0  0  0  0  0  0  0  0  0  0  0
  142.7685   71.7091  218.7774 H   0  0  0  0  0  0  0  0  0  0  0  0
  145.1330   70.7449  218.4096 H   0  0  0  0  0  0  0  0  0  0  0  0
  144.8696   72.4708  217.9658 H   0  0  0  0  0  0  0  0  0  0  0  0
  145.9870   71.5020  220.5350 H   0  0  0  0  0  0  0  0  0  0  0  0
  146.2062   73.5834  221.2364 H   0  0  0  0  0  0  0  0  0  0  0  0
  146.3801   74.1826  219.5103 H   0  0  0  0  0  0  0  0  0  0  0  0
  144.2351   74.7449  221.0507 H   0  0  0  0  0  0  0  0  0  0  0  0
  144.1776   74.5521  219.2493 H   0  0  0  0  0  0  0  0  0  0  0  0
  138.1946   70.9420  223.9570 H   0  0  0  0  0  0  0  0  0  0  0  0
  138.7783   70.5124  222.3047 H   0  0  0  0  0  0  0  0  0  0  0  0
  138.1804   68.5111  223.6990 H   0  0  0  0  0  0  0  0  0  0  0  0
  139.9000   68.5294  223.1635 H   0  0  0  0  0  0  0  0  0  0  0  0
  138.5063   67.1058  225.6401 H   0  0  0  0  0  0  0  0  0  0  0  0
  139.2912   66.9462  228.0014 H   0  0  0  0  0  0  0  0  0  0  0  0
  140.8551   68.6617  228.9181 H   0  0  0  0  0  0  0  0  0  0  0  0
  141.6325   70.5416  227.4766 H   0  0  0  0  0  0  0  0  0  0  0  0
  140.9566   71.9636  225.4570 H   0  0  0  0  0  0  0  0  0  0  0  0
  142.0409   70.7643  224.6023 H   0  0  0  0  0  0  0  0  0  0  0  0
  140.1701   75.9094  219.6259 H   0  0  0  0  0  0  0  0  0  0  0  0
  138.4238   75.6786  219.8010 H   0  0  0  0  0  0  0  0  0  0  0  0
  139.6580   78.1644  219.5154 H   0  0  0  0  0  0  0  0  0  0  0  0
  138.0699   77.9549  220.2819 H   0  0  0  0  0  0  0  0  0  0  0  0
  140.5449   78.8267  221.5153 H   0  0  0  0  0  0  0  0  0  0  0  0
  138.9811   78.5833  222.3205 H   0  0  0  0  0  0  0  0  0  0  0  0
  141.3645   76.7487  222.1456 H   0  0  0  0  0  0  0  0  0  0  0  0
  140.1499   76.8577  223.4275 H   0  0  0  0  0  0  0  0  0  0  0  0
  1  2  1  0
  2  3  1  0
  3  4  2  0
  4  5  1  0
  5  6  1  0
  6  7  1  0
  7  8  1  0
  8  9  1  0
  9 10  1  0
 10 11  1  0
  5 12  2  0
 12 13  1  0
 13 14  1  0
 14 15  1  0
 15 16  1  0
 16 17  1  0
 17 18  2  0
 18 19  1  0
 19 20  2  0
 20 21  1  0
 21 22  2  0
 22 23  1  0
 13 24  2  0
  2 25  1  0
 25 26  1  0
 26 27  1  0
 27 28  1  0
 28  2  1  0
 24  3  1  0
 11  6  1  0
 23 14  1  0
 22 17  1  0
  1 29  1  0
  7 30  1  0
  7 31  1  0
  8 32  1  0
  8 33  1  0
  9 34  1  0
 10 35  1  0
 10 36  1  0
 11 37  1  0
 11 38  1  0
 15 39  1  0
 15 40  1  0
 16 41  1  0
 16 42  1  0
 18 43  1  0
 19 44  1  0
 20 45  1  0
 21 46  1  0
 23 47  1  0
 23 48  1  0
 25 49  1  0
 25 50  1  0
 26 51  1  0
 26 52  1  0
 27 53  1  0
 27 54  1  0
 28 55  1  0
 28 56  1  0
M  END
>  <UniqueID>  (50) 
512

>  <SMILES>  (50) 
OC1(c2nc(N3CCNCC3)nc(N3CCc4ccccc4C3)n2)CCCC1

>  <Energy>  (50) 
68.49375287355913

>  <Genealogy>  (50) 
OC1(c2nc(N3CCNCC3)nc(N3CCc4ccccc4C3)n2)CCCC1 (3D coordinates assigned)
OC1(c2nc(N3CCNCC3)nc(N3CCc4ccccc4C3)n2)CCCC1 (nonaromatic ring conformer: 68.49375287355913 kcal/mol)

>  <smiles>  (50) 
OC1(c2nc(N3CCNCC3)nc(N3CCc4ccccc4C3)n2)CCCC1

>  <score_type>  (50) 
oracle

>  <origin>  (50) 
autodockgpu

>  <m_score__min__energy>  (50) 
-8.8599999999999994

>  <m_primary>  (50) 
energy

>  <meeko>  (50) 
{"free_energy": -8.86, "intermolecular_energy": -10.05, "internal_energy": -1.5, "cluster_size": 20, "cluster_id": 1, "rank_in_cluster": 7}

>  <energy>  (50) 
-8.85

>  <cluster_rmsd>  (50) 
0.03

>  <rmsd>  (50) 
271.07

>  <cluster>  (50) 
1

$$$$
AUISRQYXECVJTM-UHFFFAOYNA-N
     RDKit          3D

 56 60  0  0  0  0  0  0  0  0999 V2000
  138.3330   75.5330  222.3790 O   0  0  0  0  0  0  0  0  0  0  0  0
  139.5610   75.6800  221.7060 C   0  0  0  0  0  0  0  0  0  0  0  0
  140.3360   74.3790  221.7640 C   0  0  0  0  0  0  0  0  0  0  0  0
  141.4740   74.2240  221.0370 N   0  0  0  0  0  0  0  0  0  0  0  0
  142.2050   73.0830  221.1280 C   0  0  0  0  0  0  0  0  0  0  0  0
  143.4040   72.9140  220.3440 N   0  0  0  0  0  0  0  0  0  0  0  0
  143.5840   71.6790  219.5690 C   0  0  0  0  0  0  0  0  0  0  0  0
  144.9230   71.6860  218.8260 C   0  0  0  0  0  0  0  0  0  0  0  0
  145.9940   72.1400  219.7180 N   0  0  0  0  0  0  0  0  0  0  0  0
  145.8130   73.5370  220.1580 C   0  0  0  0  0  0  0  0  0  0  0  0
  144.3480   74.0260  220.1550 C   0  0  0  0  0  0  0  0  0  0  0  0
  141.7980   72.1010  221.9750 N   0  0  0  0  0  0  0  0  0  0  0  0
  140.6770   72.2500  222.7280 C   0  0  0  0  0  0  0  0  0  0  0  0
  140.2550   71.2090  223.6350 N   0  0  0  0  0  0  0  0  0  0  0  0
  139.0090   70.4680  223.3810 C   0  0  0  0  0  0  0  0  0  0  0  0
  139.1540   69.0130  223.8150 C   0  0  0  0  0  0  0  0  0  0  0  0
  139.5880   68.9420  225.2470 C   0  0  0  0  0  0  0  0  0  0  0  0
  139.1680   67.8780  226.0620 C   0  0  0  0  0  0  0  0  0  0  0  0
  139.6000   67.7930  227.3870 C   0  0  0  0  0  0  0  0  0  0  0  0
  140.4660   68.7590  227.9040 C   0  0  0  0  0  0  0  0  0  0  0  0
  140.9030   69.8120  227.0960 C   0  0  0  0  0  0  0  0  0  0  0  0
  140.4660   69.9150  225.7650 C   0  0  0  0  0  0  0  0  0  0  0  0
  140.9950   71.0350  224.8990 C   0  0  0  0  0  0  0  0  0  0  0  0
  139.9560   73.3980  222.6220 N   0  0  0  0  0  0  0  0  0  0  0  0
  139.3270   76.1630  220.2690 C   0  0  0  0  0  0  0  0  0  0  0  0
  139.1700   77.6770  220.3590 C   0  0  0  0  0  0  0  0  0  0  0  0
  139.7890   78.1030  221.6880 C   0  0  0  0  0  0  0  0  0  0  0  0
  140.3320   76.8380  222.3410 C   0  0  0  0  0  0  0  0  0  0  0  0
  138.4000   74.7320  222.9630 H   0  0  0  0  0  0  0  0  0  0  0  0
  143.5570   70.8181  220.2532 H   0  0  0  0  0  0  0  0  0  0  0  0
  142.7734   71.6092  218.8287 H   0  0  0  0  0  0  0  0  0  0  0  0
  145.1492   70.6683  218.4751 H   0  0  0  0  0  0  0  0  0  0  0  0
  144.8545   72.3720  217.9689 H   0  0  0  0  0  0  0  0  0  0  0  0
  146.0110   71.5180  220.5620 H   0  0  0  0  0  0  0  0  0  0  0  0
  146.2031   73.6276  221.1825 H   0  0  0  0  0  0  0  0  0  0  0  0
  146.3533   74.1649  219.4342 H   0  0  0  0  0  0  0  0  0  0  0  0
  144.2125   74.7515  220.9707 H   0  0  0  0  0  0  0  0  0  0  0  0
  144.1425   74.4887  219.1784 H   0  0  0  0  0  0  0  0  0  0  0  0
  138.1889   70.9343  223.9467 H   0  0  0  0  0  0  0  0  0  0  0  0
  138.7914   70.4974  222.3031 H   0  0  0  0  0  0  0  0  0  0  0  0
  138.1864   68.5020  223.7026 H   0  0  0  0  0  0  0  0  0  0  0  0
  139.9118   68.5240  223.1852 H   0  0  0  0  0  0  0  0  0  0  0  0
  138.4959   67.1084  225.6547 H   0  0  0  0  0  0  0  0  0  0  0  0
  139.2579   66.9643  228.0243 H   0  0  0  0  0  0  0  0  0  0  0  0
  140.8045   68.6909  228.9484 H   0  0  0  0  0  0  0  0  0  0  0  0
  141.5933   70.5647  227.5046 H   0  0  0  0  0  0  0  0  0  0  0  0
  140.9331   71.9735  225.4694 H   0  0  0  0  0  0  0  0  0  0  0  0
  142.0293   70.7729  224.6318 H   0  0  0  0  0  0  0  0  0  0  0  0
  140.1867   75.9043  219.6333 H   0  0  0  0  0  0  0  0  0  0  0  0
  138.4397   75.6902  219.8228 H   0  0  0  0  0  0  0  0  0  0  0  0
  139.6945   78.1631  219.5232 H   0  0  0  0  0  0  0  0  0  0  0  0
  138.1110   77.9694  220.3035 H   0  0  0  0  0  0  0  0  0  0  0  0
  140.6045   78.8204  221.5141 H   0  0  0  0  0  0  0  0  0  0  0  0
  139.0452   78.5941  222.3326 H   0  0  0  0  0  0  0  0  0  0  0  0
  141.4091   76.7361  222.1425 H   0  0  0  0  0  0  0  0  0  0  0  0
  140.2054   76.8590  223.4335 H   0  0  0  0  0  0  0  0  0  0  0  0
  1  2  1  0
  2  3  1  0
  3  4  2  0
  4  5  1  0
  5  6  1  0
  6  7  1  0
  7  8  1  0
  8  9  1  0
  9 10  1  0
 10 11  1  0
  5 12  2  0
 12 13  1  0
 13 14  1  0
 14 15  1  0
 15 16  1  0
 16 17  1  0
 17 18  2  0
 18 19  1  0
 19 20  2  0
 20 21  1  0
 21 22  2  0
 22 23  1  0
 13 24  2  0
  2 25  1  0
 25 26  1  0
 26 27  1  0
 27 28  1  0
 28  2  1  0
 24  3  1  0
 11  6  1  0
 23 14  1  0
 22 17  1  0
  1 29  1  0
  7 30  1  0
  7 31  1  0
  8 32  1  0
  8 33  1  0
  9 34  1  0
 10 35  1  0
 10 36  1  0
 11 37  1  0
 11 38  1  0
 15 39  1  0
 15 40  1  0
 16 41  1  0
 16 42  1  0
 18 43  1  0
 19 44  1  0
 20 45  1  0
 21 46  1  0
 23 47  1  0
 23 48  1  0
 25 49  1  0
 25 50  1  0
 26 51  1  0
 26 52  1  0
 27 53  1  0
 27 54  1  0
 28 55  1  0
 28 56  1  0
M  END
>  <UniqueID>  (51) 
512

>  <SMILES>  (51) 
OC1(c2nc(N3CCNCC3)nc(N3CCc4ccccc4C3)n2)CCCC1

>  <Energy>  (51) 
68.49375287355913

>  <Genealogy>  (51) 
OC1(c2nc(N3CCNCC3)nc(N3CCc4ccccc4C3)n2)CCCC1 (3D coordinates assigned)
OC1(c2nc(N3CCNCC3)nc(N3CCc4ccccc4C3)n2)CCCC1 (nonaromatic ring conformer: 68.49375287355913 kcal/mol)

>  <smiles>  (51) 
OC1(c2nc(N3CCNCC3)nc(N3CCc4ccccc4C3)n2)CCCC1

>  <score_type>  (51) 
oracle

>  <origin>  (51) 
autodockgpu

>  <m_score__min__energy>  (51) 
-8.8599999999999994

>  <m_primary>  (51) 
energy

>  <meeko>  (51) 
{"free_energy": -8.86, "intermolecular_energy": -10.05, "internal_energy": -1.5, "cluster_size": 20, "cluster_id": 1, "rank_in_cluster": 6}

>  <energy>  (51) 
-8.85

>  <cluster_rmsd>  (51) 
0.04

>  <rmsd>  (51) 
271.09

>  <cluster>  (51) 
1

$$$$
AUISRQYXECVJTM-UHFFFAOYNA-N
     RDKit          3D

 56 60  0  0  0  0  0  0  0  0999 V2000
  138.3130   75.5360  222.3710 O   0  0  0  0  0  0  0  0  0  0  0  0
  139.5400   75.6920  221.6990 C   0  0  0  0  0  0  0  0  0  0  0  0
  140.3250   74.3960  221.7570 C   0  0  0  0  0  0  0  0  0  0  0  0
  141.4640   74.2500  221.0310 N   0  0  0  0  0  0  0  0  0  0  0  0
  142.2040   73.1150  221.1220 C   0  0  0  0  0  0  0  0  0  0  0  0
  143.4050   72.9550  220.3390 N   0  0  0  0  0  0  0  0  0  0  0  0
  143.5650   71.7520  219.5110 C   0  0  0  0  0  0  0  0  0  0  0  0
  144.9090   71.7640  218.7780 C   0  0  0  0  0  0  0  0  0  0  0  0
  145.9830   72.1550  219.6960 N   0  0  0  0  0  0  0  0  0  0  0  0
  145.8280   73.5350  220.1960 C   0  0  0  0  0  0  0  0  0  0  0  0
  144.3730   74.0540  220.2050 C   0  0  0  0  0  0  0  0  0  0  0  0
  141.8040   72.1290  221.9680 N   0  0  0  0  0  0  0  0  0  0  0  0
  140.6810   72.2690  222.7200 C   0  0  0  0  0  0  0  0  0  0  0  0
  140.2660   71.2240  223.6260 N   0  0  0  0  0  0  0  0  0  0  0  0
  139.0200   70.4830  223.3770 C   0  0  0  0  0  0  0  0  0  0  0  0
  139.1690   69.0270  223.8050 C   0  0  0  0  0  0  0  0  0  0  0  0
  139.6120   68.9520  225.2350 C   0  0  0  0  0  0  0  0  0  0  0  0
  139.1980   67.8840  226.0480 C   0  0  0  0  0  0  0  0  0  0  0  0
  139.6390   67.7960  227.3710 C   0  0  0  0  0  0  0  0  0  0  0  0
  140.5060   68.7610  227.8850 C   0  0  0  0  0  0  0  0  0  0  0  0
  140.9360   69.8180  227.0780 C   0  0  0  0  0  0  0  0  0  0  0  0
  140.4920   69.9240  225.7500 C   0  0  0  0  0  0  0  0  0  0  0  0
  141.0130   71.0480  224.8850 C   0  0  0  0  0  0  0  0  0  0  0  0
  139.9510   73.4110  222.6140 N   0  0  0  0  0  0  0  0  0  0  0  0
  139.3020   76.1720  220.2620 C   0  0  0  0  0  0  0  0  0  0  0  0
  139.1340   77.6850  220.3510 C   0  0  0  0  0  0  0  0  0  0  0  0
  139.7500   78.1160  221.6810 C   0  0  0  0  0  0  0  0  0  0  0  0
  140.3030   76.8560  222.3330 C   0  0  0  0  0  0  0  0  0  0  0  0
  138.3670   74.7040  222.9130 H   0  0  0  0  0  0  0  0  0  0  0  0
  143.5152   70.8624  220.1560 H   0  0  0  0  0  0  0  0  0  0  0  0
  142.7586   71.7320  218.7631 H   0  0  0  0  0  0  0  0  0  0  0  0
  145.1165   70.7585  218.3833 H   0  0  0  0  0  0  0  0  0  0  0  0
  144.8610   72.4892  217.9523 H   0  0  0  0  0  0  0  0  0  0  0  0
  145.9810   71.4960  220.5120 H   0  0  0  0  0  0  0  0  0  0  0  0
  146.2124   73.5724  221.2260 H   0  0  0  0  0  0  0  0  0  0  0  0
  146.3867   74.1827  219.5044 H   0  0  0  0  0  0  0  0  0  0  0  0
  144.2464   74.7458  221.0508 H   0  0  0  0  0  0  0  0  0  0  0  0
  144.1842   74.5629  219.2482 H   0  0  0  0  0  0  0  0  0  0  0  0
  138.2028   70.9465  223.9491 H   0  0  0  0  0  0  0  0  0  0  0  0
  138.7960   70.5159  222.3006 H   0  0  0  0  0  0  0  0  0  0  0  0
  138.2013   68.5154  223.6968 H   0  0  0  0  0  0  0  0  0  0  0  0
  139.9233   68.5407  223.1690 H   0  0  0  0  0  0  0  0  0  0  0  0
  138.5247   67.1147  225.6420 H   0  0  0  0  0  0  0  0  0  0  0  0
  139.3023   66.9649  228.0081 H   0  0  0  0  0  0  0  0  0  0  0  0
  140.8515   68.6897  228.9269 H   0  0  0  0  0  0  0  0  0  0  0  0
  141.6263   70.5713  227.4855 H   0  0  0  0  0  0  0  0  0  0  0  0
  140.9516   71.9845  225.4588 H   0  0  0  0  0  0  0  0  0  0  0  0
  142.0466   70.7896  224.6113 H   0  0  0  0  0  0  0  0  0  0  0  0
  140.1633   75.9191  219.6262 H   0  0  0  0  0  0  0  0  0  0  0  0
  138.4181   75.6923  219.8164 H   0  0  0  0  0  0  0  0  0  0  0  0
  139.6553   78.1744  219.5151 H   0  0  0  0  0  0  0  0  0  0  0  0
  138.0730   77.9699  220.2948 H   0  0  0  0  0  0  0  0  0  0  0  0
  140.5596   78.8401  221.5073 H   0  0  0  0  0  0  0  0  0  0  0  0
  139.0023   78.6009  222.3258 H   0  0  0  0  0  0  0  0  0  0  0  0
  141.3806   76.7622  222.1331 H   0  0  0  0  0  0  0  0  0  0  0  0
  140.1776   76.8761  223.4256 H   0  0  0  0  0  0  0  0  0  0  0  0
  1  2  1  0
  2  3  1  0
  3  4  2  0
  4  5  1  0
  5  6  1  0
  6  7  1  0
  7  8  1  0
  8  9  1  0
  9 10  1  0
 10 11  1  0
  5 12  2  0
 12 13  1  0
 13 14  1  0
 14 15  1  0
 15 16  1  0
 16 17  1  0
 17 18  2  0
 18 19  1  0
 19 20  2  0
 20 21  1  0
 21 22  2  0
 22 23  1  0
 13 24  2  0
  2 25  1  0
 25 26  1  0
 26 27  1  0
 27 28  1  0
 28  2  1  0
 24  3  1  0
 11  6  1  0
 23 14  1  0
 22 17  1  0
  1 29  1  0
  7 30  1  0
  7 31  1  0
  8 32  1  0
  8 33  1  0
  9 34  1  0
 10 35  1  0
 10 36  1  0
 11 37  1  0
 11 38  1  0
 15 39  1  0
 15 40  1  0
 16 41  1  0
 16 42  1  0
 18 43  1  0
 19 44  1  0
 20 45  1  0
 21 46  1  0
 23 47  1  0
 23 48  1  0
 25 49  1  0
 25 50  1  0
 26 51  1  0
 26 52  1  0
 27 53  1  0
 27 54  1  0
 28 55  1  0
 28 56  1  0
M  END
>  <UniqueID>  (52) 
512

>  <SMILES>  (52) 
OC1(c2nc(N3CCNCC3)nc(N3CCc4ccccc4C3)n2)CCCC1

>  <Energy>  (52) 
68.49375287355913

>  <Genealogy>  (52) 
OC1(c2nc(N3CCNCC3)nc(N3CCc4ccccc4C3)n2)CCCC1 (3D coordinates assigned)
OC1(c2nc(N3CCNCC3)nc(N3CCc4ccccc4C3)n2)CCCC1 (nonaromatic ring conformer: 68.49375287355913 kcal/mol)

>  <smiles>  (52) 
OC1(c2nc(N3CCNCC3)nc(N3CCc4ccccc4C3)n2)CCCC1

>  <score_type>  (52) 
oracle

>  <origin>  (52) 
autodockgpu

>  <m_score__min__energy>  (52) 
-8.8599999999999994

>  <m_primary>  (52) 
energy

>  <meeko>  (52) 
{"free_energy": -8.86, "intermolecular_energy": -10.05, "internal_energy": -1.5, "cluster_size": 20, "cluster_id": 1, "rank_in_cluster": 1}

>  <energy>  (52) 
-8.85

>  <cluster_rmsd>  (52) 
0.05

>  <rmsd>  (52) 
271.1

>  <cluster>  (52) 
1

$$$$
AUISRQYXECVJTM-UHFFFAOYNA-N
     RDKit          3D

 56 60  0  0  0  0  0  0  0  0999 V2000
  138.3340   75.5540  222.3590 O   0  0  0  0  0  0  0  0  0  0  0  0
  139.5580   75.7050  221.6820 C   0  0  0  0  0  0  0  0  0  0  0  0
  140.3440   74.4100  221.7470 C   0  0  0  0  0  0  0  0  0  0  0  0
  141.4850   74.2620  221.0250 N   0  0  0  0  0  0  0  0  0  0  0  0
  142.2260   73.1280  221.1240 C   0  0  0  0  0  0  0  0  0  0  0  0
  143.4300   72.9660  220.3450 N   0  0  0  0  0  0  0  0  0  0  0  0
  143.6000   71.7520  219.5350 C   0  0  0  0  0  0  0  0  0  0  0  0
  144.9460   71.7630  218.8050 C   0  0  0  0  0  0  0  0  0  0  0  0
  146.0150   72.1750  219.7200 N   0  0  0  0  0  0  0  0  0  0  0  0
  145.8480   73.5610  220.1990 C   0  0  0  0  0  0  0  0  0  0  0  0
  144.3890   74.0700  220.1980 C   0  0  0  0  0  0  0  0  0  0  0  0
  141.8230   72.1440  221.9720 N   0  0  0  0  0  0  0  0  0  0  0  0
  140.6970   72.2870  222.7190 C   0  0  0  0  0  0  0  0  0  0  0  0
  140.2790   71.2450  223.6270 N   0  0  0  0  0  0  0  0  0  0  0  0
  139.0480   70.4840  223.3620 C   0  0  0  0  0  0  0  0  0  0  0  0
  139.2090   69.0340  223.8070 C   0  0  0  0  0  0  0  0  0  0  0  0
  139.6260   68.9790  225.2460 C   0  0  0  0  0  0  0  0  0  0  0  0
  139.2110   67.9140  226.0620 C   0  0  0  0  0  0  0  0  0  0  0  0
  139.6270   67.8440  227.3930 C   0  0  0  0  0  0  0  0  0  0  0  0
  140.4710   68.8270  227.9140 C   0  0  0  0  0  0  0  0  0  0  0  0
  140.9020   69.8810  227.1050 C   0  0  0  0  0  0  0  0  0  0  0  0
  140.4820   69.9690  225.7680 C   0  0  0  0  0  0  0  0  0  0  0  0
  141.0050   71.0910  224.9020 C   0  0  0  0  0  0  0  0  0  0  0  0
  139.9670   73.4290  222.6060 N   0  0  0  0  0  0  0  0  0  0  0  0
  139.3160   76.1750  220.2420 C   0  0  0  0  0  0  0  0  0  0  0  0
  139.1470   77.6880  220.3200 C   0  0  0  0  0  0  0  0  0  0  0  0
  139.7680   78.1290  221.6440 C   0  0  0  0  0  0  0  0  0  0  0  0
  140.3230   76.8740  222.3050 C   0  0  0  0  0  0  0  0  0  0  0  0
  138.4240   74.7870  222.9840 H   0  0  0  0  0  0  0  0  0  0  0  0
  143.5548   70.8715  220.1928 H   0  0  0  0  0  0  0  0  0  0  0  0
  142.7954   71.7152  218.7858 H   0  0  0  0  0  0  0  0  0  0  0  0
  145.1617   70.7534  218.4254 H   0  0  0  0  0  0  0  0  0  0  0  0
  144.8949   72.4757  217.9687 H   0  0  0  0  0  0  0  0  0  0  0  0
  146.0150   71.5280  220.5440 H   0  0  0  0  0  0  0  0  0  0  0  0
  146.2302   73.6165  221.2290 H   0  0  0  0  0  0  0  0  0  0  0  0
  146.4026   74.2023  219.4982 H   0  0  0  0  0  0  0  0  0  0  0  0
  144.2555   74.7723  221.0340 H   0  0  0  0  0  0  0  0  0  0  0  0
  144.1983   74.5650  219.2343 H   0  0  0  0  0  0  0  0  0  0  0  0
  138.2139   70.9415  223.9142 H   0  0  0  0  0  0  0  0  0  0  0  0
  138.8439   70.5035  222.2813 H   0  0  0  0  0  0  0  0  0  0  0  0
  138.2506   68.5079  223.6858 H   0  0  0  0  0  0  0  0  0  0  0  0
  139.9817   68.5521  223.1900 H   0  0  0  0  0  0  0  0  0  0  0  0
  138.5557   67.1320  225.6510 H   0  0  0  0  0  0  0  0  0  0  0  0
  139.2898   67.0142  228.0315 H   0  0  0  0  0  0  0  0  0  0  0  0
  140.7969   68.7712  228.9631 H   0  0  0  0  0  0  0  0  0  0  0  0
  141.5748   70.6470  227.5180 H   0  0  0  0  0  0  0  0  0  0  0  0
  140.9210   72.0322  225.4651 H   0  0  0  0  0  0  0  0  0  0  0  0
  142.0468   70.8435  224.6504 H   0  0  0  0  0  0  0  0  0  0  0  0
  140.1759   75.9182  219.6059 H   0  0  0  0  0  0  0  0  0  0  0  0
  138.4311   75.6916  219.8024 H   0  0  0  0  0  0  0  0  0  0  0  0
  139.6645   78.1716  219.4784 H   0  0  0  0  0  0  0  0  0  0  0  0
  138.0856   77.9719  220.2657 H   0  0  0  0  0  0  0  0  0  0  0  0
  140.5774   78.8512  221.4615 H   0  0  0  0  0  0  0  0  0  0  0  0
  139.0226   78.6192  222.2875 H   0  0  0  0  0  0  0  0  0  0  0  0
  141.4001   76.7786  222.1031 H   0  0  0  0  0  0  0  0  0  0  0  0
  140.2007   76.9028  223.3978 H   0  0  0  0  0  0  0  0  0  0  0  0
  1  2  1  0
  2  3  1  0
  3  4  2  0
  4  5  1  0
  5  6  1  0
  6  7  1  0
  7  8  1  0
  8  9  1  0
  9 10  1  0
 10 11  1  0
  5 12  2  0
 12 13  1  0
 13 14  1  0
 14 15  1  0
 15 16  1  0
 16 17  1  0
 17 18  2  0
 18 19  1  0
 19 20  2  0
 20 21  1  0
 21 22  2  0
 22 23  1  0
 13 24  2  0
  2 25  1  0
 25 26  1  0
 26 27  1  0
 27 28  1  0
 28  2  1  0
 24  3  1  0
 11  6  1  0
 23 14  1  0
 22 17  1  0
  1 29  1  0
  7 30  1  0
  7 31  1  0
  8 32  1  0
  8 33  1  0
  9 34  1  0
 10 35  1  0
 10 36  1  0
 11 37  1  0
 11 38  1  0
 15 39  1  0
 15 40  1  0
 16 41  1  0
 16 42  1  0
 18 43  1  0
 19 44  1  0
 20 45  1  0
 21 46  1  0
 23 47  1  0
 23 48  1  0
 25 49  1  0
 25 50  1  0
 26 51  1  0
 26 52  1  0
 27 53  1  0
 27 54  1  0
 28 55  1  0
 28 56  1  0
M  END
>  <UniqueID>  (53) 
512

>  <SMILES>  (53) 
OC1(c2nc(N3CCNCC3)nc(N3CCc4ccccc4C3)n2)CCCC1

>  <Energy>  (53) 
68.49375287355913

>  <Genealogy>  (53) 
OC1(c2nc(N3CCNCC3)nc(N3CCc4ccccc4C3)n2)CCCC1 (3D coordinates assigned)
OC1(c2nc(N3CCNCC3)nc(N3CCc4ccccc4C3)n2)CCCC1 (nonaromatic ring conformer: 68.49375287355913 kcal/mol)

>  <smiles>  (53) 
OC1(c2nc(N3CCNCC3)nc(N3CCc4ccccc4C3)n2)CCCC1

>  <score_type>  (53) 
oracle

>  <origin>  (53) 
autodockgpu

>  <m_score__min__energy>  (53) 
-8.8599999999999994

>  <m_primary>  (53) 
energy

>  <meeko>  (53) 
{"free_energy": -8.85, "intermolecular_energy": -10.04, "internal_energy": -1.5, "cluster_size": 20, "cluster_id": 1, "rank_in_cluster": 17}

>  <energy>  (53) 
-8.85

>  <cluster_rmsd>  (53) 
0.06

>  <rmsd>  (53) 
271.08

>  <cluster>  (53) 
1

$$$$
AUISRQYXECVJTM-UHFFFAOYNA-N
     RDKit          3D

 56 60  0  0  0  0  0  0  0  0999 V2000
  138.3240   75.5230  222.3440 O   0  0  0  0  0  0  0  0  0  0  0  0
  139.5580   75.6760  221.6850 C   0  0  0  0  0  0  0  0  0  0  0  0
  140.3360   74.3750  221.7430 C   0  0  0  0  0  0  0  0  0  0  0  0
  141.4760   74.2240  221.0200 N   0  0  0  0  0  0  0  0  0  0  0  0
  142.2100   73.0850  221.1130 C   0  0  0  0  0  0  0  0  0  0  0  0
  143.4120   72.9190  220.3330 N   0  0  0  0  0  0  0  0  0  0  0  0
  143.5770   71.7060  219.5210 C   0  0  0  0  0  0  0  0  0  0  0  0
  144.9220   71.7120  218.7890 C   0  0  0  0  0  0  0  0  0  0  0  0
  145.9930   72.1190  219.7040 N   0  0  0  0  0  0  0  0  0  0  0  0
  145.8330   73.5050  220.1850 C   0  0  0  0  0  0  0  0  0  0  0  0
  144.3760   74.0190  220.1860 C   0  0  0  0  0  0  0  0  0  0  0  0
  141.8010   72.1000  221.9560 N   0  0  0  0  0  0  0  0  0  0  0  0
  140.6770   72.2460  222.7050 C   0  0  0  0  0  0  0  0  0  0  0  0
  140.2530   71.2020  223.6080 N   0  0  0  0  0  0  0  0  0  0  0  0
  139.0070   70.4630  223.3510 C   0  0  0  0  0  0  0  0  0  0  0  0
  139.1510   69.0060  223.7800 C   0  0  0  0  0  0  0  0  0  0  0  0
  139.5820   68.9310  225.2130 C   0  0  0  0  0  0  0  0  0  0  0  0
  139.1610   67.8650  226.0250 C   0  0  0  0  0  0  0  0  0  0  0  0
  139.5910   67.7770  227.3500 C   0  0  0  0  0  0  0  0  0  0  0  0
  140.4560   68.7410  227.8710 C   0  0  0  0  0  0  0  0  0  0  0  0
  140.8940   69.7960  227.0660 C   0  0  0  0  0  0  0  0  0  0  0  0
  140.4600   69.9030  225.7350 C   0  0  0  0  0  0  0  0  0  0  0  0
  140.9900   71.0250  224.8730 C   0  0  0  0  0  0  0  0  0  0  0  0
  139.9540   73.3920  222.5980 N   0  0  0  0  0  0  0  0  0  0  0  0
  139.3370   76.1650  220.2480 C   0  0  0  0  0  0  0  0  0  0  0  0
  139.1770   77.6780  220.3440 C   0  0  0  0  0  0  0  0  0  0  0  0
  139.7820   78.0990  221.6810 C   0  0  0  0  0  0  0  0  0  0  0  0
  140.3210   76.8320  222.3330 C   0  0  0  0  0  0  0  0  0  0  0  0
  138.4020   74.7460  222.9590 H   0  0  0  0  0  0  0  0  0  0  0  0
  143.5291   70.8248  220.1776 H   0  0  0  0  0  0  0  0  0  0  0  0
  142.7717   71.6742  218.7724 H   0  0  0  0  0  0  0  0  0  0  0  0
  145.1333   70.7018  218.4083 H   0  0  0  0  0  0  0  0  0  0  0  0
  144.8731   72.4250  217.9528 H   0  0  0  0  0  0  0  0  0  0  0  0
  145.9920   71.4710  220.5280 H   0  0  0  0  0  0  0  0  0  0  0  0
  146.2166   73.5577  221.2146 H   0  0  0  0  0  0  0  0  0  0  0  0
  146.3899   74.1452  219.4850 H   0  0  0  0  0  0  0  0  0  0  0  0
  144.2462   74.7211  221.0228 H   0  0  0  0  0  0  0  0  0  0  0  0
  144.1865   74.5149  219.2226 H   0  0  0  0  0  0  0  0  0  0  0  0
  138.1870   70.9279  223.9180 H   0  0  0  0  0  0  0  0  0  0  0  0
  138.7897   70.4964  222.2732 H   0  0  0  0  0  0  0  0  0  0  0  0
  138.1837   68.4953  223.6639 H   0  0  0  0  0  0  0  0  0  0  0  0
  139.9097   68.5187  223.1500 H   0  0  0  0  0  0  0  0  0  0  0  0
  138.4895   67.0962  225.6149 H   0  0  0  0  0  0  0  0  0  0  0  0
  139.2478   66.9467  227.9847 H   0  0  0  0  0  0  0  0  0  0  0  0
  140.7930   68.6701  228.9157 H   0  0  0  0  0  0  0  0  0  0  0  0
  141.5834   70.5477  227.4779 H   0  0  0  0  0  0  0  0  0  0  0  0
  140.9264   71.9621  225.4456 H   0  0  0  0  0  0  0  0  0  0  0  0
  142.0250   70.7637  224.6073 H   0  0  0  0  0  0  0  0  0  0  0  0
  140.2031   75.9105  219.6194 H   0  0  0  0  0  0  0  0  0  0  0  0
  138.4549   75.6928  219.7909 H   0  0  0  0  0  0  0  0  0  0  0  0
  139.7091   78.1688  219.5158 H   0  0  0  0  0  0  0  0  0  0  0  0
  138.1181   77.9688  220.2797 H   0  0  0  0  0  0  0  0  0  0  0  0
  140.5978   78.8188  221.5186 H   0  0  0  0  0  0  0  0  0  0  0  0
  139.0310   78.5857  222.3206 H   0  0  0  0  0  0  0  0  0  0  0  0
  141.4001   76.7328  222.1442 H   0  0  0  0  0  0  0  0  0  0  0  0
  140.1842   76.8474  223.4243 H   0  0  0  0  0  0  0  0  0  0  0  0
  1  2  1  0
  2  3  1  0
  3  4  2  0
  4  5  1  0
  5  6  1  0
  6  7  1  0
  7  8  1  0
  8  9  1  0
  9 10  1  0
 10 11  1  0
  5 12  2  0
 12 13  1  0
 13 14  1  0
 14 15  1  0
 15 16  1  0
 16 17  1  0
 17 18  2  0
 18 19  1  0
 19 20  2  0
 20 21  1  0
 21 22  2  0
 22 23  1  0
 13 24  2  0
  2 25  1  0
 25 26  1  0
 26 27  1  0
 27 28  1  0
 28  2  1  0
 24  3  1  0
 11  6  1  0
 23 14  1  0
 22 17  1  0
  1 29  1  0
  7 30  1  0
  7 31  1  0
  8 32  1  0
  8 33  1  0
  9 34  1  0
 10 35  1  0
 10 36  1  0
 11 37  1  0
 11 38  1  0
 15 39  1  0
 15 40  1  0
 16 41  1  0
 16 42  1  0
 18 43  1  0
 19 44  1  0
 20 45  1  0
 21 46  1  0
 23 47  1  0
 23 48  1  0
 25 49  1  0
 25 50  1  0
 26 51  1  0
 26 52  1  0
 27 53  1  0
 27 54  1  0
 28 55  1  0
 28 56  1  0
M  END
>  <UniqueID>  (54) 
512

>  <SMILES>  (54) 
OC1(c2nc(N3CCNCC3)nc(N3CCc4ccccc4C3)n2)CCCC1

>  <Energy>  (54) 
68.49375287355913

>  <Genealogy>  (54) 
OC1(c2nc(N3CCNCC3)nc(N3CCc4ccccc4C3)n2)CCCC1 (3D coordinates assigned)
OC1(c2nc(N3CCNCC3)nc(N3CCc4ccccc4C3)n2)CCCC1 (nonaromatic ring conformer: 68.49375287355913 kcal/mol)

>  <smiles>  (54) 
OC1(c2nc(N3CCNCC3)nc(N3CCc4ccccc4C3)n2)CCCC1

>  <score_type>  (54) 
oracle

>  <origin>  (54) 
autodockgpu

>  <m_score__min__energy>  (54) 
-8.8599999999999994

>  <m_primary>  (54) 
energy

>  <meeko>  (54) 
{"free_energy": -8.85, "intermolecular_energy": -10.04, "internal_energy": -1.5, "cluster_size": 20, "cluster_id": 1, "rank_in_cluster": 18}

>  <energy>  (54) 
-8.85

>  <cluster_rmsd>  (54) 
0.04

>  <rmsd>  (54) 
271.09

>  <cluster>  (54) 
1

$$$$
AUISRQYXECVJTM-UHFFFAOYNA-N
     RDKit          3D

 56 60  0  0  0  0  0  0  0  0999 V2000
  138.3140   75.5360  222.3730 O   0  0  0  0  0  0  0  0  0  0  0  0
  139.5450   75.6970  221.7100 C   0  0  0  0  0  0  0  0  0  0  0  0
  140.3290   74.4000  221.7610 C   0  0  0  0  0  0  0  0  0  0  0  0
  141.4700   74.2580  221.0380 N   0  0  0  0  0  0  0  0  0  0  0  0
  142.2090   73.1220  221.1250 C   0  0  0  0  0  0  0  0  0  0  0  0
  143.4130   72.9660  220.3440 N   0  0  0  0  0  0  0  0  0  0  0  0
  143.5840   71.7590  219.5250 C   0  0  0  0  0  0  0  0  0  0  0  0
  144.9290   71.7760  218.7940 C   0  0  0  0  0  0  0  0  0  0  0  0
  145.9980   72.1820  219.7120 N   0  0  0  0  0  0  0  0  0  0  0  0
  145.8310   73.5640  220.2020 C   0  0  0  0  0  0  0  0  0  0  0  0
  144.3720   74.0720  220.2050 C   0  0  0  0  0  0  0  0  0  0  0  0
  141.8050   72.1300  221.9620 N   0  0  0  0  0  0  0  0  0  0  0  0
  140.6790   72.2660  222.7110 C   0  0  0  0  0  0  0  0  0  0  0  0
  140.2600   71.2160  223.6080 N   0  0  0  0  0  0  0  0  0  0  0  0
  139.0120   70.4800  223.3520 C   0  0  0  0  0  0  0  0  0  0  0  0
  139.1560   69.0200  223.7680 C   0  0  0  0  0  0  0  0  0  0  0  0
  139.5970   68.9320  225.1980 C   0  0  0  0  0  0  0  0  0  0  0  0
  139.1790   67.8590  226.0020 C   0  0  0  0  0  0  0  0  0  0  0  0
  139.6170   67.7590  227.3240 C   0  0  0  0  0  0  0  0  0  0  0  0
  140.4870   68.7180  227.8480 C   0  0  0  0  0  0  0  0  0  0  0  0
  140.9210   69.7800  227.0500 C   0  0  0  0  0  0  0  0  0  0  0  0
  140.4790   69.8980  225.7220 C   0  0  0  0  0  0  0  0  0  0  0  0
  141.0050   71.0270  224.8670 C   0  0  0  0  0  0  0  0  0  0  0  0
  139.9510   73.4100  222.6100 N   0  0  0  0  0  0  0  0  0  0  0  0
  139.3170   76.1900  220.2760 C   0  0  0  0  0  0  0  0  0  0  0  0
  139.1500   77.7030  220.3770 C   0  0  0  0  0  0  0  0  0  0  0  0
  139.7570   78.1210  221.7140 C   0  0  0  0  0  0  0  0  0  0  0  0
  140.3050   76.8550  222.3590 C   0  0  0  0  0  0  0  0  0  0  0  0
  138.4080   74.7780  223.0090 H   0  0  0  0  0  0  0  0  0  0  0  0
  143.5400   70.8736  220.1762 H   0  0  0  0  0  0  0  0  0  0  0  0
  142.7792   71.7278  218.7758 H   0  0  0  0  0  0  0  0  0  0  0  0
  145.1451   70.7693  218.4068 H   0  0  0  0  0  0  0  0  0  0  0  0
  144.8771   72.4944  217.9626 H   0  0  0  0  0  0  0  0  0  0  0  0
  145.9990   71.5290  220.5320 H   0  0  0  0  0  0  0  0  0  0  0  0
  146.2132   73.6115  221.2324 H   0  0  0  0  0  0  0  0  0  0  0  0
  146.3856   74.2111  219.5065 H   0  0  0  0  0  0  0  0  0  0  0  0
  144.2383   74.7680  221.0462 H   0  0  0  0  0  0  0  0  0  0  0  0
  144.1809   74.5739  219.2450 H   0  0  0  0  0  0  0  0  0  0  0  0
  138.1956   70.9411  223.9273 H   0  0  0  0  0  0  0  0  0  0  0  0
  138.7894   70.5221  222.2756 H   0  0  0  0  0  0  0  0  0  0  0  0
  138.1869   68.5122  223.6544 H   0  0  0  0  0  0  0  0  0  0  0  0
  139.9095   68.5366  223.1289 H   0  0  0  0  0  0  0  0  0  0  0  0
  138.5043   67.0948  225.5888 H   0  0  0  0  0  0  0  0  0  0  0  0
  139.2765   66.9238  227.9537 H   0  0  0  0  0  0  0  0  0  0  0  0
  140.8308   68.6372  228.8898 H   0  0  0  0  0  0  0  0  0  0  0  0
  141.6129   70.5280  227.4644 H   0  0  0  0  0  0  0  0  0  0  0  0
  140.9461   71.9590  225.4483 H   0  0  0  0  0  0  0  0  0  0  0  0
  142.0380   70.7672  224.5926 H   0  0  0  0  0  0  0  0  0  0  0  0
  140.1822   75.9417  219.6437 H   0  0  0  0  0  0  0  0  0  0  0  0
  138.4354   75.7154  219.8206 H   0  0  0  0  0  0  0  0  0  0  0  0
  139.6776   78.1991  219.5491 H   0  0  0  0  0  0  0  0  0  0  0  0
  138.0898   77.9899  220.3159 H   0  0  0  0  0  0  0  0  0  0  0  0
  140.5683   78.8460  221.5522 H   0  0  0  0  0  0  0  0  0  0  0  0
  139.0050   78.6003  222.3581 H   0  0  0  0  0  0  0  0  0  0  0  0
  141.3838   76.7620  222.1653 H   0  0  0  0  0  0  0  0  0  0  0  0
  140.1727   76.8659  223.4510 H   0  0  0  0  0  0  0  0  0  0  0  0
  1  2  1  0
  2  3  1  0
  3  4  2  0
  4  5  1  0
  5  6  1  0
  6  7  1  0
  7  8  1  0
  8  9  1  0
  9 10  1  0
 10 11  1  0
  5 12  2  0
 12 13  1  0
 13 14  1  0
 14 15  1  0
 15 16  1  0
 16 17  1  0
 17 18  2  0
 18 19  1  0
 19 20  2  0
 20 21  1  0
 21 22  2  0
 22 23  1  0
 13 24  2  0
  2 25  1  0
 25 26  1  0
 26 27  1  0
 27 28  1  0
 28  2  1  0
 24  3  1  0
 11  6  1  0
 23 14  1  0
 22 17  1  0
  1 29  1  0
  7 30  1  0
  7 31  1  0
  8 32  1  0
  8 33  1  0
  9 34  1  0
 10 35  1  0
 10 36  1  0
 11 37  1  0
 11 38  1  0
 15 39  1  0
 15 40  1  0
 16 41  1  0
 16 42  1  0
 18 43  1  0
 19 44  1  0
 20 45  1  0
 21 46  1  0
 23 47  1  0
 23 48  1  0
 25 49  1  0
 25 50  1  0
 26 51  1  0
 26 52  1  0
 27 53  1  0
 27 54  1  0
 28 55  1  0
 28 56  1  0
M  END
>  <UniqueID>  (55) 
512

>  <SMILES>  (55) 
OC1(c2nc(N3CCNCC3)nc(N3CCc4ccccc4C3)n2)CCCC1

>  <Energy>  (55) 
68.49375287355913

>  <Genealogy>  (55) 
OC1(c2nc(N3CCNCC3)nc(N3CCc4ccccc4C3)n2)CCCC1 (3D coordinates assigned)
OC1(c2nc(N3CCNCC3)nc(N3CCc4ccccc4C3)n2)CCCC1 (nonaromatic ring conformer: 68.49375287355913 kcal/mol)

>  <smiles>  (55) 
OC1(c2nc(N3CCNCC3)nc(N3CCc4ccccc4C3)n2)CCCC1

>  <score_type>  (55) 
oracle

>  <origin>  (55) 
autodockgpu

>  <m_score__min__energy>  (55) 
-8.8599999999999994

>  <m_primary>  (55) 
energy

>  <meeko>  (55) 
{"free_energy": -8.85, "intermolecular_energy": -10.05, "internal_energy": -1.5, "cluster_size": 20, "cluster_id": 1, "rank_in_cluster": 14}

>  <energy>  (55) 
-8.85

>  <cluster_rmsd>  (55) 
0.05

>  <rmsd>  (55) 
271.09

>  <cluster>  (55) 
1

$$$$
AUISRQYXECVJTM-UHFFFAOYNA-N
     RDKit          3D

 56 60  0  0  0  0  0  0  0  0999 V2000
  138.3150   75.5330  222.3860 O   0  0  0  0  0  0  0  0  0  0  0  0
  139.5390   75.6880  221.7070 C   0  0  0  0  0  0  0  0  0  0  0  0
  140.3220   74.3900  221.7600 C   0  0  0  0  0  0  0  0  0  0  0  0
  141.4590   74.2440  221.0300 N   0  0  0  0  0  0  0  0  0  0  0  0
  142.1970   73.1070  221.1180 C   0  0  0  0  0  0  0  0  0  0  0  0
  143.3950   72.9470  220.3300 N   0  0  0  0  0  0  0  0  0  0  0  0
  143.5440   71.7520  219.4880 C   0  0  0  0  0  0  0  0  0  0  0  0
  144.8860   71.7610  218.7530 C   0  0  0  0  0  0  0  0  0  0  0  0
  145.9650   72.1320  219.6740 N   0  0  0  0  0  0  0  0  0  0  0  0
  145.8220   73.5070  220.1900 C   0  0  0  0  0  0  0  0  0  0  0  0
  144.3720   74.0390  220.2090 C   0  0  0  0  0  0  0  0  0  0  0  0
  141.7970   72.1200  221.9630 N   0  0  0  0  0  0  0  0  0  0  0  0
  140.6770   72.2610  222.7190 C   0  0  0  0  0  0  0  0  0  0  0  0
  140.2630   71.2160  223.6240 N   0  0  0  0  0  0  0  0  0  0  0  0
  139.0150   70.4760  223.3780 C   0  0  0  0  0  0  0  0  0  0  0  0
  139.1640   69.0190  223.8030 C   0  0  0  0  0  0  0  0  0  0  0  0
  139.6100   68.9420  225.2320 C   0  0  0  0  0  0  0  0  0  0  0  0
  139.1970   67.8730  226.0450 C   0  0  0  0  0  0  0  0  0  0  0  0
  139.6400   67.7830  227.3660 C   0  0  0  0  0  0  0  0  0  0  0  0
  140.5100   68.7470  227.8800 C   0  0  0  0  0  0  0  0  0  0  0  0
  140.9400   69.8040  227.0730 C   0  0  0  0  0  0  0  0  0  0  0  0
  140.4920   69.9130  225.7470 C   0  0  0  0  0  0  0  0  0  0  0  0
  141.0130   71.0360  224.8820 C   0  0  0  0  0  0  0  0  0  0  0  0
  139.9490   73.4050  222.6170 N   0  0  0  0  0  0  0  0  0  0  0  0
  139.2950   76.1690  220.2720 C   0  0  0  0  0  0  0  0  0  0  0  0
  139.1300   77.6820  220.3620 C   0  0  0  0  0  0  0  0  0  0  0  0
  139.7530   78.1110  221.6890 C   0  0  0  0  0  0  0  0  0  0  0  0
  140.3070   76.8500  222.3380 C   0  0  0  0  0  0  0  0  0  0  0  0
  138.3720   74.7040  222.9310 H   0  0  0  0  0  0  0  0  0  0  0  0
  143.4880   70.8556  220.1231 H   0  0  0  0  0  0  0  0  0  0  0  0
  142.7363   71.7473  218.7413 H   0  0  0  0  0  0  0  0  0  0  0  0
  145.0842   70.7584  218.3461 H   0  0  0  0  0  0  0  0  0  0  0  0
  144.8429   72.4961  217.9358 H   0  0  0  0  0  0  0  0  0  0  0  0
  145.9580   71.4630  220.4810 H   0  0  0  0  0  0  0  0  0  0  0  0
  146.2091   73.5292  221.2194 H   0  0  0  0  0  0  0  0  0  0  0  0
  146.3839   74.1576  219.5037 H   0  0  0  0  0  0  0  0  0  0  0  0
  144.2532   74.7204  221.0644 H   0  0  0  0  0  0  0  0  0  0  0  0
  144.1859   74.5628  219.2598 H   0  0  0  0  0  0  0  0  0  0  0  0
  138.2002   70.9393  223.9538 H   0  0  0  0  0  0  0  0  0  0  0  0
  138.7874   70.5108  222.3024 H   0  0  0  0  0  0  0  0  0  0  0  0
  138.1958   68.5080  223.6961 H   0  0  0  0  0  0  0  0  0  0  0  0
  139.9164   68.5330  223.1645 H   0  0  0  0  0  0  0  0  0  0  0  0
  138.5225   67.1045  225.6394 H   0  0  0  0  0  0  0  0  0  0  0  0
  139.3033   66.9516  228.0028 H   0  0  0  0  0  0  0  0  0  0  0  0
  140.8572   68.6743  228.9212 H   0  0  0  0  0  0  0  0  0  0  0  0
  141.6336   70.5549  227.4792 H   0  0  0  0  0  0  0  0  0  0  0  0
  140.9554   71.9720  225.4570 H   0  0  0  0  0  0  0  0  0  0  0  0
  142.0450   70.7747  224.6051 H   0  0  0  0  0  0  0  0  0  0  0  0
  140.1528   75.9149  219.6320 H   0  0  0  0  0  0  0  0  0  0  0  0
  138.4079   75.6911  219.8307 H   0  0  0  0  0  0  0  0  0  0  0  0
  139.6483   78.1708  219.5238 H   0  0  0  0  0  0  0  0  0  0  0  0
  138.0694   77.9690  220.3107 H   0  0  0  0  0  0  0  0  0  0  0  0
  140.5630   78.8338  221.5118 H   0  0  0  0  0  0  0  0  0  0  0  0
  139.0090   78.5966  222.3376 H   0  0  0  0  0  0  0  0  0  0  0  0
  141.3835   76.7544  222.1331 H   0  0  0  0  0  0  0  0  0  0  0  0
  140.1870   76.8698  223.4313 H   0  0  0  0  0  0  0  0  0  0  0  0
  1  2  1  0
  2  3  1  0
  3  4  2  0
  4  5  1  0
  5  6  1  0
  6  7  1  0
  7  8  1  0
  8  9  1  0
  9 10  1  0
 10 11  1  0
  5 12  2  0
 12 13  1  0
 13 14  1  0
 14 15  1  0
 15 16  1  0
 16 17  1  0
 17 18  2  0
 18 19  1  0
 19 20  2  0
 20 21  1  0
 21 22  2  0
 22 23  1  0
 13 24  2  0
  2 25  1  0
 25 26  1  0
 26 27  1  0
 27 28  1  0
 28  2  1  0
 24  3  1  0
 11  6  1  0
 23 14  1  0
 22 17  1  0
  1 29  1  0
  7 30  1  0
  7 31  1  0
  8 32  1  0
  8 33  1  0
  9 34  1  0
 10 35  1  0
 10 36  1  0
 11 37  1  0
 11 38  1  0
 15 39  1  0
 15 40  1  0
 16 41  1  0
 16 42  1  0
 18 43  1  0
 19 44  1  0
 20 45  1  0
 21 46  1  0
 23 47  1  0
 23 48  1  0
 25 49  1  0
 25 50  1  0
 26 51  1  0
 26 52  1  0
 27 53  1  0
 27 54  1  0
 28 55  1  0
 28 56  1  0
M  END
>  <UniqueID>  (56) 
512

>  <SMILES>  (56) 
OC1(c2nc(N3CCNCC3)nc(N3CCc4ccccc4C3)n2)CCCC1

>  <Energy>  (56) 
68.49375287355913

>  <Genealogy>  (56) 
OC1(c2nc(N3CCNCC3)nc(N3CCc4ccccc4C3)n2)CCCC1 (3D coordinates assigned)
OC1(c2nc(N3CCNCC3)nc(N3CCc4ccccc4C3)n2)CCCC1 (nonaromatic ring conformer: 68.49375287355913 kcal/mol)

>  <smiles>  (56) 
OC1(c2nc(N3CCNCC3)nc(N3CCc4ccccc4C3)n2)CCCC1

>  <score_type>  (56) 
oracle

>  <origin>  (56) 
autodockgpu

>  <m_score__min__energy>  (56) 
-8.8599999999999994

>  <m_primary>  (56) 
energy

>  <meeko>  (56) 
{"free_energy": -8.86, "intermolecular_energy": -10.05, "internal_energy": -1.5, "cluster_size": 20, "cluster_id": 1, "rank_in_cluster": 8}

>  <energy>  (56) 
-8.85

>  <cluster_rmsd>  (56) 
0.03

>  <rmsd>  (56) 
271.1

>  <cluster>  (56) 
1

$$$$
AUISRQYXECVJTM-UHFFFAOYNA-N
     RDKit          3D

 56 60  0  0  0  0  0  0  0  0999 V2000
  138.3010   75.5480  222.3910 O   0  0  0  0  0  0  0  0  0  0  0  0
  139.5260   75.7130  221.7180 C   0  0  0  0  0  0  0  0  0  0  0  0
  140.3180   74.4210  221.7680 C   0  0  0  0  0  0  0  0  0  0  0  0
  141.4590   74.2850  221.0440 N   0  0  0  0  0  0  0  0  0  0  0  0
  142.2040   73.1530  221.1290 C   0  0  0  0  0  0  0  0  0  0  0  0
  143.4080   73.0050  220.3470 N   0  0  0  0  0  0  0  0  0  0  0  0
  143.5670   71.8180  219.4960 C   0  0  0  0  0  0  0  0  0  0  0  0
  144.9140   71.8390  218.7690 C   0  0  0  0  0  0  0  0  0  0  0  0
  145.9850   72.2080  219.6990 N   0  0  0  0  0  0  0  0  0  0  0  0
  145.8330   73.5790  220.2250 C   0  0  0  0  0  0  0  0  0  0  0  0
  144.3800   74.1030  220.2390 C   0  0  0  0  0  0  0  0  0  0  0  0
  141.8070   72.1590  221.9670 N   0  0  0  0  0  0  0  0  0  0  0  0
  140.6810   72.2890  222.7170 C   0  0  0  0  0  0  0  0  0  0  0  0
  140.2700   71.2350  223.6140 N   0  0  0  0  0  0  0  0  0  0  0  0
  139.0290   70.4880  223.3560 C   0  0  0  0  0  0  0  0  0  0  0  0
  139.1850   69.0300  223.7750 C   0  0  0  0  0  0  0  0  0  0  0  0
  139.6230   68.9480  225.2060 C   0  0  0  0  0  0  0  0  0  0  0  0
  139.2130   67.8720  226.0110 C   0  0  0  0  0  0  0  0  0  0  0  0
  139.6480   67.7780  227.3340 C   0  0  0  0  0  0  0  0  0  0  0  0
  140.5070   68.7460  227.8580 C   0  0  0  0  0  0  0  0  0  0  0  0
  140.9340   69.8100  227.0600 C   0  0  0  0  0  0  0  0  0  0  0  0
  140.4940   69.9230  225.7310 C   0  0  0  0  0  0  0  0  0  0  0  0
  141.0130   71.0550  224.8760 C   0  0  0  0  0  0  0  0  0  0  0  0
  139.9470   73.4280  222.6170 N   0  0  0  0  0  0  0  0  0  0  0  0
  139.2850   76.2000  220.2840 C   0  0  0  0  0  0  0  0  0  0  0  0
  139.1100   77.7120  220.3810 C   0  0  0  0  0  0  0  0  0  0  0  0
  139.7250   78.1380  221.7120 C   0  0  0  0  0  0  0  0  0  0  0  0
  140.2840   76.8770  222.3580 C   0  0  0  0  0  0  0  0  0  0  0  0
  138.3950   74.7740  223.0070 H   0  0  0  0  0  0  0  0  0  0  0  0
  143.5110   70.9160  220.1231 H   0  0  0  0  0  0  0  0  0  0  0  0
  142.7638   71.8162  218.7445 H   0  0  0  0  0  0  0  0  0  0  0  0
  145.1195   70.8405  218.3557 H   0  0  0  0  0  0  0  0  0  0  0  0
  144.8723   72.5800  217.9571 H   0  0  0  0  0  0  0  0  0  0  0  0
  145.9770   71.5340  220.5010 H   0  0  0  0  0  0  0  0  0  0  0  0
  146.2139   73.5952  221.2568 H   0  0  0  0  0  0  0  0  0  0  0  0
  146.3963   74.2378  219.5478 H   0  0  0  0  0  0  0  0  0  0  0  0
  144.2525   74.7780  221.0981 H   0  0  0  0  0  0  0  0  0  0  0  0
  144.1966   74.6320  219.2921 H   0  0  0  0  0  0  0  0  0  0  0  0
  138.2072   70.9430  223.9284 H   0  0  0  0  0  0  0  0  0  0  0  0
  138.8085   70.5265  222.2790 H   0  0  0  0  0  0  0  0  0  0  0  0
  138.2207   68.5134  223.6597 H   0  0  0  0  0  0  0  0  0  0  0  0
  139.9446   68.5524  223.1386 H   0  0  0  0  0  0  0  0  0  0  0  0
  138.5467   67.1008  225.5971 H   0  0  0  0  0  0  0  0  0  0  0  0
  139.3138   66.9407  227.9642 H   0  0  0  0  0  0  0  0  0  0  0  0
  140.8481   68.6706  228.9011 H   0  0  0  0  0  0  0  0  0  0  0  0
  141.6191   70.5640  227.4750 H   0  0  0  0  0  0  0  0  0  0  0  0
  140.9440   71.9875  225.4554 H   0  0  0  0  0  0  0  0  0  0  0  0
  142.0493   70.8041  224.6055 H   0  0  0  0  0  0  0  0  0  0  0  0
  140.1471   75.9545  219.6464 H   0  0  0  0  0  0  0  0  0  0  0  0
  138.4029   75.7188  219.8365 H   0  0  0  0  0  0  0  0  0  0  0  0
  139.6283   78.2083  219.5473 H   0  0  0  0  0  0  0  0  0  0  0  0
  138.0478   77.9926  220.3270 H   0  0  0  0  0  0  0  0  0  0  0  0
  140.5315   78.8663  221.5414 H   0  0  0  0  0  0  0  0  0  0  0  0
  138.9755   78.6161  222.3598 H   0  0  0  0  0  0  0  0  0  0  0  0
  141.3620   76.7890  222.1577 H   0  0  0  0  0  0  0  0  0  0  0  0
  140.1588   76.8910  223.4508 H   0  0  0  0  0  0  0  0  0  0  0  0
  1  2  1  0
  2  3  1  0
  3  4  2  0
  4  5  1  0
  5  6  1  0
  6  7  1  0
  7  8  1  0
  8  9  1  0
  9 10  1  0
 10 11  1  0
  5 12  2  0
 12 13  1  0
 13 14  1  0
 14 15  1  0
 15 16  1  0
 16 17  1  0
 17 18  2  0
 18 19  1  0
 19 20  2  0
 20 21  1  0
 21 22  2  0
 22 23  1  0
 13 24  2  0
  2 25  1  0
 25 26  1  0
 26 27  1  0
 27 28  1  0
 28  2  1  0
 24  3  1  0
 11  6  1  0
 23 14  1  0
 22 17  1  0
  1 29  1  0
  7 30  1  0
  7 31  1  0
  8 32  1  0
  8 33  1  0
  9 34  1  0
 10 35  1  0
 10 36  1  0
 11 37  1  0
 11 38  1  0
 15 39  1  0
 15 40  1  0
 16 41  1  0
 16 42  1  0
 18 43  1  0
 19 44  1  0
 20 45  1  0
 21 46  1  0
 23 47  1  0
 23 48  1  0
 25 49  1  0
 25 50  1  0
 26 51  1  0
 26 52  1  0
 27 53  1  0
 27 54  1  0
 28 55  1  0
 28 56  1  0
M  END
>  <UniqueID>  (57) 
512

>  <SMILES>  (57) 
OC1(c2nc(N3CCNCC3)nc(N3CCc4ccccc4C3)n2)CCCC1

>  <Energy>  (57) 
68.49375287355913

>  <Genealogy>  (57) 
OC1(c2nc(N3CCNCC3)nc(N3CCc4ccccc4C3)n2)CCCC1 (3D coordinates assigned)
OC1(c2nc(N3CCNCC3)nc(N3CCc4ccccc4C3)n2)CCCC1 (nonaromatic ring conformer: 68.49375287355913 kcal/mol)

>  <smiles>  (57) 
OC1(c2nc(N3CCNCC3)nc(N3CCc4ccccc4C3)n2)CCCC1

>  <score_type>  (57) 
oracle

>  <origin>  (57) 
autodockgpu

>  <m_score__min__energy>  (57) 
-8.8599999999999994

>  <m_primary>  (57) 
energy

>  <meeko>  (57) 
{"free_energy": -8.86, "intermolecular_energy": -10.05, "internal_energy": -1.5, "cluster_size": 20, "cluster_id": 1, "rank_in_cluster": 5}

>  <energy>  (57) 
-8.85

>  <cluster_rmsd>  (57) 
0.05

>  <rmsd>  (57) 
271.11

>  <cluster>  (57) 
1

$$$$
AUISRQYXECVJTM-UHFFFAOYNA-N
     RDKit          3D

 56 60  0  0  0  0  0  0  0  0999 V2000
  138.3260   75.5170  222.3420 O   0  0  0  0  0  0  0  0  0  0  0  0
  139.5580   75.6730  221.6800 C   0  0  0  0  0  0  0  0  0  0  0  0
  140.3440   74.3780  221.7440 C   0  0  0  0  0  0  0  0  0  0  0  0
  141.4850   74.2310  221.0220 N   0  0  0  0  0  0  0  0  0  0  0  0
  142.2260   73.0960  221.1200 C   0  0  0  0  0  0  0  0  0  0  0  0
  143.4300   72.9350  220.3410 N   0  0  0  0  0  0  0  0  0  0  0  0
  143.5950   71.7270  219.5220 C   0  0  0  0  0  0  0  0  0  0  0  0
  144.9410   71.7370  218.7920 C   0  0  0  0  0  0  0  0  0  0  0  0
  146.0110   72.1380  219.7110 N   0  0  0  0  0  0  0  0  0  0  0  0
  145.8500   73.5200  220.2010 C   0  0  0  0  0  0  0  0  0  0  0  0
  144.3940   74.0360  220.2030 C   0  0  0  0  0  0  0  0  0  0  0  0
  141.8230   72.1120  221.9670 N   0  0  0  0  0  0  0  0  0  0  0  0
  140.6970   72.2550  222.7150 C   0  0  0  0  0  0  0  0  0  0  0  0
  140.2800   71.2130  223.6230 N   0  0  0  0  0  0  0  0  0  0  0  0
  139.0300   70.4770  223.3780 C   0  0  0  0  0  0  0  0  0  0  0  0
  139.1730   69.0200  223.8060 C   0  0  0  0  0  0  0  0  0  0  0  0
  139.6200   68.9440  225.2350 C   0  0  0  0  0  0  0  0  0  0  0  0
  139.2030   67.8790  226.0510 C   0  0  0  0  0  0  0  0  0  0  0  0
  139.6460   67.7890  227.3720 C   0  0  0  0  0  0  0  0  0  0  0  0
  140.5190   68.7510  227.8830 C   0  0  0  0  0  0  0  0  0  0  0  0
  140.9520   69.8050  227.0740 C   0  0  0  0  0  0  0  0  0  0  0  0
  140.5050   69.9130  225.7480 C   0  0  0  0  0  0  0  0  0  0  0  0
  141.0300   71.0330  224.8800 C   0  0  0  0  0  0  0  0  0  0  0  0
  139.9680   73.3960  222.6030 N   0  0  0  0  0  0  0  0  0  0  0  0
  139.3320   76.1540  220.2410 C   0  0  0  0  0  0  0  0  0  0  0  0
  139.1620   77.6660  220.3280 C   0  0  0  0  0  0  0  0  0  0  0  0
  139.7660   78.0980  221.6630 C   0  0  0  0  0  0  0  0  0  0  0  0
  140.3150   76.8380  222.3200 C   0  0  0  0  0  0  0  0  0  0  0  0
  138.4130   74.7510  222.9690 H   0  0  0  0  0  0  0  0  0  0  0  0
  143.5457   70.8418  220.1731 H   0  0  0  0  0  0  0  0  0  0  0  0
  142.7905   71.7000  218.7723 H   0  0  0  0  0  0  0  0  0  0  0  0
  145.1525   70.7291  218.4054 H   0  0  0  0  0  0  0  0  0  0  0  0
  144.8935   72.4552  217.9602 H   0  0  0  0  0  0  0  0  0  0  0  0
  146.0080   71.4840  220.5310 H   0  0  0  0  0  0  0  0  0  0  0  0
  146.2315   73.5652  221.2318 H   0  0  0  0  0  0  0  0  0  0  0  0
  146.4082   74.1643  219.5058 H   0  0  0  0  0  0  0  0  0  0  0  0
  144.2633   74.7325  221.0443 H   0  0  0  0  0  0  0  0  0  0  0  0
  144.2061   74.5396  219.2433 H   0  0  0  0  0  0  0  0  0  0  0  0
  138.2166   70.9445  223.9523 H   0  0  0  0  0  0  0  0  0  0  0  0
  138.8036   70.5103  222.3021 H   0  0  0  0  0  0  0  0  0  0  0  0
  138.2024   68.5131  223.7010 H   0  0  0  0  0  0  0  0  0  0  0  0
  139.9227   68.5293  223.1678 H   0  0  0  0  0  0  0  0  0  0  0  0
  138.5247   67.1129  225.6474 H   0  0  0  0  0  0  0  0  0  0  0  0
  139.3070   66.9598  228.0103 H   0  0  0  0  0  0  0  0  0  0  0  0
  140.8666   68.6793  228.9241 H   0  0  0  0  0  0  0  0  0  0  0  0
  141.6476   70.5547  227.4791 H   0  0  0  0  0  0  0  0  0  0  0  0
  140.9764   71.9703  225.4532 H   0  0  0  0  0  0  0  0  0  0  0  0
  142.0609   70.7675  224.6029 H   0  0  0  0  0  0  0  0  0  0  0  0
  140.1990   75.9019  219.6127 H   0  0  0  0  0  0  0  0  0  0  0  0
  138.4519   75.6740  219.7882 H   0  0  0  0  0  0  0  0  0  0  0  0
  139.6901   78.1556  219.4965 H   0  0  0  0  0  0  0  0  0  0  0  0
  138.1013   77.9499  220.2625 H   0  0  0  0  0  0  0  0  0  0  0  0
  140.5763   78.8230  221.4962 H   0  0  0  0  0  0  0  0  0  0  0  0
  139.0124   78.5823  222.3014 H   0  0  0  0  0  0  0  0  0  0  0  0
  141.3943   76.7451  222.1289 H   0  0  0  0  0  0  0  0  0  0  0  0
  140.1807   76.8582  223.4116 H   0  0  0  0  0  0  0  0  0  0  0  0
  1  2  1  0
  2  3  1  0
  3  4  2  0
  4  5  1  0
  5  6  1  0
  6  7  1  0
  7  8  1  0
  8  9  1  0
  9 10  1  0
 10 11  1  0
  5 12  2  0
 12 13  1  0
 13 14  1  0
 14 15  1  0
 15 16  1  0
 16 17  1  0
 17 18  2  0
 18 19  1  0
 19 20  2  0
 20 21  1  0
 21 22  2  0
 22 23  1  0
 13 24  2  0
  2 25  1  0
 25 26  1  0
 26 27  1  0
 27 28  1  0
 28  2  1  0
 24  3  1  0
 11  6  1  0
 23 14  1  0
 22 17  1  0
  1 29  1  0
  7 30  1  0
  7 31  1  0
  8 32  1  0
  8 33  1  0
  9 34  1  0
 10 35  1  0
 10 36  1  0
 11 37  1  0
 11 38  1  0
 15 39  1  0
 15 40  1  0
 16 41  1  0
 16 42  1  0
 18 43  1  0
 19 44  1  0
 20 45  1  0
 21 46  1  0
 23 47  1  0
 23 48  1  0
 25 49  1  0
 25 50  1  0
 26 51  1  0
 26 52  1  0
 27 53  1  0
 27 54  1  0
 28 55  1  0
 28 56  1  0
M  END
>  <UniqueID>  (58) 
512

>  <SMILES>  (58) 
OC1(c2nc(N3CCNCC3)nc(N3CCc4ccccc4C3)n2)CCCC1

>  <Energy>  (58) 
68.49375287355913

>  <Genealogy>  (58) 
OC1(c2nc(N3CCNCC3)nc(N3CCc4ccccc4C3)n2)CCCC1 (3D coordinates assigned)
OC1(c2nc(N3CCNCC3)nc(N3CCc4ccccc4C3)n2)CCCC1 (nonaromatic ring conformer: 68.49375287355913 kcal/mol)

>  <smiles>  (58) 
OC1(c2nc(N3CCNCC3)nc(N3CCc4ccccc4C3)n2)CCCC1

>  <score_type>  (58) 
oracle

>  <origin>  (58) 
autodockgpu

>  <m_score__min__energy>  (58) 
-8.8599999999999994

>  <m_primary>  (58) 
energy

>  <meeko>  (58) 
{"free_energy": -8.85, "intermolecular_energy": -10.05, "internal_energy": -1.5, "cluster_size": 20, "cluster_id": 1, "rank_in_cluster": 9}

>  <energy>  (58) 
-8.85

>  <cluster_rmsd>  (58) 
0.04

>  <rmsd>  (58) 
271.08

>  <cluster>  (58) 
1

$$$$
AUISRQYXECVJTM-UHFFFAOYNA-N
     RDKit          3D

 56 60  0  0  0  0  0  0  0  0999 V2000
  138.3640   75.5460  222.4110 O   0  0  0  0  0  0  0  0  0  0  0  0
  139.5810   75.6920  221.7200 C   0  0  0  0  0  0  0  0  0  0  0  0
  140.3570   74.3900  221.7670 C   0  0  0  0  0  0  0  0  0  0  0  0
  141.4950   74.2410  221.0400 N   0  0  0  0  0  0  0  0  0  0  0  0
  142.2260   73.1000  221.1220 C   0  0  0  0  0  0  0  0  0  0  0  0
  143.4260   72.9380  220.3370 N   0  0  0  0  0  0  0  0  0  0  0  0
  143.6050   71.7120  219.5480 C   0  0  0  0  0  0  0  0  0  0  0  0
  144.9440   71.7250  218.8070 C   0  0  0  0  0  0  0  0  0  0  0  0
  146.0150   72.1650  219.7070 N   0  0  0  0  0  0  0  0  0  0  0  0
  145.8360   73.5570  220.1630 C   0  0  0  0  0  0  0  0  0  0  0  0
  144.3720   74.0490  220.1640 C   0  0  0  0  0  0  0  0  0  0  0  0
  141.8180   72.1100  221.9590 N   0  0  0  0  0  0  0  0  0  0  0  0
  140.6960   72.2530  222.7120 C   0  0  0  0  0  0  0  0  0  0  0  0
  140.2730   71.2040  223.6090 N   0  0  0  0  0  0  0  0  0  0  0  0
  139.0460   70.4410  223.3290 C   0  0  0  0  0  0  0  0  0  0  0  0
  139.2070   68.9880  223.7650 C   0  0  0  0  0  0  0  0  0  0  0  0
  139.6110   68.9250  225.2070 C   0  0  0  0  0  0  0  0  0  0  0  0
  139.1920   67.8520  226.0120 C   0  0  0  0  0  0  0  0  0  0  0  0
  139.5970   67.7750  227.3460 C   0  0  0  0  0  0  0  0  0  0  0  0
  140.4330   68.7560  227.8820 C   0  0  0  0  0  0  0  0  0  0  0  0
  140.8690   69.8170  227.0840 C   0  0  0  0  0  0  0  0  0  0  0  0
  140.4600   69.9130  225.7440 C   0  0  0  0  0  0  0  0  0  0  0  0
  140.9870   71.0420  224.8900 C   0  0  0  0  0  0  0  0  0  0  0  0
  139.9750   73.4010  222.6150 N   0  0  0  0  0  0  0  0  0  0  0  0
  139.3260   76.1730  220.2860 C   0  0  0  0  0  0  0  0  0  0  0  0
  139.1720   77.6880  220.3760 C   0  0  0  0  0  0  0  0  0  0  0  0
  139.8110   78.1140  221.6960 C   0  0  0  0  0  0  0  0  0  0  0  0
  140.3630   76.8500  222.3410 C   0  0  0  0  0  0  0  0  0  0  0  0
  138.4330   74.7360  222.9820 H   0  0  0  0  0  0  0  0  0  0  0  0
  143.5758   70.8433  220.2222 H   0  0  0  0  0  0  0  0  0  0  0  0
  142.7953   71.6525  218.8059 H   0  0  0  0  0  0  0  0  0  0  0  0
  145.1682   70.7114  218.4433 H   0  0  0  0  0  0  0  0  0  0  0  0
  144.8786   72.4218  217.9584 H   0  0  0  0  0  0  0  0  0  0  0  0
  146.0290   71.5330  220.5430 H   0  0  0  0  0  0  0  0  0  0  0  0
  146.2250   73.6348  221.1890 H   0  0  0  0  0  0  0  0  0  0  0  0
  146.3783   74.1922  219.4471 H   0  0  0  0  0  0  0  0  0  0  0  0
  144.2367   74.7642  220.9887 H   0  0  0  0  0  0  0  0  0  0  0  0
  144.1691   74.5244  219.1930 H   0  0  0  0  0  0  0  0  0  0  0  0
  138.2063   70.8923  223.8778 H   0  0  0  0  0  0  0  0  0  0  0  0
  138.8508   70.4673  222.2468 H   0  0  0  0  0  0  0  0  0  0  0  0
  138.2513   68.4600  223.6315 H   0  0  0  0  0  0  0  0  0  0  0  0
  139.9862   68.5121  223.1515 H   0  0  0  0  0  0  0  0  0  0  0  0
  138.5431   67.0705  225.5899 H   0  0  0  0  0  0  0  0  0  0  0  0
  139.2567   66.9398  227.9757 H   0  0  0  0  0  0  0  0  0  0  0  0
  140.7489   68.6938  228.9338 H   0  0  0  0  0  0  0  0  0  0  0  0
  141.5366   70.5816  227.5080 H   0  0  0  0  0  0  0  0  0  0  0  0
  140.8953   71.9790  225.4589 H   0  0  0  0  0  0  0  0  0  0  0  0
  142.0314   70.7979  224.6456 H   0  0  0  0  0  0  0  0  0  0  0  0
  140.1757   75.9123  219.6379 H   0  0  0  0  0  0  0  0  0  0  0  0
  138.4316   75.7005  219.8539 H   0  0  0  0  0  0  0  0  0  0  0  0
  139.6851   78.1724  219.5322 H   0  0  0  0  0  0  0  0  0  0  0  0
  138.1129   77.9822  220.3349 H   0  0  0  0  0  0  0  0  0  0  0  0
  140.6241   78.8311  221.5099 H   0  0  0  0  0  0  0  0  0  0  0  0
  139.0768   78.6053  222.3514 H   0  0  0  0  0  0  0  0  0  0  0  0
  141.4367   76.7469  222.1251 H   0  0  0  0  0  0  0  0  0  0  0  0
  140.2541   76.8723  223.4354 H   0  0  0  0  0  0  0  0  0  0  0  0
  1  2  1  0
  2  3  1  0
  3  4  2  0
  4  5  1  0
  5  6  1  0
  6  7  1  0
  7  8  1  0
  8  9  1  0
  9 10  1  0
 10 11  1  0
  5 12  2  0
 12 13  1  0
 13 14  1  0
 14 15  1  0
 15 16  1  0
 16 17  1  0
 17 18  2  0
 18 19  1  0
 19 20  2  0
 20 21  1  0
 21 22  2  0
 22 23  1  0
 13 24  2  0
  2 25  1  0
 25 26  1  0
 26 27  1  0
 27 28  1  0
 28  2  1  0
 24  3  1  0
 11  6  1  0
 23 14  1  0
 22 17  1  0
  1 29  1  0
  7 30  1  0
  7 31  1  0
  8 32  1  0
  8 33  1  0
  9 34  1  0
 10 35  1  0
 10 36  1  0
 11 37  1  0
 11 38  1  0
 15 39  1  0
 15 40  1  0
 16 41  1  0
 16 42  1  0
 18 43  1  0
 19 44  1  0
 20 45  1  0
 21 46  1  0
 23 47  1  0
 23 48  1  0
 25 49  1  0
 25 50  1  0
 26 51  1  0
 26 52  1  0
 27 53  1  0
 27 54  1  0
 28 55  1  0
 28 56  1  0
M  END
>  <UniqueID>  (59) 
512

>  <SMILES>  (59) 
OC1(c2nc(N3CCNCC3)nc(N3CCc4ccccc4C3)n2)CCCC1

>  <Energy>  (59) 
68.49375287355913

>  <Genealogy>  (59) 
OC1(c2nc(N3CCNCC3)nc(N3CCc4ccccc4C3)n2)CCCC1 (3D coordinates assigned)
OC1(c2nc(N3CCNCC3)nc(N3CCc4ccccc4C3)n2)CCCC1 (nonaromatic ring conformer: 68.49375287355913 kcal/mol)

>  <smiles>  (59) 
OC1(c2nc(N3CCNCC3)nc(N3CCc4ccccc4C3)n2)CCCC1

>  <score_type>  (59) 
oracle

>  <origin>  (59) 
autodockgpu

>  <m_score__min__energy>  (59) 
-8.8599999999999994

>  <m_primary>  (59) 
energy

>  <meeko>  (59) 
{"free_energy": -8.86, "intermolecular_energy": -10.05, "internal_energy": -1.5, "cluster_size": 20, "cluster_id": 1, "rank_in_cluster": 4}

>  <energy>  (59) 
-8.85

>  <cluster_rmsd>  (59) 
0.06

>  <rmsd>  (59) 
271.08

>  <cluster>  (59) 
1

$$$$
AUISRQYXECVJTM-UHFFFAOYNA-N
     RDKit          3D

 56 60  0  0  0  0  0  0  0  0999 V2000
  138.3390   75.5360  222.3490 O   0  0  0  0  0  0  0  0  0  0  0  0
  139.5720   75.6880  221.6860 C   0  0  0  0  0  0  0  0  0  0  0  0
  140.3520   74.3900  221.7500 C   0  0  0  0  0  0  0  0  0  0  0  0
  141.4900   74.2360  221.0240 N   0  0  0  0  0  0  0  0  0  0  0  0
  142.2260   73.0990  221.1210 C   0  0  0  0  0  0  0  0  0  0  0  0
  143.4260   72.9310  220.3370 N   0  0  0  0  0  0  0  0  0  0  0  0
  143.5870   71.7170  219.5260 C   0  0  0  0  0  0  0  0  0  0  0  0
  144.9300   71.7210  218.7900 C   0  0  0  0  0  0  0  0  0  0  0  0
  146.0050   72.1270  219.7010 N   0  0  0  0  0  0  0  0  0  0  0  0
  145.8470   73.5130  220.1830 C   0  0  0  0  0  0  0  0  0  0  0  0
  144.3920   74.0300  220.1880 C   0  0  0  0  0  0  0  0  0  0  0  0
  141.8220   72.1180  221.9710 N   0  0  0  0  0  0  0  0  0  0  0  0
  140.7000   72.2660  222.7230 C   0  0  0  0  0  0  0  0  0  0  0  0
  140.2820   71.2270  223.6330 N   0  0  0  0  0  0  0  0  0  0  0  0
  139.0270   70.4960  223.3950 C   0  0  0  0  0  0  0  0  0  0  0  0
  139.1660   69.0400  223.8250 C   0  0  0  0  0  0  0  0  0  0  0  0
  139.6170   68.9640  225.2520 C   0  0  0  0  0  0  0  0  0  0  0  0
  139.1990   67.9020  226.0700 C   0  0  0  0  0  0  0  0  0  0  0  0
  139.6470   67.8120  227.3900 C   0  0  0  0  0  0  0  0  0  0  0  0
  140.5270   68.7710  227.8970 C   0  0  0  0  0  0  0  0  0  0  0  0
  140.9620   69.8220  227.0850 C   0  0  0  0  0  0  0  0  0  0  0  0
  140.5090   69.9290  225.7590 C   0  0  0  0  0  0  0  0  0  0  0  0
  141.0360   71.0460  224.8890 C   0  0  0  0  0  0  0  0  0  0  0  0
  139.9750   73.4110  222.6110 N   0  0  0  0  0  0  0  0  0  0  0  0
  139.3470   76.1700  220.2480 C   0  0  0  0  0  0  0  0  0  0  0  0
  139.1840   77.6840  220.3360 C   0  0  0  0  0  0  0  0  0  0  0  0
  139.7900   78.1110  221.6710 C   0  0  0  0  0  0  0  0  0  0  0  0
  140.3330   76.8490  222.3280 C   0  0  0  0  0  0  0  0  0  0  0  0
  138.4060   74.7370  222.9360 H   0  0  0  0  0  0  0  0  0  0  0  0
  143.5402   70.8365  220.1837 H   0  0  0  0  0  0  0  0  0  0  0  0
  142.7793   71.6850  218.7799 H   0  0  0  0  0  0  0  0  0  0  0  0
  145.1387   70.7104  218.4091 H   0  0  0  0  0  0  0  0  0  0  0  0
  144.8792   72.4341  217.9540 H   0  0  0  0  0  0  0  0  0  0  0  0
  146.0050   71.4790  220.5260 H   0  0  0  0  0  0  0  0  0  0  0  0
  146.2330   73.5646  221.2118 H   0  0  0  0  0  0  0  0  0  0  0  0
  146.4026   74.1523  219.4811 H   0  0  0  0  0  0  0  0  0  0  0  0
  144.2657   74.7319  221.0255 H   0  0  0  0  0  0  0  0  0  0  0  0
  144.2009   74.5272  219.2256 H   0  0  0  0  0  0  0  0  0  0  0  0
  138.2183   70.9681  223.9722 H   0  0  0  0  0  0  0  0  0  0  0  0
  138.7953   70.5284  222.3202 H   0  0  0  0  0  0  0  0  0  0  0  0
  138.1932   68.5365  223.7238 H   0  0  0  0  0  0  0  0  0  0  0  0
  139.9122   68.5459  223.1854 H   0  0  0  0  0  0  0  0  0  0  0  0
  138.5162   67.1381  225.6698 H   0  0  0  0  0  0  0  0  0  0  0  0
  139.3065   66.9852  228.0307 H   0  0  0  0  0  0  0  0  0  0  0  0
  140.8781   68.6989  228.9370 H   0  0  0  0  0  0  0  0  0  0  0  0
  141.6626   70.5693  227.4859 H   0  0  0  0  0  0  0  0  0  0  0  0
  140.9874   71.9841  225.4613 H   0  0  0  0  0  0  0  0  0  0  0  0
  142.0654   70.7771  224.6097 H   0  0  0  0  0  0  0  0  0  0  0  0
  140.2122   75.9141  219.6188 H   0  0  0  0  0  0  0  0  0  0  0  0
  138.4644   75.6941  219.7957 H   0  0  0  0  0  0  0  0  0  0  0  0
  139.7145   78.1718  219.5050 H   0  0  0  0  0  0  0  0  0  0  0  0
  138.1248   77.9735  220.2704 H   0  0  0  0  0  0  0  0  0  0  0  0
  140.6038   78.8322  221.5047 H   0  0  0  0  0  0  0  0  0  0  0  0
  139.0380   78.5976  222.3095 H   0  0  0  0  0  0  0  0  0  0  0  0
  141.4122   76.7518  222.1384 H   0  0  0  0  0  0  0  0  0  0  0  0
  140.1976   76.8690  223.4195 H   0  0  0  0  0  0  0  0  0  0  0  0
  1  2  1  0
  2  3  1  0
  3  4  2  0
  4  5  1  0
  5  6  1  0
  6  7  1  0
  7  8  1  0
  8  9  1  0
  9 10  1  0
 10 11  1  0
  5 12  2  0
 12 13  1  0
 13 14  1  0
 14 15  1  0
 15 16  1  0
 16 17  1  0
 17 18  2  0
 18 19  1  0
 19 20  2  0
 20 21  1  0
 21 22  2  0
 22 23  1  0
 13 24  2  0
  2 25  1  0
 25 26  1  0
 26 27  1  0
 27 28  1  0
 28  2  1  0
 24  3  1  0
 11  6  1  0
 23 14  1  0
 22 17  1  0
  1 29  1  0
  7 30  1  0
  7 31  1  0
  8 32  1  0
  8 33  1  0
  9 34  1  0
 10 35  1  0
 10 36  1  0
 11 37  1  0
 11 38  1  0
 15 39  1  0
 15 40  1  0
 16 41  1  0
 16 42  1  0
 18 43  1  0
 19 44  1  0
 20 45  1  0
 21 46  1  0
 23 47  1  0
 23 48  1  0
 25 49  1  0
 25 50  1  0
 26 51  1  0
 26 52  1  0
 27 53  1  0
 27 54  1  0
 28 55  1  0
 28 56  1  0
M  END
>  <UniqueID>  (60) 
512

>  <SMILES>  (60) 
OC1(c2nc(N3CCNCC3)nc(N3CCc4ccccc4C3)n2)CCCC1

>  <Energy>  (60) 
68.49375287355913

>  <Genealogy>  (60) 
OC1(c2nc(N3CCNCC3)nc(N3CCc4ccccc4C3)n2)CCCC1 (3D coordinates assigned)
OC1(c2nc(N3CCNCC3)nc(N3CCc4ccccc4C3)n2)CCCC1 (nonaromatic ring conformer: 68.49375287355913 kcal/mol)

>  <smiles>  (60) 
OC1(c2nc(N3CCNCC3)nc(N3CCc4ccccc4C3)n2)CCCC1

>  <score_type>  (60) 
oracle

>  <origin>  (60) 
autodockgpu

>  <m_score__min__energy>  (60) 
-8.8599999999999994

>  <m_primary>  (60) 
energy

>  <meeko>  (60) 
{"free_energy": -8.85, "intermolecular_energy": -10.04, "internal_energy": -1.5, "cluster_size": 20, "cluster_id": 1, "rank_in_cluster": 16}

>  <energy>  (60) 
-8.84

>  <cluster_rmsd>  (60) 
0.06

>  <rmsd>  (60) 
271.09

>  <cluster>  (60) 
1

$$$$
AUISRQYXECVJTM-UHFFFAOYNA-N
     RDKit          3D

 56 60  0  0  0  0  0  0  0  0999 V2000
  138.2880   75.5380  222.3470 O   0  0  0  0  0  0  0  0  0  0  0  0
  139.5150   75.7100  221.6790 C   0  0  0  0  0  0  0  0  0  0  0  0
  140.3140   74.4230  221.7340 C   0  0  0  0  0  0  0  0  0  0  0  0
  141.4600   74.2940  221.0160 N   0  0  0  0  0  0  0  0  0  0  0  0
  142.2120   73.1660  221.1070 C   0  0  0  0  0  0  0  0  0  0  0  0
  143.4210   73.0250  220.3310 N   0  0  0  0  0  0  0  0  0  0  0  0
  143.5780   71.8530  219.4590 C   0  0  0  0  0  0  0  0  0  0  0  0
  144.9300   71.8790  218.7420 C   0  0  0  0  0  0  0  0  0  0  0  0
  145.9970   72.2220  219.6870 N   0  0  0  0  0  0  0  0  0  0  0  0
  145.8500   73.5830  220.2390 C   0  0  0  0  0  0  0  0  0  0  0  0
  144.4010   74.1170  220.2520 C   0  0  0  0  0  0  0  0  0  0  0  0
  141.8170   72.1710  221.9440 N   0  0  0  0  0  0  0  0  0  0  0  0
  140.6870   72.2940  222.6880 C   0  0  0  0  0  0  0  0  0  0  0  0
  140.2770   71.2400  223.5850 N   0  0  0  0  0  0  0  0  0  0  0  0
  139.0280   70.5020  223.3360 C   0  0  0  0  0  0  0  0  0  0  0  0
  139.1790   69.0410  223.7460 C   0  0  0  0  0  0  0  0  0  0  0  0
  139.6310   68.9490  225.1720 C   0  0  0  0  0  0  0  0  0  0  0  0
  139.2220   67.8730  225.9760 C   0  0  0  0  0  0  0  0  0  0  0  0
  139.6700   67.7690  227.2950 C   0  0  0  0  0  0  0  0  0  0  0  0
  140.5420   68.7280  227.8140 C   0  0  0  0  0  0  0  0  0  0  0  0
  140.9680   69.7930  227.0170 C   0  0  0  0  0  0  0  0  0  0  0  0
  140.5150   69.9150  225.6930 C   0  0  0  0  0  0  0  0  0  0  0  0
  141.0320   71.0480  224.8370 C   0  0  0  0  0  0  0  0  0  0  0  0
  139.9450   73.4290  222.5830 N   0  0  0  0  0  0  0  0  0  0  0  0
  139.2760   76.1920  220.2430 C   0  0  0  0  0  0  0  0  0  0  0  0
  139.0910   77.7030  220.3360 C   0  0  0  0  0  0  0  0  0  0  0  0
  139.6990   78.1360  221.6680 C   0  0  0  0  0  0  0  0  0  0  0  0
  140.2630   76.8800  222.3190 C   0  0  0  0  0  0  0  0  0  0  0  0
  138.3780   74.7540  222.9510 H   0  0  0  0  0  0  0  0  0  0  0  0
  143.5118   70.9398  220.0686 H   0  0  0  0  0  0  0  0  0  0  0  0
  142.7799   71.8703  218.7022 H   0  0  0  0  0  0  0  0  0  0  0  0
  145.1316   70.8875  218.3104 H   0  0  0  0  0  0  0  0  0  0  0  0
  144.8992   72.6362  217.9447 H   0  0  0  0  0  0  0  0  0  0  0  0
  145.9780   71.5320  220.4760 H   0  0  0  0  0  0  0  0  0  0  0  0
  146.2226   73.5758  221.2740 H   0  0  0  0  0  0  0  0  0  0  0  0
  146.4232   74.2511  219.5794 H   0  0  0  0  0  0  0  0  0  0  0  0
  144.2716   74.7761  221.1231 H   0  0  0  0  0  0  0  0  0  0  0  0
  144.2289   74.6656  219.3142 H   0  0  0  0  0  0  0  0  0  0  0  0
  138.2151   70.9593  223.9192 H   0  0  0  0  0  0  0  0  0  0  0  0
  138.7966   70.5475  222.2616 H   0  0  0  0  0  0  0  0  0  0  0  0
  138.2103   68.5311  223.6380 H   0  0  0  0  0  0  0  0  0  0  0  0
  139.9290   68.5619  223.0995 H   0  0  0  0  0  0  0  0  0  0  0  0
  138.5459   67.1086  225.5654 H   0  0  0  0  0  0  0  0  0  0  0  0
  139.3357   66.9314  227.9249 H   0  0  0  0  0  0  0  0  0  0  0  0
  140.8943   68.6446  228.8527 H   0  0  0  0  0  0  0  0  0  0  0  0
  141.6622   70.5405  227.4285 H   0  0  0  0  0  0  0  0  0  0  0  0
  140.9762   71.9780  225.4218 H   0  0  0  0  0  0  0  0  0  0  0  0
  142.0631   70.7906  224.5532 H   0  0  0  0  0  0  0  0  0  0  0  0
  140.1419   75.9506  219.6090 H   0  0  0  0  0  0  0  0  0  0  0  0
  138.3986   75.7041  219.7934 H   0  0  0  0  0  0  0  0  0  0  0  0
  139.6088   78.2007  219.5028 H   0  0  0  0  0  0  0  0  0  0  0  0
  138.0272   77.9766  220.2780 H   0  0  0  0  0  0  0  0  0  0  0  0
  140.5019   78.8685  221.4982 H   0  0  0  0  0  0  0  0  0  0  0  0
  138.9445   78.6114  222.3120 H   0  0  0  0  0  0  0  0  0  0  0  0
  141.3423   76.7982  222.1231 H   0  0  0  0  0  0  0  0  0  0  0  0
  140.1332   76.8958  223.4112 H   0  0  0  0  0  0  0  0  0  0  0  0
  1  2  1  0
  2  3  1  0
  3  4  2  0
  4  5  1  0
  5  6  1  0
  6  7  1  0
  7  8  1  0
  8  9  1  0
  9 10  1  0
 10 11  1  0
  5 12  2  0
 12 13  1  0
 13 14  1  0
 14 15  1  0
 15 16  1  0
 16 17  1  0
 17 18  2  0
 18 19  1  0
 19 20  2  0
 20 21  1  0
 21 22  2  0
 22 23  1  0
 13 24  2  0
  2 25  1  0
 25 26  1  0
 26 27  1  0
 27 28  1  0
 28  2  1  0
 24  3  1  0
 11  6  1  0
 23 14  1  0
 22 17  1  0
  1 29  1  0
  7 30  1  0
  7 31  1  0
  8 32  1  0
  8 33  1  0
  9 34  1  0
 10 35  1  0
 10 36  1  0
 11 37  1  0
 11 38  1  0
 15 39  1  0
 15 40  1  0
 16 41  1  0
 16 42  1  0
 18 43  1  0
 19 44  1  0
 20 45  1  0
 21 46  1  0
 23 47  1  0
 23 48  1  0
 25 49  1  0
 25 50  1  0
 26 51  1  0
 26 52  1  0
 27 53  1  0
 27 54  1  0
 28 55  1  0
 28 56  1  0
M  END
>  <UniqueID>  (61) 
513

>  <SMILES>  (61) 
OC1(c2nc(N3CCNCC3)nc(N3CCc4ccccc4C3)n2)CCCC1

>  <Energy>  (61) 
68.54441614610559

>  <Genealogy>  (61) 
OC1(c2nc(N3CCNCC3)nc(N3CCc4ccccc4C3)n2)CCCC1 (3D coordinates assigned)
OC1(c2nc(N3CCNCC3)nc(N3CCc4ccccc4C3)n2)CCCC1 (nonaromatic ring conformer: 68.54441614610559 kcal/mol)

>  <smiles>  (61) 
OC1(c2nc(N3CCNCC3)nc(N3CCc4ccccc4C3)n2)CCCC1

>  <score_type>  (61) 
oracle

>  <origin>  (61) 
autodockgpu

>  <m_score__min__energy>  (61) 
-8.8599999999999994

>  <m_primary>  (61) 
energy

>  <meeko>  (61) 
{"free_energy": -8.85, "intermolecular_energy": -10.04, "internal_energy": -1.5, "cluster_size": 20, "cluster_id": 1, "rank_in_cluster": 19}

>  <energy>  (61) 
-8.86

>  <cluster_rmsd>  (61) 
0.0

>  <rmsd>  (61) 
271.09

>  <cluster>  (61) 
1

$$$$
AUISRQYXECVJTM-UHFFFAOYNA-N
     RDKit          3D

 56 60  0  0  0  0  0  0  0  0999 V2000
  138.3210   75.5360  222.3590 O   0  0  0  0  0  0  0  0  0  0  0  0
  139.5510   75.6920  221.6930 C   0  0  0  0  0  0  0  0  0  0  0  0
  140.3340   74.3950  221.7510 C   0  0  0  0  0  0  0  0  0  0  0  0
  141.4720   74.2460  221.0230 N   0  0  0  0  0  0  0  0  0  0  0  0
  142.2100   73.1100  221.1150 C   0  0  0  0  0  0  0  0  0  0  0  0
  143.4090   72.9470  220.3300 N   0  0  0  0  0  0  0  0  0  0  0  0
  143.5790   71.7290  219.5260 C   0  0  0  0  0  0  0  0  0  0  0  0
  144.9200   71.7400  218.7880 C   0  0  0  0  0  0  0  0  0  0  0  0
  145.9930   72.1610  219.6930 N   0  0  0  0  0  0  0  0  0  0  0  0
  145.8250   73.5490  220.1660 C   0  0  0  0  0  0  0  0  0  0  0  0
  144.3650   74.0530  220.1710 C   0  0  0  0  0  0  0  0  0  0  0  0
  141.8080   72.1250  221.9620 N   0  0  0  0  0  0  0  0  0  0  0  0
  140.6870   72.2690  222.7160 C   0  0  0  0  0  0  0  0  0  0  0  0
  140.2710   71.2260  223.6230 N   0  0  0  0  0  0  0  0  0  0  0  0
  139.0260   70.4820  223.3740 C   0  0  0  0  0  0  0  0  0  0  0  0
  139.1770   69.0270  223.8060 C   0  0  0  0  0  0  0  0  0  0  0  0
  139.6160   68.9560  225.2370 C   0  0  0  0  0  0  0  0  0  0  0  0
  139.2020   67.8900  226.0520 C   0  0  0  0  0  0  0  0  0  0  0  0
  139.6390   67.8060  227.3760 C   0  0  0  0  0  0  0  0  0  0  0  0
  140.5040   68.7740  227.8900 C   0  0  0  0  0  0  0  0  0  0  0  0
  140.9340   69.8290  227.0810 C   0  0  0  0  0  0  0  0  0  0  0  0
  140.4930   69.9310  225.7520 C   0  0  0  0  0  0  0  0  0  0  0  0
  141.0150   71.0530  224.8850 C   0  0  0  0  0  0  0  0  0  0  0  0
  139.9590   73.4120  222.6090 N   0  0  0  0  0  0  0  0  0  0  0  0
  139.3210   76.1770  220.2560 C   0  0  0  0  0  0  0  0  0  0  0  0
  139.1550   77.6900  220.3490 C   0  0  0  0  0  0  0  0  0  0  0  0
  139.7650   78.1160  221.6820 C   0  0  0  0  0  0  0  0  0  0  0  0
  140.3120   76.8530  222.3340 C   0  0  0  0  0  0  0  0  0  0  0  0
  138.3510   74.6770  222.8570 H   0  0  0  0  0  0  0  0  0  0  0  0
  143.5408   70.8522  220.1892 H   0  0  0  0  0  0  0  0  0  0  0  0
  142.7703   71.6854  218.7816 H   0  0  0  0  0  0  0  0  0  0  0  0
  145.1367   70.7287  218.4133 H   0  0  0  0  0  0  0  0  0  0  0  0
  144.8612   72.4475  217.9478 H   0  0  0  0  0  0  0  0  0  0  0  0
  146.0010   71.5190  220.5220 H   0  0  0  0  0  0  0  0  0  0  0  0
  146.2131   73.6110  221.1934 H   0  0  0  0  0  0  0  0  0  0  0  0
  146.3737   74.1885  219.4589 H   0  0  0  0  0  0  0  0  0  0  0  0
  144.2345   74.7596  221.0039 H   0  0  0  0  0  0  0  0  0  0  0  0
  144.1672   74.5414  219.2054 H   0  0  0  0  0  0  0  0  0  0  0  0
  138.2072   70.9456  223.9438 H   0  0  0  0  0  0  0  0  0  0  0  0
  138.8033   70.5119  222.2972 H   0  0  0  0  0  0  0  0  0  0  0  0
  138.2107   68.5130  223.6963 H   0  0  0  0  0  0  0  0  0  0  0  0
  139.9343   68.5410  223.1733 H   0  0  0  0  0  0  0  0  0  0  0  0
  138.5312   67.1184  225.6463 H   0  0  0  0  0  0  0  0  0  0  0  0
  139.3013   66.9763  228.0144 H   0  0  0  0  0  0  0  0  0  0  0  0
  140.8473   68.7060  228.9328 H   0  0  0  0  0  0  0  0  0  0  0  0
  141.6224   70.5844  227.4879 H   0  0  0  0  0  0  0  0  0  0  0  0
  140.9516   71.9909  225.4563 H   0  0  0  0  0  0  0  0  0  0  0  0
  142.0492   70.7939  224.6142 H   0  0  0  0  0  0  0  0  0  0  0  0
  140.1851   75.9247  219.6238 H   0  0  0  0  0  0  0  0  0  0  0  0
  138.4386   75.7002  219.8044 H   0  0  0  0  0  0  0  0  0  0  0  0
  139.6809   78.1811  219.5170 H   0  0  0  0  0  0  0  0  0  0  0  0
  138.0947   77.9766  220.2890 H   0  0  0  0  0  0  0  0  0  0  0  0
  140.5772   78.8386  221.5140 H   0  0  0  0  0  0  0  0  0  0  0  0
  139.0152   78.6010  222.3243 H   0  0  0  0  0  0  0  0  0  0  0  0
  141.3906   76.7578  222.1401 H   0  0  0  0  0  0  0  0  0  0  0  0
  140.1801   76.8706  223.4259 H   0  0  0  0  0  0  0  0  0  0  0  0
  1  2  1  0
  2  3  1  0
  3  4  2  0
  4  5  1  0
  5  6  1  0
  6  7  1  0
  7  8  1  0
  8  9  1  0
  9 10  1  0
 10 11  1  0
  5 12  2  0
 12 13  1  0
 13 14  1  0
 14 15  1  0
 15 16  1  0
 16 17  1  0
 17 18  2  0
 18 19  1  0
 19 20  2  0
 20 21  1  0
 21 22  2  0
 22 23  1  0
 13 24  2  0
  2 25  1  0
 25 26  1  0
 26 27  1  0
 27 28  1  0
 28  2  1  0
 24  3  1  0
 11  6  1  0
 23 14  1  0
 22 17  1  0
  1 29  1  0
  7 30  1  0
  7 31  1  0
  8 32  1  0
  8 33  1  0
  9 34  1  0
 10 35  1  0
 10 36  1  0
 11 37  1  0
 11 38  1  0
 15 39  1  0
 15 40  1  0
 16 41  1  0
 16 42  1  0
 18 43  1  0
 19 44  1  0
 20 45  1  0
 21 46  1  0
 23 47  1  0
 23 48  1  0
 25 49  1  0
 25 50  1  0
 26 51  1  0
 26 52  1  0
 27 53  1  0
 27 54  1  0
 28 55  1  0
 28 56  1  0
M  END
>  <UniqueID>  (62) 
513

>  <SMILES>  (62) 
OC1(c2nc(N3CCNCC3)nc(N3CCc4ccccc4C3)n2)CCCC1

>  <Energy>  (62) 
68.54441614610559

>  <Genealogy>  (62) 
OC1(c2nc(N3CCNCC3)nc(N3CCc4ccccc4C3)n2)CCCC1 (3D coordinates assigned)
OC1(c2nc(N3CCNCC3)nc(N3CCc4ccccc4C3)n2)CCCC1 (nonaromatic ring conformer: 68.54441614610559 kcal/mol)

>  <smiles>  (62) 
OC1(c2nc(N3CCNCC3)nc(N3CCc4ccccc4C3)n2)CCCC1

>  <score_type>  (62) 
oracle

>  <origin>  (62) 
autodockgpu

>  <m_score__min__energy>  (62) 
-8.8599999999999994

>  <m_primary>  (62) 
energy

>  <meeko>  (62) 
{"free_energy": -8.86, "intermolecular_energy": -10.05, "internal_energy": -1.51, "cluster_size": 20, "cluster_id": 1, "rank_in_cluster": 2}

>  <energy>  (62) 
-8.86

>  <cluster_rmsd>  (62) 
0.02

>  <rmsd>  (62) 
271.09

>  <cluster>  (62) 
1

$$$$
AUISRQYXECVJTM-UHFFFAOYNA-N
     RDKit          3D

 56 60  0  0  0  0  0  0  0  0999 V2000
  138.3620   75.5390  222.3710 O   0  0  0  0  0  0  0  0  0  0  0  0
  139.5870   75.6830  221.6940 C   0  0  0  0  0  0  0  0  0  0  0  0
  140.3620   74.3820  221.7520 C   0  0  0  0  0  0  0  0  0  0  0  0
  141.4980   74.2250  221.0230 N   0  0  0  0  0  0  0  0  0  0  0  0
  142.2290   73.0840  221.1150 C   0  0  0  0  0  0  0  0  0  0  0  0
  143.4260   72.9120  220.3280 N   0  0  0  0  0  0  0  0  0  0  0  0
  143.6000   71.6790  219.5490 C   0  0  0  0  0  0  0  0  0  0  0  0
  144.9370   71.6830  218.8040 C   0  0  0  0  0  0  0  0  0  0  0  0
  146.0120   72.1300  219.6960 N   0  0  0  0  0  0  0  0  0  0  0  0
  145.8370   73.5260  220.1400 C   0  0  0  0  0  0  0  0  0  0  0  0
  144.3730   74.0210  220.1410 C   0  0  0  0  0  0  0  0  0  0  0  0
  141.8240   72.1030  221.9650 N   0  0  0  0  0  0  0  0  0  0  0  0
  140.7040   72.2550  222.7210 C   0  0  0  0  0  0  0  0  0  0  0  0
  140.2840   71.2160  223.6310 N   0  0  0  0  0  0  0  0  0  0  0  0
  139.0300   70.4860  223.3900 C   0  0  0  0  0  0  0  0  0  0  0  0
  139.1670   69.0290  223.8200 C   0  0  0  0  0  0  0  0  0  0  0  0
  139.6170   68.9530  225.2480 C   0  0  0  0  0  0  0  0  0  0  0  0
  139.1970   67.8910  226.0660 C   0  0  0  0  0  0  0  0  0  0  0  0
  139.6440   67.8010  227.3860 C   0  0  0  0  0  0  0  0  0  0  0  0
  140.5230   68.7590  227.8940 C   0  0  0  0  0  0  0  0  0  0  0  0
  140.9590   69.8100  227.0830 C   0  0  0  0  0  0  0  0  0  0  0  0
  140.5080   69.9180  225.7570 C   0  0  0  0  0  0  0  0  0  0  0  0
  141.0360   71.0340  224.8870 C   0  0  0  0  0  0  0  0  0  0  0  0
  139.9840   73.4030  222.6140 N   0  0  0  0  0  0  0  0  0  0  0  0
  139.3490   76.1620  220.2570 C   0  0  0  0  0  0  0  0  0  0  0  0
  139.1930   77.6760  220.3420 C   0  0  0  0  0  0  0  0  0  0  0  0
  139.8160   78.1060  221.6680 C   0  0  0  0  0  0  0  0  0  0  0  0
  140.3610   76.8430  222.3230 C   0  0  0  0  0  0  0  0  0  0  0  0
  138.4330   74.7450  222.9640 H   0  0  0  0  0  0  0  0  0  0  0  0
  143.5709   70.8161  220.2306 H   0  0  0  0  0  0  0  0  0  0  0  0
  142.7879   71.6148  218.8098 H   0  0  0  0  0  0  0  0  0  0  0  0
  145.1585   70.6656  218.4494 H   0  0  0  0  0  0  0  0  0  0  0  0
  144.8698   72.3721  217.9492 H   0  0  0  0  0  0  0  0  0  0  0  0
  146.0270   71.5050  220.5370 H   0  0  0  0  0  0  0  0  0  0  0  0
  146.2293   73.6123  221.1641 H   0  0  0  0  0  0  0  0  0  0  0  0
  146.3783   74.1538  219.4169 H   0  0  0  0  0  0  0  0  0  0  0  0
  144.2415   74.7443  220.9592 H   0  0  0  0  0  0  0  0  0  0  0  0
  144.1674   74.4879  219.1665 H   0  0  0  0  0  0  0  0  0  0  0  0
  138.2202   70.9583  223.9654 H   0  0  0  0  0  0  0  0  0  0  0  0
  138.8011   70.5188  222.3146 H   0  0  0  0  0  0  0  0  0  0  0  0
  138.1938   68.5266  223.7181 H   0  0  0  0  0  0  0  0  0  0  0  0
  139.9128   68.5338  223.1809 H   0  0  0  0  0  0  0  0  0  0  0  0
  138.5137   67.1277  225.6654 H   0  0  0  0  0  0  0  0  0  0  0  0
  139.3029   66.9741  228.0262 H   0  0  0  0  0  0  0  0  0  0  0  0
  140.8730   68.6865  228.9343 H   0  0  0  0  0  0  0  0  0  0  0  0
  141.6593   70.5569  227.4851 H   0  0  0  0  0  0  0  0  0  0  0  0
  140.9879   71.9722  225.4592 H   0  0  0  0  0  0  0  0  0  0  0  0
  142.0651   70.7634  224.6081 H   0  0  0  0  0  0  0  0  0  0  0  0
  140.2066   75.9009  219.6196 H   0  0  0  0  0  0  0  0  0  0  0  0
  138.4598   75.6884  219.8154 H   0  0  0  0  0  0  0  0  0  0  0  0
  139.7155   78.1589  219.5031 H   0  0  0  0  0  0  0  0  0  0  0  0
  138.1341   77.9689  220.2882 H   0  0  0  0  0  0  0  0  0  0  0  0
  140.6310   78.8229  221.4896 H   0  0  0  0  0  0  0  0  0  0  0  0
  139.0741   78.5990  222.3134 H   0  0  0  0  0  0  0  0  0  0  0  0
  141.4374   76.7401  222.1209 H   0  0  0  0  0  0  0  0  0  0  0  0
  140.2385   76.8674  223.4159 H   0  0  0  0  0  0  0  0  0  0  0  0
  1  2  1  0
  2  3  1  0
  3  4  2  0
  4  5  1  0
  5  6  1  0
  6  7  1  0
  7  8  1  0
  8  9  1  0
  9 10  1  0
 10 11  1  0
  5 12  2  0
 12 13  1  0
 13 14  1  0
 14 15  1  0
 15 16  1  0
 16 17  1  0
 17 18  2  0
 18 19  1  0
 19 20  2  0
 20 21  1  0
 21 22  2  0
 22 23  1  0
 13 24  2  0
  2 25  1  0
 25 26  1  0
 26 27  1  0
 27 28  1  0
 28  2  1  0
 24  3  1  0
 11  6  1  0
 23 14  1  0
 22 17  1  0
  1 29  1  0
  7 30  1  0
  7 31  1  0
  8 32  1  0
  8 33  1  0
  9 34  1  0
 10 35  1  0
 10 36  1  0
 11 37  1  0
 11 38  1  0
 15 39  1  0
 15 40  1  0
 16 41  1  0
 16 42  1  0
 18 43  1  0
 19 44  1  0
 20 45  1  0
 21 46  1  0
 23 47  1  0
 23 48  1  0
 25 49  1  0
 25 50  1  0
 26 51  1  0
 26 52  1  0
 27 53  1  0
 27 54  1  0
 28 55  1  0
 28 56  1  0
M  END
>  <UniqueID>  (63) 
513

>  <SMILES>  (63) 
OC1(c2nc(N3CCNCC3)nc(N3CCc4ccccc4C3)n2)CCCC1

>  <Energy>  (63) 
68.54441614610559

>  <Genealogy>  (63) 
OC1(c2nc(N3CCNCC3)nc(N3CCc4ccccc4C3)n2)CCCC1 (3D coordinates assigned)
OC1(c2nc(N3CCNCC3)nc(N3CCc4ccccc4C3)n2)CCCC1 (nonaromatic ring conformer: 68.54441614610559 kcal/mol)

>  <smiles>  (63) 
OC1(c2nc(N3CCNCC3)nc(N3CCc4ccccc4C3)n2)CCCC1

>  <score_type>  (63) 
oracle

>  <origin>  (63) 
autodockgpu

>  <m_score__min__energy>  (63) 
-8.8599999999999994

>  <m_primary>  (63) 
energy

>  <meeko>  (63) 
{"free_energy": -8.85, "intermolecular_energy": -10.05, "internal_energy": -1.5, "cluster_size": 20, "cluster_id": 1, "rank_in_cluster": 12}

>  <energy>  (63) 
-8.86

>  <cluster_rmsd>  (63) 
0.05

>  <rmsd>  (63) 
271.1

>  <cluster>  (63) 
1

$$$$
AUISRQYXECVJTM-UHFFFAOYNA-N
     RDKit          3D

 56 60  0  0  0  0  0  0  0  0999 V2000
  138.3400   75.5760  222.3650 O   0  0  0  0  0  0  0  0  0  0  0  0
  139.5610   75.7110  221.6780 C   0  0  0  0  0  0  0  0  0  0  0  0
  140.3330   74.4070  221.7440 C   0  0  0  0  0  0  0  0  0  0  0  0
  141.4690   74.2440  221.0160 N   0  0  0  0  0  0  0  0  0  0  0  0
  142.1970   73.1020  221.1150 C   0  0  0  0  0  0  0  0  0  0  0  0
  143.3950   72.9240  220.3300 N   0  0  0  0  0  0  0  0  0  0  0  0
  143.5790   71.6750  219.5780 C   0  0  0  0  0  0  0  0  0  0  0  0
  144.9150   71.6750  218.8310 C   0  0  0  0  0  0  0  0  0  0  0  0
  145.9870   72.1510  219.7100 N   0  0  0  0  0  0  0  0  0  0  0  0
  145.7990   73.5550  220.1240 C   0  0  0  0  0  0  0  0  0  0  0  0
  144.3320   74.0370  220.1160 C   0  0  0  0  0  0  0  0  0  0  0  0
  141.7890   72.1270  221.9690 N   0  0  0  0  0  0  0  0  0  0  0  0
  140.6700   72.2850  222.7230 C   0  0  0  0  0  0  0  0  0  0  0  0
  140.2460   71.2510  223.6380 N   0  0  0  0  0  0  0  0  0  0  0  0
  138.9960   70.5150  223.3940 C   0  0  0  0  0  0  0  0  0  0  0  0
  139.1350   69.0620  223.8360 C   0  0  0  0  0  0  0  0  0  0  0  0
  139.5740   68.9980  225.2670 C   0  0  0  0  0  0  0  0  0  0  0  0
  139.1520   67.9410  226.0910 C   0  0  0  0  0  0  0  0  0  0  0  0
  139.5890   67.8630  227.4140 C   0  0  0  0  0  0  0  0  0  0  0  0
  140.4620   68.8280  227.9210 C   0  0  0  0  0  0  0  0  0  0  0  0
  140.9010   69.8740  227.1050 C   0  0  0  0  0  0  0  0  0  0  0  0
  140.4590   69.9700  225.7750 C   0  0  0  0  0  0  0  0  0  0  0  0
  140.9900   71.0820  224.9010 C   0  0  0  0  0  0  0  0  0  0  0  0
  139.9520   73.4340  222.6090 N   0  0  0  0  0  0  0  0  0  0  0  0
  139.3130   76.1750  220.2380 C   0  0  0  0  0  0  0  0  0  0  0  0
  139.1620   77.6910  220.3090 C   0  0  0  0  0  0  0  0  0  0  0  0
  139.7970   78.1320  221.6260 C   0  0  0  0  0  0  0  0  0  0  0  0
  140.3430   76.8740  222.2890 C   0  0  0  0  0  0  0  0  0  0  0  0
  138.3870   74.7460  222.9090 H   0  0  0  0  0  0  0  0  0  0  0  0
  143.5588   70.8272  220.2786 H   0  0  0  0  0  0  0  0  0  0  0  0
  142.7664   71.5867  218.8419 H   0  0  0  0  0  0  0  0  0  0  0  0
  145.1452   70.6521  218.4984 H   0  0  0  0  0  0  0  0  0  0  0  0
  144.8399   72.3448  217.9617 H   0  0  0  0  0  0  0  0  0  0  0  0
  146.0090   71.5450  220.5660 H   0  0  0  0  0  0  0  0  0  0  0  0
  146.1913   73.6669  221.1456 H   0  0  0  0  0  0  0  0  0  0  0  0
  146.3336   74.1716  219.3864 H   0  0  0  0  0  0  0  0  0  0  0  0
  144.1953   74.7778  220.9176 H   0  0  0  0  0  0  0  0  0  0  0  0
  144.1209   74.4798  219.1315 H   0  0  0  0  0  0  0  0  0  0  0  0
  138.1807   70.9890  223.9603 H   0  0  0  0  0  0  0  0  0  0  0  0
  138.7743   70.5389  222.3168 H   0  0  0  0  0  0  0  0  0  0  0  0
  138.1644   68.5553  223.7304 H   0  0  0  0  0  0  0  0  0  0  0  0
  139.8876   68.5650  223.2063 H   0  0  0  0  0  0  0  0  0  0  0  0
  138.4744   67.1720  225.6916 H   0  0  0  0  0  0  0  0  0  0  0  0
  139.2454   67.0404  228.0584 H   0  0  0  0  0  0  0  0  0  0  0  0
  140.8046   68.7646  228.9644 H   0  0  0  0  0  0  0  0  0  0  0  0
  141.5963   70.6261  227.5062 H   0  0  0  0  0  0  0  0  0  0  0  0
  140.9340   72.0243  225.4657 H   0  0  0  0  0  0  0  0  0  0  0  0
  142.0225   70.8142  224.6323 H   0  0  0  0  0  0  0  0  0  0  0  0
  140.1648   75.9047  219.5966 H   0  0  0  0  0  0  0  0  0  0  0  0
  138.4193   75.6992  219.8080 H   0  0  0  0  0  0  0  0  0  0  0  0
  139.6793   78.1640  219.4612 H   0  0  0  0  0  0  0  0  0  0  0  0
  138.1036   77.9867  220.2605 H   0  0  0  0  0  0  0  0  0  0  0  0
  140.6128   78.8445  221.4341 H   0  0  0  0  0  0  0  0  0  0  0  0
  139.0618   78.6337  222.2723 H   0  0  0  0  0  0  0  0  0  0  0  0
  141.4174   76.7657  222.0796 H   0  0  0  0  0  0  0  0  0  0  0  0
  140.2291   76.9095  223.3825 H   0  0  0  0  0  0  0  0  0  0  0  0
  1  2  1  0
  2  3  1  0
  3  4  2  0
  4  5  1  0
  5  6  1  0
  6  7  1  0
  7  8  1  0
  8  9  1  0
  9 10  1  0
 10 11  1  0
  5 12  2  0
 12 13  1  0
 13 14  1  0
 14 15  1  0
 15 16  1  0
 16 17  1  0
 17 18  2  0
 18 19  1  0
 19 20  2  0
 20 21  1  0
 21 22  2  0
 22 23  1  0
 13 24  2  0
  2 25  1  0
 25 26  1  0
 26 27  1  0
 27 28  1  0
 28  2  1  0
 24  3  1  0
 11  6  1  0
 23 14  1  0
 22 17  1  0
  1 29  1  0
  7 30  1  0
  7 31  1  0
  8 32  1  0
  8 33  1  0
  9 34  1  0
 10 35  1  0
 10 36  1  0
 11 37  1  0
 11 38  1  0
 15 39  1  0
 15 40  1  0
 16 41  1  0
 16 42  1  0
 18 43  1  0
 19 44  1  0
 20 45  1  0
 21 46  1  0
 23 47  1  0
 23 48  1  0
 25 49  1  0
 25 50  1  0
 26 51  1  0
 26 52  1  0
 27 53  1  0
 27 54  1  0
 28 55  1  0
 28 56  1  0
M  END
>  <UniqueID>  (64) 
513

>  <SMILES>  (64) 
OC1(c2nc(N3CCNCC3)nc(N3CCc4ccccc4C3)n2)CCCC1

>  <Energy>  (64) 
68.54441614610559

>  <Genealogy>  (64) 
OC1(c2nc(N3CCNCC3)nc(N3CCc4ccccc4C3)n2)CCCC1 (3D coordinates assigned)
OC1(c2nc(N3CCNCC3)nc(N3CCc4ccccc4C3)n2)CCCC1 (nonaromatic ring conformer: 68.54441614610559 kcal/mol)

>  <smiles>  (64) 
OC1(c2nc(N3CCNCC3)nc(N3CCc4ccccc4C3)n2)CCCC1

>  <score_type>  (64) 
oracle

>  <origin>  (64) 
autodockgpu

>  <m_score__min__energy>  (64) 
-8.8599999999999994

>  <m_primary>  (64) 
energy

>  <meeko>  (64) 
{"free_energy": -8.84, "intermolecular_energy": -10.03, "internal_energy": -1.51, "cluster_size": 20, "cluster_id": 1, "rank_in_cluster": 20}

>  <energy>  (64) 
-8.86

>  <cluster_rmsd>  (64) 
0.05

>  <rmsd>  (64) 
271.1

>  <cluster>  (64) 
1

$$$$
AUISRQYXECVJTM-UHFFFAOYNA-N
     RDKit          3D

 56 60  0  0  0  0  0  0  0  0999 V2000
  138.3650   75.5390  222.3790 O   0  0  0  0  0  0  0  0  0  0  0  0
  139.5930   75.6840  221.7050 C   0  0  0  0  0  0  0  0  0  0  0  0
  140.3640   74.3790  221.7580 C   0  0  0  0  0  0  0  0  0  0  0  0
  141.4980   74.2220  221.0270 N   0  0  0  0  0  0  0  0  0  0  0  0
  142.2260   73.0780  221.1140 C   0  0  0  0  0  0  0  0  0  0  0  0
  143.4220   72.9060  220.3260 N   0  0  0  0  0  0  0  0  0  0  0  0
  143.6000   71.6680  219.5560 C   0  0  0  0  0  0  0  0  0  0  0  0
  144.9360   71.6730  218.8080 C   0  0  0  0  0  0  0  0  0  0  0  0
  146.0100   72.1310  219.6940 N   0  0  0  0  0  0  0  0  0  0  0  0
  145.8290   73.5300  220.1280 C   0  0  0  0  0  0  0  0  0  0  0  0
  144.3640   74.0180  220.1290 C   0  0  0  0  0  0  0  0  0  0  0  0
  141.8170   72.0950  221.9600 N   0  0  0  0  0  0  0  0  0  0  0  0
  140.6990   72.2470  222.7160 C   0  0  0  0  0  0  0  0  0  0  0  0
  140.2760   71.2050  223.6220 N   0  0  0  0  0  0  0  0  0  0  0  0
  139.0300   70.4660  223.3670 C   0  0  0  0  0  0  0  0  0  0  0  0
  139.1730   69.0100  223.7990 C   0  0  0  0  0  0  0  0  0  0  0  0
  139.6060   68.9380  225.2320 C   0  0  0  0  0  0  0  0  0  0  0  0
  139.1840   67.8730  226.0460 C   0  0  0  0  0  0  0  0  0  0  0  0
  139.6150   67.7870  227.3710 C   0  0  0  0  0  0  0  0  0  0  0  0
  140.4810   68.7530  227.8890 C   0  0  0  0  0  0  0  0  0  0  0  0
  140.9190   69.8060  227.0820 C   0  0  0  0  0  0  0  0  0  0  0  0
  140.4840   69.9100  225.7510 C   0  0  0  0  0  0  0  0  0  0  0  0
  141.0140   71.0300  224.8870 C   0  0  0  0  0  0  0  0  0  0  0  0
  139.9820   73.3980  222.6150 N   0  0  0  0  0  0  0  0  0  0  0  0
  139.3590   76.1720  220.2700 C   0  0  0  0  0  0  0  0  0  0  0  0
  139.2080   77.6860  220.3650 C   0  0  0  0  0  0  0  0  0  0  0  0
  139.8300   78.1050  221.6950 C   0  0  0  0  0  0  0  0  0  0  0  0
  140.3690   76.8370  222.3430 C   0  0  0  0  0  0  0  0  0  0  0  0
  138.4140   74.7110  222.9250 H   0  0  0  0  0  0  0  0  0  0  0  0
  143.5764   70.8101  220.2441 H   0  0  0  0  0  0  0  0  0  0  0  0
  142.7866   71.5942  218.8191 H   0  0  0  0  0  0  0  0  0  0  0  0
  145.1615   70.6541  218.4601 H   0  0  0  0  0  0  0  0  0  0  0  0
  144.8638   72.3557  217.9485 H   0  0  0  0  0  0  0  0  0  0  0  0
  146.0300   71.5120  220.5400 H   0  0  0  0  0  0  0  0  0  0  0  0
  146.2233   73.6259  221.1504 H   0  0  0  0  0  0  0  0  0  0  0  0
  146.3653   74.1547  219.3986 H   0  0  0  0  0  0  0  0  0  0  0  0
  144.2312   74.7465  220.9424 H   0  0  0  0  0  0  0  0  0  0  0  0
  144.1541   74.4770  219.1516 H   0  0  0  0  0  0  0  0  0  0  0  0
  138.2104   70.9325  223.9332 H   0  0  0  0  0  0  0  0  0  0  0  0
  138.8128   70.4970  222.2891 H   0  0  0  0  0  0  0  0  0  0  0  0
  138.2050   68.5001  223.6854 H   0  0  0  0  0  0  0  0  0  0  0  0
  139.9303   68.5203  223.1691 H   0  0  0  0  0  0  0  0  0  0  0  0
  138.5115   67.1043  225.6376 H   0  0  0  0  0  0  0  0  0  0  0  0
  139.2724   66.9579  228.0077 H   0  0  0  0  0  0  0  0  0  0  0  0
  140.8185   68.6845  228.9337 H   0  0  0  0  0  0  0  0  0  0  0  0
  141.6090   70.5583  227.4919 H   0  0  0  0  0  0  0  0  0  0  0  0
  140.9513   71.9681  225.4579 H   0  0  0  0  0  0  0  0  0  0  0  0
  142.0487   70.7679  224.6211 H   0  0  0  0  0  0  0  0  0  0  0  0
  140.2168   75.9120  219.6324 H   0  0  0  0  0  0  0  0  0  0  0  0
  138.4694   75.7039  219.8234 H   0  0  0  0  0  0  0  0  0  0  0  0
  139.7337   78.1728  219.5303 H   0  0  0  0  0  0  0  0  0  0  0  0
  138.1502   77.9828  220.3113 H   0  0  0  0  0  0  0  0  0  0  0  0
  140.6479   78.8201  221.5227 H   0  0  0  0  0  0  0  0  0  0  0  0
  139.0883   78.5962  222.3420 H   0  0  0  0  0  0  0  0  0  0  0  0
  141.4455   76.7318  222.1429 H   0  0  0  0  0  0  0  0  0  0  0  0
  140.2440   76.8549  223.4357 H   0  0  0  0  0  0  0  0  0  0  0  0
  1  2  1  0
  2  3  1  0
  3  4  2  0
  4  5  1  0
  5  6  1  0
  6  7  1  0
  7  8  1  0
  8  9  1  0
  9 10  1  0
 10 11  1  0
  5 12  2  0
 12 13  1  0
 13 14  1  0
 14 15  1  0
 15 16  1  0
 16 17  1  0
 17 18  2  0
 18 19  1  0
 19 20  2  0
 20 21  1  0
 21 22  2  0
 22 23  1  0
 13 24  2  0
  2 25  1  0
 25 26  1  0
 26 27  1  0
 27 28  1  0
 28  2  1  0
 24  3  1  0
 11  6  1  0
 23 14  1  0
 22 17  1  0
  1 29  1  0
  7 30  1  0
  7 31  1  0
  8 32  1  0
  8 33  1  0
  9 34  1  0
 10 35  1  0
 10 36  1  0
 11 37  1  0
 11 38  1  0
 15 39  1  0
 15 40  1  0
 16 41  1  0
 16 42  1  0
 18 43  1  0
 19 44  1  0
 20 45  1  0
 21 46  1  0
 23 47  1  0
 23 48  1  0
 25 49  1  0
 25 50  1  0
 26 51  1  0
 26 52  1  0
 27 53  1  0
 27 54  1  0
 28 55  1  0
 28 56  1  0
M  END
>  <UniqueID>  (65) 
513

>  <SMILES>  (65) 
OC1(c2nc(N3CCNCC3)nc(N3CCc4ccccc4C3)n2)CCCC1

>  <Energy>  (65) 
68.54441614610559

>  <Genealogy>  (65) 
OC1(c2nc(N3CCNCC3)nc(N3CCc4ccccc4C3)n2)CCCC1 (3D coordinates assigned)
OC1(c2nc(N3CCNCC3)nc(N3CCc4ccccc4C3)n2)CCCC1 (nonaromatic ring conformer: 68.54441614610559 kcal/mol)

>  <smiles>  (65) 
OC1(c2nc(N3CCNCC3)nc(N3CCc4ccccc4C3)n2)CCCC1

>  <score_type>  (65) 
oracle

>  <origin>  (65) 
autodockgpu

>  <m_score__min__energy>  (65) 
-8.8599999999999994

>  <m_primary>  (65) 
energy

>  <meeko>  (65) 
{"free_energy": -8.86, "intermolecular_energy": -10.05, "internal_energy": -1.51, "cluster_size": 20, "cluster_id": 1, "rank_in_cluster": 3}

>  <energy>  (65) 
-8.86

>  <cluster_rmsd>  (65) 
0.05

>  <rmsd>  (65) 
271.1

>  <cluster>  (65) 
1

$$$$
AUISRQYXECVJTM-UHFFFAOYNA-N
     RDKit          3D

 56 60  0  0  0  0  0  0  0  0999 V2000
  138.3260   75.5600  222.3630 O   0  0  0  0  0  0  0  0  0  0  0  0
  139.5520   75.7230  221.6920 C   0  0  0  0  0  0  0  0  0  0  0  0
  140.3410   74.4290  221.7420 C   0  0  0  0  0  0  0  0  0  0  0  0
  141.4840   74.2930  221.0210 N   0  0  0  0  0  0  0  0  0  0  0  0
  142.2270   73.1590  221.1070 C   0  0  0  0  0  0  0  0  0  0  0  0
  143.4330   73.0090  220.3290 N   0  0  0  0  0  0  0  0  0  0  0  0
  143.5830   71.8330  219.4610 C   0  0  0  0  0  0  0  0  0  0  0  0
  144.9330   71.8510  218.7400 C   0  0  0  0  0  0  0  0  0  0  0  0
  146.0040   72.1940  219.6810 N   0  0  0  0  0  0  0  0  0  0  0  0
  145.8640   73.5580  220.2280 C   0  0  0  0  0  0  0  0  0  0  0  0
  144.4170   74.0980  220.2430 C   0  0  0  0  0  0  0  0  0  0  0  0
  141.8240   72.1640  221.9420 N   0  0  0  0  0  0  0  0  0  0  0  0
  140.6970   72.2950  222.6890 C   0  0  0  0  0  0  0  0  0  0  0  0
  140.2800   71.2410  223.5840 N   0  0  0  0  0  0  0  0  0  0  0  0
  139.0360   70.5000  223.3230 C   0  0  0  0  0  0  0  0  0  0  0  0
  139.1860   69.0400  223.7380 C   0  0  0  0  0  0  0  0  0  0  0  0
  139.6230   68.9530  225.1690 C   0  0  0  0  0  0  0  0  0  0  0  0
  139.2080   67.8770  225.9710 C   0  0  0  0  0  0  0  0  0  0  0  0
  139.6420   67.7770  227.2940 C   0  0  0  0  0  0  0  0  0  0  0  0
  140.5060   68.7400  227.8220 C   0  0  0  0  0  0  0  0  0  0  0  0
  140.9380   69.8040  227.0260 C   0  0  0  0  0  0  0  0  0  0  0  0
  140.4990   69.9220  225.6970 C   0  0  0  0  0  0  0  0  0  0  0  0
  141.0220   71.0540  224.8450 C   0  0  0  0  0  0  0  0  0  0  0  0
  139.9650   73.4360  222.5890 N   0  0  0  0  0  0  0  0  0  0  0  0
  139.3140   76.2110  220.2570 C   0  0  0  0  0  0  0  0  0  0  0  0
  139.1420   77.7230  220.3550 C   0  0  0  0  0  0  0  0  0  0  0  0
  139.7560   78.1480  221.6870 C   0  0  0  0  0  0  0  0  0  0  0  0
  140.3120   76.8850  222.3330 C   0  0  0  0  0  0  0  0  0  0  0  0
  138.3930   74.7440  222.9250 H   0  0  0  0  0  0  0  0  0  0  0  0
  143.5150   70.9224  220.0743 H   0  0  0  0  0  0  0  0  0  0  0  0
  142.7828   71.8505  218.7064 H   0  0  0  0  0  0  0  0  0  0  0  0
  145.1298   70.8570  218.3119 H   0  0  0  0  0  0  0  0  0  0  0  0
  144.9029   72.6049  217.9395 H   0  0  0  0  0  0  0  0  0  0  0  0
  145.9850   71.5070  220.4730 H   0  0  0  0  0  0  0  0  0  0  0  0
  146.2395   73.5535  221.2619 H   0  0  0  0  0  0  0  0  0  0  0  0
  146.4380   74.2212  219.5641 H   0  0  0  0  0  0  0  0  0  0  0  0
  144.2925   74.7609  221.1120 H   0  0  0  0  0  0  0  0  0  0  0  0
  144.2442   74.6441  219.3039 H   0  0  0  0  0  0  0  0  0  0  0  0
  138.2157   70.9567  223.8962 H   0  0  0  0  0  0  0  0  0  0  0  0
  138.8161   70.5426  222.2460 H   0  0  0  0  0  0  0  0  0  0  0  0
  138.2198   68.5275  223.6210 H   0  0  0  0  0  0  0  0  0  0  0  0
  139.9438   68.5608  223.1007 H   0  0  0  0  0  0  0  0  0  0  0  0
  138.5383   67.1100  225.5548 H   0  0  0  0  0  0  0  0  0  0  0  0
  139.3035   66.9393  227.9215 H   0  0  0  0  0  0  0  0  0  0  0  0
  140.8463   68.6604  228.8650 H   0  0  0  0  0  0  0  0  0  0  0  0
  141.6263   70.5540  227.4428 H   0  0  0  0  0  0  0  0  0  0  0  0
  140.9570   71.9851  225.4271 H   0  0  0  0  0  0  0  0  0  0  0  0
  142.0570   70.7992  224.5733 H   0  0  0  0  0  0  0  0  0  0  0  0
  140.1765   75.9641  219.6205 H   0  0  0  0  0  0  0  0  0  0  0  0
  138.4318   75.7316  219.8077 H   0  0  0  0  0  0  0  0  0  0  0  0
  139.6623   78.2187  219.5222 H   0  0  0  0  0  0  0  0  0  0  0  0
  138.0802   78.0052  220.3003 H   0  0  0  0  0  0  0  0  0  0  0  0
  140.5640   78.8749  221.5177 H   0  0  0  0  0  0  0  0  0  0  0  0
  139.0068   78.6276  222.3340 H   0  0  0  0  0  0  0  0  0  0  0  0
  141.3900   76.7948  222.1333 H   0  0  0  0  0  0  0  0  0  0  0  0
  140.1860   76.8988  223.4257 H   0  0  0  0  0  0  0  0  0  0  0  0
  1  2  1  0
  2  3  1  0
  3  4  2  0
  4  5  1  0
  5  6  1  0
  6  7  1  0
  7  8  1  0
  8  9  1  0
  9 10  1  0
 10 11  1  0
  5 12  2  0
 12 13  1  0
 13 14  1  0
 14 15  1  0
 15 16  1  0
 16 17  1  0
 17 18  2  0
 18 19  1  0
 19 20  2  0
 20 21  1  0
 21 22  2  0
 22 23  1  0
 13 24  2  0
  2 25  1  0
 25 26  1  0
 26 27  1  0
 27 28  1  0
 28  2  1  0
 24  3  1  0
 11  6  1  0
 23 14  1  0
 22 17  1  0
  1 29  1  0
  7 30  1  0
  7 31  1  0
  8 32  1  0
  8 33  1  0
  9 34  1  0
 10 35  1  0
 10 36  1  0
 11 37  1  0
 11 38  1  0
 15 39  1  0
 15 40  1  0
 16 41  1  0
 16 42  1  0
 18 43  1  0
 19 44  1  0
 20 45  1  0
 21 46  1  0
 23 47  1  0
 23 48  1  0
 25 49  1  0
 25 50  1  0
 26 51  1  0
 26 52  1  0
 27 53  1  0
 27 54  1  0
 28 55  1  0
 28 56  1  0
M  END
>  <UniqueID>  (66) 
513

>  <SMILES>  (66) 
OC1(c2nc(N3CCNCC3)nc(N3CCc4ccccc4C3)n2)CCCC1

>  <Energy>  (66) 
68.54441614610559

>  <Genealogy>  (66) 
OC1(c2nc(N3CCNCC3)nc(N3CCc4ccccc4C3)n2)CCCC1 (3D coordinates assigned)
OC1(c2nc(N3CCNCC3)nc(N3CCc4ccccc4C3)n2)CCCC1 (nonaromatic ring conformer: 68.54441614610559 kcal/mol)

>  <smiles>  (66) 
OC1(c2nc(N3CCNCC3)nc(N3CCc4ccccc4C3)n2)CCCC1

>  <score_type>  (66) 
oracle

>  <origin>  (66) 
autodockgpu

>  <m_score__min__energy>  (66) 
-8.8599999999999994

>  <m_primary>  (66) 
energy

>  <meeko>  (66) 
{"free_energy": -8.85, "intermolecular_energy": -10.05, "internal_energy": -1.5, "cluster_size": 20, "cluster_id": 1, "rank_in_cluster": 13}

>  <energy>  (66) 
-8.86

>  <cluster_rmsd>  (66) 
0.04

>  <rmsd>  (66) 
271.1

>  <cluster>  (66) 
1

$$$$
AUISRQYXECVJTM-UHFFFAOYNA-N
     RDKit          3D

 56 60  0  0  0  0  0  0  0  0999 V2000
  138.3400   75.5390  222.3550 O   0  0  0  0  0  0  0  0  0  0  0  0
  139.5670   75.6920  221.6840 C   0  0  0  0  0  0  0  0  0  0  0  0
  140.3490   74.3940  221.7410 C   0  0  0  0  0  0  0  0  0  0  0  0
  141.4880   74.2460  221.0150 N   0  0  0  0  0  0  0  0  0  0  0  0
  142.2250   73.1090  221.1060 C   0  0  0  0  0  0  0  0  0  0  0  0
  143.4250   72.9460  220.3220 N   0  0  0  0  0  0  0  0  0  0  0  0
  143.5840   71.7400  219.4980 C   0  0  0  0  0  0  0  0  0  0  0  0
  144.9270   71.7480  218.7640 C   0  0  0  0  0  0  0  0  0  0  0  0
  146.0020   72.1420  219.6800 N   0  0  0  0  0  0  0  0  0  0  0  0
  145.8480   73.5240  220.1750 C   0  0  0  0  0  0  0  0  0  0  0  0
  144.3930   74.0440  220.1840 C   0  0  0  0  0  0  0  0  0  0  0  0
  141.8220   72.1230  221.9520 N   0  0  0  0  0  0  0  0  0  0  0  0
  140.7000   72.2670  222.7040 C   0  0  0  0  0  0  0  0  0  0  0  0
  140.2830   71.2230  223.6100 N   0  0  0  0  0  0  0  0  0  0  0  0
  139.0420   70.4740  223.3540 C   0  0  0  0  0  0  0  0  0  0  0  0
  139.1960   69.0200  223.7880 C   0  0  0  0  0  0  0  0  0  0  0  0
  139.6270   68.9530  225.2220 C   0  0  0  0  0  0  0  0  0  0  0  0
  139.2120   67.8860  226.0360 C   0  0  0  0  0  0  0  0  0  0  0  0
  139.6410   67.8040  227.3620 C   0  0  0  0  0  0  0  0  0  0  0  0
  140.4990   68.7760  227.8800 C   0  0  0  0  0  0  0  0  0  0  0  0
  140.9310   69.8320  227.0730 C   0  0  0  0  0  0  0  0  0  0  0  0
  140.4970   69.9310  225.7410 C   0  0  0  0  0  0  0  0  0  0  0  0
  141.0200   71.0540  224.8770 C   0  0  0  0  0  0  0  0  0  0  0  0
  139.9730   73.4110  222.5980 N   0  0  0  0  0  0  0  0  0  0  0  0
  139.3320   76.1750  220.2470 C   0  0  0  0  0  0  0  0  0  0  0  0
  139.1680   77.6880  220.3380 C   0  0  0  0  0  0  0  0  0  0  0  0
  139.7830   78.1160  221.6680 C   0  0  0  0  0  0  0  0  0  0  0  0
  140.3320   76.8540  222.3200 C   0  0  0  0  0  0  0  0  0  0  0  0
  138.4370   74.7880  222.9990 H   0  0  0  0  0  0  0  0  0  0  0  0
  143.5340   70.8527  220.1462 H   0  0  0  0  0  0  0  0  0  0  0  0
  142.7772   71.7184  218.7506 H   0  0  0  0  0  0  0  0  0  0  0  0
  145.1335   70.7407  218.3732 H   0  0  0  0  0  0  0  0  0  0  0  0
  144.8789   72.4697  217.9352 H   0  0  0  0  0  0  0  0  0  0  0  0
  146.0000   71.4860  220.4970 H   0  0  0  0  0  0  0  0  0  0  0  0
  146.2337   73.5650  221.2043 H   0  0  0  0  0  0  0  0  0  0  0  0
  146.4059   74.1688  219.4800 H   0  0  0  0  0  0  0  0  0  0  0  0
  144.2676   74.7382  221.0280 H   0  0  0  0  0  0  0  0  0  0  0  0
  144.2035   74.5505  219.2261 H   0  0  0  0  0  0  0  0  0  0  0  0
  138.2181   70.9349  223.9186 H   0  0  0  0  0  0  0  0  0  0  0  0
  138.8256   70.5023  222.2759 H   0  0  0  0  0  0  0  0  0  0  0  0
  138.2323   68.5021  223.6732 H   0  0  0  0  0  0  0  0  0  0  0  0
  139.9584   68.5358  223.1601 H   0  0  0  0  0  0  0  0  0  0  0  0
  138.5462   67.1118  225.6269 H   0  0  0  0  0  0  0  0  0  0  0  0
  139.3029   66.9733  227.9989 H   0  0  0  0  0  0  0  0  0  0  0  0
  140.8355   68.7105  228.9252 H   0  0  0  0  0  0  0  0  0  0  0  0
  141.6147   70.5898  227.4833 H   0  0  0  0  0  0  0  0  0  0  0  0
  140.9494   71.9921  225.4471 H   0  0  0  0  0  0  0  0  0  0  0  0
  142.0570   70.7990  224.6130 H   0  0  0  0  0  0  0  0  0  0  0  0
  140.1934   75.9207  219.6119 H   0  0  0  0  0  0  0  0  0  0  0  0
  138.4473   75.6984  219.7996 H   0  0  0  0  0  0  0  0  0  0  0  0
  139.6915   78.1771  219.5033 H   0  0  0  0  0  0  0  0  0  0  0  0
  138.1077   77.9755  220.2813 H   0  0  0  0  0  0  0  0  0  0  0  0
  140.5947   78.8381  221.4958 H   0  0  0  0  0  0  0  0  0  0  0  0
  139.0357   78.6023  222.3122 H   0  0  0  0  0  0  0  0  0  0  0  0
  141.4097   76.7577  222.1217 H   0  0  0  0  0  0  0  0  0  0  0  0
  140.2049   76.8737  223.4125 H   0  0  0  0  0  0  0  0  0  0  0  0
  1  2  1  0
  2  3  1  0
  3  4  2  0
  4  5  1  0
  5  6  1  0
  6  7  1  0
  7  8  1  0
  8  9  1  0
  9 10  1  0
 10 11  1  0
  5 12  2  0
 12 13  1  0
 13 14  1  0
 14 15  1  0
 15 16  1  0
 16 17  1  0
 17 18  2  0
 18 19  1  0
 19 20  2  0
 20 21  1  0
 21 22  2  0
 22 23  1  0
 13 24  2  0
  2 25  1  0
 25 26  1  0
 26 27  1  0
 27 28  1  0
 28  2  1  0
 24  3  1  0
 11  6  1  0
 23 14  1  0
 22 17  1  0
  1 29  1  0
  7 30  1  0
  7 31  1  0
  8 32  1  0
  8 33  1  0
  9 34  1  0
 10 35  1  0
 10 36  1  0
 11 37  1  0
 11 38  1  0
 15 39  1  0
 15 40  1  0
 16 41  1  0
 16 42  1  0
 18 43  1  0
 19 44  1  0
 20 45  1  0
 21 46  1  0
 23 47  1  0
 23 48  1  0
 25 49  1  0
 25 50  1  0
 26 51  1  0
 26 52  1  0
 27 53  1  0
 27 54  1  0
 28 55  1  0
 28 56  1  0
M  END
>  <UniqueID>  (67) 
513

>  <SMILES>  (67) 
OC1(c2nc(N3CCNCC3)nc(N3CCc4ccccc4C3)n2)CCCC1

>  <Energy>  (67) 
68.54441614610559

>  <Genealogy>  (67) 
OC1(c2nc(N3CCNCC3)nc(N3CCc4ccccc4C3)n2)CCCC1 (3D coordinates assigned)
OC1(c2nc(N3CCNCC3)nc(N3CCc4ccccc4C3)n2)CCCC1 (nonaromatic ring conformer: 68.54441614610559 kcal/mol)

>  <smiles>  (67) 
OC1(c2nc(N3CCNCC3)nc(N3CCc4ccccc4C3)n2)CCCC1

>  <score_type>  (67) 
oracle

>  <origin>  (67) 
autodockgpu

>  <m_score__min__energy>  (67) 
-8.8599999999999994

>  <m_primary>  (67) 
energy

>  <meeko>  (67) 
{"free_energy": -8.85, "intermolecular_energy": -10.05, "internal_energy": -1.5, "cluster_size": 20, "cluster_id": 1, "rank_in_cluster": 11}

>  <energy>  (67) 
-8.86

>  <cluster_rmsd>  (67) 
0.02

>  <rmsd>  (67) 
271.08

>  <cluster>  (67) 
1

$$$$
AUISRQYXECVJTM-UHFFFAOYNA-N
     RDKit          3D

 56 60  0  0  0  0  0  0  0  0999 V2000
  138.3120   75.5410  222.3780 O   0  0  0  0  0  0  0  0  0  0  0  0
  139.5320   75.7050  221.6940 C   0  0  0  0  0  0  0  0  0  0  0  0
  140.3290   74.4170  221.7510 C   0  0  0  0  0  0  0  0  0  0  0  0
  141.4750   74.2860  221.0340 N   0  0  0  0  0  0  0  0  0  0  0  0
  142.2260   73.1580  221.1250 C   0  0  0  0  0  0  0  0  0  0  0  0
  143.4350   73.0140  220.3510 N   0  0  0  0  0  0  0  0  0  0  0  0
  143.5900   71.8450  219.4750 C   0  0  0  0  0  0  0  0  0  0  0  0
  144.9430   71.8690  218.7600 C   0  0  0  0  0  0  0  0  0  0  0  0
  146.0100   72.2050  219.7080 N   0  0  0  0  0  0  0  0  0  0  0  0
  145.8670   73.5650  220.2650 C   0  0  0  0  0  0  0  0  0  0  0  0
  144.4190   74.1040  220.2780 C   0  0  0  0  0  0  0  0  0  0  0  0
  141.8280   72.1630  221.9620 N   0  0  0  0  0  0  0  0  0  0  0  0
  140.6970   72.2880  222.7050 C   0  0  0  0  0  0  0  0  0  0  0  0
  140.2850   71.2340  223.6010 N   0  0  0  0  0  0  0  0  0  0  0  0
  139.0430   70.4880  223.3430 C   0  0  0  0  0  0  0  0  0  0  0  0
  139.1980   69.0290  223.7590 C   0  0  0  0  0  0  0  0  0  0  0  0
  139.6370   68.9450  225.1900 C   0  0  0  0  0  0  0  0  0  0  0  0
  139.2270   67.8690  225.9930 C   0  0  0  0  0  0  0  0  0  0  0  0
  139.6630   67.7710  227.3160 C   0  0  0  0  0  0  0  0  0  0  0  0
  140.5250   68.7370  227.8410 C   0  0  0  0  0  0  0  0  0  0  0  0
  140.9520   69.8020  227.0440 C   0  0  0  0  0  0  0  0  0  0  0  0
  140.5110   69.9170  225.7160 C   0  0  0  0  0  0  0  0  0  0  0  0
  141.0300   71.0500  224.8610 C   0  0  0  0  0  0  0  0  0  0  0  0
  139.9580   73.4230  222.5990 N   0  0  0  0  0  0  0  0  0  0  0  0
  139.2770   76.1770  220.2570 C   0  0  0  0  0  0  0  0  0  0  0  0
  139.0960   77.6880  220.3410 C   0  0  0  0  0  0  0  0  0  0  0  0
  139.7190   78.1310  221.6630 C   0  0  0  0  0  0  0  0  0  0  0  0
  140.2890   76.8790  222.3170 C   0  0  0  0  0  0  0  0  0  0  0  0
  138.3980   74.7460  222.9680 H   0  0  0  0  0  0  0  0  0  0  0  0
  143.5200   70.9298  220.0812 H   0  0  0  0  0  0  0  0  0  0  0  0
  142.7933   71.8679  218.7169 H   0  0  0  0  0  0  0  0  0  0  0  0
  145.1419   70.8784  218.3250 H   0  0  0  0  0  0  0  0  0  0  0  0
  144.9159   72.6291  217.9653 H   0  0  0  0  0  0  0  0  0  0  0  0
  145.9870   71.5120  220.4950 H   0  0  0  0  0  0  0  0  0  0  0  0
  146.2382   73.5528  221.3004 H   0  0  0  0  0  0  0  0  0  0  0  0
  146.4434   74.2336  219.6088 H   0  0  0  0  0  0  0  0  0  0  0  0
  144.2903   74.7598  221.1517 H   0  0  0  0  0  0  0  0  0  0  0  0
  144.2500   74.6572  219.3424 H   0  0  0  0  0  0  0  0  0  0  0  0
  138.2222   70.9425  223.9171 H   0  0  0  0  0  0  0  0  0  0  0  0
  138.8217   70.5286  222.2663 H   0  0  0  0  0  0  0  0  0  0  0  0
  138.2332   68.5133  223.6436 H   0  0  0  0  0  0  0  0  0  0  0  0
  139.9564   68.5515  223.1212 H   0  0  0  0  0  0  0  0  0  0  0  0
  138.5593   67.0996  225.5782 H   0  0  0  0  0  0  0  0  0  0  0  0
  139.3277   66.9331  227.9449 H   0  0  0  0  0  0  0  0  0  0  0  0
  140.8679   68.6589  228.8833 H   0  0  0  0  0  0  0  0  0  0  0  0
  141.6379   70.5550  227.4594 H   0  0  0  0  0  0  0  0  0  0  0  0
  140.9640   71.9816  225.4422 H   0  0  0  0  0  0  0  0  0  0  0  0
  142.0650   70.7971  224.5875 H   0  0  0  0  0  0  0  0  0  0  0  0
  140.1350   75.9293  219.6147 H   0  0  0  0  0  0  0  0  0  0  0  0
  138.3935   75.6875  219.8213 H   0  0  0  0  0  0  0  0  0  0  0  0
  139.6055   78.1784  219.4985 H   0  0  0  0  0  0  0  0  0  0  0  0
  138.0319   77.9626  220.2930 H   0  0  0  0  0  0  0  0  0  0  0  0
  140.5206   78.8614  221.4788 H   0  0  0  0  0  0  0  0  0  0  0  0
  138.9723   78.6123  222.3117 H   0  0  0  0  0  0  0  0  0  0  0  0
  141.3659   76.7943  222.1095 H   0  0  0  0  0  0  0  0  0  0  0  0
  140.1718   76.9031  223.4105 H   0  0  0  0  0  0  0  0  0  0  0  0
  1  2  1  0
  2  3  1  0
  3  4  2  0
  4  5  1  0
  5  6  1  0
  6  7  1  0
  7  8  1  0
  8  9  1  0
  9 10  1  0
 10 11  1  0
  5 12  2  0
 12 13  1  0
 13 14  1  0
 14 15  1  0
 15 16  1  0
 16 17  1  0
 17 18  2  0
 18 19  1  0
 19 20  2  0
 20 21  1  0
 21 22  2  0
 22 23  1  0
 13 24  2  0
  2 25  1  0
 25 26  1  0
 26 27  1  0
 27 28  1  0
 28  2  1  0
 24  3  1  0
 11  6  1  0
 23 14  1  0
 22 17  1  0
  1 29  1  0
  7 30  1  0
  7 31  1  0
  8 32  1  0
  8 33  1  0
  9 34  1  0
 10 35  1  0
 10 36  1  0
 11 37  1  0
 11 38  1  0
 15 39  1  0
 15 40  1  0
 16 41  1  0
 16 42  1  0
 18 43  1  0
 19 44  1  0
 20 45  1  0
 21 46  1  0
 23 47  1  0
 23 48  1  0
 25 49  1  0
 25 50  1  0
 26 51  1  0
 26 52  1  0
 27 53  1  0
 27 54  1  0
 28 55  1  0
 28 56  1  0
M  END
>  <UniqueID>  (68) 
513

>  <SMILES>  (68) 
OC1(c2nc(N3CCNCC3)nc(N3CCc4ccccc4C3)n2)CCCC1

>  <Energy>  (68) 
68.54441614610559

>  <Genealogy>  (68) 
OC1(c2nc(N3CCNCC3)nc(N3CCc4ccccc4C3)n2)CCCC1 (3D coordinates assigned)
OC1(c2nc(N3CCNCC3)nc(N3CCc4ccccc4C3)n2)CCCC1 (nonaromatic ring conformer: 68.54441614610559 kcal/mol)

>  <smiles>  (68) 
OC1(c2nc(N3CCNCC3)nc(N3CCc4ccccc4C3)n2)CCCC1

>  <score_type>  (68) 
oracle

>  <origin>  (68) 
autodockgpu

>  <m_score__min__energy>  (68) 
-8.8599999999999994

>  <m_primary>  (68) 
energy

>  <meeko>  (68) 
{"free_energy": -8.85, "intermolecular_energy": -10.04, "internal_energy": -1.5, "cluster_size": 20, "cluster_id": 1, "rank_in_cluster": 15}

>  <energy>  (68) 
-8.86

>  <cluster_rmsd>  (68) 
0.02

>  <rmsd>  (68) 
271.08

>  <cluster>  (68) 
1

$$$$
AUISRQYXECVJTM-UHFFFAOYNA-N
     RDKit          3D

 56 60  0  0  0  0  0  0  0  0999 V2000
  138.2890   75.5170  222.3300 O   0  0  0  0  0  0  0  0  0  0  0  0
  139.5250   75.6850  221.6780 C   0  0  0  0  0  0  0  0  0  0  0  0
  140.3160   74.3930  221.7370 C   0  0  0  0  0  0  0  0  0  0  0  0
  141.4570   74.2530  221.0140 N   0  0  0  0  0  0  0  0  0  0  0  0
  142.2020   73.1210  221.1070 C   0  0  0  0  0  0  0  0  0  0  0  0
  143.4060   72.9670  220.3260 N   0  0  0  0  0  0  0  0  0  0  0  0
  143.5670   71.7710  219.4870 C   0  0  0  0  0  0  0  0  0  0  0  0
  144.9130   71.7880  218.7590 C   0  0  0  0  0  0  0  0  0  0  0  0
  145.9850   72.1680  219.6850 N   0  0  0  0  0  0  0  0  0  0  0  0
  145.8290   73.5440  220.1980 C   0  0  0  0  0  0  0  0  0  0  0  0
  144.3760   74.0650  220.2070 C   0  0  0  0  0  0  0  0  0  0  0  0
  141.8040   72.1320  221.9510 N   0  0  0  0  0  0  0  0  0  0  0  0
  140.6790   72.2680  222.7010 C   0  0  0  0  0  0  0  0  0  0  0  0
  140.2670   71.2210  223.6050 N   0  0  0  0  0  0  0  0  0  0  0  0
  139.0190   70.4800  223.3590 C   0  0  0  0  0  0  0  0  0  0  0  0
  139.1700   69.0230  223.7830 C   0  0  0  0  0  0  0  0  0  0  0  0
  139.6170   68.9440  225.2110 C   0  0  0  0  0  0  0  0  0  0  0  0
  139.2060   67.8750  226.0230 C   0  0  0  0  0  0  0  0  0  0  0  0
  139.6500   67.7830  227.3440 C   0  0  0  0  0  0  0  0  0  0  0  0
  140.5200   68.7470  227.8580 C   0  0  0  0  0  0  0  0  0  0  0  0
  140.9480   69.8050  227.0520 C   0  0  0  0  0  0  0  0  0  0  0  0
  140.4990   69.9150  225.7260 C   0  0  0  0  0  0  0  0  0  0  0  0
  141.0180   71.0410  224.8620 C   0  0  0  0  0  0  0  0  0  0  0  0
  139.9450   73.4070  222.5930 N   0  0  0  0  0  0  0  0  0  0  0  0
  139.3070   76.1760  220.2420 C   0  0  0  0  0  0  0  0  0  0  0  0
  139.1300   77.6880  220.3410 C   0  0  0  0  0  0  0  0  0  0  0  0
  139.7220   78.1100  221.6830 C   0  0  0  0  0  0  0  0  0  0  0  0
  140.2710   76.8470  222.3340 C   0  0  0  0  0  0  0  0  0  0  0  0
  138.3620   74.7220  222.9220 H   0  0  0  0  0  0  0  0  0  0  0  0
  143.5137   70.8754  220.1235 H   0  0  0  0  0  0  0  0  0  0  0  0
  142.7630   71.7591  218.7363 H   0  0  0  0  0  0  0  0  0  0  0  0
  145.1202   70.7861  218.3548 H   0  0  0  0  0  0  0  0  0  0  0  0
  144.8690   72.5215  217.9404 H   0  0  0  0  0  0  0  0  0  0  0  0
  145.9780   71.5020  220.4940 H   0  0  0  0  0  0  0  0  0  0  0  0
  146.2096   73.5708  221.2297 H   0  0  0  0  0  0  0  0  0  0  0  0
  146.3905   74.1975  219.5141 H   0  0  0  0  0  0  0  0  0  0  0  0
  144.2475   74.7483  221.0594 H   0  0  0  0  0  0  0  0  0  0  0  0
  144.1917   74.5840  219.2548 H   0  0  0  0  0  0  0  0  0  0  0  0
  138.2041   70.9421  223.9355 H   0  0  0  0  0  0  0  0  0  0  0  0
  138.7905   70.5155  222.2836 H   0  0  0  0  0  0  0  0  0  0  0  0
  138.2022   68.5112  223.6763 H   0  0  0  0  0  0  0  0  0  0  0  0
  139.9229   68.5390  223.1436 H   0  0  0  0  0  0  0  0  0  0  0  0
  138.5315   67.1067  225.6171 H   0  0  0  0  0  0  0  0  0  0  0  0
  139.3142   66.9507  227.9800 H   0  0  0  0  0  0  0  0  0  0  0  0
  140.8687   68.6733  228.8987 H   0  0  0  0  0  0  0  0  0  0  0  0
  141.6409   70.5564  227.4586 H   0  0  0  0  0  0  0  0  0  0  0  0
  140.9589   71.9761  225.4383 H   0  0  0  0  0  0  0  0  0  0  0  0
  142.0505   70.7824  224.5844 H   0  0  0  0  0  0  0  0  0  0  0  0
  140.1793   75.9327  219.6176 H   0  0  0  0  0  0  0  0  0  0  0  0
  138.4324   75.6959  219.7788 H   0  0  0  0  0  0  0  0  0  0  0  0
  139.6622   78.1870  219.5178 H   0  0  0  0  0  0  0  0  0  0  0  0
  138.0687   77.9684  220.2701 H   0  0  0  0  0  0  0  0  0  0  0  0
  140.5307   78.8394  221.5283 H   0  0  0  0  0  0  0  0  0  0  0  0
  138.9614   78.5856  222.3197 H   0  0  0  0  0  0  0  0  0  0  0  0
  141.3523   76.7604  222.1514 H   0  0  0  0  0  0  0  0  0  0  0  0
  140.1275   76.8573  223.4245 H   0  0  0  0  0  0  0  0  0  0  0  0
  1  2  1  0
  2  3  1  0
  3  4  2  0
  4  5  1  0
  5  6  1  0
  6  7  1  0
  7  8  1  0
  8  9  1  0
  9 10  1  0
 10 11  1  0
  5 12  2  0
 12 13  1  0
 13 14  1  0
 14 15  1  0
 15 16  1  0
 16 17  1  0
 17 18  2  0
 18 19  1  0
 19 20  2  0
 20 21  1  0
 21 22  2  0
 22 23  1  0
 13 24  2  0
  2 25  1  0
 25 26  1  0
 26 27  1  0
 27 28  1  0
 28  2  1  0
 24  3  1  0
 11  6  1  0
 23 14  1  0
 22 17  1  0
  1 29  1  0
  7 30  1  0
  7 31  1  0
  8 32  1  0
  8 33  1  0
  9 34  1  0
 10 35  1  0
 10 36  1  0
 11 37  1  0
 11 38  1  0
 15 39  1  0
 15 40  1  0
 16 41  1  0
 16 42  1  0
 18 43  1  0
 19 44  1  0
 20 45  1  0
 21 46  1  0
 23 47  1  0
 23 48  1  0
 25 49  1  0
 25 50  1  0
 26 51  1  0
 26 52  1  0
 27 53  1  0
 27 54  1  0
 28 55  1  0
 28 56  1  0
M  END
>  <UniqueID>  (69) 
513

>  <SMILES>  (69) 
OC1(c2nc(N3CCNCC3)nc(N3CCc4ccccc4C3)n2)CCCC1

>  <Energy>  (69) 
68.54441614610559

>  <Genealogy>  (69) 
OC1(c2nc(N3CCNCC3)nc(N3CCc4ccccc4C3)n2)CCCC1 (3D coordinates assigned)
OC1(c2nc(N3CCNCC3)nc(N3CCc4ccccc4C3)n2)CCCC1 (nonaromatic ring conformer: 68.54441614610559 kcal/mol)

>  <smiles>  (69) 
OC1(c2nc(N3CCNCC3)nc(N3CCc4ccccc4C3)n2)CCCC1

>  <score_type>  (69) 
oracle

>  <origin>  (69) 
autodockgpu

>  <m_score__min__energy>  (69) 
-8.8599999999999994

>  <m_primary>  (69) 
energy

>  <meeko>  (69) 
{"free_energy": -8.85, "intermolecular_energy": -10.05, "internal_energy": -1.5, "cluster_size": 20, "cluster_id": 1, "rank_in_cluster": 10}

>  <energy>  (69) 
-8.85

>  <cluster_rmsd>  (69) 
0.03

>  <rmsd>  (69) 
271.09

>  <cluster>  (69) 
1

$$$$
AUISRQYXECVJTM-UHFFFAOYNA-N
     RDKit          3D

 56 60  0  0  0  0  0  0  0  0999 V2000
  138.2980   75.5160  222.3560 O   0  0  0  0  0  0  0  0  0  0  0  0
  139.5300   75.6760  221.6930 C   0  0  0  0  0  0  0  0  0  0  0  0
  140.3170   74.3820  221.7540 C   0  0  0  0  0  0  0  0  0  0  0  0
  141.4590   74.2380  221.0320 N   0  0  0  0  0  0  0  0  0  0  0  0
  142.2010   73.1040  221.1270 C   0  0  0  0  0  0  0  0  0  0  0  0
  143.4050   72.9460  220.3470 N   0  0  0  0  0  0  0  0  0  0  0  0
  143.5730   71.7380  219.5270 C   0  0  0  0  0  0  0  0  0  0  0  0
  144.9190   71.7520  218.7970 C   0  0  0  0  0  0  0  0  0  0  0  0
  145.9880   72.1550  219.7160 N   0  0  0  0  0  0  0  0  0  0  0  0
  145.8240   73.5370  220.2060 C   0  0  0  0  0  0  0  0  0  0  0  0
  144.3670   74.0490  220.2090 C   0  0  0  0  0  0  0  0  0  0  0  0
  141.7990   72.1170  221.9720 N   0  0  0  0  0  0  0  0  0  0  0  0
  140.6740   72.2560  222.7200 C   0  0  0  0  0  0  0  0  0  0  0  0
  140.2580   71.2110  223.6250 N   0  0  0  0  0  0  0  0  0  0  0  0
  139.0070   70.4760  223.3800 C   0  0  0  0  0  0  0  0  0  0  0  0
  139.1510   69.0180  223.8040 C   0  0  0  0  0  0  0  0  0  0  0  0
  139.6000   68.9380  225.2320 C   0  0  0  0  0  0  0  0  0  0  0  0
  139.1850   67.8710  226.0450 C   0  0  0  0  0  0  0  0  0  0  0  0
  139.6300   67.7770  227.3650 C   0  0  0  0  0  0  0  0  0  0  0  0
  140.5050   68.7370  227.8780 C   0  0  0  0  0  0  0  0  0  0  0  0
  140.9360   69.7930  227.0710 C   0  0  0  0  0  0  0  0  0  0  0  0
  140.4860   69.9050  225.7460 C   0  0  0  0  0  0  0  0  0  0  0  0
  141.0100   71.0280  224.8810 C   0  0  0  0  0  0  0  0  0  0  0  0
  139.9430   73.3970  222.6110 N   0  0  0  0  0  0  0  0  0  0  0  0
  139.3030   76.1590  220.2550 C   0  0  0  0  0  0  0  0  0  0  0  0
  139.1310   77.6720  220.3460 C   0  0  0  0  0  0  0  0  0  0  0  0
  139.7350   78.1010  221.6810 C   0  0  0  0  0  0  0  0  0  0  0  0
  140.2850   76.8400  222.3360 C   0  0  0  0  0  0  0  0  0  0  0  0
  138.3620   74.7040  222.9250 H   0  0  0  0  0  0  0  0  0  0  0  0
  143.5261   70.8523  220.1777 H   0  0  0  0  0  0  0  0  0  0  0  0
  142.7685   71.7091  218.7774 H   0  0  0  0  0  0  0  0  0  0  0  0
  145.1330   70.7449  218.4096 H   0  0  0  0  0  0  0  0  0  0  0  0
  144.8696   72.4708  217.9658 H   0  0  0  0  0  0  0  0  0  0  0  0
  145.9870   71.5020  220.5350 H   0  0  0  0  0  0  0  0  0  0  0  0
  146.2062   73.5834  221.2364 H   0  0  0  0  0  0  0  0  0  0  0  0
  146.3801   74.1826  219.5103 H   0  0  0  0  0  0  0  0  0  0  0  0
  144.2351   74.7449  221.0507 H   0  0  0  0  0  0  0  0  0  0  0  0
  144.1776   74.5521  219.2493 H   0  0  0  0  0  0  0  0  0  0  0  0
  138.1946   70.9420  223.9570 H   0  0  0  0  0  0  0  0  0  0  0  0
  138.7783   70.5124  222.3047 H   0  0  0  0  0  0  0  0  0  0  0  0
  138.1804   68.5111  223.6990 H   0  0  0  0  0  0  0  0  0  0  0  0
  139.9000   68.5294  223.1635 H   0  0  0  0  0  0  0  0  0  0  0  0
  138.5063   67.1058  225.6401 H   0  0  0  0  0  0  0  0  0  0  0  0
  139.2912   66.9462  228.0014 H   0  0  0  0  0  0  0  0  0  0  0  0
  140.8551   68.6617  228.9181 H   0  0  0  0  0  0  0  0  0  0  0  0
  141.6325   70.5416  227.4766 H   0  0  0  0  0  0  0  0  0  0  0  0
  140.9566   71.9636  225.4570 H   0  0  0  0  0  0  0  0  0  0  0  0
  142.0409   70.7643  224.6023 H   0  0  0  0  0  0  0  0  0  0  0  0
  140.1701   75.9094  219.6259 H   0  0  0  0  0  0  0  0  0  0  0  0
  138.4238   75.6786  219.8010 H   0  0  0  0  0  0  0  0  0  0  0  0
  139.6580   78.1644  219.5154 H   0  0  0  0  0  0  0  0  0  0  0  0
  138.0699   77.9549  220.2819 H   0  0  0  0  0  0  0  0  0  0  0  0
  140.5449   78.8267  221.5153 H   0  0  0  0  0  0  0  0  0  0  0  0
  138.9811   78.5833  222.3205 H   0  0  0  0  0  0  0  0  0  0  0  0
  141.3645   76.7487  222.1456 H   0  0  0  0  0  0  0  0  0  0  0  0
  140.1499   76.8577  223.4275 H   0  0  0  0  0  0  0  0  0  0  0  0
  1  2  1  0
  2  3  1  0
  3  4  2  0
  4  5  1  0
  5  6  1  0
  6  7  1  0
  7  8  1  0
  8  9  1  0
  9 10  1  0
 10 11  1  0
  5 12  2  0
 12 13  1  0
 13 14  1  0
 14 15  1  0
 15 16  1  0
 16 17  1  0
 17 18  2  0
 18 19  1  0
 19 20  2  0
 20 21  1  0
 21 22  2  0
 22 23  1  0
 13 24  2  0
  2 25  1  0
 25 26  1  0
 26 27  1  0
 27 28  1  0
 28  2  1  0
 24  3  1  0
 11  6  1  0
 23 14  1  0
 22 17  1  0
  1 29  1  0
  7 30  1  0
  7 31  1  0
  8 32  1  0
  8 33  1  0
  9 34  1  0
 10 35  1  0
 10 36  1  0
 11 37  1  0
 11 38  1  0
 15 39  1  0
 15 40  1  0
 16 41  1  0
 16 42  1  0
 18 43  1  0
 19 44  1  0
 20 45  1  0
 21 46  1  0
 23 47  1  0
 23 48  1  0
 25 49  1  0
 25 50  1  0
 26 51  1  0
 26 52  1  0
 27 53  1  0
 27 54  1  0
 28 55  1  0
 28 56  1  0
M  END
>  <UniqueID>  (70) 
513

>  <SMILES>  (70) 
OC1(c2nc(N3CCNCC3)nc(N3CCc4ccccc4C3)n2)CCCC1

>  <Energy>  (70) 
68.54441614610559

>  <Genealogy>  (70) 
OC1(c2nc(N3CCNCC3)nc(N3CCc4ccccc4C3)n2)CCCC1 (3D coordinates assigned)
OC1(c2nc(N3CCNCC3)nc(N3CCc4ccccc4C3)n2)CCCC1 (nonaromatic ring conformer: 68.54441614610559 kcal/mol)

>  <smiles>  (70) 
OC1(c2nc(N3CCNCC3)nc(N3CCc4ccccc4C3)n2)CCCC1

>  <score_type>  (70) 
oracle

>  <origin>  (70) 
autodockgpu

>  <m_score__min__energy>  (70) 
-8.8599999999999994

>  <m_primary>  (70) 
energy

>  <meeko>  (70) 
{"free_energy": -8.86, "intermolecular_energy": -10.05, "internal_energy": -1.5, "cluster_size": 20, "cluster_id": 1, "rank_in_cluster": 7}

>  <energy>  (70) 
-8.85

>  <cluster_rmsd>  (70) 
0.03

>  <rmsd>  (70) 
271.07

>  <cluster>  (70) 
1

$$$$
AUISRQYXECVJTM-UHFFFAOYNA-N
     RDKit          3D

 56 60  0  0  0  0  0  0  0  0999 V2000
  138.3330   75.5330  222.3790 O   0  0  0  0  0  0  0  0  0  0  0  0
  139.5610   75.6800  221.7060 C   0  0  0  0  0  0  0  0  0  0  0  0
  140.3360   74.3790  221.7640 C   0  0  0  0  0  0  0  0  0  0  0  0
  141.4740   74.2240  221.0370 N   0  0  0  0  0  0  0  0  0  0  0  0
  142.2050   73.0830  221.1280 C   0  0  0  0  0  0  0  0  0  0  0  0
  143.4040   72.9140  220.3440 N   0  0  0  0  0  0  0  0  0  0  0  0
  143.5840   71.6790  219.5690 C   0  0  0  0  0  0  0  0  0  0  0  0
  144.9230   71.6860  218.8260 C   0  0  0  0  0  0  0  0  0  0  0  0
  145.9940   72.1400  219.7180 N   0  0  0  0  0  0  0  0  0  0  0  0
  145.8130   73.5370  220.1580 C   0  0  0  0  0  0  0  0  0  0  0  0
  144.3480   74.0260  220.1550 C   0  0  0  0  0  0  0  0  0  0  0  0
  141.7980   72.1010  221.9750 N   0  0  0  0  0  0  0  0  0  0  0  0
  140.6770   72.2500  222.7280 C   0  0  0  0  0  0  0  0  0  0  0  0
  140.2550   71.2090  223.6350 N   0  0  0  0  0  0  0  0  0  0  0  0
  139.0090   70.4680  223.3810 C   0  0  0  0  0  0  0  0  0  0  0  0
  139.1540   69.0130  223.8150 C   0  0  0  0  0  0  0  0  0  0  0  0
  139.5880   68.9420  225.2470 C   0  0  0  0  0  0  0  0  0  0  0  0
  139.1680   67.8780  226.0620 C   0  0  0  0  0  0  0  0  0  0  0  0
  139.6000   67.7930  227.3870 C   0  0  0  0  0  0  0  0  0  0  0  0
  140.4660   68.7590  227.9040 C   0  0  0  0  0  0  0  0  0  0  0  0
  140.9030   69.8120  227.0960 C   0  0  0  0  0  0  0  0  0  0  0  0
  140.4660   69.9150  225.7650 C   0  0  0  0  0  0  0  0  0  0  0  0
  140.9950   71.0350  224.8990 C   0  0  0  0  0  0  0  0  0  0  0  0
  139.9560   73.3980  222.6220 N   0  0  0  0  0  0  0  0  0  0  0  0
  139.3270   76.1630  220.2690 C   0  0  0  0  0  0  0  0  0  0  0  0
  139.1700   77.6770  220.3590 C   0  0  0  0  0  0  0  0  0  0  0  0
  139.7890   78.1030  221.6880 C   0  0  0  0  0  0  0  0  0  0  0  0
  140.3320   76.8380  222.3410 C   0  0  0  0  0  0  0  0  0  0  0  0
  138.4000   74.7320  222.9630 H   0  0  0  0  0  0  0  0  0  0  0  0
  143.5570   70.8181  220.2532 H   0  0  0  0  0  0  0  0  0  0  0  0
  142.7734   71.6092  218.8287 H   0  0  0  0  0  0  0  0  0  0  0  0
  145.1492   70.6683  218.4751 H   0  0  0  0  0  0  0  0  0  0  0  0
  144.8545   72.3720  217.9689 H   0  0  0  0  0  0  0  0  0  0  0  0
  146.0110   71.5180  220.5620 H   0  0  0  0  0  0  0  0  0  0  0  0
  146.2031   73.6276  221.1825 H   0  0  0  0  0  0  0  0  0  0  0  0
  146.3533   74.1649  219.4342 H   0  0  0  0  0  0  0  0  0  0  0  0
  144.2125   74.7515  220.9707 H   0  0  0  0  0  0  0  0  0  0  0  0
  144.1425   74.4887  219.1784 H   0  0  0  0  0  0  0  0  0  0  0  0
  138.1889   70.9343  223.9467 H   0  0  0  0  0  0  0  0  0  0  0  0
  138.7914   70.4974  222.3031 H   0  0  0  0  0  0  0  0  0  0  0  0
  138.1864   68.5020  223.7026 H   0  0  0  0  0  0  0  0  0  0  0  0
  139.9118   68.5240  223.1852 H   0  0  0  0  0  0  0  0  0  0  0  0
  138.4959   67.1084  225.6547 H   0  0  0  0  0  0  0  0  0  0  0  0
  139.2579   66.9643  228.0243 H   0  0  0  0  0  0  0  0  0  0  0  0
  140.8045   68.6909  228.9484 H   0  0  0  0  0  0  0  0  0  0  0  0
  141.5933   70.5647  227.5046 H   0  0  0  0  0  0  0  0  0  0  0  0
  140.9331   71.9735  225.4694 H   0  0  0  0  0  0  0  0  0  0  0  0
  142.0293   70.7729  224.6318 H   0  0  0  0  0  0  0  0  0  0  0  0
  140.1867   75.9043  219.6333 H   0  0  0  0  0  0  0  0  0  0  0  0
  138.4397   75.6902  219.8228 H   0  0  0  0  0  0  0  0  0  0  0  0
  139.6945   78.1631  219.5232 H   0  0  0  0  0  0  0  0  0  0  0  0
  138.1110   77.9694  220.3035 H   0  0  0  0  0  0  0  0  0  0  0  0
  140.6045   78.8204  221.5141 H   0  0  0  0  0  0  0  0  0  0  0  0
  139.0452   78.5941  222.3326 H   0  0  0  0  0  0  0  0  0  0  0  0
  141.4091   76.7361  222.1425 H   0  0  0  0  0  0  0  0  0  0  0  0
  140.2054   76.8590  223.4335 H   0  0  0  0  0  0  0  0  0  0  0  0
  1  2  1  0
  2  3  1  0
  3  4  2  0
  4  5  1  0
  5  6  1  0
  6  7  1  0
  7  8  1  0
  8  9  1  0
  9 10  1  0
 10 11  1  0
  5 12  2  0
 12 13  1  0
 13 14  1  0
 14 15  1  0
 15 16  1  0
 16 17  1  0
 17 18  2  0
 18 19  1  0
 19 20  2  0
 20 21  1  0
 21 22  2  0
 22 23  1  0
 13 24  2  0
  2 25  1  0
 25 26  1  0
 26 27  1  0
 27 28  1  0
 28  2  1  0
 24  3  1  0
 11  6  1  0
 23 14  1  0
 22 17  1  0
  1 29  1  0
  7 30  1  0
  7 31  1  0
  8 32  1  0
  8 33  1  0
  9 34  1  0
 10 35  1  0
 10 36  1  0
 11 37  1  0
 11 38  1  0
 15 39  1  0
 15 40  1  0
 16 41  1  0
 16 42  1  0
 18 43  1  0
 19 44  1  0
 20 45  1  0
 21 46  1  0
 23 47  1  0
 23 48  1  0
 25 49  1  0
 25 50  1  0
 26 51  1  0
 26 52  1  0
 27 53  1  0
 27 54  1  0
 28 55  1  0
 28 56  1  0
M  END
>  <UniqueID>  (71) 
513

>  <SMILES>  (71) 
OC1(c2nc(N3CCNCC3)nc(N3CCc4ccccc4C3)n2)CCCC1

>  <Energy>  (71) 
68.54441614610559

>  <Genealogy>  (71) 
OC1(c2nc(N3CCNCC3)nc(N3CCc4ccccc4C3)n2)CCCC1 (3D coordinates assigned)
OC1(c2nc(N3CCNCC3)nc(N3CCc4ccccc4C3)n2)CCCC1 (nonaromatic ring conformer: 68.54441614610559 kcal/mol)

>  <smiles>  (71) 
OC1(c2nc(N3CCNCC3)nc(N3CCc4ccccc4C3)n2)CCCC1

>  <score_type>  (71) 
oracle

>  <origin>  (71) 
autodockgpu

>  <m_score__min__energy>  (71) 
-8.8599999999999994

>  <m_primary>  (71) 
energy

>  <meeko>  (71) 
{"free_energy": -8.86, "intermolecular_energy": -10.05, "internal_energy": -1.5, "cluster_size": 20, "cluster_id": 1, "rank_in_cluster": 6}

>  <energy>  (71) 
-8.85

>  <cluster_rmsd>  (71) 
0.04

>  <rmsd>  (71) 
271.09

>  <cluster>  (71) 
1

$$$$
AUISRQYXECVJTM-UHFFFAOYNA-N
     RDKit          3D

 56 60  0  0  0  0  0  0  0  0999 V2000
  138.3130   75.5360  222.3710 O   0  0  0  0  0  0  0  0  0  0  0  0
  139.5400   75.6920  221.6990 C   0  0  0  0  0  0  0  0  0  0  0  0
  140.3250   74.3960  221.7570 C   0  0  0  0  0  0  0  0  0  0  0  0
  141.4640   74.2500  221.0310 N   0  0  0  0  0  0  0  0  0  0  0  0
  142.2040   73.1150  221.1220 C   0  0  0  0  0  0  0  0  0  0  0  0
  143.4050   72.9550  220.3390 N   0  0  0  0  0  0  0  0  0  0  0  0
  143.5650   71.7520  219.5110 C   0  0  0  0  0  0  0  0  0  0  0  0
  144.9090   71.7640  218.7780 C   0  0  0  0  0  0  0  0  0  0  0  0
  145.9830   72.1550  219.6960 N   0  0  0  0  0  0  0  0  0  0  0  0
  145.8280   73.5350  220.1960 C   0  0  0  0  0  0  0  0  0  0  0  0
  144.3730   74.0540  220.2050 C   0  0  0  0  0  0  0  0  0  0  0  0
  141.8040   72.1290  221.9680 N   0  0  0  0  0  0  0  0  0  0  0  0
  140.6810   72.2690  222.7200 C   0  0  0  0  0  0  0  0  0  0  0  0
  140.2660   71.2240  223.6260 N   0  0  0  0  0  0  0  0  0  0  0  0
  139.0200   70.4830  223.3770 C   0  0  0  0  0  0  0  0  0  0  0  0
  139.1690   69.0270  223.8050 C   0  0  0  0  0  0  0  0  0  0  0  0
  139.6120   68.9520  225.2350 C   0  0  0  0  0  0  0  0  0  0  0  0
  139.1980   67.8840  226.0480 C   0  0  0  0  0  0  0  0  0  0  0  0
  139.6390   67.7960  227.3710 C   0  0  0  0  0  0  0  0  0  0  0  0
  140.5060   68.7610  227.8850 C   0  0  0  0  0  0  0  0  0  0  0  0
  140.9360   69.8180  227.0780 C   0  0  0  0  0  0  0  0  0  0  0  0
  140.4920   69.9240  225.7500 C   0  0  0  0  0  0  0  0  0  0  0  0
  141.0130   71.0480  224.8850 C   0  0  0  0  0  0  0  0  0  0  0  0
  139.9510   73.4110  222.6140 N   0  0  0  0  0  0  0  0  0  0  0  0
  139.3020   76.1720  220.2620 C   0  0  0  0  0  0  0  0  0  0  0  0
  139.1340   77.6850  220.3510 C   0  0  0  0  0  0  0  0  0  0  0  0
  139.7500   78.1160  221.6810 C   0  0  0  0  0  0  0  0  0  0  0  0
  140.3030   76.8560  222.3330 C   0  0  0  0  0  0  0  0  0  0  0  0
  138.3670   74.7040  222.9130 H   0  0  0  0  0  0  0  0  0  0  0  0
  143.5152   70.8624  220.1560 H   0  0  0  0  0  0  0  0  0  0  0  0
  142.7586   71.7320  218.7631 H   0  0  0  0  0  0  0  0  0  0  0  0
  145.1165   70.7585  218.3833 H   0  0  0  0  0  0  0  0  0  0  0  0
  144.8610   72.4892  217.9523 H   0  0  0  0  0  0  0  0  0  0  0  0
  145.9810   71.4960  220.5120 H   0  0  0  0  0  0  0  0  0  0  0  0
  146.2124   73.5724  221.2260 H   0  0  0  0  0  0  0  0  0  0  0  0
  146.3867   74.1827  219.5044 H   0  0  0  0  0  0  0  0  0  0  0  0
  144.2464   74.7458  221.0508 H   0  0  0  0  0  0  0  0  0  0  0  0
  144.1842   74.5629  219.2482 H   0  0  0  0  0  0  0  0  0  0  0  0
  138.2028   70.9465  223.9491 H   0  0  0  0  0  0  0  0  0  0  0  0
  138.7960   70.5159  222.3006 H   0  0  0  0  0  0  0  0  0  0  0  0
  138.2013   68.5154  223.6968 H   0  0  0  0  0  0  0  0  0  0  0  0
  139.9233   68.5407  223.1690 H   0  0  0  0  0  0  0  0  0  0  0  0
  138.5247   67.1147  225.6420 H   0  0  0  0  0  0  0  0  0  0  0  0
  139.3023   66.9649  228.0081 H   0  0  0  0  0  0  0  0  0  0  0  0
  140.8515   68.6897  228.9269 H   0  0  0  0  0  0  0  0  0  0  0  0
  141.6263   70.5713  227.4855 H   0  0  0  0  0  0  0  0  0  0  0  0
  140.9516   71.9845  225.4588 H   0  0  0  0  0  0  0  0  0  0  0  0
  142.0466   70.7896  224.6113 H   0  0  0  0  0  0  0  0  0  0  0  0
  140.1633   75.9191  219.6262 H   0  0  0  0  0  0  0  0  0  0  0  0
  138.4181   75.6923  219.8164 H   0  0  0  0  0  0  0  0  0  0  0  0
  139.6553   78.1744  219.5151 H   0  0  0  0  0  0  0  0  0  0  0  0
  138.0730   77.9699  220.2948 H   0  0  0  0  0  0  0  0  0  0  0  0
  140.5596   78.8401  221.5073 H   0  0  0  0  0  0  0  0  0  0  0  0
  139.0023   78.6009  222.3258 H   0  0  0  0  0  0  0  0  0  0  0  0
  141.3806   76.7622  222.1331 H   0  0  0  0  0  0  0  0  0  0  0  0
  140.1776   76.8761  223.4256 H   0  0  0  0  0  0  0  0  0  0  0  0
  1  2  1  0
  2  3  1  0
  3  4  2  0
  4  5  1  0
  5  6  1  0
  6  7  1  0
  7  8  1  0
  8  9  1  0
  9 10  1  0
 10 11  1  0
  5 12  2  0
 12 13  1  0
 13 14  1  0
 14 15  1  0
 15 16  1  0
 16 17  1  0
 17 18  2  0
 18 19  1  0
 19 20  2  0
 20 21  1  0
 21 22  2  0
 22 23  1  0
 13 24  2  0
  2 25  1  0
 25 26  1  0
 26 27  1  0
 27 28  1  0
 28  2  1  0
 24  3  1  0
 11  6  1  0
 23 14  1  0
 22 17  1  0
  1 29  1  0
  7 30  1  0
  7 31  1  0
  8 32  1  0
  8 33  1  0
  9 34  1  0
 10 35  1  0
 10 36  1  0
 11 37  1  0
 11 38  1  0
 15 39  1  0
 15 40  1  0
 16 41  1  0
 16 42  1  0
 18 43  1  0
 19 44  1  0
 20 45  1  0
 21 46  1  0
 23 47  1  0
 23 48  1  0
 25 49  1  0
 25 50  1  0
 26 51  1  0
 26 52  1  0
 27 53  1  0
 27 54  1  0
 28 55  1  0
 28 56  1  0
M  END
>  <UniqueID>  (72) 
513

>  <SMILES>  (72) 
OC1(c2nc(N3CCNCC3)nc(N3CCc4ccccc4C3)n2)CCCC1

>  <Energy>  (72) 
68.54441614610559

>  <Genealogy>  (72) 
OC1(c2nc(N3CCNCC3)nc(N3CCc4ccccc4C3)n2)CCCC1 (3D coordinates assigned)
OC1(c2nc(N3CCNCC3)nc(N3CCc4ccccc4C3)n2)CCCC1 (nonaromatic ring conformer: 68.54441614610559 kcal/mol)

>  <smiles>  (72) 
OC1(c2nc(N3CCNCC3)nc(N3CCc4ccccc4C3)n2)CCCC1

>  <score_type>  (72) 
oracle

>  <origin>  (72) 
autodockgpu

>  <m_score__min__energy>  (72) 
-8.8599999999999994

>  <m_primary>  (72) 
energy

>  <meeko>  (72) 
{"free_energy": -8.86, "intermolecular_energy": -10.05, "internal_energy": -1.5, "cluster_size": 20, "cluster_id": 1, "rank_in_cluster": 1}

>  <energy>  (72) 
-8.85

>  <cluster_rmsd>  (72) 
0.05

>  <rmsd>  (72) 
271.1

>  <cluster>  (72) 
1

$$$$
AUISRQYXECVJTM-UHFFFAOYNA-N
     RDKit          3D

 56 60  0  0  0  0  0  0  0  0999 V2000
  138.3340   75.5540  222.3590 O   0  0  0  0  0  0  0  0  0  0  0  0
  139.5580   75.7050  221.6820 C   0  0  0  0  0  0  0  0  0  0  0  0
  140.3440   74.4100  221.7470 C   0  0  0  0  0  0  0  0  0  0  0  0
  141.4850   74.2620  221.0250 N   0  0  0  0  0  0  0  0  0  0  0  0
  142.2260   73.1280  221.1240 C   0  0  0  0  0  0  0  0  0  0  0  0
  143.4300   72.9660  220.3450 N   0  0  0  0  0  0  0  0  0  0  0  0
  143.6000   71.7520  219.5350 C   0  0  0  0  0  0  0  0  0  0  0  0
  144.9460   71.7630  218.8050 C   0  0  0  0  0  0  0  0  0  0  0  0
  146.0150   72.1750  219.7200 N   0  0  0  0  0  0  0  0  0  0  0  0
  145.8480   73.5610  220.1990 C   0  0  0  0  0  0  0  0  0  0  0  0
  144.3890   74.0700  220.1980 C   0  0  0  0  0  0  0  0  0  0  0  0
  141.8230   72.1440  221.9720 N   0  0  0  0  0  0  0  0  0  0  0  0
  140.6970   72.2870  222.7190 C   0  0  0  0  0  0  0  0  0  0  0  0
  140.2790   71.2450  223.6270 N   0  0  0  0  0  0  0  0  0  0  0  0
  139.0480   70.4840  223.3620 C   0  0  0  0  0  0  0  0  0  0  0  0
  139.2090   69.0340  223.8070 C   0  0  0  0  0  0  0  0  0  0  0  0
  139.6260   68.9790  225.2460 C   0  0  0  0  0  0  0  0  0  0  0  0
  139.2110   67.9140  226.0620 C   0  0  0  0  0  0  0  0  0  0  0  0
  139.6270   67.8440  227.3930 C   0  0  0  0  0  0  0  0  0  0  0  0
  140.4710   68.8270  227.9140 C   0  0  0  0  0  0  0  0  0  0  0  0
  140.9020   69.8810  227.1050 C   0  0  0  0  0  0  0  0  0  0  0  0
  140.4820   69.9690  225.7680 C   0  0  0  0  0  0  0  0  0  0  0  0
  141.0050   71.0910  224.9020 C   0  0  0  0  0  0  0  0  0  0  0  0
  139.9670   73.4290  222.6060 N   0  0  0  0  0  0  0  0  0  0  0  0
  139.3160   76.1750  220.2420 C   0  0  0  0  0  0  0  0  0  0  0  0
  139.1470   77.6880  220.3200 C   0  0  0  0  0  0  0  0  0  0  0  0
  139.7680   78.1290  221.6440 C   0  0  0  0  0  0  0  0  0  0  0  0
  140.3230   76.8740  222.3050 C   0  0  0  0  0  0  0  0  0  0  0  0
  138.4240   74.7870  222.9840 H   0  0  0  0  0  0  0  0  0  0  0  0
  143.5548   70.8715  220.1928 H   0  0  0  0  0  0  0  0  0  0  0  0
  142.7954   71.7152  218.7858 H   0  0  0  0  0  0  0  0  0  0  0  0
  145.1617   70.7534  218.4254 H   0  0  0  0  0  0  0  0  0  0  0  0
  144.8949   72.4757  217.9687 H   0  0  0  0  0  0  0  0  0  0  0  0
  146.0150   71.5280  220.5440 H   0  0  0  0  0  0  0  0  0  0  0  0
  146.2302   73.6165  221.2290 H   0  0  0  0  0  0  0  0  0  0  0  0
  146.4026   74.2023  219.4982 H   0  0  0  0  0  0  0  0  0  0  0  0
  144.2555   74.7723  221.0340 H   0  0  0  0  0  0  0  0  0  0  0  0
  144.1983   74.5650  219.2343 H   0  0  0  0  0  0  0  0  0  0  0  0
  138.2139   70.9415  223.9142 H   0  0  0  0  0  0  0  0  0  0  0  0
  138.8439   70.5035  222.2813 H   0  0  0  0  0  0  0  0  0  0  0  0
  138.2506   68.5079  223.6858 H   0  0  0  0  0  0  0  0  0  0  0  0
  139.9817   68.5521  223.1900 H   0  0  0  0  0  0  0  0  0  0  0  0
  138.5557   67.1320  225.6510 H   0  0  0  0  0  0  0  0  0  0  0  0
  139.2898   67.0142  228.0315 H   0  0  0  0  0  0  0  0  0  0  0  0
  140.7969   68.7712  228.9631 H   0  0  0  0  0  0  0  0  0  0  0  0
  141.5748   70.6470  227.5180 H   0  0  0  0  0  0  0  0  0  0  0  0
  140.9210   72.0322  225.4651 H   0  0  0  0  0  0  0  0  0  0  0  0
  142.0468   70.8435  224.6504 H   0  0  0  0  0  0  0  0  0  0  0  0
  140.1759   75.9182  219.6059 H   0  0  0  0  0  0  0  0  0  0  0  0
  138.4311   75.6916  219.8024 H   0  0  0  0  0  0  0  0  0  0  0  0
  139.6645   78.1716  219.4784 H   0  0  0  0  0  0  0  0  0  0  0  0
  138.0856   77.9719  220.2657 H   0  0  0  0  0  0  0  0  0  0  0  0
  140.5774   78.8512  221.4615 H   0  0  0  0  0  0  0  0  0  0  0  0
  139.0226   78.6192  222.2875 H   0  0  0  0  0  0  0  0  0  0  0  0
  141.4001   76.7786  222.1031 H   0  0  0  0  0  0  0  0  0  0  0  0
  140.2007   76.9028  223.3978 H   0  0  0  0  0  0  0  0  0  0  0  0
  1  2  1  0
  2  3  1  0
  3  4  2  0
  4  5  1  0
  5  6  1  0
  6  7  1  0
  7  8  1  0
  8  9  1  0
  9 10  1  0
 10 11  1  0
  5 12  2  0
 12 13  1  0
 13 14  1  0
 14 15  1  0
 15 16  1  0
 16 17  1  0
 17 18  2  0
 18 19  1  0
 19 20  2  0
 20 21  1  0
 21 22  2  0
 22 23  1  0
 13 24  2  0
  2 25  1  0
 25 26  1  0
 26 27  1  0
 27 28  1  0
 28  2  1  0
 24  3  1  0
 11  6  1  0
 23 14  1  0
 22 17  1  0
  1 29  1  0
  7 30  1  0
  7 31  1  0
  8 32  1  0
  8 33  1  0
  9 34  1  0
 10 35  1  0
 10 36  1  0
 11 37  1  0
 11 38  1  0
 15 39  1  0
 15 40  1  0
 16 41  1  0
 16 42  1  0
 18 43  1  0
 19 44  1  0
 20 45  1  0
 21 46  1  0
 23 47  1  0
 23 48  1  0
 25 49  1  0
 25 50  1  0
 26 51  1  0
 26 52  1  0
 27 53  1  0
 27 54  1  0
 28 55  1  0
 28 56  1  0
M  END
>  <UniqueID>  (73) 
513

>  <SMILES>  (73) 
OC1(c2nc(N3CCNCC3)nc(N3CCc4ccccc4C3)n2)CCCC1

>  <Energy>  (73) 
68.54441614610559

>  <Genealogy>  (73) 
OC1(c2nc(N3CCNCC3)nc(N3CCc4ccccc4C3)n2)CCCC1 (3D coordinates assigned)
OC1(c2nc(N3CCNCC3)nc(N3CCc4ccccc4C3)n2)CCCC1 (nonaromatic ring conformer: 68.54441614610559 kcal/mol)

>  <smiles>  (73) 
OC1(c2nc(N3CCNCC3)nc(N3CCc4ccccc4C3)n2)CCCC1

>  <score_type>  (73) 
oracle

>  <origin>  (73) 
autodockgpu

>  <m_score__min__energy>  (73) 
-8.8599999999999994

>  <m_primary>  (73) 
energy

>  <meeko>  (73) 
{"free_energy": -8.85, "intermolecular_energy": -10.04, "internal_energy": -1.5, "cluster_size": 20, "cluster_id": 1, "rank_in_cluster": 17}

>  <energy>  (73) 
-8.85

>  <cluster_rmsd>  (73) 
0.06

>  <rmsd>  (73) 
271.08

>  <cluster>  (73) 
1

$$$$
AUISRQYXECVJTM-UHFFFAOYNA-N
     RDKit          3D

 56 60  0  0  0  0  0  0  0  0999 V2000
  138.3240   75.5230  222.3440 O   0  0  0  0  0  0  0  0  0  0  0  0
  139.5580   75.6760  221.6850 C   0  0  0  0  0  0  0  0  0  0  0  0
  140.3360   74.3750  221.7430 C   0  0  0  0  0  0  0  0  0  0  0  0
  141.4760   74.2240  221.0200 N   0  0  0  0  0  0  0  0  0  0  0  0
  142.2100   73.0850  221.1130 C   0  0  0  0  0  0  0  0  0  0  0  0
  143.4120   72.9190  220.3330 N   0  0  0  0  0  0  0  0  0  0  0  0
  143.5770   71.7060  219.5210 C   0  0  0  0  0  0  0  0  0  0  0  0
  144.9220   71.7120  218.7890 C   0  0  0  0  0  0  0  0  0  0  0  0
  145.9930   72.1190  219.7040 N   0  0  0  0  0  0  0  0  0  0  0  0
  145.8330   73.5050  220.1850 C   0  0  0  0  0  0  0  0  0  0  0  0
  144.3760   74.0190  220.1860 C   0  0  0  0  0  0  0  0  0  0  0  0
  141.8010   72.1000  221.9560 N   0  0  0  0  0  0  0  0  0  0  0  0
  140.6770   72.2460  222.7050 C   0  0  0  0  0  0  0  0  0  0  0  0
  140.2530   71.2020  223.6080 N   0  0  0  0  0  0  0  0  0  0  0  0
  139.0070   70.4630  223.3510 C   0  0  0  0  0  0  0  0  0  0  0  0
  139.1510   69.0060  223.7800 C   0  0  0  0  0  0  0  0  0  0  0  0
  139.5820   68.9310  225.2130 C   0  0  0  0  0  0  0  0  0  0  0  0
  139.1610   67.8650  226.0250 C   0  0  0  0  0  0  0  0  0  0  0  0
  139.5910   67.7770  227.3500 C   0  0  0  0  0  0  0  0  0  0  0  0
  140.4560   68.7410  227.8710 C   0  0  0  0  0  0  0  0  0  0  0  0
  140.8940   69.7960  227.0660 C   0  0  0  0  0  0  0  0  0  0  0  0
  140.4600   69.9030  225.7350 C   0  0  0  0  0  0  0  0  0  0  0  0
  140.9900   71.0250  224.8730 C   0  0  0  0  0  0  0  0  0  0  0  0
  139.9540   73.3920  222.5980 N   0  0  0  0  0  0  0  0  0  0  0  0
  139.3370   76.1650  220.2480 C   0  0  0  0  0  0  0  0  0  0  0  0
  139.1770   77.6780  220.3440 C   0  0  0  0  0  0  0  0  0  0  0  0
  139.7820   78.0990  221.6810 C   0  0  0  0  0  0  0  0  0  0  0  0
  140.3210   76.8320  222.3330 C   0  0  0  0  0  0  0  0  0  0  0  0
  138.4020   74.7460  222.9590 H   0  0  0  0  0  0  0  0  0  0  0  0
  143.5291   70.8248  220.1776 H   0  0  0  0  0  0  0  0  0  0  0  0
  142.7717   71.6742  218.7724 H   0  0  0  0  0  0  0  0  0  0  0  0
  145.1333   70.7018  218.4083 H   0  0  0  0  0  0  0  0  0  0  0  0
  144.8731   72.4250  217.9528 H   0  0  0  0  0  0  0  0  0  0  0  0
  145.9920   71.4710  220.5280 H   0  0  0  0  0  0  0  0  0  0  0  0
  146.2166   73.5577  221.2146 H   0  0  0  0  0  0  0  0  0  0  0  0
  146.3899   74.1452  219.4850 H   0  0  0  0  0  0  0  0  0  0  0  0
  144.2462   74.7211  221.0228 H   0  0  0  0  0  0  0  0  0  0  0  0
  144.1865   74.5149  219.2226 H   0  0  0  0  0  0  0  0  0  0  0  0
  138.1870   70.9279  223.9180 H   0  0  0  0  0  0  0  0  0  0  0  0
  138.7897   70.4964  222.2732 H   0  0  0  0  0  0  0  0  0  0  0  0
  138.1837   68.4953  223.6639 H   0  0  0  0  0  0  0  0  0  0  0  0
  139.9097   68.5187  223.1500 H   0  0  0  0  0  0  0  0  0  0  0  0
  138.4895   67.0962  225.6149 H   0  0  0  0  0  0  0  0  0  0  0  0
  139.2478   66.9467  227.9847 H   0  0  0  0  0  0  0  0  0  0  0  0
  140.7930   68.6701  228.9157 H   0  0  0  0  0  0  0  0  0  0  0  0
  141.5834   70.5477  227.4779 H   0  0  0  0  0  0  0  0  0  0  0  0
  140.9264   71.9621  225.4456 H   0  0  0  0  0  0  0  0  0  0  0  0
  142.0250   70.7637  224.6073 H   0  0  0  0  0  0  0  0  0  0  0  0
  140.2031   75.9105  219.6194 H   0  0  0  0  0  0  0  0  0  0  0  0
  138.4549   75.6928  219.7909 H   0  0  0  0  0  0  0  0  0  0  0  0
  139.7091   78.1688  219.5158 H   0  0  0  0  0  0  0  0  0  0  0  0
  138.1181   77.9688  220.2797 H   0  0  0  0  0  0  0  0  0  0  0  0
  140.5978   78.8188  221.5186 H   0  0  0  0  0  0  0  0  0  0  0  0
  139.0310   78.5857  222.3206 H   0  0  0  0  0  0  0  0  0  0  0  0
  141.4001   76.7328  222.1442 H   0  0  0  0  0  0  0  0  0  0  0  0
  140.1842   76.8474  223.4243 H   0  0  0  0  0  0  0  0  0  0  0  0
  1  2  1  0
  2  3  1  0
  3  4  2  0
  4  5  1  0
  5  6  1  0
  6  7  1  0
  7  8  1  0
  8  9  1  0
  9 10  1  0
 10 11  1  0
  5 12  2  0
 12 13  1  0
 13 14  1  0
 14 15  1  0
 15 16  1  0
 16 17  1  0
 17 18  2  0
 18 19  1  0
 19 20  2  0
 20 21  1  0
 21 22  2  0
 22 23  1  0
 13 24  2  0
  2 25  1  0
 25 26  1  0
 26 27  1  0
 27 28  1  0
 28  2  1  0
 24  3  1  0
 11  6  1  0
 23 14  1  0
 22 17  1  0
  1 29  1  0
  7 30  1  0
  7 31  1  0
  8 32  1  0
  8 33  1  0
  9 34  1  0
 10 35  1  0
 10 36  1  0
 11 37  1  0
 11 38  1  0
 15 39  1  0
 15 40  1  0
 16 41  1  0
 16 42  1  0
 18 43  1  0
 19 44  1  0
 20 45  1  0
 21 46  1  0
 23 47  1  0
 23 48  1  0
 25 49  1  0
 25 50  1  0
 26 51  1  0
 26 52  1  0
 27 53  1  0
 27 54  1  0
 28 55  1  0
 28 56  1  0
M  END
>  <UniqueID>  (74) 
513

>  <SMILES>  (74) 
OC1(c2nc(N3CCNCC3)nc(N3CCc4ccccc4C3)n2)CCCC1

>  <Energy>  (74) 
68.54441614610559

>  <Genealogy>  (74) 
OC1(c2nc(N3CCNCC3)nc(N3CCc4ccccc4C3)n2)CCCC1 (3D coordinates assigned)
OC1(c2nc(N3CCNCC3)nc(N3CCc4ccccc4C3)n2)CCCC1 (nonaromatic ring conformer: 68.54441614610559 kcal/mol)

>  <smiles>  (74) 
OC1(c2nc(N3CCNCC3)nc(N3CCc4ccccc4C3)n2)CCCC1

>  <score_type>  (74) 
oracle

>  <origin>  (74) 
autodockgpu

>  <m_score__min__energy>  (74) 
-8.8599999999999994

>  <m_primary>  (74) 
energy

>  <meeko>  (74) 
{"free_energy": -8.85, "intermolecular_energy": -10.04, "internal_energy": -1.5, "cluster_size": 20, "cluster_id": 1, "rank_in_cluster": 18}

>  <energy>  (74) 
-8.85

>  <cluster_rmsd>  (74) 
0.04

>  <rmsd>  (74) 
271.09

>  <cluster>  (74) 
1

$$$$
AUISRQYXECVJTM-UHFFFAOYNA-N
     RDKit          3D

 56 60  0  0  0  0  0  0  0  0999 V2000
  138.3140   75.5360  222.3730 O   0  0  0  0  0  0  0  0  0  0  0  0
  139.5450   75.6970  221.7100 C   0  0  0  0  0  0  0  0  0  0  0  0
  140.3290   74.4000  221.7610 C   0  0  0  0  0  0  0  0  0  0  0  0
  141.4700   74.2580  221.0380 N   0  0  0  0  0  0  0  0  0  0  0  0
  142.2090   73.1220  221.1250 C   0  0  0  0  0  0  0  0  0  0  0  0
  143.4130   72.9660  220.3440 N   0  0  0  0  0  0  0  0  0  0  0  0
  143.5840   71.7590  219.5250 C   0  0  0  0  0  0  0  0  0  0  0  0
  144.9290   71.7760  218.7940 C   0  0  0  0  0  0  0  0  0  0  0  0
  145.9980   72.1820  219.7120 N   0  0  0  0  0  0  0  0  0  0  0  0
  145.8310   73.5640  220.2020 C   0  0  0  0  0  0  0  0  0  0  0  0
  144.3720   74.0720  220.2050 C   0  0  0  0  0  0  0  0  0  0  0  0
  141.8050   72.1300  221.9620 N   0  0  0  0  0  0  0  0  0  0  0  0
  140.6790   72.2660  222.7110 C   0  0  0  0  0  0  0  0  0  0  0  0
  140.2600   71.2160  223.6080 N   0  0  0  0  0  0  0  0  0  0  0  0
  139.0120   70.4800  223.3520 C   0  0  0  0  0  0  0  0  0  0  0  0
  139.1560   69.0200  223.7680 C   0  0  0  0  0  0  0  0  0  0  0  0
  139.5970   68.9320  225.1980 C   0  0  0  0  0  0  0  0  0  0  0  0
  139.1790   67.8590  226.0020 C   0  0  0  0  0  0  0  0  0  0  0  0
  139.6170   67.7590  227.3240 C   0  0  0  0  0  0  0  0  0  0  0  0
  140.4870   68.7180  227.8480 C   0  0  0  0  0  0  0  0  0  0  0  0
  140.9210   69.7800  227.0500 C   0  0  0  0  0  0  0  0  0  0  0  0
  140.4790   69.8980  225.7220 C   0  0  0  0  0  0  0  0  0  0  0  0
  141.0050   71.0270  224.8670 C   0  0  0  0  0  0  0  0  0  0  0  0
  139.9510   73.4100  222.6100 N   0  0  0  0  0  0  0  0  0  0  0  0
  139.3170   76.1900  220.2760 C   0  0  0  0  0  0  0  0  0  0  0  0
  139.1500   77.7030  220.3770 C   0  0  0  0  0  0  0  0  0  0  0  0
  139.7570   78.1210  221.7140 C   0  0  0  0  0  0  0  0  0  0  0  0
  140.3050   76.8550  222.3590 C   0  0  0  0  0  0  0  0  0  0  0  0
  138.4080   74.7780  223.0090 H   0  0  0  0  0  0  0  0  0  0  0  0
  143.5400   70.8736  220.1762 H   0  0  0  0  0  0  0  0  0  0  0  0
  142.7792   71.7278  218.7758 H   0  0  0  0  0  0  0  0  0  0  0  0
  145.1451   70.7693  218.4068 H   0  0  0  0  0  0  0  0  0  0  0  0
  144.8771   72.4944  217.9626 H   0  0  0  0  0  0  0  0  0  0  0  0
  145.9990   71.5290  220.5320 H   0  0  0  0  0  0  0  0  0  0  0  0
  146.2132   73.6115  221.2324 H   0  0  0  0  0  0  0  0  0  0  0  0
  146.3856   74.2111  219.5065 H   0  0  0  0  0  0  0  0  0  0  0  0
  144.2383   74.7680  221.0462 H   0  0  0  0  0  0  0  0  0  0  0  0
  144.1809   74.5739  219.2450 H   0  0  0  0  0  0  0  0  0  0  0  0
  138.1956   70.9411  223.9273 H   0  0  0  0  0  0  0  0  0  0  0  0
  138.7894   70.5221  222.2756 H   0  0  0  0  0  0  0  0  0  0  0  0
  138.1869   68.5122  223.6544 H   0  0  0  0  0  0  0  0  0  0  0  0
  139.9095   68.5366  223.1289 H   0  0  0  0  0  0  0  0  0  0  0  0
  138.5043   67.0948  225.5888 H   0  0  0  0  0  0  0  0  0  0  0  0
  139.2765   66.9238  227.9537 H   0  0  0  0  0  0  0  0  0  0  0  0
  140.8308   68.6372  228.8898 H   0  0  0  0  0  0  0  0  0  0  0  0
  141.6129   70.5280  227.4644 H   0  0  0  0  0  0  0  0  0  0  0  0
  140.9461   71.9590  225.4483 H   0  0  0  0  0  0  0  0  0  0  0  0
  142.0380   70.7672  224.5926 H   0  0  0  0  0  0  0  0  0  0  0  0
  140.1822   75.9417  219.6437 H   0  0  0  0  0  0  0  0  0  0  0  0
  138.4354   75.7154  219.8206 H   0  0  0  0  0  0  0  0  0  0  0  0
  139.6776   78.1991  219.5491 H   0  0  0  0  0  0  0  0  0  0  0  0
  138.0898   77.9899  220.3159 H   0  0  0  0  0  0  0  0  0  0  0  0
  140.5683   78.8460  221.5522 H   0  0  0  0  0  0  0  0  0  0  0  0
  139.0050   78.6003  222.3581 H   0  0  0  0  0  0  0  0  0  0  0  0
  141.3838   76.7620  222.1653 H   0  0  0  0  0  0  0  0  0  0  0  0
  140.1727   76.8659  223.4510 H   0  0  0  0  0  0  0  0  0  0  0  0
  1  2  1  0
  2  3  1  0
  3  4  2  0
  4  5  1  0
  5  6  1  0
  6  7  1  0
  7  8  1  0
  8  9  1  0
  9 10  1  0
 10 11  1  0
  5 12  2  0
 12 13  1  0
 13 14  1  0
 14 15  1  0
 15 16  1  0
 16 17  1  0
 17 18  2  0
 18 19  1  0
 19 20  2  0
 20 21  1  0
 21 22  2  0
 22 23  1  0
 13 24  2  0
  2 25  1  0
 25 26  1  0
 26 27  1  0
 27 28  1  0
 28  2  1  0
 24  3  1  0
 11  6  1  0
 23 14  1  0
 22 17  1  0
  1 29  1  0
  7 30  1  0
  7 31  1  0
  8 32  1  0
  8 33  1  0
  9 34  1  0
 10 35  1  0
 10 36  1  0
 11 37  1  0
 11 38  1  0
 15 39  1  0
 15 40  1  0
 16 41  1  0
 16 42  1  0
 18 43  1  0
 19 44  1  0
 20 45  1  0
 21 46  1  0
 23 47  1  0
 23 48  1  0
 25 49  1  0
 25 50  1  0
 26 51  1  0
 26 52  1  0
 27 53  1  0
 27 54  1  0
 28 55  1  0
 28 56  1  0
M  END
>  <UniqueID>  (75) 
513

>  <SMILES>  (75) 
OC1(c2nc(N3CCNCC3)nc(N3CCc4ccccc4C3)n2)CCCC1

>  <Energy>  (75) 
68.54441614610559

>  <Genealogy>  (75) 
OC1(c2nc(N3CCNCC3)nc(N3CCc4ccccc4C3)n2)CCCC1 (3D coordinates assigned)
OC1(c2nc(N3CCNCC3)nc(N3CCc4ccccc4C3)n2)CCCC1 (nonaromatic ring conformer: 68.54441614610559 kcal/mol)

>  <smiles>  (75) 
OC1(c2nc(N3CCNCC3)nc(N3CCc4ccccc4C3)n2)CCCC1

>  <score_type>  (75) 
oracle

>  <origin>  (75) 
autodockgpu

>  <m_score__min__energy>  (75) 
-8.8599999999999994

>  <m_primary>  (75) 
energy

>  <meeko>  (75) 
{"free_energy": -8.85, "intermolecular_energy": -10.05, "internal_energy": -1.5, "cluster_size": 20, "cluster_id": 1, "rank_in_cluster": 14}

>  <energy>  (75) 
-8.85

>  <cluster_rmsd>  (75) 
0.05

>  <rmsd>  (75) 
271.09

>  <cluster>  (75) 
1

$$$$
AUISRQYXECVJTM-UHFFFAOYNA-N
     RDKit          3D

 56 60  0  0  0  0  0  0  0  0999 V2000
  138.3150   75.5330  222.3860 O   0  0  0  0  0  0  0  0  0  0  0  0
  139.5390   75.6880  221.7070 C   0  0  0  0  0  0  0  0  0  0  0  0
  140.3220   74.3900  221.7600 C   0  0  0  0  0  0  0  0  0  0  0  0
  141.4590   74.2440  221.0300 N   0  0  0  0  0  0  0  0  0  0  0  0
  142.1970   73.1070  221.1180 C   0  0  0  0  0  0  0  0  0  0  0  0
  143.3950   72.9470  220.3300 N   0  0  0  0  0  0  0  0  0  0  0  0
  143.5440   71.7520  219.4880 C   0  0  0  0  0  0  0  0  0  0  0  0
  144.8860   71.7610  218.7530 C   0  0  0  0  0  0  0  0  0  0  0  0
  145.9650   72.1320  219.6740 N   0  0  0  0  0  0  0  0  0  0  0  0
  145.8220   73.5070  220.1900 C   0  0  0  0  0  0  0  0  0  0  0  0
  144.3720   74.0390  220.2090 C   0  0  0  0  0  0  0  0  0  0  0  0
  141.7970   72.1200  221.9630 N   0  0  0  0  0  0  0  0  0  0  0  0
  140.6770   72.2610  222.7190 C   0  0  0  0  0  0  0  0  0  0  0  0
  140.2630   71.2160  223.6240 N   0  0  0  0  0  0  0  0  0  0  0  0
  139.0150   70.4760  223.3780 C   0  0  0  0  0  0  0  0  0  0  0  0
  139.1640   69.0190  223.8030 C   0  0  0  0  0  0  0  0  0  0  0  0
  139.6100   68.9420  225.2320 C   0  0  0  0  0  0  0  0  0  0  0  0
  139.1970   67.8730  226.0450 C   0  0  0  0  0  0  0  0  0  0  0  0
  139.6400   67.7830  227.3660 C   0  0  0  0  0  0  0  0  0  0  0  0
  140.5100   68.7470  227.8800 C   0  0  0  0  0  0  0  0  0  0  0  0
  140.9400   69.8040  227.0730 C   0  0  0  0  0  0  0  0  0  0  0  0
  140.4920   69.9130  225.7470 C   0  0  0  0  0  0  0  0  0  0  0  0
  141.0130   71.0360  224.8820 C   0  0  0  0  0  0  0  0  0  0  0  0
  139.9490   73.4050  222.6170 N   0  0  0  0  0  0  0  0  0  0  0  0
  139.2950   76.1690  220.2720 C   0  0  0  0  0  0  0  0  0  0  0  0
  139.1300   77.6820  220.3620 C   0  0  0  0  0  0  0  0  0  0  0  0
  139.7530   78.1110  221.6890 C   0  0  0  0  0  0  0  0  0  0  0  0
  140.3070   76.8500  222.3380 C   0  0  0  0  0  0  0  0  0  0  0  0
  138.3720   74.7040  222.9310 H   0  0  0  0  0  0  0  0  0  0  0  0
  143.4880   70.8556  220.1231 H   0  0  0  0  0  0  0  0  0  0  0  0
  142.7363   71.7473  218.7413 H   0  0  0  0  0  0  0  0  0  0  0  0
  145.0842   70.7584  218.3461 H   0  0  0  0  0  0  0  0  0  0  0  0
  144.8429   72.4961  217.9358 H   0  0  0  0  0  0  0  0  0  0  0  0
  145.9580   71.4630  220.4810 H   0  0  0  0  0  0  0  0  0  0  0  0
  146.2091   73.5292  221.2194 H   0  0  0  0  0  0  0  0  0  0  0  0
  146.3839   74.1576  219.5037 H   0  0  0  0  0  0  0  0  0  0  0  0
  144.2532   74.7204  221.0644 H   0  0  0  0  0  0  0  0  0  0  0  0
  144.1859   74.5628  219.2598 H   0  0  0  0  0  0  0  0  0  0  0  0
  138.2002   70.9393  223.9538 H   0  0  0  0  0  0  0  0  0  0  0  0
  138.7874   70.5108  222.3024 H   0  0  0  0  0  0  0  0  0  0  0  0
  138.1958   68.5080  223.6961 H   0  0  0  0  0  0  0  0  0  0  0  0
  139.9164   68.5330  223.1645 H   0  0  0  0  0  0  0  0  0  0  0  0
  138.5225   67.1045  225.6394 H   0  0  0  0  0  0  0  0  0  0  0  0
  139.3033   66.9516  228.0028 H   0  0  0  0  0  0  0  0  0  0  0  0
  140.8572   68.6743  228.9212 H   0  0  0  0  0  0  0  0  0  0  0  0
  141.6336   70.5549  227.4792 H   0  0  0  0  0  0  0  0  0  0  0  0
  140.9554   71.9720  225.4570 H   0  0  0  0  0  0  0  0  0  0  0  0
  142.0450   70.7747  224.6051 H   0  0  0  0  0  0  0  0  0  0  0  0
  140.1528   75.9149  219.6320 H   0  0  0  0  0  0  0  0  0  0  0  0
  138.4079   75.6911  219.8307 H   0  0  0  0  0  0  0  0  0  0  0  0
  139.6483   78.1708  219.5238 H   0  0  0  0  0  0  0  0  0  0  0  0
  138.0694   77.9690  220.3107 H   0  0  0  0  0  0  0  0  0  0  0  0
  140.5630   78.8338  221.5118 H   0  0  0  0  0  0  0  0  0  0  0  0
  139.0090   78.5966  222.3376 H   0  0  0  0  0  0  0  0  0  0  0  0
  141.3835   76.7544  222.1331 H   0  0  0  0  0  0  0  0  0  0  0  0
  140.1870   76.8698  223.4313 H   0  0  0  0  0  0  0  0  0  0  0  0
  1  2  1  0
  2  3  1  0
  3  4  2  0
  4  5  1  0
  5  6  1  0
  6  7  1  0
  7  8  1  0
  8  9  1  0
  9 10  1  0
 10 11  1  0
  5 12  2  0
 12 13  1  0
 13 14  1  0
 14 15  1  0
 15 16  1  0
 16 17  1  0
 17 18  2  0
 18 19  1  0
 19 20  2  0
 20 21  1  0
 21 22  2  0
 22 23  1  0
 13 24  2  0
  2 25  1  0
 25 26  1  0
 26 27  1  0
 27 28  1  0
 28  2  1  0
 24  3  1  0
 11  6  1  0
 23 14  1  0
 22 17  1  0
  1 29  1  0
  7 30  1  0
  7 31  1  0
  8 32  1  0
  8 33  1  0
  9 34  1  0
 10 35  1  0
 10 36  1  0
 11 37  1  0
 11 38  1  0
 15 39  1  0
 15 40  1  0
 16 41  1  0
 16 42  1  0
 18 43  1  0
 19 44  1  0
 20 45  1  0
 21 46  1  0
 23 47  1  0
 23 48  1  0
 25 49  1  0
 25 50  1  0
 26 51  1  0
 26 52  1  0
 27 53  1  0
 27 54  1  0
 28 55  1  0
 28 56  1  0
M  END
>  <UniqueID>  (76) 
513

>  <SMILES>  (76) 
OC1(c2nc(N3CCNCC3)nc(N3CCc4ccccc4C3)n2)CCCC1

>  <Energy>  (76) 
68.54441614610559

>  <Genealogy>  (76) 
OC1(c2nc(N3CCNCC3)nc(N3CCc4ccccc4C3)n2)CCCC1 (3D coordinates assigned)
OC1(c2nc(N3CCNCC3)nc(N3CCc4ccccc4C3)n2)CCCC1 (nonaromatic ring conformer: 68.54441614610559 kcal/mol)

>  <smiles>  (76) 
OC1(c2nc(N3CCNCC3)nc(N3CCc4ccccc4C3)n2)CCCC1

>  <score_type>  (76) 
oracle

>  <origin>  (76) 
autodockgpu

>  <m_score__min__energy>  (76) 
-8.8599999999999994

>  <m_primary>  (76) 
energy

>  <meeko>  (76) 
{"free_energy": -8.86, "intermolecular_energy": -10.05, "internal_energy": -1.5, "cluster_size": 20, "cluster_id": 1, "rank_in_cluster": 8}

>  <energy>  (76) 
-8.85

>  <cluster_rmsd>  (76) 
0.03

>  <rmsd>  (76) 
271.1

>  <cluster>  (76) 
1

$$$$
AUISRQYXECVJTM-UHFFFAOYNA-N
     RDKit          3D

 56 60  0  0  0  0  0  0  0  0999 V2000
  138.3010   75.5480  222.3910 O   0  0  0  0  0  0  0  0  0  0  0  0
  139.5260   75.7130  221.7180 C   0  0  0  0  0  0  0  0  0  0  0  0
  140.3180   74.4210  221.7680 C   0  0  0  0  0  0  0  0  0  0  0  0
  141.4590   74.2850  221.0440 N   0  0  0  0  0  0  0  0  0  0  0  0
  142.2040   73.1530  221.1290 C   0  0  0  0  0  0  0  0  0  0  0  0
  143.4080   73.0050  220.3470 N   0  0  0  0  0  0  0  0  0  0  0  0
  143.5670   71.8180  219.4960 C   0  0  0  0  0  0  0  0  0  0  0  0
  144.9140   71.8390  218.7690 C   0  0  0  0  0  0  0  0  0  0  0  0
  145.9850   72.2080  219.6990 N   0  0  0  0  0  0  0  0  0  0  0  0
  145.8330   73.5790  220.2250 C   0  0  0  0  0  0  0  0  0  0  0  0
  144.3800   74.1030  220.2390 C   0  0  0  0  0  0  0  0  0  0  0  0
  141.8070   72.1590  221.9670 N   0  0  0  0  0  0  0  0  0  0  0  0
  140.6810   72.2890  222.7170 C   0  0  0  0  0  0  0  0  0  0  0  0
  140.2700   71.2350  223.6140 N   0  0  0  0  0  0  0  0  0  0  0  0
  139.0290   70.4880  223.3560 C   0  0  0  0  0  0  0  0  0  0  0  0
  139.1850   69.0300  223.7750 C   0  0  0  0  0  0  0  0  0  0  0  0
  139.6230   68.9480  225.2060 C   0  0  0  0  0  0  0  0  0  0  0  0
  139.2130   67.8720  226.0110 C   0  0  0  0  0  0  0  0  0  0  0  0
  139.6480   67.7780  227.3340 C   0  0  0  0  0  0  0  0  0  0  0  0
  140.5070   68.7460  227.8580 C   0  0  0  0  0  0  0  0  0  0  0  0
  140.9340   69.8100  227.0600 C   0  0  0  0  0  0  0  0  0  0  0  0
  140.4940   69.9230  225.7310 C   0  0  0  0  0  0  0  0  0  0  0  0
  141.0130   71.0550  224.8760 C   0  0  0  0  0  0  0  0  0  0  0  0
  139.9470   73.4280  222.6170 N   0  0  0  0  0  0  0  0  0  0  0  0
  139.2850   76.2000  220.2840 C   0  0  0  0  0  0  0  0  0  0  0  0
  139.1100   77.7120  220.3810 C   0  0  0  0  0  0  0  0  0  0  0  0
  139.7250   78.1380  221.7120 C   0  0  0  0  0  0  0  0  0  0  0  0
  140.2840   76.8770  222.3580 C   0  0  0  0  0  0  0  0  0  0  0  0
  138.3950   74.7740  223.0070 H   0  0  0  0  0  0  0  0  0  0  0  0
  143.5110   70.9160  220.1231 H   0  0  0  0  0  0  0  0  0  0  0  0
  142.7638   71.8162  218.7445 H   0  0  0  0  0  0  0  0  0  0  0  0
  145.1195   70.8405  218.3557 H   0  0  0  0  0  0  0  0  0  0  0  0
  144.8723   72.5800  217.9571 H   0  0  0  0  0  0  0  0  0  0  0  0
  145.9770   71.5340  220.5010 H   0  0  0  0  0  0  0  0  0  0  0  0
  146.2139   73.5952  221.2568 H   0  0  0  0  0  0  0  0  0  0  0  0
  146.3963   74.2378  219.5478 H   0  0  0  0  0  0  0  0  0  0  0  0
  144.2525   74.7780  221.0981 H   0  0  0  0  0  0  0  0  0  0  0  0
  144.1966   74.6320  219.2921 H   0  0  0  0  0  0  0  0  0  0  0  0
  138.2072   70.9430  223.9284 H   0  0  0  0  0  0  0  0  0  0  0  0
  138.8085   70.5265  222.2790 H   0  0  0  0  0  0  0  0  0  0  0  0
  138.2207   68.5134  223.6597 H   0  0  0  0  0  0  0  0  0  0  0  0
  139.9446   68.5524  223.1386 H   0  0  0  0  0  0  0  0  0  0  0  0
  138.5467   67.1008  225.5971 H   0  0  0  0  0  0  0  0  0  0  0  0
  139.3138   66.9407  227.9642 H   0  0  0  0  0  0  0  0  0  0  0  0
  140.8481   68.6706  228.9011 H   0  0  0  0  0  0  0  0  0  0  0  0
  141.6191   70.5640  227.4750 H   0  0  0  0  0  0  0  0  0  0  0  0
  140.9440   71.9875  225.4554 H   0  0  0  0  0  0  0  0  0  0  0  0
  142.0493   70.8041  224.6055 H   0  0  0  0  0  0  0  0  0  0  0  0
  140.1471   75.9545  219.6464 H   0  0  0  0  0  0  0  0  0  0  0  0
  138.4029   75.7188  219.8365 H   0  0  0  0  0  0  0  0  0  0  0  0
  139.6283   78.2083  219.5473 H   0  0  0  0  0  0  0  0  0  0  0  0
  138.0478   77.9926  220.3270 H   0  0  0  0  0  0  0  0  0  0  0  0
  140.5315   78.8663  221.5414 H   0  0  0  0  0  0  0  0  0  0  0  0
  138.9755   78.6161  222.3598 H   0  0  0  0  0  0  0  0  0  0  0  0
  141.3620   76.7890  222.1577 H   0  0  0  0  0  0  0  0  0  0  0  0
  140.1588   76.8910  223.4508 H   0  0  0  0  0  0  0  0  0  0  0  0
  1  2  1  0
  2  3  1  0
  3  4  2  0
  4  5  1  0
  5  6  1  0
  6  7  1  0
  7  8  1  0
  8  9  1  0
  9 10  1  0
 10 11  1  0
  5 12  2  0
 12 13  1  0
 13 14  1  0
 14 15  1  0
 15 16  1  0
 16 17  1  0
 17 18  2  0
 18 19  1  0
 19 20  2  0
 20 21  1  0
 21 22  2  0
 22 23  1  0
 13 24  2  0
  2 25  1  0
 25 26  1  0
 26 27  1  0
 27 28  1  0
 28  2  1  0
 24  3  1  0
 11  6  1  0
 23 14  1  0
 22 17  1  0
  1 29  1  0
  7 30  1  0
  7 31  1  0
  8 32  1  0
  8 33  1  0
  9 34  1  0
 10 35  1  0
 10 36  1  0
 11 37  1  0
 11 38  1  0
 15 39  1  0
 15 40  1  0
 16 41  1  0
 16 42  1  0
 18 43  1  0
 19 44  1  0
 20 45  1  0
 21 46  1  0
 23 47  1  0
 23 48  1  0
 25 49  1  0
 25 50  1  0
 26 51  1  0
 26 52  1  0
 27 53  1  0
 27 54  1  0
 28 55  1  0
 28 56  1  0
M  END
>  <UniqueID>  (77) 
513

>  <SMILES>  (77) 
OC1(c2nc(N3CCNCC3)nc(N3CCc4ccccc4C3)n2)CCCC1

>  <Energy>  (77) 
68.54441614610559

>  <Genealogy>  (77) 
OC1(c2nc(N3CCNCC3)nc(N3CCc4ccccc4C3)n2)CCCC1 (3D coordinates assigned)
OC1(c2nc(N3CCNCC3)nc(N3CCc4ccccc4C3)n2)CCCC1 (nonaromatic ring conformer: 68.54441614610559 kcal/mol)

>  <smiles>  (77) 
OC1(c2nc(N3CCNCC3)nc(N3CCc4ccccc4C3)n2)CCCC1

>  <score_type>  (77) 
oracle

>  <origin>  (77) 
autodockgpu

>  <m_score__min__energy>  (77) 
-8.8599999999999994

>  <m_primary>  (77) 
energy

>  <meeko>  (77) 
{"free_energy": -8.86, "intermolecular_energy": -10.05, "internal_energy": -1.5, "cluster_size": 20, "cluster_id": 1, "rank_in_cluster": 5}

>  <energy>  (77) 
-8.85

>  <cluster_rmsd>  (77) 
0.05

>  <rmsd>  (77) 
271.11

>  <cluster>  (77) 
1

$$$$
AUISRQYXECVJTM-UHFFFAOYNA-N
     RDKit          3D

 56 60  0  0  0  0  0  0  0  0999 V2000
  138.3260   75.5170  222.3420 O   0  0  0  0  0  0  0  0  0  0  0  0
  139.5580   75.6730  221.6800 C   0  0  0  0  0  0  0  0  0  0  0  0
  140.3440   74.3780  221.7440 C   0  0  0  0  0  0  0  0  0  0  0  0
  141.4850   74.2310  221.0220 N   0  0  0  0  0  0  0  0  0  0  0  0
  142.2260   73.0960  221.1200 C   0  0  0  0  0  0  0  0  0  0  0  0
  143.4300   72.9350  220.3410 N   0  0  0  0  0  0  0  0  0  0  0  0
  143.5950   71.7270  219.5220 C   0  0  0  0  0  0  0  0  0  0  0  0
  144.9410   71.7370  218.7920 C   0  0  0  0  0  0  0  0  0  0  0  0
  146.0110   72.1380  219.7110 N   0  0  0  0  0  0  0  0  0  0  0  0
  145.8500   73.5200  220.2010 C   0  0  0  0  0  0  0  0  0  0  0  0
  144.3940   74.0360  220.2030 C   0  0  0  0  0  0  0  0  0  0  0  0
  141.8230   72.1120  221.9670 N   0  0  0  0  0  0  0  0  0  0  0  0
  140.6970   72.2550  222.7150 C   0  0  0  0  0  0  0  0  0  0  0  0
  140.2800   71.2130  223.6230 N   0  0  0  0  0  0  0  0  0  0  0  0
  139.0300   70.4770  223.3780 C   0  0  0  0  0  0  0  0  0  0  0  0
  139.1730   69.0200  223.8060 C   0  0  0  0  0  0  0  0  0  0  0  0
  139.6200   68.9440  225.2350 C   0  0  0  0  0  0  0  0  0  0  0  0
  139.2030   67.8790  226.0510 C   0  0  0  0  0  0  0  0  0  0  0  0
  139.6460   67.7890  227.3720 C   0  0  0  0  0  0  0  0  0  0  0  0
  140.5190   68.7510  227.8830 C   0  0  0  0  0  0  0  0  0  0  0  0
  140.9520   69.8050  227.0740 C   0  0  0  0  0  0  0  0  0  0  0  0
  140.5050   69.9130  225.7480 C   0  0  0  0  0  0  0  0  0  0  0  0
  141.0300   71.0330  224.8800 C   0  0  0  0  0  0  0  0  0  0  0  0
  139.9680   73.3960  222.6030 N   0  0  0  0  0  0  0  0  0  0  0  0
  139.3320   76.1540  220.2410 C   0  0  0  0  0  0  0  0  0  0  0  0
  139.1620   77.6660  220.3280 C   0  0  0  0  0  0  0  0  0  0  0  0
  139.7660   78.0980  221.6630 C   0  0  0  0  0  0  0  0  0  0  0  0
  140.3150   76.8380  222.3200 C   0  0  0  0  0  0  0  0  0  0  0  0
  138.4130   74.7510  222.9690 H   0  0  0  0  0  0  0  0  0  0  0  0
  143.5457   70.8418  220.1731 H   0  0  0  0  0  0  0  0  0  0  0  0
  142.7905   71.7000  218.7723 H   0  0  0  0  0  0  0  0  0  0  0  0
  145.1525   70.7291  218.4054 H   0  0  0  0  0  0  0  0  0  0  0  0
  144.8935   72.4552  217.9602 H   0  0  0  0  0  0  0  0  0  0  0  0
  146.0080   71.4840  220.5310 H   0  0  0  0  0  0  0  0  0  0  0  0
  146.2315   73.5652  221.2318 H   0  0  0  0  0  0  0  0  0  0  0  0
  146.4082   74.1643  219.5058 H   0  0  0  0  0  0  0  0  0  0  0  0
  144.2633   74.7325  221.0443 H   0  0  0  0  0  0  0  0  0  0  0  0
  144.2061   74.5396  219.2433 H   0  0  0  0  0  0  0  0  0  0  0  0
  138.2166   70.9445  223.9523 H   0  0  0  0  0  0  0  0  0  0  0  0
  138.8036   70.5103  222.3021 H   0  0  0  0  0  0  0  0  0  0  0  0
  138.2024   68.5131  223.7010 H   0  0  0  0  0  0  0  0  0  0  0  0
  139.9227   68.5293  223.1678 H   0  0  0  0  0  0  0  0  0  0  0  0
  138.5247   67.1129  225.6474 H   0  0  0  0  0  0  0  0  0  0  0  0
  139.3070   66.9598  228.0103 H   0  0  0  0  0  0  0  0  0  0  0  0
  140.8666   68.6793  228.9241 H   0  0  0  0  0  0  0  0  0  0  0  0
  141.6476   70.5547  227.4791 H   0  0  0  0  0  0  0  0  0  0  0  0
  140.9764   71.9703  225.4532 H   0  0  0  0  0  0  0  0  0  0  0  0
  142.0609   70.7675  224.6029 H   0  0  0  0  0  0  0  0  0  0  0  0
  140.1990   75.9019  219.6127 H   0  0  0  0  0  0  0  0  0  0  0  0
  138.4519   75.6740  219.7882 H   0  0  0  0  0  0  0  0  0  0  0  0
  139.6901   78.1556  219.4965 H   0  0  0  0  0  0  0  0  0  0  0  0
  138.1013   77.9499  220.2625 H   0  0  0  0  0  0  0  0  0  0  0  0
  140.5763   78.8230  221.4962 H   0  0  0  0  0  0  0  0  0  0  0  0
  139.0124   78.5823  222.3014 H   0  0  0  0  0  0  0  0  0  0  0  0
  141.3943   76.7451  222.1289 H   0  0  0  0  0  0  0  0  0  0  0  0
  140.1807   76.8582  223.4116 H   0  0  0  0  0  0  0  0  0  0  0  0
  1  2  1  0
  2  3  1  0
  3  4  2  0
  4  5  1  0
  5  6  1  0
  6  7  1  0
  7  8  1  0
  8  9  1  0
  9 10  1  0
 10 11  1  0
  5 12  2  0
 12 13  1  0
 13 14  1  0
 14 15  1  0
 15 16  1  0
 16 17  1  0
 17 18  2  0
 18 19  1  0
 19 20  2  0
 20 21  1  0
 21 22  2  0
 22 23  1  0
 13 24  2  0
  2 25  1  0
 25 26  1  0
 26 27  1  0
 27 28  1  0
 28  2  1  0
 24  3  1  0
 11  6  1  0
 23 14  1  0
 22 17  1  0
  1 29  1  0
  7 30  1  0
  7 31  1  0
  8 32  1  0
  8 33  1  0
  9 34  1  0
 10 35  1  0
 10 36  1  0
 11 37  1  0
 11 38  1  0
 15 39  1  0
 15 40  1  0
 16 41  1  0
 16 42  1  0
 18 43  1  0
 19 44  1  0
 20 45  1  0
 21 46  1  0
 23 47  1  0
 23 48  1  0
 25 49  1  0
 25 50  1  0
 26 51  1  0
 26 52  1  0
 27 53  1  0
 27 54  1  0
 28 55  1  0
 28 56  1  0
M  END
>  <UniqueID>  (78) 
513

>  <SMILES>  (78) 
OC1(c2nc(N3CCNCC3)nc(N3CCc4ccccc4C3)n2)CCCC1

>  <Energy>  (78) 
68.54441614610559

>  <Genealogy>  (78) 
OC1(c2nc(N3CCNCC3)nc(N3CCc4ccccc4C3)n2)CCCC1 (3D coordinates assigned)
OC1(c2nc(N3CCNCC3)nc(N3CCc4ccccc4C3)n2)CCCC1 (nonaromatic ring conformer: 68.54441614610559 kcal/mol)

>  <smiles>  (78) 
OC1(c2nc(N3CCNCC3)nc(N3CCc4ccccc4C3)n2)CCCC1

>  <score_type>  (78) 
oracle

>  <origin>  (78) 
autodockgpu

>  <m_score__min__energy>  (78) 
-8.8599999999999994

>  <m_primary>  (78) 
energy

>  <meeko>  (78) 
{"free_energy": -8.85, "intermolecular_energy": -10.05, "internal_energy": -1.5, "cluster_size": 20, "cluster_id": 1, "rank_in_cluster": 9}

>  <energy>  (78) 
-8.85

>  <cluster_rmsd>  (78) 
0.04

>  <rmsd>  (78) 
271.08

>  <cluster>  (78) 
1

$$$$
AUISRQYXECVJTM-UHFFFAOYNA-N
     RDKit          3D

 56 60  0  0  0  0  0  0  0  0999 V2000
  138.3640   75.5460  222.4110 O   0  0  0  0  0  0  0  0  0  0  0  0
  139.5810   75.6920  221.7200 C   0  0  0  0  0  0  0  0  0  0  0  0
  140.3570   74.3900  221.7670 C   0  0  0  0  0  0  0  0  0  0  0  0
  141.4950   74.2410  221.0400 N   0  0  0  0  0  0  0  0  0  0  0  0
  142.2260   73.1000  221.1220 C   0  0  0  0  0  0  0  0  0  0  0  0
  143.4260   72.9380  220.3370 N   0  0  0  0  0  0  0  0  0  0  0  0
  143.6050   71.7120  219.5480 C   0  0  0  0  0  0  0  0  0  0  0  0
  144.9440   71.7250  218.8070 C   0  0  0  0  0  0  0  0  0  0  0  0
  146.0150   72.1650  219.7070 N   0  0  0  0  0  0  0  0  0  0  0  0
  145.8360   73.5570  220.1630 C   0  0  0  0  0  0  0  0  0  0  0  0
  144.3720   74.0490  220.1640 C   0  0  0  0  0  0  0  0  0  0  0  0
  141.8180   72.1100  221.9590 N   0  0  0  0  0  0  0  0  0  0  0  0
  140.6960   72.2530  222.7120 C   0  0  0  0  0  0  0  0  0  0  0  0
  140.2730   71.2040  223.6090 N   0  0  0  0  0  0  0  0  0  0  0  0
  139.0460   70.4410  223.3290 C   0  0  0  0  0  0  0  0  0  0  0  0
  139.2070   68.9880  223.7650 C   0  0  0  0  0  0  0  0  0  0  0  0
  139.6110   68.9250  225.2070 C   0  0  0  0  0  0  0  0  0  0  0  0
  139.1920   67.8520  226.0120 C   0  0  0  0  0  0  0  0  0  0  0  0
  139.5970   67.7750  227.3460 C   0  0  0  0  0  0  0  0  0  0  0  0
  140.4330   68.7560  227.8820 C   0  0  0  0  0  0  0  0  0  0  0  0
  140.8690   69.8170  227.0840 C   0  0  0  0  0  0  0  0  0  0  0  0
  140.4600   69.9130  225.7440 C   0  0  0  0  0  0  0  0  0  0  0  0
  140.9870   71.0420  224.8900 C   0  0  0  0  0  0  0  0  0  0  0  0
  139.9750   73.4010  222.6150 N   0  0  0  0  0  0  0  0  0  0  0  0
  139.3260   76.1730  220.2860 C   0  0  0  0  0  0  0  0  0  0  0  0
  139.1720   77.6880  220.3760 C   0  0  0  0  0  0  0  0  0  0  0  0
  139.8110   78.1140  221.6960 C   0  0  0  0  0  0  0  0  0  0  0  0
  140.3630   76.8500  222.3410 C   0  0  0  0  0  0  0  0  0  0  0  0
  138.4330   74.7360  222.9820 H   0  0  0  0  0  0  0  0  0  0  0  0
  143.5758   70.8433  220.2222 H   0  0  0  0  0  0  0  0  0  0  0  0
  142.7953   71.6525  218.8059 H   0  0  0  0  0  0  0  0  0  0  0  0
  145.1682   70.7114  218.4433 H   0  0  0  0  0  0  0  0  0  0  0  0
  144.8786   72.4218  217.9584 H   0  0  0  0  0  0  0  0  0  0  0  0
  146.0290   71.5330  220.5430 H   0  0  0  0  0  0  0  0  0  0  0  0
  146.2250   73.6348  221.1890 H   0  0  0  0  0  0  0  0  0  0  0  0
  146.3783   74.1922  219.4471 H   0  0  0  0  0  0  0  0  0  0  0  0
  144.2367   74.7642  220.9887 H   0  0  0  0  0  0  0  0  0  0  0  0
  144.1691   74.5244  219.1930 H   0  0  0  0  0  0  0  0  0  0  0  0
  138.2063   70.8923  223.8778 H   0  0  0  0  0  0  0  0  0  0  0  0
  138.8508   70.4673  222.2468 H   0  0  0  0  0  0  0  0  0  0  0  0
  138.2513   68.4600  223.6315 H   0  0  0  0  0  0  0  0  0  0  0  0
  139.9862   68.5121  223.1515 H   0  0  0  0  0  0  0  0  0  0  0  0
  138.5431   67.0705  225.5899 H   0  0  0  0  0  0  0  0  0  0  0  0
  139.2567   66.9398  227.9757 H   0  0  0  0  0  0  0  0  0  0  0  0
  140.7489   68.6938  228.9338 H   0  0  0  0  0  0  0  0  0  0  0  0
  141.5366   70.5816  227.5080 H   0  0  0  0  0  0  0  0  0  0  0  0
  140.8953   71.9790  225.4589 H   0  0  0  0  0  0  0  0  0  0  0  0
  142.0314   70.7979  224.6456 H   0  0  0  0  0  0  0  0  0  0  0  0
  140.1757   75.9123  219.6379 H   0  0  0  0  0  0  0  0  0  0  0  0
  138.4316   75.7005  219.8539 H   0  0  0  0  0  0  0  0  0  0  0  0
  139.6851   78.1724  219.5322 H   0  0  0  0  0  0  0  0  0  0  0  0
  138.1129   77.9822  220.3349 H   0  0  0  0  0  0  0  0  0  0  0  0
  140.6241   78.8311  221.5099 H   0  0  0  0  0  0  0  0  0  0  0  0
  139.0768   78.6053  222.3514 H   0  0  0  0  0  0  0  0  0  0  0  0
  141.4367   76.7469  222.1251 H   0  0  0  0  0  0  0  0  0  0  0  0
  140.2541   76.8723  223.4354 H   0  0  0  0  0  0  0  0  0  0  0  0
  1  2  1  0
  2  3  1  0
  3  4  2  0
  4  5  1  0
  5  6  1  0
  6  7  1  0
  7  8  1  0
  8  9  1  0
  9 10  1  0
 10 11  1  0
  5 12  2  0
 12 13  1  0
 13 14  1  0
 14 15  1  0
 15 16  1  0
 16 17  1  0
 17 18  2  0
 18 19  1  0
 19 20  2  0
 20 21  1  0
 21 22  2  0
 22 23  1  0
 13 24  2  0
  2 25  1  0
 25 26  1  0
 26 27  1  0
 27 28  1  0
 28  2  1  0
 24  3  1  0
 11  6  1  0
 23 14  1  0
 22 17  1  0
  1 29  1  0
  7 30  1  0
  7 31  1  0
  8 32  1  0
  8 33  1  0
  9 34  1  0
 10 35  1  0
 10 36  1  0
 11 37  1  0
 11 38  1  0
 15 39  1  0
 15 40  1  0
 16 41  1  0
 16 42  1  0
 18 43  1  0
 19 44  1  0
 20 45  1  0
 21 46  1  0
 23 47  1  0
 23 48  1  0
 25 49  1  0
 25 50  1  0
 26 51  1  0
 26 52  1  0
 27 53  1  0
 27 54  1  0
 28 55  1  0
 28 56  1  0
M  END
>  <UniqueID>  (79) 
513

>  <SMILES>  (79) 
OC1(c2nc(N3CCNCC3)nc(N3CCc4ccccc4C3)n2)CCCC1

>  <Energy>  (79) 
68.54441614610559

>  <Genealogy>  (79) 
OC1(c2nc(N3CCNCC3)nc(N3CCc4ccccc4C3)n2)CCCC1 (3D coordinates assigned)
OC1(c2nc(N3CCNCC3)nc(N3CCc4ccccc4C3)n2)CCCC1 (nonaromatic ring conformer: 68.54441614610559 kcal/mol)

>  <smiles>  (79) 
OC1(c2nc(N3CCNCC3)nc(N3CCc4ccccc4C3)n2)CCCC1

>  <score_type>  (79) 
oracle

>  <origin>  (79) 
autodockgpu

>  <m_score__min__energy>  (79) 
-8.8599999999999994

>  <m_primary>  (79) 
energy

>  <meeko>  (79) 
{"free_energy": -8.86, "intermolecular_energy": -10.05, "internal_energy": -1.5, "cluster_size": 20, "cluster_id": 1, "rank_in_cluster": 4}

>  <energy>  (79) 
-8.85

>  <cluster_rmsd>  (79) 
0.06

>  <rmsd>  (79) 
271.08

>  <cluster>  (79) 
1

$$$$
AUISRQYXECVJTM-UHFFFAOYNA-N
     RDKit          3D

 56 60  0  0  0  0  0  0  0  0999 V2000
  138.3390   75.5360  222.3490 O   0  0  0  0  0  0  0  0  0  0  0  0
  139.5720   75.6880  221.6860 C   0  0  0  0  0  0  0  0  0  0  0  0
  140.3520   74.3900  221.7500 C   0  0  0  0  0  0  0  0  0  0  0  0
  141.4900   74.2360  221.0240 N   0  0  0  0  0  0  0  0  0  0  0  0
  142.2260   73.0990  221.1210 C   0  0  0  0  0  0  0  0  0  0  0  0
  143.4260   72.9310  220.3370 N   0  0  0  0  0  0  0  0  0  0  0  0
  143.5870   71.7170  219.5260 C   0  0  0  0  0  0  0  0  0  0  0  0
  144.9300   71.7210  218.7900 C   0  0  0  0  0  0  0  0  0  0  0  0
  146.0050   72.1270  219.7010 N   0  0  0  0  0  0  0  0  0  0  0  0
  145.8470   73.5130  220.1830 C   0  0  0  0  0  0  0  0  0  0  0  0
  144.3920   74.0300  220.1880 C   0  0  0  0  0  0  0  0  0  0  0  0
  141.8220   72.1180  221.9710 N   0  0  0  0  0  0  0  0  0  0  0  0
  140.7000   72.2660  222.7230 C   0  0  0  0  0  0  0  0  0  0  0  0
  140.2820   71.2270  223.6330 N   0  0  0  0  0  0  0  0  0  0  0  0
  139.0270   70.4960  223.3950 C   0  0  0  0  0  0  0  0  0  0  0  0
  139.1660   69.0400  223.8250 C   0  0  0  0  0  0  0  0  0  0  0  0
  139.6170   68.9640  225.2520 C   0  0  0  0  0  0  0  0  0  0  0  0
  139.1990   67.9020  226.0700 C   0  0  0  0  0  0  0  0  0  0  0  0
  139.6470   67.8120  227.3900 C   0  0  0  0  0  0  0  0  0  0  0  0
  140.5270   68.7710  227.8970 C   0  0  0  0  0  0  0  0  0  0  0  0
  140.9620   69.8220  227.0850 C   0  0  0  0  0  0  0  0  0  0  0  0
  140.5090   69.9290  225.7590 C   0  0  0  0  0  0  0  0  0  0  0  0
  141.0360   71.0460  224.8890 C   0  0  0  0  0  0  0  0  0  0  0  0
  139.9750   73.4110  222.6110 N   0  0  0  0  0  0  0  0  0  0  0  0
  139.3470   76.1700  220.2480 C   0  0  0  0  0  0  0  0  0  0  0  0
  139.1840   77.6840  220.3360 C   0  0  0  0  0  0  0  0  0  0  0  0
  139.7900   78.1110  221.6710 C   0  0  0  0  0  0  0  0  0  0  0  0
  140.3330   76.8490  222.3280 C   0  0  0  0  0  0  0  0  0  0  0  0
  138.4060   74.7370  222.9360 H   0  0  0  0  0  0  0  0  0  0  0  0
  143.5402   70.8365  220.1837 H   0  0  0  0  0  0  0  0  0  0  0  0
  142.7793   71.6850  218.7799 H   0  0  0  0  0  0  0  0  0  0  0  0
  145.1387   70.7104  218.4091 H   0  0  0  0  0  0  0  0  0  0  0  0
  144.8792   72.4341  217.9540 H   0  0  0  0  0  0  0  0  0  0  0  0
  146.0050   71.4790  220.5260 H   0  0  0  0  0  0  0  0  0  0  0  0
  146.2330   73.5646  221.2118 H   0  0  0  0  0  0  0  0  0  0  0  0
  146.4026   74.1523  219.4811 H   0  0  0  0  0  0  0  0  0  0  0  0
  144.2657   74.7319  221.0255 H   0  0  0  0  0  0  0  0  0  0  0  0
  144.2009   74.5272  219.2256 H   0  0  0  0  0  0  0  0  0  0  0  0
  138.2183   70.9681  223.9722 H   0  0  0  0  0  0  0  0  0  0  0  0
  138.7953   70.5284  222.3202 H   0  0  0  0  0  0  0  0  0  0  0  0
  138.1932   68.5365  223.7238 H   0  0  0  0  0  0  0  0  0  0  0  0
  139.9122   68.5459  223.1854 H   0  0  0  0  0  0  0  0  0  0  0  0
  138.5162   67.1381  225.6698 H   0  0  0  0  0  0  0  0  0  0  0  0
  139.3065   66.9852  228.0307 H   0  0  0  0  0  0  0  0  0  0  0  0
  140.8781   68.6989  228.9370 H   0  0  0  0  0  0  0  0  0  0  0  0
  141.6626   70.5693  227.4859 H   0  0  0  0  0  0  0  0  0  0  0  0
  140.9874   71.9841  225.4613 H   0  0  0  0  0  0  0  0  0  0  0  0
  142.0654   70.7771  224.6097 H   0  0  0  0  0  0  0  0  0  0  0  0
  140.2122   75.9141  219.6188 H   0  0  0  0  0  0  0  0  0  0  0  0
  138.4644   75.6941  219.7957 H   0  0  0  0  0  0  0  0  0  0  0  0
  139.7145   78.1718  219.5050 H   0  0  0  0  0  0  0  0  0  0  0  0
  138.1248   77.9735  220.2704 H   0  0  0  0  0  0  0  0  0  0  0  0
  140.6038   78.8322  221.5047 H   0  0  0  0  0  0  0  0  0  0  0  0
  139.0380   78.5976  222.3095 H   0  0  0  0  0  0  0  0  0  0  0  0
  141.4122   76.7518  222.1384 H   0  0  0  0  0  0  0  0  0  0  0  0
  140.1976   76.8690  223.4195 H   0  0  0  0  0  0  0  0  0  0  0  0
  1  2  1  0
  2  3  1  0
  3  4  2  0
  4  5  1  0
  5  6  1  0
  6  7  1  0
  7  8  1  0
  8  9  1  0
  9 10  1  0
 10 11  1  0
  5 12  2  0
 12 13  1  0
 13 14  1  0
 14 15  1  0
 15 16  1  0
 16 17  1  0
 17 18  2  0
 18 19  1  0
 19 20  2  0
 20 21  1  0
 21 22  2  0
 22 23  1  0
 13 24  2  0
  2 25  1  0
 25 26  1  0
 26 27  1  0
 27 28  1  0
 28  2  1  0
 24  3  1  0
 11  6  1  0
 23 14  1  0
 22 17  1  0
  1 29  1  0
  7 30  1  0
  7 31  1  0
  8 32  1  0
  8 33  1  0
  9 34  1  0
 10 35  1  0
 10 36  1  0
 11 37  1  0
 11 38  1  0
 15 39  1  0
 15 40  1  0
 16 41  1  0
 16 42  1  0
 18 43  1  0
 19 44  1  0
 20 45  1  0
 21 46  1  0
 23 47  1  0
 23 48  1  0
 25 49  1  0
 25 50  1  0
 26 51  1  0
 26 52  1  0
 27 53  1  0
 27 54  1  0
 28 55  1  0
 28 56  1  0
M  END
>  <UniqueID>  (80) 
513

>  <SMILES>  (80) 
OC1(c2nc(N3CCNCC3)nc(N3CCc4ccccc4C3)n2)CCCC1

>  <Energy>  (80) 
68.54441614610559

>  <Genealogy>  (80) 
OC1(c2nc(N3CCNCC3)nc(N3CCc4ccccc4C3)n2)CCCC1 (3D coordinates assigned)
OC1(c2nc(N3CCNCC3)nc(N3CCc4ccccc4C3)n2)CCCC1 (nonaromatic ring conformer: 68.54441614610559 kcal/mol)

>  <smiles>  (80) 
OC1(c2nc(N3CCNCC3)nc(N3CCc4ccccc4C3)n2)CCCC1

>  <score_type>  (80) 
oracle

>  <origin>  (80) 
autodockgpu

>  <m_score__min__energy>  (80) 
-8.8599999999999994

>  <m_primary>  (80) 
energy

>  <meeko>  (80) 
{"free_energy": -8.85, "intermolecular_energy": -10.04, "internal_energy": -1.5, "cluster_size": 20, "cluster_id": 1, "rank_in_cluster": 16}

>  <energy>  (80) 
-8.84

>  <cluster_rmsd>  (80) 
0.06

>  <rmsd>  (80) 
271.09

>  <cluster>  (80) 
1

$$$$
