
     RDKit          3D

 55 58  0  0  0  0  0  0  0  0999 V2000
  137.3470   81.3660  225.1100 C   0  0  0  0  0  0  0  0  0  0  0  0
  138.0870   81.5650  223.9340 O   0  0  0  0  0  0  0  0  0  0  0  0
  139.0050   80.6120  223.5370 C   0  0  0  0  0  0  0  0  0  0  0  0
  140.3700   80.8520  223.4750 C   0  0  0  0  0  0  0  0  0  0  0  0
  141.2610   79.8560  223.0660 C   0  0  0  0  0  0  0  0  0  0  0  0
  140.8220   78.5930  222.7060 C   0  0  0  0  0  0  0  0  0  0  0  0
  139.4520   78.3860  222.7800 C   0  0  0  0  0  0  0  0  0  0  0  0
  138.5700   79.3590  223.1800 C   0  0  0  0  0  0  0  0  0  0  0  0
  139.1970   76.9740  222.3550 C   0  0  0  0  0  0  0  0  0  0  0  0
  140.5580   76.4650  222.0550 C   0  0  0  0  0  0  0  0  0  0  0  0
  140.9090   75.1210  221.5970 C   0  0  0  0  0  0  0  0  0  0  0  0
  142.0240   74.9680  220.8040 C   0  0  0  0  0  0  0  0  0  0  0  0
  142.3450   73.6990  220.3940 C   0  0  0  0  0  0  0  0  0  0  0  0
  141.5800   72.5960  220.7610 C   0  0  0  0  0  0  0  0  0  0  0  0
  140.4700   72.7340  221.5480 C   0  0  0  0  0  0  0  0  0  0  0  0
  139.6210   71.6370  221.9860 C   0  0  0  0  0  0  0  0  0  0  0  0
  138.7730   71.2220  221.1260 O   0  0  0  0  0  0  0  0  0  0  0  0
  139.7090   71.0430  223.2880 N   0  0  0  0  0  0  0  0  0  0  0  0
  140.6970   71.5660  224.2050 C   0  0  0  0  0  0  0  0  0  0  0  0
  140.9850   70.6420  225.3680 C   0  0  0  0  0  0  0  0  0  0  0  0
  139.6370   70.1380  225.9080 C   0  0  0  0  0  0  0  0  0  0  0  0
  139.8820   69.4720  227.1370 N   0  0  0  0  0  0  0  0  0  0  0  0
  140.7310   70.1580  228.0610 C   0  0  0  0  0  0  0  0  0  0  0  0
  140.2390   68.0820  226.9540 C   0  0  0  0  0  0  0  0  0  0  0  0
  138.9510   69.2880  224.8730 C   0  0  0  0  0  0  0  0  0  0  0  0
  138.7980   69.9730  223.5700 C   0  0  0  0  0  0  0  0  0  0  0  0
  140.1460   74.0310  221.9630 C   0  0  0  0  0  0  0  0  0  0  0  0
  141.4230   77.3980  222.2640 N   0  0  0  0  0  0  0  0  0  0  0  0
  137.9928   81.5397  225.9834 H   0  0  0  0  0  0  0  0  0  0  0  0
  136.5009   82.0685  225.1341 H   0  0  0  0  0  0  0  0  0  0  0  0
  136.9674   80.3339  225.1341 H   0  0  0  0  0  0  0  0  0  0  0  0
  140.7577   81.8433  223.7526 H   0  0  0  0  0  0  0  0  0  0  0  0
  142.3372   80.0808  223.0291 H   0  0  0  0  0  0  0  0  0  0  0  0
  137.4945   79.1309  223.2153 H   0  0  0  0  0  0  0  0  0  0  0  0
  138.7283   76.3958  223.1649 H   0  0  0  0  0  0  0  0  0  0  0  0
  138.5071   76.8959  221.5018 H   0  0  0  0  0  0  0  0  0  0  0  0
  142.6361   75.8332  220.5095 H   0  0  0  0  0  0  0  0  0  0  0  0
  143.2303   73.5493  219.7585 H   0  0  0  0  0  0  0  0  0  0  0  0
  141.8734   71.5950  220.4118 H   0  0  0  0  0  0  0  0  0  0  0  0
  141.6330   71.7324  223.6516 H   0  0  0  0  0  0  0  0  0  0  0  0
  140.2905   72.4985  224.6236 H   0  0  0  0  0  0  0  0  0  0  0  0
  141.5946   69.7914  225.0289 H   0  0  0  0  0  0  0  0  0  0  0  0
  141.5411   71.1735  226.1543 H   0  0  0  0  0  0  0  0  0  0  0  0
  138.9413   70.9656  226.1109 H   0  0  0  0  0  0  0  0  0  0  0  0
  140.4275   69.9127  229.0895 H   0  0  0  0  0  0  0  0  0  0  0  0
  141.7738   69.8459  227.9021 H   0  0  0  0  0  0  0  0  0  0  0  0
  140.6448   71.2430  227.9021 H   0  0  0  0  0  0  0  0  0  0  0  0
  140.3621   67.6027  227.9364 H   0  0  0  0  0  0  0  0  0  0  0  0
  139.4432   67.5698  226.3932 H   0  0  0  0  0  0  0  0  0  0  0  0
  141.1831   68.0167  226.3932 H   0  0  0  0  0  0  0  0  0  0  0  0
  139.5441   68.3742  224.7209 H   0  0  0  0  0  0  0  0  0  0  0  0
  137.9411   69.0649  225.2477 H   0  0  0  0  0  0  0  0  0  0  0  0
  138.9197   69.2165  222.7808 H   0  0  0  0  0  0  0  0  0  0  0  0
  137.8053   70.4451  223.6096 H   0  0  0  0  0  0  0  0  0  0  0  0
  139.2605   74.1853  222.5971 H   0  0  0  0  0  0  0  0  0  0  0  0
  1  2  1  0
  2  3  1  0
  3  4  2  0
  4  5  1  0
  5  6  2  0
  6  7  1  0
  7  8  2  0
  7  9  1  0
  9 10  1  0
 10 11  1  0
 11 12  2  0
 12 13  1  0
 13 14  2  0
 14 15  1  0
 15 16  1  0
 16 17  2  0
 16 18  1  0
 18 19  1  0
 19 20  1  0
 20 21  1  0
 21 22  1  0
 22 23  1  0
 22 24  1  0
 21 25  1  0
 25 26  1  0
 15 27  2  0
 10 28  2  0
  8  3  1  0
 27 11  1  0
 28  6  1  0
 26 18  1  0
  1 29  1  0
  1 30  1  0
  1 31  1  0
  4 32  1  0
  5 33  1  0
  8 34  1  0
  9 35  1  0
  9 36  1  0
 12 37  1  0
 13 38  1  0
 14 39  1  0
 19 40  1  0
 19 41  1  0
 20 42  1  0
 20 43  1  0
 21 44  1  0
 23 45  1  0
 23 46  1  0
 23 47  1  0
 24 48  1  0
 24 49  1  0
 24 50  1  0
 25 51  1  0
 25 52  1  0
 26 53  1  0
 26 54  1  0
 27 55  1  0
M  END
>  <smiles>  (1) 
COc1ccc2c(c1)CC(c1cccc(C(=O)N3CCC(N(C)C)CC3)c1)=N2

>  <score_type>  (1) 
oracle

>  <origin>  (1) 
autodockgpu

>  <m_score__min__energy>  (1) 
-7.4100000000000001

>  <m_primary>  (1) 
energy

>  <meeko>  (1) 
{"free_energy": -7.38, "intermolecular_energy": -8.57, "internal_energy": -0.86, "cluster_size": 19, "cluster_id": 1, "rank_in_cluster": 16}

>  <energy>  (1) 
-7.41

>  <cluster_rmsd>  (1) 
0.0

>  <rmsd>  (1) 
270.4

>  <cluster>  (1) 
1

$$$$

     RDKit          3D

 55 58  0  0  0  0  0  0  0  0999 V2000
  140.7160   83.0290  220.8520 C   0  0  0  0  0  0  0  0  0  0  0  0
  141.4620   82.4690  221.9000 O   0  0  0  0  0  0  0  0  0  0  0  0
  141.2640   81.1460  222.2470 C   0  0  0  0  0  0  0  0  0  0  0  0
  140.8470   80.7460  223.5090 C   0  0  0  0  0  0  0  0  0  0  0  0
  140.6610   79.3950  223.8140 C   0  0  0  0  0  0  0  0  0  0  0  0
  140.8830   78.4020  222.8750 C   0  0  0  0  0  0  0  0  0  0  0  0
  141.2990   78.8360  221.6240 C   0  0  0  0  0  0  0  0  0  0  0  0
  141.4850   80.1610  221.3170 C   0  0  0  0  0  0  0  0  0  0  0  0
  141.4790   77.6180  220.7730 C   0  0  0  0  0  0  0  0  0  0  0  0
  141.1180   76.5120  221.6940 C   0  0  0  0  0  0  0  0  0  0  0  0
  141.1080   75.0820  221.3850 C   0  0  0  0  0  0  0  0  0  0  0  0
  142.0560   74.5920  220.5150 C   0  0  0  0  0  0  0  0  0  0  0  0
  142.0390   73.2460  220.2460 C   0  0  0  0  0  0  0  0  0  0  0  0
  141.1030   72.3970  220.8270 C   0  0  0  0  0  0  0  0  0  0  0  0
  140.1560   72.8700  221.6920 C   0  0  0  0  0  0  0  0  0  0  0  0
  139.1490   72.0530  222.3510 C   0  0  0  0  0  0  0  0  0  0  0  0
  138.0160   72.0010  221.7650 O   0  0  0  0  0  0  0  0  0  0  0  0
  139.3850   71.3430  223.5750 N   0  0  0  0  0  0  0  0  0  0  0  0
  140.6960   71.4500  224.1760 C   0  0  0  0  0  0  0  0  0  0  0  0
  140.9710   70.3780  225.2080 C   0  0  0  0  0  0  0  0  0  0  0  0
  139.7290   70.2670  226.1060 C   0  0  0  0  0  0  0  0  0  0  0  0
  140.0660   69.4480  227.2150 N   0  0  0  0  0  0  0  0  0  0  0  0
  141.0510   69.9760  228.1070 C   0  0  0  0  0  0  0  0  0  0  0  0
  140.3150   68.0740  226.8360 C   0  0  0  0  0  0  0  0  0  0  0  0
  138.5560   69.7680  225.3070 C   0  0  0  0  0  0  0  0  0  0  0  0
  138.2900   70.5850  224.1000 C   0  0  0  0  0  0  0  0  0  0  0  0
  140.1770   74.2440  221.9620 C   0  0  0  0  0  0  0  0  0  0  0  0
  140.7960   76.9960  222.8450 N   0  0  0  0  0  0  0  0  0  0  0  0
  139.9015   83.6404  221.2676 H   0  0  0  0  0  0  0  0  0  0  0  0
  141.3700   83.6611  220.2334 H   0  0  0  0  0  0  0  0  0  0  0  0
  140.2916   82.2245  220.2334 H   0  0  0  0  0  0  0  0  0  0  0  0
  140.6597   81.5055  224.2824 H   0  0  0  0  0  0  0  0  0  0  0  0
  140.3302   79.1136  224.8246 H   0  0  0  0  0  0  0  0  0  0  0  0
  141.8176   80.4388  220.3060 H   0  0  0  0  0  0  0  0  0  0  0  0
  140.8083   77.6418  219.9015 H   0  0  0  0  0  0  0  0  0  0  0  0
  142.4938   77.5241  220.3591 H   0  0  0  0  0  0  0  0  0  0  0  0
  142.8008   75.2558  220.0518 H   0  0  0  0  0  0  0  0  0  0  0  0
  142.7845   72.8283  219.5534 H   0  0  0  0  0  0  0  0  0  0  0  0
  141.1252   71.3240  220.5857 H   0  0  0  0  0  0  0  0  0  0  0  0
  141.4520   71.3712  223.3809 H   0  0  0  0  0  0  0  0  0  0  0  0
  140.7386   72.4194  224.6941 H   0  0  0  0  0  0  0  0  0  0  0  0
  141.1597   69.4163  224.7085 H   0  0  0  0  0  0  0  0  0  0  0  0
  141.8577   70.6360  225.8057 H   0  0  0  0  0  0  0  0  0  0  0  0
  139.4175   71.2467  226.4973 H   0  0  0  0  0  0  0  0  0  0  0  0
  140.7334   69.8057  229.1463 H   0  0  0  0  0  0  0  0  0  0  0  0
  142.0130   69.4726  227.9304 H   0  0  0  0  0  0  0  0  0  0  0  0
  141.1643   71.0558  227.9304 H   0  0  0  0  0  0  0  0  0  0  0  0
  140.4265   67.4585  227.7408 H   0  0  0  0  0  0  0  0  0  0  0  0
  139.4701   67.6993  226.2395 H   0  0  0  0  0  0  0  0  0  0  0  0
  141.2376   68.0196  226.2395 H   0  0  0  0  0  0  0  0  0  0  0  0
  138.7601   68.7338  224.9926 H   0  0  0  0  0  0  0  0  0  0  0  0
  137.6668   69.8325  225.9513 H   0  0  0  0  0  0  0  0  0  0  0  0
  137.9472   69.9040  223.3071 H   0  0  0  0  0  0  0  0  0  0  0  0
  137.5504   71.3342  224.4190 H   0  0  0  0  0  0  0  0  0  0  0  0
  139.4316   74.6658  222.6522 H   0  0  0  0  0  0  0  0  0  0  0  0
  1  2  1  0
  2  3  1  0
  3  4  2  0
  4  5  1  0
  5  6  2  0
  6  7  1  0
  7  8  2  0
  7  9  1  0
  9 10  1  0
 10 11  1  0
 11 12  2  0
 12 13  1  0
 13 14  2  0
 14 15  1  0
 15 16  1  0
 16 17  2  0
 16 18  1  0
 18 19  1  0
 19 20  1  0
 20 21  1  0
 21 22  1  0
 22 23  1  0
 22 24  1  0
 21 25  1  0
 25 26  1  0
 15 27  2  0
 10 28  2  0
  8  3  1  0
 27 11  1  0
 28  6  1  0
 26 18  1  0
  1 29  1  0
  1 30  1  0
  1 31  1  0
  4 32  1  0
  5 33  1  0
  8 34  1  0
  9 35  1  0
  9 36  1  0
 12 37  1  0
 13 38  1  0
 14 39  1  0
 19 40  1  0
 19 41  1  0
 20 42  1  0
 20 43  1  0
 21 44  1  0
 23 45  1  0
 23 46  1  0
 23 47  1  0
 24 48  1  0
 24 49  1  0
 24 50  1  0
 25 51  1  0
 25 52  1  0
 26 53  1  0
 26 54  1  0
 27 55  1  0
M  END
>  <smiles>  (2) 
COc1ccc2c(c1)CC(c1cccc(C(=O)N3CCC(N(C)C)CC3)c1)=N2

>  <score_type>  (2) 
oracle

>  <origin>  (2) 
autodockgpu

>  <m_score__min__energy>  (2) 
-7.4100000000000001

>  <m_primary>  (2) 
energy

>  <meeko>  (2) 
{"free_energy": -7.41, "intermolecular_energy": -8.6, "internal_energy": -0.85, "cluster_size": 19, "cluster_id": 1, "rank_in_cluster": 3}

>  <energy>  (2) 
-7.41

>  <cluster_rmsd>  (2) 
0.02

>  <rmsd>  (2) 
270.4

>  <cluster>  (2) 
1

$$$$

     RDKit          3D

 55 58  0  0  0  0  0  0  0  0999 V2000
  140.4830   83.1490  221.1850 C   0  0  0  0  0  0  0  0  0  0  0  0
  141.4690   82.4370  221.8850 O   0  0  0  0  0  0  0  0  0  0  0  0
  141.2440   81.1170  222.2270 C   0  0  0  0  0  0  0  0  0  0  0  0
  140.7590   80.7260  223.4670 C   0  0  0  0  0  0  0  0  0  0  0  0
  140.5480   79.3780  223.7670 C   0  0  0  0  0  0  0  0  0  0  0  0
  140.8120   78.3790  222.8460 C   0  0  0  0  0  0  0  0  0  0  0  0
  141.2970   78.8040  221.6160 C   0  0  0  0  0  0  0  0  0  0  0  0
  141.5070   80.1270  221.3140 C   0  0  0  0  0  0  0  0  0  0  0  0
  141.5120   77.5810  220.7820 C   0  0  0  0  0  0  0  0  0  0  0  0
  141.0960   76.4810  221.6870 C   0  0  0  0  0  0  0  0  0  0  0  0
  141.0930   75.0500  221.3840 C   0  0  0  0  0  0  0  0  0  0  0  0
  142.0420   74.5610  220.5160 C   0  0  0  0  0  0  0  0  0  0  0  0
  142.0320   73.2140  220.2530 C   0  0  0  0  0  0  0  0  0  0  0  0
  141.1000   72.3620  220.8390 C   0  0  0  0  0  0  0  0  0  0  0  0
  140.1520   72.8350  221.7030 C   0  0  0  0  0  0  0  0  0  0  0  0
  139.1500   72.0160  222.3660 C   0  0  0  0  0  0  0  0  0  0  0  0
  138.0150   71.9580  221.7830 O   0  0  0  0  0  0  0  0  0  0  0  0
  139.3920   71.3100  223.5910 N   0  0  0  0  0  0  0  0  0  0  0  0
  140.7030   71.4230  224.1890 C   0  0  0  0  0  0  0  0  0  0  0  0
  140.9850   70.3550  225.2230 C   0  0  0  0  0  0  0  0  0  0  0  0
  139.7460   70.2410  226.1240 C   0  0  0  0  0  0  0  0  0  0  0  0
  140.0880   69.4260  227.2340 N   0  0  0  0  0  0  0  0  0  0  0  0
  141.0230   69.9880  228.1590 C   0  0  0  0  0  0  0  0  0  0  0  0
  140.4100   68.0690  226.8490 C   0  0  0  0  0  0  0  0  0  0  0  0
  138.5720   69.7370  225.3290 C   0  0  0  0  0  0  0  0  0  0  0  0
  138.3000   70.5490  224.1210 C   0  0  0  0  0  0  0  0  0  0  0  0
  140.1660   74.2100  221.9670 C   0  0  0  0  0  0  0  0  0  0  0  0
  140.7170   76.9740  222.8170 N   0  0  0  0  0  0  0  0  0  0  0  0
  139.8060   83.6379  221.9009 H   0  0  0  0  0  0  0  0  0  0  0  0
  140.9609   83.9118  220.5527 H   0  0  0  0  0  0  0  0  0  0  0  0
  139.9093   82.4555  220.5527 H   0  0  0  0  0  0  0  0  0  0  0  0
  140.5370   81.4902  224.2264 H   0  0  0  0  0  0  0  0  0  0  0  0
  140.1624   79.1036  224.7600 H   0  0  0  0  0  0  0  0  0  0  0  0
  141.8937   80.3985  220.3206 H   0  0  0  0  0  0  0  0  0  0  0  0
  140.8877   77.6053  219.8767 H   0  0  0  0  0  0  0  0  0  0  0  0
  142.5466   77.4783  220.4227 H   0  0  0  0  0  0  0  0  0  0  0  0
  142.7830   75.2265  220.0491 H   0  0  0  0  0  0  0  0  0  0  0  0
  142.7793   72.7971  219.5617 H   0  0  0  0  0  0  0  0  0  0  0  0
  141.1269   71.2881  220.6024 H   0  0  0  0  0  0  0  0  0  0  0  0
  141.4576   71.3452  223.3924 H   0  0  0  0  0  0  0  0  0  0  0  0
  140.7423   72.3936  224.7051 H   0  0  0  0  0  0  0  0  0  0  0  0
  141.1767   69.3928  224.7256 H   0  0  0  0  0  0  0  0  0  0  0  0
  141.8720   70.6184  225.8179 H   0  0  0  0  0  0  0  0  0  0  0  0
  139.4324   71.2205  226.5140 H   0  0  0  0  0  0  0  0  0  0  0  0
  140.6878   69.7865  229.1871 H   0  0  0  0  0  0  0  0  0  0  0  0
  142.0128   69.5350  228.0006 H   0  0  0  0  0  0  0  0  0  0  0  0
  141.0874   71.0746  228.0006 H   0  0  0  0  0  0  0  0  0  0  0  0
  140.5553   67.4566  227.7511 H   0  0  0  0  0  0  0  0  0  0  0  0
  139.5859   67.6520  226.2516 H   0  0  0  0  0  0  0  0  0  0  0  0
  141.3336   68.0667  226.2516 H   0  0  0  0  0  0  0  0  0  0  0  0
  138.7781   68.7025  225.0169 H   0  0  0  0  0  0  0  0  0  0  0  0
  137.6845   69.8017  225.9757 H   0  0  0  0  0  0  0  0  0  0  0  0
  137.9578   69.8645  223.3308 H   0  0  0  0  0  0  0  0  0  0  0  0
  137.5582   71.2962  224.4394 H   0  0  0  0  0  0  0  0  0  0  0  0
  139.4195   74.6313  222.6563 H   0  0  0  0  0  0  0  0  0  0  0  0
  1  2  1  0
  2  3  1  0
  3  4  2  0
  4  5  1  0
  5  6  2  0
  6  7  1  0
  7  8  2  0
  7  9  1  0
  9 10  1  0
 10 11  1  0
 11 12  2  0
 12 13  1  0
 13 14  2  0
 14 15  1  0
 15 16  1  0
 16 17  2  0
 16 18  1  0
 18 19  1  0
 19 20  1  0
 20 21  1  0
 21 22  1  0
 22 23  1  0
 22 24  1  0
 21 25  1  0
 25 26  1  0
 15 27  2  0
 10 28  2  0
  8  3  1  0
 27 11  1  0
 28  6  1  0
 26 18  1  0
  1 29  1  0
  1 30  1  0
  1 31  1  0
  4 32  1  0
  5 33  1  0
  8 34  1  0
  9 35  1  0
  9 36  1  0
 12 37  1  0
 13 38  1  0
 14 39  1  0
 19 40  1  0
 19 41  1  0
 20 42  1  0
 20 43  1  0
 21 44  1  0
 23 45  1  0
 23 46  1  0
 23 47  1  0
 24 48  1  0
 24 49  1  0
 24 50  1  0
 25 51  1  0
 25 52  1  0
 26 53  1  0
 26 54  1  0
 27 55  1  0
M  END
>  <smiles>  (3) 
COc1ccc2c(c1)CC(c1cccc(C(=O)N3CCC(N(C)C)CC3)c1)=N2

>  <score_type>  (3) 
oracle

>  <origin>  (3) 
autodockgpu

>  <m_score__min__energy>  (3) 
-7.4100000000000001

>  <m_primary>  (3) 
energy

>  <meeko>  (3) 
{"free_energy": -7.4, "intermolecular_energy": -8.59, "internal_energy": -0.85, "cluster_size": 19, "cluster_id": 1, "rank_in_cluster": 8}

>  <energy>  (3) 
-7.41

>  <cluster_rmsd>  (3) 
0.16

>  <rmsd>  (3) 
270.44

>  <cluster>  (3) 
1

$$$$

     RDKit          3D

 55 58  0  0  0  0  0  0  0  0999 V2000
  140.6720   83.0070  220.8360 C   0  0  0  0  0  0  0  0  0  0  0  0
  141.4450   82.4730  221.8790 O   0  0  0  0  0  0  0  0  0  0  0  0
  141.2860   81.1480  222.2360 C   0  0  0  0  0  0  0  0  0  0  0  0
  140.9500   80.7420  223.5200 C   0  0  0  0  0  0  0  0  0  0  0  0
  140.8000   79.3890  223.8340 C   0  0  0  0  0  0  0  0  0  0  0  0
  140.9790   78.3990  222.8830 C   0  0  0  0  0  0  0  0  0  0  0  0
  141.3140   78.8380  221.6100 C   0  0  0  0  0  0  0  0  0  0  0  0
  141.4640   80.1660  221.2930 C   0  0  0  0  0  0  0  0  0  0  0  0
  141.4590   77.6220  220.7490 C   0  0  0  0  0  0  0  0  0  0  0  0
  141.1670   76.5120  221.6890 C   0  0  0  0  0  0  0  0  0  0  0  0
  141.1590   75.0820  221.3800 C   0  0  0  0  0  0  0  0  0  0  0  0
  142.1160   74.5900  220.5230 C   0  0  0  0  0  0  0  0  0  0  0  0
  142.0990   73.2440  220.2540 C   0  0  0  0  0  0  0  0  0  0  0  0
  141.1540   72.3960  220.8240 C   0  0  0  0  0  0  0  0  0  0  0  0
  140.1980   72.8720  221.6770 C   0  0  0  0  0  0  0  0  0  0  0  0
  139.1810   72.0570  222.3240 C   0  0  0  0  0  0  0  0  0  0  0  0
  138.0560   72.0060  221.7230 O   0  0  0  0  0  0  0  0  0  0  0  0
  139.4010   71.3480  223.5510 N   0  0  0  0  0  0  0  0  0  0  0  0
  140.7040   71.4540  224.1690 C   0  0  0  0  0  0  0  0  0  0  0  0
  140.9640   70.3830  225.2060 C   0  0  0  0  0  0  0  0  0  0  0  0
  139.7110   70.2750  226.0880 C   0  0  0  0  0  0  0  0  0  0  0  0
  140.0320   69.4560  227.2020 N   0  0  0  0  0  0  0  0  0  0  0  0
  141.0350   69.9660  228.0850 C   0  0  0  0  0  0  0  0  0  0  0  0
  140.2440   68.0740  226.8330 C   0  0  0  0  0  0  0  0  0  0  0  0
  138.5470   69.7770  225.2740 C   0  0  0  0  0  0  0  0  0  0  0  0
  138.2970   70.5930  224.0630 C   0  0  0  0  0  0  0  0  0  0  0  0
  140.2180   74.2460  221.9470 C   0  0  0  0  0  0  0  0  0  0  0  0
  140.9080   76.9920  222.8570 N   0  0  0  0  0  0  0  0  0  0  0  0
  139.8361   83.5845  221.2577 H   0  0  0  0  0  0  0  0  0  0  0  0
  141.2976   83.6665  220.2165 H   0  0  0  0  0  0  0  0  0  0  0  0
  140.2766   82.1885  220.2165 H   0  0  0  0  0  0  0  0  0  0  0  0
  140.7992   81.4987  224.3040 H   0  0  0  0  0  0  0  0  0  0  0  0
  140.5331   79.1033  224.8622 H   0  0  0  0  0  0  0  0  0  0  0  0
  141.7318   80.4482  220.2641 H   0  0  0  0  0  0  0  0  0  0  0  0
  140.7378   77.6371  219.9185 H   0  0  0  0  0  0  0  0  0  0  0  0
  142.4487   77.5409  220.2759 H   0  0  0  0  0  0  0  0  0  0  0  0
  142.8684   75.2519  220.0692 H   0  0  0  0  0  0  0  0  0  0  0  0
  142.8518   72.8248  219.5702 H   0  0  0  0  0  0  0  0  0  0  0  0
  141.1769   71.3228  220.5836 H   0  0  0  0  0  0  0  0  0  0  0  0
  141.4703   71.3732  223.3840 H   0  0  0  0  0  0  0  0  0  0  0  0
  140.7410   72.4240  224.6864 H   0  0  0  0  0  0  0  0  0  0  0  0
  141.1576   69.4203  224.7103 H   0  0  0  0  0  0  0  0  0  0  0  0
  141.8433   70.6406  225.8147 H   0  0  0  0  0  0  0  0  0  0  0  0
  139.3966   71.2557  226.4746 H   0  0  0  0  0  0  0  0  0  0  0  0
  140.7214   69.8066  229.1272 H   0  0  0  0  0  0  0  0  0  0  0  0
  141.9846   69.4412  227.9034 H   0  0  0  0  0  0  0  0  0  0  0  0
  141.1704   71.0424  227.9034 H   0  0  0  0  0  0  0  0  0  0  0  0
  140.3379   67.4620  227.7422 H   0  0  0  0  0  0  0  0  0  0  0  0
  139.3899   67.7182  226.2380 H   0  0  0  0  0  0  0  0  0  0  0  0
  141.1655   67.9905  226.2380 H   0  0  0  0  0  0  0  0  0  0  0  0
  138.7537   68.7423  224.9631 H   0  0  0  0  0  0  0  0  0  0  0  0
  137.6499   69.8438  225.9071 H   0  0  0  0  0  0  0  0  0  0  0  0
  137.9624   69.9119  223.2666 H   0  0  0  0  0  0  0  0  0  0  0  0
  137.5547   71.3439  224.3715 H   0  0  0  0  0  0  0  0  0  0  0  0
  139.4651   74.6697  222.6279 H   0  0  0  0  0  0  0  0  0  0  0  0
  1  2  1  0
  2  3  1  0
  3  4  2  0
  4  5  1  0
  5  6  2  0
  6  7  1  0
  7  8  2  0
  7  9  1  0
  9 10  1  0
 10 11  1  0
 11 12  2  0
 12 13  1  0
 13 14  2  0
 14 15  1  0
 15 16  1  0
 16 17  2  0
 16 18  1  0
 18 19  1  0
 19 20  1  0
 20 21  1  0
 21 22  1  0
 22 23  1  0
 22 24  1  0
 21 25  1  0
 25 26  1  0
 15 27  2  0
 10 28  2  0
  8  3  1  0
 27 11  1  0
 28  6  1  0
 26 18  1  0
  1 29  1  0
  1 30  1  0
  1 31  1  0
  4 32  1  0
  5 33  1  0
  8 34  1  0
  9 35  1  0
  9 36  1  0
 12 37  1  0
 13 38  1  0
 14 39  1  0
 19 40  1  0
 19 41  1  0
 20 42  1  0
 20 43  1  0
 21 44  1  0
 23 45  1  0
 23 46  1  0
 23 47  1  0
 24 48  1  0
 24 49  1  0
 24 50  1  0
 25 51  1  0
 25 52  1  0
 26 53  1  0
 26 54  1  0
 27 55  1  0
M  END
>  <smiles>  (4) 
COc1ccc2c(c1)CC(c1cccc(C(=O)N3CCC(N(C)C)CC3)c1)=N2

>  <score_type>  (4) 
oracle

>  <origin>  (4) 
autodockgpu

>  <m_score__min__energy>  (4) 
-7.4100000000000001

>  <m_primary>  (4) 
energy

>  <meeko>  (4) 
{"free_energy": -7.4, "intermolecular_energy": -8.59, "internal_energy": -0.85, "cluster_size": 19, "cluster_id": 1, "rank_in_cluster": 10}

>  <energy>  (4) 
-7.41

>  <cluster_rmsd>  (4) 
0.15

>  <rmsd>  (4) 
270.42

>  <cluster>  (4) 
1

$$$$

     RDKit          3D

 55 58  0  0  0  0  0  0  0  0999 V2000
  131.1970   79.4310  229.0830 C   0  0  0  0  0  0  0  0  0  0  0  0
  132.1510   80.1280  229.8420 O   0  0  0  0  0  0  0  0  0  0  0  0
  133.2890   80.6130  229.2270 C   0  0  0  0  0  0  0  0  0  0  0  0
  134.3020   81.2690  229.9130 C   0  0  0  0  0  0  0  0  0  0  0  0
  135.4350   81.7440  229.2480 C   0  0  0  0  0  0  0  0  0  0  0  0
  135.5970   81.5800  227.8820 C   0  0  0  0  0  0  0  0  0  0  0  0
  134.5670   80.9200  227.2270 C   0  0  0  0  0  0  0  0  0  0  0  0
  133.4500   80.4510  227.8730 C   0  0  0  0  0  0  0  0  0  0  0  0
  134.9390   80.8510  225.7790 C   0  0  0  0  0  0  0  0  0  0  0  0
  136.2560   81.5340  225.7410 C   0  0  0  0  0  0  0  0  0  0  0  0
  137.0960   81.7530  224.5630 C   0  0  0  0  0  0  0  0  0  0  0  0
  136.7860   82.7960  223.7200 C   0  0  0  0  0  0  0  0  0  0  0  0
  137.5920   82.9930  222.6270 C   0  0  0  0  0  0  0  0  0  0  0  0
  138.6880   82.1750  222.3700 C   0  0  0  0  0  0  0  0  0  0  0  0
  139.0060   81.1350  223.1980 C   0  0  0  0  0  0  0  0  0  0  0  0
  140.1370   80.2390  223.0100 C   0  0  0  0  0  0  0  0  0  0  0  0
  141.2880   80.7870  223.0770 O   0  0  0  0  0  0  0  0  0  0  0  0
  139.9970   78.8330  222.7650 N   0  0  0  0  0  0  0  0  0  0  0  0
  138.6600   78.2860  222.7060 C   0  0  0  0  0  0  0  0  0  0  0  0
  138.6210   76.7800  222.8460 C   0  0  0  0  0  0  0  0  0  0  0  0
  139.7200   76.2000  221.9430 C   0  0  0  0  0  0  0  0  0  0  0  0
  139.5350   74.7950  221.8800 N   0  0  0  0  0  0  0  0  0  0  0  0
  140.4790   74.0740  221.0830 C   0  0  0  0  0  0  0  0  0  0  0  0
  138.1610   74.4270  221.6120 C   0  0  0  0  0  0  0  0  0  0  0  0
  141.0760   76.6190  222.4440 C   0  0  0  0  0  0  0  0  0  0  0  0
  141.2080   78.0860  222.5960 C   0  0  0  0  0  0  0  0  0  0  0  0
  138.1800   80.9380  224.3120 C   0  0  0  0  0  0  0  0  0  0  0  0
  136.5770   81.9200  226.9290 N   0  0  0  0  0  0  0  0  0  0  0  0
  130.4953   78.9183  229.7574 H   0  0  0  0  0  0  0  0  0  0  0  0
  130.6444   80.1396  228.4485 H   0  0  0  0  0  0  0  0  0  0  0  0
  131.7041   78.6891  228.4485 H   0  0  0  0  0  0  0  0  0  0  0  0
  134.2110   81.4174  230.9991 H   0  0  0  0  0  0  0  0  0  0  0  0
  136.2175   82.2608  229.8230 H   0  0  0  0  0  0  0  0  0  0  0  0
  132.6690   79.9355  227.2948 H   0  0  0  0  0  0  0  0  0  0  0  0
  135.0247   79.8074  225.4419 H   0  0  0  0  0  0  0  0  0  0  0  0
  134.1917   81.3122  225.1165 H   0  0  0  0  0  0  0  0  0  0  0  0
  135.9225   83.4487  223.9156 H   0  0  0  0  0  0  0  0  0  0  0  0
  137.3659   83.8187  221.9363 H   0  0  0  0  0  0  0  0  0  0  0  0
  139.3102   82.3690  221.4838 H   0  0  0  0  0  0  0  0  0  0  0  0
  138.0663   78.7275  223.5200 H   0  0  0  0  0  0  0  0  0  0  0  0
  138.2521   78.5309  221.7142 H   0  0  0  0  0  0  0  0  0  0  0  0
  138.8067   76.4958  223.8923 H   0  0  0  0  0  0  0  0  0  0  0  0
  137.6350   76.3906  222.5526 H   0  0  0  0  0  0  0  0  0  0  0  0
  139.6555   76.5916  220.9171 H   0  0  0  0  0  0  0  0  0  0  0  0
  141.1802   73.5384  221.7399 H   0  0  0  0  0  0  0  0  0  0  0  0
  139.9462   73.3508  220.4481 H   0  0  0  0  0  0  0  0  0  0  0  0
  141.0365   74.7783  220.4481 H   0  0  0  0  0  0  0  0  0  0  0  0
  137.6275   74.2841  222.5633 H   0  0  0  0  0  0  0  0  0  0  0  0
  137.6733   75.2262  221.0345 H   0  0  0  0  0  0  0  0  0  0  0  0
  138.1380   73.4911  221.0345 H   0  0  0  0  0  0  0  0  0  0  0  0
  141.2491   76.1481  223.4229 H   0  0  0  0  0  0  0  0  0  0  0  0
  141.8169   76.2973  221.6972 H   0  0  0  0  0  0  0  0  0  0  0  0
  141.8393   78.2731  223.4772 H   0  0  0  0  0  0  0  0  0  0  0  0
  141.6292   78.4358  221.6419 H   0  0  0  0  0  0  0  0  0  0  0  0
  138.4015   80.1123  225.0042 H   0  0  0  0  0  0  0  0  0  0  0  0
  1  2  1  0
  2  3  1  0
  3  4  2  0
  4  5  1  0
  5  6  2  0
  6  7  1  0
  7  8  2  0
  7  9  1  0
  9 10  1  0
 10 11  1  0
 11 12  2  0
 12 13  1  0
 13 14  2  0
 14 15  1  0
 15 16  1  0
 16 17  2  0
 16 18  1  0
 18 19  1  0
 19 20  1  0
 20 21  1  0
 21 22  1  0
 22 23  1  0
 22 24  1  0
 21 25  1  0
 25 26  1  0
 15 27  2  0
 10 28  2  0
  8  3  1  0
 27 11  1  0
 28  6  1  0
 26 18  1  0
  1 29  1  0
  1 30  1  0
  1 31  1  0
  4 32  1  0
  5 33  1  0
  8 34  1  0
  9 35  1  0
  9 36  1  0
 12 37  1  0
 13 38  1  0
 14 39  1  0
 19 40  1  0
 19 41  1  0
 20 42  1  0
 20 43  1  0
 21 44  1  0
 23 45  1  0
 23 46  1  0
 23 47  1  0
 24 48  1  0
 24 49  1  0
 24 50  1  0
 25 51  1  0
 25 52  1  0
 26 53  1  0
 26 54  1  0
 27 55  1  0
M  END
>  <smiles>  (5) 
COc1ccc2c(c1)CC(c1cccc(C(=O)N3CCC(N(C)C)CC3)c1)=N2

>  <score_type>  (5) 
oracle

>  <origin>  (5) 
autodockgpu

>  <m_score__min__energy>  (5) 
-7.4100000000000001

>  <m_primary>  (5) 
energy

>  <meeko>  (5) 
{"free_energy": -7.0, "intermolecular_energy": -8.19, "internal_energy": -0.81, "cluster_size": 1, "cluster_id": 2, "rank_in_cluster": 1}

>  <energy>  (5) 
-7.41

>  <cluster_rmsd>  (5) 
0.28

>  <rmsd>  (5) 
270.43

>  <cluster>  (5) 
1

$$$$

     RDKit          3D

 55 58  0  0  0  0  0  0  0  0999 V2000
  140.7030   83.1430  220.8890 C   0  0  0  0  0  0  0  0  0  0  0  0
  141.3970   82.5030  221.9280 O   0  0  0  0  0  0  0  0  0  0  0  0
  141.1140   81.1850  222.2270 C   0  0  0  0  0  0  0  0  0  0  0  0
  140.4000   80.7970  223.3520 C   0  0  0  0  0  0  0  0  0  0  0  0
  140.1390   79.4490  223.6130 C   0  0  0  0  0  0  0  0  0  0  0  0
  140.5770   78.4470  222.7640 C   0  0  0  0  0  0  0  0  0  0  0  0
  141.2870   78.8690  221.6480 C   0  0  0  0  0  0  0  0  0  0  0  0
  141.5490   80.1910  221.3850 C   0  0  0  0  0  0  0  0  0  0  0  0
  141.6620   77.6430  220.8760 C   0  0  0  0  0  0  0  0  0  0  0  0
  141.0820   76.5460  221.6890 C   0  0  0  0  0  0  0  0  0  0  0  0
  141.1400   75.1130  221.3980 C   0  0  0  0  0  0  0  0  0  0  0  0
  142.1620   74.6470  220.6020 C   0  0  0  0  0  0  0  0  0  0  0  0
  142.2070   73.2990  220.3490 C   0  0  0  0  0  0  0  0  0  0  0  0
  141.2610   72.4240  220.8750 C   0  0  0  0  0  0  0  0  0  0  0  0
  140.2410   72.8740  221.6670 C   0  0  0  0  0  0  0  0  0  0  0  0
  139.2190   72.0310  222.2640 C   0  0  0  0  0  0  0  0  0  0  0  0
  138.1190   71.9620  221.6190 O   0  0  0  0  0  0  0  0  0  0  0  0
  139.4050   71.3130  223.4920 N   0  0  0  0  0  0  0  0  0  0  0  0
  140.6800   71.4400  224.1620 C   0  0  0  0  0  0  0  0  0  0  0  0
  140.9230   70.3640  225.1980 C   0  0  0  0  0  0  0  0  0  0  0  0
  139.6380   70.2190  226.0280 C   0  0  0  0  0  0  0  0  0  0  0  0
  139.9330   69.3960  227.1460 N   0  0  0  0  0  0  0  0  0  0  0  0
  140.9550   69.8760  228.0250 C   0  0  0  0  0  0  0  0  0  0  0  0
  140.0980   68.0050  226.7830 C   0  0  0  0  0  0  0  0  0  0  0  0
  138.5190   69.7050  225.1640 C   0  0  0  0  0  0  0  0  0  0  0  0
  138.2990   70.5280  223.9530 C   0  0  0  0  0  0  0  0  0  0  0  0
  140.1990   74.2510  221.9200 C   0  0  0  0  0  0  0  0  0  0  0  0
  140.4920   77.0410  222.7240 N   0  0  0  0  0  0  0  0  0  0  0  0
  139.9575   83.8305  221.3151 H   0  0  0  0  0  0  0  0  0  0  0  0
  141.4127   83.7102  220.2689 H   0  0  0  0  0  0  0  0  0  0  0  0
  140.1950   82.3897  220.2689 H   0  0  0  0  0  0  0  0  0  0  0  0
  140.0331   81.5636  224.0503 H   0  0  0  0  0  0  0  0  0  0  0  0
  139.5715   79.1775  224.5154 H   0  0  0  0  0  0  0  0  0  0  0  0
  142.1182   80.4590  220.4827 H   0  0  0  0  0  0  0  0  0  0  0  0
  141.2238   77.6616  219.8672 H   0  0  0  0  0  0  0  0  0  0  0  0
  142.7466   77.5421  220.7229 H   0  0  0  0  0  0  0  0  0  0  0  0
  142.9155   75.3307  220.1838 H   0  0  0  0  0  0  0  0  0  0  0  0
  143.0116   72.8996  219.7140 H   0  0  0  0  0  0  0  0  0  0  0  0
  141.3352   71.3500  220.6493 H   0  0  0  0  0  0  0  0  0  0  0  0
  141.4780   71.3840  223.4070 H   0  0  0  0  0  0  0  0  0  0  0  0
  140.6752   72.4049  224.6902 H   0  0  0  0  0  0  0  0  0  0  0  0
  141.1580   69.4112  224.7011 H   0  0  0  0  0  0  0  0  0  0  0  0
  141.7714   70.6343  225.8438 H   0  0  0  0  0  0  0  0  0  0  0  0
  139.2862   71.1883  226.4109 H   0  0  0  0  0  0  0  0  0  0  0  0
  140.6402   69.7282  229.0686 H   0  0  0  0  0  0  0  0  0  0  0  0
  141.8870   69.3215  227.8411 H   0  0  0  0  0  0  0  0  0  0  0  0
  141.1234   70.9474  227.8411 H   0  0  0  0  0  0  0  0  0  0  0  0
  140.1705   67.3942  227.6950 H   0  0  0  0  0  0  0  0  0  0  0  0
  139.2326   67.6759  226.1891 H   0  0  0  0  0  0  0  0  0  0  0  0
  141.0164   67.8875  226.1891 H   0  0  0  0  0  0  0  0  0  0  0  0
  138.7607   68.6785  224.8512 H   0  0  0  0  0  0  0  0  0  0  0  0
  137.5964   69.7454  225.7616 H   0  0  0  0  0  0  0  0  0  0  0  0
  138.0113   69.8484  223.1373 H   0  0  0  0  0  0  0  0  0  0  0  0
  137.5288   71.2591  224.2398 H   0  0  0  0  0  0  0  0  0  0  0  0
  139.3943   74.6553  222.5516 H   0  0  0  0  0  0  0  0  0  0  0  0
  1  2  1  0
  2  3  1  0
  3  4  2  0
  4  5  1  0
  5  6  2  0
  6  7  1  0
  7  8  2  0
  7  9  1  0
  9 10  1  0
 10 11  1  0
 11 12  2  0
 12 13  1  0
 13 14  2  0
 14 15  1  0
 15 16  1  0
 16 17  2  0
 16 18  1  0
 18 19  1  0
 19 20  1  0
 20 21  1  0
 21 22  1  0
 22 23  1  0
 22 24  1  0
 21 25  1  0
 25 26  1  0
 15 27  2  0
 10 28  2  0
  8  3  1  0
 27 11  1  0
 28  6  1  0
 26 18  1  0
  1 29  1  0
  1 30  1  0
  1 31  1  0
  4 32  1  0
  5 33  1  0
  8 34  1  0
  9 35  1  0
  9 36  1  0
 12 37  1  0
 13 38  1  0
 14 39  1  0
 19 40  1  0
 19 41  1  0
 20 42  1  0
 20 43  1  0
 21 44  1  0
 23 45  1  0
 23 46  1  0
 23 47  1  0
 24 48  1  0
 24 49  1  0
 24 50  1  0
 25 51  1  0
 25 52  1  0
 26 53  1  0
 26 54  1  0
 27 55  1  0
M  END
>  <smiles>  (6) 
COc1ccc2c(c1)CC(c1cccc(C(=O)N3CCC(N(C)C)CC3)c1)=N2

>  <score_type>  (6) 
oracle

>  <origin>  (6) 
autodockgpu

>  <m_score__min__energy>  (6) 
-7.4100000000000001

>  <m_primary>  (6) 
energy

>  <meeko>  (6) 
{"free_energy": -7.4, "intermolecular_energy": -8.59, "internal_energy": -0.85, "cluster_size": 19, "cluster_id": 1, "rank_in_cluster": 12}

>  <energy>  (6) 
-7.41

>  <cluster_rmsd>  (6) 
0.06

>  <rmsd>  (6) 
270.4

>  <cluster>  (6) 
1

$$$$

     RDKit          3D

 55 58  0  0  0  0  0  0  0  0999 V2000
  140.6970   83.1030  220.9400 C   0  0  0  0  0  0  0  0  0  0  0  0
  141.4590   82.4380  221.9130 O   0  0  0  0  0  0  0  0  0  0  0  0
  141.1760   81.1210  222.2190 C   0  0  0  0  0  0  0  0  0  0  0  0
  140.5030   80.7360  223.3700 C   0  0  0  0  0  0  0  0  0  0  0  0
  140.2400   79.3900  223.6360 C   0  0  0  0  0  0  0  0  0  0  0  0
  140.6370   78.3870  222.7690 C   0  0  0  0  0  0  0  0  0  0  0  0
  141.3080   78.8050  221.6280 C   0  0  0  0  0  0  0  0  0  0  0  0
  141.5710   80.1260  221.3590 C   0  0  0  0  0  0  0  0  0  0  0  0
  141.6420   77.5790  220.8390 C   0  0  0  0  0  0  0  0  0  0  0  0
  141.0840   76.4840  221.6710 C   0  0  0  0  0  0  0  0  0  0  0  0
  141.1190   75.0520  221.3740 C   0  0  0  0  0  0  0  0  0  0  0  0
  142.1090   74.5780  220.5430 C   0  0  0  0  0  0  0  0  0  0  0  0
  142.1330   73.2310  220.2850 C   0  0  0  0  0  0  0  0  0  0  0  0
  141.1970   72.3640  220.8400 C   0  0  0  0  0  0  0  0  0  0  0  0
  140.2090   72.8210  221.6670 C   0  0  0  0  0  0  0  0  0  0  0  0
  139.1990   71.9850  222.2960 C   0  0  0  0  0  0  0  0  0  0  0  0
  138.0940   71.8890  221.6630 O   0  0  0  0  0  0  0  0  0  0  0  0
  139.4020   71.3030  223.5420 N   0  0  0  0  0  0  0  0  0  0  0  0
  140.6820   71.4590  224.1960 C   0  0  0  0  0  0  0  0  0  0  0  0
  140.9430   70.4140  225.2590 C   0  0  0  0  0  0  0  0  0  0  0  0
  139.6670   70.2810  226.1040 C   0  0  0  0  0  0  0  0  0  0  0  0
  139.9790   69.4910  227.2410 N   0  0  0  0  0  0  0  0  0  0  0  0
  140.9230   70.0550  228.1560 C   0  0  0  0  0  0  0  0  0  0  0  0
  140.2660   68.1150  226.9000 C   0  0  0  0  0  0  0  0  0  0  0  0
  138.5450   69.7340  225.2650 C   0  0  0  0  0  0  0  0  0  0  0  0
  138.3070   70.5220  224.0330 C   0  0  0  0  0  0  0  0  0  0  0  0
  140.1880   74.1970  221.9260 C   0  0  0  0  0  0  0  0  0  0  0  0
  140.5390   76.9820  222.7280 N   0  0  0  0  0  0  0  0  0  0  0  0
  139.9562   83.7495  221.4332 H   0  0  0  0  0  0  0  0  0  0  0  0
  141.3593   83.7170  220.3121 H   0  0  0  0  0  0  0  0  0  0  0  0
  140.1782   82.3637  220.3121 H   0  0  0  0  0  0  0  0  0  0  0  0
  140.1711   81.5034  224.0848 H   0  0  0  0  0  0  0  0  0  0  0  0
  139.7038   79.1206  224.5579 H   0  0  0  0  0  0  0  0  0  0  0  0
  142.1084   80.3920  220.4368 H   0  0  0  0  0  0  0  0  0  0  0  0
  141.1654   77.6047  219.8480 H   0  0  0  0  0  0  0  0  0  0  0  0
  142.7190   77.4693  220.6438 H   0  0  0  0  0  0  0  0  0  0  0  0
  142.8545   75.2556  220.1014 H   0  0  0  0  0  0  0  0  0  0  0  0
  142.9121   72.8260  219.6225 H   0  0  0  0  0  0  0  0  0  0  0  0
  141.2531   71.2900  220.6089 H   0  0  0  0  0  0  0  0  0  0  0  0
  141.4735   71.3884  223.4354 H   0  0  0  0  0  0  0  0  0  0  0  0
  140.6744   72.4382  224.6970 H   0  0  0  0  0  0  0  0  0  0  0  0
  141.1819   69.4499  224.7863 H   0  0  0  0  0  0  0  0  0  0  0  0
  141.7945   70.7093  225.8897 H   0  0  0  0  0  0  0  0  0  0  0  0
  139.3104   71.2576  226.4633 H   0  0  0  0  0  0  0  0  0  0  0  0
  140.5955   69.8593  229.1877 H   0  0  0  0  0  0  0  0  0  0  0  0
  141.9103   69.5987  227.9919 H   0  0  0  0  0  0  0  0  0  0  0  0
  140.9890   71.1407  227.9919 H   0  0  0  0  0  0  0  0  0  0  0  0
  140.3887   67.5268  227.8214 H   0  0  0  0  0  0  0  0  0  0  0  0
  139.4346   67.7025  226.3096 H   0  0  0  0  0  0  0  0  0  0  0  0
  141.1930   68.0692  226.3096 H   0  0  0  0  0  0  0  0  0  0  0  0
  138.7927   68.7013  224.9784 H   0  0  0  0  0  0  0  0  0  0  0  0
  137.6274   69.7830  225.8697 H   0  0  0  0  0  0  0  0  0  0  0  0
  138.0185   69.8179  223.2387 H   0  0  0  0  0  0  0  0  0  0  0  0
  137.5324   71.2538  224.3058 H   0  0  0  0  0  0  0  0  0  0  0  0
  139.4093   74.6064  222.5864 H   0  0  0  0  0  0  0  0  0  0  0  0
  1  2  1  0
  2  3  1  0
  3  4  2  0
  4  5  1  0
  5  6  2  0
  6  7  1  0
  7  8  2  0
  7  9  1  0
  9 10  1  0
 10 11  1  0
 11 12  2  0
 12 13  1  0
 13 14  2  0
 14 15  1  0
 15 16  1  0
 16 17  2  0
 16 18  1  0
 18 19  1  0
 19 20  1  0
 20 21  1  0
 21 22  1  0
 22 23  1  0
 22 24  1  0
 21 25  1  0
 25 26  1  0
 15 27  2  0
 10 28  2  0
  8  3  1  0
 27 11  1  0
 28  6  1  0
 26 18  1  0
  1 29  1  0
  1 30  1  0
  1 31  1  0
  4 32  1  0
  5 33  1  0
  8 34  1  0
  9 35  1  0
  9 36  1  0
 12 37  1  0
 13 38  1  0
 14 39  1  0
 19 40  1  0
 19 41  1  0
 20 42  1  0
 20 43  1  0
 21 44  1  0
 23 45  1  0
 23 46  1  0
 23 47  1  0
 24 48  1  0
 24 49  1  0
 24 50  1  0
 25 51  1  0
 25 52  1  0
 26 53  1  0
 26 54  1  0
 27 55  1  0
M  END
>  <smiles>  (7) 
COc1ccc2c(c1)CC(c1cccc(C(=O)N3CCC(N(C)C)CC3)c1)=N2

>  <score_type>  (7) 
oracle

>  <origin>  (7) 
autodockgpu

>  <m_score__min__energy>  (7) 
-7.4100000000000001

>  <m_primary>  (7) 
energy

>  <meeko>  (7) 
{"free_energy": -7.41, "intermolecular_energy": -8.6, "internal_energy": -0.85, "cluster_size": 19, "cluster_id": 1, "rank_in_cluster": 6}

>  <energy>  (7) 
-7.4

>  <cluster_rmsd>  (7) 
0.04

>  <rmsd>  (7) 
270.41

>  <cluster>  (7) 
1

$$$$

     RDKit          3D

 55 58  0  0  0  0  0  0  0  0999 V2000
  140.6920   82.9370  220.6900 C   0  0  0  0  0  0  0  0  0  0  0  0
  141.3960   82.4780  221.8140 O   0  0  0  0  0  0  0  0  0  0  0  0
  141.2940   81.1520  222.1880 C   0  0  0  0  0  0  0  0  0  0  0  0
  141.1060   80.7460  223.5020 C   0  0  0  0  0  0  0  0  0  0  0  0
  141.0080   79.3920  223.8330 C   0  0  0  0  0  0  0  0  0  0  0  0
  141.0950   78.4010  222.8690 C   0  0  0  0  0  0  0  0  0  0  0  0
  141.2830   78.8410  221.5660 C   0  0  0  0  0  0  0  0  0  0  0  0
  141.3800   80.1700  221.2330 C   0  0  0  0  0  0  0  0  0  0  0  0
  141.3480   77.6250  220.6960 C   0  0  0  0  0  0  0  0  0  0  0  0
  141.1760   76.5130  221.6640 C   0  0  0  0  0  0  0  0  0  0  0  0
  141.1510   75.0820  221.3600 C   0  0  0  0  0  0  0  0  0  0  0  0
  142.0960   74.5790  220.4950 C   0  0  0  0  0  0  0  0  0  0  0  0
  142.0650   73.2330  220.2310 C   0  0  0  0  0  0  0  0  0  0  0  0
  141.1180   72.3960  220.8120 C   0  0  0  0  0  0  0  0  0  0  0  0
  140.1730   72.8830  221.6720 C   0  0  0  0  0  0  0  0  0  0  0  0
  139.1550   72.0790  222.3300 C   0  0  0  0  0  0  0  0  0  0  0  0
  138.0200   72.0470  221.7470 O   0  0  0  0  0  0  0  0  0  0  0  0
  139.3840   71.3610  223.5510 N   0  0  0  0  0  0  0  0  0  0  0  0
  140.6970   71.4450  224.1490 C   0  0  0  0  0  0  0  0  0  0  0  0
  140.9580   70.3660  225.1770 C   0  0  0  0  0  0  0  0  0  0  0  0
  139.7170   70.2710  226.0780 C   0  0  0  0  0  0  0  0  0  0  0  0
  140.0430   69.4420  227.1830 N   0  0  0  0  0  0  0  0  0  0  0  0
  141.0370   69.9530  228.0760 C   0  0  0  0  0  0  0  0  0  0  0  0
  140.2730   68.0670  226.7980 C   0  0  0  0  0  0  0  0  0  0  0  0
  138.5340   69.7930  225.2800 C   0  0  0  0  0  0  0  0  0  0  0  0
  138.2770   70.6180  224.0770 C   0  0  0  0  0  0  0  0  0  0  0  0
  140.2090   74.2570  221.9380 C   0  0  0  0  0  0  0  0  0  0  0  0
  141.0400   76.9940  222.8530 N   0  0  0  0  0  0  0  0  0  0  0  0
  139.8123   83.5106  221.0174 H   0  0  0  0  0  0  0  0  0  0  0  0
  141.3465   83.5825  220.0858 H   0  0  0  0  0  0  0  0  0  0  0  0
  140.3654   82.0777  220.0858 H   0  0  0  0  0  0  0  0  0  0  0  0
  141.0329   81.5033  224.2965 H   0  0  0  0  0  0  0  0  0  0  0  0
  140.8581   79.1061  224.8846 H   0  0  0  0  0  0  0  0  0  0  0  0
  141.5295   80.4528  220.1805 H   0  0  0  0  0  0  0  0  0  0  0  0
  140.5395   77.6287  219.9502 H   0  0  0  0  0  0  0  0  0  0  0  0
  142.2806   77.5555  220.1168 H   0  0  0  0  0  0  0  0  0  0  0  0
  142.8494   75.2330  220.0317 H   0  0  0  0  0  0  0  0  0  0  0  0
  142.8081   72.8047  219.5422 H   0  0  0  0  0  0  0  0  0  0  0  0
  141.1295   71.3219  220.5751 H   0  0  0  0  0  0  0  0  0  0  0  0
  141.4498   71.3568  223.3518 H   0  0  0  0  0  0  0  0  0  0  0  0
  140.7557   72.4119  224.6703 H   0  0  0  0  0  0  0  0  0  0  0  0
  141.1307   69.4030  224.6741 H   0  0  0  0  0  0  0  0  0  0  0  0
  141.8499   70.6088  225.7732 H   0  0  0  0  0  0  0  0  0  0  0  0
  139.4228   71.2543  226.4739 H   0  0  0  0  0  0  0  0  0  0  0  0
  140.7160   69.7880  229.1151 H   0  0  0  0  0  0  0  0  0  0  0  0
  141.9903   69.4332  227.8998 H   0  0  0  0  0  0  0  0  0  0  0  0
  141.1690   71.0307  227.8998 H   0  0  0  0  0  0  0  0  0  0  0  0
  140.3768   67.4461  227.7001 H   0  0  0  0  0  0  0  0  0  0  0  0
  139.4227   67.7064  226.2006 H   0  0  0  0  0  0  0  0  0  0  0  0
  141.1944   68.0027  226.2006 H   0  0  0  0  0  0  0  0  0  0  0  0
  138.7215   68.7570  224.9613 H   0  0  0  0  0  0  0  0  0  0  0  0
  137.6477   69.8691  225.9271 H   0  0  0  0  0  0  0  0  0  0  0  0
  137.9210   69.9454  223.2828 H   0  0  0  0  0  0  0  0  0  0  0  0
  137.5500   71.3775  224.4004 H   0  0  0  0  0  0  0  0  0  0  0  0
  139.4672   74.6895  222.6254 H   0  0  0  0  0  0  0  0  0  0  0  0
  1  2  1  0
  2  3  1  0
  3  4  2  0
  4  5  1  0
  5  6  2  0
  6  7  1  0
  7  8  2  0
  7  9  1  0
  9 10  1  0
 10 11  1  0
 11 12  2  0
 12 13  1  0
 13 14  2  0
 14 15  1  0
 15 16  1  0
 16 17  2  0
 16 18  1  0
 18 19  1  0
 19 20  1  0
 20 21  1  0
 21 22  1  0
 22 23  1  0
 22 24  1  0
 21 25  1  0
 25 26  1  0
 15 27  2  0
 10 28  2  0
  8  3  1  0
 27 11  1  0
 28  6  1  0
 26 18  1  0
  1 29  1  0
  1 30  1  0
  1 31  1  0
  4 32  1  0
  5 33  1  0
  8 34  1  0
  9 35  1  0
  9 36  1  0
 12 37  1  0
 13 38  1  0
 14 39  1  0
 19 40  1  0
 19 41  1  0
 20 42  1  0
 20 43  1  0
 21 44  1  0
 23 45  1  0
 23 46  1  0
 23 47  1  0
 24 48  1  0
 24 49  1  0
 24 50  1  0
 25 51  1  0
 25 52  1  0
 26 53  1  0
 26 54  1  0
 27 55  1  0
M  END
>  <smiles>  (8) 
COc1ccc2c(c1)CC(c1cccc(C(=O)N3CCC(N(C)C)CC3)c1)=N2

>  <score_type>  (8) 
oracle

>  <origin>  (8) 
autodockgpu

>  <m_score__min__energy>  (8) 
-7.4100000000000001

>  <m_primary>  (8) 
energy

>  <meeko>  (8) 
{"free_energy": -7.4, "intermolecular_energy": -8.59, "internal_energy": -0.85, "cluster_size": 19, "cluster_id": 1, "rank_in_cluster": 11}

>  <energy>  (8) 
-7.4

>  <cluster_rmsd>  (8) 
0.13

>  <rmsd>  (8) 
270.43

>  <cluster>  (8) 
1

$$$$

     RDKit          3D

 55 58  0  0  0  0  0  0  0  0999 V2000
  140.7670   82.8590  221.2410 C   0  0  0  0  0  0  0  0  0  0  0  0
  141.7640   82.0410  221.7940 O   0  0  0  0  0  0  0  0  0  0  0  0
  141.4660   80.7360  222.1340 C   0  0  0  0  0  0  0  0  0  0  0  0
  140.9420   80.3730  223.3670 C   0  0  0  0  0  0  0  0  0  0  0  0
  140.6570   79.0380  223.6660 C   0  0  0  0  0  0  0  0  0  0  0  0
  140.8810   78.0250  222.7490 C   0  0  0  0  0  0  0  0  0  0  0  0
  141.4050   78.4220  221.5260 C   0  0  0  0  0  0  0  0  0  0  0  0
  141.6890   79.7320  221.2260 C   0  0  0  0  0  0  0  0  0  0  0  0
  141.5680   77.1880  220.6960 C   0  0  0  0  0  0  0  0  0  0  0  0
  141.0810   76.1140  221.5960 C   0  0  0  0  0  0  0  0  0  0  0  0
  141.0070   74.6840  221.2940 C   0  0  0  0  0  0  0  0  0  0  0  0
  141.8520   74.1710  220.3370 C   0  0  0  0  0  0  0  0  0  0  0  0
  141.7770   72.8260  220.0760 C   0  0  0  0  0  0  0  0  0  0  0  0
  140.8840   71.9990  220.7500 C   0  0  0  0  0  0  0  0  0  0  0  0
  140.0390   72.4960  221.7030 C   0  0  0  0  0  0  0  0  0  0  0  0
  139.0840   71.7030  222.4610 C   0  0  0  0  0  0  0  0  0  0  0  0
  137.9310   71.5740  221.9270 O   0  0  0  0  0  0  0  0  0  0  0  0
  139.3880   71.0970  223.7250 N   0  0  0  0  0  0  0  0  0  0  0  0
  140.7160   71.2870  224.2640 C   0  0  0  0  0  0  0  0  0  0  0  0
  141.0630   70.3060  225.3620 C   0  0  0  0  0  0  0  0  0  0  0  0
  139.8600   70.2290  226.3150 C   0  0  0  0  0  0  0  0  0  0  0  0
  140.2640   69.5070  227.4680 N   0  0  0  0  0  0  0  0  0  0  0  0
  140.6740   68.1550  227.2480 C   0  0  0  0  0  0  0  0  0  0  0  0
  139.3340   69.6510  228.5670 C   0  0  0  0  0  0  0  0  0  0  0  0
  138.6740   69.6370  225.6030 C   0  0  0  0  0  0  0  0  0  0  0  0
  138.3370   70.3510  224.3500 C   0  0  0  0  0  0  0  0  0  0  0  0
  140.1190   73.8690  221.9650 C   0  0  0  0  0  0  0  0  0  0  0  0
  140.7130   76.6270  222.7200 N   0  0  0  0  0  0  0  0  0  0  0  0
  140.1905   83.3320  222.0496 H   0  0  0  0  0  0  0  0  0  0  0  0
  141.2341   83.6375  220.6199 H   0  0  0  0  0  0  0  0  0  0  0  0
  140.0948   82.2488  220.6199 H   0  0  0  0  0  0  0  0  0  0  0  0
  140.7478   81.1494  224.1216 H   0  0  0  0  0  0  0  0  0  0  0  0
  140.2446   78.7857  224.6541 H   0  0  0  0  0  0  0  0  0  0  0  0
  142.1035   79.9811  220.2380 H   0  0  0  0  0  0  0  0  0  0  0  0
  140.9595   77.2435  219.7813 H   0  0  0  0  0  0  0  0  0  0  0  0
  142.6008   77.0302  220.3519 H   0  0  0  0  0  0  0  0  0  0  0  0
  142.5627   74.8164  219.8000 H   0  0  0  0  0  0  0  0  0  0  0  0
  142.4401   72.3903  219.3141 H   0  0  0  0  0  0  0  0  0  0  0  0
  140.8573   70.9254  220.5117 H   0  0  0  0  0  0  0  0  0  0  0  0
  141.4440   71.1692  223.4479 H   0  0  0  0  0  0  0  0  0  0  0  0
  140.7470   72.2940  224.7056 H   0  0  0  0  0  0  0  0  0  0  0  0
  141.2628   69.3145  224.9295 H   0  0  0  0  0  0  0  0  0  0  0  0
  141.9631   70.6343  225.9025 H   0  0  0  0  0  0  0  0  0  0  0  0
  139.5330   71.2265  226.6438 H   0  0  0  0  0  0  0  0  0  0  0  0
  140.8254   67.6556  228.2163 H   0  0  0  0  0  0  0  0  0  0  0  0
  139.8965   67.6240  226.6792 H   0  0  0  0  0  0  0  0  0  0  0  0
  141.6155   68.1453  226.6792 H   0  0  0  0  0  0  0  0  0  0  0  0
  139.8768   69.5670  229.5201 H   0  0  0  0  0  0  0  0  0  0  0  0
  138.8465   70.6353  228.5082 H   0  0  0  0  0  0  0  0  0  0  0  0
  138.5717   68.8602  228.5082 H   0  0  0  0  0  0  0  0  0  0  0  0
  138.8988   68.5881  225.3594 H   0  0  0  0  0  0  0  0  0  0  0  0
  137.8081   69.7252  226.2756 H   0  0  0  0  0  0  0  0  0  0  0  0
  137.9852   69.6020  223.6253 H   0  0  0  0  0  0  0  0  0  0  0  0
  137.5874   71.1016  224.6411 H   0  0  0  0  0  0  0  0  0  0  0  0
  139.4569   74.3091  222.7252 H   0  0  0  0  0  0  0  0  0  0  0  0
  1  2  1  0
  2  3  1  0
  3  4  2  0
  4  5  1  0
  5  6  2  0
  6  7  1  0
  7  8  2  0
  7  9  1  0
  9 10  1  0
 10 11  1  0
 11 12  2  0
 12 13  1  0
 13 14  2  0
 14 15  1  0
 15 16  1  0
 16 17  2  0
 16 18  1  0
 18 19  1  0
 19 20  1  0
 20 21  1  0
 21 22  1  0
 22 23  1  0
 22 24  1  0
 21 25  1  0
 25 26  1  0
 15 27  2  0
 10 28  2  0
  8  3  1  0
 27 11  1  0
 28  6  1  0
 26 18  1  0
  1 29  1  0
  1 30  1  0
  1 31  1  0
  4 32  1  0
  5 33  1  0
  8 34  1  0
  9 35  1  0
  9 36  1  0
 12 37  1  0
 13 38  1  0
 14 39  1  0
 19 40  1  0
 19 41  1  0
 20 42  1  0
 20 43  1  0
 21 44  1  0
 23 45  1  0
 23 46  1  0
 23 47  1  0
 24 48  1  0
 24 49  1  0
 24 50  1  0
 25 51  1  0
 25 52  1  0
 26 53  1  0
 26 54  1  0
 27 55  1  0
M  END
>  <smiles>  (9) 
COc1ccc2c(c1)CC(c1cccc(C(=O)N3CCC(N(C)C)CC3)c1)=N2

>  <score_type>  (9) 
oracle

>  <origin>  (9) 
autodockgpu

>  <m_score__min__energy>  (9) 
-7.4100000000000001

>  <m_primary>  (9) 
energy

>  <meeko>  (9) 
{"free_energy": -7.39, "intermolecular_energy": -8.58, "internal_energy": -0.85, "cluster_size": 19, "cluster_id": 1, "rank_in_cluster": 15}

>  <energy>  (9) 
-7.4

>  <cluster_rmsd>  (9) 
0.24

>  <rmsd>  (9) 
270.44

>  <cluster>  (9) 
1

$$$$

     RDKit          3D

 55 58  0  0  0  0  0  0  0  0999 V2000
  140.7000   83.1060  221.0610 C   0  0  0  0  0  0  0  0  0  0  0  0
  141.5120   82.3920  221.9560 O   0  0  0  0  0  0  0  0  0  0  0  0
  141.2120   81.0760  222.2490 C   0  0  0  0  0  0  0  0  0  0  0  0
  140.5290   80.6890  223.3940 C   0  0  0  0  0  0  0  0  0  0  0  0
  140.2480   79.3450  223.6480 C   0  0  0  0  0  0  0  0  0  0  0  0
  140.6350   78.3440  222.7730 C   0  0  0  0  0  0  0  0  0  0  0  0
  141.3150   78.7640  221.6380 C   0  0  0  0  0  0  0  0  0  0  0  0
  141.5960   80.0830  221.3810 C   0  0  0  0  0  0  0  0  0  0  0  0
  141.6360   77.5400  220.8390 C   0  0  0  0  0  0  0  0  0  0  0  0
  141.0610   76.4460  221.6600 C   0  0  0  0  0  0  0  0  0  0  0  0
  141.0790   75.0160  221.3510 C   0  0  0  0  0  0  0  0  0  0  0  0
  142.0380   74.5440  220.4840 C   0  0  0  0  0  0  0  0  0  0  0  0
  142.0460   73.1980  220.2140 C   0  0  0  0  0  0  0  0  0  0  0  0
  141.1250   72.3310  220.7930 C   0  0  0  0  0  0  0  0  0  0  0  0
  140.1670   72.7870  221.6560 C   0  0  0  0  0  0  0  0  0  0  0  0
  139.1740   71.9510  222.3120 C   0  0  0  0  0  0  0  0  0  0  0  0
  138.0560   71.8480  221.7040 O   0  0  0  0  0  0  0  0  0  0  0  0
  139.4070   71.2770  223.5560 N   0  0  0  0  0  0  0  0  0  0  0  0
  140.7000   71.4410  224.1820 C   0  0  0  0  0  0  0  0  0  0  0  0
  140.9890   70.4030  225.2440 C   0  0  0  0  0  0  0  0  0  0  0  0
  139.7320   70.2690  226.1180 C   0  0  0  0  0  0  0  0  0  0  0  0
  140.0720   69.4870  227.2520 N   0  0  0  0  0  0  0  0  0  0  0  0
  140.9930   70.0830  228.1700 C   0  0  0  0  0  0  0  0  0  0  0  0
  140.4100   68.1240  226.9060 C   0  0  0  0  0  0  0  0  0  0  0  0
  138.5940   69.7140  225.3060 C   0  0  0  0  0  0  0  0  0  0  0  0
  138.3260   70.4940  224.0760 C   0  0  0  0  0  0  0  0  0  0  0  0
  140.1620   74.1610  221.9260 C   0  0  0  0  0  0  0  0  0  0  0  0
  140.5190   76.9410  222.7200 N   0  0  0  0  0  0  0  0  0  0  0  0
  139.9913   83.7292  221.6261 H   0  0  0  0  0  0  0  0  0  0  0  0
  141.3293   83.7487  220.4277 H   0  0  0  0  0  0  0  0  0  0  0  0
  140.1431   82.3997  220.4277 H   0  0  0  0  0  0  0  0  0  0  0  0
  140.2035   81.4545  224.1137 H   0  0  0  0  0  0  0  0  0  0  0  0
  139.7057   79.0747  224.5661 H   0  0  0  0  0  0  0  0  0  0  0  0
  142.1391   80.3498  220.4624 H   0  0  0  0  0  0  0  0  0  0  0  0
  141.1631   77.5802  219.8467 H   0  0  0  0  0  0  0  0  0  0  0  0
  142.7120   77.4179  220.6460 H   0  0  0  0  0  0  0  0  0  0  0  0
  142.7722   75.2214  220.0236 H   0  0  0  0  0  0  0  0  0  0  0  0
  142.8001   72.7947  219.5221 H   0  0  0  0  0  0  0  0  0  0  0  0
  141.1680   71.2585  220.5522 H   0  0  0  0  0  0  0  0  0  0  0  0
  141.4752   71.3700  223.4049 H   0  0  0  0  0  0  0  0  0  0  0  0
  140.6982   72.4224  224.6789 H   0  0  0  0  0  0  0  0  0  0  0  0
  141.2216   69.4374  224.7711 H   0  0  0  0  0  0  0  0  0  0  0  0
  141.8530   70.7051  225.8541 H   0  0  0  0  0  0  0  0  0  0  0  0
  139.3791   71.2457  226.4807 H   0  0  0  0  0  0  0  0  0  0  0  0
  140.6703   69.8742  229.2007 H   0  0  0  0  0  0  0  0  0  0  0  0
  141.9964   69.6625  228.0076 H   0  0  0  0  0  0  0  0  0  0  0  0
  141.0205   71.1706  228.0076 H   0  0  0  0  0  0  0  0  0  0  0  0
  140.5554   67.5376  227.8253 H   0  0  0  0  0  0  0  0  0  0  0  0
  139.5941   67.6827  226.3148 H   0  0  0  0  0  0  0  0  0  0  0  0
  141.3376   68.1150  226.3148 H   0  0  0  0  0  0  0  0  0  0  0  0
  138.8393   68.6807  225.0193 H   0  0  0  0  0  0  0  0  0  0  0  0
  137.6897   69.7634  225.9303 H   0  0  0  0  0  0  0  0  0  0  0  0
  138.0227   69.7844  223.2921 H   0  0  0  0  0  0  0  0  0  0  0  0
  137.5550   71.2245  224.3623 H   0  0  0  0  0  0  0  0  0  0  0  0
  139.4073   74.5690  222.6144 H   0  0  0  0  0  0  0  0  0  0  0  0
  1  2  1  0
  2  3  1  0
  3  4  2  0
  4  5  1  0
  5  6  2  0
  6  7  1  0
  7  8  2  0
  7  9  1  0
  9 10  1  0
 10 11  1  0
 11 12  2  0
 12 13  1  0
 13 14  2  0
 14 15  1  0
 15 16  1  0
 16 17  2  0
 16 18  1  0
 18 19  1  0
 19 20  1  0
 20 21  1  0
 21 22  1  0
 22 23  1  0
 22 24  1  0
 21 25  1  0
 25 26  1  0
 15 27  2  0
 10 28  2  0
  8  3  1  0
 27 11  1  0
 28  6  1  0
 26 18  1  0
  1 29  1  0
  1 30  1  0
  1 31  1  0
  4 32  1  0
  5 33  1  0
  8 34  1  0
  9 35  1  0
  9 36  1  0
 12 37  1  0
 13 38  1  0
 14 39  1  0
 19 40  1  0
 19 41  1  0
 20 42  1  0
 20 43  1  0
 21 44  1  0
 23 45  1  0
 23 46  1  0
 23 47  1  0
 24 48  1  0
 24 49  1  0
 24 50  1  0
 25 51  1  0
 25 52  1  0
 26 53  1  0
 26 54  1  0
 27 55  1  0
M  END
>  <smiles>  (10) 
COc1ccc2c(c1)CC(c1cccc(C(=O)N3CCC(N(C)C)CC3)c1)=N2

>  <score_type>  (10) 
oracle

>  <origin>  (10) 
autodockgpu

>  <m_score__min__energy>  (10) 
-7.4100000000000001

>  <m_primary>  (10) 
energy

>  <meeko>  (10) 
{"free_energy": -7.41, "intermolecular_energy": -8.61, "internal_energy": -0.85, "cluster_size": 19, "cluster_id": 1, "rank_in_cluster": 2}

>  <energy>  (10) 
-7.4

>  <cluster_rmsd>  (10) 
0.2

>  <rmsd>  (10) 
270.44

>  <cluster>  (10) 
1

$$$$

     RDKit          3D

 55 58  0  0  0  0  0  0  0  0999 V2000
  140.5830   83.0590  220.9490 C   0  0  0  0  0  0  0  0  0  0  0  0
  141.4450   82.4500  221.8740 O   0  0  0  0  0  0  0  0  0  0  0  0
  141.2480   81.1280  222.2220 C   0  0  0  0  0  0  0  0  0  0  0  0
  140.8360   80.7270  223.4850 C   0  0  0  0  0  0  0  0  0  0  0  0
  140.6510   79.3770  223.7900 C   0  0  0  0  0  0  0  0  0  0  0  0
  140.8690   78.3840  222.8500 C   0  0  0  0  0  0  0  0  0  0  0  0
  141.2800   78.8180  221.5970 C   0  0  0  0  0  0  0  0  0  0  0  0
  141.4650   80.1430  221.2900 C   0  0  0  0  0  0  0  0  0  0  0  0
  141.4560   77.6000  220.7450 C   0  0  0  0  0  0  0  0  0  0  0  0
  141.0980   76.4940  221.6670 C   0  0  0  0  0  0  0  0  0  0  0  0
  141.0880   75.0640  221.3570 C   0  0  0  0  0  0  0  0  0  0  0  0
  142.0270   74.5760  220.4780 C   0  0  0  0  0  0  0  0  0  0  0  0
  142.0090   73.2300  220.2090 C   0  0  0  0  0  0  0  0  0  0  0  0
  141.0800   72.3790  220.7990 C   0  0  0  0  0  0  0  0  0  0  0  0
  140.1410   72.8510  221.6740 C   0  0  0  0  0  0  0  0  0  0  0  0
  139.1420   72.0320  222.3420 C   0  0  0  0  0  0  0  0  0  0  0  0
  138.0070   71.9680  221.7610 O   0  0  0  0  0  0  0  0  0  0  0  0
  139.3880   71.3330  223.5700 N   0  0  0  0  0  0  0  0  0  0  0  0
  140.7000   71.4530  224.1660 C   0  0  0  0  0  0  0  0  0  0  0  0
  140.9860   70.3910  225.2050 C   0  0  0  0  0  0  0  0  0  0  0  0
  139.7480   70.2780  226.1090 C   0  0  0  0  0  0  0  0  0  0  0  0
  140.0940   69.4690  227.2220 N   0  0  0  0  0  0  0  0  0  0  0  0
  141.0170   70.0450  228.1510 C   0  0  0  0  0  0  0  0  0  0  0  0
  140.4360   68.1160  226.8420 C   0  0  0  0  0  0  0  0  0  0  0  0
  138.5750   69.7660  225.3170 C   0  0  0  0  0  0  0  0  0  0  0  0
  138.2990   70.5720  224.1060 C   0  0  0  0  0  0  0  0  0  0  0  0
  140.1630   74.2250  221.9440 C   0  0  0  0  0  0  0  0  0  0  0  0
  140.7820   76.9780  222.8190 N   0  0  0  0  0  0  0  0  0  0  0  0
  139.7995   83.6125  221.4873 H   0  0  0  0  0  0  0  0  0  0  0  0
  141.1552   83.7545  220.3174 H   0  0  0  0  0  0  0  0  0  0  0  0
  140.1187   82.2874  220.3174 H   0  0  0  0  0  0  0  0  0  0  0  0
  140.6519   81.4860  224.2596 H   0  0  0  0  0  0  0  0  0  0  0  0
  140.3241   79.0955  224.8018 H   0  0  0  0  0  0  0  0  0  0  0  0
  141.7935   80.4213  220.2777 H   0  0  0  0  0  0  0  0  0  0  0  0
  140.7819   77.6244  219.8761 H   0  0  0  0  0  0  0  0  0  0  0  0
  142.4692   77.5056  220.3272 H   0  0  0  0  0  0  0  0  0  0  0  0
  142.7662   75.2409  220.0073 H   0  0  0  0  0  0  0  0  0  0  0  0
  142.7482   72.8136  219.5089 H   0  0  0  0  0  0  0  0  0  0  0  0
  141.1011   71.3061  220.5571 H   0  0  0  0  0  0  0  0  0  0  0  0
  141.4539   71.3734  223.3690 H   0  0  0  0  0  0  0  0  0  0  0  0
  140.7374   72.4264  224.6770 H   0  0  0  0  0  0  0  0  0  0  0  0
  141.1795   69.4268  224.7121 H   0  0  0  0  0  0  0  0  0  0  0  0
  141.8730   70.6599  225.7974 H   0  0  0  0  0  0  0  0  0  0  0  0
  139.4318   71.2582  226.4953 H   0  0  0  0  0  0  0  0  0  0  0  0
  140.6822   69.8361  229.1778 H   0  0  0  0  0  0  0  0  0  0  0  0
  142.0147   69.6089  227.9948 H   0  0  0  0  0  0  0  0  0  0  0  0
  141.0637   71.1328  227.9948 H   0  0  0  0  0  0  0  0  0  0  0  0
  140.5895   67.5088  227.7463 H   0  0  0  0  0  0  0  0  0  0  0  0
  139.6186   67.6850  226.2453 H   0  0  0  0  0  0  0  0  0  0  0  0
  141.3601   68.1252  226.2453 H   0  0  0  0  0  0  0  0  0  0  0  0
  138.7848   68.7310  225.0090 H   0  0  0  0  0  0  0  0  0  0  0  0
  137.6878   69.8298  225.9642 H   0  0  0  0  0  0  0  0  0  0  0  0
  137.9566   69.8832  223.3197 H   0  0  0  0  0  0  0  0  0  0  0  0
  137.5565   71.3192  224.4228 H   0  0  0  0  0  0  0  0  0  0  0  0
  139.4242   74.6461  222.6417 H   0  0  0  0  0  0  0  0  0  0  0  0
  1  2  1  0
  2  3  1  0
  3  4  2  0
  4  5  1  0
  5  6  2  0
  6  7  1  0
  7  8  2  0
  7  9  1  0
  9 10  1  0
 10 11  1  0
 11 12  2  0
 12 13  1  0
 13 14  2  0
 14 15  1  0
 15 16  1  0
 16 17  2  0
 16 18  1  0
 18 19  1  0
 19 20  1  0
 20 21  1  0
 21 22  1  0
 22 23  1  0
 22 24  1  0
 21 25  1  0
 25 26  1  0
 15 27  2  0
 10 28  2  0
  8  3  1  0
 27 11  1  0
 28  6  1  0
 26 18  1  0
  1 29  1  0
  1 30  1  0
  1 31  1  0
  4 32  1  0
  5 33  1  0
  8 34  1  0
  9 35  1  0
  9 36  1  0
 12 37  1  0
 13 38  1  0
 14 39  1  0
 19 40  1  0
 19 41  1  0
 20 42  1  0
 20 43  1  0
 21 44  1  0
 23 45  1  0
 23 46  1  0
 23 47  1  0
 24 48  1  0
 24 49  1  0
 24 50  1  0
 25 51  1  0
 25 52  1  0
 26 53  1  0
 26 54  1  0
 27 55  1  0
M  END
>  <smiles>  (11) 
COc1ccc2c(c1)CC(c1cccc(C(=O)N3CCC(N(C)C)CC3)c1)=N2

>  <score_type>  (11) 
oracle

>  <origin>  (11) 
autodockgpu

>  <m_score__min__energy>  (11) 
-7.4100000000000001

>  <m_primary>  (11) 
energy

>  <meeko>  (11) 
{"free_energy": -7.41, "intermolecular_energy": -8.6, "internal_energy": -0.85, "cluster_size": 19, "cluster_id": 1, "rank_in_cluster": 4}

>  <energy>  (11) 
-7.4

>  <cluster_rmsd>  (11) 
0.27

>  <rmsd>  (11) 
270.42

>  <cluster>  (11) 
1

$$$$

     RDKit          3D

 55 58  0  0  0  0  0  0  0  0999 V2000
  140.6730   83.0400  220.8500 C   0  0  0  0  0  0  0  0  0  0  0  0
  141.4760   82.5140  221.8740 O   0  0  0  0  0  0  0  0  0  0  0  0
  141.3440   81.1860  222.2310 C   0  0  0  0  0  0  0  0  0  0  0  0
  141.1580   80.7660  223.5400 C   0  0  0  0  0  0  0  0  0  0  0  0
  141.0300   79.4110  223.8530 C   0  0  0  0  0  0  0  0  0  0  0  0
  141.0830   78.4320  222.8740 C   0  0  0  0  0  0  0  0  0  0  0  0
  141.2700   78.8860  221.5760 C   0  0  0  0  0  0  0  0  0  0  0  0
  141.3970   80.2160  221.2610 C   0  0  0  0  0  0  0  0  0  0  0  0
  141.2970   77.6810  220.6890 C   0  0  0  0  0  0  0  0  0  0  0  0
  141.1060   76.5600  221.6420 C   0  0  0  0  0  0  0  0  0  0  0  0
  141.0430   75.1350  221.3180 C   0  0  0  0  0  0  0  0  0  0  0  0
  141.9220   74.6350  220.3840 C   0  0  0  0  0  0  0  0  0  0  0  0
  141.8560   73.2930  220.1020 C   0  0  0  0  0  0  0  0  0  0  0  0
  140.9390   72.4580  220.7310 C   0  0  0  0  0  0  0  0  0  0  0  0
  140.0600   72.9420  221.6610 C   0  0  0  0  0  0  0  0  0  0  0  0
  139.0780   72.1390  222.3720 C   0  0  0  0  0  0  0  0  0  0  0  0
  137.9120   72.1110  221.8530 O   0  0  0  0  0  0  0  0  0  0  0  0
  139.3710   71.4190  223.5770 N   0  0  0  0  0  0  0  0  0  0  0  0
  140.7160   71.4990  224.1030 C   0  0  0  0  0  0  0  0  0  0  0  0
  141.0310   70.4170  225.1130 C   0  0  0  0  0  0  0  0  0  0  0  0
  139.8400   70.3230  226.0800 C   0  0  0  0  0  0  0  0  0  0  0  0
  140.2250   69.4920  227.1640 N   0  0  0  0  0  0  0  0  0  0  0  0
  140.3390   68.0970  226.8730 C   0  0  0  0  0  0  0  0  0  0  0  0
  139.4720   69.7650  228.3690 C   0  0  0  0  0  0  0  0  0  0  0  0
  138.6140   69.8500  225.3480 C   0  0  0  0  0  0  0  0  0  0  0  0
  138.2940   70.6780  224.1620 C   0  0  0  0  0  0  0  0  0  0  0  0
  140.1300   74.3110  221.9440 C   0  0  0  0  0  0  0  0  0  0  0  0
  140.9930   77.0270  222.8390 N   0  0  0  0  0  0  0  0  0  0  0  0
  139.8303   83.5920  221.2918 H   0  0  0  0  0  0  0  0  0  0  0  0
  141.2718   83.7214  220.2279 H   0  0  0  0  0  0  0  0  0  0  0  0
  140.2875   82.2188  220.2279 H   0  0  0  0  0  0  0  0  0  0  0  0
  141.1105   81.5134  224.3456 H   0  0  0  0  0  0  0  0  0  0  0  0
  140.8836   79.1139  224.9019 H   0  0  0  0  0  0  0  0  0  0  0  0
  141.5441   80.5102  220.2113 H   0  0  0  0  0  0  0  0  0  0  0  0
  140.4823   77.7153  219.9507 H   0  0  0  0  0  0  0  0  0  0  0  0
  142.2227   77.5967  220.1008 H   0  0  0  0  0  0  0  0  0  0  0  0
  142.6513   75.2874  219.8815 H   0  0  0  0  0  0  0  0  0  0  0  0
  142.5465   72.8672  219.3591 H   0  0  0  0  0  0  0  0  0  0  0  0
  140.9200   71.3881  220.4760 H   0  0  0  0  0  0  0  0  0  0  0  0
  141.4238   71.4112  223.2656 H   0  0  0  0  0  0  0  0  0  0  0  0
  140.8049   72.4645  224.6226 H   0  0  0  0  0  0  0  0  0  0  0  0
  141.1741   69.4548  224.5996 H   0  0  0  0  0  0  0  0  0  0  0  0
  141.9548   70.6563  225.6601 H   0  0  0  0  0  0  0  0  0  0  0  0
  139.5691   71.3061  226.4924 H   0  0  0  0  0  0  0  0  0  0  0  0
  140.3854   67.5288  227.8137 H   0  0  0  0  0  0  0  0  0  0  0  0
  139.4645   67.7713  226.2907 H   0  0  0  0  0  0  0  0  0  0  0  0
  141.2548   67.9176  226.2907 H   0  0  0  0  0  0  0  0  0  0  0  0
  140.0932   69.5398  229.2485 H   0  0  0  0  0  0  0  0  0  0  0  0
  139.1813   70.8257  228.3873 H   0  0  0  0  0  0  0  0  0  0  0  0
  138.5691   69.1370  228.3873 H   0  0  0  0  0  0  0  0  0  0  0  0
  138.7804   68.8140  225.0179 H   0  0  0  0  0  0  0  0  0  0  0  0
  137.7648   69.9275  226.0429 H   0  0  0  0  0  0  0  0  0  0  0  0
  137.8932   70.0076  223.3875 H   0  0  0  0  0  0  0  0  0  0  0  0
  137.5884   71.4390  224.5267 H   0  0  0  0  0  0  0  0  0  0  0  0
  139.4395   74.7411  222.6844 H   0  0  0  0  0  0  0  0  0  0  0  0
  1  2  1  0
  2  3  1  0
  3  4  2  0
  4  5  1  0
  5  6  2  0
  6  7  1  0
  7  8  2  0
  7  9  1  0
  9 10  1  0
 10 11  1  0
 11 12  2  0
 12 13  1  0
 13 14  2  0
 14 15  1  0
 15 16  1  0
 16 17  2  0
 16 18  1  0
 18 19  1  0
 19 20  1  0
 20 21  1  0
 21 22  1  0
 22 23  1  0
 22 24  1  0
 21 25  1  0
 25 26  1  0
 15 27  2  0
 10 28  2  0
  8  3  1  0
 27 11  1  0
 28  6  1  0
 26 18  1  0
  1 29  1  0
  1 30  1  0
  1 31  1  0
  4 32  1  0
  5 33  1  0
  8 34  1  0
  9 35  1  0
  9 36  1  0
 12 37  1  0
 13 38  1  0
 14 39  1  0
 19 40  1  0
 19 41  1  0
 20 42  1  0
 20 43  1  0
 21 44  1  0
 23 45  1  0
 23 46  1  0
 23 47  1  0
 24 48  1  0
 24 49  1  0
 24 50  1  0
 25 51  1  0
 25 52  1  0
 26 53  1  0
 26 54  1  0
 27 55  1  0
M  END
>  <smiles>  (12) 
COc1ccc2c(c1)CC(c1cccc(C(=O)N3CCC(N(C)C)CC3)c1)=N2

>  <score_type>  (12) 
oracle

>  <origin>  (12) 
autodockgpu

>  <m_score__min__energy>  (12) 
-7.4100000000000001

>  <m_primary>  (12) 
energy

>  <meeko>  (12) 
{"free_energy": -7.4, "intermolecular_energy": -8.59, "internal_energy": -0.85, "cluster_size": 19, "cluster_id": 1, "rank_in_cluster": 13}

>  <energy>  (12) 
-7.4

>  <cluster_rmsd>  (12) 
0.15

>  <rmsd>  (12) 
270.38

>  <cluster>  (12) 
1

$$$$

     RDKit          3D

 55 58  0  0  0  0  0  0  0  0999 V2000
  137.3300   81.2860  225.1960 C   0  0  0  0  0  0  0  0  0  0  0  0
  138.0500   81.4750  224.0060 O   0  0  0  0  0  0  0  0  0  0  0  0
  138.9710   80.5250  223.6080 C   0  0  0  0  0  0  0  0  0  0  0  0
  140.3390   80.7590  223.5780 C   0  0  0  0  0  0  0  0  0  0  0  0
  141.2320   79.7670  223.1670 C   0  0  0  0  0  0  0  0  0  0  0  0
  140.7950   78.5130  222.7740 C   0  0  0  0  0  0  0  0  0  0  0  0
  139.4220   78.3120  222.8160 C   0  0  0  0  0  0  0  0  0  0  0  0
  138.5370   79.2820  223.2180 C   0  0  0  0  0  0  0  0  0  0  0  0
  139.1680   76.9100  222.3580 C   0  0  0  0  0  0  0  0  0  0  0  0
  140.5320   76.4000  222.0750 C   0  0  0  0  0  0  0  0  0  0  0  0
  140.8860   75.0630  221.5970 C   0  0  0  0  0  0  0  0  0  0  0  0
  141.9910   74.9260  220.7890 C   0  0  0  0  0  0  0  0  0  0  0  0
  142.3150   73.6630  220.3600 C   0  0  0  0  0  0  0  0  0  0  0  0
  141.5610   72.5520  220.7250 C   0  0  0  0  0  0  0  0  0  0  0  0
  140.4610   72.6740  221.5270 C   0  0  0  0  0  0  0  0  0  0  0  0
  139.6240   71.5670  221.9640 C   0  0  0  0  0  0  0  0  0  0  0  0
  138.7880   71.1380  221.1000 O   0  0  0  0  0  0  0  0  0  0  0  0
  139.7120   70.9790  223.2690 N   0  0  0  0  0  0  0  0  0  0  0  0
  140.6860   71.5190  224.1900 C   0  0  0  0  0  0  0  0  0  0  0  0
  140.9800   70.6030  225.3590 C   0  0  0  0  0  0  0  0  0  0  0  0
  139.6360   70.0830  225.8910 C   0  0  0  0  0  0  0  0  0  0  0  0
  139.8810   69.4250  227.1240 N   0  0  0  0  0  0  0  0  0  0  0  0
  140.7000   70.1340  228.0590 C   0  0  0  0  0  0  0  0  0  0  0  0
  140.2770   68.0450  226.9490 C   0  0  0  0  0  0  0  0  0  0  0  0
  138.9680   69.2190  224.8560 C   0  0  0  0  0  0  0  0  0  0  0  0
  138.8140   69.8980  223.5490 C   0  0  0  0  0  0  0  0  0  0  0  0
  140.1340   73.9650  221.9610 C   0  0  0  0  0  0  0  0  0  0  0  0
  141.3980   77.3230  222.3200 N   0  0  0  0  0  0  0  0  0  0  0  0
  137.9924   81.4599  226.0569 H   0  0  0  0  0  0  0  0  0  0  0  0
  136.4887   81.9937  225.2319 H   0  0  0  0  0  0  0  0  0  0  0  0
  136.9447   80.2563  225.2319 H   0  0  0  0  0  0  0  0  0  0  0  0
  140.7262   81.7424  223.8831 H   0  0  0  0  0  0  0  0  0  0  0  0
  142.3097   79.9872  223.1551 H   0  0  0  0  0  0  0  0  0  0  0  0
  137.4599   79.0590  223.2278 H   0  0  0  0  0  0  0  0  0  0  0  0
  138.6804   76.3185  223.1469 H   0  0  0  0  0  0  0  0  0  0  0  0
  138.4946   76.8524  221.4901 H   0  0  0  0  0  0  0  0  0  0  0  0
  142.5940   75.7984  220.4968 H   0  0  0  0  0  0  0  0  0  0  0  0
  143.1928   73.5257  219.7114 H   0  0  0  0  0  0  0  0  0  0  0  0
  141.8558   71.5566  220.3612 H   0  0  0  0  0  0  0  0  0  0  0  0
  141.6231   71.6968  223.6420 H   0  0  0  0  0  0  0  0  0  0  0  0
  140.2634   72.4470  224.6027 H   0  0  0  0  0  0  0  0  0  0  0  0
  141.6036   69.7598  225.0272 H   0  0  0  0  0  0  0  0  0  0  0  0
  141.5239   71.1446  226.1469 H   0  0  0  0  0  0  0  0  0  0  0  0
  138.9286   70.9028  226.0846 H   0  0  0  0  0  0  0  0  0  0  0  0
  140.3975   69.8721  229.0837 H   0  0  0  0  0  0  0  0  0  0  0  0
  141.7539   69.8584  227.9060 H   0  0  0  0  0  0  0  0  0  0  0  0
  140.5782   71.2165  227.9060 H   0  0  0  0  0  0  0  0  0  0  0  0
  140.4120   67.5745  227.9341 H   0  0  0  0  0  0  0  0  0  0  0  0
  139.4968   67.5077  226.3899 H   0  0  0  0  0  0  0  0  0  0  0  0
  141.2234   68.0032  226.3899 H   0  0  0  0  0  0  0  0  0  0  0  0
  139.5745   68.3128  224.7112 H   0  0  0  0  0  0  0  0  0  0  0  0
  137.9592   68.9826  225.2254 H   0  0  0  0  0  0  0  0  0  0  0  0
  138.9508   69.1406  222.7631 H   0  0  0  0  0  0  0  0  0  0  0  0
  137.8148   70.3569  223.5808 H   0  0  0  0  0  0  0  0  0  0  0  0
  139.2559   74.1070  222.6081 H   0  0  0  0  0  0  0  0  0  0  0  0
  1  2  1  0
  2  3  1  0
  3  4  2  0
  4  5  1  0
  5  6  2  0
  6  7  1  0
  7  8  2  0
  7  9  1  0
  9 10  1  0
 10 11  1  0
 11 12  2  0
 12 13  1  0
 13 14  2  0
 14 15  1  0
 15 16  1  0
 16 17  2  0
 16 18  1  0
 18 19  1  0
 19 20  1  0
 20 21  1  0
 21 22  1  0
 22 23  1  0
 22 24  1  0
 21 25  1  0
 25 26  1  0
 15 27  2  0
 10 28  2  0
  8  3  1  0
 27 11  1  0
 28  6  1  0
 26 18  1  0
  1 29  1  0
  1 30  1  0
  1 31  1  0
  4 32  1  0
  5 33  1  0
  8 34  1  0
  9 35  1  0
  9 36  1  0
 12 37  1  0
 13 38  1  0
 14 39  1  0
 19 40  1  0
 19 41  1  0
 20 42  1  0
 20 43  1  0
 21 44  1  0
 23 45  1  0
 23 46  1  0
 23 47  1  0
 24 48  1  0
 24 49  1  0
 24 50  1  0
 25 51  1  0
 25 52  1  0
 26 53  1  0
 26 54  1  0
 27 55  1  0
M  END
>  <smiles>  (13) 
COc1ccc2c(c1)CC(c1cccc(C(=O)N3CCC(N(C)C)CC3)c1)=N2

>  <score_type>  (13) 
oracle

>  <origin>  (13) 
autodockgpu

>  <m_score__min__energy>  (13) 
-7.4100000000000001

>  <m_primary>  (13) 
energy

>  <meeko>  (13) 
{"free_energy": -7.37, "intermolecular_energy": -8.57, "internal_energy": -0.85, "cluster_size": 19, "cluster_id": 1, "rank_in_cluster": 19}

>  <energy>  (13) 
-7.4

>  <cluster_rmsd>  (13) 
0.41

>  <rmsd>  (13) 
270.42

>  <cluster>  (13) 
1

$$$$

     RDKit          3D

 55 58  0  0  0  0  0  0  0  0999 V2000
  137.3190   81.2890  225.1230 C   0  0  0  0  0  0  0  0  0  0  0  0
  138.0730   81.5180  223.9620 O   0  0  0  0  0  0  0  0  0  0  0  0
  138.9950   80.5760  223.5490 C   0  0  0  0  0  0  0  0  0  0  0  0
  140.3560   80.8330  223.4570 C   0  0  0  0  0  0  0  0  0  0  0  0
  141.2500   79.8470  223.0340 C   0  0  0  0  0  0  0  0  0  0  0  0
  140.8210   78.5760  222.6900 C   0  0  0  0  0  0  0  0  0  0  0  0
  139.4550   78.3520  222.7930 C   0  0  0  0  0  0  0  0  0  0  0  0
  138.5690   79.3160  223.2080 C   0  0  0  0  0  0  0  0  0  0  0  0
  139.2090   76.9350  222.3810 C   0  0  0  0  0  0  0  0  0  0  0  0
  140.5700   76.4410  222.0540 C   0  0  0  0  0  0  0  0  0  0  0  0
  140.9290   75.1000  221.5950 C   0  0  0  0  0  0  0  0  0  0  0  0
  142.0520   74.9520  220.8140 C   0  0  0  0  0  0  0  0  0  0  0  0
  142.3810   73.6850  220.4030 C   0  0  0  0  0  0  0  0  0  0  0  0
  141.6140   72.5800  220.7580 C   0  0  0  0  0  0  0  0  0  0  0  0
  140.4950   72.7120  221.5330 C   0  0  0  0  0  0  0  0  0  0  0  0
  139.6440   71.6120  221.9580 C   0  0  0  0  0  0  0  0  0  0  0  0
  138.8040   71.2010  221.0890 O   0  0  0  0  0  0  0  0  0  0  0  0
  139.7210   71.0110  223.2580 N   0  0  0  0  0  0  0  0  0  0  0  0
  140.7000   71.5310  224.1860 C   0  0  0  0  0  0  0  0  0  0  0  0
  140.9790   70.6010  225.3470 C   0  0  0  0  0  0  0  0  0  0  0  0
  139.6270   70.0930  225.8720 C   0  0  0  0  0  0  0  0  0  0  0  0
  139.8620   69.4220  227.1000 N   0  0  0  0  0  0  0  0  0  0  0  0
  140.6810   70.1150  228.0460 C   0  0  0  0  0  0  0  0  0  0  0  0
  140.2490   68.0400  226.9130 C   0  0  0  0  0  0  0  0  0  0  0  0
  138.9510   69.2470  224.8270 C   0  0  0  0  0  0  0  0  0  0  0  0
  138.8090   69.9390  223.5260 C   0  0  0  0  0  0  0  0  0  0  0  0
  140.1640   74.0070  221.9490 C   0  0  0  0  0  0  0  0  0  0  0  0
  141.4270   77.3870  222.2410 N   0  0  0  0  0  0  0  0  0  0  0  0
  137.9430   81.4785  226.0088 H   0  0  0  0  0  0  0  0  0  0  0  0
  136.4504   81.9639  225.1352 H   0  0  0  0  0  0  0  0  0  0  0  0
  136.9724   80.2451  225.1352 H   0  0  0  0  0  0  0  0  0  0  0  0
  140.7369   81.8304  223.7218 H   0  0  0  0  0  0  0  0  0  0  0  0
  142.3220   80.0860  222.9725 H   0  0  0  0  0  0  0  0  0  0  0  0
  137.4976   79.0740  223.2683 H   0  0  0  0  0  0  0  0  0  0  0  0
  138.7652   76.3554  223.2039 H   0  0  0  0  0  0  0  0  0  0  0  0
  138.5020   76.8438  221.5433 H   0  0  0  0  0  0  0  0  0  0  0  0
  142.6650   75.8197  220.5289 H   0  0  0  0  0  0  0  0  0  0  0  0
  143.2737   73.5393  219.7770 H   0  0  0  0  0  0  0  0  0  0  0  0
  141.9134   71.5809  220.4086 H   0  0  0  0  0  0  0  0  0  0  0  0
  141.6406   71.7016  223.6417 H   0  0  0  0  0  0  0  0  0  0  0  0
  140.2887   72.4609  224.6056 H   0  0  0  0  0  0  0  0  0  0  0  0
  141.5925   69.7529  225.0089 H   0  0  0  0  0  0  0  0  0  0  0  0
  141.5277   71.1288  226.1410 H   0  0  0  0  0  0  0  0  0  0  0  0
  138.9282   70.9187  226.0719 H   0  0  0  0  0  0  0  0  0  0  0  0
  140.3673   69.8496  229.0664 H   0  0  0  0  0  0  0  0  0  0  0  0
  141.7329   69.8285  227.8996 H   0  0  0  0  0  0  0  0  0  0  0  0
  140.5726   71.1998  227.8996 H   0  0  0  0  0  0  0  0  0  0  0  0
  140.3832   67.5608  227.8940 H   0  0  0  0  0  0  0  0  0  0  0  0
  139.4641   67.5122  226.3514 H   0  0  0  0  0  0  0  0  0  0  0  0
  141.1938   67.9966  226.3514 H   0  0  0  0  0  0  0  0  0  0  0  0
  139.5465   68.3346  224.6756 H   0  0  0  0  0  0  0  0  0  0  0  0
  137.9382   69.0204  225.1916 H   0  0  0  0  0  0  0  0  0  0  0  0
  138.9386   69.1868  222.7339 H   0  0  0  0  0  0  0  0  0  0  0  0
  137.8155   70.4099  223.5591 H   0  0  0  0  0  0  0  0  0  0  0  0
  139.2714   74.1574  222.5740 H   0  0  0  0  0  0  0  0  0  0  0  0
  1  2  1  0
  2  3  1  0
  3  4  2  0
  4  5  1  0
  5  6  2  0
  6  7  1  0
  7  8  2  0
  7  9  1  0
  9 10  1  0
 10 11  1  0
 11 12  2  0
 12 13  1  0
 13 14  2  0
 14 15  1  0
 15 16  1  0
 16 17  2  0
 16 18  1  0
 18 19  1  0
 19 20  1  0
 20 21  1  0
 21 22  1  0
 22 23  1  0
 22 24  1  0
 21 25  1  0
 25 26  1  0
 15 27  2  0
 10 28  2  0
  8  3  1  0
 27 11  1  0
 28  6  1  0
 26 18  1  0
  1 29  1  0
  1 30  1  0
  1 31  1  0
  4 32  1  0
  5 33  1  0
  8 34  1  0
  9 35  1  0
  9 36  1  0
 12 37  1  0
 13 38  1  0
 14 39  1  0
 19 40  1  0
 19 41  1  0
 20 42  1  0
 20 43  1  0
 21 44  1  0
 23 45  1  0
 23 46  1  0
 23 47  1  0
 24 48  1  0
 24 49  1  0
 24 50  1  0
 25 51  1  0
 25 52  1  0
 26 53  1  0
 26 54  1  0
 27 55  1  0
M  END
>  <smiles>  (14) 
COc1ccc2c(c1)CC(c1cccc(C(=O)N3CCC(N(C)C)CC3)c1)=N2

>  <score_type>  (14) 
oracle

>  <origin>  (14) 
autodockgpu

>  <m_score__min__energy>  (14) 
-7.4100000000000001

>  <m_primary>  (14) 
energy

>  <meeko>  (14) 
{"free_energy": -7.38, "intermolecular_energy": -8.57, "internal_energy": -0.86, "cluster_size": 19, "cluster_id": 1, "rank_in_cluster": 17}

>  <energy>  (14) 
-7.39

>  <cluster_rmsd>  (14) 
0.35

>  <rmsd>  (14) 
270.42

>  <cluster>  (14) 
1

$$$$

     RDKit          3D

 55 58  0  0  0  0  0  0  0  0999 V2000
  140.7010   83.0190  220.8290 C   0  0  0  0  0  0  0  0  0  0  0  0
  141.4790   82.4950  221.8730 O   0  0  0  0  0  0  0  0  0  0  0  0
  141.3350   81.1680  222.2310 C   0  0  0  0  0  0  0  0  0  0  0  0
  141.0530   80.7570  223.5260 C   0  0  0  0  0  0  0  0  0  0  0  0
  140.9170   79.4020  223.8400 C   0  0  0  0  0  0  0  0  0  0  0  0
  141.0570   78.4160  222.8780 C   0  0  0  0  0  0  0  0  0  0  0  0
  141.3380   78.8610  221.5940 C   0  0  0  0  0  0  0  0  0  0  0  0
  141.4740   80.1900  221.2770 C   0  0  0  0  0  0  0  0  0  0  0  0
  141.4470   77.6500  220.7220 C   0  0  0  0  0  0  0  0  0  0  0  0
  141.1960   76.5350  221.6680 C   0  0  0  0  0  0  0  0  0  0  0  0
  141.1750   75.1060  221.3530 C   0  0  0  0  0  0  0  0  0  0  0  0
  142.1250   74.6100  220.4900 C   0  0  0  0  0  0  0  0  0  0  0  0
  142.0970   73.2660  220.2150 C   0  0  0  0  0  0  0  0  0  0  0  0
  141.1470   72.4230  220.7850 C   0  0  0  0  0  0  0  0  0  0  0  0
  140.1980   72.9030  221.6450 C   0  0  0  0  0  0  0  0  0  0  0  0
  139.1780   72.0930  222.2920 C   0  0  0  0  0  0  0  0  0  0  0  0
  138.0520   72.0480  221.6920 O   0  0  0  0  0  0  0  0  0  0  0  0
  139.3950   71.3830  223.5190 N   0  0  0  0  0  0  0  0  0  0  0  0
  140.6990   71.4810  224.1360 C   0  0  0  0  0  0  0  0  0  0  0  0
  140.9540   70.4090  225.1730 C   0  0  0  0  0  0  0  0  0  0  0  0
  139.7010   70.3070  226.0550 C   0  0  0  0  0  0  0  0  0  0  0  0
  140.0180   69.4870  227.1690 N   0  0  0  0  0  0  0  0  0  0  0  0
  141.0290   69.9890  228.0480 C   0  0  0  0  0  0  0  0  0  0  0  0
  140.2160   68.1020  226.8010 C   0  0  0  0  0  0  0  0  0  0  0  0
  138.5340   69.8160  225.2420 C   0  0  0  0  0  0  0  0  0  0  0  0
  138.2870   70.6330  224.0320 C   0  0  0  0  0  0  0  0  0  0  0  0
  140.2300   74.2750  221.9200 C   0  0  0  0  0  0  0  0  0  0  0  0
  140.9860   77.0100  222.8480 N   0  0  0  0  0  0  0  0  0  0  0  0
  139.8579   83.5868  221.2494 H   0  0  0  0  0  0  0  0  0  0  0  0
  141.3194   83.6854  220.2097 H   0  0  0  0  0  0  0  0  0  0  0  0
  140.3159   82.1955  220.2097 H   0  0  0  0  0  0  0  0  0  0  0  0
  140.9345   81.5103  224.3187 H   0  0  0  0  0  0  0  0  0  0  0  0
  140.6932   79.1116  224.8771 H   0  0  0  0  0  0  0  0  0  0  0  0
  141.6986   80.4768  220.2391 H   0  0  0  0  0  0  0  0  0  0  0  0
  140.6911   77.6686  219.9231 H   0  0  0  0  0  0  0  0  0  0  0  0
  142.4158   77.5721  220.2068 H   0  0  0  0  0  0  0  0  0  0  0  0
  142.8807   75.2681  220.0363 H   0  0  0  0  0  0  0  0  0  0  0  0
  142.8441   72.8440  219.5267 H   0  0  0  0  0  0  0  0  0  0  0  0
  141.1599   71.3509  220.5392 H   0  0  0  0  0  0  0  0  0  0  0  0
  141.4641   71.3954  223.3503 H   0  0  0  0  0  0  0  0  0  0  0  0
  140.7419   72.4508  224.6534 H   0  0  0  0  0  0  0  0  0  0  0  0
  141.1430   69.4454  224.6774 H   0  0  0  0  0  0  0  0  0  0  0  0
  141.8346   70.6626  225.7815 H   0  0  0  0  0  0  0  0  0  0  0  0
  139.3918   71.2893  226.4415 H   0  0  0  0  0  0  0  0  0  0  0  0
  140.7174   69.8343  229.0915 H   0  0  0  0  0  0  0  0  0  0  0  0
  141.9729   69.4549  227.8642 H   0  0  0  0  0  0  0  0  0  0  0  0
  141.1740   71.0638  227.8642 H   0  0  0  0  0  0  0  0  0  0  0  0
  140.3035   67.4898  227.7107 H   0  0  0  0  0  0  0  0  0  0  0  0
  139.3584   67.7544  226.2062 H   0  0  0  0  0  0  0  0  0  0  0  0
  141.1366   68.0086  226.2062 H   0  0  0  0  0  0  0  0  0  0  0  0
  138.7348   68.7803  224.9306 H   0  0  0  0  0  0  0  0  0  0  0  0
  137.6380   69.8879  225.8760 H   0  0  0  0  0  0  0  0  0  0  0  0
  137.9484   69.9537  223.2358 H   0  0  0  0  0  0  0  0  0  0  0  0
  137.5486   71.3874  224.3411 H   0  0  0  0  0  0  0  0  0  0  0  0
  139.4830   74.7019  222.6054 H   0  0  0  0  0  0  0  0  0  0  0  0
  1  2  1  0
  2  3  1  0
  3  4  2  0
  4  5  1  0
  5  6  2  0
  6  7  1  0
  7  8  2  0
  7  9  1  0
  9 10  1  0
 10 11  1  0
 11 12  2  0
 12 13  1  0
 13 14  2  0
 14 15  1  0
 15 16  1  0
 16 17  2  0
 16 18  1  0
 18 19  1  0
 19 20  1  0
 20 21  1  0
 21 22  1  0
 22 23  1  0
 22 24  1  0
 21 25  1  0
 25 26  1  0
 15 27  2  0
 10 28  2  0
  8  3  1  0
 27 11  1  0
 28  6  1  0
 26 18  1  0
  1 29  1  0
  1 30  1  0
  1 31  1  0
  4 32  1  0
  5 33  1  0
  8 34  1  0
  9 35  1  0
  9 36  1  0
 12 37  1  0
 13 38  1  0
 14 39  1  0
 19 40  1  0
 19 41  1  0
 20 42  1  0
 20 43  1  0
 21 44  1  0
 23 45  1  0
 23 46  1  0
 23 47  1  0
 24 48  1  0
 24 49  1  0
 24 50  1  0
 25 51  1  0
 25 52  1  0
 26 53  1  0
 26 54  1  0
 27 55  1  0
M  END
>  <smiles>  (15) 
COc1ccc2c(c1)CC(c1cccc(C(=O)N3CCC(N(C)C)CC3)c1)=N2

>  <score_type>  (15) 
oracle

>  <origin>  (15) 
autodockgpu

>  <m_score__min__energy>  (15) 
-7.4100000000000001

>  <m_primary>  (15) 
energy

>  <meeko>  (15) 
{"free_energy": -7.4, "intermolecular_energy": -8.59, "internal_energy": -0.85, "cluster_size": 19, "cluster_id": 1, "rank_in_cluster": 9}

>  <energy>  (15) 
-7.39

>  <cluster_rmsd>  (15) 
0.5

>  <rmsd>  (15) 
270.38

>  <cluster>  (15) 
1

$$$$

     RDKit          3D

 55 58  0  0  0  0  0  0  0  0999 V2000
  140.7610   83.0860  220.9230 C   0  0  0  0  0  0  0  0  0  0  0  0
  141.4860   82.4390  221.9350 O   0  0  0  0  0  0  0  0  0  0  0  0
  141.2060   81.1210  222.2400 C   0  0  0  0  0  0  0  0  0  0  0  0
  140.5600   80.7320  223.4050 C   0  0  0  0  0  0  0  0  0  0  0  0
  140.2980   79.3850  223.6700 C   0  0  0  0  0  0  0  0  0  0  0  0
  140.6710   78.3860  222.7860 C   0  0  0  0  0  0  0  0  0  0  0  0
  141.3150   78.8090  221.6320 C   0  0  0  0  0  0  0  0  0  0  0  0
  141.5760   80.1310  221.3640 C   0  0  0  0  0  0  0  0  0  0  0  0
  141.6250   77.5860  220.8270 C   0  0  0  0  0  0  0  0  0  0  0  0
  141.0830   76.4890  221.6660 C   0  0  0  0  0  0  0  0  0  0  0  0
  141.1060   75.0580  221.3590 C   0  0  0  0  0  0  0  0  0  0  0  0
  142.0760   74.5850  220.5060 C   0  0  0  0  0  0  0  0  0  0  0  0
  142.0890   73.2390  220.2390 C   0  0  0  0  0  0  0  0  0  0  0  0
  141.1600   72.3730  220.8070 C   0  0  0  0  0  0  0  0  0  0  0  0
  140.1910   72.8290  221.6570 C   0  0  0  0  0  0  0  0  0  0  0  0
  139.1900   71.9940  222.3010 C   0  0  0  0  0  0  0  0  0  0  0  0
  138.0760   71.8990  221.6840 O   0  0  0  0  0  0  0  0  0  0  0  0
  139.4120   71.3120  223.5430 N   0  0  0  0  0  0  0  0  0  0  0  0
  140.7010   71.4680  224.1790 C   0  0  0  0  0  0  0  0  0  0  0  0
  140.9770   70.4230  225.2380 C   0  0  0  0  0  0  0  0  0  0  0  0
  139.7140   70.2900  226.1020 C   0  0  0  0  0  0  0  0  0  0  0  0
  140.0420   69.5010  227.2350 N   0  0  0  0  0  0  0  0  0  0  0  0
  140.9520   70.0910  228.1670 C   0  0  0  0  0  0  0  0  0  0  0  0
  140.3860   68.1410  226.8830 C   0  0  0  0  0  0  0  0  0  0  0  0
  138.5790   69.7440  225.2790 C   0  0  0  0  0  0  0  0  0  0  0  0
  138.3240   70.5320  224.0510 C   0  0  0  0  0  0  0  0  0  0  0  0
  140.1820   74.2040  221.9240 C   0  0  0  0  0  0  0  0  0  0  0  0
  140.5660   76.9820  222.7390 N   0  0  0  0  0  0  0  0  0  0  0  0
  140.0134   83.7532  221.3768 H   0  0  0  0  0  0  0  0  0  0  0  0
  141.4486   83.6762  220.2994 H   0  0  0  0  0  0  0  0  0  0  0  0
  140.2526   82.3359  220.2994 H   0  0  0  0  0  0  0  0  0  0  0  0
  140.2489   81.4966  224.1320 H   0  0  0  0  0  0  0  0  0  0  0  0
  139.7833   79.1116  224.6029 H   0  0  0  0  0  0  0  0  0  0  0  0
  142.0910   80.4011  220.4303 H   0  0  0  0  0  0  0  0  0  0  0  0
  141.1244   77.6195  219.8481 H   0  0  0  0  0  0  0  0  0  0  0  0
  142.6963   77.4732  220.6044 H   0  0  0  0  0  0  0  0  0  0  0  0
  142.8155   75.2621  220.0537 H   0  0  0  0  0  0  0  0  0  0  0  0
  142.8531   72.8346  219.5588 H   0  0  0  0  0  0  0  0  0  0  0  0
  141.2060   71.3004  220.5676 H   0  0  0  0  0  0  0  0  0  0  0  0
  141.4818   71.3976  223.4073 H   0  0  0  0  0  0  0  0  0  0  0  0
  140.7003   72.4472  224.6803 H   0  0  0  0  0  0  0  0  0  0  0  0
  141.2086   69.4588  224.7618 H   0  0  0  0  0  0  0  0  0  0  0  0
  141.8377   70.7183  225.8561 H   0  0  0  0  0  0  0  0  0  0  0  0
  139.3632   71.2666  226.4670 H   0  0  0  0  0  0  0  0  0  0  0  0
  140.6182   69.8746  229.1925 H   0  0  0  0  0  0  0  0  0  0  0  0
  141.9575   69.6725  228.0127 H   0  0  0  0  0  0  0  0  0  0  0  0
  140.9803   71.1798  228.0127 H   0  0  0  0  0  0  0  0  0  0  0  0
  140.5351   67.5515  227.7997 H   0  0  0  0  0  0  0  0  0  0  0  0
  139.5715   67.6983  226.2908 H   0  0  0  0  0  0  0  0  0  0  0  0
  141.3130   68.1388  226.2908 H   0  0  0  0  0  0  0  0  0  0  0  0
  138.8215   68.7111  224.9888 H   0  0  0  0  0  0  0  0  0  0  0  0
  137.6703   69.7940  225.8970 H   0  0  0  0  0  0  0  0  0  0  0  0
  138.0229   69.8280  223.2612 H   0  0  0  0  0  0  0  0  0  0  0  0
  137.5548   71.2649  224.3358 H   0  0  0  0  0  0  0  0  0  0  0  0
  139.4184   74.6133  222.6017 H   0  0  0  0  0  0  0  0  0  0  0  0
  1  2  1  0
  2  3  1  0
  3  4  2  0
  4  5  1  0
  5  6  2  0
  6  7  1  0
  7  8  2  0
  7  9  1  0
  9 10  1  0
 10 11  1  0
 11 12  2  0
 12 13  1  0
 13 14  2  0
 14 15  1  0
 15 16  1  0
 16 17  2  0
 16 18  1  0
 18 19  1  0
 19 20  1  0
 20 21  1  0
 21 22  1  0
 22 23  1  0
 22 24  1  0
 21 25  1  0
 25 26  1  0
 15 27  2  0
 10 28  2  0
  8  3  1  0
 27 11  1  0
 28  6  1  0
 26 18  1  0
  1 29  1  0
  1 30  1  0
  1 31  1  0
  4 32  1  0
  5 33  1  0
  8 34  1  0
  9 35  1  0
  9 36  1  0
 12 37  1  0
 13 38  1  0
 14 39  1  0
 19 40  1  0
 19 41  1  0
 20 42  1  0
 20 43  1  0
 21 44  1  0
 23 45  1  0
 23 46  1  0
 23 47  1  0
 24 48  1  0
 24 49  1  0
 24 50  1  0
 25 51  1  0
 25 52  1  0
 26 53  1  0
 26 54  1  0
 27 55  1  0
M  END
>  <smiles>  (16) 
COc1ccc2c(c1)CC(c1cccc(C(=O)N3CCC(N(C)C)CC3)c1)=N2

>  <score_type>  (16) 
oracle

>  <origin>  (16) 
autodockgpu

>  <m_score__min__energy>  (16) 
-7.4100000000000001

>  <m_primary>  (16) 
energy

>  <meeko>  (16) 
{"free_energy": -7.4, "intermolecular_energy": -8.6, "internal_energy": -0.85, "cluster_size": 19, "cluster_id": 1, "rank_in_cluster": 7}

>  <energy>  (16) 
-7.38

>  <cluster_rmsd>  (16) 
1.53

>  <rmsd>  (16) 
270.42

>  <cluster>  (16) 
1

$$$$

     RDKit          3D

 55 58  0  0  0  0  0  0  0  0999 V2000
  140.6830   82.9640  220.7400 C   0  0  0  0  0  0  0  0  0  0  0  0
  141.4170   82.4910  221.8390 O   0  0  0  0  0  0  0  0  0  0  0  0
  141.3140   81.1640  222.2070 C   0  0  0  0  0  0  0  0  0  0  0  0
  141.1520   80.7500  223.5220 C   0  0  0  0  0  0  0  0  0  0  0  0
  141.0530   79.3950  223.8460 C   0  0  0  0  0  0  0  0  0  0  0  0
  141.1130   78.4100  222.8750 C   0  0  0  0  0  0  0  0  0  0  0  0
  141.2760   78.8570  221.5710 C   0  0  0  0  0  0  0  0  0  0  0  0
  141.3730   80.1870  221.2440 C   0  0  0  0  0  0  0  0  0  0  0  0
  141.3140   77.6460  220.6920 C   0  0  0  0  0  0  0  0  0  0  0  0
  141.1560   76.5300  221.6560 C   0  0  0  0  0  0  0  0  0  0  0  0
  141.1160   75.1010  221.3430 C   0  0  0  0  0  0  0  0  0  0  0  0
  142.0370   74.5980  220.4530 C   0  0  0  0  0  0  0  0  0  0  0  0
  141.9920   73.2540  220.1810 C   0  0  0  0  0  0  0  0  0  0  0  0
  141.0540   72.4180  220.7790 C   0  0  0  0  0  0  0  0  0  0  0  0
  140.1330   72.9040  221.6650 C   0  0  0  0  0  0  0  0  0  0  0  0
  139.1270   72.1020  222.3420 C   0  0  0  0  0  0  0  0  0  0  0  0
  137.9830   72.0660  221.7780 O   0  0  0  0  0  0  0  0  0  0  0  0
  139.3750   71.3890  223.5620 N   0  0  0  0  0  0  0  0  0  0  0  0
  140.6980   71.4770  224.1390 C   0  0  0  0  0  0  0  0  0  0  0  0
  140.9770   70.4010  225.1660 C   0  0  0  0  0  0  0  0  0  0  0  0
  139.7500   70.3080  226.0870 C   0  0  0  0  0  0  0  0  0  0  0  0
  140.0950   69.4850  227.1890 N   0  0  0  0  0  0  0  0  0  0  0  0
  141.0220   70.0450  228.1240 C   0  0  0  0  0  0  0  0  0  0  0  0
  140.4310   68.1350  226.7920 C   0  0  0  0  0  0  0  0  0  0  0  0
  138.5550   69.8270  225.3090 C   0  0  0  0  0  0  0  0  0  0  0  0
  138.2790   70.6470  224.1080 C   0  0  0  0  0  0  0  0  0  0  0  0
  140.1830   74.2770  221.9380 C   0  0  0  0  0  0  0  0  0  0  0  0
  141.0490   77.0030  222.8500 N   0  0  0  0  0  0  0  0  0  0  0  0
  139.8087   83.5274  221.0981 H   0  0  0  0  0  0  0  0  0  0  0  0
  141.3190   83.6226  220.1303 H   0  0  0  0  0  0  0  0  0  0  0  0
  140.3460   82.1127  220.1303 H   0  0  0  0  0  0  0  0  0  0  0  0
  141.1007   81.5023  224.3229 H   0  0  0  0  0  0  0  0  0  0  0  0
  140.9242   79.1032  224.8987 H   0  0  0  0  0  0  0  0  0  0  0  0
  141.5004   80.4754  220.1902 H   0  0  0  0  0  0  0  0  0  0  0  0
  140.4894   77.6596  219.9641 H   0  0  0  0  0  0  0  0  0  0  0  0
  142.2331   77.5741  220.0920 H   0  0  0  0  0  0  0  0  0  0  0  0
  142.7832   75.2506  219.9763 H   0  0  0  0  0  0  0  0  0  0  0  0
  142.7161   72.8263  219.4719 H   0  0  0  0  0  0  0  0  0  0  0  0
  141.0535   71.3456  220.5342 H   0  0  0  0  0  0  0  0  0  0  0  0
  141.4381   71.3877  223.3302 H   0  0  0  0  0  0  0  0  0  0  0  0
  140.7635   72.4455  224.6564 H   0  0  0  0  0  0  0  0  0  0  0  0
  141.1426   69.4367  224.6634 H   0  0  0  0  0  0  0  0  0  0  0  0
  141.8784   70.6460  225.7470 H   0  0  0  0  0  0  0  0  0  0  0  0
  139.4599   71.2919  226.4844 H   0  0  0  0  0  0  0  0  0  0  0  0
  140.6795   69.8381  229.1486 H   0  0  0  0  0  0  0  0  0  0  0  0
  142.0140   69.5950  227.9711 H   0  0  0  0  0  0  0  0  0  0  0  0
  141.0852   71.1325  227.9711 H   0  0  0  0  0  0  0  0  0  0  0  0
  140.5849   67.5167  227.6887 H   0  0  0  0  0  0  0  0  0  0  0  0
  139.6102   67.7140  226.1928 H   0  0  0  0  0  0  0  0  0  0  0  0
  141.3533   68.1478  226.1928 H   0  0  0  0  0  0  0  0  0  0  0  0
  138.7379   68.7900  224.9910 H   0  0  0  0  0  0  0  0  0  0  0  0
  137.6789   69.9053  225.9695 H   0  0  0  0  0  0  0  0  0  0  0  0
  137.9115   69.9710  223.3219 H   0  0  0  0  0  0  0  0  0  0  0  0
  137.5568   71.4071  224.4407 H   0  0  0  0  0  0  0  0  0  0  0  0
  139.4597   74.7094  222.6450 H   0  0  0  0  0  0  0  0  0  0  0  0
  1  2  1  0
  2  3  1  0
  3  4  2  0
  4  5  1  0
  5  6  2  0
  6  7  1  0
  7  8  2  0
  7  9  1  0
  9 10  1  0
 10 11  1  0
 11 12  2  0
 12 13  1  0
 13 14  2  0
 14 15  1  0
 15 16  1  0
 16 17  2  0
 16 18  1  0
 18 19  1  0
 19 20  1  0
 20 21  1  0
 21 22  1  0
 22 23  1  0
 22 24  1  0
 21 25  1  0
 25 26  1  0
 15 27  2  0
 10 28  2  0
  8  3  1  0
 27 11  1  0
 28  6  1  0
 26 18  1  0
  1 29  1  0
  1 30  1  0
  1 31  1  0
  4 32  1  0
  5 33  1  0
  8 34  1  0
  9 35  1  0
  9 36  1  0
 12 37  1  0
 13 38  1  0
 14 39  1  0
 19 40  1  0
 19 41  1  0
 20 42  1  0
 20 43  1  0
 21 44  1  0
 23 45  1  0
 23 46  1  0
 23 47  1  0
 24 48  1  0
 24 49  1  0
 24 50  1  0
 25 51  1  0
 25 52  1  0
 26 53  1  0
 26 54  1  0
 27 55  1  0
M  END
>  <smiles>  (17) 
COc1ccc2c(c1)CC(c1cccc(C(=O)N3CCC(N(C)C)CC3)c1)=N2

>  <score_type>  (17) 
oracle

>  <origin>  (17) 
autodockgpu

>  <m_score__min__energy>  (17) 
-7.4100000000000001

>  <m_primary>  (17) 
energy

>  <meeko>  (17) 
{"free_energy": -7.41, "intermolecular_energy": -8.6, "internal_energy": -0.85, "cluster_size": 19, "cluster_id": 1, "rank_in_cluster": 5}

>  <energy>  (17) 
-7.38

>  <cluster_rmsd>  (17) 
1.55

>  <rmsd>  (17) 
270.4

>  <cluster>  (17) 
1

$$$$

     RDKit          3D

 55 58  0  0  0  0  0  0  0  0999 V2000
  137.2970   81.3180  225.1060 C   0  0  0  0  0  0  0  0  0  0  0  0
  138.0590   81.5350  223.9480 O   0  0  0  0  0  0  0  0  0  0  0  0
  138.9840   80.5880  223.5520 C   0  0  0  0  0  0  0  0  0  0  0  0
  140.3480   80.8350  223.4950 C   0  0  0  0  0  0  0  0  0  0  0  0
  141.2450   79.8450  223.0870 C   0  0  0  0  0  0  0  0  0  0  0  0
  140.8140   78.5800  222.7240 C   0  0  0  0  0  0  0  0  0  0  0  0
  139.4450   78.3660  222.7920 C   0  0  0  0  0  0  0  0  0  0  0  0
  138.5560   79.3340  223.1920 C   0  0  0  0  0  0  0  0  0  0  0  0
  139.1980   76.9530  222.3640 C   0  0  0  0  0  0  0  0  0  0  0  0
  140.5630   76.4520  222.0680 C   0  0  0  0  0  0  0  0  0  0  0  0
  140.9230   75.1100  221.6080 C   0  0  0  0  0  0  0  0  0  0  0  0
  142.0450   74.9640  220.8250 C   0  0  0  0  0  0  0  0  0  0  0  0
  142.3740   73.6970  220.4140 C   0  0  0  0  0  0  0  0  0  0  0  0
  141.6090   72.5910  220.7700 C   0  0  0  0  0  0  0  0  0  0  0  0
  140.4910   72.7220  221.5470 C   0  0  0  0  0  0  0  0  0  0  0  0
  139.6420   71.6210  221.9740 C   0  0  0  0  0  0  0  0  0  0  0  0
  138.8070   71.2030  221.1040 O   0  0  0  0  0  0  0  0  0  0  0  0
  139.7160   71.0260  223.2770 N   0  0  0  0  0  0  0  0  0  0  0  0
  140.6900   71.5540  224.2070 C   0  0  0  0  0  0  0  0  0  0  0  0
  140.9680   70.6300  225.3730 C   0  0  0  0  0  0  0  0  0  0  0  0
  139.6160   70.1200  225.8950 C   0  0  0  0  0  0  0  0  0  0  0  0
  139.8480   69.4550  227.1270 N   0  0  0  0  0  0  0  0  0  0  0  0
  140.6800   70.1460  228.0640 C   0  0  0  0  0  0  0  0  0  0  0  0
  140.2180   68.0680  226.9490 C   0  0  0  0  0  0  0  0  0  0  0  0
  138.9470   69.2670  224.8520 C   0  0  0  0  0  0  0  0  0  0  0  0
  138.8070   69.9530  223.5470 C   0  0  0  0  0  0  0  0  0  0  0  0
  140.1600   74.0170  221.9640 C   0  0  0  0  0  0  0  0  0  0  0  0
  141.4220   77.3890  222.2820 N   0  0  0  0  0  0  0  0  0  0  0  0
  137.9211   81.4957  225.9942 H   0  0  0  0  0  0  0  0  0  0  0  0
  136.4403   82.0079  225.1158 H   0  0  0  0  0  0  0  0  0  0  0  0
  136.9323   80.2803  225.1158 H   0  0  0  0  0  0  0  0  0  0  0  0
  140.7297   81.8276  223.7760 H   0  0  0  0  0  0  0  0  0  0  0  0
  142.3200   80.0758  223.0532 H   0  0  0  0  0  0  0  0  0  0  0  0
  137.4816   79.1002  223.2245 H   0  0  0  0  0  0  0  0  0  0  0  0
  138.7295   76.3712  223.1715 H   0  0  0  0  0  0  0  0  0  0  0  0
  138.5110   76.8723  221.5087 H   0  0  0  0  0  0  0  0  0  0  0  0
  142.6566   75.8323  220.5387 H   0  0  0  0  0  0  0  0  0  0  0  0
  143.2659   73.5520  219.7867 H   0  0  0  0  0  0  0  0  0  0  0  0
  141.9089   71.5922  220.4200 H   0  0  0  0  0  0  0  0  0  0  0  0
  141.6320   71.7259  223.6656 H   0  0  0  0  0  0  0  0  0  0  0  0
  140.2737   72.4842  224.6210 H   0  0  0  0  0  0  0  0  0  0  0  0
  141.5856   69.7825  225.0409 H   0  0  0  0  0  0  0  0  0  0  0  0
  141.5121   71.1629  226.1667 H   0  0  0  0  0  0  0  0  0  0  0  0
  138.9142   70.9447  226.0883 H   0  0  0  0  0  0  0  0  0  0  0  0
  140.3708   69.8892  229.0879 H   0  0  0  0  0  0  0  0  0  0  0  0
  141.7282   69.8491  227.9122 H   0  0  0  0  0  0  0  0  0  0  0  0
  140.5805   71.2309  227.9122 H   0  0  0  0  0  0  0  0  0  0  0  0
  140.3447   67.5931  227.9331 H   0  0  0  0  0  0  0  0  0  0  0  0
  139.4275   67.5466  226.3893 H   0  0  0  0  0  0  0  0  0  0  0  0
  141.1631   68.0096  226.3893 H   0  0  0  0  0  0  0  0  0  0  0  0
  139.5463   68.3561  224.7068 H   0  0  0  0  0  0  0  0  0  0  0  0
  137.9338   69.0381  225.2141 H   0  0  0  0  0  0  0  0  0  0  0  0
  138.9414   69.1977  222.7587 H   0  0  0  0  0  0  0  0  0  0  0  0
  137.8120   70.4211  223.5750 H   0  0  0  0  0  0  0  0  0  0  0  0
  139.2690   74.1668  222.5914 H   0  0  0  0  0  0  0  0  0  0  0  0
  1  2  1  0
  2  3  1  0
  3  4  2  0
  4  5  1  0
  5  6  2  0
  6  7  1  0
  7  8  2  0
  7  9  1  0
  9 10  1  0
 10 11  1  0
 11 12  2  0
 12 13  1  0
 13 14  2  0
 14 15  1  0
 15 16  1  0
 16 17  2  0
 16 18  1  0
 18 19  1  0
 19 20  1  0
 20 21  1  0
 21 22  1  0
 22 23  1  0
 22 24  1  0
 21 25  1  0
 25 26  1  0
 15 27  2  0
 10 28  2  0
  8  3  1  0
 27 11  1  0
 28  6  1  0
 26 18  1  0
  1 29  1  0
  1 30  1  0
  1 31  1  0
  4 32  1  0
  5 33  1  0
  8 34  1  0
  9 35  1  0
  9 36  1  0
 12 37  1  0
 13 38  1  0
 14 39  1  0
 19 40  1  0
 19 41  1  0
 20 42  1  0
 20 43  1  0
 21 44  1  0
 23 45  1  0
 23 46  1  0
 23 47  1  0
 24 48  1  0
 24 49  1  0
 24 50  1  0
 25 51  1  0
 25 52  1  0
 26 53  1  0
 26 54  1  0
 27 55  1  0
M  END
>  <smiles>  (18) 
COc1ccc2c(c1)CC(c1cccc(C(=O)N3CCC(N(C)C)CC3)c1)=N2

>  <score_type>  (18) 
oracle

>  <origin>  (18) 
autodockgpu

>  <m_score__min__energy>  (18) 
-7.4100000000000001

>  <m_primary>  (18) 
energy

>  <meeko>  (18) 
{"free_energy": -7.38, "intermolecular_energy": -8.57, "internal_energy": -0.86, "cluster_size": 19, "cluster_id": 1, "rank_in_cluster": 18}

>  <energy>  (18) 
-7.38

>  <cluster_rmsd>  (18) 
1.54

>  <rmsd>  (18) 
270.42

>  <cluster>  (18) 
1

$$$$

     RDKit          3D

 55 58  0  0  0  0  0  0  0  0999 V2000
  140.6890   83.1300  221.0770 C   0  0  0  0  0  0  0  0  0  0  0  0
  141.5110   82.4120  221.9590 O   0  0  0  0  0  0  0  0  0  0  0  0
  141.2130   81.0950  222.2510 C   0  0  0  0  0  0  0  0  0  0  0  0
  140.5300   80.7070  223.3950 C   0  0  0  0  0  0  0  0  0  0  0  0
  140.2520   79.3610  223.6480 C   0  0  0  0  0  0  0  0  0  0  0  0
  140.6420   78.3620  222.7730 C   0  0  0  0  0  0  0  0  0  0  0  0
  141.3230   78.7840  221.6390 C   0  0  0  0  0  0  0  0  0  0  0  0
  141.6010   80.1040  221.3830 C   0  0  0  0  0  0  0  0  0  0  0  0
  141.6470   77.5610  220.8400 C   0  0  0  0  0  0  0  0  0  0  0  0
  141.0740   76.4650  221.6590 C   0  0  0  0  0  0  0  0  0  0  0  0
  141.0950   75.0360  221.3490 C   0  0  0  0  0  0  0  0  0  0  0  0
  142.0590   74.5650  220.4870 C   0  0  0  0  0  0  0  0  0  0  0  0
  142.0710   73.2200  220.2170 C   0  0  0  0  0  0  0  0  0  0  0  0
  141.1470   72.3520  220.7890 C   0  0  0  0  0  0  0  0  0  0  0  0
  140.1830   72.8060  221.6460 C   0  0  0  0  0  0  0  0  0  0  0  0
  139.1860   71.9680  222.2950 C   0  0  0  0  0  0  0  0  0  0  0  0
  138.0720   71.8650  221.6800 O   0  0  0  0  0  0  0  0  0  0  0  0
  139.4130   71.2920  223.5400 N   0  0  0  0  0  0  0  0  0  0  0  0
  140.7020   71.4560  224.1740 C   0  0  0  0  0  0  0  0  0  0  0  0
  140.9850   70.4170  225.2360 C   0  0  0  0  0  0  0  0  0  0  0  0
  139.7230   70.2820  226.1020 C   0  0  0  0  0  0  0  0  0  0  0  0
  140.0560   69.4980  227.2370 N   0  0  0  0  0  0  0  0  0  0  0  0
  140.9680   70.0940  228.1640 C   0  0  0  0  0  0  0  0  0  0  0  0
  140.4020   68.1370  226.8910 C   0  0  0  0  0  0  0  0  0  0  0  0
  138.5890   69.7270  225.2830 C   0  0  0  0  0  0  0  0  0  0  0  0
  138.3290   70.5090  224.0520 C   0  0  0  0  0  0  0  0  0  0  0  0
  140.1750   74.1790  221.9180 C   0  0  0  0  0  0  0  0  0  0  0  0
  140.5290   76.9590  222.7190 N   0  0  0  0  0  0  0  0  0  0  0  0
  139.9833   83.7464  221.6532 H   0  0  0  0  0  0  0  0  0  0  0  0
  141.3105   83.7796  220.4432 H   0  0  0  0  0  0  0  0  0  0  0  0
  140.1288   82.4268  220.4432 H   0  0  0  0  0  0  0  0  0  0  0  0
  140.2020   81.4716  224.1146 H   0  0  0  0  0  0  0  0  0  0  0  0
  139.7097   79.0887  224.5655 H   0  0  0  0  0  0  0  0  0  0  0  0
  142.1447   80.3728  220.4653 H   0  0  0  0  0  0  0  0  0  0  0  0
  141.1749   77.6009  219.8473 H   0  0  0  0  0  0  0  0  0  0  0  0
  142.7236   77.4413  220.6485 H   0  0  0  0  0  0  0  0  0  0  0  0
  142.7945   75.2436  220.0303 H   0  0  0  0  0  0  0  0  0  0  0  0
  142.8307   72.8178  219.5306 H   0  0  0  0  0  0  0  0  0  0  0  0
  141.1926   71.2798  220.5474 H   0  0  0  0  0  0  0  0  0  0  0  0
  141.4820   71.3866  223.4015 H   0  0  0  0  0  0  0  0  0  0  0  0
  140.6967   72.4367  224.6721 H   0  0  0  0  0  0  0  0  0  0  0  0
  141.2205   69.4521  224.7633 H   0  0  0  0  0  0  0  0  0  0  0  0
  141.8454   70.7183  225.8515 H   0  0  0  0  0  0  0  0  0  0  0  0
  139.3685   71.2587  226.4630 H   0  0  0  0  0  0  0  0  0  0  0  0
  140.6392   69.8791  229.1915 H   0  0  0  0  0  0  0  0  0  0  0  0
  141.9744   69.6788  228.0067 H   0  0  0  0  0  0  0  0  0  0  0  0
  140.9917   71.1824  228.0067 H   0  0  0  0  0  0  0  0  0  0  0  0
  140.5508   67.5515  227.8103 H   0  0  0  0  0  0  0  0  0  0  0  0
  139.5887   67.6909  226.2998 H   0  0  0  0  0  0  0  0  0  0  0  0
  141.3296   68.1335  226.2998 H   0  0  0  0  0  0  0  0  0  0  0  0
  138.8358   68.6940  224.9968 H   0  0  0  0  0  0  0  0  0  0  0  0
  137.6810   69.7750  225.9020 H   0  0  0  0  0  0  0  0  0  0  0  0
  138.0304   69.8005  223.2653 H   0  0  0  0  0  0  0  0  0  0  0  0
  137.5565   71.2394  224.3345 H   0  0  0  0  0  0  0  0  0  0  0  0
  139.4161   74.5853  222.6028 H   0  0  0  0  0  0  0  0  0  0  0  0
  1  2  1  0
  2  3  1  0
  3  4  2  0
  4  5  1  0
  5  6  2  0
  6  7  1  0
  7  8  2  0
  7  9  1  0
  9 10  1  0
 10 11  1  0
 11 12  2  0
 12 13  1  0
 13 14  2  0
 14 15  1  0
 15 16  1  0
 16 17  2  0
 16 18  1  0
 18 19  1  0
 19 20  1  0
 20 21  1  0
 21 22  1  0
 22 23  1  0
 22 24  1  0
 21 25  1  0
 25 26  1  0
 15 27  2  0
 10 28  2  0
  8  3  1  0
 27 11  1  0
 28  6  1  0
 26 18  1  0
  1 29  1  0
  1 30  1  0
  1 31  1  0
  4 32  1  0
  5 33  1  0
  8 34  1  0
  9 35  1  0
  9 36  1  0
 12 37  1  0
 13 38  1  0
 14 39  1  0
 19 40  1  0
 19 41  1  0
 20 42  1  0
 20 43  1  0
 21 44  1  0
 23 45  1  0
 23 46  1  0
 23 47  1  0
 24 48  1  0
 24 49  1  0
 24 50  1  0
 25 51  1  0
 25 52  1  0
 26 53  1  0
 26 54  1  0
 27 55  1  0
M  END
>  <smiles>  (19) 
COc1ccc2c(c1)CC(c1cccc(C(=O)N3CCC(N(C)C)CC3)c1)=N2

>  <score_type>  (19) 
oracle

>  <origin>  (19) 
autodockgpu

>  <m_score__min__energy>  (19) 
-7.4100000000000001

>  <m_primary>  (19) 
energy

>  <meeko>  (19) 
{"free_energy": -7.41, "intermolecular_energy": -8.61, "internal_energy": -0.85, "cluster_size": 19, "cluster_id": 1, "rank_in_cluster": 1}

>  <energy>  (19) 
-7.37

>  <cluster_rmsd>  (19) 
1.56

>  <rmsd>  (19) 
270.41

>  <cluster>  (19) 
1

$$$$

     RDKit          3D

 55 58  0  0  0  0  0  0  0  0999 V2000
  140.6500   83.1680  220.9540 C   0  0  0  0  0  0  0  0  0  0  0  0
  141.4690   82.5690  221.9240 O   0  0  0  0  0  0  0  0  0  0  0  0
  141.2680   81.2460  222.2640 C   0  0  0  0  0  0  0  0  0  0  0  0
  140.8710   80.8380  223.5300 C   0  0  0  0  0  0  0  0  0  0  0  0
  140.6800   79.4870  223.8270 C   0  0  0  0  0  0  0  0  0  0  0  0
  140.8780   78.4990  222.8770 C   0  0  0  0  0  0  0  0  0  0  0  0
  141.2750   78.9400  221.6220 C   0  0  0  0  0  0  0  0  0  0  0  0
  141.4650   80.2660  221.3220 C   0  0  0  0  0  0  0  0  0  0  0  0
  141.4300   77.7270  220.7590 C   0  0  0  0  0  0  0  0  0  0  0  0
  141.0780   76.6170  221.6770 C   0  0  0  0  0  0  0  0  0  0  0  0
  141.0520   75.1890  221.3570 C   0  0  0  0  0  0  0  0  0  0  0  0
  141.9720   74.7020  220.4560 C   0  0  0  0  0  0  0  0  0  0  0  0
  141.9400   73.3590  220.1770 C   0  0  0  0  0  0  0  0  0  0  0  0
  141.0180   72.5090  220.7790 C   0  0  0  0  0  0  0  0  0  0  0  0
  140.0980   72.9800  221.6750 C   0  0  0  0  0  0  0  0  0  0  0  0
  139.1080   72.1620  222.3560 C   0  0  0  0  0  0  0  0  0  0  0  0
  137.9530   72.1340  221.8130 O   0  0  0  0  0  0  0  0  0  0  0  0
  139.3820   71.4260  223.5570 N   0  0  0  0  0  0  0  0  0  0  0  0
  140.7150   71.5060  224.1090 C   0  0  0  0  0  0  0  0  0  0  0  0
  141.0170   70.4120  225.1100 C   0  0  0  0  0  0  0  0  0  0  0  0
  139.8080   70.2980  226.0530 C   0  0  0  0  0  0  0  0  0  0  0  0
  140.1770   69.4540  227.1320 N   0  0  0  0  0  0  0  0  0  0  0  0
  140.1090   68.0480  226.8790 C   0  0  0  0  0  0  0  0  0  0  0  0
  139.5530   69.8410  228.3790 C   0  0  0  0  0  0  0  0  0  0  0  0
  138.6000   69.8280  225.2900 C   0  0  0  0  0  0  0  0  0  0  0  0
  138.2970   70.6710  224.1100 C   0  0  0  0  0  0  0  0  0  0  0  0
  140.1340   74.3510  221.9550 C   0  0  0  0  0  0  0  0  0  0  0  0
  140.7800   77.0940  222.8370 N   0  0  0  0  0  0  0  0  0  0  0  0
  139.8576   83.7475  221.4503 H   0  0  0  0  0  0  0  0  0  0  0  0
  141.2555   83.8379  220.3258 H   0  0  0  0  0  0  0  0  0  0  0  0
  140.1951   82.3880  220.3258 H   0  0  0  0  0  0  0  0  0  0  0  0
  140.7039   81.5922  224.3131 H   0  0  0  0  0  0  0  0  0  0  0  0
  140.3643   79.2003  224.8410 H   0  0  0  0  0  0  0  0  0  0  0  0
  141.7812   80.5493  220.3072 H   0  0  0  0  0  0  0  0  0  0  0  0
  140.7435   77.7625  219.9002 H   0  0  0  0  0  0  0  0  0  0  0  0
  142.4365   77.6288  220.3262 H   0  0  0  0  0  0  0  0  0  0  0  0
  142.7066   75.3660  219.9768 H   0  0  0  0  0  0  0  0  0  0  0  0
  142.6622   72.9437  219.4587 H   0  0  0  0  0  0  0  0  0  0  0  0
  141.0290   71.4377  220.5298 H   0  0  0  0  0  0  0  0  0  0  0  0
  141.4390   71.4335  223.2841 H   0  0  0  0  0  0  0  0  0  0  0  0
  140.7885   72.4647  224.6433 H   0  0  0  0  0  0  0  0  0  0  0  0
  141.1755   69.4577  224.5863 H   0  0  0  0  0  0  0  0  0  0  0  0
  141.9288   70.6489  225.6778 H   0  0  0  0  0  0  0  0  0  0  0  0
  139.5232   71.2733  226.4745 H   0  0  0  0  0  0  0  0  0  0  0  0
  140.0827   67.5043  227.8349 H   0  0  0  0  0  0  0  0  0  0  0  0
  139.1989   67.8225  226.3038 H   0  0  0  0  0  0  0  0  0  0  0  0
  140.9931   67.7358  226.3038 H   0  0  0  0  0  0  0  0  0  0  0  0
  140.1544   69.4680  229.2212 H   0  0  0  0  0  0  0  0  0  0  0  0
  139.4885   70.9378  228.4318 H   0  0  0  0  0  0  0  0  0  0  0  0
  138.5418   69.4113  228.4318 H   0  0  0  0  0  0  0  0  0  0  0  0
  138.7801   68.7981  224.9482 H   0  0  0  0  0  0  0  0  0  0  0  0
  137.7370   69.8900  225.9692 H   0  0  0  0  0  0  0  0  0  0  0  0
  137.9149   70.0097  223.3184 H   0  0  0  0  0  0  0  0  0  0  0  0
  137.5794   71.4224  224.4710 H   0  0  0  0  0  0  0  0  0  0  0  0
  139.4116   74.7709  222.6704 H   0  0  0  0  0  0  0  0  0  0  0  0
  1  2  1  0
  2  3  1  0
  3  4  2  0
  4  5  1  0
  5  6  2  0
  6  7  1  0
  7  8  2  0
  7  9  1  0
  9 10  1  0
 10 11  1  0
 11 12  2  0
 12 13  1  0
 13 14  2  0
 14 15  1  0
 15 16  1  0
 16 17  2  0
 16 18  1  0
 18 19  1  0
 19 20  1  0
 20 21  1  0
 21 22  1  0
 22 23  1  0
 22 24  1  0
 21 25  1  0
 25 26  1  0
 15 27  2  0
 10 28  2  0
  8  3  1  0
 27 11  1  0
 28  6  1  0
 26 18  1  0
  1 29  1  0
  1 30  1  0
  1 31  1  0
  4 32  1  0
  5 33  1  0
  8 34  1  0
  9 35  1  0
  9 36  1  0
 12 37  1  0
 13 38  1  0
 14 39  1  0
 19 40  1  0
 19 41  1  0
 20 42  1  0
 20 43  1  0
 21 44  1  0
 23 45  1  0
 23 46  1  0
 23 47  1  0
 24 48  1  0
 24 49  1  0
 24 50  1  0
 25 51  1  0
 25 52  1  0
 26 53  1  0
 26 54  1  0
 27 55  1  0
M  END
>  <smiles>  (20) 
COc1ccc2c(c1)CC(c1cccc(C(=O)N3CCC(N(C)C)CC3)c1)=N2

>  <score_type>  (20) 
oracle

>  <origin>  (20) 
autodockgpu

>  <m_score__min__energy>  (20) 
-7.4100000000000001

>  <m_primary>  (20) 
energy

>  <meeko>  (20) 
{"free_energy": -7.39, "intermolecular_energy": -8.58, "internal_energy": -0.84, "cluster_size": 19, "cluster_id": 1, "rank_in_cluster": 14}

>  <energy>  (20) 
-7.0

>  <cluster_rmsd>  (20) 
0.0

>  <rmsd>  (20) 
271.76

>  <cluster>  (20) 
2

$$$$
