GPYMLVVOPJPQBB-UHFFFAOYNA-N
     RDKit          3D

 55 58  0  0  0  0  0  0  0  0999 V2000
  141.0660   73.3090  222.3570 O   0  0  0  0  0  0  0  0  0  0  0  0
  140.0610   72.5680  222.1850 C   0  0  0  0  0  0  0  0  0  0  0  0
  139.2920   72.6860  220.9010 C   0  0  0  0  0  0  0  0  0  0  0  0
  138.1650   74.1270  220.8940 S   0  0  0  0  0  0  0  0  0  0  0  0
  139.3900   75.3330  221.4180 C   0  0  0  0  0  0  0  0  0  0  0  0
  139.5690   75.6940  222.7030 N   0  0  0  0  0  0  0  0  0  0  0  0
  140.4870   76.6490  222.7110 N   0  0  0  0  0  0  0  0  0  0  0  0
  140.8460   76.8680  221.4310 C   0  0  0  0  0  0  0  0  0  0  0  0
  141.8120   77.9480  221.0350 C   0  0  0  0  0  0  0  0  0  0  0  0
  141.7800   79.0680  222.0390 C   0  0  0  0  0  0  0  0  0  0  0  0
  140.6040   79.8140  222.2270 C   0  0  0  0  0  0  0  0  0  0  0  0
  140.5810   80.8740  223.1400 C   0  0  0  0  0  0  0  0  0  0  0  0
  141.7320   81.2030  223.8600 C   0  0  0  0  0  0  0  0  0  0  0  0
  142.9090   80.4730  223.6690 C   0  0  0  0  0  0  0  0  0  0  0  0
  142.9360   79.4110  222.7600 C   0  0  0  0  0  0  0  0  0  0  0  0
  140.1650   76.0600  220.5860 N   0  0  0  0  0  0  0  0  0  0  0  0
  140.1650   76.0400  219.1180 C   0  0  0  0  0  0  0  0  0  0  0  0
  141.5890   76.0070  218.5550 C   0  0  0  0  0  0  0  0  0  0  0  0
  142.4620   75.0320  219.2980 C   0  0  0  0  0  0  0  0  0  0  0  0
  142.0820   73.6830  219.4050 C   0  0  0  0  0  0  0  0  0  0  0  0
  142.9180   72.7650  220.0470 C   0  0  0  0  0  0  0  0  0  0  0  0
  144.1380   73.1830  220.5820 C   0  0  0  0  0  0  0  0  0  0  0  0
  144.5250   74.5210  220.4760 C   0  0  0  0  0  0  0  0  0  0  0  0
  143.6930   75.4420  219.8350 C   0  0  0  0  0  0  0  0  0  0  0  0
  139.6730   71.6420  223.2170 N   0  0  0  0  0  0  0  0  0  0  0  0
  138.6110   70.6590  223.0860 C   0  0  0  0  0  0  0  0  0  0  0  0
  138.5260   69.9660  224.4390 C   0  0  0  0  0  0  0  0  0  0  0  0
  139.8240   70.3030  225.1650 C   0  0  0  0  0  0  0  0  0  0  0  0
  140.3610   71.5580  224.4930 C   0  0  0  0  0  0  0  0  0  0  0  0
  140.0053   72.7912  220.0703 H   0  0  0  0  0  0  0  0  0  0  0  0
  138.6785   71.7794  220.7926 H   0  0  0  0  0  0  0  0  0  0  0  0
  142.8279   77.5285  220.9910 H   0  0  0  0  0  0  0  0  0  0  0  0
  141.5251   78.3419  220.0488 H   0  0  0  0  0  0  0  0  0  0  0  0
  139.6986   79.5638  221.6545 H   0  0  0  0  0  0  0  0  0  0  0  0
  139.6555   81.4490  223.2910 H   0  0  0  0  0  0  0  0  0  0  0  0
  141.7123   82.0366  224.5774 H   0  0  0  0  0  0  0  0  0  0  0  0
  143.8153   80.7346  224.2348 H   0  0  0  0  0  0  0  0  0  0  0  0
  143.8653   78.8422  222.6089 H   0  0  0  0  0  0  0  0  0  0  0  0
  139.6239   75.1466  218.7731 H   0  0  0  0  0  0  0  0  0  0  0  0
  139.6750   76.9579  218.7612 H   0  0  0  0  0  0  0  0  0  0  0  0
  141.5464   75.7115  217.4963 H   0  0  0  0  0  0  0  0  0  0  0  0
  142.0245   77.0107  218.6684 H   0  0  0  0  0  0  0  0  0  0  0  0
  141.1233   73.3485  218.9820 H   0  0  0  0  0  0  0  0  0  0  0  0
  142.6141   71.7111  220.1309 H   0  0  0  0  0  0  0  0  0  0  0  0
  144.7943   72.4588  221.0869 H   0  0  0  0  0  0  0  0  0  0  0  0
  145.4862   74.8498  220.8978 H   0  0  0  0  0  0  0  0  0  0  0  0
  144.0037   76.4938  219.7505 H   0  0  0  0  0  0  0  0  0  0  0  0
  137.6577   71.1531  222.8470 H   0  0  0  0  0  0  0  0  0  0  0  0
  138.8151   69.9447  222.2747 H   0  0  0  0  0  0  0  0  0  0  0  0
  137.6618   70.3408  225.0070 H   0  0  0  0  0  0  0  0  0  0  0  0
  138.3963   68.8793  224.3281 H   0  0  0  0  0  0  0  0  0  0  0  0
  139.6287   70.4929  226.2307 H   0  0  0  0  0  0  0  0  0  0  0  0
  140.5453   69.4743  225.1105 H   0  0  0  0  0  0  0  0  0  0  0  0
  140.1431   72.4450  225.1059 H   0  0  0  0  0  0  0  0  0  0  0  0
  141.4527   71.5160  224.3650 H   0  0  0  0  0  0  0  0  0  0  0  0
  1  2  2  0
  2  3  1  0
  3  4  1  0
  4  5  1  0
  5  6  2  0
  6  7  1  0
  7  8  2  0
  8  9  1  0
  9 10  1  0
 10 11  2  0
 11 12  1  0
 12 13  2  0
 13 14  1  0
 14 15  2  0
  8 16  1  0
 16 17  1  0
 17 18  1  0
 18 19  1  0
 19 20  2  0
 20 21  1  0
 21 22  2  0
 22 23  1  0
 23 24  2  0
  2 25  1  0
 25 26  1  0
 26 27  1  0
 27 28  1  0
 28 29  1  0
 16  5  1  0
 24 19  1  0
 29 25  1  0
 15 10  1  0
  3 30  1  0
  3 31  1  0
  9 32  1  0
  9 33  1  0
 11 34  1  0
 12 35  1  0
 13 36  1  0
 14 37  1  0
 15 38  1  0
 17 39  1  0
 17 40  1  0
 18 41  1  0
 18 42  1  0
 20 43  1  0
 21 44  1  0
 22 45  1  0
 23 46  1  0
 24 47  1  0
 26 48  1  0
 26 49  1  0
 27 50  1  0
 27 51  1  0
 28 52  1  0
 28 53  1  0
 29 54  1  0
 29 55  1  0
M  END
>  <UniqueID>  (1) 
17

>  <SMILES>  (1) 
O=C(CSc1nnc(Cc2ccccc2)n1CCc1ccccc1)N1CCCC1

>  <Energy>  (1) 
76.08292305206793

>  <Genealogy>  (1) 
O=C(CSc1nnc(Cc2ccccc2)n1CCc1ccccc1)N1CCCC1 (3D coordinates assigned)
O=C(CSc1nnc(Cc2ccccc2)n1CCc1ccccc1)N1CCCC1 (nonaromatic ring conformer: 76.08292305206793 kcal/mol)

>  <smiles>  (1) 
O=C(CSc1nnc(Cc2ccccc2)n1CCc1ccccc1)N1CCCC1

>  <score_type>  (1) 
oracle

>  <origin>  (1) 
autodockgpu

>  <m_score__min__energy>  (1) 
-8.1099999999999994

>  <m_primary>  (1) 
energy

>  <meeko>  (1) 
{"free_energy": -6.92, "intermolecular_energy": -9.31, "internal_energy": -2.32, "cluster_size": 4, "cluster_id": 2, "rank_in_cluster": 4}

>  <energy>  (1) 
-8.11

>  <cluster_rmsd>  (1) 
0.0

>  <rmsd>  (1) 
270.53

>  <cluster>  (1) 
1

$$$$
GPYMLVVOPJPQBB-UHFFFAOYNA-N
     RDKit          3D

 55 58  0  0  0  0  0  0  0  0999 V2000
  142.1430   79.4240  219.3630 O   0  0  0  0  0  0  0  0  0  0  0  0
  141.6710   78.6790  220.2630 C   0  0  0  0  0  0  0  0  0  0  0  0
  141.0040   77.3960  219.8580 C   0  0  0  0  0  0  0  0  0  0  0  0
  142.1210   75.9560  220.0040 S   0  0  0  0  0  0  0  0  0  0  0  0
  140.9560   74.8930  220.8660 C   0  0  0  0  0  0  0  0  0  0  0  0
  140.2740   75.2790  221.9610 N   0  0  0  0  0  0  0  0  0  0  0  0
  139.5770   74.2290  222.3700 N   0  0  0  0  0  0  0  0  0  0  0  0
  139.8520   73.2140  221.5280 C   0  0  0  0  0  0  0  0  0  0  0  0
  139.3070   71.8280  221.7270 C   0  0  0  0  0  0  0  0  0  0  0  0
  139.6010   71.3490  223.1220 C   0  0  0  0  0  0  0  0  0  0  0  0
  138.7550   70.4120  223.7400 C   0  0  0  0  0  0  0  0  0  0  0  0
  139.0100   69.9880  225.0480 C   0  0  0  0  0  0  0  0  0  0  0  0
  140.1030   70.5030  225.7510 C   0  0  0  0  0  0  0  0  0  0  0  0
  140.9420   71.4440  225.1470 C   0  0  0  0  0  0  0  0  0  0  0  0
  140.6920   71.8690  223.8380 C   0  0  0  0  0  0  0  0  0  0  0  0
  140.7280   73.5950  220.5700 N   0  0  0  0  0  0  0  0  0  0  0  0
  141.3760   72.7880  219.5290 C   0  0  0  0  0  0  0  0  0  0  0  0
  142.3470   71.7680  220.1310 C   0  0  0  0  0  0  0  0  0  0  0  0
  143.7440   72.3170  220.2330 C   0  0  0  0  0  0  0  0  0  0  0  0
  144.8310   71.5790  219.7320 C   0  0  0  0  0  0  0  0  0  0  0  0
  146.1230   72.1110  219.7760 C   0  0  0  0  0  0  0  0  0  0  0  0
  146.3400   73.3820  220.3140 C   0  0  0  0  0  0  0  0  0  0  0  0
  145.2640   74.1230  220.8100 C   0  0  0  0  0  0  0  0  0  0  0  0
  143.9710   73.5950  220.7680 C   0  0  0  0  0  0  0  0  0  0  0  0
  141.7760   79.0760  221.6430 N   0  0  0  0  0  0  0  0  0  0  0  0
  141.3790   78.2490  222.7700 C   0  0  0  0  0  0  0  0  0  0  0  0
  141.6090   79.1070  224.0080 C   0  0  0  0  0  0  0  0  0  0  0  0
  142.5170   80.2480  223.5630 C   0  0  0  0  0  0  0  0  0  0  0  0
  142.3570   80.3420  222.0530 C   0  0  0  0  0  0  0  0  0  0  0  0
  140.1297   77.2324  220.5052 H   0  0  0  0  0  0  0  0  0  0  0  0
  140.7108   77.4883  218.8018 H   0  0  0  0  0  0  0  0  0  0  0  0
  138.2185   71.8395  221.5687 H   0  0  0  0  0  0  0  0  0  0  0  0
  139.7844   71.1479  221.0062 H   0  0  0  0  0  0  0  0  0  0  0  0
  137.8892   70.0108  223.1928 H   0  0  0  0  0  0  0  0  0  0  0  0
  138.3497   69.2483  225.5243 H   0  0  0  0  0  0  0  0  0  0  0  0
  140.3029   70.1678  226.7794 H   0  0  0  0  0  0  0  0  0  0  0  0
  141.8002   71.8509  225.7020 H   0  0  0  0  0  0  0  0  0  0  0  0
  141.3519   72.6129  223.3677 H   0  0  0  0  0  0  0  0  0  0  0  0
  140.6026   72.2519  218.9594 H   0  0  0  0  0  0  0  0  0  0  0  0
  141.9473   73.4633  218.8751 H   0  0  0  0  0  0  0  0  0  0  0  0
  141.9975   71.4953  221.1377 H   0  0  0  0  0  0  0  0  0  0  0  0
  142.3729   70.8897  219.4692 H   0  0  0  0  0  0  0  0  0  0  0  0
  144.6641   70.5795  219.3039 H   0  0  0  0  0  0  0  0  0  0  0  0
  146.9704   71.5278  219.3863 H   0  0  0  0  0  0  0  0  0  0  0  0
  147.3573   73.7992  220.3471 H   0  0  0  0  0  0  0  0  0  0  0  0
  145.4352   75.1234  221.2341 H   0  0  0  0  0  0  0  0  0  0  0  0
  143.1267   74.1836  221.1561 H   0  0  0  0  0  0  0  0  0  0  0  0
  140.3180   77.9707  222.6873 H   0  0  0  0  0  0  0  0  0  0  0  0
  141.9546   77.3125  222.8108 H   0  0  0  0  0  0  0  0  0  0  0  0
  140.6532   79.5024  224.3824 H   0  0  0  0  0  0  0  0  0  0  0  0
  142.0622   78.5251  224.8241 H   0  0  0  0  0  0  0  0  0  0  0  0
  142.2094   81.1903  224.0400 H   0  0  0  0  0  0  0  0  0  0  0  0
  143.5638   80.0665  223.8482 H   0  0  0  0  0  0  0  0  0  0  0  0
  141.6887   81.1748  221.7887 H   0  0  0  0  0  0  0  0  0  0  0  0
  143.3183   80.5301  221.5525 H   0  0  0  0  0  0  0  0  0  0  0  0
  1  2  2  0
  2  3  1  0
  3  4  1  0
  4  5  1  0
  5  6  2  0
  6  7  1  0
  7  8  2  0
  8  9  1  0
  9 10  1  0
 10 11  2  0
 11 12  1  0
 12 13  2  0
 13 14  1  0
 14 15  2  0
  8 16  1  0
 16 17  1  0
 17 18  1  0
 18 19  1  0
 19 20  2  0
 20 21  1  0
 21 22  2  0
 22 23  1  0
 23 24  2  0
  2 25  1  0
 25 26  1  0
 26 27  1  0
 27 28  1  0
 28 29  1  0
 16  5  1  0
 24 19  1  0
 29 25  1  0
 15 10  1  0
  3 30  1  0
  3 31  1  0
  9 32  1  0
  9 33  1  0
 11 34  1  0
 12 35  1  0
 13 36  1  0
 14 37  1  0
 15 38  1  0
 17 39  1  0
 17 40  1  0
 18 41  1  0
 18 42  1  0
 20 43  1  0
 21 44  1  0
 22 45  1  0
 23 46  1  0
 24 47  1  0
 26 48  1  0
 26 49  1  0
 27 50  1  0
 27 51  1  0
 28 52  1  0
 28 53  1  0
 29 54  1  0
 29 55  1  0
M  END
>  <UniqueID>  (2) 
17

>  <SMILES>  (2) 
O=C(CSc1nnc(Cc2ccccc2)n1CCc1ccccc1)N1CCCC1

>  <Energy>  (2) 
76.08292305206793

>  <Genealogy>  (2) 
O=C(CSc1nnc(Cc2ccccc2)n1CCc1ccccc1)N1CCCC1 (3D coordinates assigned)
O=C(CSc1nnc(Cc2ccccc2)n1CCc1ccccc1)N1CCCC1 (nonaromatic ring conformer: 76.08292305206793 kcal/mol)

>  <smiles>  (2) 
O=C(CSc1nnc(Cc2ccccc2)n1CCc1ccccc1)N1CCCC1

>  <score_type>  (2) 
oracle

>  <origin>  (2) 
autodockgpu

>  <m_score__min__energy>  (2) 
-8.1099999999999994

>  <m_primary>  (2) 
energy

>  <meeko>  (2) 
{"free_energy": -7.75, "intermolecular_energy": -10.14, "internal_energy": -1.72, "cluster_size": 1, "cluster_id": 4, "rank_in_cluster": 1}

>  <energy>  (2) 
-8.03

>  <cluster_rmsd>  (2) 
0.67

>  <rmsd>  (2) 
270.41

>  <cluster>  (2) 
1

$$$$
GPYMLVVOPJPQBB-UHFFFAOYNA-N
     RDKit          3D

 55 58  0  0  0  0  0  0  0  0999 V2000
  137.1870   76.8580  220.4730 O   0  0  0  0  0  0  0  0  0  0  0  0
  136.9480   76.9850  221.7040 C   0  0  0  0  0  0  0  0  0  0  0  0
  137.2940   78.2840  222.3730 C   0  0  0  0  0  0  0  0  0  0  0  0
  139.0120   78.3080  222.9980 S   0  0  0  0  0  0  0  0  0  0  0  0
  139.5380   76.7960  222.1800 C   0  0  0  0  0  0  0  0  0  0  0  0
  139.4960   75.5860  222.7670 N   0  0  0  0  0  0  0  0  0  0  0  0
  140.0270   74.7240  221.9120 N   0  0  0  0  0  0  0  0  0  0  0  0
  140.3960   75.4220  220.8190 C   0  0  0  0  0  0  0  0  0  0  0  0
  141.1160   74.7910  219.6620 C   0  0  0  0  0  0  0  0  0  0  0  0
  142.4720   74.3040  220.0960 C   0  0  0  0  0  0  0  0  0  0  0  0
  143.5700   75.1810  220.0970 C   0  0  0  0  0  0  0  0  0  0  0  0
  144.8370   74.7220  220.4730 C   0  0  0  0  0  0  0  0  0  0  0  0
  145.0180   73.3860  220.8390 C   0  0  0  0  0  0  0  0  0  0  0  0
  143.9320   72.5050  220.8290 C   0  0  0  0  0  0  0  0  0  0  0  0
  142.6640   72.9600  220.4560 C   0  0  0  0  0  0  0  0  0  0  0  0
  140.1100   76.7370  220.9590 N   0  0  0  0  0  0  0  0  0  0  0  0
  140.4380   77.8580  220.0690 C   0  0  0  0  0  0  0  0  0  0  0  0
  141.8220   78.4360  220.3790 C   0  0  0  0  0  0  0  0  0  0  0  0
  141.7740   79.4290  221.5090 C   0  0  0  0  0  0  0  0  0  0  0  0
  142.1770   79.0490  222.8010 C   0  0  0  0  0  0  0  0  0  0  0  0
  142.1850   79.9850  223.8390 C   0  0  0  0  0  0  0  0  0  0  0  0
  141.7970   81.3050  223.5970 C   0  0  0  0  0  0  0  0  0  0  0  0
  141.4000   81.6910  222.3140 C   0  0  0  0  0  0  0  0  0  0  0  0
  141.3900   80.7600  221.2730 C   0  0  0  0  0  0  0  0  0  0  0  0
  136.3620   75.8900  222.4330 N   0  0  0  0  0  0  0  0  0  0  0  0
  135.9340   75.9590  223.8200 C   0  0  0  0  0  0  0  0  0  0  0  0
  135.4480   74.5580  224.1680 C   0  0  0  0  0  0  0  0  0  0  0  0
  135.2390   73.8440  222.8360 C   0  0  0  0  0  0  0  0  0  0  0  0
  136.0800   74.6030  221.8210 C   0  0  0  0  0  0  0  0  0  0  0  0
  137.1709   79.1000  221.6457 H   0  0  0  0  0  0  0  0  0  0  0  0
  136.6213   78.4080  223.2344 H   0  0  0  0  0  0  0  0  0  0  0  0
  140.5272   73.9405  219.2880 H   0  0  0  0  0  0  0  0  0  0  0  0
  141.2417   75.5400  218.8663 H   0  0  0  0  0  0  0  0  0  0  0  0
  143.4329   76.2316  219.8013 H   0  0  0  0  0  0  0  0  0  0  0  0
  145.6919   75.4141  220.4805 H   0  0  0  0  0  0  0  0  0  0  0  0
  146.0147   73.0270  221.1351 H   0  0  0  0  0  0  0  0  0  0  0  0
  144.0758   71.4526  221.1150 H   0  0  0  0  0  0  0  0  0  0  0  0
  141.8133   72.2628  220.4444 H   0  0  0  0  0  0  0  0  0  0  0  0
  140.4240   77.5034  219.0278 H   0  0  0  0  0  0  0  0  0  0  0  0
  139.6911   78.6506  220.2235 H   0  0  0  0  0  0  0  0  0  0  0  0
  142.4972   77.6132  220.6568 H   0  0  0  0  0  0  0  0  0  0  0  0
  142.1829   78.9583  219.4807 H   0  0  0  0  0  0  0  0  0  0  0  0
  142.4871   78.0117  222.9957 H   0  0  0  0  0  0  0  0  0  0  0  0
  142.4976   79.6815  224.8490 H   0  0  0  0  0  0  0  0  0  0  0  0
  141.8040   82.0398  224.4156 H   0  0  0  0  0  0  0  0  0  0  0  0
  141.0947   82.7305  222.1235 H   0  0  0  0  0  0  0  0  0  0  0  0
  141.0802   81.0699  220.2640 H   0  0  0  0  0  0  0  0  0  0  0  0
  136.7755   76.2456  224.4679 H   0  0  0  0  0  0  0  0  0  0  0  0
  135.1453   76.7117  223.9660 H   0  0  0  0  0  0  0  0  0  0  0  0
  136.2019   74.0303  224.7706 H   0  0  0  0  0  0  0  0  0  0  0  0
  134.5211   74.5878  224.7596 H   0  0  0  0  0  0  0  0  0  0  0  0
  135.5739   72.7985  222.9054 H   0  0  0  0  0  0  0  0  0  0  0  0
  134.1773   73.8263  222.5490 H   0  0  0  0  0  0  0  0  0  0  0  0
  137.0155   74.0619  221.6159 H   0  0  0  0  0  0  0  0  0  0  0  0
  135.5563   74.7148  220.8601 H   0  0  0  0  0  0  0  0  0  0  0  0
  1  2  2  0
  2  3  1  0
  3  4  1  0
  4  5  1  0
  5  6  2  0
  6  7  1  0
  7  8  2  0
  8  9  1  0
  9 10  1  0
 10 11  2  0
 11 12  1  0
 12 13  2  0
 13 14  1  0
 14 15  2  0
  8 16  1  0
 16 17  1  0
 17 18  1  0
 18 19  1  0
 19 20  2  0
 20 21  1  0
 21 22  2  0
 22 23  1  0
 23 24  2  0
  2 25  1  0
 25 26  1  0
 26 27  1  0
 27 28  1  0
 28 29  1  0
 16  5  1  0
 24 19  1  0
 29 25  1  0
 15 10  1  0
  3 30  1  0
  3 31  1  0
  9 32  1  0
  9 33  1  0
 11 34  1  0
 12 35  1  0
 13 36  1  0
 14 37  1  0
 15 38  1  0
 17 39  1  0
 17 40  1  0
 18 41  1  0
 18 42  1  0
 20 43  1  0
 21 44  1  0
 22 45  1  0
 23 46  1  0
 24 47  1  0
 26 48  1  0
 26 49  1  0
 27 50  1  0
 27 51  1  0
 28 52  1  0
 28 53  1  0
 29 54  1  0
 29 55  1  0
M  END
>  <UniqueID>  (3) 
17

>  <SMILES>  (3) 
O=C(CSc1nnc(Cc2ccccc2)n1CCc1ccccc1)N1CCCC1

>  <Energy>  (3) 
76.08292305206793

>  <Genealogy>  (3) 
O=C(CSc1nnc(Cc2ccccc2)n1CCc1ccccc1)N1CCCC1 (3D coordinates assigned)
O=C(CSc1nnc(Cc2ccccc2)n1CCc1ccccc1)N1CCCC1 (nonaromatic ring conformer: 76.08292305206793 kcal/mol)

>  <smiles>  (3) 
O=C(CSc1nnc(Cc2ccccc2)n1CCc1ccccc1)N1CCCC1

>  <score_type>  (3) 
oracle

>  <origin>  (3) 
autodockgpu

>  <m_score__min__energy>  (3) 
-8.1099999999999994

>  <m_primary>  (3) 
energy

>  <meeko>  (3) 
{"free_energy": -6.47, "intermolecular_energy": -8.86, "internal_energy": -2.38, "cluster_size": 1, "cluster_id": 8, "rank_in_cluster": 1}

>  <energy>  (3) 
-8.01

>  <cluster_rmsd>  (3) 
0.45

>  <rmsd>  (3) 
270.55

>  <cluster>  (3) 
1

$$$$
GPYMLVVOPJPQBB-UHFFFAOYNA-N
     RDKit          3D

 55 58  0  0  0  0  0  0  0  0999 V2000
  139.1050   69.1350  222.6370 O   0  0  0  0  0  0  0  0  0  0  0  0
  139.4910   70.2940  222.9440 C   0  0  0  0  0  0  0  0  0  0  0  0
  139.3470   71.3930  221.9310 C   0  0  0  0  0  0  0  0  0  0  0  0
  140.9620   72.0760  221.4120 S   0  0  0  0  0  0  0  0  0  0  0  0
  140.5100   73.8060  221.6020 C   0  0  0  0  0  0  0  0  0  0  0  0
  139.6070   74.2380  222.5010 N   0  0  0  0  0  0  0  0  0  0  0  0
  139.4670   75.5420  222.3100 N   0  0  0  0  0  0  0  0  0  0  0  0
  140.2770   75.8850  221.2880 C   0  0  0  0  0  0  0  0  0  0  0  0
  140.3240   77.2770  220.7250 C   0  0  0  0  0  0  0  0  0  0  0  0
  141.0700   78.1900  221.6600 C   0  0  0  0  0  0  0  0  0  0  0  0
  141.7810   79.2910  221.1540 C   0  0  0  0  0  0  0  0  0  0  0  0
  142.4990   80.1240  222.0180 C   0  0  0  0  0  0  0  0  0  0  0  0
  142.5200   79.8570  223.3900 C   0  0  0  0  0  0  0  0  0  0  0  0
  141.8250   78.7560  223.8990 C   0  0  0  0  0  0  0  0  0  0  0  0
  141.1050   77.9220  223.0390 C   0  0  0  0  0  0  0  0  0  0  0  0
  140.9440   74.8090  220.8100 N   0  0  0  0  0  0  0  0  0  0  0  0
  141.8340   74.7100  219.6470 C   0  0  0  0  0  0  0  0  0  0  0  0
  143.2070   75.3240  219.9350 C   0  0  0  0  0  0  0  0  0  0  0  0
  144.2920   74.2820  219.9670 C   0  0  0  0  0  0  0  0  0  0  0  0
  145.3910   74.4320  220.8300 C   0  0  0  0  0  0  0  0  0  0  0  0
  146.3720   73.4380  220.9010 C   0  0  0  0  0  0  0  0  0  0  0  0
  146.2610   72.2870  220.1170 C   0  0  0  0  0  0  0  0  0  0  0  0
  145.1690   72.1280  219.2600 C   0  0  0  0  0  0  0  0  0  0  0  0
  144.1870   73.1190  219.1860 C   0  0  0  0  0  0  0  0  0  0  0  0
  140.0600   70.5340  224.2450 N   0  0  0  0  0  0  0  0  0  0  0  0
  140.4280   71.8440  224.7540 C   0  0  0  0  0  0  0  0  0  0  0  0
  141.0430   71.5920  226.1250 C   0  0  0  0  0  0  0  0  0  0  0  0
  140.6270   70.1780  226.5160 C   0  0  0  0  0  0  0  0  0  0  0  0
  140.2700   69.4750  225.2160 C   0  0  0  0  0  0  0  0  0  0  0  0
  138.8315   70.9925  221.0456 H   0  0  0  0  0  0  0  0  0  0  0  0
  138.7722   72.2067  222.3973 H   0  0  0  0  0  0  0  0  0  0  0  0
  140.8348   77.2581  219.7510 H   0  0  0  0  0  0  0  0  0  0  0  0
  139.2964   77.6499  220.6026 H   0  0  0  0  0  0  0  0  0  0  0  0
  141.7729   79.4987  220.0738 H   0  0  0  0  0  0  0  0  0  0  0  0
  143.0473   80.9895  221.6178 H   0  0  0  0  0  0  0  0  0  0  0  0
  143.0836   80.5134  224.0693 H   0  0  0  0  0  0  0  0  0  0  0  0
  141.8448   78.5456  224.9785 H   0  0  0  0  0  0  0  0  0  0  0  0
  140.5642   77.0534  223.4428 H   0  0  0  0  0  0  0  0  0  0  0  0
  141.9647   73.6493  219.3866 H   0  0  0  0  0  0  0  0  0  0  0  0
  141.3763   75.2649  218.8148 H   0  0  0  0  0  0  0  0  0  0  0  0
  143.4408   76.0569  219.1487 H   0  0  0  0  0  0  0  0  0  0  0  0
  143.1654   75.8033  220.9242 H   0  0  0  0  0  0  0  0  0  0  0  0
  145.4799   75.3348  221.4521 H   0  0  0  0  0  0  0  0  0  0  0  0
  147.2323   73.5625  221.5751 H   0  0  0  0  0  0  0  0  0  0  0  0
  147.0334   71.5059  220.1744 H   0  0  0  0  0  0  0  0  0  0  0  0
  145.0824   71.2216  218.6429 H   0  0  0  0  0  0  0  0  0  0  0  0
  143.3271   72.9879  218.5127 H   0  0  0  0  0  0  0  0  0  0  0  0
  141.1596   72.3236  224.0871 H   0  0  0  0  0  0  0  0  0  0  0  0
  139.5594   72.5162  224.8145 H   0  0  0  0  0  0  0  0  0  0  0  0
  142.1391   71.6676  226.0724 H   0  0  0  0  0  0  0  0  0  0  0  0
  140.7012   72.3323  226.8633 H   0  0  0  0  0  0  0  0  0  0  0  0
  141.4580   69.6590  227.0161 H   0  0  0  0  0  0  0  0  0  0  0  0
  139.7797   70.1854  227.2174 H   0  0  0  0  0  0  0  0  0  0  0  0
  141.0924   68.8182  224.8962 H   0  0  0  0  0  0  0  0  0  0  0  0
  139.3776   68.8416  225.3273 H   0  0  0  0  0  0  0  0  0  0  0  0
  1  2  2  0
  2  3  1  0
  3  4  1  0
  4  5  1  0
  5  6  2  0
  6  7  1  0
  7  8  2  0
  8  9  1  0
  9 10  1  0
 10 11  2  0
 11 12  1  0
 12 13  2  0
 13 14  1  0
 14 15  2  0
  8 16  1  0
 16 17  1  0
 17 18  1  0
 18 19  1  0
 19 20  2  0
 20 21  1  0
 21 22  2  0
 22 23  1  0
 23 24  2  0
  2 25  1  0
 25 26  1  0
 26 27  1  0
 27 28  1  0
 28 29  1  0
 16  5  1  0
 24 19  1  0
 29 25  1  0
 15 10  1  0
  3 30  1  0
  3 31  1  0
  9 32  1  0
  9 33  1  0
 11 34  1  0
 12 35  1  0
 13 36  1  0
 14 37  1  0
 15 38  1  0
 17 39  1  0
 17 40  1  0
 18 41  1  0
 18 42  1  0
 20 43  1  0
 21 44  1  0
 22 45  1  0
 23 46  1  0
 24 47  1  0
 26 48  1  0
 26 49  1  0
 27 50  1  0
 27 51  1  0
 28 52  1  0
 28 53  1  0
 29 54  1  0
 29 55  1  0
M  END
>  <UniqueID>  (4) 
17

>  <SMILES>  (4) 
O=C(CSc1nnc(Cc2ccccc2)n1CCc1ccccc1)N1CCCC1

>  <Energy>  (4) 
76.08292305206793

>  <Genealogy>  (4) 
O=C(CSc1nnc(Cc2ccccc2)n1CCc1ccccc1)N1CCCC1 (3D coordinates assigned)
O=C(CSc1nnc(Cc2ccccc2)n1CCc1ccccc1)N1CCCC1 (nonaromatic ring conformer: 76.08292305206793 kcal/mol)

>  <smiles>  (4) 
O=C(CSc1nnc(Cc2ccccc2)n1CCc1ccccc1)N1CCCC1

>  <score_type>  (4) 
oracle

>  <origin>  (4) 
autodockgpu

>  <m_score__min__energy>  (4) 
-8.1099999999999994

>  <m_primary>  (4) 
energy

>  <meeko>  (4) 
{"free_energy": -8.08, "intermolecular_energy": -10.47, "internal_energy": -1.67, "cluster_size": 4, "cluster_id": 2, "rank_in_cluster": 1}

>  <energy>  (4) 
-7.65

>  <cluster_rmsd>  (4) 
1.09

>  <rmsd>  (4) 
270.14

>  <cluster>  (4) 
1

$$$$
GPYMLVVOPJPQBB-UHFFFAOYNA-N
     RDKit          3D

 55 58  0  0  0  0  0  0  0  0999 V2000
  138.8570   69.9730  223.7110 O   0  0  0  0  0  0  0  0  0  0  0  0
  139.6550   70.8540  224.1300 C   0  0  0  0  0  0  0  0  0  0  0  0
  140.1730   71.8750  223.1590 C   0  0  0  0  0  0  0  0  0  0  0  0
  138.8680   72.4930  222.0370 S   0  0  0  0  0  0  0  0  0  0  0  0
  139.4220   74.2030  222.0190 C   0  0  0  0  0  0  0  0  0  0  0  0
  140.7180   74.5600  222.0960 N   0  0  0  0  0  0  0  0  0  0  0  0
  140.7500   75.8840  222.1350 N   0  0  0  0  0  0  0  0  0  0  0  0
  139.4750   76.3170  222.0940 C   0  0  0  0  0  0  0  0  0  0  0  0
  139.1090   77.7700  222.2060 C   0  0  0  0  0  0  0  0  0  0  0  0
  140.3470   78.6050  222.3870 C   0  0  0  0  0  0  0  0  0  0  0  0
  140.7990   78.9270  223.6780 C   0  0  0  0  0  0  0  0  0  0  0  0
  141.9330   79.7280  223.8480 C   0  0  0  0  0  0  0  0  0  0  0  0
  142.6160   80.2200  222.7320 C   0  0  0  0  0  0  0  0  0  0  0  0
  142.1650   79.9140  221.4450 C   0  0  0  0  0  0  0  0  0  0  0  0
  141.0320   79.1120  221.2710 C   0  0  0  0  0  0  0  0  0  0  0  0
  138.6080   75.2800  222.0300 N   0  0  0  0  0  0  0  0  0  0  0  0
  137.1410   75.2910  222.0790 C   0  0  0  0  0  0  0  0  0  0  0  0
  136.6250   76.0180  223.3250 C   0  0  0  0  0  0  0  0  0  0  0  0
  135.7260   75.1400  224.1540 C   0  0  0  0  0  0  0  0  0  0  0  0
  135.6230   73.7670  223.8690 C   0  0  0  0  0  0  0  0  0  0  0  0
  134.8310   72.9400  224.6710 C   0  0  0  0  0  0  0  0  0  0  0  0
  134.1420   73.4730  225.7630 C   0  0  0  0  0  0  0  0  0  0  0  0
  134.2440   74.8360  226.0550 C   0  0  0  0  0  0  0  0  0  0  0  0
  135.0340   75.6670  225.2570 C   0  0  0  0  0  0  0  0  0  0  0  0
  140.0510   70.8560  225.5140 N   0  0  0  0  0  0  0  0  0  0  0  0
  140.8660   71.8860  226.1370 C   0  0  0  0  0  0  0  0  0  0  0  0
  141.0760   71.4280  227.5750 C   0  0  0  0  0  0  0  0  0  0  0  0
  140.0260   70.3520  227.8280 C   0  0  0  0  0  0  0  0  0  0  0  0
  139.6140   69.8400  226.4560 C   0  0  0  0  0  0  0  0  0  0  0  0
  140.5841   72.7241  223.7247 H   0  0  0  0  0  0  0  0  0  0  0  0
  140.9446   71.3909  222.5423 H   0  0  0  0  0  0  0  0  0  0  0  0
  138.5888   78.0854  221.2895 H   0  0  0  0  0  0  0  0  0  0  0  0
  138.4520   77.9085  223.0773 H   0  0  0  0  0  0  0  0  0  0  0  0
  140.2590   78.5477  224.5581 H   0  0  0  0  0  0  0  0  0  0  0  0
  142.2876   79.9709  224.8606 H   0  0  0  0  0  0  0  0  0  0  0  0
  143.5088   80.8483  222.8668 H   0  0  0  0  0  0  0  0  0  0  0  0
  142.7016   80.3043  220.5677 H   0  0  0  0  0  0  0  0  0  0  0  0
  140.6766   78.8778  220.2567 H   0  0  0  0  0  0  0  0  0  0  0  0
  136.7575   75.8013  221.1832 H   0  0  0  0  0  0  0  0  0  0  0  0
  136.7897   74.2493  222.1176 H   0  0  0  0  0  0  0  0  0  0  0  0
  137.4844   76.3270  223.9381 H   0  0  0  0  0  0  0  0  0  0  0  0
  136.0407   76.8893  222.9943 H   0  0  0  0  0  0  0  0  0  0  0  0
  136.1672   73.3423  223.0125 H   0  0  0  0  0  0  0  0  0  0  0  0
  134.7502   71.8672  224.4416 H   0  0  0  0  0  0  0  0  0  0  0  0
  133.5195   72.8204  226.3927 H   0  0  0  0  0  0  0  0  0  0  0  0
  133.7011   75.2552  226.9149 H   0  0  0  0  0  0  0  0  0  0  0  0
  135.1145   76.7383  225.4933 H   0  0  0  0  0  0  0  0  0  0  0  0
  141.8317   71.9777  225.6182 H   0  0  0  0  0  0  0  0  0  0  0  0
  140.3812   72.8723  226.0905 H   0  0  0  0  0  0  0  0  0  0  0  0
  142.0870   71.0132  227.7007 H   0  0  0  0  0  0  0  0  0  0  0  0
  140.9772   72.2635  228.2836 H   0  0  0  0  0  0  0  0  0  0  0  0
  140.4524   69.5352  228.4289 H   0  0  0  0  0  0  0  0  0  0  0  0
  139.1655   70.7508  228.3852 H   0  0  0  0  0  0  0  0  0  0  0  0
  140.1054   68.8797  226.2408 H   0  0  0  0  0  0  0  0  0  0  0  0
  138.5295   69.6665  226.3944 H   0  0  0  0  0  0  0  0  0  0  0  0
  1  2  2  0
  2  3  1  0
  3  4  1  0
  4  5  1  0
  5  6  2  0
  6  7  1  0
  7  8  2  0
  8  9  1  0
  9 10  1  0
 10 11  2  0
 11 12  1  0
 12 13  2  0
 13 14  1  0
 14 15  2  0
  8 16  1  0
 16 17  1  0
 17 18  1  0
 18 19  1  0
 19 20  2  0
 20 21  1  0
 21 22  2  0
 22 23  1  0
 23 24  2  0
  2 25  1  0
 25 26  1  0
 26 27  1  0
 27 28  1  0
 28 29  1  0
 16  5  1  0
 24 19  1  0
 29 25  1  0
 15 10  1  0
  3 30  1  0
  3 31  1  0
  9 32  1  0
  9 33  1  0
 11 34  1  0
 12 35  1  0
 13 36  1  0
 14 37  1  0
 15 38  1  0
 17 39  1  0
 17 40  1  0
 18 41  1  0
 18 42  1  0
 20 43  1  0
 21 44  1  0
 22 45  1  0
 23 46  1  0
 24 47  1  0
 26 48  1  0
 26 49  1  0
 27 50  1  0
 27 51  1  0
 28 52  1  0
 28 53  1  0
 29 54  1  0
 29 55  1  0
M  END
>  <UniqueID>  (5) 
17

>  <SMILES>  (5) 
O=C(CSc1nnc(Cc2ccccc2)n1CCc1ccccc1)N1CCCC1

>  <Energy>  (5) 
76.08292305206793

>  <Genealogy>  (5) 
O=C(CSc1nnc(Cc2ccccc2)n1CCc1ccccc1)N1CCCC1 (3D coordinates assigned)
O=C(CSc1nnc(Cc2ccccc2)n1CCc1ccccc1)N1CCCC1 (nonaromatic ring conformer: 76.08292305206793 kcal/mol)

>  <smiles>  (5) 
O=C(CSc1nnc(Cc2ccccc2)n1CCc1ccccc1)N1CCCC1

>  <score_type>  (5) 
oracle

>  <origin>  (5) 
autodockgpu

>  <m_score__min__energy>  (5) 
-8.1099999999999994

>  <m_primary>  (5) 
energy

>  <meeko>  (5) 
{"free_energy": -8.01, "intermolecular_energy": -10.39, "internal_energy": -1.48, "cluster_size": 5, "cluster_id": 1, "rank_in_cluster": 3}

>  <energy>  (5) 
-7.51

>  <cluster_rmsd>  (5) 
1.33

>  <rmsd>  (5) 
269.97

>  <cluster>  (5) 
1

$$$$
GPYMLVVOPJPQBB-UHFFFAOYNA-N
     RDKit          3D

 55 58  0  0  0  0  0  0  0  0999 V2000
  138.7530   77.2530  222.9860 O   0  0  0  0  0  0  0  0  0  0  0  0
  139.8140   77.4330  222.3290 C   0  0  0  0  0  0  0  0  0  0  0  0
  140.1280   76.4960  221.2000 C   0  0  0  0  0  0  0  0  0  0  0  0
  138.7440   75.3580  220.8340 S   0  0  0  0  0  0  0  0  0  0  0  0
  139.3610   73.9810  221.8110 C   0  0  0  0  0  0  0  0  0  0  0  0
  140.6700   73.7670  222.0400 N   0  0  0  0  0  0  0  0  0  0  0  0
  140.7610   72.6340  222.7210 N   0  0  0  0  0  0  0  0  0  0  0  0
  139.5080   72.1660  222.8870 C   0  0  0  0  0  0  0  0  0  0  0  0
  139.2170   70.8470  223.5450 C   0  0  0  0  0  0  0  0  0  0  0  0
  139.7600   70.8340  224.9480 C   0  0  0  0  0  0  0  0  0  0  0  0
  139.3700   69.8280  225.8470 C   0  0  0  0  0  0  0  0  0  0  0  0
  139.8520   69.8320  227.1610 C   0  0  0  0  0  0  0  0  0  0  0  0
  140.7150   70.8450  227.5870 C   0  0  0  0  0  0  0  0  0  0  0  0
  141.0980   71.8570  226.7010 C   0  0  0  0  0  0  0  0  0  0  0  0
  140.6200   71.8550  225.3860 C   0  0  0  0  0  0  0  0  0  0  0  0
  138.5980   72.9880  222.3160 N   0  0  0  0  0  0  0  0  0  0  0  0
  137.1490   72.8090  222.1650 C   0  0  0  0  0  0  0  0  0  0  0  0
  136.3910   74.1160  222.4190 C   0  0  0  0  0  0  0  0  0  0  0  0
  135.6360   74.0810  223.7200 C   0  0  0  0  0  0  0  0  0  0  0  0
  135.4580   75.2610  224.4650 C   0  0  0  0  0  0  0  0  0  0  0  0
  134.7110   75.2420  225.6460 C   0  0  0  0  0  0  0  0  0  0  0  0
  134.1320   74.0500  226.0900 C   0  0  0  0  0  0  0  0  0  0  0  0
  134.3010   72.8750  225.3530 C   0  0  0  0  0  0  0  0  0  0  0  0
  135.0470   72.8890  224.1720 C   0  0  0  0  0  0  0  0  0  0  0  0
  140.6920   78.5190  222.6790 N   0  0  0  0  0  0  0  0  0  0  0  0
  141.8750   78.8970  221.9250 C   0  0  0  0  0  0  0  0  0  0  0  0
  142.5100   80.0410  222.7070 C   0  0  0  0  0  0  0  0  0  0  0  0
  141.4340   80.5410  223.6640 C   0  0  0  0  0  0  0  0  0  0  0  0
  140.4410   79.3980  223.8080 C   0  0  0  0  0  0  0  0  0  0  0  0
  140.3459   77.0885  220.2992 H   0  0  0  0  0  0  0  0  0  0  0  0
  140.9932   75.8866  221.5003 H   0  0  0  0  0  0  0  0  0  0  0  0
  138.1289   70.6885  223.5752 H   0  0  0  0  0  0  0  0  0  0  0  0
  139.6981   70.0442  222.9670 H   0  0  0  0  0  0  0  0  0  0  0  0
  138.6834   69.0343  225.5174 H   0  0  0  0  0  0  0  0  0  0  0  0
  139.5511   69.0369  227.8590 H   0  0  0  0  0  0  0  0  0  0  0  0
  141.0934   70.8465  228.6199 H   0  0  0  0  0  0  0  0  0  0  0  0
  141.7756   72.6552  227.0382 H   0  0  0  0  0  0  0  0  0  0  0  0
  140.9185   72.6554  224.6929 H   0  0  0  0  0  0  0  0  0  0  0  0
  136.9362   72.4657  221.1418 H   0  0  0  0  0  0  0  0  0  0  0  0
  136.8145   72.0672  222.9051 H   0  0  0  0  0  0  0  0  0  0  0  0
  137.1124   74.9459  222.4483 H   0  0  0  0  0  0  0  0  0  0  0  0
  135.6635   74.2527  221.6054 H   0  0  0  0  0  0  0  0  0  0  0  0
  135.9084   76.2021  224.1167 H   0  0  0  0  0  0  0  0  0  0  0  0
  134.5786   76.1666  226.2270 H   0  0  0  0  0  0  0  0  0  0  0  0
  133.5435   74.0368  227.0192 H   0  0  0  0  0  0  0  0  0  0  0  0
  133.8457   71.9370  225.7035 H   0  0  0  0  0  0  0  0  0  0  0  0
  135.1736   71.9621  223.5934 H   0  0  0  0  0  0  0  0  0  0  0  0
  142.5713   78.0486  221.8519 H   0  0  0  0  0  0  0  0  0  0  0  0
  141.6243   79.1962  220.8966 H   0  0  0  0  0  0  0  0  0  0  0  0
  143.3846   79.6812  223.2689 H   0  0  0  0  0  0  0  0  0  0  0  0
  142.8597   80.8417  222.0387 H   0  0  0  0  0  0  0  0  0  0  0  0
  141.8757   80.7895  224.6403 H   0  0  0  0  0  0  0  0  0  0  0  0
  140.9486   81.4527  223.2855 H   0  0  0  0  0  0  0  0  0  0  0  0
  140.6055   78.8633  224.7551 H   0  0  0  0  0  0  0  0  0  0  0  0
  139.4023   79.7598  223.8195 H   0  0  0  0  0  0  0  0  0  0  0  0
  1  2  2  0
  2  3  1  0
  3  4  1  0
  4  5  1  0
  5  6  2  0
  6  7  1  0
  7  8  2  0
  8  9  1  0
  9 10  1  0
 10 11  2  0
 11 12  1  0
 12 13  2  0
 13 14  1  0
 14 15  2  0
  8 16  1  0
 16 17  1  0
 17 18  1  0
 18 19  1  0
 19 20  2  0
 20 21  1  0
 21 22  2  0
 22 23  1  0
 23 24  2  0
  2 25  1  0
 25 26  1  0
 26 27  1  0
 27 28  1  0
 28 29  1  0
 16  5  1  0
 24 19  1  0
 29 25  1  0
 15 10  1  0
  3 30  1  0
  3 31  1  0
  9 32  1  0
  9 33  1  0
 11 34  1  0
 12 35  1  0
 13 36  1  0
 14 37  1  0
 15 38  1  0
 17 39  1  0
 17 40  1  0
 18 41  1  0
 18 42  1  0
 20 43  1  0
 21 44  1  0
 22 45  1  0
 23 46  1  0
 24 47  1  0
 26 48  1  0
 26 49  1  0
 27 50  1  0
 27 51  1  0
 28 52  1  0
 28 53  1  0
 29 54  1  0
 29 55  1  0
M  END
>  <UniqueID>  (6) 
17

>  <SMILES>  (6) 
O=C(CSc1nnc(Cc2ccccc2)n1CCc1ccccc1)N1CCCC1

>  <Energy>  (6) 
76.08292305206793

>  <Genealogy>  (6) 
O=C(CSc1nnc(Cc2ccccc2)n1CCc1ccccc1)N1CCCC1 (3D coordinates assigned)
O=C(CSc1nnc(Cc2ccccc2)n1CCc1ccccc1)N1CCCC1 (nonaromatic ring conformer: 76.08292305206793 kcal/mol)

>  <smiles>  (6) 
O=C(CSc1nnc(Cc2ccccc2)n1CCc1ccccc1)N1CCCC1

>  <score_type>  (6) 
oracle

>  <origin>  (6) 
autodockgpu

>  <m_score__min__energy>  (6) 
-8.1099999999999994

>  <m_primary>  (6) 
energy

>  <meeko>  (6) 
{"free_energy": -8.05, "intermolecular_energy": -10.43, "internal_energy": -1.41, "cluster_size": 4, "cluster_id": 3, "rank_in_cluster": 1}

>  <energy>  (6) 
-8.08

>  <cluster_rmsd>  (6) 
0.0

>  <rmsd>  (6) 
270.42

>  <cluster>  (6) 
2

$$$$
GPYMLVVOPJPQBB-UHFFFAOYNA-N
     RDKit          3D

 55 58  0  0  0  0  0  0  0  0999 V2000
  138.5080   77.4140  223.0090 O   0  0  0  0  0  0  0  0  0  0  0  0
  139.5830   77.4600  222.3520 C   0  0  0  0  0  0  0  0  0  0  0  0
  139.7900   76.4690  221.2430 C   0  0  0  0  0  0  0  0  0  0  0  0
  138.3830   75.3140  221.0700 S   0  0  0  0  0  0  0  0  0  0  0  0
  139.1560   73.9380  221.9300 C   0  0  0  0  0  0  0  0  0  0  0  0
  140.4800   73.8610  222.1600 N   0  0  0  0  0  0  0  0  0  0  0  0
  140.7020   72.6890  222.7380 N   0  0  0  0  0  0  0  0  0  0  0  0
  139.5140   72.0620  222.8410 C   0  0  0  0  0  0  0  0  0  0  0  0
  139.3800   70.6630  223.3730 C   0  0  0  0  0  0  0  0  0  0  0  0
  139.7540   70.6230  224.8290 C   0  0  0  0  0  0  0  0  0  0  0  0
  140.6860   71.5410  225.3450 C   0  0  0  0  0  0  0  0  0  0  0  0
  141.0570   71.4860  226.6920 C   0  0  0  0  0  0  0  0  0  0  0  0
  140.5100   70.5100  227.5300 C   0  0  0  0  0  0  0  0  0  0  0  0
  139.5920   69.5860  227.0220 C   0  0  0  0  0  0  0  0  0  0  0  0
  139.2170   69.6390  225.6750 C   0  0  0  0  0  0  0  0  0  0  0  0
  138.5150   72.8190  222.3310 N   0  0  0  0  0  0  0  0  0  0  0  0
  137.0990   72.4820  222.1410 C   0  0  0  0  0  0  0  0  0  0  0  0
  136.3950   72.2340  223.4790 C   0  0  0  0  0  0  0  0  0  0  0  0
  135.7370   73.4810  224.0050 C   0  0  0  0  0  0  0  0  0  0  0  0
  134.8520   73.4060  225.0940 C   0  0  0  0  0  0  0  0  0  0  0  0
  134.2820   74.5700  225.6200 C   0  0  0  0  0  0  0  0  0  0  0  0
  134.5930   75.8140  225.0670 C   0  0  0  0  0  0  0  0  0  0  0  0
  135.4750   75.8970  223.9860 C   0  0  0  0  0  0  0  0  0  0  0  0
  136.0480   74.7370  223.4580 C   0  0  0  0  0  0  0  0  0  0  0  0
  140.5780   78.4470  222.6820 N   0  0  0  0  0  0  0  0  0  0  0  0
  141.7970   78.6730  221.9230 C   0  0  0  0  0  0  0  0  0  0  0  0
  142.5560   79.7530  222.6830 C   0  0  0  0  0  0  0  0  0  0  0  0
  141.5430   80.3920  223.6270 C   0  0  0  0  0  0  0  0  0  0  0  0
  140.4270   79.3710  223.7910 C   0  0  0  0  0  0  0  0  0  0  0  0
  139.9153   77.0175  220.2978 H   0  0  0  0  0  0  0  0  0  0  0  0
  140.6838   75.8754  221.4856 H   0  0  0  0  0  0  0  0  0  0  0  0
  138.3388   70.3279  223.2560 H   0  0  0  0  0  0  0  0  0  0  0  0
  140.0536   69.9993  222.8111 H   0  0  0  0  0  0  0  0  0  0  0  0
  141.1248   72.3051  224.6865 H   0  0  0  0  0  0  0  0  0  0  0  0
  141.7802   72.2116  227.0927 H   0  0  0  0  0  0  0  0  0  0  0  0
  140.8020   70.4690  228.5897 H   0  0  0  0  0  0  0  0  0  0  0  0
  139.1642   68.8168  227.6817 H   0  0  0  0  0  0  0  0  0  0  0  0
  138.4987   68.9070  225.2771 H   0  0  0  0  0  0  0  0  0  0  0  0
  136.5999   73.3147  221.6238 H   0  0  0  0  0  0  0  0  0  0  0  0
  137.0414   71.5592  221.5451 H   0  0  0  0  0  0  0  0  0  0  0  0
  135.6274   71.4586  223.3389 H   0  0  0  0  0  0  0  0  0  0  0  0
  137.1527   71.9137  224.2093 H   0  0  0  0  0  0  0  0  0  0  0  0
  134.6066   72.4283  225.5344 H   0  0  0  0  0  0  0  0  0  0  0  0
  133.5876   74.5054  226.4707 H   0  0  0  0  0  0  0  0  0  0  0  0
  134.1439   76.7284  225.4821 H   0  0  0  0  0  0  0  0  0  0  0  0
  135.7185   76.8771  223.5501 H   0  0  0  0  0  0  0  0  0  0  0  0
  136.7456   74.8077  222.6104 H   0  0  0  0  0  0  0  0  0  0  0  0
  142.3929   77.7500  221.8692 H   0  0  0  0  0  0  0  0  0  0  0  0
  141.5824   78.9770  220.8879 H   0  0  0  0  0  0  0  0  0  0  0  0
  143.3838   79.3082  223.2547 H   0  0  0  0  0  0  0  0  0  0  0  0
  142.9941   80.4950  221.9993 H   0  0  0  0  0  0  0  0  0  0  0  0
  142.0094   80.6090  224.5993 H   0  0  0  0  0  0  0  0  0  0  0  0
  141.1643   81.3451  223.2292 H   0  0  0  0  0  0  0  0  0  0  0  0
  140.5293   78.8408  224.7493 H   0  0  0  0  0  0  0  0  0  0  0  0
  139.4357   79.8478  223.7917 H   0  0  0  0  0  0  0  0  0  0  0  0
  1  2  2  0
  2  3  1  0
  3  4  1  0
  4  5  1  0
  5  6  2  0
  6  7  1  0
  7  8  2  0
  8  9  1  0
  9 10  1  0
 10 11  2  0
 11 12  1  0
 12 13  2  0
 13 14  1  0
 14 15  2  0
  8 16  1  0
 16 17  1  0
 17 18  1  0
 18 19  1  0
 19 20  2  0
 20 21  1  0
 21 22  2  0
 22 23  1  0
 23 24  2  0
  2 25  1  0
 25 26  1  0
 26 27  1  0
 27 28  1  0
 28 29  1  0
 16  5  1  0
 24 19  1  0
 29 25  1  0
 15 10  1  0
  3 30  1  0
  3 31  1  0
  9 32  1  0
  9 33  1  0
 11 34  1  0
 12 35  1  0
 13 36  1  0
 14 37  1  0
 15 38  1  0
 17 39  1  0
 17 40  1  0
 18 41  1  0
 18 42  1  0
 20 43  1  0
 21 44  1  0
 22 45  1  0
 23 46  1  0
 24 47  1  0
 26 48  1  0
 26 49  1  0
 27 50  1  0
 27 51  1  0
 28 52  1  0
 28 53  1  0
 29 54  1  0
 29 55  1  0
M  END
>  <UniqueID>  (7) 
17

>  <SMILES>  (7) 
O=C(CSc1nnc(Cc2ccccc2)n1CCc1ccccc1)N1CCCC1

>  <Energy>  (7) 
76.08292305206793

>  <Genealogy>  (7) 
O=C(CSc1nnc(Cc2ccccc2)n1CCc1ccccc1)N1CCCC1 (3D coordinates assigned)
O=C(CSc1nnc(Cc2ccccc2)n1CCc1ccccc1)N1CCCC1 (nonaromatic ring conformer: 76.08292305206793 kcal/mol)

>  <smiles>  (7) 
O=C(CSc1nnc(Cc2ccccc2)n1CCc1ccccc1)N1CCCC1

>  <score_type>  (7) 
oracle

>  <origin>  (7) 
autodockgpu

>  <m_score__min__energy>  (7) 
-8.1099999999999994

>  <m_primary>  (7) 
energy

>  <meeko>  (7) 
{"free_energy": -7.9, "intermolecular_energy": -10.29, "internal_energy": -1.71, "cluster_size": 4, "cluster_id": 3, "rank_in_cluster": 3}

>  <energy>  (7) 
-7.65

>  <cluster_rmsd>  (7) 
0.94

>  <rmsd>  (7) 
270.2

>  <cluster>  (7) 
2

$$$$
GPYMLVVOPJPQBB-UHFFFAOYNA-N
     RDKit          3D

 55 58  0  0  0  0  0  0  0  0999 V2000
  138.3560   79.2530  223.2020 O   0  0  0  0  0  0  0  0  0  0  0  0
  139.4630   78.6910  222.9880 C   0  0  0  0  0  0  0  0  0  0  0  0
  139.4720   77.2320  222.6320 C   0  0  0  0  0  0  0  0  0  0  0  0
  139.8600   76.9490  220.8670 S   0  0  0  0  0  0  0  0  0  0  0  0
  140.3720   75.2360  221.0530 C   0  0  0  0  0  0  0  0  0  0  0  0
  140.1170   74.5050  222.1550 N   0  0  0  0  0  0  0  0  0  0  0  0
  140.7010   73.3290  221.9800 N   0  0  0  0  0  0  0  0  0  0  0  0
  141.3140   73.3620  220.7800 C   0  0  0  0  0  0  0  0  0  0  0  0
  142.1580   72.2280  220.2710 C   0  0  0  0  0  0  0  0  0  0  0  0
  143.6070   72.6320  220.2390 C   0  0  0  0  0  0  0  0  0  0  0  0
  144.5650   71.7800  219.6650 C   0  0  0  0  0  0  0  0  0  0  0  0
  145.9160   72.1410  219.6610 C   0  0  0  0  0  0  0  0  0  0  0  0
  146.3200   73.3490  220.2370 C   0  0  0  0  0  0  0  0  0  0  0  0
  145.3740   74.1960  220.8210 C   0  0  0  0  0  0  0  0  0  0  0  0
  144.0220   73.8390  220.8260 C   0  0  0  0  0  0  0  0  0  0  0  0
  141.1350   74.5570  220.1720 N   0  0  0  0  0  0  0  0  0  0  0  0
  141.7130   75.0570  218.9180 C   0  0  0  0  0  0  0  0  0  0  0  0
  142.8110   76.0930  219.1790 C   0  0  0  0  0  0  0  0  0  0  0  0
  142.4620   77.4370  218.5990 C   0  0  0  0  0  0  0  0  0  0  0  0
  142.1750   78.5190  219.4490 C   0  0  0  0  0  0  0  0  0  0  0  0
  141.9040   79.7820  218.9130 C   0  0  0  0  0  0  0  0  0  0  0  0
  141.9220   79.9760  217.5300 C   0  0  0  0  0  0  0  0  0  0  0  0
  142.2110   78.9050  216.6790 C   0  0  0  0  0  0  0  0  0  0  0  0
  142.4830   77.6420  217.2100 C   0  0  0  0  0  0  0  0  0  0  0  0
  140.6810   79.4520  223.0950 N   0  0  0  0  0  0  0  0  0  0  0  0
  142.0010   78.9460  222.7570 C   0  0  0  0  0  0  0  0  0  0  0  0
  142.9690   80.0740  223.0930 C   0  0  0  0  0  0  0  0  0  0  0  0
  142.1170   81.3310  223.2280 C   0  0  0  0  0  0  0  0  0  0  0  0
  140.7010   80.8460  223.5010 C   0  0  0  0  0  0  0  0  0  0  0  0
  140.2291   76.7229  223.2464 H   0  0  0  0  0  0  0  0  0  0  0  0
  138.4646   76.8334  222.8227 H   0  0  0  0  0  0  0  0  0  0  0  0
  142.0377   71.3591  220.9348 H   0  0  0  0  0  0  0  0  0  0  0  0
  141.8349   71.9697  219.2517 H   0  0  0  0  0  0  0  0  0  0  0  0
  144.2514   70.8255  219.2171 H   0  0  0  0  0  0  0  0  0  0  0  0
  146.6616   71.4737  219.2041 H   0  0  0  0  0  0  0  0  0  0  0  0
  147.3827   73.6330  220.2306 H   0  0  0  0  0  0  0  0  0  0  0  0
  145.6934   75.1446  221.2772 H   0  0  0  0  0  0  0  0  0  0  0  0
  143.2808   74.5055  221.2912 H   0  0  0  0  0  0  0  0  0  0  0  0
  142.1441   74.2119  218.3613 H   0  0  0  0  0  0  0  0  0  0  0  0
  140.9131   75.5408  218.3383 H   0  0  0  0  0  0  0  0  0  0  0  0
  142.9492   76.1992  220.2651 H   0  0  0  0  0  0  0  0  0  0  0  0
  143.7341   75.7415  218.6949 H   0  0  0  0  0  0  0  0  0  0  0  0
  142.1635   78.3719  220.5391 H   0  0  0  0  0  0  0  0  0  0  0  0
  141.6761   80.6247  219.5823 H   0  0  0  0  0  0  0  0  0  0  0  0
  141.7090   80.9704  217.1107 H   0  0  0  0  0  0  0  0  0  0  0  0
  142.2242   79.0572  215.5897 H   0  0  0  0  0  0  0  0  0  0  0  0
  142.7148   76.8037  216.5366 H   0  0  0  0  0  0  0  0  0  0  0  0
  142.2332   78.0504  223.3520 H   0  0  0  0  0  0  0  0  0  0  0  0
  142.0669   78.6540  221.6985 H   0  0  0  0  0  0  0  0  0  0  0  0
  143.4901   79.8619  224.0382 H   0  0  0  0  0  0  0  0  0  0  0  0
  143.7387   80.1899  222.3158 H   0  0  0  0  0  0  0  0  0  0  0  0
  142.4774   81.9499  224.0629 H   0  0  0  0  0  0  0  0  0  0  0  0
  142.1642   81.9509  222.3206 H   0  0  0  0  0  0  0  0  0  0  0  0
  140.4632   80.9378  224.5711 H   0  0  0  0  0  0  0  0  0  0  0  0
  139.9545   81.4402  222.9537 H   0  0  0  0  0  0  0  0  0  0  0  0
  1  2  2  0
  2  3  1  0
  3  4  1  0
  4  5  1  0
  5  6  2  0
  6  7  1  0
  7  8  2  0
  8  9  1  0
  9 10  1  0
 10 11  2  0
 11 12  1  0
 12 13  2  0
 13 14  1  0
 14 15  2  0
  8 16  1  0
 16 17  1  0
 17 18  1  0
 18 19  1  0
 19 20  2  0
 20 21  1  0
 21 22  2  0
 22 23  1  0
 23 24  2  0
  2 25  1  0
 25 26  1  0
 26 27  1  0
 27 28  1  0
 28 29  1  0
 16  5  1  0
 24 19  1  0
 29 25  1  0
 15 10  1  0
  3 30  1  0
  3 31  1  0
  9 32  1  0
  9 33  1  0
 11 34  1  0
 12 35  1  0
 13 36  1  0
 14 37  1  0
 15 38  1  0
 17 39  1  0
 17 40  1  0
 18 41  1  0
 18 42  1  0
 20 43  1  0
 21 44  1  0
 22 45  1  0
 23 46  1  0
 24 47  1  0
 26 48  1  0
 26 49  1  0
 27 50  1  0
 27 51  1  0
 28 52  1  0
 28 53  1  0
 29 54  1  0
 29 55  1  0
M  END
>  <UniqueID>  (8) 
17

>  <SMILES>  (8) 
O=C(CSc1nnc(Cc2ccccc2)n1CCc1ccccc1)N1CCCC1

>  <Energy>  (8) 
76.08292305206793

>  <Genealogy>  (8) 
O=C(CSc1nnc(Cc2ccccc2)n1CCc1ccccc1)N1CCCC1 (3D coordinates assigned)
O=C(CSc1nnc(Cc2ccccc2)n1CCc1ccccc1)N1CCCC1 (nonaromatic ring conformer: 76.08292305206793 kcal/mol)

>  <smiles>  (8) 
O=C(CSc1nnc(Cc2ccccc2)n1CCc1ccccc1)N1CCCC1

>  <score_type>  (8) 
oracle

>  <origin>  (8) 
autodockgpu

>  <m_score__min__energy>  (8) 
-8.1099999999999994

>  <m_primary>  (8) 
energy

>  <meeko>  (8) 
{"free_energy": -7.2, "intermolecular_energy": -9.59, "internal_energy": -1.98, "cluster_size": 2, "cluster_id": 6, "rank_in_cluster": 1}

>  <energy>  (8) 
-7.16

>  <cluster_rmsd>  (8) 
1.39

>  <rmsd>  (8) 
269.84

>  <cluster>  (8) 
2

$$$$
GPYMLVVOPJPQBB-UHFFFAOYNA-N
     RDKit          3D

 55 58  0  0  0  0  0  0  0  0999 V2000
  141.4350   76.7960  223.0440 O   0  0  0  0  0  0  0  0  0  0  0  0
  140.6920   77.7610  222.7190 C   0  0  0  0  0  0  0  0  0  0  0  0
  139.2990   77.4670  222.2420 C   0  0  0  0  0  0  0  0  0  0  0  0
  139.2680   76.8620  220.5170 S   0  0  0  0  0  0  0  0  0  0  0  0
  140.0250   75.2670  220.8570 C   0  0  0  0  0  0  0  0  0  0  0  0
  140.0400   74.7030  222.0790 N   0  0  0  0  0  0  0  0  0  0  0  0
  140.7420   73.5840  221.9770 N   0  0  0  0  0  0  0  0  0  0  0  0
  141.1570   73.4870  220.6990 C   0  0  0  0  0  0  0  0  0  0  0  0
  142.0580   72.3840  220.2220 C   0  0  0  0  0  0  0  0  0  0  0  0
  143.4970   72.8170  220.3000 C   0  0  0  0  0  0  0  0  0  0  0  0
  144.5250   71.9080  219.9980 C   0  0  0  0  0  0  0  0  0  0  0  0
  145.8640   72.3010  220.0990 C   0  0  0  0  0  0  0  0  0  0  0  0
  146.1840   73.5980  220.5110 C   0  0  0  0  0  0  0  0  0  0  0  0
  145.1660   74.5030  220.8250 C   0  0  0  0  0  0  0  0  0  0  0  0
  143.8270   74.1150  220.7240 C   0  0  0  0  0  0  0  0  0  0  0  0
  140.7300   74.5400  219.9650 N   0  0  0  0  0  0  0  0  0  0  0  0
  141.0400   74.8890  218.5730 C   0  0  0  0  0  0  0  0  0  0  0  0
  142.4030   75.5790  218.4560 C   0  0  0  0  0  0  0  0  0  0  0  0
  142.2750   77.0780  218.4770 C   0  0  0  0  0  0  0  0  0  0  0  0
  142.1970   77.7630  219.7020 C   0  0  0  0  0  0  0  0  0  0  0  0
  142.1330   79.1600  219.7250 C   0  0  0  0  0  0  0  0  0  0  0  0
  142.1510   79.8820  218.5290 C   0  0  0  0  0  0  0  0  0  0  0  0
  142.2330   79.2080  217.3070 C   0  0  0  0  0  0  0  0  0  0  0  0
  142.2980   77.8130  217.2800 C   0  0  0  0  0  0  0  0  0  0  0  0
  141.1940   79.1070  222.8060 N   0  0  0  0  0  0  0  0  0  0  0  0
  140.3980   80.3000  222.5750 C   0  0  0  0  0  0  0  0  0  0  0  0
  141.3640   81.4700  222.7110 C   0  0  0  0  0  0  0  0  0  0  0  0
  142.5950   80.9160  223.4210 C   0  0  0  0  0  0  0  0  0  0  0  0
  142.5580   79.4110  223.2010 C   0  0  0  0  0  0  0  0  0  0  0  0
  138.8568   76.6993  222.8939 H   0  0  0  0  0  0  0  0  0  0  0  0
  138.7260   78.4052  222.2794 H   0  0  0  0  0  0  0  0  0  0  0  0
  141.9111   71.4960  220.8543 H   0  0  0  0  0  0  0  0  0  0  0  0
  141.8113   72.1462  219.1767 H   0  0  0  0  0  0  0  0  0  0  0  0
  144.2763   70.8844  219.6812 H   0  0  0  0  0  0  0  0  0  0  0  0
  146.6657   71.5888  219.8540 H   0  0  0  0  0  0  0  0  0  0  0  0
  147.2371   73.9064  220.5881 H   0  0  0  0  0  0  0  0  0  0  0  0
  145.4191   75.5223  221.1521 H   0  0  0  0  0  0  0  0  0  0  0  0
  143.0290   74.8284  220.9774 H   0  0  0  0  0  0  0  0  0  0  0  0
  141.0517   73.9701  217.9685 H   0  0  0  0  0  0  0  0  0  0  0  0
  140.2689   75.5858  218.2125 H   0  0  0  0  0  0  0  0  0  0  0  0
  143.0350   75.2639  219.2994 H   0  0  0  0  0  0  0  0  0  0  0  0
  142.8518   75.2880  217.4948 H   0  0  0  0  0  0  0  0  0  0  0  0
  142.1863   77.1983  220.6459 H   0  0  0  0  0  0  0  0  0  0  0  0
  142.0684   79.6910  220.6862 H   0  0  0  0  0  0  0  0  0  0  0  0
  142.1007   80.9807  218.5489 H   0  0  0  0  0  0  0  0  0  0  0  0
  142.2463   79.7769  216.3656 H   0  0  0  0  0  0  0  0  0  0  0  0
  142.3676   77.2871  216.3164 H   0  0  0  0  0  0  0  0  0  0  0  0
  139.9593   80.2795  221.5665 H   0  0  0  0  0  0  0  0  0  0  0  0
  139.5633   80.3765  223.2874 H   0  0  0  0  0  0  0  0  0  0  0  0
  141.6370   81.8580  221.7186 H   0  0  0  0  0  0  0  0  0  0  0  0
  140.9141   82.3017  223.2729 H   0  0  0  0  0  0  0  0  0  0  0  0
  143.5115   81.3439  222.9887 H   0  0  0  0  0  0  0  0  0  0  0  0
  142.5931   81.1689  224.4915 H   0  0  0  0  0  0  0  0  0  0  0  0
  143.2613   79.1218  222.4062 H   0  0  0  0  0  0  0  0  0  0  0  0
  142.8516   78.8601  224.1067 H   0  0  0  0  0  0  0  0  0  0  0  0
  1  2  2  0
  2  3  1  0
  3  4  1  0
  4  5  1  0
  5  6  2  0
  6  7  1  0
  7  8  2  0
  8  9  1  0
  9 10  1  0
 10 11  2  0
 11 12  1  0
 12 13  2  0
 13 14  1  0
 14 15  2  0
  8 16  1  0
 16 17  1  0
 17 18  1  0
 18 19  1  0
 19 20  2  0
 20 21  1  0
 21 22  2  0
 22 23  1  0
 23 24  2  0
  2 25  1  0
 25 26  1  0
 26 27  1  0
 27 28  1  0
 28 29  1  0
 16  5  1  0
 24 19  1  0
 29 25  1  0
 15 10  1  0
  3 30  1  0
  3 31  1  0
  9 32  1  0
  9 33  1  0
 11 34  1  0
 12 35  1  0
 13 36  1  0
 14 37  1  0
 15 38  1  0
 17 39  1  0
 17 40  1  0
 18 41  1  0
 18 42  1  0
 20 43  1  0
 21 44  1  0
 22 45  1  0
 23 46  1  0
 24 47  1  0
 26 48  1  0
 26 49  1  0
 27 50  1  0
 27 51  1  0
 28 52  1  0
 28 53  1  0
 29 54  1  0
 29 55  1  0
M  END
>  <UniqueID>  (9) 
17

>  <SMILES>  (9) 
O=C(CSc1nnc(Cc2ccccc2)n1CCc1ccccc1)N1CCCC1

>  <Energy>  (9) 
76.08292305206793

>  <Genealogy>  (9) 
O=C(CSc1nnc(Cc2ccccc2)n1CCc1ccccc1)N1CCCC1 (3D coordinates assigned)
O=C(CSc1nnc(Cc2ccccc2)n1CCc1ccccc1)N1CCCC1 (nonaromatic ring conformer: 76.08292305206793 kcal/mol)

>  <smiles>  (9) 
O=C(CSc1nnc(Cc2ccccc2)n1CCc1ccccc1)N1CCCC1

>  <score_type>  (9) 
oracle

>  <origin>  (9) 
autodockgpu

>  <m_score__min__energy>  (9) 
-8.1099999999999994

>  <m_primary>  (9) 
energy

>  <meeko>  (9) 
{"free_energy": -6.92, "intermolecular_energy": -9.3, "internal_energy": -2.58, "cluster_size": 2, "cluster_id": 6, "rank_in_cluster": 2}

>  <energy>  (9) 
-6.92

>  <cluster_rmsd>  (9) 
1.77

>  <rmsd>  (9) 
270.12

>  <cluster>  (9) 
2

$$$$
GPYMLVVOPJPQBB-UHFFFAOYNA-N
     RDKit          3D

 55 58  0  0  0  0  0  0  0  0999 V2000
  139.9530   74.5170  222.3460 O   0  0  0  0  0  0  0  0  0  0  0  0
  139.1700   75.4920  222.1930 C   0  0  0  0  0  0  0  0  0  0  0  0
  137.7460   75.2170  221.8040 C   0  0  0  0  0  0  0  0  0  0  0  0
  137.5920   73.7530  220.7190 S   0  0  0  0  0  0  0  0  0  0  0  0
  137.9620   72.5330  221.9860 C   0  0  0  0  0  0  0  0  0  0  0  0
  137.2250   72.3820  223.1020 N   0  0  0  0  0  0  0  0  0  0  0  0
  137.8250   71.4580  223.8380 N   0  0  0  0  0  0  0  0  0  0  0  0
  138.9270   71.0670  223.1670 C   0  0  0  0  0  0  0  0  0  0  0  0
  139.9130   70.0850  223.7330 C   0  0  0  0  0  0  0  0  0  0  0  0
  140.1910   70.4020  225.1770 C   0  0  0  0  0  0  0  0  0  0  0  0
  139.7350   69.5400  226.1890 C   0  0  0  0  0  0  0  0  0  0  0  0
  139.9670   69.8490  227.5340 C   0  0  0  0  0  0  0  0  0  0  0  0
  140.6450   71.0210  227.8770 C   0  0  0  0  0  0  0  0  0  0  0  0
  141.0910   71.8890  226.8760 C   0  0  0  0  0  0  0  0  0  0  0  0
  140.8630   71.5840  225.5300 C   0  0  0  0  0  0  0  0  0  0  0  0
  139.0490   71.7340  221.9960 N   0  0  0  0  0  0  0  0  0  0  0  0
  140.1440   71.7010  221.0190 C   0  0  0  0  0  0  0  0  0  0  0  0
  141.4950   72.0030  221.6760 C   0  0  0  0  0  0  0  0  0  0  0  0
  142.2780   73.0280  220.9010 C   0  0  0  0  0  0  0  0  0  0  0  0
  143.6810   72.9570  220.8550 C   0  0  0  0  0  0  0  0  0  0  0  0
  144.4080   73.8750  220.0910 C   0  0  0  0  0  0  0  0  0  0  0  0
  143.7430   74.8640  219.3640 C   0  0  0  0  0  0  0  0  0  0  0  0
  142.3470   74.9390  219.4010 C   0  0  0  0  0  0  0  0  0  0  0  0
  141.6170   74.0230  220.1630 C   0  0  0  0  0  0  0  0  0  0  0  0
  139.6560   76.8340  222.3870 N   0  0  0  0  0  0  0  0  0  0  0  0
  138.8240   78.0240  222.3560 C   0  0  0  0  0  0  0  0  0  0  0  0
  139.7790   79.1960  222.5410 C   0  0  0  0  0  0  0  0  0  0  0  0
  141.0750   78.5990  223.0800 C   0  0  0  0  0  0  0  0  0  0  0  0
  141.0440   77.1270  222.6980 C   0  0  0  0  0  0  0  0  0  0  0  0
  137.1572   75.0440  222.7169 H   0  0  0  0  0  0  0  0  0  0  0  0
  137.3756   76.0895  221.2458 H   0  0  0  0  0  0  0  0  0  0  0  0
  139.4982   69.0690  223.6573 H   0  0  0  0  0  0  0  0  0  0  0  0
  140.8520   70.1505  223.1638 H   0  0  0  0  0  0  0  0  0  0  0  0
  139.1942   68.6198  225.9231 H   0  0  0  0  0  0  0  0  0  0  0  0
  139.6148   69.1677  228.3225 H   0  0  0  0  0  0  0  0  0  0  0  0
  140.8280   71.2610  228.9348 H   0  0  0  0  0  0  0  0  0  0  0  0
  141.6221   72.8133  227.1473 H   0  0  0  0  0  0  0  0  0  0  0  0
  141.2111   72.2720  224.7454 H   0  0  0  0  0  0  0  0  0  0  0  0
  140.1848   70.7012  220.5620 H   0  0  0  0  0  0  0  0  0  0  0  0
  139.9507   72.4725  220.2591 H   0  0  0  0  0  0  0  0  0  0  0  0
  141.3189   72.3839  222.6928 H   0  0  0  0  0  0  0  0  0  0  0  0
  142.0798   71.0716  221.6978 H   0  0  0  0  0  0  0  0  0  0  0  0
  144.2090   72.1763  221.4222 H   0  0  0  0  0  0  0  0  0  0  0  0
  145.5062   73.8178  220.0627 H   0  0  0  0  0  0  0  0  0  0  0  0
  144.3169   75.5841  218.7622 H   0  0  0  0  0  0  0  0  0  0  0  0
  141.8232   75.7197  218.8298 H   0  0  0  0  0  0  0  0  0  0  0  0
  140.5188   74.0817  220.1848 H   0  0  0  0  0  0  0  0  0  0  0  0
  138.3020   78.1026  221.3909 H   0  0  0  0  0  0  0  0  0  0  0  0
  138.0513   78.0010  223.1385 H   0  0  0  0  0  0  0  0  0  0  0  0
  139.9600   79.6975  221.5788 H   0  0  0  0  0  0  0  0  0  0  0  0
  139.3653   79.9492  223.2277 H   0  0  0  0  0  0  0  0  0  0  0  0
  141.9441   79.0950  222.6233 H   0  0  0  0  0  0  0  0  0  0  0  0
  141.1603   78.7329  224.1685 H   0  0  0  0  0  0  0  0  0  0  0  0
  141.6811   76.9445  221.8200 H   0  0  0  0  0  0  0  0  0  0  0  0
  141.4234   76.4877  223.5088 H   0  0  0  0  0  0  0  0  0  0  0  0
  1  2  2  0
  2  3  1  0
  3  4  1  0
  4  5  1  0
  5  6  2  0
  6  7  1  0
  7  8  2  0
  8  9  1  0
  9 10  1  0
 10 11  2  0
 11 12  1  0
 12 13  2  0
 13 14  1  0
 14 15  2  0
  8 16  1  0
 16 17  1  0
 17 18  1  0
 18 19  1  0
 19 20  2  0
 20 21  1  0
 21 22  2  0
 22 23  1  0
 23 24  2  0
  2 25  1  0
 25 26  1  0
 26 27  1  0
 27 28  1  0
 28 29  1  0
 16  5  1  0
 24 19  1  0
 29 25  1  0
 15 10  1  0
  3 30  1  0
  3 31  1  0
  9 32  1  0
  9 33  1  0
 11 34  1  0
 12 35  1  0
 13 36  1  0
 14 37  1  0
 15 38  1  0
 17 39  1  0
 17 40  1  0
 18 41  1  0
 18 42  1  0
 20 43  1  0
 21 44  1  0
 22 45  1  0
 23 46  1  0
 24 47  1  0
 26 48  1  0
 26 49  1  0
 27 50  1  0
 27 51  1  0
 28 52  1  0
 28 53  1  0
 29 54  1  0
 29 55  1  0
M  END
>  <UniqueID>  (10) 
17

>  <SMILES>  (10) 
O=C(CSc1nnc(Cc2ccccc2)n1CCc1ccccc1)N1CCCC1

>  <Energy>  (10) 
76.08292305206793

>  <Genealogy>  (10) 
O=C(CSc1nnc(Cc2ccccc2)n1CCc1ccccc1)N1CCCC1 (3D coordinates assigned)
O=C(CSc1nnc(Cc2ccccc2)n1CCc1ccccc1)N1CCCC1 (nonaromatic ring conformer: 76.08292305206793 kcal/mol)

>  <smiles>  (10) 
O=C(CSc1nnc(Cc2ccccc2)n1CCc1ccccc1)N1CCCC1

>  <score_type>  (10) 
oracle

>  <origin>  (10) 
autodockgpu

>  <m_score__min__energy>  (10) 
-8.1099999999999994

>  <m_primary>  (10) 
energy

>  <meeko>  (10) 
{"free_energy": -7.04, "intermolecular_energy": -9.42, "internal_energy": -2.12, "cluster_size": 1, "cluster_id": 7, "rank_in_cluster": 1}

>  <energy>  (10) 
-8.05

>  <cluster_rmsd>  (10) 
0.0

>  <rmsd>  (10) 
270.43

>  <cluster>  (10) 
3

$$$$
GPYMLVVOPJPQBB-UHFFFAOYNA-N
     RDKit          3D

 55 58  0  0  0  0  0  0  0  0999 V2000
  139.1180   68.9480  224.4110 O   0  0  0  0  0  0  0  0  0  0  0  0
  139.6840   70.0490  224.6480 C   0  0  0  0  0  0  0  0  0  0  0  0
  139.8960   71.0070  223.5120 C   0  0  0  0  0  0  0  0  0  0  0  0
  138.3290   71.7390  222.9170 S   0  0  0  0  0  0  0  0  0  0  0  0
  139.0460   73.2800  222.3310 C   0  0  0  0  0  0  0  0  0  0  0  0
  140.3670   73.5360  222.3550 N   0  0  0  0  0  0  0  0  0  0  0  0
  140.5260   74.7800  221.9270 N   0  0  0  0  0  0  0  0  0  0  0  0
  139.2990   75.2700  221.6610 C   0  0  0  0  0  0  0  0  0  0  0  0
  139.0720   76.6920  221.2310 C   0  0  0  0  0  0  0  0  0  0  0  0
  139.7750   77.6360  222.1670 C   0  0  0  0  0  0  0  0  0  0  0  0
  139.0320   78.5000  222.9900 C   0  0  0  0  0  0  0  0  0  0  0  0
  139.6860   79.3990  223.8400 C   0  0  0  0  0  0  0  0  0  0  0  0
  141.0820   79.4490  223.8650 C   0  0  0  0  0  0  0  0  0  0  0  0
  141.8280   78.6020  223.0410 C   0  0  0  0  0  0  0  0  0  0  0  0
  141.1790   77.7000  222.1910 C   0  0  0  0  0  0  0  0  0  0  0  0
  138.3390   74.3520  221.9140 N   0  0  0  0  0  0  0  0  0  0  0  0
  136.8780   74.4970  221.8680 C   0  0  0  0  0  0  0  0  0  0  0  0
  136.3820   75.5180  222.8960 C   0  0  0  0  0  0  0  0  0  0  0  0
  135.6290   74.8610  224.0200 C   0  0  0  0  0  0  0  0  0  0  0  0
  135.0810   75.6400  225.0540 C   0  0  0  0  0  0  0  0  0  0  0  0
  134.3340   75.0360  226.0710 C   0  0  0  0  0  0  0  0  0  0  0  0
  134.1240   73.6550  226.0600 C   0  0  0  0  0  0  0  0  0  0  0  0
  134.6610   72.8750  225.0330 C   0  0  0  0  0  0  0  0  0  0  0  0
  135.4080   73.4740  224.0160 C   0  0  0  0  0  0  0  0  0  0  0  0
  140.1150   70.3540  225.9870 N   0  0  0  0  0  0  0  0  0  0  0  0
  140.6670   71.6330  226.4030 C   0  0  0  0  0  0  0  0  0  0  0  0
  141.0350   71.4610  227.8720 C   0  0  0  0  0  0  0  0  0  0  0  0
  140.2970   70.2130  228.3440 C   0  0  0  0  0  0  0  0  0  0  0  0
  139.9790   69.4170  227.0880 C   0  0  0  0  0  0  0  0  0  0  0  0
  140.5580   71.8172  223.8517 H   0  0  0  0  0  0  0  0  0  0  0  0
  140.3423   70.4455  222.6780 H   0  0  0  0  0  0  0  0  0  0  0  0
  139.4642   76.8307  220.2127 H   0  0  0  0  0  0  0  0  0  0  0  0
  137.9930   76.9049  221.2500 H   0  0  0  0  0  0  0  0  0  0  0  0
  137.9327   78.4694  222.9658 H   0  0  0  0  0  0  0  0  0  0  0  0
  139.1005   80.0668  224.4890 H   0  0  0  0  0  0  0  0  0  0  0  0
  141.5945   80.1559  224.5341 H   0  0  0  0  0  0  0  0  0  0  0  0
  142.9270   78.6445  223.0607 H   0  0  0  0  0  0  0  0  0  0  0  0
  141.7692   77.0388  221.5394 H   0  0  0  0  0  0  0  0  0  0  0  0
  136.5836   74.8308  220.8621 H   0  0  0  0  0  0  0  0  0  0  0  0
  136.4271   73.5221  222.1050 H   0  0  0  0  0  0  0  0  0  0  0  0
  137.2483   76.0526  223.3129 H   0  0  0  0  0  0  0  0  0  0  0  0
  135.6968   76.2108  222.3855 H   0  0  0  0  0  0  0  0  0  0  0  0
  135.2401   76.7284  225.0634 H   0  0  0  0  0  0  0  0  0  0  0  0
  133.9114   75.6494  226.8804 H   0  0  0  0  0  0  0  0  0  0  0  0
  133.5358   73.1817  226.8600 H   0  0  0  0  0  0  0  0  0  0  0  0
  134.4953   71.7876  225.0252 H   0  0  0  0  0  0  0  0  0  0  0  0
  135.8255   72.8560  223.2075 H   0  0  0  0  0  0  0  0  0  0  0  0
  141.5602   71.8773  225.8093 H   0  0  0  0  0  0  0  0  0  0  0  0
  139.9494   72.4537  226.2561 H   0  0  0  0  0  0  0  0  0  0  0  0
  142.1214   71.3274  227.9812 H   0  0  0  0  0  0  0  0  0  0  0  0
  140.7550   72.3443  228.4647 H   0  0  0  0  0  0  0  0  0  0  0  0
  140.9348   69.6237  229.0192 H   0  0  0  0  0  0  0  0  0  0  0  0
  139.3841   70.4701  228.9012 H   0  0  0  0  0  0  0  0  0  0  0  0
  140.6871   68.5832  226.9723 H   0  0  0  0  0  0  0  0  0  0  0  0
  138.9706   68.9794  227.1279 H   0  0  0  0  0  0  0  0  0  0  0  0
  1  2  2  0
  2  3  1  0
  3  4  1  0
  4  5  1  0
  5  6  2  0
  6  7  1  0
  7  8  2  0
  8  9  1  0
  9 10  1  0
 10 11  2  0
 11 12  1  0
 12 13  2  0
 13 14  1  0
 14 15  2  0
  8 16  1  0
 16 17  1  0
 17 18  1  0
 18 19  1  0
 19 20  2  0
 20 21  1  0
 21 22  2  0
 22 23  1  0
 23 24  2  0
  2 25  1  0
 25 26  1  0
 26 27  1  0
 27 28  1  0
 28 29  1  0
 16  5  1  0
 24 19  1  0
 29 25  1  0
 15 10  1  0
  3 30  1  0
  3 31  1  0
  9 32  1  0
  9 33  1  0
 11 34  1  0
 12 35  1  0
 13 36  1  0
 14 37  1  0
 15 38  1  0
 17 39  1  0
 17 40  1  0
 18 41  1  0
 18 42  1  0
 20 43  1  0
 21 44  1  0
 22 45  1  0
 23 46  1  0
 24 47  1  0
 26 48  1  0
 26 49  1  0
 27 50  1  0
 27 51  1  0
 28 52  1  0
 28 53  1  0
 29 54  1  0
 29 55  1  0
M  END
>  <UniqueID>  (11) 
17

>  <SMILES>  (11) 
O=C(CSc1nnc(Cc2ccccc2)n1CCc1ccccc1)N1CCCC1

>  <Energy>  (11) 
76.08292305206793

>  <Genealogy>  (11) 
O=C(CSc1nnc(Cc2ccccc2)n1CCc1ccccc1)N1CCCC1 (3D coordinates assigned)
O=C(CSc1nnc(Cc2ccccc2)n1CCc1ccccc1)N1CCCC1 (nonaromatic ring conformer: 76.08292305206793 kcal/mol)

>  <smiles>  (11) 
O=C(CSc1nnc(Cc2ccccc2)n1CCc1ccccc1)N1CCCC1

>  <score_type>  (11) 
oracle

>  <origin>  (11) 
autodockgpu

>  <m_score__min__energy>  (11) 
-8.1099999999999994

>  <m_primary>  (11) 
energy

>  <meeko>  (11) 
{"free_energy": -8.03, "intermolecular_energy": -10.41, "internal_energy": -1.59, "cluster_size": 5, "cluster_id": 1, "rank_in_cluster": 2}

>  <energy>  (11) 
-7.92

>  <cluster_rmsd>  (11) 
0.51

>  <rmsd>  (11) 
270.34

>  <cluster>  (11) 
3

$$$$
GPYMLVVOPJPQBB-UHFFFAOYNA-N
     RDKit          3D

 55 58  0  0  0  0  0  0  0  0999 V2000
  139.0440   68.3090  224.9450 O   0  0  0  0  0  0  0  0  0  0  0  0
  139.5020   69.4780  224.8410 C   0  0  0  0  0  0  0  0  0  0  0  0
  139.4590   70.1510  223.5000 C   0  0  0  0  0  0  0  0  0  0  0  0
  138.0630   71.3240  223.3560 S   0  0  0  0  0  0  0  0  0  0  0  0
  138.9940   72.6360  222.5540 C   0  0  0  0  0  0  0  0  0  0  0  0
  140.3220   72.7960  222.7030 N   0  0  0  0  0  0  0  0  0  0  0  0
  140.6540   73.8950  222.0420 N   0  0  0  0  0  0  0  0  0  0  0  0
  139.5240   74.3980  221.5090 C   0  0  0  0  0  0  0  0  0  0  0  0
  139.4920   75.6970  220.7550 C   0  0  0  0  0  0  0  0  0  0  0  0
  139.7630   76.8460  221.6880 C   0  0  0  0  0  0  0  0  0  0  0  0
  141.0740   77.1110  222.1180 C   0  0  0  0  0  0  0  0  0  0  0  0
  141.3230   78.1610  223.0090 C   0  0  0  0  0  0  0  0  0  0  0  0
  140.2670   78.9430  223.4830 C   0  0  0  0  0  0  0  0  0  0  0  0
  138.9590   78.6770  223.0680 C   0  0  0  0  0  0  0  0  0  0  0  0
  138.7050   77.6300  222.1770 C   0  0  0  0  0  0  0  0  0  0  0  0
  138.4530   73.6320  221.8220 N   0  0  0  0  0  0  0  0  0  0  0  0
  137.0300   73.8670  221.5450 C   0  0  0  0  0  0  0  0  0  0  0  0
  136.5060   75.0940  222.2970 C   0  0  0  0  0  0  0  0  0  0  0  0
  135.7740   74.7090  223.5550 C   0  0  0  0  0  0  0  0  0  0  0  0
  135.4430   75.6890  224.5070 C   0  0  0  0  0  0  0  0  0  0  0  0
  134.7150   75.3430  225.6490 C   0  0  0  0  0  0  0  0  0  0  0  0
  134.3100   74.0220  225.8490 C   0  0  0  0  0  0  0  0  0  0  0  0
  134.6320   73.0420  224.9050 C   0  0  0  0  0  0  0  0  0  0  0  0
  135.3580   73.3840  223.7610 C   0  0  0  0  0  0  0  0  0  0  0  0
  140.0580   70.1300  225.9980 N   0  0  0  0  0  0  0  0  0  0  0  0
  140.5060   71.5120  226.0290 C   0  0  0  0  0  0  0  0  0  0  0  0
  141.0710   71.7280  227.4280 C   0  0  0  0  0  0  0  0  0  0  0  0
  140.5480   70.5710  228.2730 C   0  0  0  0  0  0  0  0  0  0  0  0
  140.1710   69.4740  227.2890 C   0  0  0  0  0  0  0  0  0  0  0  0
  140.3998   70.7008  223.3499 H   0  0  0  0  0  0  0  0  0  0  0  0
  139.3231   69.3710  222.7364 H   0  0  0  0  0  0  0  0  0  0  0  0
  140.2601   75.6792  219.9678 H   0  0  0  0  0  0  0  0  0  0  0  0
  138.4965   75.8267  220.3054 H   0  0  0  0  0  0  0  0  0  0  0  0
  141.9068   76.4916  221.7534 H   0  0  0  0  0  0  0  0  0  0  0  0
  142.3519   78.3709  223.3366 H   0  0  0  0  0  0  0  0  0  0  0  0
  140.4648   79.7682  224.1829 H   0  0  0  0  0  0  0  0  0  0  0  0
  138.1281   79.2925  223.4431 H   0  0  0  0  0  0  0  0  0  0  0  0
  137.6735   77.4195  221.8579 H   0  0  0  0  0  0  0  0  0  0  0  0
  136.8980   74.0268  220.4647 H   0  0  0  0  0  0  0  0  0  0  0  0
  136.4631   72.9872  221.8834 H   0  0  0  0  0  0  0  0  0  0  0  0
  137.3568   75.7384  222.5633 H   0  0  0  0  0  0  0  0  0  0  0  0
  135.8002   75.6222  221.6391 H   0  0  0  0  0  0  0  0  0  0  0  0
  135.7579   76.7316  224.3527 H   0  0  0  0  0  0  0  0  0  0  0  0
  134.4606   76.1134  226.3919 H   0  0  0  0  0  0  0  0  0  0  0  0
  133.7378   73.7522  226.7489 H   0  0  0  0  0  0  0  0  0  0  0  0
  134.3136   72.0010  225.0630 H   0  0  0  0  0  0  0  0  0  0  0  0
  135.6048   72.6112  223.0181 H   0  0  0  0  0  0  0  0  0  0  0  0
  141.2844   71.6805  225.2702 H   0  0  0  0  0  0  0  0  0  0  0  0
  139.6857   72.2110  225.8088 H   0  0  0  0  0  0  0  0  0  0  0  0
  142.1706   71.7168  227.4025 H   0  0  0  0  0  0  0  0  0  0  0  0
  140.7655   72.7005  227.8413 H   0  0  0  0  0  0  0  0  0  0  0  0
  141.3293   70.2159  228.9612 H   0  0  0  0  0  0  0  0  0  0  0  0
  139.6880   70.8758  228.8874 H   0  0  0  0  0  0  0  0  0  0  0  0
  140.9518   68.6997  227.2593 H   0  0  0  0  0  0  0  0  0  0  0  0
  139.2338   68.9745  227.5754 H   0  0  0  0  0  0  0  0  0  0  0  0
  1  2  2  0
  2  3  1  0
  3  4  1  0
  4  5  1  0
  5  6  2  0
  6  7  1  0
  7  8  2  0
  8  9  1  0
  9 10  1  0
 10 11  2  0
 11 12  1  0
 12 13  2  0
 13 14  1  0
 14 15  2  0
  8 16  1  0
 16 17  1  0
 17 18  1  0
 18 19  1  0
 19 20  2  0
 20 21  1  0
 21 22  2  0
 22 23  1  0
 23 24  2  0
  2 25  1  0
 25 26  1  0
 26 27  1  0
 27 28  1  0
 28 29  1  0
 16  5  1  0
 24 19  1  0
 29 25  1  0
 15 10  1  0
  3 30  1  0
  3 31  1  0
  9 32  1  0
  9 33  1  0
 11 34  1  0
 12 35  1  0
 13 36  1  0
 14 37  1  0
 15 38  1  0
 17 39  1  0
 17 40  1  0
 18 41  1  0
 18 42  1  0
 20 43  1  0
 21 44  1  0
 22 45  1  0
 23 46  1  0
 24 47  1  0
 26 48  1  0
 26 49  1  0
 27 50  1  0
 27 51  1  0
 28 52  1  0
 28 53  1  0
 29 54  1  0
 29 55  1  0
M  END
>  <UniqueID>  (12) 
17

>  <SMILES>  (12) 
O=C(CSc1nnc(Cc2ccccc2)n1CCc1ccccc1)N1CCCC1

>  <Energy>  (12) 
76.08292305206793

>  <Genealogy>  (12) 
O=C(CSc1nnc(Cc2ccccc2)n1CCc1ccccc1)N1CCCC1 (3D coordinates assigned)
O=C(CSc1nnc(Cc2ccccc2)n1CCc1ccccc1)N1CCCC1 (nonaromatic ring conformer: 76.08292305206793 kcal/mol)

>  <smiles>  (12) 
O=C(CSc1nnc(Cc2ccccc2)n1CCc1ccccc1)N1CCCC1

>  <score_type>  (12) 
oracle

>  <origin>  (12) 
autodockgpu

>  <m_score__min__energy>  (12) 
-8.1099999999999994

>  <m_primary>  (12) 
energy

>  <meeko>  (12) 
{"free_energy": -7.65, "intermolecular_energy": -10.04, "internal_energy": -1.91, "cluster_size": 5, "cluster_id": 1, "rank_in_cluster": 4}

>  <energy>  (12) 
-7.9

>  <cluster_rmsd>  (12) 
0.52

>  <rmsd>  (12) 
270.36

>  <cluster>  (12) 
3

$$$$
GPYMLVVOPJPQBB-UHFFFAOYNA-N
     RDKit          3D

 55 58  0  0  0  0  0  0  0  0999 V2000
  139.1880   67.8060  225.0090 O   0  0  0  0  0  0  0  0  0  0  0  0
  139.5050   69.0160  224.8520 C   0  0  0  0  0  0  0  0  0  0  0  0
  139.2770   69.6500  223.5100 C   0  0  0  0  0  0  0  0  0  0  0  0
  137.9680   70.9270  223.5590 S   0  0  0  0  0  0  0  0  0  0  0  0
  138.9270   72.2180  222.7560 C   0  0  0  0  0  0  0  0  0  0  0  0
  140.2130   72.4790  223.0580 N   0  0  0  0  0  0  0  0  0  0  0  0
  140.5710   73.5320  222.3370 N   0  0  0  0  0  0  0  0  0  0  0  0
  139.4970   73.9070  221.6160 C   0  0  0  0  0  0  0  0  0  0  0  0
  139.4980   75.1250  220.7370 C   0  0  0  0  0  0  0  0  0  0  0  0
  139.6930   76.3640  221.5670 C   0  0  0  0  0  0  0  0  0  0  0  0
  140.9880   76.7820  221.9190 C   0  0  0  0  0  0  0  0  0  0  0  0
  141.1690   77.9170  222.7150 C   0  0  0  0  0  0  0  0  0  0  0  0
  140.0620   78.6350  223.1750 C   0  0  0  0  0  0  0  0  0  0  0  0
  138.7700   78.2190  222.8390 C   0  0  0  0  0  0  0  0  0  0  0  0
  138.5840   77.0850  222.0410 C   0  0  0  0  0  0  0  0  0  0  0  0
  138.4370   73.1040  221.8630 N   0  0  0  0  0  0  0  0  0  0  0  0
  137.0530   73.2170  221.3830 C   0  0  0  0  0  0  0  0  0  0  0  0
  136.4240   74.5520  221.7940 C   0  0  0  0  0  0  0  0  0  0  0  0
  135.8280   74.4890  223.1740 C   0  0  0  0  0  0  0  0  0  0  0  0
  135.6900   75.6620  223.9370 C   0  0  0  0  0  0  0  0  0  0  0  0
  135.0870   75.6140  225.1980 C   0  0  0  0  0  0  0  0  0  0  0  0
  134.6130   74.4010  225.7030 C   0  0  0  0  0  0  0  0  0  0  0  0
  134.7420   73.2320  224.9480 C   0  0  0  0  0  0  0  0  0  0  0  0
  135.3440   73.2750  223.6880 C   0  0  0  0  0  0  0  0  0  0  0  0
  140.0800   69.7500  225.9490 N   0  0  0  0  0  0  0  0  0  0  0  0
  140.3740   71.1730  225.9240 C   0  0  0  0  0  0  0  0  0  0  0  0
  141.0260   71.4790  227.2660 C   0  0  0  0  0  0  0  0  0  0  0  0
  140.7050   70.2920  228.1680 C   0  0  0  0  0  0  0  0  0  0  0  0
  140.3700   69.1390  227.2340 C   0  0  0  0  0  0  0  0  0  0  0  0
  140.2149   70.1175  223.1756 H   0  0  0  0  0  0  0  0  0  0  0  0
  138.9517   68.8610  222.8159 H   0  0  0  0  0  0  0  0  0  0  0  0
  140.3160   75.0449  220.0059 H   0  0  0  0  0  0  0  0  0  0  0  0
  138.5324   75.1913  220.2142 H   0  0  0  0  0  0  0  0  0  0  0  0
  141.8619   76.2142  221.5670 H   0  0  0  0  0  0  0  0  0  0  0  0
  142.1849   78.2455  222.9797 H   0  0  0  0  0  0  0  0  0  0  0  0
  140.2069   79.5275  223.8015 H   0  0  0  0  0  0  0  0  0  0  0  0
  137.8990   78.7839  223.2025 H   0  0  0  0  0  0  0  0  0  0  0  0
  137.5661   76.7567  221.7838 H   0  0  0  0  0  0  0  0  0  0  0  0
  137.0480   73.1422  220.2856 H   0  0  0  0  0  0  0  0  0  0  0  0
  136.4639   72.4045  221.8333 H   0  0  0  0  0  0  0  0  0  0  0  0
  137.2002   75.3313  221.7769 H   0  0  0  0  0  0  0  0  0  0  0  0
  135.6163   74.7818  221.0835 H   0  0  0  0  0  0  0  0  0  0  0  0
  136.0574   76.6202  223.5409 H   0  0  0  0  0  0  0  0  0  0  0  0
  134.9858   76.5334  225.7933 H   0  0  0  0  0  0  0  0  0  0  0  0
  134.1383   74.3659  226.6947 H   0  0  0  0  0  0  0  0  0  0  0  0
  134.3691   72.2769  225.3463 H   0  0  0  0  0  0  0  0  0  0  0  0
  135.4394   72.3532  223.0955 H   0  0  0  0  0  0  0  0  0  0  0  0
  141.0630   71.4085  225.0995 H   0  0  0  0  0  0  0  0  0  0  0  0
  139.4663   71.7739  225.7655 H   0  0  0  0  0  0  0  0  0  0  0  0
  142.1143   71.5856  227.1470 H   0  0  0  0  0  0  0  0  0  0  0  0
  140.6512   72.4218  227.6911 H   0  0  0  0  0  0  0  0  0  0  0  0
  141.5749   70.0390  228.7919 H   0  0  0  0  0  0  0  0  0  0  0  0
  139.8711   70.5158  228.8495 H   0  0  0  0  0  0  0  0  0  0  0  0
  141.2255   68.4528  227.1487 H   0  0  0  0  0  0  0  0  0  0  0  0
  139.5198   68.5480  227.6052 H   0  0  0  0  0  0  0  0  0  0  0  0
  1  2  2  0
  2  3  1  0
  3  4  1  0
  4  5  1  0
  5  6  2  0
  6  7  1  0
  7  8  2  0
  8  9  1  0
  9 10  1  0
 10 11  2  0
 11 12  1  0
 12 13  2  0
 13 14  1  0
 14 15  2  0
  8 16  1  0
 16 17  1  0
 17 18  1  0
 18 19  1  0
 19 20  2  0
 20 21  1  0
 21 22  2  0
 22 23  1  0
 23 24  2  0
  2 25  1  0
 25 26  1  0
 26 27  1  0
 27 28  1  0
 28 29  1  0
 16  5  1  0
 24 19  1  0
 29 25  1  0
 15 10  1  0
  3 30  1  0
  3 31  1  0
  9 32  1  0
  9 33  1  0
 11 34  1  0
 12 35  1  0
 13 36  1  0
 14 37  1  0
 15 38  1  0
 17 39  1  0
 17 40  1  0
 18 41  1  0
 18 42  1  0
 20 43  1  0
 21 44  1  0
 22 45  1  0
 23 46  1  0
 24 47  1  0
 26 48  1  0
 26 49  1  0
 27 50  1  0
 27 51  1  0
 28 52  1  0
 28 53  1  0
 29 54  1  0
 29 55  1  0
M  END
>  <UniqueID>  (13) 
17

>  <SMILES>  (13) 
O=C(CSc1nnc(Cc2ccccc2)n1CCc1ccccc1)N1CCCC1

>  <Energy>  (13) 
76.08292305206793

>  <Genealogy>  (13) 
O=C(CSc1nnc(Cc2ccccc2)n1CCc1ccccc1)N1CCCC1 (3D coordinates assigned)
O=C(CSc1nnc(Cc2ccccc2)n1CCc1ccccc1)N1CCCC1 (nonaromatic ring conformer: 76.08292305206793 kcal/mol)

>  <smiles>  (13) 
O=C(CSc1nnc(Cc2ccccc2)n1CCc1ccccc1)N1CCCC1

>  <score_type>  (13) 
oracle

>  <origin>  (13) 
autodockgpu

>  <m_score__min__energy>  (13) 
-8.1099999999999994

>  <m_primary>  (13) 
energy

>  <meeko>  (13) 
{"free_energy": -7.51, "intermolecular_energy": -9.9, "internal_energy": -2.06, "cluster_size": 5, "cluster_id": 1, "rank_in_cluster": 5}

>  <energy>  (13) 
-7.86

>  <cluster_rmsd>  (13) 
0.55

>  <rmsd>  (13) 
270.36

>  <cluster>  (13) 
3

$$$$
GPYMLVVOPJPQBB-UHFFFAOYNA-N
     RDKit          3D

 55 58  0  0  0  0  0  0  0  0999 V2000
  138.8830   69.7790  224.0980 O   0  0  0  0  0  0  0  0  0  0  0  0
  139.6720   70.6700  224.5120 C   0  0  0  0  0  0  0  0  0  0  0  0
  140.1820   71.6890  223.5350 C   0  0  0  0  0  0  0  0  0  0  0  0
  138.9470   72.1010  222.2510 S   0  0  0  0  0  0  0  0  0  0  0  0
  139.4160   73.8270  222.0770 C   0  0  0  0  0  0  0  0  0  0  0  0
  140.6910   74.2540  222.1270 N   0  0  0  0  0  0  0  0  0  0  0  0
  140.6580   75.5760  222.0430 N   0  0  0  0  0  0  0  0  0  0  0  0
  139.3630   75.9390  221.9560 C   0  0  0  0  0  0  0  0  0  0  0  0
  138.9250   77.3760  221.9300 C   0  0  0  0  0  0  0  0  0  0  0  0
  140.0760   78.2760  222.2860 C   0  0  0  0  0  0  0  0  0  0  0  0
  140.0660   78.9910  223.4960 C   0  0  0  0  0  0  0  0  0  0  0  0
  141.1220   79.8520  223.8140 C   0  0  0  0  0  0  0  0  0  0  0  0
  142.1870   80.0120  222.9240 C   0  0  0  0  0  0  0  0  0  0  0  0
  142.1980   79.3140  221.7130 C   0  0  0  0  0  0  0  0  0  0  0  0
  141.1460   78.4510  221.3920 C   0  0  0  0  0  0  0  0  0  0  0  0
  138.5500   74.8580  221.9840 N   0  0  0  0  0  0  0  0  0  0  0  0
  137.0830   74.8010  222.0240 C   0  0  0  0  0  0  0  0  0  0  0  0
  136.5140   75.7090  223.1190 C   0  0  0  0  0  0  0  0  0  0  0  0
  135.7130   74.9340  224.1290 C   0  0  0  0  0  0  0  0  0  0  0  0
  135.0570   75.6050  225.1760 C   0  0  0  0  0  0  0  0  0  0  0  0
  134.2670   74.8940  226.0840 C   0  0  0  0  0  0  0  0  0  0  0  0
  134.1210   73.5110  225.9520 C   0  0  0  0  0  0  0  0  0  0  0  0
  134.7660   72.8360  224.9110 C   0  0  0  0  0  0  0  0  0  0  0  0
  135.5560   73.5440  224.0020 C   0  0  0  0  0  0  0  0  0  0  0  0
  140.0680   70.6830  225.8960 N   0  0  0  0  0  0  0  0  0  0  0  0
  140.8740   71.7240  226.5130 C   0  0  0  0  0  0  0  0  0  0  0  0
  141.0870   71.2760  227.9530 C   0  0  0  0  0  0  0  0  0  0  0  0
  140.0460   70.1920  228.2130 C   0  0  0  0  0  0  0  0  0  0  0  0
  139.6400   69.6690  226.8430 C   0  0  0  0  0  0  0  0  0  0  0  0
  140.4407   72.6065  224.0839 H   0  0  0  0  0  0  0  0  0  0  0  0
  141.0606   71.2604  223.0307 H   0  0  0  0  0  0  0  0  0  0  0  0
  138.5651   77.6280  220.9216 H   0  0  0  0  0  0  0  0  0  0  0  0
  138.1176   77.5186  222.6633 H   0  0  0  0  0  0  0  0  0  0  0  0
  139.2251   78.8733  224.1953 H   0  0  0  0  0  0  0  0  0  0  0  0
  141.1137   80.4035  224.7657 H   0  0  0  0  0  0  0  0  0  0  0  0
  143.0174   80.6877  223.1764 H   0  0  0  0  0  0  0  0  0  0  0  0
  143.0354   79.4439  221.0117 H   0  0  0  0  0  0  0  0  0  0  0  0
  141.1559   77.9069  220.4360 H   0  0  0  0  0  0  0  0  0  0  0  0
  136.6863   75.1241  221.0502 H   0  0  0  0  0  0  0  0  0  0  0  0
  136.7844   73.7657  222.2453 H   0  0  0  0  0  0  0  0  0  0  0  0
  137.3469   76.2100  223.6341 H   0  0  0  0  0  0  0  0  0  0  0  0
  135.8455   76.4409  222.6422 H   0  0  0  0  0  0  0  0  0  0  0  0
  135.1659   76.6945  225.2811 H   0  0  0  0  0  0  0  0  0  0  0  0
  133.7597   75.4242  226.9035 H   0  0  0  0  0  0  0  0  0  0  0  0
  133.4986   72.9529  226.6670 H   0  0  0  0  0  0  0  0  0  0  0  0
  134.6513   71.7469  224.8078 H   0  0  0  0  0  0  0  0  0  0  0  0
  136.0581   73.0097  223.1819 H   0  0  0  0  0  0  0  0  0  0  0  0
  141.8390   71.8210  225.9941 H   0  0  0  0  0  0  0  0  0  0  0  0
  140.3811   72.7060  226.4604 H   0  0  0  0  0  0  0  0  0  0  0  0
  142.1015   70.8706  228.0813 H   0  0  0  0  0  0  0  0  0  0  0  0
  140.9803   72.1149  228.6565 H   0  0  0  0  0  0  0  0  0  0  0  0
  140.4792   69.3826  228.8189 H   0  0  0  0  0  0  0  0  0  0  0  0
  139.1818   70.5858  228.7681 H   0  0  0  0  0  0  0  0  0  0  0  0
  140.1404   68.7121  226.6334 H   0  0  0  0  0  0  0  0  0  0  0  0
  138.5571   69.4856  226.7816 H   0  0  0  0  0  0  0  0  0  0  0  0
  1  2  2  0
  2  3  1  0
  3  4  1  0
  4  5  1  0
  5  6  2  0
  6  7  1  0
  7  8  2  0
  8  9  1  0
  9 10  1  0
 10 11  2  0
 11 12  1  0
 12 13  2  0
 13 14  1  0
 14 15  2  0
  8 16  1  0
 16 17  1  0
 17 18  1  0
 18 19  1  0
 19 20  2  0
 20 21  1  0
 21 22  2  0
 22 23  1  0
 23 24  2  0
  2 25  1  0
 25 26  1  0
 26 27  1  0
 27 28  1  0
 28 29  1  0
 16  5  1  0
 24 19  1  0
 29 25  1  0
 15 10  1  0
  3 30  1  0
  3 31  1  0
  9 32  1  0
  9 33  1  0
 11 34  1  0
 12 35  1  0
 13 36  1  0
 14 37  1  0
 15 38  1  0
 17 39  1  0
 17 40  1  0
 18 41  1  0
 18 42  1  0
 20 43  1  0
 21 44  1  0
 22 45  1  0
 23 46  1  0
 24 47  1  0
 26 48  1  0
 26 49  1  0
 27 50  1  0
 27 51  1  0
 28 52  1  0
 28 53  1  0
 29 54  1  0
 29 55  1  0
M  END
>  <UniqueID>  (14) 
17

>  <SMILES>  (14) 
O=C(CSc1nnc(Cc2ccccc2)n1CCc1ccccc1)N1CCCC1

>  <Energy>  (14) 
76.08292305206793

>  <Genealogy>  (14) 
O=C(CSc1nnc(Cc2ccccc2)n1CCc1ccccc1)N1CCCC1 (3D coordinates assigned)
O=C(CSc1nnc(Cc2ccccc2)n1CCc1ccccc1)N1CCCC1 (nonaromatic ring conformer: 76.08292305206793 kcal/mol)

>  <smiles>  (14) 
O=C(CSc1nnc(Cc2ccccc2)n1CCc1ccccc1)N1CCCC1

>  <score_type>  (14) 
oracle

>  <origin>  (14) 
autodockgpu

>  <m_score__min__energy>  (14) 
-8.1099999999999994

>  <m_primary>  (14) 
energy

>  <meeko>  (14) 
{"free_energy": -8.11, "intermolecular_energy": -10.5, "internal_energy": -1.4, "cluster_size": 5, "cluster_id": 1, "rank_in_cluster": 1}

>  <energy>  (14) 
-7.75

>  <cluster_rmsd>  (14) 
0.0

>  <rmsd>  (14) 
270.26

>  <cluster>  (14) 
4

$$$$
GPYMLVVOPJPQBB-UHFFFAOYNA-N
     RDKit          3D

 55 58  0  0  0  0  0  0  0  0999 V2000
  138.4080   72.8690  219.8110 O   0  0  0  0  0  0  0  0  0  0  0  0
  139.1900   72.1400  220.4780 C   0  0  0  0  0  0  0  0  0  0  0  0
  140.5260   71.7890  219.8900 C   0  0  0  0  0  0  0  0  0  0  0  0
  141.9160   72.4070  220.9050 S   0  0  0  0  0  0  0  0  0  0  0  0
  141.1620   73.9820  221.3290 C   0  0  0  0  0  0  0  0  0  0  0  0
  140.2770   74.1310  222.3330 N   0  0  0  0  0  0  0  0  0  0  0  0
  139.8740   75.3930  222.3070 N   0  0  0  0  0  0  0  0  0  0  0  0
  140.5080   75.9940  221.2810 C   0  0  0  0  0  0  0  0  0  0  0  0
  140.2380   77.4180  220.8860 C   0  0  0  0  0  0  0  0  0  0  0  0
  141.0280   78.3570  221.7560 C   0  0  0  0  0  0  0  0  0  0  0  0
  141.7550   79.4120  221.1780 C   0  0  0  0  0  0  0  0  0  0  0  0
  142.5140   80.2680  221.9830 C   0  0  0  0  0  0  0  0  0  0  0  0
  142.5610   80.0710  223.3650 C   0  0  0  0  0  0  0  0  0  0  0  0
  141.8500   79.0160  223.9460 C   0  0  0  0  0  0  0  0  0  0  0  0
  141.0890   78.1590  223.1450 C   0  0  0  0  0  0  0  0  0  0  0  0
  141.3230   75.1290  220.6350 N   0  0  0  0  0  0  0  0  0  0  0  0
  142.1070   75.3300  219.4100 C   0  0  0  0  0  0  0  0  0  0  0  0
  143.5520   75.7260  219.7260 C   0  0  0  0  0  0  0  0  0  0  0  0
  144.4420   74.5230  219.8800 C   0  0  0  0  0  0  0  0  0  0  0  0
  144.3020   73.4250  219.0140 C   0  0  0  0  0  0  0  0  0  0  0  0
  145.1630   72.3290  219.1200 C   0  0  0  0  0  0  0  0  0  0  0  0
  146.1720   72.3220  220.0860 C   0  0  0  0  0  0  0  0  0  0  0  0
  146.3220   73.4120  220.9480 C   0  0  0  0  0  0  0  0  0  0  0  0
  145.4630   74.5090  220.8450 C   0  0  0  0  0  0  0  0  0  0  0  0
  138.7830   71.6590  221.7730 N   0  0  0  0  0  0  0  0  0  0  0  0
  139.6380   70.9140  222.6810 C   0  0  0  0  0  0  0  0  0  0  0  0
  138.7620   70.5680  223.8780 C   0  0  0  0  0  0  0  0  0  0  0  0
  137.5480   71.4860  223.7860 C   0  0  0  0  0  0  0  0  0  0  0  0
  137.4710   71.9300  222.3330 C   0  0  0  0  0  0  0  0  0  0  0  0
  140.6026   70.6943  219.8146 H   0  0  0  0  0  0  0  0  0  0  0  0
  140.5938   72.2659  218.9011 H   0  0  0  0  0  0  0  0  0  0  0  0
  140.5285   77.5650  219.8353 H   0  0  0  0  0  0  0  0  0  0  0  0
  139.1657   77.6283  221.0120 H   0  0  0  0  0  0  0  0  0  0  0  0
  141.7270   79.5650  220.0891 H   0  0  0  0  0  0  0  0  0  0  0  0
  143.0746   81.0974  221.5270 H   0  0  0  0  0  0  0  0  0  0  0  0
  143.1574   80.7458  223.9966 H   0  0  0  0  0  0  0  0  0  0  0  0
  141.8895   78.8603  225.0342 H   0  0  0  0  0  0  0  0  0  0  0  0
  140.5360   77.3265  223.6046 H   0  0  0  0  0  0  0  0  0  0  0  0
  142.1113   74.3947  218.8311 H   0  0  0  0  0  0  0  0  0  0  0  0
  141.6442   76.1452  218.8344 H   0  0  0  0  0  0  0  0  0  0  0  0
  143.9369   76.3507  218.9065 H   0  0  0  0  0  0  0  0  0  0  0  0
  143.5544   76.2762  220.6785 H   0  0  0  0  0  0  0  0  0  0  0  0
  143.5113   73.4281  218.2493 H   0  0  0  0  0  0  0  0  0  0  0  0
  145.0459   71.4709  218.4418 H   0  0  0  0  0  0  0  0  0  0  0  0
  146.8486   71.4586  220.1683 H   0  0  0  0  0  0  0  0  0  0  0  0
  147.1171   73.4061  221.7081 H   0  0  0  0  0  0  0  0  0  0  0  0
  145.5867   75.3663  221.5230 H   0  0  0  0  0  0  0  0  0  0  0  0
  140.0059   69.9974  222.1968 H   0  0  0  0  0  0  0  0  0  0  0  0
  140.5217   71.4976  222.9787 H   0  0  0  0  0  0  0  0  0  0  0  0
  138.4494   69.5144  223.8317 H   0  0  0  0  0  0  0  0  0  0  0  0
  139.3015   70.7054  224.8267 H   0  0  0  0  0  0  0  0  0  0  0  0
  136.6346   70.9422  224.0689 H   0  0  0  0  0  0  0  0  0  0  0  0
  137.6385   72.3452  224.4669 H   0  0  0  0  0  0  0  0  0  0  0  0
  136.6990   71.3584  221.7970 H   0  0  0  0  0  0  0  0  0  0  0  0
  137.2022   72.9931  222.2454 H   0  0  0  0  0  0  0  0  0  0  0  0
  1  2  2  0
  2  3  1  0
  3  4  1  0
  4  5  1  0
  5  6  2  0
  6  7  1  0
  7  8  2  0
  8  9  1  0
  9 10  1  0
 10 11  2  0
 11 12  1  0
 12 13  2  0
 13 14  1  0
 14 15  2  0
  8 16  1  0
 16 17  1  0
 17 18  1  0
 18 19  1  0
 19 20  2  0
 20 21  1  0
 21 22  2  0
 22 23  1  0
 23 24  2  0
  2 25  1  0
 25 26  1  0
 26 27  1  0
 27 28  1  0
 28 29  1  0
 16  5  1  0
 24 19  1  0
 29 25  1  0
 15 10  1  0
  3 30  1  0
  3 31  1  0
  9 32  1  0
  9 33  1  0
 11 34  1  0
 12 35  1  0
 13 36  1  0
 14 37  1  0
 15 38  1  0
 17 39  1  0
 17 40  1  0
 18 41  1  0
 18 42  1  0
 20 43  1  0
 21 44  1  0
 22 45  1  0
 23 46  1  0
 24 47  1  0
 26 48  1  0
 26 49  1  0
 27 50  1  0
 27 51  1  0
 28 52  1  0
 28 53  1  0
 29 54  1  0
 29 55  1  0
M  END
>  <UniqueID>  (15) 
17

>  <SMILES>  (15) 
O=C(CSc1nnc(Cc2ccccc2)n1CCc1ccccc1)N1CCCC1

>  <Energy>  (15) 
76.08292305206793

>  <Genealogy>  (15) 
O=C(CSc1nnc(Cc2ccccc2)n1CCc1ccccc1)N1CCCC1 (3D coordinates assigned)
O=C(CSc1nnc(Cc2ccccc2)n1CCc1ccccc1)N1CCCC1 (nonaromatic ring conformer: 76.08292305206793 kcal/mol)

>  <smiles>  (15) 
O=C(CSc1nnc(Cc2ccccc2)n1CCc1ccccc1)N1CCCC1

>  <score_type>  (15) 
oracle

>  <origin>  (15) 
autodockgpu

>  <m_score__min__energy>  (15) 
-8.1099999999999994

>  <m_primary>  (15) 
energy

>  <meeko>  (15) 
{"free_energy": -7.16, "intermolecular_energy": -9.54, "internal_energy": -2.17, "cluster_size": 4, "cluster_id": 2, "rank_in_cluster": 3}

>  <energy>  (15) 
-7.33

>  <cluster_rmsd>  (15) 
0.0

>  <rmsd>  (15) 
270.17

>  <cluster>  (15) 
5

$$$$
GPYMLVVOPJPQBB-UHFFFAOYNA-N
     RDKit          3D

 55 58  0  0  0  0  0  0  0  0999 V2000
  138.9390   68.5440  223.4650 O   0  0  0  0  0  0  0  0  0  0  0  0
  139.3200   69.7410  223.5730 C   0  0  0  0  0  0  0  0  0  0  0  0
  139.0540   70.6860  222.4360 C   0  0  0  0  0  0  0  0  0  0  0  0
  140.5840   71.1580  221.5530 S   0  0  0  0  0  0  0  0  0  0  0  0
  140.3140   72.9340  221.6340 C   0  0  0  0  0  0  0  0  0  0  0  0
  139.6800   73.5380  222.6570 N   0  0  0  0  0  0  0  0  0  0  0  0
  139.5930   74.8240  222.3490 N   0  0  0  0  0  0  0  0  0  0  0  0
  140.1620   74.9850  221.1390 C   0  0  0  0  0  0  0  0  0  0  0  0
  140.1760   76.3040  220.4200 C   0  0  0  0  0  0  0  0  0  0  0  0
  140.8870   77.3390  221.2470 C   0  0  0  0  0  0  0  0  0  0  0  0
  140.8640   77.2610  222.6500 C   0  0  0  0  0  0  0  0  0  0  0  0
  141.5000   78.2390  223.4210 C   0  0  0  0  0  0  0  0  0  0  0  0
  142.1540   79.3060  222.7980 C   0  0  0  0  0  0  0  0  0  0  0  0
  142.1710   79.3970  221.4030 C   0  0  0  0  0  0  0  0  0  0  0  0
  141.5380   78.4200  220.6290 C   0  0  0  0  0  0  0  0  0  0  0  0
  140.6200   73.8080  220.6530 N   0  0  0  0  0  0  0  0  0  0  0  0
  141.2030   73.5100  219.3390 C   0  0  0  0  0  0  0  0  0  0  0  0
  142.2890   72.4330  219.4360 C   0  0  0  0  0  0  0  0  0  0  0  0
  143.5950   72.9980  219.9240 C   0  0  0  0  0  0  0  0  0  0  0  0
  143.7850   74.3900  219.9830 C   0  0  0  0  0  0  0  0  0  0  0  0
  144.9770   74.9170  220.4880 C   0  0  0  0  0  0  0  0  0  0  0  0
  145.9850   74.0630  220.9420 C   0  0  0  0  0  0  0  0  0  0  0  0
  145.8020   72.6780  220.8910 C   0  0  0  0  0  0  0  0  0  0  0  0
  144.6120   72.1470  220.3870 C   0  0  0  0  0  0  0  0  0  0  0  0
  140.0010   70.1670  224.7680 N   0  0  0  0  0  0  0  0  0  0  0  0
  140.3790   71.5400  225.0560 C   0  0  0  0  0  0  0  0  0  0  0  0
  141.1240   71.4890  226.3840 C   0  0  0  0  0  0  0  0  0  0  0  0
  140.7840   70.1380  227.0030 C   0  0  0  0  0  0  0  0  0  0  0  0
  140.3270   69.2560  225.8510 C   0  0  0  0  0  0  0  0  0  0  0  0
  138.3707   70.1996  221.7243 H   0  0  0  0  0  0  0  0  0  0  0  0
  138.6119   71.6015  222.8560 H   0  0  0  0  0  0  0  0  0  0  0  0
  140.6962   76.1877  219.4578 H   0  0  0  0  0  0  0  0  0  0  0  0
  139.1396   76.6308  220.2497 H   0  0  0  0  0  0  0  0  0  0  0  0
  140.3435   76.4271  223.1437 H   0  0  0  0  0  0  0  0  0  0  0  0
  141.4857   78.1687  224.5187 H   0  0  0  0  0  0  0  0  0  0  0  0
  142.6553   80.0740  223.4054 H   0  0  0  0  0  0  0  0  0  0  0  0
  142.6832   80.2386  220.9137 H   0  0  0  0  0  0  0  0  0  0  0  0
  141.5496   78.4978  219.5318 H   0  0  0  0  0  0  0  0  0  0  0  0
  140.4073   73.1554  218.6673 H   0  0  0  0  0  0  0  0  0  0  0  0
  141.6639   74.4299  218.9499 H   0  0  0  0  0  0  0  0  0  0  0  0
  141.9551   71.6528  220.1358 H   0  0  0  0  0  0  0  0  0  0  0  0
  142.4505   72.0191  218.4297 H   0  0  0  0  0  0  0  0  0  0  0  0
  142.9926   75.0667  219.6304 H   0  0  0  0  0  0  0  0  0  0  0  0
  145.1217   76.0067  220.5280 H   0  0  0  0  0  0  0  0  0  0  0  0
  146.9221   74.4801  221.3394 H   0  0  0  0  0  0  0  0  0  0  0  0
  146.5958   72.0055  221.2481 H   0  0  0  0  0  0  0  0  0  0  0  0
  144.4708   71.0566  220.3526 H   0  0  0  0  0  0  0  0  0  0  0  0
  141.0330   71.9327  224.2635 H   0  0  0  0  0  0  0  0  0  0  0  0
  139.5019   72.2020  225.1061 H   0  0  0  0  0  0  0  0  0  0  0  0
  142.2082   71.5716  226.2178 H   0  0  0  0  0  0  0  0  0  0  0  0
  140.8316   72.3199  227.0429 H   0  0  0  0  0  0  0  0  0  0  0  0
  141.6713   69.7050  227.4880 H   0  0  0  0  0  0  0  0  0  0  0  0
  140.0054   70.2312  227.7744 H   0  0  0  0  0  0  0  0  0  0  0  0
  141.1332   68.5718  225.5478 H   0  0  0  0  0  0  0  0  0  0  0  0
  139.4654   68.6327  226.1322 H   0  0  0  0  0  0  0  0  0  0  0  0
  1  2  2  0
  2  3  1  0
  3  4  1  0
  4  5  1  0
  5  6  2  0
  6  7  1  0
  7  8  2  0
  8  9  1  0
  9 10  1  0
 10 11  2  0
 11 12  1  0
 12 13  2  0
 13 14  1  0
 14 15  2  0
  8 16  1  0
 16 17  1  0
 17 18  1  0
 18 19  1  0
 19 20  2  0
 20 21  1  0
 21 22  2  0
 22 23  1  0
 23 24  2  0
  2 25  1  0
 25 26  1  0
 26 27  1  0
 27 28  1  0
 28 29  1  0
 16  5  1  0
 24 19  1  0
 29 25  1  0
 15 10  1  0
  3 30  1  0
  3 31  1  0
  9 32  1  0
  9 33  1  0
 11 34  1  0
 12 35  1  0
 13 36  1  0
 14 37  1  0
 15 38  1  0
 17 39  1  0
 17 40  1  0
 18 41  1  0
 18 42  1  0
 20 43  1  0
 21 44  1  0
 22 45  1  0
 23 46  1  0
 24 47  1  0
 26 48  1  0
 26 49  1  0
 27 50  1  0
 27 51  1  0
 28 52  1  0
 28 53  1  0
 29 54  1  0
 29 55  1  0
M  END
>  <UniqueID>  (16) 
17

>  <SMILES>  (16) 
O=C(CSc1nnc(Cc2ccccc2)n1CCc1ccccc1)N1CCCC1

>  <Energy>  (16) 
76.08292305206793

>  <Genealogy>  (16) 
O=C(CSc1nnc(Cc2ccccc2)n1CCc1ccccc1)N1CCCC1 (3D coordinates assigned)
O=C(CSc1nnc(Cc2ccccc2)n1CCc1ccccc1)N1CCCC1 (nonaromatic ring conformer: 76.08292305206793 kcal/mol)

>  <smiles>  (16) 
O=C(CSc1nnc(Cc2ccccc2)n1CCc1ccccc1)N1CCCC1

>  <score_type>  (16) 
oracle

>  <origin>  (16) 
autodockgpu

>  <m_score__min__energy>  (16) 
-8.1099999999999994

>  <m_primary>  (16) 
energy

>  <meeko>  (16) 
{"free_energy": -7.65, "intermolecular_energy": -10.03, "internal_energy": -1.61, "cluster_size": 4, "cluster_id": 2, "rank_in_cluster": 2}

>  <energy>  (16) 
-7.33

>  <cluster_rmsd>  (16) 
0.87

>  <rmsd>  (16) 
270.02

>  <cluster>  (16) 
5

$$$$
GPYMLVVOPJPQBB-UHFFFAOYNA-N
     RDKit          3D

 55 58  0  0  0  0  0  0  0  0999 V2000
  138.4900   77.4480  222.9930 O   0  0  0  0  0  0  0  0  0  0  0  0
  139.5740   77.4740  222.3520 C   0  0  0  0  0  0  0  0  0  0  0  0
  139.7850   76.4740  221.2520 C   0  0  0  0  0  0  0  0  0  0  0  0
  138.3780   75.3170  221.0860 S   0  0  0  0  0  0  0  0  0  0  0  0
  139.1610   73.9370  221.9310 C   0  0  0  0  0  0  0  0  0  0  0  0
  140.4850   73.8670  222.1600 N   0  0  0  0  0  0  0  0  0  0  0  0
  140.7160   72.6910  222.7250 N   0  0  0  0  0  0  0  0  0  0  0  0
  139.5330   72.0550  222.8220 C   0  0  0  0  0  0  0  0  0  0  0  0
  139.4090   70.6490  223.3390 C   0  0  0  0  0  0  0  0  0  0  0  0
  139.7630   70.6010  224.8000 C   0  0  0  0  0  0  0  0  0  0  0  0
  140.6790   71.5220  225.3360 C   0  0  0  0  0  0  0  0  0  0  0  0
  141.0320   71.4590  226.6880 C   0  0  0  0  0  0  0  0  0  0  0  0
  140.4820   70.4710  227.5100 C   0  0  0  0  0  0  0  0  0  0  0  0
  139.5800   69.5440  226.9810 C   0  0  0  0  0  0  0  0  0  0  0  0
  139.2230   69.6040  225.6310 C   0  0  0  0  0  0  0  0  0  0  0  0
  138.5280   72.8100  222.3200 N   0  0  0  0  0  0  0  0  0  0  0  0
  137.1140   72.4650  222.1280 C   0  0  0  0  0  0  0  0  0  0  0  0
  136.4050   72.2330  223.4650 C   0  0  0  0  0  0  0  0  0  0  0  0
  135.8110   73.5030  224.0120 C   0  0  0  0  0  0  0  0  0  0  0  0
  136.1350   74.7410  223.4310 C   0  0  0  0  0  0  0  0  0  0  0  0
  135.5430   75.9170  223.9020 C   0  0  0  0  0  0  0  0  0  0  0  0
  134.6200   75.8660  224.9500 C   0  0  0  0  0  0  0  0  0  0  0  0
  134.2890   74.6380  225.5290 C   0  0  0  0  0  0  0  0  0  0  0  0
  134.8780   73.4610  225.0620 C   0  0  0  0  0  0  0  0  0  0  0  0
  140.5780   78.4490  222.6910 N   0  0  0  0  0  0  0  0  0  0  0  0
  141.8110   78.6540  221.9500 C   0  0  0  0  0  0  0  0  0  0  0  0
  142.5740   79.7280  222.7140 C   0  0  0  0  0  0  0  0  0  0  0  0
  141.5560   80.3870  223.6390 C   0  0  0  0  0  0  0  0  0  0  0  0
  140.4230   79.3830  223.7920 C   0  0  0  0  0  0  0  0  0  0  0  0
  139.9125   77.0144  220.3024 H   0  0  0  0  0  0  0  0  0  0  0  0
  140.6788   75.8832  221.5013 H   0  0  0  0  0  0  0  0  0  0  0  0
  138.3739   70.3020  223.2041 H   0  0  0  0  0  0  0  0  0  0  0  0
  140.0983   69.9986  222.7806 H   0  0  0  0  0  0  0  0  0  0  0  0
  141.1201   72.2954  224.6900 H   0  0  0  0  0  0  0  0  0  0  0  0
  141.7430   72.1875  227.1048 H   0  0  0  0  0  0  0  0  0  0  0  0
  140.7593   70.4233  228.5734 H   0  0  0  0  0  0  0  0  0  0  0  0
  139.1501   68.7655  227.6284 H   0  0  0  0  0  0  0  0  0  0  0  0
  138.5172   68.8686  225.2174 H   0  0  0  0  0  0  0  0  0  0  0  0
  136.6143   73.2886  221.5969 H   0  0  0  0  0  0  0  0  0  0  0  0
  137.0627   71.5338  221.5447 H   0  0  0  0  0  0  0  0  0  0  0  0
  135.5998   71.4981  223.3179 H   0  0  0  0  0  0  0  0  0  0  0  0
  137.1494   71.8658  224.1868 H   0  0  0  0  0  0  0  0  0  0  0  0
  136.8572   74.7850  222.6024 H   0  0  0  0  0  0  0  0  0  0  0  0
  135.8042   76.8838  223.4469 H   0  0  0  0  0  0  0  0  0  0  0  0
  134.1543   76.7918  225.3189 H   0  0  0  0  0  0  0  0  0  0  0  0
  133.5630   74.5983  226.3544 H   0  0  0  0  0  0  0  0  0  0  0  0
  134.6104   72.4965  225.5182 H   0  0  0  0  0  0  0  0  0  0  0  0
  142.3949   77.7226  221.9108 H   0  0  0  0  0  0  0  0  0  0  0  0
  141.6158   78.9551  220.9102 H   0  0  0  0  0  0  0  0  0  0  0  0
  143.3871   79.2754  223.3006 H   0  0  0  0  0  0  0  0  0  0  0  0
  143.0327   80.4594  222.0323 H   0  0  0  0  0  0  0  0  0  0  0  0
  142.0108   80.6031  224.6170 H   0  0  0  0  0  0  0  0  0  0  0  0
  141.1970   81.3429  223.2300 H   0  0  0  0  0  0  0  0  0  0  0  0
  140.5027   78.8578  224.7552 H   0  0  0  0  0  0  0  0  0  0  0  0
  139.4388   79.8739  223.7740 H   0  0  0  0  0  0  0  0  0  0  0  0
  1  2  2  0
  2  3  1  0
  3  4  1  0
  4  5  1  0
  5  6  2  0
  6  7  1  0
  7  8  2  0
  8  9  1  0
  9 10  1  0
 10 11  2  0
 11 12  1  0
 12 13  2  0
 13 14  1  0
 14 15  2  0
  8 16  1  0
 16 17  1  0
 17 18  1  0
 18 19  1  0
 19 20  2  0
 20 21  1  0
 21 22  2  0
 22 23  1  0
 23 24  2  0
  2 25  1  0
 25 26  1  0
 26 27  1  0
 27 28  1  0
 28 29  1  0
 16  5  1  0
 24 19  1  0
 29 25  1  0
 15 10  1  0
  3 30  1  0
  3 31  1  0
  9 32  1  0
  9 33  1  0
 11 34  1  0
 12 35  1  0
 13 36  1  0
 14 37  1  0
 15 38  1  0
 17 39  1  0
 17 40  1  0
 18 41  1  0
 18 42  1  0
 20 43  1  0
 21 44  1  0
 22 45  1  0
 23 46  1  0
 24 47  1  0
 26 48  1  0
 26 49  1  0
 27 50  1  0
 27 51  1  0
 28 52  1  0
 28 53  1  0
 29 54  1  0
 29 55  1  0
M  END
>  <UniqueID>  (17) 
17

>  <SMILES>  (17) 
O=C(CSc1nnc(Cc2ccccc2)n1CCc1ccccc1)N1CCCC1

>  <Energy>  (17) 
76.08292305206793

>  <Genealogy>  (17) 
O=C(CSc1nnc(Cc2ccccc2)n1CCc1ccccc1)N1CCCC1 (3D coordinates assigned)
O=C(CSc1nnc(Cc2ccccc2)n1CCc1ccccc1)N1CCCC1 (nonaromatic ring conformer: 76.08292305206793 kcal/mol)

>  <smiles>  (17) 
O=C(CSc1nnc(Cc2ccccc2)n1CCc1ccccc1)N1CCCC1

>  <score_type>  (17) 
oracle

>  <origin>  (17) 
autodockgpu

>  <m_score__min__energy>  (17) 
-8.1099999999999994

>  <m_primary>  (17) 
energy

>  <meeko>  (17) 
{"free_energy": -7.86, "intermolecular_energy": -10.24, "internal_energy": -1.72, "cluster_size": 4, "cluster_id": 3, "rank_in_cluster": 4}

>  <energy>  (17) 
-7.2

>  <cluster_rmsd>  (17) 
0.0

>  <rmsd>  (17) 
270.08

>  <cluster>  (17) 
6

$$$$
GPYMLVVOPJPQBB-UHFFFAOYNA-N
     RDKit          3D

 55 58  0  0  0  0  0  0  0  0999 V2000
  138.4110   77.5070  223.0770 O   0  0  0  0  0  0  0  0  0  0  0  0
  139.4730   77.5190  222.4000 C   0  0  0  0  0  0  0  0  0  0  0  0
  139.6200   76.5350  221.2750 C   0  0  0  0  0  0  0  0  0  0  0  0
  138.2040   75.3820  221.1710 S   0  0  0  0  0  0  0  0  0  0  0  0
  139.0210   73.9990  221.9770 C   0  0  0  0  0  0  0  0  0  0  0  0
  140.3510   73.9400  222.1740 N   0  0  0  0  0  0  0  0  0  0  0  0
  140.6080   72.7590  222.7160 N   0  0  0  0  0  0  0  0  0  0  0  0
  139.4340   72.1070  222.8300 C   0  0  0  0  0  0  0  0  0  0  0  0
  139.3380   70.6930  223.3290 C   0  0  0  0  0  0  0  0  0  0  0  0
  139.7450   70.6230  224.7750 C   0  0  0  0  0  0  0  0  0  0  0  0
  139.1890   69.6470  225.6190 C   0  0  0  0  0  0  0  0  0  0  0  0
  139.5450   69.6000  226.9710 C   0  0  0  0  0  0  0  0  0  0  0  0
  140.4480   70.5310  227.4900 C   0  0  0  0  0  0  0  0  0  0  0  0
  140.9970   71.5120  226.6590 C   0  0  0  0  0  0  0  0  0  0  0  0
  140.6450   71.5620  225.3070 C   0  0  0  0  0  0  0  0  0  0  0  0
  138.4100   72.8590  222.3630 N   0  0  0  0  0  0  0  0  0  0  0  0
  136.9960   72.5010  222.1970 C   0  0  0  0  0  0  0  0  0  0  0  0
  136.3460   72.1410  223.5370 C   0  0  0  0  0  0  0  0  0  0  0  0
  135.5960   73.3050  224.1260 C   0  0  0  0  0  0  0  0  0  0  0  0
  134.7040   73.1020  225.1940 C   0  0  0  0  0  0  0  0  0  0  0  0
  134.0480   74.1890  225.7790 C   0  0  0  0  0  0  0  0  0  0  0  0
  134.2800   75.4840  225.3090 C   0  0  0  0  0  0  0  0  0  0  0  0
  135.1690   75.6940  224.2510 C   0  0  0  0  0  0  0  0  0  0  0  0
  135.8270   74.6100  223.6630 C   0  0  0  0  0  0  0  0  0  0  0  0
  140.5140   78.4610  222.7220 N   0  0  0  0  0  0  0  0  0  0  0  0
  141.7260   78.6480  221.9430 C   0  0  0  0  0  0  0  0  0  0  0  0
  142.5420   79.6880  222.7000 C   0  0  0  0  0  0  0  0  0  0  0  0
  141.5740   80.3540  223.6720 C   0  0  0  0  0  0  0  0  0  0  0  0
  140.4210   79.3760  223.8450 C   0  0  0  0  0  0  0  0  0  0  0  0
  139.6950   77.0893  220.3278 H   0  0  0  0  0  0  0  0  0  0  0  0
  140.5252   75.9396  221.4651 H   0  0  0  0  0  0  0  0  0  0  0  0
  138.3009   70.3412  223.2261 H   0  0  0  0  0  0  0  0  0  0  0  0
  140.0113   70.0569  222.7357 H   0  0  0  0  0  0  0  0  0  0  0  0
  138.4714   68.9175  225.2153 H   0  0  0  0  0  0  0  0  0  0  0  0
  139.1134   68.8290  227.6262 H   0  0  0  0  0  0  0  0  0  0  0  0
  140.7272   70.4922  228.5533 H   0  0  0  0  0  0  0  0  0  0  0  0
  141.7067   72.2454  227.0694 H   0  0  0  0  0  0  0  0  0  0  0  0
  141.0740   72.3391  224.6573 H   0  0  0  0  0  0  0  0  0  0  0  0
  136.4602   73.3556  221.7582 H   0  0  0  0  0  0  0  0  0  0  0  0
  136.9380   71.6219  221.5384 H   0  0  0  0  0  0  0  0  0  0  0  0
  135.6445   71.3084  223.3799 H   0  0  0  0  0  0  0  0  0  0  0  0
  137.1445   71.8588  224.2390 H   0  0  0  0  0  0  0  0  0  0  0  0
  134.5218   72.0845  225.5703 H   0  0  0  0  0  0  0  0  0  0  0  0
  133.3477   74.0244  226.6111 H   0  0  0  0  0  0  0  0  0  0  0  0
  133.7633   76.3380  225.7713 H   0  0  0  0  0  0  0  0  0  0  0  0
  135.3510   76.7137  223.8807 H   0  0  0  0  0  0  0  0  0  0  0  0
  136.5291   74.7803  222.8335 H   0  0  0  0  0  0  0  0  0  0  0  0
  142.2837   77.7029  221.8673 H   0  0  0  0  0  0  0  0  0  0  0  0
  141.5040   78.9731  220.9158 H   0  0  0  0  0  0  0  0  0  0  0  0
  143.3630   79.2041  223.2493 H   0  0  0  0  0  0  0  0  0  0  0  0
  142.9952   80.4209  222.0163 H   0  0  0  0  0  0  0  0  0  0  0  0
  142.0675   80.5389  224.6375 H   0  0  0  0  0  0  0  0  0  0  0  0
  141.2263   81.3268  223.2941 H   0  0  0  0  0  0  0  0  0  0  0  0
  140.5199   78.8298  224.7947 H   0  0  0  0  0  0  0  0  0  0  0  0
  139.4498   79.8919  223.8706 H   0  0  0  0  0  0  0  0  0  0  0  0
  1  2  2  0
  2  3  1  0
  3  4  1  0
  4  5  1  0
  5  6  2  0
  6  7  1  0
  7  8  2  0
  8  9  1  0
  9 10  1  0
 10 11  2  0
 11 12  1  0
 12 13  2  0
 13 14  1  0
 14 15  2  0
  8 16  1  0
 16 17  1  0
 17 18  1  0
 18 19  1  0
 19 20  2  0
 20 21  1  0
 21 22  2  0
 22 23  1  0
 23 24  2  0
  2 25  1  0
 25 26  1  0
 26 27  1  0
 27 28  1  0
 28 29  1  0
 16  5  1  0
 24 19  1  0
 29 25  1  0
 15 10  1  0
  3 30  1  0
  3 31  1  0
  9 32  1  0
  9 33  1  0
 11 34  1  0
 12 35  1  0
 13 36  1  0
 14 37  1  0
 15 38  1  0
 17 39  1  0
 17 40  1  0
 18 41  1  0
 18 42  1  0
 20 43  1  0
 21 44  1  0
 22 45  1  0
 23 46  1  0
 24 47  1  0
 26 48  1  0
 26 49  1  0
 27 50  1  0
 27 51  1  0
 28 52  1  0
 28 53  1  0
 29 54  1  0
 29 55  1  0
M  END
>  <UniqueID>  (18) 
17

>  <SMILES>  (18) 
O=C(CSc1nnc(Cc2ccccc2)n1CCc1ccccc1)N1CCCC1

>  <Energy>  (18) 
76.08292305206793

>  <Genealogy>  (18) 
O=C(CSc1nnc(Cc2ccccc2)n1CCc1ccccc1)N1CCCC1 (3D coordinates assigned)
O=C(CSc1nnc(Cc2ccccc2)n1CCc1ccccc1)N1CCCC1 (nonaromatic ring conformer: 76.08292305206793 kcal/mol)

>  <smiles>  (18) 
O=C(CSc1nnc(Cc2ccccc2)n1CCc1ccccc1)N1CCCC1

>  <score_type>  (18) 
oracle

>  <origin>  (18) 
autodockgpu

>  <m_score__min__energy>  (18) 
-8.1099999999999994

>  <m_primary>  (18) 
energy

>  <meeko>  (18) 
{"free_energy": -7.92, "intermolecular_energy": -10.31, "internal_energy": -1.68, "cluster_size": 4, "cluster_id": 3, "rank_in_cluster": 2}

>  <energy>  (18) 
-6.92

>  <cluster_rmsd>  (18) 
0.96

>  <rmsd>  (18) 
270.06

>  <cluster>  (18) 
6

$$$$
GPYMLVVOPJPQBB-UHFFFAOYNA-N
     RDKit          3D

 55 58  0  0  0  0  0  0  0  0999 V2000
  146.2010   73.2100  219.3440 O   0  0  0  0  0  0  0  0  0  0  0  0
  145.1230   72.6950  219.7450 C   0  0  0  0  0  0  0  0  0  0  0  0
  144.0940   73.5840  220.3820 C   0  0  0  0  0  0  0  0  0  0  0  0
  142.6520   73.8680  219.2940 S   0  0  0  0  0  0  0  0  0  0  0  0
  141.5710   74.5240  220.5720 C   0  0  0  0  0  0  0  0  0  0  0  0
  141.1900   73.8160  221.6520 N   0  0  0  0  0  0  0  0  0  0  0  0
  140.3430   74.5760  222.3300 N   0  0  0  0  0  0  0  0  0  0  0  0
  140.2080   75.7310  221.6500 C   0  0  0  0  0  0  0  0  0  0  0  0
  139.2560   76.8130  222.0720 C   0  0  0  0  0  0  0  0  0  0  0  0
  140.0100   77.9540  222.6990 C   0  0  0  0  0  0  0  0  0  0  0  0
  139.3680   79.1820  222.9320 C   0  0  0  0  0  0  0  0  0  0  0  0
  140.0760   80.2530  223.4870 C   0  0  0  0  0  0  0  0  0  0  0  0
  141.4300   80.1080  223.8030 C   0  0  0  0  0  0  0  0  0  0  0  0
  142.0780   78.8930  223.5630 C   0  0  0  0  0  0  0  0  0  0  0  0
  141.3730   77.8190  223.0100 C   0  0  0  0  0  0  0  0  0  0  0  0
  140.9640   75.7290  220.5270 N   0  0  0  0  0  0  0  0  0  0  0  0
  141.0320   76.7260  219.4510 C   0  0  0  0  0  0  0  0  0  0  0  0
  142.3750   77.4630  219.4530 C   0  0  0  0  0  0  0  0  0  0  0  0
  142.2000   78.9460  219.2640 C   0  0  0  0  0  0  0  0  0  0  0  0
  142.5600   79.5500  218.0470 C   0  0  0  0  0  0  0  0  0  0  0  0
  142.3480   80.9180  217.8500 C   0  0  0  0  0  0  0  0  0  0  0  0
  141.7720   81.6900  218.8610 C   0  0  0  0  0  0  0  0  0  0  0  0
  141.4070   81.0960  220.0730 C   0  0  0  0  0  0  0  0  0  0  0  0
  141.6180   79.7290  220.2740 C   0  0  0  0  0  0  0  0  0  0  0  0
  144.9100   71.2790  219.5910 N   0  0  0  0  0  0  0  0  0  0  0  0
  143.6670   70.5950  219.9040 C   0  0  0  0  0  0  0  0  0  0  0  0
  143.9380   69.1180  219.6480 C   0  0  0  0  0  0  0  0  0  0  0  0
  145.2080   69.0650  218.8050 C   0  0  0  0  0  0  0  0  0  0  0  0
  145.9170   70.3910  219.0380 C   0  0  0  0  0  0  0  0  0  0  0  0
  143.7469   73.1124  221.3132 H   0  0  0  0  0  0  0  0  0  0  0  0
  144.5656   74.5586  220.5764 H   0  0  0  0  0  0  0  0  0  0  0  0
  138.7092   77.1797  221.1908 H   0  0  0  0  0  0  0  0  0  0  0  0
  138.5498   76.4021  222.8085 H   0  0  0  0  0  0  0  0  0  0  0  0
  138.3047   79.3015  222.6770 H   0  0  0  0  0  0  0  0  0  0  0  0
  139.5671   81.2099  223.6749 H   0  0  0  0  0  0  0  0  0  0  0  0
  141.9857   80.9504  224.2407 H   0  0  0  0  0  0  0  0  0  0  0  0
  143.1442   78.7813  223.8095 H   0  0  0  0  0  0  0  0  0  0  0  0
  141.8875   76.8659  222.8181 H   0  0  0  0  0  0  0  0  0  0  0  0
  140.9047   76.2175  218.4839 H   0  0  0  0  0  0  0  0  0  0  0  0
  140.2328   77.4642  219.6133 H   0  0  0  0  0  0  0  0  0  0  0  0
  142.8779   77.2837  220.4147 H   0  0  0  0  0  0  0  0  0  0  0  0
  142.9758   77.0804  218.6148 H   0  0  0  0  0  0  0  0  0  0  0  0
  143.0101   78.9444  217.2466 H   0  0  0  0  0  0  0  0  0  0  0  0
  142.6354   81.3867  216.8973 H   0  0  0  0  0  0  0  0  0  0  0  0
  141.6053   82.7659  218.7038 H   0  0  0  0  0  0  0  0  0  0  0  0
  140.9535   81.7050  220.8689 H   0  0  0  0  0  0  0  0  0  0  0  0
  141.3268   79.2644  221.2276 H   0  0  0  0  0  0  0  0  0  0  0  0
  143.3930   70.7585  220.9567 H   0  0  0  0  0  0  0  0  0  0  0  0
  142.8316   70.9679  219.2932 H   0  0  0  0  0  0  0  0  0  0  0  0
  144.0879   68.5862  220.5992 H   0  0  0  0  0  0  0  0  0  0  0  0
  143.0928   68.6357  219.1351 H   0  0  0  0  0  0  0  0  0  0  0  0
  145.8458   68.2282  219.1258 H   0  0  0  0  0  0  0  0  0  0  0  0
  144.9804   68.9097  217.7401 H   0  0  0  0  0  0  0  0  0  0  0  0
  146.7478   70.2630  219.7476 H   0  0  0  0  0  0  0  0  0  0  0  0
  146.3476   70.7918  218.1085 H   0  0  0  0  0  0  0  0  0  0  0  0
  1  2  2  0
  2  3  1  0
  3  4  1  0
  4  5  1  0
  5  6  2  0
  6  7  1  0
  7  8  2  0
  8  9  1  0
  9 10  1  0
 10 11  2  0
 11 12  1  0
 12 13  2  0
 13 14  1  0
 14 15  2  0
  8 16  1  0
 16 17  1  0
 17 18  1  0
 18 19  1  0
 19 20  2  0
 20 21  1  0
 21 22  2  0
 22 23  1  0
 23 24  2  0
  2 25  1  0
 25 26  1  0
 26 27  1  0
 27 28  1  0
 28 29  1  0
 16  5  1  0
 24 19  1  0
 29 25  1  0
 15 10  1  0
  3 30  1  0
  3 31  1  0
  9 32  1  0
  9 33  1  0
 11 34  1  0
 12 35  1  0
 13 36  1  0
 14 37  1  0
 15 38  1  0
 17 39  1  0
 17 40  1  0
 18 41  1  0
 18 42  1  0
 20 43  1  0
 21 44  1  0
 22 45  1  0
 23 46  1  0
 24 47  1  0
 26 48  1  0
 26 49  1  0
 27 50  1  0
 27 51  1  0
 28 52  1  0
 28 53  1  0
 29 54  1  0
 29 55  1  0
M  END
>  <UniqueID>  (19) 
17

>  <SMILES>  (19) 
O=C(CSc1nnc(Cc2ccccc2)n1CCc1ccccc1)N1CCCC1

>  <Energy>  (19) 
76.08292305206793

>  <Genealogy>  (19) 
O=C(CSc1nnc(Cc2ccccc2)n1CCc1ccccc1)N1CCCC1 (3D coordinates assigned)
O=C(CSc1nnc(Cc2ccccc2)n1CCc1ccccc1)N1CCCC1 (nonaromatic ring conformer: 76.08292305206793 kcal/mol)

>  <smiles>  (19) 
O=C(CSc1nnc(Cc2ccccc2)n1CCc1ccccc1)N1CCCC1

>  <score_type>  (19) 
oracle

>  <origin>  (19) 
autodockgpu

>  <m_score__min__energy>  (19) 
-8.1099999999999994

>  <m_primary>  (19) 
energy

>  <meeko>  (19) 
{"free_energy": -7.33, "intermolecular_energy": -9.71, "internal_energy": -2.0, "cluster_size": 2, "cluster_id": 5, "rank_in_cluster": 2}

>  <energy>  (19) 
-7.04

>  <cluster_rmsd>  (19) 
0.0

>  <rmsd>  (19) 
270.07

>  <cluster>  (19) 
7

$$$$
GPYMLVVOPJPQBB-UHFFFAOYNA-N
     RDKit          3D

 55 58  0  0  0  0  0  0  0  0999 V2000
  146.3430   73.2080  219.3410 O   0  0  0  0  0  0  0  0  0  0  0  0
  145.2610   72.7570  219.8050 C   0  0  0  0  0  0  0  0  0  0  0  0
  144.3530   73.6920  220.5500 C   0  0  0  0  0  0  0  0  0  0  0  0
  143.4660   74.8380  219.4340 S   0  0  0  0  0  0  0  0  0  0  0  0
  142.1660   75.2730  220.5960 C   0  0  0  0  0  0  0  0  0  0  0  0
  141.4490   74.3600  221.2770 N   0  0  0  0  0  0  0  0  0  0  0  0
  140.5370   75.0260  221.9710 N   0  0  0  0  0  0  0  0  0  0  0  0
  140.7010   76.3340  221.6930 C   0  0  0  0  0  0  0  0  0  0  0  0
  139.7870   77.3970  222.2340 C   0  0  0  0  0  0  0  0  0  0  0  0
  140.5860   78.5910  222.6810 C   0  0  0  0  0  0  0  0  0  0  0  0
  140.1520   79.8900  222.3640 C   0  0  0  0  0  0  0  0  0  0  0  0
  140.9090   80.9990  222.7540 C   0  0  0  0  0  0  0  0  0  0  0  0
  142.1070   80.8210  223.4500 C   0  0  0  0  0  0  0  0  0  0  0  0
  142.5510   79.5310  223.7580 C   0  0  0  0  0  0  0  0  0  0  0  0
  141.7970   78.4190  223.3720 C   0  0  0  0  0  0  0  0  0  0  0  0
  141.7160   76.5260  220.8200 N   0  0  0  0  0  0  0  0  0  0  0  0
  142.1610   77.7650  220.1700 C   0  0  0  0  0  0  0  0  0  0  0  0
  141.0380   78.4030  219.3450 C   0  0  0  0  0  0  0  0  0  0  0  0
  141.4030   79.7850  218.8770 C   0  0  0  0  0  0  0  0  0  0  0  0
  140.6020   80.8850  219.2300 C   0  0  0  0  0  0  0  0  0  0  0  0
  140.9680   82.1770  218.8420 C   0  0  0  0  0  0  0  0  0  0  0  0
  142.1370   82.3830  218.1050 C   0  0  0  0  0  0  0  0  0  0  0  0
  142.9410   81.2950  217.7540 C   0  0  0  0  0  0  0  0  0  0  0  0
  142.5790   80.0020  218.1400 C   0  0  0  0  0  0  0  0  0  0  0  0
  144.9280   71.3690  219.6160 N   0  0  0  0  0  0  0  0  0  0  0  0
  143.6630   70.7660  219.9970 C   0  0  0  0  0  0  0  0  0  0  0  0
  143.8000   69.2850  219.6670 C   0  0  0  0  0  0  0  0  0  0  0  0
  144.9970   69.1740  218.7290 C   0  0  0  0  0  0  0  0  0  0  0  0
  145.8210   70.4330  218.9560 C   0  0  0  0  0  0  0  0  0  0  0  0
  143.6135   73.0977  221.1067 H   0  0  0  0  0  0  0  0  0  0  0  0
  144.9753   74.2965  221.2263 H   0  0  0  0  0  0  0  0  0  0  0  0
  139.0824   77.7051  221.4475 H   0  0  0  0  0  0  0  0  0  0  0  0
  139.2351   76.9917  223.0949 H   0  0  0  0  0  0  0  0  0  0  0  0
  139.2142   80.0344  221.8075 H   0  0  0  0  0  0  0  0  0  0  0  0
  140.5604   82.0139  222.5122 H   0  0  0  0  0  0  0  0  0  0  0  0
  142.7009   81.6950  223.7557 H   0  0  0  0  0  0  0  0  0  0  0  0
  143.4951   79.3912  224.3049 H   0  0  0  0  0  0  0  0  0  0  0  0
  142.1531   77.4058  223.6101 H   0  0  0  0  0  0  0  0  0  0  0  0
  142.4852   78.4773  220.9430 H   0  0  0  0  0  0  0  0  0  0  0  0
  142.9903   77.5189  219.4906 H   0  0  0  0  0  0  0  0  0  0  0  0
  140.8384   77.7711  218.4670 H   0  0  0  0  0  0  0  0  0  0  0  0
  140.1474   78.4836  219.9855 H   0  0  0  0  0  0  0  0  0  0  0  0
  139.6832   80.7283  219.8141 H   0  0  0  0  0  0  0  0  0  0  0  0
  140.3346   83.0331  219.1174 H   0  0  0  0  0  0  0  0  0  0  0  0
  142.4243   83.4005  217.8013 H   0  0  0  0  0  0  0  0  0  0  0  0
  143.8607   81.4571  217.1727 H   0  0  0  0  0  0  0  0  0  0  0  0
  143.2180   79.1497  217.8655 H   0  0  0  0  0  0  0  0  0  0  0  0
  143.4801   70.9045  221.0728 H   0  0  0  0  0  0  0  0  0  0  0  0
  142.8165   71.2251  219.4654 H   0  0  0  0  0  0  0  0  0  0  0  0
  143.9774   68.7037  220.5839 H   0  0  0  0  0  0  0  0  0  0  0  0
  142.8851   68.8888  219.2023 H   0  0  0  0  0  0  0  0  0  0  0  0
  145.5903   68.2795  218.9696 H   0  0  0  0  0  0  0  0  0  0  0  0
  144.6811   69.0811  217.6794 H   0  0  0  0  0  0  0  0  0  0  0  0
  146.6889   70.2141  219.5954 H   0  0  0  0  0  0  0  0  0  0  0  0
  146.2123   70.8397  218.0118 H   0  0  0  0  0  0  0  0  0  0  0  0
  1  2  2  0
  2  3  1  0
  3  4  1  0
  4  5  1  0
  5  6  2  0
  6  7  1  0
  7  8  2  0
  8  9  1  0
  9 10  1  0
 10 11  2  0
 11 12  1  0
 12 13  2  0
 13 14  1  0
 14 15  2  0
  8 16  1  0
 16 17  1  0
 17 18  1  0
 18 19  1  0
 19 20  2  0
 20 21  1  0
 21 22  2  0
 22 23  1  0
 23 24  2  0
  2 25  1  0
 25 26  1  0
 26 27  1  0
 27 28  1  0
 28 29  1  0
 16  5  1  0
 24 19  1  0
 29 25  1  0
 15 10  1  0
  3 30  1  0
  3 31  1  0
  9 32  1  0
  9 33  1  0
 11 34  1  0
 12 35  1  0
 13 36  1  0
 14 37  1  0
 15 38  1  0
 17 39  1  0
 17 40  1  0
 18 41  1  0
 18 42  1  0
 20 43  1  0
 21 44  1  0
 22 45  1  0
 23 46  1  0
 24 47  1  0
 26 48  1  0
 26 49  1  0
 27 50  1  0
 27 51  1  0
 28 52  1  0
 28 53  1  0
 29 54  1  0
 29 55  1  0
M  END
>  <UniqueID>  (20) 
17

>  <SMILES>  (20) 
O=C(CSc1nnc(Cc2ccccc2)n1CCc1ccccc1)N1CCCC1

>  <Energy>  (20) 
76.08292305206793

>  <Genealogy>  (20) 
O=C(CSc1nnc(Cc2ccccc2)n1CCc1ccccc1)N1CCCC1 (3D coordinates assigned)
O=C(CSc1nnc(Cc2ccccc2)n1CCc1ccccc1)N1CCCC1 (nonaromatic ring conformer: 76.08292305206793 kcal/mol)

>  <smiles>  (20) 
O=C(CSc1nnc(Cc2ccccc2)n1CCc1ccccc1)N1CCCC1

>  <score_type>  (20) 
oracle

>  <origin>  (20) 
autodockgpu

>  <m_score__min__energy>  (20) 
-8.1099999999999994

>  <m_primary>  (20) 
energy

>  <meeko>  (20) 
{"free_energy": -7.33, "intermolecular_energy": -9.72, "internal_energy": -1.73, "cluster_size": 2, "cluster_id": 5, "rank_in_cluster": 1}

>  <energy>  (20) 
-6.47

>  <cluster_rmsd>  (20) 
0.0

>  <rmsd>  (20) 
270.0

>  <cluster>  (20) 
8

$$$$
GPYMLVVOPJPQBB-UHFFFAOYNA-N
     RDKit          3D

 55 58  0  0  0  0  0  0  0  0999 V2000
  141.0660   73.3090  222.3570 O   0  0  0  0  0  0  0  0  0  0  0  0
  140.0610   72.5680  222.1850 C   0  0  0  0  0  0  0  0  0  0  0  0
  139.2920   72.6860  220.9010 C   0  0  0  0  0  0  0  0  0  0  0  0
  138.1650   74.1270  220.8940 S   0  0  0  0  0  0  0  0  0  0  0  0
  139.3900   75.3330  221.4180 C   0  0  0  0  0  0  0  0  0  0  0  0
  139.5690   75.6940  222.7030 N   0  0  0  0  0  0  0  0  0  0  0  0
  140.4870   76.6490  222.7110 N   0  0  0  0  0  0  0  0  0  0  0  0
  140.8460   76.8680  221.4310 C   0  0  0  0  0  0  0  0  0  0  0  0
  141.8120   77.9480  221.0350 C   0  0  0  0  0  0  0  0  0  0  0  0
  141.7800   79.0680  222.0390 C   0  0  0  0  0  0  0  0  0  0  0  0
  140.6040   79.8140  222.2270 C   0  0  0  0  0  0  0  0  0  0  0  0
  140.5810   80.8740  223.1400 C   0  0  0  0  0  0  0  0  0  0  0  0
  141.7320   81.2030  223.8600 C   0  0  0  0  0  0  0  0  0  0  0  0
  142.9090   80.4730  223.6690 C   0  0  0  0  0  0  0  0  0  0  0  0
  142.9360   79.4110  222.7600 C   0  0  0  0  0  0  0  0  0  0  0  0
  140.1650   76.0600  220.5860 N   0  0  0  0  0  0  0  0  0  0  0  0
  140.1650   76.0400  219.1180 C   0  0  0  0  0  0  0  0  0  0  0  0
  141.5890   76.0070  218.5550 C   0  0  0  0  0  0  0  0  0  0  0  0
  142.4620   75.0320  219.2980 C   0  0  0  0  0  0  0  0  0  0  0  0
  142.0820   73.6830  219.4050 C   0  0  0  0  0  0  0  0  0  0  0  0
  142.9180   72.7650  220.0470 C   0  0  0  0  0  0  0  0  0  0  0  0
  144.1380   73.1830  220.5820 C   0  0  0  0  0  0  0  0  0  0  0  0
  144.5250   74.5210  220.4760 C   0  0  0  0  0  0  0  0  0  0  0  0
  143.6930   75.4420  219.8350 C   0  0  0  0  0  0  0  0  0  0  0  0
  139.6730   71.6420  223.2170 N   0  0  0  0  0  0  0  0  0  0  0  0
  138.6110   70.6590  223.0860 C   0  0  0  0  0  0  0  0  0  0  0  0
  138.5260   69.9660  224.4390 C   0  0  0  0  0  0  0  0  0  0  0  0
  139.8240   70.3030  225.1650 C   0  0  0  0  0  0  0  0  0  0  0  0
  140.3610   71.5580  224.4930 C   0  0  0  0  0  0  0  0  0  0  0  0
  140.0053   72.7912  220.0703 H   0  0  0  0  0  0  0  0  0  0  0  0
  138.6785   71.7794  220.7926 H   0  0  0  0  0  0  0  0  0  0  0  0
  142.8279   77.5285  220.9910 H   0  0  0  0  0  0  0  0  0  0  0  0
  141.5251   78.3419  220.0488 H   0  0  0  0  0  0  0  0  0  0  0  0
  139.6986   79.5638  221.6545 H   0  0  0  0  0  0  0  0  0  0  0  0
  139.6555   81.4490  223.2910 H   0  0  0  0  0  0  0  0  0  0  0  0
  141.7123   82.0366  224.5774 H   0  0  0  0  0  0  0  0  0  0  0  0
  143.8153   80.7346  224.2348 H   0  0  0  0  0  0  0  0  0  0  0  0
  143.8653   78.8422  222.6089 H   0  0  0  0  0  0  0  0  0  0  0  0
  139.6239   75.1466  218.7731 H   0  0  0  0  0  0  0  0  0  0  0  0
  139.6750   76.9579  218.7612 H   0  0  0  0  0  0  0  0  0  0  0  0
  141.5464   75.7115  217.4963 H   0  0  0  0  0  0  0  0  0  0  0  0
  142.0245   77.0107  218.6684 H   0  0  0  0  0  0  0  0  0  0  0  0
  141.1233   73.3485  218.9820 H   0  0  0  0  0  0  0  0  0  0  0  0
  142.6141   71.7111  220.1309 H   0  0  0  0  0  0  0  0  0  0  0  0
  144.7943   72.4588  221.0869 H   0  0  0  0  0  0  0  0  0  0  0  0
  145.4862   74.8498  220.8978 H   0  0  0  0  0  0  0  0  0  0  0  0
  144.0037   76.4938  219.7505 H   0  0  0  0  0  0  0  0  0  0  0  0
  137.6577   71.1531  222.8470 H   0  0  0  0  0  0  0  0  0  0  0  0
  138.8151   69.9447  222.2747 H   0  0  0  0  0  0  0  0  0  0  0  0
  137.6618   70.3408  225.0070 H   0  0  0  0  0  0  0  0  0  0  0  0
  138.3963   68.8793  224.3281 H   0  0  0  0  0  0  0  0  0  0  0  0
  139.6287   70.4929  226.2307 H   0  0  0  0  0  0  0  0  0  0  0  0
  140.5453   69.4743  225.1105 H   0  0  0  0  0  0  0  0  0  0  0  0
  140.1431   72.4450  225.1059 H   0  0  0  0  0  0  0  0  0  0  0  0
  141.4527   71.5160  224.3650 H   0  0  0  0  0  0  0  0  0  0  0  0
  1  2  2  0
  2  3  1  0
  3  4  1  0
  4  5  1  0
  5  6  2  0
  6  7  1  0
  7  8  2  0
  8  9  1  0
  9 10  1  0
 10 11  2  0
 11 12  1  0
 12 13  2  0
 13 14  1  0
 14 15  2  0
  8 16  1  0
 16 17  1  0
 17 18  1  0
 18 19  1  0
 19 20  2  0
 20 21  1  0
 21 22  2  0
 22 23  1  0
 23 24  2  0
  2 25  1  0
 25 26  1  0
 26 27  1  0
 27 28  1  0
 28 29  1  0
 16  5  1  0
 24 19  1  0
 29 25  1  0
 15 10  1  0
  3 30  1  0
  3 31  1  0
  9 32  1  0
  9 33  1  0
 11 34  1  0
 12 35  1  0
 13 36  1  0
 14 37  1  0
 15 38  1  0
 17 39  1  0
 17 40  1  0
 18 41  1  0
 18 42  1  0
 20 43  1  0
 21 44  1  0
 22 45  1  0
 23 46  1  0
 24 47  1  0
 26 48  1  0
 26 49  1  0
 27 50  1  0
 27 51  1  0
 28 52  1  0
 28 53  1  0
 29 54  1  0
 29 55  1  0
M  END
>  <UniqueID>  (21) 
18

>  <SMILES>  (21) 
O=C(CSc1nnc(Cc2ccccc2)n1CCc1ccccc1)N1CCCC1

>  <Energy>  (21) 
80.29177251831064

>  <Genealogy>  (21) 
O=C(CSc1nnc(Cc2ccccc2)n1CCc1ccccc1)N1CCCC1 (3D coordinates assigned)
O=C(CSc1nnc(Cc2ccccc2)n1CCc1ccccc1)N1CCCC1 (nonaromatic ring conformer: 80.29177251831064 kcal/mol)

>  <smiles>  (21) 
O=C(CSc1nnc(Cc2ccccc2)n1CCc1ccccc1)N1CCCC1

>  <score_type>  (21) 
oracle

>  <origin>  (21) 
autodockgpu

>  <m_score__min__energy>  (21) 
-8.1099999999999994

>  <m_primary>  (21) 
energy

>  <meeko>  (21) 
{"free_energy": -6.92, "intermolecular_energy": -9.31, "internal_energy": -2.32, "cluster_size": 4, "cluster_id": 2, "rank_in_cluster": 4}

>  <energy>  (21) 
-8.11

>  <cluster_rmsd>  (21) 
0.0

>  <rmsd>  (21) 
270.53

>  <cluster>  (21) 
1

$$$$
GPYMLVVOPJPQBB-UHFFFAOYNA-N
     RDKit          3D

 55 58  0  0  0  0  0  0  0  0999 V2000
  142.1430   79.4240  219.3630 O   0  0  0  0  0  0  0  0  0  0  0  0
  141.6710   78.6790  220.2630 C   0  0  0  0  0  0  0  0  0  0  0  0
  141.0040   77.3960  219.8580 C   0  0  0  0  0  0  0  0  0  0  0  0
  142.1210   75.9560  220.0040 S   0  0  0  0  0  0  0  0  0  0  0  0
  140.9560   74.8930  220.8660 C   0  0  0  0  0  0  0  0  0  0  0  0
  140.2740   75.2790  221.9610 N   0  0  0  0  0  0  0  0  0  0  0  0
  139.5770   74.2290  222.3700 N   0  0  0  0  0  0  0  0  0  0  0  0
  139.8520   73.2140  221.5280 C   0  0  0  0  0  0  0  0  0  0  0  0
  139.3070   71.8280  221.7270 C   0  0  0  0  0  0  0  0  0  0  0  0
  139.6010   71.3490  223.1220 C   0  0  0  0  0  0  0  0  0  0  0  0
  138.7550   70.4120  223.7400 C   0  0  0  0  0  0  0  0  0  0  0  0
  139.0100   69.9880  225.0480 C   0  0  0  0  0  0  0  0  0  0  0  0
  140.1030   70.5030  225.7510 C   0  0  0  0  0  0  0  0  0  0  0  0
  140.9420   71.4440  225.1470 C   0  0  0  0  0  0  0  0  0  0  0  0
  140.6920   71.8690  223.8380 C   0  0  0  0  0  0  0  0  0  0  0  0
  140.7280   73.5950  220.5700 N   0  0  0  0  0  0  0  0  0  0  0  0
  141.3760   72.7880  219.5290 C   0  0  0  0  0  0  0  0  0  0  0  0
  142.3470   71.7680  220.1310 C   0  0  0  0  0  0  0  0  0  0  0  0
  143.7440   72.3170  220.2330 C   0  0  0  0  0  0  0  0  0  0  0  0
  144.8310   71.5790  219.7320 C   0  0  0  0  0  0  0  0  0  0  0  0
  146.1230   72.1110  219.7760 C   0  0  0  0  0  0  0  0  0  0  0  0
  146.3400   73.3820  220.3140 C   0  0  0  0  0  0  0  0  0  0  0  0
  145.2640   74.1230  220.8100 C   0  0  0  0  0  0  0  0  0  0  0  0
  143.9710   73.5950  220.7680 C   0  0  0  0  0  0  0  0  0  0  0  0
  141.7760   79.0760  221.6430 N   0  0  0  0  0  0  0  0  0  0  0  0
  141.3790   78.2490  222.7700 C   0  0  0  0  0  0  0  0  0  0  0  0
  141.6090   79.1070  224.0080 C   0  0  0  0  0  0  0  0  0  0  0  0
  142.5170   80.2480  223.5630 C   0  0  0  0  0  0  0  0  0  0  0  0
  142.3570   80.3420  222.0530 C   0  0  0  0  0  0  0  0  0  0  0  0
  140.1297   77.2324  220.5052 H   0  0  0  0  0  0  0  0  0  0  0  0
  140.7108   77.4883  218.8018 H   0  0  0  0  0  0  0  0  0  0  0  0
  138.2185   71.8395  221.5687 H   0  0  0  0  0  0  0  0  0  0  0  0
  139.7844   71.1479  221.0062 H   0  0  0  0  0  0  0  0  0  0  0  0
  137.8892   70.0108  223.1928 H   0  0  0  0  0  0  0  0  0  0  0  0
  138.3497   69.2483  225.5243 H   0  0  0  0  0  0  0  0  0  0  0  0
  140.3029   70.1678  226.7794 H   0  0  0  0  0  0  0  0  0  0  0  0
  141.8002   71.8509  225.7020 H   0  0  0  0  0  0  0  0  0  0  0  0
  141.3519   72.6129  223.3677 H   0  0  0  0  0  0  0  0  0  0  0  0
  140.6026   72.2519  218.9594 H   0  0  0  0  0  0  0  0  0  0  0  0
  141.9473   73.4633  218.8751 H   0  0  0  0  0  0  0  0  0  0  0  0
  141.9975   71.4953  221.1377 H   0  0  0  0  0  0  0  0  0  0  0  0
  142.3729   70.8897  219.4692 H   0  0  0  0  0  0  0  0  0  0  0  0
  144.6641   70.5795  219.3039 H   0  0  0  0  0  0  0  0  0  0  0  0
  146.9704   71.5278  219.3863 H   0  0  0  0  0  0  0  0  0  0  0  0
  147.3573   73.7992  220.3471 H   0  0  0  0  0  0  0  0  0  0  0  0
  145.4352   75.1234  221.2341 H   0  0  0  0  0  0  0  0  0  0  0  0
  143.1267   74.1836  221.1561 H   0  0  0  0  0  0  0  0  0  0  0  0
  140.3180   77.9707  222.6873 H   0  0  0  0  0  0  0  0  0  0  0  0
  141.9546   77.3125  222.8108 H   0  0  0  0  0  0  0  0  0  0  0  0
  140.6532   79.5024  224.3824 H   0  0  0  0  0  0  0  0  0  0  0  0
  142.0622   78.5251  224.8241 H   0  0  0  0  0  0  0  0  0  0  0  0
  142.2094   81.1903  224.0400 H   0  0  0  0  0  0  0  0  0  0  0  0
  143.5638   80.0665  223.8482 H   0  0  0  0  0  0  0  0  0  0  0  0
  141.6887   81.1748  221.7887 H   0  0  0  0  0  0  0  0  0  0  0  0
  143.3183   80.5301  221.5525 H   0  0  0  0  0  0  0  0  0  0  0  0
  1  2  2  0
  2  3  1  0
  3  4  1  0
  4  5  1  0
  5  6  2  0
  6  7  1  0
  7  8  2  0
  8  9  1  0
  9 10  1  0
 10 11  2  0
 11 12  1  0
 12 13  2  0
 13 14  1  0
 14 15  2  0
  8 16  1  0
 16 17  1  0
 17 18  1  0
 18 19  1  0
 19 20  2  0
 20 21  1  0
 21 22  2  0
 22 23  1  0
 23 24  2  0
  2 25  1  0
 25 26  1  0
 26 27  1  0
 27 28  1  0
 28 29  1  0
 16  5  1  0
 24 19  1  0
 29 25  1  0
 15 10  1  0
  3 30  1  0
  3 31  1  0
  9 32  1  0
  9 33  1  0
 11 34  1  0
 12 35  1  0
 13 36  1  0
 14 37  1  0
 15 38  1  0
 17 39  1  0
 17 40  1  0
 18 41  1  0
 18 42  1  0
 20 43  1  0
 21 44  1  0
 22 45  1  0
 23 46  1  0
 24 47  1  0
 26 48  1  0
 26 49  1  0
 27 50  1  0
 27 51  1  0
 28 52  1  0
 28 53  1  0
 29 54  1  0
 29 55  1  0
M  END
>  <UniqueID>  (22) 
18

>  <SMILES>  (22) 
O=C(CSc1nnc(Cc2ccccc2)n1CCc1ccccc1)N1CCCC1

>  <Energy>  (22) 
80.29177251831064

>  <Genealogy>  (22) 
O=C(CSc1nnc(Cc2ccccc2)n1CCc1ccccc1)N1CCCC1 (3D coordinates assigned)
O=C(CSc1nnc(Cc2ccccc2)n1CCc1ccccc1)N1CCCC1 (nonaromatic ring conformer: 80.29177251831064 kcal/mol)

>  <smiles>  (22) 
O=C(CSc1nnc(Cc2ccccc2)n1CCc1ccccc1)N1CCCC1

>  <score_type>  (22) 
oracle

>  <origin>  (22) 
autodockgpu

>  <m_score__min__energy>  (22) 
-8.1099999999999994

>  <m_primary>  (22) 
energy

>  <meeko>  (22) 
{"free_energy": -7.75, "intermolecular_energy": -10.14, "internal_energy": -1.72, "cluster_size": 1, "cluster_id": 4, "rank_in_cluster": 1}

>  <energy>  (22) 
-8.03

>  <cluster_rmsd>  (22) 
0.67

>  <rmsd>  (22) 
270.41

>  <cluster>  (22) 
1

$$$$
GPYMLVVOPJPQBB-UHFFFAOYNA-N
     RDKit          3D

 55 58  0  0  0  0  0  0  0  0999 V2000
  137.1870   76.8580  220.4730 O   0  0  0  0  0  0  0  0  0  0  0  0
  136.9480   76.9850  221.7040 C   0  0  0  0  0  0  0  0  0  0  0  0
  137.2940   78.2840  222.3730 C   0  0  0  0  0  0  0  0  0  0  0  0
  139.0120   78.3080  222.9980 S   0  0  0  0  0  0  0  0  0  0  0  0
  139.5380   76.7960  222.1800 C   0  0  0  0  0  0  0  0  0  0  0  0
  139.4960   75.5860  222.7670 N   0  0  0  0  0  0  0  0  0  0  0  0
  140.0270   74.7240  221.9120 N   0  0  0  0  0  0  0  0  0  0  0  0
  140.3960   75.4220  220.8190 C   0  0  0  0  0  0  0  0  0  0  0  0
  141.1160   74.7910  219.6620 C   0  0  0  0  0  0  0  0  0  0  0  0
  142.4720   74.3040  220.0960 C   0  0  0  0  0  0  0  0  0  0  0  0
  143.5700   75.1810  220.0970 C   0  0  0  0  0  0  0  0  0  0  0  0
  144.8370   74.7220  220.4730 C   0  0  0  0  0  0  0  0  0  0  0  0
  145.0180   73.3860  220.8390 C   0  0  0  0  0  0  0  0  0  0  0  0
  143.9320   72.5050  220.8290 C   0  0  0  0  0  0  0  0  0  0  0  0
  142.6640   72.9600  220.4560 C   0  0  0  0  0  0  0  0  0  0  0  0
  140.1100   76.7370  220.9590 N   0  0  0  0  0  0  0  0  0  0  0  0
  140.4380   77.8580  220.0690 C   0  0  0  0  0  0  0  0  0  0  0  0
  141.8220   78.4360  220.3790 C   0  0  0  0  0  0  0  0  0  0  0  0
  141.7740   79.4290  221.5090 C   0  0  0  0  0  0  0  0  0  0  0  0
  142.1770   79.0490  222.8010 C   0  0  0  0  0  0  0  0  0  0  0  0
  142.1850   79.9850  223.8390 C   0  0  0  0  0  0  0  0  0  0  0  0
  141.7970   81.3050  223.5970 C   0  0  0  0  0  0  0  0  0  0  0  0
  141.4000   81.6910  222.3140 C   0  0  0  0  0  0  0  0  0  0  0  0
  141.3900   80.7600  221.2730 C   0  0  0  0  0  0  0  0  0  0  0  0
  136.3620   75.8900  222.4330 N   0  0  0  0  0  0  0  0  0  0  0  0
  135.9340   75.9590  223.8200 C   0  0  0  0  0  0  0  0  0  0  0  0
  135.4480   74.5580  224.1680 C   0  0  0  0  0  0  0  0  0  0  0  0
  135.2390   73.8440  222.8360 C   0  0  0  0  0  0  0  0  0  0  0  0
  136.0800   74.6030  221.8210 C   0  0  0  0  0  0  0  0  0  0  0  0
  137.1709   79.1000  221.6457 H   0  0  0  0  0  0  0  0  0  0  0  0
  136.6213   78.4080  223.2344 H   0  0  0  0  0  0  0  0  0  0  0  0
  140.5272   73.9405  219.2880 H   0  0  0  0  0  0  0  0  0  0  0  0
  141.2417   75.5400  218.8663 H   0  0  0  0  0  0  0  0  0  0  0  0
  143.4329   76.2316  219.8013 H   0  0  0  0  0  0  0  0  0  0  0  0
  145.6919   75.4141  220.4805 H   0  0  0  0  0  0  0  0  0  0  0  0
  146.0147   73.0270  221.1351 H   0  0  0  0  0  0  0  0  0  0  0  0
  144.0758   71.4526  221.1150 H   0  0  0  0  0  0  0  0  0  0  0  0
  141.8133   72.2628  220.4444 H   0  0  0  0  0  0  0  0  0  0  0  0
  140.4240   77.5034  219.0278 H   0  0  0  0  0  0  0  0  0  0  0  0
  139.6911   78.6506  220.2235 H   0  0  0  0  0  0  0  0  0  0  0  0
  142.4972   77.6132  220.6568 H   0  0  0  0  0  0  0  0  0  0  0  0
  142.1829   78.9583  219.4807 H   0  0  0  0  0  0  0  0  0  0  0  0
  142.4871   78.0117  222.9957 H   0  0  0  0  0  0  0  0  0  0  0  0
  142.4976   79.6815  224.8490 H   0  0  0  0  0  0  0  0  0  0  0  0
  141.8040   82.0398  224.4156 H   0  0  0  0  0  0  0  0  0  0  0  0
  141.0947   82.7305  222.1235 H   0  0  0  0  0  0  0  0  0  0  0  0
  141.0802   81.0699  220.2640 H   0  0  0  0  0  0  0  0  0  0  0  0
  136.7755   76.2456  224.4679 H   0  0  0  0  0  0  0  0  0  0  0  0
  135.1453   76.7117  223.9660 H   0  0  0  0  0  0  0  0  0  0  0  0
  136.2019   74.0303  224.7706 H   0  0  0  0  0  0  0  0  0  0  0  0
  134.5211   74.5878  224.7596 H   0  0  0  0  0  0  0  0  0  0  0  0
  135.5739   72.7985  222.9054 H   0  0  0  0  0  0  0  0  0  0  0  0
  134.1773   73.8263  222.5490 H   0  0  0  0  0  0  0  0  0  0  0  0
  137.0155   74.0619  221.6159 H   0  0  0  0  0  0  0  0  0  0  0  0
  135.5563   74.7148  220.8601 H   0  0  0  0  0  0  0  0  0  0  0  0
  1  2  2  0
  2  3  1  0
  3  4  1  0
  4  5  1  0
  5  6  2  0
  6  7  1  0
  7  8  2  0
  8  9  1  0
  9 10  1  0
 10 11  2  0
 11 12  1  0
 12 13  2  0
 13 14  1  0
 14 15  2  0
  8 16  1  0
 16 17  1  0
 17 18  1  0
 18 19  1  0
 19 20  2  0
 20 21  1  0
 21 22  2  0
 22 23  1  0
 23 24  2  0
  2 25  1  0
 25 26  1  0
 26 27  1  0
 27 28  1  0
 28 29  1  0
 16  5  1  0
 24 19  1  0
 29 25  1  0
 15 10  1  0
  3 30  1  0
  3 31  1  0
  9 32  1  0
  9 33  1  0
 11 34  1  0
 12 35  1  0
 13 36  1  0
 14 37  1  0
 15 38  1  0
 17 39  1  0
 17 40  1  0
 18 41  1  0
 18 42  1  0
 20 43  1  0
 21 44  1  0
 22 45  1  0
 23 46  1  0
 24 47  1  0
 26 48  1  0
 26 49  1  0
 27 50  1  0
 27 51  1  0
 28 52  1  0
 28 53  1  0
 29 54  1  0
 29 55  1  0
M  END
>  <UniqueID>  (23) 
18

>  <SMILES>  (23) 
O=C(CSc1nnc(Cc2ccccc2)n1CCc1ccccc1)N1CCCC1

>  <Energy>  (23) 
80.29177251831064

>  <Genealogy>  (23) 
O=C(CSc1nnc(Cc2ccccc2)n1CCc1ccccc1)N1CCCC1 (3D coordinates assigned)
O=C(CSc1nnc(Cc2ccccc2)n1CCc1ccccc1)N1CCCC1 (nonaromatic ring conformer: 80.29177251831064 kcal/mol)

>  <smiles>  (23) 
O=C(CSc1nnc(Cc2ccccc2)n1CCc1ccccc1)N1CCCC1

>  <score_type>  (23) 
oracle

>  <origin>  (23) 
autodockgpu

>  <m_score__min__energy>  (23) 
-8.1099999999999994

>  <m_primary>  (23) 
energy

>  <meeko>  (23) 
{"free_energy": -6.47, "intermolecular_energy": -8.86, "internal_energy": -2.38, "cluster_size": 1, "cluster_id": 8, "rank_in_cluster": 1}

>  <energy>  (23) 
-8.01

>  <cluster_rmsd>  (23) 
0.45

>  <rmsd>  (23) 
270.55

>  <cluster>  (23) 
1

$$$$
GPYMLVVOPJPQBB-UHFFFAOYNA-N
     RDKit          3D

 55 58  0  0  0  0  0  0  0  0999 V2000
  139.1050   69.1350  222.6370 O   0  0  0  0  0  0  0  0  0  0  0  0
  139.4910   70.2940  222.9440 C   0  0  0  0  0  0  0  0  0  0  0  0
  139.3470   71.3930  221.9310 C   0  0  0  0  0  0  0  0  0  0  0  0
  140.9620   72.0760  221.4120 S   0  0  0  0  0  0  0  0  0  0  0  0
  140.5100   73.8060  221.6020 C   0  0  0  0  0  0  0  0  0  0  0  0
  139.6070   74.2380  222.5010 N   0  0  0  0  0  0  0  0  0  0  0  0
  139.4670   75.5420  222.3100 N   0  0  0  0  0  0  0  0  0  0  0  0
  140.2770   75.8850  221.2880 C   0  0  0  0  0  0  0  0  0  0  0  0
  140.3240   77.2770  220.7250 C   0  0  0  0  0  0  0  0  0  0  0  0
  141.0700   78.1900  221.6600 C   0  0  0  0  0  0  0  0  0  0  0  0
  141.7810   79.2910  221.1540 C   0  0  0  0  0  0  0  0  0  0  0  0
  142.4990   80.1240  222.0180 C   0  0  0  0  0  0  0  0  0  0  0  0
  142.5200   79.8570  223.3900 C   0  0  0  0  0  0  0  0  0  0  0  0
  141.8250   78.7560  223.8990 C   0  0  0  0  0  0  0  0  0  0  0  0
  141.1050   77.9220  223.0390 C   0  0  0  0  0  0  0  0  0  0  0  0
  140.9440   74.8090  220.8100 N   0  0  0  0  0  0  0  0  0  0  0  0
  141.8340   74.7100  219.6470 C   0  0  0  0  0  0  0  0  0  0  0  0
  143.2070   75.3240  219.9350 C   0  0  0  0  0  0  0  0  0  0  0  0
  144.2920   74.2820  219.9670 C   0  0  0  0  0  0  0  0  0  0  0  0
  145.3910   74.4320  220.8300 C   0  0  0  0  0  0  0  0  0  0  0  0
  146.3720   73.4380  220.9010 C   0  0  0  0  0  0  0  0  0  0  0  0
  146.2610   72.2870  220.1170 C   0  0  0  0  0  0  0  0  0  0  0  0
  145.1690   72.1280  219.2600 C   0  0  0  0  0  0  0  0  0  0  0  0
  144.1870   73.1190  219.1860 C   0  0  0  0  0  0  0  0  0  0  0  0
  140.0600   70.5340  224.2450 N   0  0  0  0  0  0  0  0  0  0  0  0
  140.4280   71.8440  224.7540 C   0  0  0  0  0  0  0  0  0  0  0  0
  141.0430   71.5920  226.1250 C   0  0  0  0  0  0  0  0  0  0  0  0
  140.6270   70.1780  226.5160 C   0  0  0  0  0  0  0  0  0  0  0  0
  140.2700   69.4750  225.2160 C   0  0  0  0  0  0  0  0  0  0  0  0
  138.8315   70.9925  221.0456 H   0  0  0  0  0  0  0  0  0  0  0  0
  138.7722   72.2067  222.3973 H   0  0  0  0  0  0  0  0  0  0  0  0
  140.8348   77.2581  219.7510 H   0  0  0  0  0  0  0  0  0  0  0  0
  139.2964   77.6499  220.6026 H   0  0  0  0  0  0  0  0  0  0  0  0
  141.7729   79.4987  220.0738 H   0  0  0  0  0  0  0  0  0  0  0  0
  143.0473   80.9895  221.6178 H   0  0  0  0  0  0  0  0  0  0  0  0
  143.0836   80.5134  224.0693 H   0  0  0  0  0  0  0  0  0  0  0  0
  141.8448   78.5456  224.9785 H   0  0  0  0  0  0  0  0  0  0  0  0
  140.5642   77.0534  223.4428 H   0  0  0  0  0  0  0  0  0  0  0  0
  141.9647   73.6493  219.3866 H   0  0  0  0  0  0  0  0  0  0  0  0
  141.3763   75.2649  218.8148 H   0  0  0  0  0  0  0  0  0  0  0  0
  143.4408   76.0569  219.1487 H   0  0  0  0  0  0  0  0  0  0  0  0
  143.1654   75.8033  220.9242 H   0  0  0  0  0  0  0  0  0  0  0  0
  145.4799   75.3348  221.4521 H   0  0  0  0  0  0  0  0  0  0  0  0
  147.2323   73.5625  221.5751 H   0  0  0  0  0  0  0  0  0  0  0  0
  147.0334   71.5059  220.1744 H   0  0  0  0  0  0  0  0  0  0  0  0
  145.0824   71.2216  218.6429 H   0  0  0  0  0  0  0  0  0  0  0  0
  143.3271   72.9879  218.5127 H   0  0  0  0  0  0  0  0  0  0  0  0
  141.1596   72.3236  224.0871 H   0  0  0  0  0  0  0  0  0  0  0  0
  139.5594   72.5162  224.8145 H   0  0  0  0  0  0  0  0  0  0  0  0
  142.1391   71.6676  226.0724 H   0  0  0  0  0  0  0  0  0  0  0  0
  140.7012   72.3323  226.8633 H   0  0  0  0  0  0  0  0  0  0  0  0
  141.4580   69.6590  227.0161 H   0  0  0  0  0  0  0  0  0  0  0  0
  139.7797   70.1854  227.2174 H   0  0  0  0  0  0  0  0  0  0  0  0
  141.0924   68.8182  224.8962 H   0  0  0  0  0  0  0  0  0  0  0  0
  139.3776   68.8416  225.3273 H   0  0  0  0  0  0  0  0  0  0  0  0
  1  2  2  0
  2  3  1  0
  3  4  1  0
  4  5  1  0
  5  6  2  0
  6  7  1  0
  7  8  2  0
  8  9  1  0
  9 10  1  0
 10 11  2  0
 11 12  1  0
 12 13  2  0
 13 14  1  0
 14 15  2  0
  8 16  1  0
 16 17  1  0
 17 18  1  0
 18 19  1  0
 19 20  2  0
 20 21  1  0
 21 22  2  0
 22 23  1  0
 23 24  2  0
  2 25  1  0
 25 26  1  0
 26 27  1  0
 27 28  1  0
 28 29  1  0
 16  5  1  0
 24 19  1  0
 29 25  1  0
 15 10  1  0
  3 30  1  0
  3 31  1  0
  9 32  1  0
  9 33  1  0
 11 34  1  0
 12 35  1  0
 13 36  1  0
 14 37  1  0
 15 38  1  0
 17 39  1  0
 17 40  1  0
 18 41  1  0
 18 42  1  0
 20 43  1  0
 21 44  1  0
 22 45  1  0
 23 46  1  0
 24 47  1  0
 26 48  1  0
 26 49  1  0
 27 50  1  0
 27 51  1  0
 28 52  1  0
 28 53  1  0
 29 54  1  0
 29 55  1  0
M  END
>  <UniqueID>  (24) 
18

>  <SMILES>  (24) 
O=C(CSc1nnc(Cc2ccccc2)n1CCc1ccccc1)N1CCCC1

>  <Energy>  (24) 
80.29177251831064

>  <Genealogy>  (24) 
O=C(CSc1nnc(Cc2ccccc2)n1CCc1ccccc1)N1CCCC1 (3D coordinates assigned)
O=C(CSc1nnc(Cc2ccccc2)n1CCc1ccccc1)N1CCCC1 (nonaromatic ring conformer: 80.29177251831064 kcal/mol)

>  <smiles>  (24) 
O=C(CSc1nnc(Cc2ccccc2)n1CCc1ccccc1)N1CCCC1

>  <score_type>  (24) 
oracle

>  <origin>  (24) 
autodockgpu

>  <m_score__min__energy>  (24) 
-8.1099999999999994

>  <m_primary>  (24) 
energy

>  <meeko>  (24) 
{"free_energy": -8.08, "intermolecular_energy": -10.47, "internal_energy": -1.67, "cluster_size": 4, "cluster_id": 2, "rank_in_cluster": 1}

>  <energy>  (24) 
-7.65

>  <cluster_rmsd>  (24) 
1.09

>  <rmsd>  (24) 
270.14

>  <cluster>  (24) 
1

$$$$
GPYMLVVOPJPQBB-UHFFFAOYNA-N
     RDKit          3D

 55 58  0  0  0  0  0  0  0  0999 V2000
  138.8570   69.9730  223.7110 O   0  0  0  0  0  0  0  0  0  0  0  0
  139.6550   70.8540  224.1300 C   0  0  0  0  0  0  0  0  0  0  0  0
  140.1730   71.8750  223.1590 C   0  0  0  0  0  0  0  0  0  0  0  0
  138.8680   72.4930  222.0370 S   0  0  0  0  0  0  0  0  0  0  0  0
  139.4220   74.2030  222.0190 C   0  0  0  0  0  0  0  0  0  0  0  0
  140.7180   74.5600  222.0960 N   0  0  0  0  0  0  0  0  0  0  0  0
  140.7500   75.8840  222.1350 N   0  0  0  0  0  0  0  0  0  0  0  0
  139.4750   76.3170  222.0940 C   0  0  0  0  0  0  0  0  0  0  0  0
  139.1090   77.7700  222.2060 C   0  0  0  0  0  0  0  0  0  0  0  0
  140.3470   78.6050  222.3870 C   0  0  0  0  0  0  0  0  0  0  0  0
  140.7990   78.9270  223.6780 C   0  0  0  0  0  0  0  0  0  0  0  0
  141.9330   79.7280  223.8480 C   0  0  0  0  0  0  0  0  0  0  0  0
  142.6160   80.2200  222.7320 C   0  0  0  0  0  0  0  0  0  0  0  0
  142.1650   79.9140  221.4450 C   0  0  0  0  0  0  0  0  0  0  0  0
  141.0320   79.1120  221.2710 C   0  0  0  0  0  0  0  0  0  0  0  0
  138.6080   75.2800  222.0300 N   0  0  0  0  0  0  0  0  0  0  0  0
  137.1410   75.2910  222.0790 C   0  0  0  0  0  0  0  0  0  0  0  0
  136.6250   76.0180  223.3250 C   0  0  0  0  0  0  0  0  0  0  0  0
  135.7260   75.1400  224.1540 C   0  0  0  0  0  0  0  0  0  0  0  0
  135.6230   73.7670  223.8690 C   0  0  0  0  0  0  0  0  0  0  0  0
  134.8310   72.9400  224.6710 C   0  0  0  0  0  0  0  0  0  0  0  0
  134.1420   73.4730  225.7630 C   0  0  0  0  0  0  0  0  0  0  0  0
  134.2440   74.8360  226.0550 C   0  0  0  0  0  0  0  0  0  0  0  0
  135.0340   75.6670  225.2570 C   0  0  0  0  0  0  0  0  0  0  0  0
  140.0510   70.8560  225.5140 N   0  0  0  0  0  0  0  0  0  0  0  0
  140.8660   71.8860  226.1370 C   0  0  0  0  0  0  0  0  0  0  0  0
  141.0760   71.4280  227.5750 C   0  0  0  0  0  0  0  0  0  0  0  0
  140.0260   70.3520  227.8280 C   0  0  0  0  0  0  0  0  0  0  0  0
  139.6140   69.8400  226.4560 C   0  0  0  0  0  0  0  0  0  0  0  0
  140.5841   72.7241  223.7247 H   0  0  0  0  0  0  0  0  0  0  0  0
  140.9446   71.3909  222.5423 H   0  0  0  0  0  0  0  0  0  0  0  0
  138.5888   78.0854  221.2895 H   0  0  0  0  0  0  0  0  0  0  0  0
  138.4520   77.9085  223.0773 H   0  0  0  0  0  0  0  0  0  0  0  0
  140.2590   78.5477  224.5581 H   0  0  0  0  0  0  0  0  0  0  0  0
  142.2876   79.9709  224.8606 H   0  0  0  0  0  0  0  0  0  0  0  0
  143.5088   80.8483  222.8668 H   0  0  0  0  0  0  0  0  0  0  0  0
  142.7016   80.3043  220.5677 H   0  0  0  0  0  0  0  0  0  0  0  0
  140.6766   78.8778  220.2567 H   0  0  0  0  0  0  0  0  0  0  0  0
  136.7575   75.8013  221.1832 H   0  0  0  0  0  0  0  0  0  0  0  0
  136.7897   74.2493  222.1176 H   0  0  0  0  0  0  0  0  0  0  0  0
  137.4844   76.3270  223.9381 H   0  0  0  0  0  0  0  0  0  0  0  0
  136.0407   76.8893  222.9943 H   0  0  0  0  0  0  0  0  0  0  0  0
  136.1672   73.3423  223.0125 H   0  0  0  0  0  0  0  0  0  0  0  0
  134.7502   71.8672  224.4416 H   0  0  0  0  0  0  0  0  0  0  0  0
  133.5195   72.8204  226.3927 H   0  0  0  0  0  0  0  0  0  0  0  0
  133.7011   75.2552  226.9149 H   0  0  0  0  0  0  0  0  0  0  0  0
  135.1145   76.7383  225.4933 H   0  0  0  0  0  0  0  0  0  0  0  0
  141.8317   71.9777  225.6182 H   0  0  0  0  0  0  0  0  0  0  0  0
  140.3812   72.8723  226.0905 H   0  0  0  0  0  0  0  0  0  0  0  0
  142.0870   71.0132  227.7007 H   0  0  0  0  0  0  0  0  0  0  0  0
  140.9772   72.2635  228.2836 H   0  0  0  0  0  0  0  0  0  0  0  0
  140.4524   69.5352  228.4289 H   0  0  0  0  0  0  0  0  0  0  0  0
  139.1655   70.7508  228.3852 H   0  0  0  0  0  0  0  0  0  0  0  0
  140.1054   68.8797  226.2408 H   0  0  0  0  0  0  0  0  0  0  0  0
  138.5295   69.6665  226.3944 H   0  0  0  0  0  0  0  0  0  0  0  0
  1  2  2  0
  2  3  1  0
  3  4  1  0
  4  5  1  0
  5  6  2  0
  6  7  1  0
  7  8  2  0
  8  9  1  0
  9 10  1  0
 10 11  2  0
 11 12  1  0
 12 13  2  0
 13 14  1  0
 14 15  2  0
  8 16  1  0
 16 17  1  0
 17 18  1  0
 18 19  1  0
 19 20  2  0
 20 21  1  0
 21 22  2  0
 22 23  1  0
 23 24  2  0
  2 25  1  0
 25 26  1  0
 26 27  1  0
 27 28  1  0
 28 29  1  0
 16  5  1  0
 24 19  1  0
 29 25  1  0
 15 10  1  0
  3 30  1  0
  3 31  1  0
  9 32  1  0
  9 33  1  0
 11 34  1  0
 12 35  1  0
 13 36  1  0
 14 37  1  0
 15 38  1  0
 17 39  1  0
 17 40  1  0
 18 41  1  0
 18 42  1  0
 20 43  1  0
 21 44  1  0
 22 45  1  0
 23 46  1  0
 24 47  1  0
 26 48  1  0
 26 49  1  0
 27 50  1  0
 27 51  1  0
 28 52  1  0
 28 53  1  0
 29 54  1  0
 29 55  1  0
M  END
>  <UniqueID>  (25) 
18

>  <SMILES>  (25) 
O=C(CSc1nnc(Cc2ccccc2)n1CCc1ccccc1)N1CCCC1

>  <Energy>  (25) 
80.29177251831064

>  <Genealogy>  (25) 
O=C(CSc1nnc(Cc2ccccc2)n1CCc1ccccc1)N1CCCC1 (3D coordinates assigned)
O=C(CSc1nnc(Cc2ccccc2)n1CCc1ccccc1)N1CCCC1 (nonaromatic ring conformer: 80.29177251831064 kcal/mol)

>  <smiles>  (25) 
O=C(CSc1nnc(Cc2ccccc2)n1CCc1ccccc1)N1CCCC1

>  <score_type>  (25) 
oracle

>  <origin>  (25) 
autodockgpu

>  <m_score__min__energy>  (25) 
-8.1099999999999994

>  <m_primary>  (25) 
energy

>  <meeko>  (25) 
{"free_energy": -8.01, "intermolecular_energy": -10.39, "internal_energy": -1.48, "cluster_size": 5, "cluster_id": 1, "rank_in_cluster": 3}

>  <energy>  (25) 
-7.51

>  <cluster_rmsd>  (25) 
1.33

>  <rmsd>  (25) 
269.97

>  <cluster>  (25) 
1

$$$$
GPYMLVVOPJPQBB-UHFFFAOYNA-N
     RDKit          3D

 55 58  0  0  0  0  0  0  0  0999 V2000
  138.7530   77.2530  222.9860 O   0  0  0  0  0  0  0  0  0  0  0  0
  139.8140   77.4330  222.3290 C   0  0  0  0  0  0  0  0  0  0  0  0
  140.1280   76.4960  221.2000 C   0  0  0  0  0  0  0  0  0  0  0  0
  138.7440   75.3580  220.8340 S   0  0  0  0  0  0  0  0  0  0  0  0
  139.3610   73.9810  221.8110 C   0  0  0  0  0  0  0  0  0  0  0  0
  140.6700   73.7670  222.0400 N   0  0  0  0  0  0  0  0  0  0  0  0
  140.7610   72.6340  222.7210 N   0  0  0  0  0  0  0  0  0  0  0  0
  139.5080   72.1660  222.8870 C   0  0  0  0  0  0  0  0  0  0  0  0
  139.2170   70.8470  223.5450 C   0  0  0  0  0  0  0  0  0  0  0  0
  139.7600   70.8340  224.9480 C   0  0  0  0  0  0  0  0  0  0  0  0
  139.3700   69.8280  225.8470 C   0  0  0  0  0  0  0  0  0  0  0  0
  139.8520   69.8320  227.1610 C   0  0  0  0  0  0  0  0  0  0  0  0
  140.7150   70.8450  227.5870 C   0  0  0  0  0  0  0  0  0  0  0  0
  141.0980   71.8570  226.7010 C   0  0  0  0  0  0  0  0  0  0  0  0
  140.6200   71.8550  225.3860 C   0  0  0  0  0  0  0  0  0  0  0  0
  138.5980   72.9880  222.3160 N   0  0  0  0  0  0  0  0  0  0  0  0
  137.1490   72.8090  222.1650 C   0  0  0  0  0  0  0  0  0  0  0  0
  136.3910   74.1160  222.4190 C   0  0  0  0  0  0  0  0  0  0  0  0
  135.6360   74.0810  223.7200 C   0  0  0  0  0  0  0  0  0  0  0  0
  135.4580   75.2610  224.4650 C   0  0  0  0  0  0  0  0  0  0  0  0
  134.7110   75.2420  225.6460 C   0  0  0  0  0  0  0  0  0  0  0  0
  134.1320   74.0500  226.0900 C   0  0  0  0  0  0  0  0  0  0  0  0
  134.3010   72.8750  225.3530 C   0  0  0  0  0  0  0  0  0  0  0  0
  135.0470   72.8890  224.1720 C   0  0  0  0  0  0  0  0  0  0  0  0
  140.6920   78.5190  222.6790 N   0  0  0  0  0  0  0  0  0  0  0  0
  141.8750   78.8970  221.9250 C   0  0  0  0  0  0  0  0  0  0  0  0
  142.5100   80.0410  222.7070 C   0  0  0  0  0  0  0  0  0  0  0  0
  141.4340   80.5410  223.6640 C   0  0  0  0  0  0  0  0  0  0  0  0
  140.4410   79.3980  223.8080 C   0  0  0  0  0  0  0  0  0  0  0  0
  140.3459   77.0885  220.2992 H   0  0  0  0  0  0  0  0  0  0  0  0
  140.9932   75.8866  221.5003 H   0  0  0  0  0  0  0  0  0  0  0  0
  138.1289   70.6885  223.5752 H   0  0  0  0  0  0  0  0  0  0  0  0
  139.6981   70.0442  222.9670 H   0  0  0  0  0  0  0  0  0  0  0  0
  138.6834   69.0343  225.5174 H   0  0  0  0  0  0  0  0  0  0  0  0
  139.5511   69.0369  227.8590 H   0  0  0  0  0  0  0  0  0  0  0  0
  141.0934   70.8465  228.6199 H   0  0  0  0  0  0  0  0  0  0  0  0
  141.7756   72.6552  227.0382 H   0  0  0  0  0  0  0  0  0  0  0  0
  140.9185   72.6554  224.6929 H   0  0  0  0  0  0  0  0  0  0  0  0
  136.9362   72.4657  221.1418 H   0  0  0  0  0  0  0  0  0  0  0  0
  136.8145   72.0672  222.9051 H   0  0  0  0  0  0  0  0  0  0  0  0
  137.1124   74.9459  222.4483 H   0  0  0  0  0  0  0  0  0  0  0  0
  135.6635   74.2527  221.6054 H   0  0  0  0  0  0  0  0  0  0  0  0
  135.9084   76.2021  224.1167 H   0  0  0  0  0  0  0  0  0  0  0  0
  134.5786   76.1666  226.2270 H   0  0  0  0  0  0  0  0  0  0  0  0
  133.5435   74.0368  227.0192 H   0  0  0  0  0  0  0  0  0  0  0  0
  133.8457   71.9370  225.7035 H   0  0  0  0  0  0  0  0  0  0  0  0
  135.1736   71.9621  223.5934 H   0  0  0  0  0  0  0  0  0  0  0  0
  142.5713   78.0486  221.8519 H   0  0  0  0  0  0  0  0  0  0  0  0
  141.6243   79.1962  220.8966 H   0  0  0  0  0  0  0  0  0  0  0  0
  143.3846   79.6812  223.2689 H   0  0  0  0  0  0  0  0  0  0  0  0
  142.8597   80.8417  222.0387 H   0  0  0  0  0  0  0  0  0  0  0  0
  141.8757   80.7895  224.6403 H   0  0  0  0  0  0  0  0  0  0  0  0
  140.9486   81.4527  223.2855 H   0  0  0  0  0  0  0  0  0  0  0  0
  140.6055   78.8633  224.7551 H   0  0  0  0  0  0  0  0  0  0  0  0
  139.4023   79.7598  223.8195 H   0  0  0  0  0  0  0  0  0  0  0  0
  1  2  2  0
  2  3  1  0
  3  4  1  0
  4  5  1  0
  5  6  2  0
  6  7  1  0
  7  8  2  0
  8  9  1  0
  9 10  1  0
 10 11  2  0
 11 12  1  0
 12 13  2  0
 13 14  1  0
 14 15  2  0
  8 16  1  0
 16 17  1  0
 17 18  1  0
 18 19  1  0
 19 20  2  0
 20 21  1  0
 21 22  2  0
 22 23  1  0
 23 24  2  0
  2 25  1  0
 25 26  1  0
 26 27  1  0
 27 28  1  0
 28 29  1  0
 16  5  1  0
 24 19  1  0
 29 25  1  0
 15 10  1  0
  3 30  1  0
  3 31  1  0
  9 32  1  0
  9 33  1  0
 11 34  1  0
 12 35  1  0
 13 36  1  0
 14 37  1  0
 15 38  1  0
 17 39  1  0
 17 40  1  0
 18 41  1  0
 18 42  1  0
 20 43  1  0
 21 44  1  0
 22 45  1  0
 23 46  1  0
 24 47  1  0
 26 48  1  0
 26 49  1  0
 27 50  1  0
 27 51  1  0
 28 52  1  0
 28 53  1  0
 29 54  1  0
 29 55  1  0
M  END
>  <UniqueID>  (26) 
18

>  <SMILES>  (26) 
O=C(CSc1nnc(Cc2ccccc2)n1CCc1ccccc1)N1CCCC1

>  <Energy>  (26) 
80.29177251831064

>  <Genealogy>  (26) 
O=C(CSc1nnc(Cc2ccccc2)n1CCc1ccccc1)N1CCCC1 (3D coordinates assigned)
O=C(CSc1nnc(Cc2ccccc2)n1CCc1ccccc1)N1CCCC1 (nonaromatic ring conformer: 80.29177251831064 kcal/mol)

>  <smiles>  (26) 
O=C(CSc1nnc(Cc2ccccc2)n1CCc1ccccc1)N1CCCC1

>  <score_type>  (26) 
oracle

>  <origin>  (26) 
autodockgpu

>  <m_score__min__energy>  (26) 
-8.1099999999999994

>  <m_primary>  (26) 
energy

>  <meeko>  (26) 
{"free_energy": -8.05, "intermolecular_energy": -10.43, "internal_energy": -1.41, "cluster_size": 4, "cluster_id": 3, "rank_in_cluster": 1}

>  <energy>  (26) 
-8.08

>  <cluster_rmsd>  (26) 
0.0

>  <rmsd>  (26) 
270.42

>  <cluster>  (26) 
2

$$$$
GPYMLVVOPJPQBB-UHFFFAOYNA-N
     RDKit          3D

 55 58  0  0  0  0  0  0  0  0999 V2000
  138.5080   77.4140  223.0090 O   0  0  0  0  0  0  0  0  0  0  0  0
  139.5830   77.4600  222.3520 C   0  0  0  0  0  0  0  0  0  0  0  0
  139.7900   76.4690  221.2430 C   0  0  0  0  0  0  0  0  0  0  0  0
  138.3830   75.3140  221.0700 S   0  0  0  0  0  0  0  0  0  0  0  0
  139.1560   73.9380  221.9300 C   0  0  0  0  0  0  0  0  0  0  0  0
  140.4800   73.8610  222.1600 N   0  0  0  0  0  0  0  0  0  0  0  0
  140.7020   72.6890  222.7380 N   0  0  0  0  0  0  0  0  0  0  0  0
  139.5140   72.0620  222.8410 C   0  0  0  0  0  0  0  0  0  0  0  0
  139.3800   70.6630  223.3730 C   0  0  0  0  0  0  0  0  0  0  0  0
  139.7540   70.6230  224.8290 C   0  0  0  0  0  0  0  0  0  0  0  0
  140.6860   71.5410  225.3450 C   0  0  0  0  0  0  0  0  0  0  0  0
  141.0570   71.4860  226.6920 C   0  0  0  0  0  0  0  0  0  0  0  0
  140.5100   70.5100  227.5300 C   0  0  0  0  0  0  0  0  0  0  0  0
  139.5920   69.5860  227.0220 C   0  0  0  0  0  0  0  0  0  0  0  0
  139.2170   69.6390  225.6750 C   0  0  0  0  0  0  0  0  0  0  0  0
  138.5150   72.8190  222.3310 N   0  0  0  0  0  0  0  0  0  0  0  0
  137.0990   72.4820  222.1410 C   0  0  0  0  0  0  0  0  0  0  0  0
  136.3950   72.2340  223.4790 C   0  0  0  0  0  0  0  0  0  0  0  0
  135.7370   73.4810  224.0050 C   0  0  0  0  0  0  0  0  0  0  0  0
  134.8520   73.4060  225.0940 C   0  0  0  0  0  0  0  0  0  0  0  0
  134.2820   74.5700  225.6200 C   0  0  0  0  0  0  0  0  0  0  0  0
  134.5930   75.8140  225.0670 C   0  0  0  0  0  0  0  0  0  0  0  0
  135.4750   75.8970  223.9860 C   0  0  0  0  0  0  0  0  0  0  0  0
  136.0480   74.7370  223.4580 C   0  0  0  0  0  0  0  0  0  0  0  0
  140.5780   78.4470  222.6820 N   0  0  0  0  0  0  0  0  0  0  0  0
  141.7970   78.6730  221.9230 C   0  0  0  0  0  0  0  0  0  0  0  0
  142.5560   79.7530  222.6830 C   0  0  0  0  0  0  0  0  0  0  0  0
  141.5430   80.3920  223.6270 C   0  0  0  0  0  0  0  0  0  0  0  0
  140.4270   79.3710  223.7910 C   0  0  0  0  0  0  0  0  0  0  0  0
  139.9153   77.0175  220.2978 H   0  0  0  0  0  0  0  0  0  0  0  0
  140.6838   75.8754  221.4856 H   0  0  0  0  0  0  0  0  0  0  0  0
  138.3388   70.3279  223.2560 H   0  0  0  0  0  0  0  0  0  0  0  0
  140.0536   69.9993  222.8111 H   0  0  0  0  0  0  0  0  0  0  0  0
  141.1248   72.3051  224.6865 H   0  0  0  0  0  0  0  0  0  0  0  0
  141.7802   72.2116  227.0927 H   0  0  0  0  0  0  0  0  0  0  0  0
  140.8020   70.4690  228.5897 H   0  0  0  0  0  0  0  0  0  0  0  0
  139.1642   68.8168  227.6817 H   0  0  0  0  0  0  0  0  0  0  0  0
  138.4987   68.9070  225.2771 H   0  0  0  0  0  0  0  0  0  0  0  0
  136.5999   73.3147  221.6238 H   0  0  0  0  0  0  0  0  0  0  0  0
  137.0414   71.5592  221.5451 H   0  0  0  0  0  0  0  0  0  0  0  0
  135.6274   71.4586  223.3389 H   0  0  0  0  0  0  0  0  0  0  0  0
  137.1527   71.9137  224.2093 H   0  0  0  0  0  0  0  0  0  0  0  0
  134.6066   72.4283  225.5344 H   0  0  0  0  0  0  0  0  0  0  0  0
  133.5876   74.5054  226.4707 H   0  0  0  0  0  0  0  0  0  0  0  0
  134.1439   76.7284  225.4821 H   0  0  0  0  0  0  0  0  0  0  0  0
  135.7185   76.8771  223.5501 H   0  0  0  0  0  0  0  0  0  0  0  0
  136.7456   74.8077  222.6104 H   0  0  0  0  0  0  0  0  0  0  0  0
  142.3929   77.7500  221.8692 H   0  0  0  0  0  0  0  0  0  0  0  0
  141.5824   78.9770  220.8879 H   0  0  0  0  0  0  0  0  0  0  0  0
  143.3838   79.3082  223.2547 H   0  0  0  0  0  0  0  0  0  0  0  0
  142.9941   80.4950  221.9993 H   0  0  0  0  0  0  0  0  0  0  0  0
  142.0094   80.6090  224.5993 H   0  0  0  0  0  0  0  0  0  0  0  0
  141.1643   81.3451  223.2292 H   0  0  0  0  0  0  0  0  0  0  0  0
  140.5293   78.8408  224.7493 H   0  0  0  0  0  0  0  0  0  0  0  0
  139.4357   79.8478  223.7917 H   0  0  0  0  0  0  0  0  0  0  0  0
  1  2  2  0
  2  3  1  0
  3  4  1  0
  4  5  1  0
  5  6  2  0
  6  7  1  0
  7  8  2  0
  8  9  1  0
  9 10  1  0
 10 11  2  0
 11 12  1  0
 12 13  2  0
 13 14  1  0
 14 15  2  0
  8 16  1  0
 16 17  1  0
 17 18  1  0
 18 19  1  0
 19 20  2  0
 20 21  1  0
 21 22  2  0
 22 23  1  0
 23 24  2  0
  2 25  1  0
 25 26  1  0
 26 27  1  0
 27 28  1  0
 28 29  1  0
 16  5  1  0
 24 19  1  0
 29 25  1  0
 15 10  1  0
  3 30  1  0
  3 31  1  0
  9 32  1  0
  9 33  1  0
 11 34  1  0
 12 35  1  0
 13 36  1  0
 14 37  1  0
 15 38  1  0
 17 39  1  0
 17 40  1  0
 18 41  1  0
 18 42  1  0
 20 43  1  0
 21 44  1  0
 22 45  1  0
 23 46  1  0
 24 47  1  0
 26 48  1  0
 26 49  1  0
 27 50  1  0
 27 51  1  0
 28 52  1  0
 28 53  1  0
 29 54  1  0
 29 55  1  0
M  END
>  <UniqueID>  (27) 
18

>  <SMILES>  (27) 
O=C(CSc1nnc(Cc2ccccc2)n1CCc1ccccc1)N1CCCC1

>  <Energy>  (27) 
80.29177251831064

>  <Genealogy>  (27) 
O=C(CSc1nnc(Cc2ccccc2)n1CCc1ccccc1)N1CCCC1 (3D coordinates assigned)
O=C(CSc1nnc(Cc2ccccc2)n1CCc1ccccc1)N1CCCC1 (nonaromatic ring conformer: 80.29177251831064 kcal/mol)

>  <smiles>  (27) 
O=C(CSc1nnc(Cc2ccccc2)n1CCc1ccccc1)N1CCCC1

>  <score_type>  (27) 
oracle

>  <origin>  (27) 
autodockgpu

>  <m_score__min__energy>  (27) 
-8.1099999999999994

>  <m_primary>  (27) 
energy

>  <meeko>  (27) 
{"free_energy": -7.9, "intermolecular_energy": -10.29, "internal_energy": -1.71, "cluster_size": 4, "cluster_id": 3, "rank_in_cluster": 3}

>  <energy>  (27) 
-7.65

>  <cluster_rmsd>  (27) 
0.94

>  <rmsd>  (27) 
270.2

>  <cluster>  (27) 
2

$$$$
GPYMLVVOPJPQBB-UHFFFAOYNA-N
     RDKit          3D

 55 58  0  0  0  0  0  0  0  0999 V2000
  138.3560   79.2530  223.2020 O   0  0  0  0  0  0  0  0  0  0  0  0
  139.4630   78.6910  222.9880 C   0  0  0  0  0  0  0  0  0  0  0  0
  139.4720   77.2320  222.6320 C   0  0  0  0  0  0  0  0  0  0  0  0
  139.8600   76.9490  220.8670 S   0  0  0  0  0  0  0  0  0  0  0  0
  140.3720   75.2360  221.0530 C   0  0  0  0  0  0  0  0  0  0  0  0
  140.1170   74.5050  222.1550 N   0  0  0  0  0  0  0  0  0  0  0  0
  140.7010   73.3290  221.9800 N   0  0  0  0  0  0  0  0  0  0  0  0
  141.3140   73.3620  220.7800 C   0  0  0  0  0  0  0  0  0  0  0  0
  142.1580   72.2280  220.2710 C   0  0  0  0  0  0  0  0  0  0  0  0
  143.6070   72.6320  220.2390 C   0  0  0  0  0  0  0  0  0  0  0  0
  144.5650   71.7800  219.6650 C   0  0  0  0  0  0  0  0  0  0  0  0
  145.9160   72.1410  219.6610 C   0  0  0  0  0  0  0  0  0  0  0  0
  146.3200   73.3490  220.2370 C   0  0  0  0  0  0  0  0  0  0  0  0
  145.3740   74.1960  220.8210 C   0  0  0  0  0  0  0  0  0  0  0  0
  144.0220   73.8390  220.8260 C   0  0  0  0  0  0  0  0  0  0  0  0
  141.1350   74.5570  220.1720 N   0  0  0  0  0  0  0  0  0  0  0  0
  141.7130   75.0570  218.9180 C   0  0  0  0  0  0  0  0  0  0  0  0
  142.8110   76.0930  219.1790 C   0  0  0  0  0  0  0  0  0  0  0  0
  142.4620   77.4370  218.5990 C   0  0  0  0  0  0  0  0  0  0  0  0
  142.1750   78.5190  219.4490 C   0  0  0  0  0  0  0  0  0  0  0  0
  141.9040   79.7820  218.9130 C   0  0  0  0  0  0  0  0  0  0  0  0
  141.9220   79.9760  217.5300 C   0  0  0  0  0  0  0  0  0  0  0  0
  142.2110   78.9050  216.6790 C   0  0  0  0  0  0  0  0  0  0  0  0
  142.4830   77.6420  217.2100 C   0  0  0  0  0  0  0  0  0  0  0  0
  140.6810   79.4520  223.0950 N   0  0  0  0  0  0  0  0  0  0  0  0
  142.0010   78.9460  222.7570 C   0  0  0  0  0  0  0  0  0  0  0  0
  142.9690   80.0740  223.0930 C   0  0  0  0  0  0  0  0  0  0  0  0
  142.1170   81.3310  223.2280 C   0  0  0  0  0  0  0  0  0  0  0  0
  140.7010   80.8460  223.5010 C   0  0  0  0  0  0  0  0  0  0  0  0
  140.2291   76.7229  223.2464 H   0  0  0  0  0  0  0  0  0  0  0  0
  138.4646   76.8334  222.8227 H   0  0  0  0  0  0  0  0  0  0  0  0
  142.0377   71.3591  220.9348 H   0  0  0  0  0  0  0  0  0  0  0  0
  141.8349   71.9697  219.2517 H   0  0  0  0  0  0  0  0  0  0  0  0
  144.2514   70.8255  219.2171 H   0  0  0  0  0  0  0  0  0  0  0  0
  146.6616   71.4737  219.2041 H   0  0  0  0  0  0  0  0  0  0  0  0
  147.3827   73.6330  220.2306 H   0  0  0  0  0  0  0  0  0  0  0  0
  145.6934   75.1446  221.2772 H   0  0  0  0  0  0  0  0  0  0  0  0
  143.2808   74.5055  221.2912 H   0  0  0  0  0  0  0  0  0  0  0  0
  142.1441   74.2119  218.3613 H   0  0  0  0  0  0  0  0  0  0  0  0
  140.9131   75.5408  218.3383 H   0  0  0  0  0  0  0  0  0  0  0  0
  142.9492   76.1992  220.2651 H   0  0  0  0  0  0  0  0  0  0  0  0
  143.7341   75.7415  218.6949 H   0  0  0  0  0  0  0  0  0  0  0  0
  142.1635   78.3719  220.5391 H   0  0  0  0  0  0  0  0  0  0  0  0
  141.6761   80.6247  219.5823 H   0  0  0  0  0  0  0  0  0  0  0  0
  141.7090   80.9704  217.1107 H   0  0  0  0  0  0  0  0  0  0  0  0
  142.2242   79.0572  215.5897 H   0  0  0  0  0  0  0  0  0  0  0  0
  142.7148   76.8037  216.5366 H   0  0  0  0  0  0  0  0  0  0  0  0
  142.2332   78.0504  223.3520 H   0  0  0  0  0  0  0  0  0  0  0  0
  142.0669   78.6540  221.6985 H   0  0  0  0  0  0  0  0  0  0  0  0
  143.4901   79.8619  224.0382 H   0  0  0  0  0  0  0  0  0  0  0  0
  143.7387   80.1899  222.3158 H   0  0  0  0  0  0  0  0  0  0  0  0
  142.4774   81.9499  224.0629 H   0  0  0  0  0  0  0  0  0  0  0  0
  142.1642   81.9509  222.3206 H   0  0  0  0  0  0  0  0  0  0  0  0
  140.4632   80.9378  224.5711 H   0  0  0  0  0  0  0  0  0  0  0  0
  139.9545   81.4402  222.9537 H   0  0  0  0  0  0  0  0  0  0  0  0
  1  2  2  0
  2  3  1  0
  3  4  1  0
  4  5  1  0
  5  6  2  0
  6  7  1  0
  7  8  2  0
  8  9  1  0
  9 10  1  0
 10 11  2  0
 11 12  1  0
 12 13  2  0
 13 14  1  0
 14 15  2  0
  8 16  1  0
 16 17  1  0
 17 18  1  0
 18 19  1  0
 19 20  2  0
 20 21  1  0
 21 22  2  0
 22 23  1  0
 23 24  2  0
  2 25  1  0
 25 26  1  0
 26 27  1  0
 27 28  1  0
 28 29  1  0
 16  5  1  0
 24 19  1  0
 29 25  1  0
 15 10  1  0
  3 30  1  0
  3 31  1  0
  9 32  1  0
  9 33  1  0
 11 34  1  0
 12 35  1  0
 13 36  1  0
 14 37  1  0
 15 38  1  0
 17 39  1  0
 17 40  1  0
 18 41  1  0
 18 42  1  0
 20 43  1  0
 21 44  1  0
 22 45  1  0
 23 46  1  0
 24 47  1  0
 26 48  1  0
 26 49  1  0
 27 50  1  0
 27 51  1  0
 28 52  1  0
 28 53  1  0
 29 54  1  0
 29 55  1  0
M  END
>  <UniqueID>  (28) 
18

>  <SMILES>  (28) 
O=C(CSc1nnc(Cc2ccccc2)n1CCc1ccccc1)N1CCCC1

>  <Energy>  (28) 
80.29177251831064

>  <Genealogy>  (28) 
O=C(CSc1nnc(Cc2ccccc2)n1CCc1ccccc1)N1CCCC1 (3D coordinates assigned)
O=C(CSc1nnc(Cc2ccccc2)n1CCc1ccccc1)N1CCCC1 (nonaromatic ring conformer: 80.29177251831064 kcal/mol)

>  <smiles>  (28) 
O=C(CSc1nnc(Cc2ccccc2)n1CCc1ccccc1)N1CCCC1

>  <score_type>  (28) 
oracle

>  <origin>  (28) 
autodockgpu

>  <m_score__min__energy>  (28) 
-8.1099999999999994

>  <m_primary>  (28) 
energy

>  <meeko>  (28) 
{"free_energy": -7.2, "intermolecular_energy": -9.59, "internal_energy": -1.98, "cluster_size": 2, "cluster_id": 6, "rank_in_cluster": 1}

>  <energy>  (28) 
-7.16

>  <cluster_rmsd>  (28) 
1.39

>  <rmsd>  (28) 
269.84

>  <cluster>  (28) 
2

$$$$
GPYMLVVOPJPQBB-UHFFFAOYNA-N
     RDKit          3D

 55 58  0  0  0  0  0  0  0  0999 V2000
  141.4350   76.7960  223.0440 O   0  0  0  0  0  0  0  0  0  0  0  0
  140.6920   77.7610  222.7190 C   0  0  0  0  0  0  0  0  0  0  0  0
  139.2990   77.4670  222.2420 C   0  0  0  0  0  0  0  0  0  0  0  0
  139.2680   76.8620  220.5170 S   0  0  0  0  0  0  0  0  0  0  0  0
  140.0250   75.2670  220.8570 C   0  0  0  0  0  0  0  0  0  0  0  0
  140.0400   74.7030  222.0790 N   0  0  0  0  0  0  0  0  0  0  0  0
  140.7420   73.5840  221.9770 N   0  0  0  0  0  0  0  0  0  0  0  0
  141.1570   73.4870  220.6990 C   0  0  0  0  0  0  0  0  0  0  0  0
  142.0580   72.3840  220.2220 C   0  0  0  0  0  0  0  0  0  0  0  0
  143.4970   72.8170  220.3000 C   0  0  0  0  0  0  0  0  0  0  0  0
  144.5250   71.9080  219.9980 C   0  0  0  0  0  0  0  0  0  0  0  0
  145.8640   72.3010  220.0990 C   0  0  0  0  0  0  0  0  0  0  0  0
  146.1840   73.5980  220.5110 C   0  0  0  0  0  0  0  0  0  0  0  0
  145.1660   74.5030  220.8250 C   0  0  0  0  0  0  0  0  0  0  0  0
  143.8270   74.1150  220.7240 C   0  0  0  0  0  0  0  0  0  0  0  0
  140.7300   74.5400  219.9650 N   0  0  0  0  0  0  0  0  0  0  0  0
  141.0400   74.8890  218.5730 C   0  0  0  0  0  0  0  0  0  0  0  0
  142.4030   75.5790  218.4560 C   0  0  0  0  0  0  0  0  0  0  0  0
  142.2750   77.0780  218.4770 C   0  0  0  0  0  0  0  0  0  0  0  0
  142.1970   77.7630  219.7020 C   0  0  0  0  0  0  0  0  0  0  0  0
  142.1330   79.1600  219.7250 C   0  0  0  0  0  0  0  0  0  0  0  0
  142.1510   79.8820  218.5290 C   0  0  0  0  0  0  0  0  0  0  0  0
  142.2330   79.2080  217.3070 C   0  0  0  0  0  0  0  0  0  0  0  0
  142.2980   77.8130  217.2800 C   0  0  0  0  0  0  0  0  0  0  0  0
  141.1940   79.1070  222.8060 N   0  0  0  0  0  0  0  0  0  0  0  0
  140.3980   80.3000  222.5750 C   0  0  0  0  0  0  0  0  0  0  0  0
  141.3640   81.4700  222.7110 C   0  0  0  0  0  0  0  0  0  0  0  0
  142.5950   80.9160  223.4210 C   0  0  0  0  0  0  0  0  0  0  0  0
  142.5580   79.4110  223.2010 C   0  0  0  0  0  0  0  0  0  0  0  0
  138.8568   76.6993  222.8939 H   0  0  0  0  0  0  0  0  0  0  0  0
  138.7260   78.4052  222.2794 H   0  0  0  0  0  0  0  0  0  0  0  0
  141.9111   71.4960  220.8543 H   0  0  0  0  0  0  0  0  0  0  0  0
  141.8113   72.1462  219.1767 H   0  0  0  0  0  0  0  0  0  0  0  0
  144.2763   70.8844  219.6812 H   0  0  0  0  0  0  0  0  0  0  0  0
  146.6657   71.5888  219.8540 H   0  0  0  0  0  0  0  0  0  0  0  0
  147.2371   73.9064  220.5881 H   0  0  0  0  0  0  0  0  0  0  0  0
  145.4191   75.5223  221.1521 H   0  0  0  0  0  0  0  0  0  0  0  0
  143.0290   74.8284  220.9774 H   0  0  0  0  0  0  0  0  0  0  0  0
  141.0517   73.9701  217.9685 H   0  0  0  0  0  0  0  0  0  0  0  0
  140.2689   75.5858  218.2125 H   0  0  0  0  0  0  0  0  0  0  0  0
  143.0350   75.2639  219.2994 H   0  0  0  0  0  0  0  0  0  0  0  0
  142.8518   75.2880  217.4948 H   0  0  0  0  0  0  0  0  0  0  0  0
  142.1863   77.1983  220.6459 H   0  0  0  0  0  0  0  0  0  0  0  0
  142.0684   79.6910  220.6862 H   0  0  0  0  0  0  0  0  0  0  0  0
  142.1007   80.9807  218.5489 H   0  0  0  0  0  0  0  0  0  0  0  0
  142.2463   79.7769  216.3656 H   0  0  0  0  0  0  0  0  0  0  0  0
  142.3676   77.2871  216.3164 H   0  0  0  0  0  0  0  0  0  0  0  0
  139.9593   80.2795  221.5665 H   0  0  0  0  0  0  0  0  0  0  0  0
  139.5633   80.3765  223.2874 H   0  0  0  0  0  0  0  0  0  0  0  0
  141.6370   81.8580  221.7186 H   0  0  0  0  0  0  0  0  0  0  0  0
  140.9141   82.3017  223.2729 H   0  0  0  0  0  0  0  0  0  0  0  0
  143.5115   81.3439  222.9887 H   0  0  0  0  0  0  0  0  0  0  0  0
  142.5931   81.1689  224.4915 H   0  0  0  0  0  0  0  0  0  0  0  0
  143.2613   79.1218  222.4062 H   0  0  0  0  0  0  0  0  0  0  0  0
  142.8516   78.8601  224.1067 H   0  0  0  0  0  0  0  0  0  0  0  0
  1  2  2  0
  2  3  1  0
  3  4  1  0
  4  5  1  0
  5  6  2  0
  6  7  1  0
  7  8  2  0
  8  9  1  0
  9 10  1  0
 10 11  2  0
 11 12  1  0
 12 13  2  0
 13 14  1  0
 14 15  2  0
  8 16  1  0
 16 17  1  0
 17 18  1  0
 18 19  1  0
 19 20  2  0
 20 21  1  0
 21 22  2  0
 22 23  1  0
 23 24  2  0
  2 25  1  0
 25 26  1  0
 26 27  1  0
 27 28  1  0
 28 29  1  0
 16  5  1  0
 24 19  1  0
 29 25  1  0
 15 10  1  0
  3 30  1  0
  3 31  1  0
  9 32  1  0
  9 33  1  0
 11 34  1  0
 12 35  1  0
 13 36  1  0
 14 37  1  0
 15 38  1  0
 17 39  1  0
 17 40  1  0
 18 41  1  0
 18 42  1  0
 20 43  1  0
 21 44  1  0
 22 45  1  0
 23 46  1  0
 24 47  1  0
 26 48  1  0
 26 49  1  0
 27 50  1  0
 27 51  1  0
 28 52  1  0
 28 53  1  0
 29 54  1  0
 29 55  1  0
M  END
>  <UniqueID>  (29) 
18

>  <SMILES>  (29) 
O=C(CSc1nnc(Cc2ccccc2)n1CCc1ccccc1)N1CCCC1

>  <Energy>  (29) 
80.29177251831064

>  <Genealogy>  (29) 
O=C(CSc1nnc(Cc2ccccc2)n1CCc1ccccc1)N1CCCC1 (3D coordinates assigned)
O=C(CSc1nnc(Cc2ccccc2)n1CCc1ccccc1)N1CCCC1 (nonaromatic ring conformer: 80.29177251831064 kcal/mol)

>  <smiles>  (29) 
O=C(CSc1nnc(Cc2ccccc2)n1CCc1ccccc1)N1CCCC1

>  <score_type>  (29) 
oracle

>  <origin>  (29) 
autodockgpu

>  <m_score__min__energy>  (29) 
-8.1099999999999994

>  <m_primary>  (29) 
energy

>  <meeko>  (29) 
{"free_energy": -6.92, "intermolecular_energy": -9.3, "internal_energy": -2.58, "cluster_size": 2, "cluster_id": 6, "rank_in_cluster": 2}

>  <energy>  (29) 
-6.92

>  <cluster_rmsd>  (29) 
1.77

>  <rmsd>  (29) 
270.12

>  <cluster>  (29) 
2

$$$$
GPYMLVVOPJPQBB-UHFFFAOYNA-N
     RDKit          3D

 55 58  0  0  0  0  0  0  0  0999 V2000
  139.9530   74.5170  222.3460 O   0  0  0  0  0  0  0  0  0  0  0  0
  139.1700   75.4920  222.1930 C   0  0  0  0  0  0  0  0  0  0  0  0
  137.7460   75.2170  221.8040 C   0  0  0  0  0  0  0  0  0  0  0  0
  137.5920   73.7530  220.7190 S   0  0  0  0  0  0  0  0  0  0  0  0
  137.9620   72.5330  221.9860 C   0  0  0  0  0  0  0  0  0  0  0  0
  137.2250   72.3820  223.1020 N   0  0  0  0  0  0  0  0  0  0  0  0
  137.8250   71.4580  223.8380 N   0  0  0  0  0  0  0  0  0  0  0  0
  138.9270   71.0670  223.1670 C   0  0  0  0  0  0  0  0  0  0  0  0
  139.9130   70.0850  223.7330 C   0  0  0  0  0  0  0  0  0  0  0  0
  140.1910   70.4020  225.1770 C   0  0  0  0  0  0  0  0  0  0  0  0
  139.7350   69.5400  226.1890 C   0  0  0  0  0  0  0  0  0  0  0  0
  139.9670   69.8490  227.5340 C   0  0  0  0  0  0  0  0  0  0  0  0
  140.6450   71.0210  227.8770 C   0  0  0  0  0  0  0  0  0  0  0  0
  141.0910   71.8890  226.8760 C   0  0  0  0  0  0  0  0  0  0  0  0
  140.8630   71.5840  225.5300 C   0  0  0  0  0  0  0  0  0  0  0  0
  139.0490   71.7340  221.9960 N   0  0  0  0  0  0  0  0  0  0  0  0
  140.1440   71.7010  221.0190 C   0  0  0  0  0  0  0  0  0  0  0  0
  141.4950   72.0030  221.6760 C   0  0  0  0  0  0  0  0  0  0  0  0
  142.2780   73.0280  220.9010 C   0  0  0  0  0  0  0  0  0  0  0  0
  143.6810   72.9570  220.8550 C   0  0  0  0  0  0  0  0  0  0  0  0
  144.4080   73.8750  220.0910 C   0  0  0  0  0  0  0  0  0  0  0  0
  143.7430   74.8640  219.3640 C   0  0  0  0  0  0  0  0  0  0  0  0
  142.3470   74.9390  219.4010 C   0  0  0  0  0  0  0  0  0  0  0  0
  141.6170   74.0230  220.1630 C   0  0  0  0  0  0  0  0  0  0  0  0
  139.6560   76.8340  222.3870 N   0  0  0  0  0  0  0  0  0  0  0  0
  138.8240   78.0240  222.3560 C   0  0  0  0  0  0  0  0  0  0  0  0
  139.7790   79.1960  222.5410 C   0  0  0  0  0  0  0  0  0  0  0  0
  141.0750   78.5990  223.0800 C   0  0  0  0  0  0  0  0  0  0  0  0
  141.0440   77.1270  222.6980 C   0  0  0  0  0  0  0  0  0  0  0  0
  137.1572   75.0440  222.7169 H   0  0  0  0  0  0  0  0  0  0  0  0
  137.3756   76.0895  221.2458 H   0  0  0  0  0  0  0  0  0  0  0  0
  139.4982   69.0690  223.6573 H   0  0  0  0  0  0  0  0  0  0  0  0
  140.8520   70.1505  223.1638 H   0  0  0  0  0  0  0  0  0  0  0  0
  139.1942   68.6198  225.9231 H   0  0  0  0  0  0  0  0  0  0  0  0
  139.6148   69.1677  228.3225 H   0  0  0  0  0  0  0  0  0  0  0  0
  140.8280   71.2610  228.9348 H   0  0  0  0  0  0  0  0  0  0  0  0
  141.6221   72.8133  227.1473 H   0  0  0  0  0  0  0  0  0  0  0  0
  141.2111   72.2720  224.7454 H   0  0  0  0  0  0  0  0  0  0  0  0
  140.1848   70.7012  220.5620 H   0  0  0  0  0  0  0  0  0  0  0  0
  139.9507   72.4725  220.2591 H   0  0  0  0  0  0  0  0  0  0  0  0
  141.3189   72.3839  222.6928 H   0  0  0  0  0  0  0  0  0  0  0  0
  142.0798   71.0716  221.6978 H   0  0  0  0  0  0  0  0  0  0  0  0
  144.2090   72.1763  221.4222 H   0  0  0  0  0  0  0  0  0  0  0  0
  145.5062   73.8178  220.0627 H   0  0  0  0  0  0  0  0  0  0  0  0
  144.3169   75.5841  218.7622 H   0  0  0  0  0  0  0  0  0  0  0  0
  141.8232   75.7197  218.8298 H   0  0  0  0  0  0  0  0  0  0  0  0
  140.5188   74.0817  220.1848 H   0  0  0  0  0  0  0  0  0  0  0  0
  138.3020   78.1026  221.3909 H   0  0  0  0  0  0  0  0  0  0  0  0
  138.0513   78.0010  223.1385 H   0  0  0  0  0  0  0  0  0  0  0  0
  139.9600   79.6975  221.5788 H   0  0  0  0  0  0  0  0  0  0  0  0
  139.3653   79.9492  223.2277 H   0  0  0  0  0  0  0  0  0  0  0  0
  141.9441   79.0950  222.6233 H   0  0  0  0  0  0  0  0  0  0  0  0
  141.1603   78.7329  224.1685 H   0  0  0  0  0  0  0  0  0  0  0  0
  141.6811   76.9445  221.8200 H   0  0  0  0  0  0  0  0  0  0  0  0
  141.4234   76.4877  223.5088 H   0  0  0  0  0  0  0  0  0  0  0  0
  1  2  2  0
  2  3  1  0
  3  4  1  0
  4  5  1  0
  5  6  2  0
  6  7  1  0
  7  8  2  0
  8  9  1  0
  9 10  1  0
 10 11  2  0
 11 12  1  0
 12 13  2  0
 13 14  1  0
 14 15  2  0
  8 16  1  0
 16 17  1  0
 17 18  1  0
 18 19  1  0
 19 20  2  0
 20 21  1  0
 21 22  2  0
 22 23  1  0
 23 24  2  0
  2 25  1  0
 25 26  1  0
 26 27  1  0
 27 28  1  0
 28 29  1  0
 16  5  1  0
 24 19  1  0
 29 25  1  0
 15 10  1  0
  3 30  1  0
  3 31  1  0
  9 32  1  0
  9 33  1  0
 11 34  1  0
 12 35  1  0
 13 36  1  0
 14 37  1  0
 15 38  1  0
 17 39  1  0
 17 40  1  0
 18 41  1  0
 18 42  1  0
 20 43  1  0
 21 44  1  0
 22 45  1  0
 23 46  1  0
 24 47  1  0
 26 48  1  0
 26 49  1  0
 27 50  1  0
 27 51  1  0
 28 52  1  0
 28 53  1  0
 29 54  1  0
 29 55  1  0
M  END
>  <UniqueID>  (30) 
18

>  <SMILES>  (30) 
O=C(CSc1nnc(Cc2ccccc2)n1CCc1ccccc1)N1CCCC1

>  <Energy>  (30) 
80.29177251831064

>  <Genealogy>  (30) 
O=C(CSc1nnc(Cc2ccccc2)n1CCc1ccccc1)N1CCCC1 (3D coordinates assigned)
O=C(CSc1nnc(Cc2ccccc2)n1CCc1ccccc1)N1CCCC1 (nonaromatic ring conformer: 80.29177251831064 kcal/mol)

>  <smiles>  (30) 
O=C(CSc1nnc(Cc2ccccc2)n1CCc1ccccc1)N1CCCC1

>  <score_type>  (30) 
oracle

>  <origin>  (30) 
autodockgpu

>  <m_score__min__energy>  (30) 
-8.1099999999999994

>  <m_primary>  (30) 
energy

>  <meeko>  (30) 
{"free_energy": -7.04, "intermolecular_energy": -9.42, "internal_energy": -2.12, "cluster_size": 1, "cluster_id": 7, "rank_in_cluster": 1}

>  <energy>  (30) 
-8.05

>  <cluster_rmsd>  (30) 
0.0

>  <rmsd>  (30) 
270.43

>  <cluster>  (30) 
3

$$$$
GPYMLVVOPJPQBB-UHFFFAOYNA-N
     RDKit          3D

 55 58  0  0  0  0  0  0  0  0999 V2000
  139.1180   68.9480  224.4110 O   0  0  0  0  0  0  0  0  0  0  0  0
  139.6840   70.0490  224.6480 C   0  0  0  0  0  0  0  0  0  0  0  0
  139.8960   71.0070  223.5120 C   0  0  0  0  0  0  0  0  0  0  0  0
  138.3290   71.7390  222.9170 S   0  0  0  0  0  0  0  0  0  0  0  0
  139.0460   73.2800  222.3310 C   0  0  0  0  0  0  0  0  0  0  0  0
  140.3670   73.5360  222.3550 N   0  0  0  0  0  0  0  0  0  0  0  0
  140.5260   74.7800  221.9270 N   0  0  0  0  0  0  0  0  0  0  0  0
  139.2990   75.2700  221.6610 C   0  0  0  0  0  0  0  0  0  0  0  0
  139.0720   76.6920  221.2310 C   0  0  0  0  0  0  0  0  0  0  0  0
  139.7750   77.6360  222.1670 C   0  0  0  0  0  0  0  0  0  0  0  0
  139.0320   78.5000  222.9900 C   0  0  0  0  0  0  0  0  0  0  0  0
  139.6860   79.3990  223.8400 C   0  0  0  0  0  0  0  0  0  0  0  0
  141.0820   79.4490  223.8650 C   0  0  0  0  0  0  0  0  0  0  0  0
  141.8280   78.6020  223.0410 C   0  0  0  0  0  0  0  0  0  0  0  0
  141.1790   77.7000  222.1910 C   0  0  0  0  0  0  0  0  0  0  0  0
  138.3390   74.3520  221.9140 N   0  0  0  0  0  0  0  0  0  0  0  0
  136.8780   74.4970  221.8680 C   0  0  0  0  0  0  0  0  0  0  0  0
  136.3820   75.5180  222.8960 C   0  0  0  0  0  0  0  0  0  0  0  0
  135.6290   74.8610  224.0200 C   0  0  0  0  0  0  0  0  0  0  0  0
  135.0810   75.6400  225.0540 C   0  0  0  0  0  0  0  0  0  0  0  0
  134.3340   75.0360  226.0710 C   0  0  0  0  0  0  0  0  0  0  0  0
  134.1240   73.6550  226.0600 C   0  0  0  0  0  0  0  0  0  0  0  0
  134.6610   72.8750  225.0330 C   0  0  0  0  0  0  0  0  0  0  0  0
  135.4080   73.4740  224.0160 C   0  0  0  0  0  0  0  0  0  0  0  0
  140.1150   70.3540  225.9870 N   0  0  0  0  0  0  0  0  0  0  0  0
  140.6670   71.6330  226.4030 C   0  0  0  0  0  0  0  0  0  0  0  0
  141.0350   71.4610  227.8720 C   0  0  0  0  0  0  0  0  0  0  0  0
  140.2970   70.2130  228.3440 C   0  0  0  0  0  0  0  0  0  0  0  0
  139.9790   69.4170  227.0880 C   0  0  0  0  0  0  0  0  0  0  0  0
  140.5580   71.8172  223.8517 H   0  0  0  0  0  0  0  0  0  0  0  0
  140.3423   70.4455  222.6780 H   0  0  0  0  0  0  0  0  0  0  0  0
  139.4642   76.8307  220.2127 H   0  0  0  0  0  0  0  0  0  0  0  0
  137.9930   76.9049  221.2500 H   0  0  0  0  0  0  0  0  0  0  0  0
  137.9327   78.4694  222.9658 H   0  0  0  0  0  0  0  0  0  0  0  0
  139.1005   80.0668  224.4890 H   0  0  0  0  0  0  0  0  0  0  0  0
  141.5945   80.1559  224.5341 H   0  0  0  0  0  0  0  0  0  0  0  0
  142.9270   78.6445  223.0607 H   0  0  0  0  0  0  0  0  0  0  0  0
  141.7692   77.0388  221.5394 H   0  0  0  0  0  0  0  0  0  0  0  0
  136.5836   74.8308  220.8621 H   0  0  0  0  0  0  0  0  0  0  0  0
  136.4271   73.5221  222.1050 H   0  0  0  0  0  0  0  0  0  0  0  0
  137.2483   76.0526  223.3129 H   0  0  0  0  0  0  0  0  0  0  0  0
  135.6968   76.2108  222.3855 H   0  0  0  0  0  0  0  0  0  0  0  0
  135.2401   76.7284  225.0634 H   0  0  0  0  0  0  0  0  0  0  0  0
  133.9114   75.6494  226.8804 H   0  0  0  0  0  0  0  0  0  0  0  0
  133.5358   73.1817  226.8600 H   0  0  0  0  0  0  0  0  0  0  0  0
  134.4953   71.7876  225.0252 H   0  0  0  0  0  0  0  0  0  0  0  0
  135.8255   72.8560  223.2075 H   0  0  0  0  0  0  0  0  0  0  0  0
  141.5602   71.8773  225.8093 H   0  0  0  0  0  0  0  0  0  0  0  0
  139.9494   72.4537  226.2561 H   0  0  0  0  0  0  0  0  0  0  0  0
  142.1214   71.3274  227.9812 H   0  0  0  0  0  0  0  0  0  0  0  0
  140.7550   72.3443  228.4647 H   0  0  0  0  0  0  0  0  0  0  0  0
  140.9348   69.6237  229.0192 H   0  0  0  0  0  0  0  0  0  0  0  0
  139.3841   70.4701  228.9012 H   0  0  0  0  0  0  0  0  0  0  0  0
  140.6871   68.5832  226.9723 H   0  0  0  0  0  0  0  0  0  0  0  0
  138.9706   68.9794  227.1279 H   0  0  0  0  0  0  0  0  0  0  0  0
  1  2  2  0
  2  3  1  0
  3  4  1  0
  4  5  1  0
  5  6  2  0
  6  7  1  0
  7  8  2  0
  8  9  1  0
  9 10  1  0
 10 11  2  0
 11 12  1  0
 12 13  2  0
 13 14  1  0
 14 15  2  0
  8 16  1  0
 16 17  1  0
 17 18  1  0
 18 19  1  0
 19 20  2  0
 20 21  1  0
 21 22  2  0
 22 23  1  0
 23 24  2  0
  2 25  1  0
 25 26  1  0
 26 27  1  0
 27 28  1  0
 28 29  1  0
 16  5  1  0
 24 19  1  0
 29 25  1  0
 15 10  1  0
  3 30  1  0
  3 31  1  0
  9 32  1  0
  9 33  1  0
 11 34  1  0
 12 35  1  0
 13 36  1  0
 14 37  1  0
 15 38  1  0
 17 39  1  0
 17 40  1  0
 18 41  1  0
 18 42  1  0
 20 43  1  0
 21 44  1  0
 22 45  1  0
 23 46  1  0
 24 47  1  0
 26 48  1  0
 26 49  1  0
 27 50  1  0
 27 51  1  0
 28 52  1  0
 28 53  1  0
 29 54  1  0
 29 55  1  0
M  END
>  <UniqueID>  (31) 
18

>  <SMILES>  (31) 
O=C(CSc1nnc(Cc2ccccc2)n1CCc1ccccc1)N1CCCC1

>  <Energy>  (31) 
80.29177251831064

>  <Genealogy>  (31) 
O=C(CSc1nnc(Cc2ccccc2)n1CCc1ccccc1)N1CCCC1 (3D coordinates assigned)
O=C(CSc1nnc(Cc2ccccc2)n1CCc1ccccc1)N1CCCC1 (nonaromatic ring conformer: 80.29177251831064 kcal/mol)

>  <smiles>  (31) 
O=C(CSc1nnc(Cc2ccccc2)n1CCc1ccccc1)N1CCCC1

>  <score_type>  (31) 
oracle

>  <origin>  (31) 
autodockgpu

>  <m_score__min__energy>  (31) 
-8.1099999999999994

>  <m_primary>  (31) 
energy

>  <meeko>  (31) 
{"free_energy": -8.03, "intermolecular_energy": -10.41, "internal_energy": -1.59, "cluster_size": 5, "cluster_id": 1, "rank_in_cluster": 2}

>  <energy>  (31) 
-7.92

>  <cluster_rmsd>  (31) 
0.51

>  <rmsd>  (31) 
270.34

>  <cluster>  (31) 
3

$$$$
GPYMLVVOPJPQBB-UHFFFAOYNA-N
     RDKit          3D

 55 58  0  0  0  0  0  0  0  0999 V2000
  139.0440   68.3090  224.9450 O   0  0  0  0  0  0  0  0  0  0  0  0
  139.5020   69.4780  224.8410 C   0  0  0  0  0  0  0  0  0  0  0  0
  139.4590   70.1510  223.5000 C   0  0  0  0  0  0  0  0  0  0  0  0
  138.0630   71.3240  223.3560 S   0  0  0  0  0  0  0  0  0  0  0  0
  138.9940   72.6360  222.5540 C   0  0  0  0  0  0  0  0  0  0  0  0
  140.3220   72.7960  222.7030 N   0  0  0  0  0  0  0  0  0  0  0  0
  140.6540   73.8950  222.0420 N   0  0  0  0  0  0  0  0  0  0  0  0
  139.5240   74.3980  221.5090 C   0  0  0  0  0  0  0  0  0  0  0  0
  139.4920   75.6970  220.7550 C   0  0  0  0  0  0  0  0  0  0  0  0
  139.7630   76.8460  221.6880 C   0  0  0  0  0  0  0  0  0  0  0  0
  141.0740   77.1110  222.1180 C   0  0  0  0  0  0  0  0  0  0  0  0
  141.3230   78.1610  223.0090 C   0  0  0  0  0  0  0  0  0  0  0  0
  140.2670   78.9430  223.4830 C   0  0  0  0  0  0  0  0  0  0  0  0
  138.9590   78.6770  223.0680 C   0  0  0  0  0  0  0  0  0  0  0  0
  138.7050   77.6300  222.1770 C   0  0  0  0  0  0  0  0  0  0  0  0
  138.4530   73.6320  221.8220 N   0  0  0  0  0  0  0  0  0  0  0  0
  137.0300   73.8670  221.5450 C   0  0  0  0  0  0  0  0  0  0  0  0
  136.5060   75.0940  222.2970 C   0  0  0  0  0  0  0  0  0  0  0  0
  135.7740   74.7090  223.5550 C   0  0  0  0  0  0  0  0  0  0  0  0
  135.4430   75.6890  224.5070 C   0  0  0  0  0  0  0  0  0  0  0  0
  134.7150   75.3430  225.6490 C   0  0  0  0  0  0  0  0  0  0  0  0
  134.3100   74.0220  225.8490 C   0  0  0  0  0  0  0  0  0  0  0  0
  134.6320   73.0420  224.9050 C   0  0  0  0  0  0  0  0  0  0  0  0
  135.3580   73.3840  223.7610 C   0  0  0  0  0  0  0  0  0  0  0  0
  140.0580   70.1300  225.9980 N   0  0  0  0  0  0  0  0  0  0  0  0
  140.5060   71.5120  226.0290 C   0  0  0  0  0  0  0  0  0  0  0  0
  141.0710   71.7280  227.4280 C   0  0  0  0  0  0  0  0  0  0  0  0
  140.5480   70.5710  228.2730 C   0  0  0  0  0  0  0  0  0  0  0  0
  140.1710   69.4740  227.2890 C   0  0  0  0  0  0  0  0  0  0  0  0
  140.3998   70.7008  223.3499 H   0  0  0  0  0  0  0  0  0  0  0  0
  139.3231   69.3710  222.7364 H   0  0  0  0  0  0  0  0  0  0  0  0
  140.2601   75.6792  219.9678 H   0  0  0  0  0  0  0  0  0  0  0  0
  138.4965   75.8267  220.3054 H   0  0  0  0  0  0  0  0  0  0  0  0
  141.9068   76.4916  221.7534 H   0  0  0  0  0  0  0  0  0  0  0  0
  142.3519   78.3709  223.3366 H   0  0  0  0  0  0  0  0  0  0  0  0
  140.4648   79.7682  224.1829 H   0  0  0  0  0  0  0  0  0  0  0  0
  138.1281   79.2925  223.4431 H   0  0  0  0  0  0  0  0  0  0  0  0
  137.6735   77.4195  221.8579 H   0  0  0  0  0  0  0  0  0  0  0  0
  136.8980   74.0268  220.4647 H   0  0  0  0  0  0  0  0  0  0  0  0
  136.4631   72.9872  221.8834 H   0  0  0  0  0  0  0  0  0  0  0  0
  137.3568   75.7384  222.5633 H   0  0  0  0  0  0  0  0  0  0  0  0
  135.8002   75.6222  221.6391 H   0  0  0  0  0  0  0  0  0  0  0  0
  135.7579   76.7316  224.3527 H   0  0  0  0  0  0  0  0  0  0  0  0
  134.4606   76.1134  226.3919 H   0  0  0  0  0  0  0  0  0  0  0  0
  133.7378   73.7522  226.7489 H   0  0  0  0  0  0  0  0  0  0  0  0
  134.3136   72.0010  225.0630 H   0  0  0  0  0  0  0  0  0  0  0  0
  135.6048   72.6112  223.0181 H   0  0  0  0  0  0  0  0  0  0  0  0
  141.2844   71.6805  225.2702 H   0  0  0  0  0  0  0  0  0  0  0  0
  139.6857   72.2110  225.8088 H   0  0  0  0  0  0  0  0  0  0  0  0
  142.1706   71.7168  227.4025 H   0  0  0  0  0  0  0  0  0  0  0  0
  140.7655   72.7005  227.8413 H   0  0  0  0  0  0  0  0  0  0  0  0
  141.3293   70.2159  228.9612 H   0  0  0  0  0  0  0  0  0  0  0  0
  139.6880   70.8758  228.8874 H   0  0  0  0  0  0  0  0  0  0  0  0
  140.9518   68.6997  227.2593 H   0  0  0  0  0  0  0  0  0  0  0  0
  139.2338   68.9745  227.5754 H   0  0  0  0  0  0  0  0  0  0  0  0
  1  2  2  0
  2  3  1  0
  3  4  1  0
  4  5  1  0
  5  6  2  0
  6  7  1  0
  7  8  2  0
  8  9  1  0
  9 10  1  0
 10 11  2  0
 11 12  1  0
 12 13  2  0
 13 14  1  0
 14 15  2  0
  8 16  1  0
 16 17  1  0
 17 18  1  0
 18 19  1  0
 19 20  2  0
 20 21  1  0
 21 22  2  0
 22 23  1  0
 23 24  2  0
  2 25  1  0
 25 26  1  0
 26 27  1  0
 27 28  1  0
 28 29  1  0
 16  5  1  0
 24 19  1  0
 29 25  1  0
 15 10  1  0
  3 30  1  0
  3 31  1  0
  9 32  1  0
  9 33  1  0
 11 34  1  0
 12 35  1  0
 13 36  1  0
 14 37  1  0
 15 38  1  0
 17 39  1  0
 17 40  1  0
 18 41  1  0
 18 42  1  0
 20 43  1  0
 21 44  1  0
 22 45  1  0
 23 46  1  0
 24 47  1  0
 26 48  1  0
 26 49  1  0
 27 50  1  0
 27 51  1  0
 28 52  1  0
 28 53  1  0
 29 54  1  0
 29 55  1  0
M  END
>  <UniqueID>  (32) 
18

>  <SMILES>  (32) 
O=C(CSc1nnc(Cc2ccccc2)n1CCc1ccccc1)N1CCCC1

>  <Energy>  (32) 
80.29177251831064

>  <Genealogy>  (32) 
O=C(CSc1nnc(Cc2ccccc2)n1CCc1ccccc1)N1CCCC1 (3D coordinates assigned)
O=C(CSc1nnc(Cc2ccccc2)n1CCc1ccccc1)N1CCCC1 (nonaromatic ring conformer: 80.29177251831064 kcal/mol)

>  <smiles>  (32) 
O=C(CSc1nnc(Cc2ccccc2)n1CCc1ccccc1)N1CCCC1

>  <score_type>  (32) 
oracle

>  <origin>  (32) 
autodockgpu

>  <m_score__min__energy>  (32) 
-8.1099999999999994

>  <m_primary>  (32) 
energy

>  <meeko>  (32) 
{"free_energy": -7.65, "intermolecular_energy": -10.04, "internal_energy": -1.91, "cluster_size": 5, "cluster_id": 1, "rank_in_cluster": 4}

>  <energy>  (32) 
-7.9

>  <cluster_rmsd>  (32) 
0.52

>  <rmsd>  (32) 
270.36

>  <cluster>  (32) 
3

$$$$
GPYMLVVOPJPQBB-UHFFFAOYNA-N
     RDKit          3D

 55 58  0  0  0  0  0  0  0  0999 V2000
  139.1880   67.8060  225.0090 O   0  0  0  0  0  0  0  0  0  0  0  0
  139.5050   69.0160  224.8520 C   0  0  0  0  0  0  0  0  0  0  0  0
  139.2770   69.6500  223.5100 C   0  0  0  0  0  0  0  0  0  0  0  0
  137.9680   70.9270  223.5590 S   0  0  0  0  0  0  0  0  0  0  0  0
  138.9270   72.2180  222.7560 C   0  0  0  0  0  0  0  0  0  0  0  0
  140.2130   72.4790  223.0580 N   0  0  0  0  0  0  0  0  0  0  0  0
  140.5710   73.5320  222.3370 N   0  0  0  0  0  0  0  0  0  0  0  0
  139.4970   73.9070  221.6160 C   0  0  0  0  0  0  0  0  0  0  0  0
  139.4980   75.1250  220.7370 C   0  0  0  0  0  0  0  0  0  0  0  0
  139.6930   76.3640  221.5670 C   0  0  0  0  0  0  0  0  0  0  0  0
  140.9880   76.7820  221.9190 C   0  0  0  0  0  0  0  0  0  0  0  0
  141.1690   77.9170  222.7150 C   0  0  0  0  0  0  0  0  0  0  0  0
  140.0620   78.6350  223.1750 C   0  0  0  0  0  0  0  0  0  0  0  0
  138.7700   78.2190  222.8390 C   0  0  0  0  0  0  0  0  0  0  0  0
  138.5840   77.0850  222.0410 C   0  0  0  0  0  0  0  0  0  0  0  0
  138.4370   73.1040  221.8630 N   0  0  0  0  0  0  0  0  0  0  0  0
  137.0530   73.2170  221.3830 C   0  0  0  0  0  0  0  0  0  0  0  0
  136.4240   74.5520  221.7940 C   0  0  0  0  0  0  0  0  0  0  0  0
  135.8280   74.4890  223.1740 C   0  0  0  0  0  0  0  0  0  0  0  0
  135.6900   75.6620  223.9370 C   0  0  0  0  0  0  0  0  0  0  0  0
  135.0870   75.6140  225.1980 C   0  0  0  0  0  0  0  0  0  0  0  0
  134.6130   74.4010  225.7030 C   0  0  0  0  0  0  0  0  0  0  0  0
  134.7420   73.2320  224.9480 C   0  0  0  0  0  0  0  0  0  0  0  0
  135.3440   73.2750  223.6880 C   0  0  0  0  0  0  0  0  0  0  0  0
  140.0800   69.7500  225.9490 N   0  0  0  0  0  0  0  0  0  0  0  0
  140.3740   71.1730  225.9240 C   0  0  0  0  0  0  0  0  0  0  0  0
  141.0260   71.4790  227.2660 C   0  0  0  0  0  0  0  0  0  0  0  0
  140.7050   70.2920  228.1680 C   0  0  0  0  0  0  0  0  0  0  0  0
  140.3700   69.1390  227.2340 C   0  0  0  0  0  0  0  0  0  0  0  0
  140.2149   70.1175  223.1756 H   0  0  0  0  0  0  0  0  0  0  0  0
  138.9517   68.8610  222.8159 H   0  0  0  0  0  0  0  0  0  0  0  0
  140.3160   75.0449  220.0059 H   0  0  0  0  0  0  0  0  0  0  0  0
  138.5324   75.1913  220.2142 H   0  0  0  0  0  0  0  0  0  0  0  0
  141.8619   76.2142  221.5670 H   0  0  0  0  0  0  0  0  0  0  0  0
  142.1849   78.2455  222.9797 H   0  0  0  0  0  0  0  0  0  0  0  0
  140.2069   79.5275  223.8015 H   0  0  0  0  0  0  0  0  0  0  0  0
  137.8990   78.7839  223.2025 H   0  0  0  0  0  0  0  0  0  0  0  0
  137.5661   76.7567  221.7838 H   0  0  0  0  0  0  0  0  0  0  0  0
  137.0480   73.1422  220.2856 H   0  0  0  0  0  0  0  0  0  0  0  0
  136.4639   72.4045  221.8333 H   0  0  0  0  0  0  0  0  0  0  0  0
  137.2002   75.3313  221.7769 H   0  0  0  0  0  0  0  0  0  0  0  0
  135.6163   74.7818  221.0835 H   0  0  0  0  0  0  0  0  0  0  0  0
  136.0574   76.6202  223.5409 H   0  0  0  0  0  0  0  0  0  0  0  0
  134.9858   76.5334  225.7933 H   0  0  0  0  0  0  0  0  0  0  0  0
  134.1383   74.3659  226.6947 H   0  0  0  0  0  0  0  0  0  0  0  0
  134.3691   72.2769  225.3463 H   0  0  0  0  0  0  0  0  0  0  0  0
  135.4394   72.3532  223.0955 H   0  0  0  0  0  0  0  0  0  0  0  0
  141.0630   71.4085  225.0995 H   0  0  0  0  0  0  0  0  0  0  0  0
  139.4663   71.7739  225.7655 H   0  0  0  0  0  0  0  0  0  0  0  0
  142.1143   71.5856  227.1470 H   0  0  0  0  0  0  0  0  0  0  0  0
  140.6512   72.4218  227.6911 H   0  0  0  0  0  0  0  0  0  0  0  0
  141.5749   70.0390  228.7919 H   0  0  0  0  0  0  0  0  0  0  0  0
  139.8711   70.5158  228.8495 H   0  0  0  0  0  0  0  0  0  0  0  0
  141.2255   68.4528  227.1487 H   0  0  0  0  0  0  0  0  0  0  0  0
  139.5198   68.5480  227.6052 H   0  0  0  0  0  0  0  0  0  0  0  0
  1  2  2  0
  2  3  1  0
  3  4  1  0
  4  5  1  0
  5  6  2  0
  6  7  1  0
  7  8  2  0
  8  9  1  0
  9 10  1  0
 10 11  2  0
 11 12  1  0
 12 13  2  0
 13 14  1  0
 14 15  2  0
  8 16  1  0
 16 17  1  0
 17 18  1  0
 18 19  1  0
 19 20  2  0
 20 21  1  0
 21 22  2  0
 22 23  1  0
 23 24  2  0
  2 25  1  0
 25 26  1  0
 26 27  1  0
 27 28  1  0
 28 29  1  0
 16  5  1  0
 24 19  1  0
 29 25  1  0
 15 10  1  0
  3 30  1  0
  3 31  1  0
  9 32  1  0
  9 33  1  0
 11 34  1  0
 12 35  1  0
 13 36  1  0
 14 37  1  0
 15 38  1  0
 17 39  1  0
 17 40  1  0
 18 41  1  0
 18 42  1  0
 20 43  1  0
 21 44  1  0
 22 45  1  0
 23 46  1  0
 24 47  1  0
 26 48  1  0
 26 49  1  0
 27 50  1  0
 27 51  1  0
 28 52  1  0
 28 53  1  0
 29 54  1  0
 29 55  1  0
M  END
>  <UniqueID>  (33) 
18

>  <SMILES>  (33) 
O=C(CSc1nnc(Cc2ccccc2)n1CCc1ccccc1)N1CCCC1

>  <Energy>  (33) 
80.29177251831064

>  <Genealogy>  (33) 
O=C(CSc1nnc(Cc2ccccc2)n1CCc1ccccc1)N1CCCC1 (3D coordinates assigned)
O=C(CSc1nnc(Cc2ccccc2)n1CCc1ccccc1)N1CCCC1 (nonaromatic ring conformer: 80.29177251831064 kcal/mol)

>  <smiles>  (33) 
O=C(CSc1nnc(Cc2ccccc2)n1CCc1ccccc1)N1CCCC1

>  <score_type>  (33) 
oracle

>  <origin>  (33) 
autodockgpu

>  <m_score__min__energy>  (33) 
-8.1099999999999994

>  <m_primary>  (33) 
energy

>  <meeko>  (33) 
{"free_energy": -7.51, "intermolecular_energy": -9.9, "internal_energy": -2.06, "cluster_size": 5, "cluster_id": 1, "rank_in_cluster": 5}

>  <energy>  (33) 
-7.86

>  <cluster_rmsd>  (33) 
0.55

>  <rmsd>  (33) 
270.36

>  <cluster>  (33) 
3

$$$$
GPYMLVVOPJPQBB-UHFFFAOYNA-N
     RDKit          3D

 55 58  0  0  0  0  0  0  0  0999 V2000
  138.8830   69.7790  224.0980 O   0  0  0  0  0  0  0  0  0  0  0  0
  139.6720   70.6700  224.5120 C   0  0  0  0  0  0  0  0  0  0  0  0
  140.1820   71.6890  223.5350 C   0  0  0  0  0  0  0  0  0  0  0  0
  138.9470   72.1010  222.2510 S   0  0  0  0  0  0  0  0  0  0  0  0
  139.4160   73.8270  222.0770 C   0  0  0  0  0  0  0  0  0  0  0  0
  140.6910   74.2540  222.1270 N   0  0  0  0  0  0  0  0  0  0  0  0
  140.6580   75.5760  222.0430 N   0  0  0  0  0  0  0  0  0  0  0  0
  139.3630   75.9390  221.9560 C   0  0  0  0  0  0  0  0  0  0  0  0
  138.9250   77.3760  221.9300 C   0  0  0  0  0  0  0  0  0  0  0  0
  140.0760   78.2760  222.2860 C   0  0  0  0  0  0  0  0  0  0  0  0
  140.0660   78.9910  223.4960 C   0  0  0  0  0  0  0  0  0  0  0  0
  141.1220   79.8520  223.8140 C   0  0  0  0  0  0  0  0  0  0  0  0
  142.1870   80.0120  222.9240 C   0  0  0  0  0  0  0  0  0  0  0  0
  142.1980   79.3140  221.7130 C   0  0  0  0  0  0  0  0  0  0  0  0
  141.1460   78.4510  221.3920 C   0  0  0  0  0  0  0  0  0  0  0  0
  138.5500   74.8580  221.9840 N   0  0  0  0  0  0  0  0  0  0  0  0
  137.0830   74.8010  222.0240 C   0  0  0  0  0  0  0  0  0  0  0  0
  136.5140   75.7090  223.1190 C   0  0  0  0  0  0  0  0  0  0  0  0
  135.7130   74.9340  224.1290 C   0  0  0  0  0  0  0  0  0  0  0  0
  135.0570   75.6050  225.1760 C   0  0  0  0  0  0  0  0  0  0  0  0
  134.2670   74.8940  226.0840 C   0  0  0  0  0  0  0  0  0  0  0  0
  134.1210   73.5110  225.9520 C   0  0  0  0  0  0  0  0  0  0  0  0
  134.7660   72.8360  224.9110 C   0  0  0  0  0  0  0  0  0  0  0  0
  135.5560   73.5440  224.0020 C   0  0  0  0  0  0  0  0  0  0  0  0
  140.0680   70.6830  225.8960 N   0  0  0  0  0  0  0  0  0  0  0  0
  140.8740   71.7240  226.5130 C   0  0  0  0  0  0  0  0  0  0  0  0
  141.0870   71.2760  227.9530 C   0  0  0  0  0  0  0  0  0  0  0  0
  140.0460   70.1920  228.2130 C   0  0  0  0  0  0  0  0  0  0  0  0
  139.6400   69.6690  226.8430 C   0  0  0  0  0  0  0  0  0  0  0  0
  140.4407   72.6065  224.0839 H   0  0  0  0  0  0  0  0  0  0  0  0
  141.0606   71.2604  223.0307 H   0  0  0  0  0  0  0  0  0  0  0  0
  138.5651   77.6280  220.9216 H   0  0  0  0  0  0  0  0  0  0  0  0
  138.1176   77.5186  222.6633 H   0  0  0  0  0  0  0  0  0  0  0  0
  139.2251   78.8733  224.1953 H   0  0  0  0  0  0  0  0  0  0  0  0
  141.1137   80.4035  224.7657 H   0  0  0  0  0  0  0  0  0  0  0  0
  143.0174   80.6877  223.1764 H   0  0  0  0  0  0  0  0  0  0  0  0
  143.0354   79.4439  221.0117 H   0  0  0  0  0  0  0  0  0  0  0  0
  141.1559   77.9069  220.4360 H   0  0  0  0  0  0  0  0  0  0  0  0
  136.6863   75.1241  221.0502 H   0  0  0  0  0  0  0  0  0  0  0  0
  136.7844   73.7657  222.2453 H   0  0  0  0  0  0  0  0  0  0  0  0
  137.3469   76.2100  223.6341 H   0  0  0  0  0  0  0  0  0  0  0  0
  135.8455   76.4409  222.6422 H   0  0  0  0  0  0  0  0  0  0  0  0
  135.1659   76.6945  225.2811 H   0  0  0  0  0  0  0  0  0  0  0  0
  133.7597   75.4242  226.9035 H   0  0  0  0  0  0  0  0  0  0  0  0
  133.4986   72.9529  226.6670 H   0  0  0  0  0  0  0  0  0  0  0  0
  134.6513   71.7469  224.8078 H   0  0  0  0  0  0  0  0  0  0  0  0
  136.0581   73.0097  223.1819 H   0  0  0  0  0  0  0  0  0  0  0  0
  141.8390   71.8210  225.9941 H   0  0  0  0  0  0  0  0  0  0  0  0
  140.3811   72.7060  226.4604 H   0  0  0  0  0  0  0  0  0  0  0  0
  142.1015   70.8706  228.0813 H   0  0  0  0  0  0  0  0  0  0  0  0
  140.9803   72.1149  228.6565 H   0  0  0  0  0  0  0  0  0  0  0  0
  140.4792   69.3826  228.8189 H   0  0  0  0  0  0  0  0  0  0  0  0
  139.1818   70.5858  228.7681 H   0  0  0  0  0  0  0  0  0  0  0  0
  140.1404   68.7121  226.6334 H   0  0  0  0  0  0  0  0  0  0  0  0
  138.5571   69.4856  226.7816 H   0  0  0  0  0  0  0  0  0  0  0  0
  1  2  2  0
  2  3  1  0
  3  4  1  0
  4  5  1  0
  5  6  2  0
  6  7  1  0
  7  8  2  0
  8  9  1  0
  9 10  1  0
 10 11  2  0
 11 12  1  0
 12 13  2  0
 13 14  1  0
 14 15  2  0
  8 16  1  0
 16 17  1  0
 17 18  1  0
 18 19  1  0
 19 20  2  0
 20 21  1  0
 21 22  2  0
 22 23  1  0
 23 24  2  0
  2 25  1  0
 25 26  1  0
 26 27  1  0
 27 28  1  0
 28 29  1  0
 16  5  1  0
 24 19  1  0
 29 25  1  0
 15 10  1  0
  3 30  1  0
  3 31  1  0
  9 32  1  0
  9 33  1  0
 11 34  1  0
 12 35  1  0
 13 36  1  0
 14 37  1  0
 15 38  1  0
 17 39  1  0
 17 40  1  0
 18 41  1  0
 18 42  1  0
 20 43  1  0
 21 44  1  0
 22 45  1  0
 23 46  1  0
 24 47  1  0
 26 48  1  0
 26 49  1  0
 27 50  1  0
 27 51  1  0
 28 52  1  0
 28 53  1  0
 29 54  1  0
 29 55  1  0
M  END
>  <UniqueID>  (34) 
18

>  <SMILES>  (34) 
O=C(CSc1nnc(Cc2ccccc2)n1CCc1ccccc1)N1CCCC1

>  <Energy>  (34) 
80.29177251831064

>  <Genealogy>  (34) 
O=C(CSc1nnc(Cc2ccccc2)n1CCc1ccccc1)N1CCCC1 (3D coordinates assigned)
O=C(CSc1nnc(Cc2ccccc2)n1CCc1ccccc1)N1CCCC1 (nonaromatic ring conformer: 80.29177251831064 kcal/mol)

>  <smiles>  (34) 
O=C(CSc1nnc(Cc2ccccc2)n1CCc1ccccc1)N1CCCC1

>  <score_type>  (34) 
oracle

>  <origin>  (34) 
autodockgpu

>  <m_score__min__energy>  (34) 
-8.1099999999999994

>  <m_primary>  (34) 
energy

>  <meeko>  (34) 
{"free_energy": -8.11, "intermolecular_energy": -10.5, "internal_energy": -1.4, "cluster_size": 5, "cluster_id": 1, "rank_in_cluster": 1}

>  <energy>  (34) 
-7.75

>  <cluster_rmsd>  (34) 
0.0

>  <rmsd>  (34) 
270.26

>  <cluster>  (34) 
4

$$$$
GPYMLVVOPJPQBB-UHFFFAOYNA-N
     RDKit          3D

 55 58  0  0  0  0  0  0  0  0999 V2000
  138.4080   72.8690  219.8110 O   0  0  0  0  0  0  0  0  0  0  0  0
  139.1900   72.1400  220.4780 C   0  0  0  0  0  0  0  0  0  0  0  0
  140.5260   71.7890  219.8900 C   0  0  0  0  0  0  0  0  0  0  0  0
  141.9160   72.4070  220.9050 S   0  0  0  0  0  0  0  0  0  0  0  0
  141.1620   73.9820  221.3290 C   0  0  0  0  0  0  0  0  0  0  0  0
  140.2770   74.1310  222.3330 N   0  0  0  0  0  0  0  0  0  0  0  0
  139.8740   75.3930  222.3070 N   0  0  0  0  0  0  0  0  0  0  0  0
  140.5080   75.9940  221.2810 C   0  0  0  0  0  0  0  0  0  0  0  0
  140.2380   77.4180  220.8860 C   0  0  0  0  0  0  0  0  0  0  0  0
  141.0280   78.3570  221.7560 C   0  0  0  0  0  0  0  0  0  0  0  0
  141.7550   79.4120  221.1780 C   0  0  0  0  0  0  0  0  0  0  0  0
  142.5140   80.2680  221.9830 C   0  0  0  0  0  0  0  0  0  0  0  0
  142.5610   80.0710  223.3650 C   0  0  0  0  0  0  0  0  0  0  0  0
  141.8500   79.0160  223.9460 C   0  0  0  0  0  0  0  0  0  0  0  0
  141.0890   78.1590  223.1450 C   0  0  0  0  0  0  0  0  0  0  0  0
  141.3230   75.1290  220.6350 N   0  0  0  0  0  0  0  0  0  0  0  0
  142.1070   75.3300  219.4100 C   0  0  0  0  0  0  0  0  0  0  0  0
  143.5520   75.7260  219.7260 C   0  0  0  0  0  0  0  0  0  0  0  0
  144.4420   74.5230  219.8800 C   0  0  0  0  0  0  0  0  0  0  0  0
  144.3020   73.4250  219.0140 C   0  0  0  0  0  0  0  0  0  0  0  0
  145.1630   72.3290  219.1200 C   0  0  0  0  0  0  0  0  0  0  0  0
  146.1720   72.3220  220.0860 C   0  0  0  0  0  0  0  0  0  0  0  0
  146.3220   73.4120  220.9480 C   0  0  0  0  0  0  0  0  0  0  0  0
  145.4630   74.5090  220.8450 C   0  0  0  0  0  0  0  0  0  0  0  0
  138.7830   71.6590  221.7730 N   0  0  0  0  0  0  0  0  0  0  0  0
  139.6380   70.9140  222.6810 C   0  0  0  0  0  0  0  0  0  0  0  0
  138.7620   70.5680  223.8780 C   0  0  0  0  0  0  0  0  0  0  0  0
  137.5480   71.4860  223.7860 C   0  0  0  0  0  0  0  0  0  0  0  0
  137.4710   71.9300  222.3330 C   0  0  0  0  0  0  0  0  0  0  0  0
  140.6026   70.6943  219.8146 H   0  0  0  0  0  0  0  0  0  0  0  0
  140.5938   72.2659  218.9011 H   0  0  0  0  0  0  0  0  0  0  0  0
  140.5285   77.5650  219.8353 H   0  0  0  0  0  0  0  0  0  0  0  0
  139.1657   77.6283  221.0120 H   0  0  0  0  0  0  0  0  0  0  0  0
  141.7270   79.5650  220.0891 H   0  0  0  0  0  0  0  0  0  0  0  0
  143.0746   81.0974  221.5270 H   0  0  0  0  0  0  0  0  0  0  0  0
  143.1574   80.7458  223.9966 H   0  0  0  0  0  0  0  0  0  0  0  0
  141.8895   78.8603  225.0342 H   0  0  0  0  0  0  0  0  0  0  0  0
  140.5360   77.3265  223.6046 H   0  0  0  0  0  0  0  0  0  0  0  0
  142.1113   74.3947  218.8311 H   0  0  0  0  0  0  0  0  0  0  0  0
  141.6442   76.1452  218.8344 H   0  0  0  0  0  0  0  0  0  0  0  0
  143.9369   76.3507  218.9065 H   0  0  0  0  0  0  0  0  0  0  0  0
  143.5544   76.2762  220.6785 H   0  0  0  0  0  0  0  0  0  0  0  0
  143.5113   73.4281  218.2493 H   0  0  0  0  0  0  0  0  0  0  0  0
  145.0459   71.4709  218.4418 H   0  0  0  0  0  0  0  0  0  0  0  0
  146.8486   71.4586  220.1683 H   0  0  0  0  0  0  0  0  0  0  0  0
  147.1171   73.4061  221.7081 H   0  0  0  0  0  0  0  0  0  0  0  0
  145.5867   75.3663  221.5230 H   0  0  0  0  0  0  0  0  0  0  0  0
  140.0059   69.9974  222.1968 H   0  0  0  0  0  0  0  0  0  0  0  0
  140.5217   71.4976  222.9787 H   0  0  0  0  0  0  0  0  0  0  0  0
  138.4494   69.5144  223.8317 H   0  0  0  0  0  0  0  0  0  0  0  0
  139.3015   70.7054  224.8267 H   0  0  0  0  0  0  0  0  0  0  0  0
  136.6346   70.9422  224.0689 H   0  0  0  0  0  0  0  0  0  0  0  0
  137.6385   72.3452  224.4669 H   0  0  0  0  0  0  0  0  0  0  0  0
  136.6990   71.3584  221.7970 H   0  0  0  0  0  0  0  0  0  0  0  0
  137.2022   72.9931  222.2454 H   0  0  0  0  0  0  0  0  0  0  0  0
  1  2  2  0
  2  3  1  0
  3  4  1  0
  4  5  1  0
  5  6  2  0
  6  7  1  0
  7  8  2  0
  8  9  1  0
  9 10  1  0
 10 11  2  0
 11 12  1  0
 12 13  2  0
 13 14  1  0
 14 15  2  0
  8 16  1  0
 16 17  1  0
 17 18  1  0
 18 19  1  0
 19 20  2  0
 20 21  1  0
 21 22  2  0
 22 23  1  0
 23 24  2  0
  2 25  1  0
 25 26  1  0
 26 27  1  0
 27 28  1  0
 28 29  1  0
 16  5  1  0
 24 19  1  0
 29 25  1  0
 15 10  1  0
  3 30  1  0
  3 31  1  0
  9 32  1  0
  9 33  1  0
 11 34  1  0
 12 35  1  0
 13 36  1  0
 14 37  1  0
 15 38  1  0
 17 39  1  0
 17 40  1  0
 18 41  1  0
 18 42  1  0
 20 43  1  0
 21 44  1  0
 22 45  1  0
 23 46  1  0
 24 47  1  0
 26 48  1  0
 26 49  1  0
 27 50  1  0
 27 51  1  0
 28 52  1  0
 28 53  1  0
 29 54  1  0
 29 55  1  0
M  END
>  <UniqueID>  (35) 
18

>  <SMILES>  (35) 
O=C(CSc1nnc(Cc2ccccc2)n1CCc1ccccc1)N1CCCC1

>  <Energy>  (35) 
80.29177251831064

>  <Genealogy>  (35) 
O=C(CSc1nnc(Cc2ccccc2)n1CCc1ccccc1)N1CCCC1 (3D coordinates assigned)
O=C(CSc1nnc(Cc2ccccc2)n1CCc1ccccc1)N1CCCC1 (nonaromatic ring conformer: 80.29177251831064 kcal/mol)

>  <smiles>  (35) 
O=C(CSc1nnc(Cc2ccccc2)n1CCc1ccccc1)N1CCCC1

>  <score_type>  (35) 
oracle

>  <origin>  (35) 
autodockgpu

>  <m_score__min__energy>  (35) 
-8.1099999999999994

>  <m_primary>  (35) 
energy

>  <meeko>  (35) 
{"free_energy": -7.16, "intermolecular_energy": -9.54, "internal_energy": -2.17, "cluster_size": 4, "cluster_id": 2, "rank_in_cluster": 3}

>  <energy>  (35) 
-7.33

>  <cluster_rmsd>  (35) 
0.0

>  <rmsd>  (35) 
270.17

>  <cluster>  (35) 
5

$$$$
GPYMLVVOPJPQBB-UHFFFAOYNA-N
     RDKit          3D

 55 58  0  0  0  0  0  0  0  0999 V2000
  138.9390   68.5440  223.4650 O   0  0  0  0  0  0  0  0  0  0  0  0
  139.3200   69.7410  223.5730 C   0  0  0  0  0  0  0  0  0  0  0  0
  139.0540   70.6860  222.4360 C   0  0  0  0  0  0  0  0  0  0  0  0
  140.5840   71.1580  221.5530 S   0  0  0  0  0  0  0  0  0  0  0  0
  140.3140   72.9340  221.6340 C   0  0  0  0  0  0  0  0  0  0  0  0
  139.6800   73.5380  222.6570 N   0  0  0  0  0  0  0  0  0  0  0  0
  139.5930   74.8240  222.3490 N   0  0  0  0  0  0  0  0  0  0  0  0
  140.1620   74.9850  221.1390 C   0  0  0  0  0  0  0  0  0  0  0  0
  140.1760   76.3040  220.4200 C   0  0  0  0  0  0  0  0  0  0  0  0
  140.8870   77.3390  221.2470 C   0  0  0  0  0  0  0  0  0  0  0  0
  140.8640   77.2610  222.6500 C   0  0  0  0  0  0  0  0  0  0  0  0
  141.5000   78.2390  223.4210 C   0  0  0  0  0  0  0  0  0  0  0  0
  142.1540   79.3060  222.7980 C   0  0  0  0  0  0  0  0  0  0  0  0
  142.1710   79.3970  221.4030 C   0  0  0  0  0  0  0  0  0  0  0  0
  141.5380   78.4200  220.6290 C   0  0  0  0  0  0  0  0  0  0  0  0
  140.6200   73.8080  220.6530 N   0  0  0  0  0  0  0  0  0  0  0  0
  141.2030   73.5100  219.3390 C   0  0  0  0  0  0  0  0  0  0  0  0
  142.2890   72.4330  219.4360 C   0  0  0  0  0  0  0  0  0  0  0  0
  143.5950   72.9980  219.9240 C   0  0  0  0  0  0  0  0  0  0  0  0
  143.7850   74.3900  219.9830 C   0  0  0  0  0  0  0  0  0  0  0  0
  144.9770   74.9170  220.4880 C   0  0  0  0  0  0  0  0  0  0  0  0
  145.9850   74.0630  220.9420 C   0  0  0  0  0  0  0  0  0  0  0  0
  145.8020   72.6780  220.8910 C   0  0  0  0  0  0  0  0  0  0  0  0
  144.6120   72.1470  220.3870 C   0  0  0  0  0  0  0  0  0  0  0  0
  140.0010   70.1670  224.7680 N   0  0  0  0  0  0  0  0  0  0  0  0
  140.3790   71.5400  225.0560 C   0  0  0  0  0  0  0  0  0  0  0  0
  141.1240   71.4890  226.3840 C   0  0  0  0  0  0  0  0  0  0  0  0
  140.7840   70.1380  227.0030 C   0  0  0  0  0  0  0  0  0  0  0  0
  140.3270   69.2560  225.8510 C   0  0  0  0  0  0  0  0  0  0  0  0
  138.3707   70.1996  221.7243 H   0  0  0  0  0  0  0  0  0  0  0  0
  138.6119   71.6015  222.8560 H   0  0  0  0  0  0  0  0  0  0  0  0
  140.6962   76.1877  219.4578 H   0  0  0  0  0  0  0  0  0  0  0  0
  139.1396   76.6308  220.2497 H   0  0  0  0  0  0  0  0  0  0  0  0
  140.3435   76.4271  223.1437 H   0  0  0  0  0  0  0  0  0  0  0  0
  141.4857   78.1687  224.5187 H   0  0  0  0  0  0  0  0  0  0  0  0
  142.6553   80.0740  223.4054 H   0  0  0  0  0  0  0  0  0  0  0  0
  142.6832   80.2386  220.9137 H   0  0  0  0  0  0  0  0  0  0  0  0
  141.5496   78.4978  219.5318 H   0  0  0  0  0  0  0  0  0  0  0  0
  140.4073   73.1554  218.6673 H   0  0  0  0  0  0  0  0  0  0  0  0
  141.6639   74.4299  218.9499 H   0  0  0  0  0  0  0  0  0  0  0  0
  141.9551   71.6528  220.1358 H   0  0  0  0  0  0  0  0  0  0  0  0
  142.4505   72.0191  218.4297 H   0  0  0  0  0  0  0  0  0  0  0  0
  142.9926   75.0667  219.6304 H   0  0  0  0  0  0  0  0  0  0  0  0
  145.1217   76.0067  220.5280 H   0  0  0  0  0  0  0  0  0  0  0  0
  146.9221   74.4801  221.3394 H   0  0  0  0  0  0  0  0  0  0  0  0
  146.5958   72.0055  221.2481 H   0  0  0  0  0  0  0  0  0  0  0  0
  144.4708   71.0566  220.3526 H   0  0  0  0  0  0  0  0  0  0  0  0
  141.0330   71.9327  224.2635 H   0  0  0  0  0  0  0  0  0  0  0  0
  139.5019   72.2020  225.1061 H   0  0  0  0  0  0  0  0  0  0  0  0
  142.2082   71.5716  226.2178 H   0  0  0  0  0  0  0  0  0  0  0  0
  140.8316   72.3199  227.0429 H   0  0  0  0  0  0  0  0  0  0  0  0
  141.6713   69.7050  227.4880 H   0  0  0  0  0  0  0  0  0  0  0  0
  140.0054   70.2312  227.7744 H   0  0  0  0  0  0  0  0  0  0  0  0
  141.1332   68.5718  225.5478 H   0  0  0  0  0  0  0  0  0  0  0  0
  139.4654   68.6327  226.1322 H   0  0  0  0  0  0  0  0  0  0  0  0
  1  2  2  0
  2  3  1  0
  3  4  1  0
  4  5  1  0
  5  6  2  0
  6  7  1  0
  7  8  2  0
  8  9  1  0
  9 10  1  0
 10 11  2  0
 11 12  1  0
 12 13  2  0
 13 14  1  0
 14 15  2  0
  8 16  1  0
 16 17  1  0
 17 18  1  0
 18 19  1  0
 19 20  2  0
 20 21  1  0
 21 22  2  0
 22 23  1  0
 23 24  2  0
  2 25  1  0
 25 26  1  0
 26 27  1  0
 27 28  1  0
 28 29  1  0
 16  5  1  0
 24 19  1  0
 29 25  1  0
 15 10  1  0
  3 30  1  0
  3 31  1  0
  9 32  1  0
  9 33  1  0
 11 34  1  0
 12 35  1  0
 13 36  1  0
 14 37  1  0
 15 38  1  0
 17 39  1  0
 17 40  1  0
 18 41  1  0
 18 42  1  0
 20 43  1  0
 21 44  1  0
 22 45  1  0
 23 46  1  0
 24 47  1  0
 26 48  1  0
 26 49  1  0
 27 50  1  0
 27 51  1  0
 28 52  1  0
 28 53  1  0
 29 54  1  0
 29 55  1  0
M  END
>  <UniqueID>  (36) 
18

>  <SMILES>  (36) 
O=C(CSc1nnc(Cc2ccccc2)n1CCc1ccccc1)N1CCCC1

>  <Energy>  (36) 
80.29177251831064

>  <Genealogy>  (36) 
O=C(CSc1nnc(Cc2ccccc2)n1CCc1ccccc1)N1CCCC1 (3D coordinates assigned)
O=C(CSc1nnc(Cc2ccccc2)n1CCc1ccccc1)N1CCCC1 (nonaromatic ring conformer: 80.29177251831064 kcal/mol)

>  <smiles>  (36) 
O=C(CSc1nnc(Cc2ccccc2)n1CCc1ccccc1)N1CCCC1

>  <score_type>  (36) 
oracle

>  <origin>  (36) 
autodockgpu

>  <m_score__min__energy>  (36) 
-8.1099999999999994

>  <m_primary>  (36) 
energy

>  <meeko>  (36) 
{"free_energy": -7.65, "intermolecular_energy": -10.03, "internal_energy": -1.61, "cluster_size": 4, "cluster_id": 2, "rank_in_cluster": 2}

>  <energy>  (36) 
-7.33

>  <cluster_rmsd>  (36) 
0.87

>  <rmsd>  (36) 
270.02

>  <cluster>  (36) 
5

$$$$
GPYMLVVOPJPQBB-UHFFFAOYNA-N
     RDKit          3D

 55 58  0  0  0  0  0  0  0  0999 V2000
  138.4900   77.4480  222.9930 O   0  0  0  0  0  0  0  0  0  0  0  0
  139.5740   77.4740  222.3520 C   0  0  0  0  0  0  0  0  0  0  0  0
  139.7850   76.4740  221.2520 C   0  0  0  0  0  0  0  0  0  0  0  0
  138.3780   75.3170  221.0860 S   0  0  0  0  0  0  0  0  0  0  0  0
  139.1610   73.9370  221.9310 C   0  0  0  0  0  0  0  0  0  0  0  0
  140.4850   73.8670  222.1600 N   0  0  0  0  0  0  0  0  0  0  0  0
  140.7160   72.6910  222.7250 N   0  0  0  0  0  0  0  0  0  0  0  0
  139.5330   72.0550  222.8220 C   0  0  0  0  0  0  0  0  0  0  0  0
  139.4090   70.6490  223.3390 C   0  0  0  0  0  0  0  0  0  0  0  0
  139.7630   70.6010  224.8000 C   0  0  0  0  0  0  0  0  0  0  0  0
  140.6790   71.5220  225.3360 C   0  0  0  0  0  0  0  0  0  0  0  0
  141.0320   71.4590  226.6880 C   0  0  0  0  0  0  0  0  0  0  0  0
  140.4820   70.4710  227.5100 C   0  0  0  0  0  0  0  0  0  0  0  0
  139.5800   69.5440  226.9810 C   0  0  0  0  0  0  0  0  0  0  0  0
  139.2230   69.6040  225.6310 C   0  0  0  0  0  0  0  0  0  0  0  0
  138.5280   72.8100  222.3200 N   0  0  0  0  0  0  0  0  0  0  0  0
  137.1140   72.4650  222.1280 C   0  0  0  0  0  0  0  0  0  0  0  0
  136.4050   72.2330  223.4650 C   0  0  0  0  0  0  0  0  0  0  0  0
  135.8110   73.5030  224.0120 C   0  0  0  0  0  0  0  0  0  0  0  0
  136.1350   74.7410  223.4310 C   0  0  0  0  0  0  0  0  0  0  0  0
  135.5430   75.9170  223.9020 C   0  0  0  0  0  0  0  0  0  0  0  0
  134.6200   75.8660  224.9500 C   0  0  0  0  0  0  0  0  0  0  0  0
  134.2890   74.6380  225.5290 C   0  0  0  0  0  0  0  0  0  0  0  0
  134.8780   73.4610  225.0620 C   0  0  0  0  0  0  0  0  0  0  0  0
  140.5780   78.4490  222.6910 N   0  0  0  0  0  0  0  0  0  0  0  0
  141.8110   78.6540  221.9500 C   0  0  0  0  0  0  0  0  0  0  0  0
  142.5740   79.7280  222.7140 C   0  0  0  0  0  0  0  0  0  0  0  0
  141.5560   80.3870  223.6390 C   0  0  0  0  0  0  0  0  0  0  0  0
  140.4230   79.3830  223.7920 C   0  0  0  0  0  0  0  0  0  0  0  0
  139.9125   77.0144  220.3024 H   0  0  0  0  0  0  0  0  0  0  0  0
  140.6788   75.8832  221.5013 H   0  0  0  0  0  0  0  0  0  0  0  0
  138.3739   70.3020  223.2041 H   0  0  0  0  0  0  0  0  0  0  0  0
  140.0983   69.9986  222.7806 H   0  0  0  0  0  0  0  0  0  0  0  0
  141.1201   72.2954  224.6900 H   0  0  0  0  0  0  0  0  0  0  0  0
  141.7430   72.1875  227.1048 H   0  0  0  0  0  0  0  0  0  0  0  0
  140.7593   70.4233  228.5734 H   0  0  0  0  0  0  0  0  0  0  0  0
  139.1501   68.7655  227.6284 H   0  0  0  0  0  0  0  0  0  0  0  0
  138.5172   68.8686  225.2174 H   0  0  0  0  0  0  0  0  0  0  0  0
  136.6143   73.2886  221.5969 H   0  0  0  0  0  0  0  0  0  0  0  0
  137.0627   71.5338  221.5447 H   0  0  0  0  0  0  0  0  0  0  0  0
  135.5998   71.4981  223.3179 H   0  0  0  0  0  0  0  0  0  0  0  0
  137.1494   71.8658  224.1868 H   0  0  0  0  0  0  0  0  0  0  0  0
  136.8572   74.7850  222.6024 H   0  0  0  0  0  0  0  0  0  0  0  0
  135.8042   76.8838  223.4469 H   0  0  0  0  0  0  0  0  0  0  0  0
  134.1543   76.7918  225.3189 H   0  0  0  0  0  0  0  0  0  0  0  0
  133.5630   74.5983  226.3544 H   0  0  0  0  0  0  0  0  0  0  0  0
  134.6104   72.4965  225.5182 H   0  0  0  0  0  0  0  0  0  0  0  0
  142.3949   77.7226  221.9108 H   0  0  0  0  0  0  0  0  0  0  0  0
  141.6158   78.9551  220.9102 H   0  0  0  0  0  0  0  0  0  0  0  0
  143.3871   79.2754  223.3006 H   0  0  0  0  0  0  0  0  0  0  0  0
  143.0327   80.4594  222.0323 H   0  0  0  0  0  0  0  0  0  0  0  0
  142.0108   80.6031  224.6170 H   0  0  0  0  0  0  0  0  0  0  0  0
  141.1970   81.3429  223.2300 H   0  0  0  0  0  0  0  0  0  0  0  0
  140.5027   78.8578  224.7552 H   0  0  0  0  0  0  0  0  0  0  0  0
  139.4388   79.8739  223.7740 H   0  0  0  0  0  0  0  0  0  0  0  0
  1  2  2  0
  2  3  1  0
  3  4  1  0
  4  5  1  0
  5  6  2  0
  6  7  1  0
  7  8  2  0
  8  9  1  0
  9 10  1  0
 10 11  2  0
 11 12  1  0
 12 13  2  0
 13 14  1  0
 14 15  2  0
  8 16  1  0
 16 17  1  0
 17 18  1  0
 18 19  1  0
 19 20  2  0
 20 21  1  0
 21 22  2  0
 22 23  1  0
 23 24  2  0
  2 25  1  0
 25 26  1  0
 26 27  1  0
 27 28  1  0
 28 29  1  0
 16  5  1  0
 24 19  1  0
 29 25  1  0
 15 10  1  0
  3 30  1  0
  3 31  1  0
  9 32  1  0
  9 33  1  0
 11 34  1  0
 12 35  1  0
 13 36  1  0
 14 37  1  0
 15 38  1  0
 17 39  1  0
 17 40  1  0
 18 41  1  0
 18 42  1  0
 20 43  1  0
 21 44  1  0
 22 45  1  0
 23 46  1  0
 24 47  1  0
 26 48  1  0
 26 49  1  0
 27 50  1  0
 27 51  1  0
 28 52  1  0
 28 53  1  0
 29 54  1  0
 29 55  1  0
M  END
>  <UniqueID>  (37) 
18

>  <SMILES>  (37) 
O=C(CSc1nnc(Cc2ccccc2)n1CCc1ccccc1)N1CCCC1

>  <Energy>  (37) 
80.29177251831064

>  <Genealogy>  (37) 
O=C(CSc1nnc(Cc2ccccc2)n1CCc1ccccc1)N1CCCC1 (3D coordinates assigned)
O=C(CSc1nnc(Cc2ccccc2)n1CCc1ccccc1)N1CCCC1 (nonaromatic ring conformer: 80.29177251831064 kcal/mol)

>  <smiles>  (37) 
O=C(CSc1nnc(Cc2ccccc2)n1CCc1ccccc1)N1CCCC1

>  <score_type>  (37) 
oracle

>  <origin>  (37) 
autodockgpu

>  <m_score__min__energy>  (37) 
-8.1099999999999994

>  <m_primary>  (37) 
energy

>  <meeko>  (37) 
{"free_energy": -7.86, "intermolecular_energy": -10.24, "internal_energy": -1.72, "cluster_size": 4, "cluster_id": 3, "rank_in_cluster": 4}

>  <energy>  (37) 
-7.2

>  <cluster_rmsd>  (37) 
0.0

>  <rmsd>  (37) 
270.08

>  <cluster>  (37) 
6

$$$$
GPYMLVVOPJPQBB-UHFFFAOYNA-N
     RDKit          3D

 55 58  0  0  0  0  0  0  0  0999 V2000
  138.4110   77.5070  223.0770 O   0  0  0  0  0  0  0  0  0  0  0  0
  139.4730   77.5190  222.4000 C   0  0  0  0  0  0  0  0  0  0  0  0
  139.6200   76.5350  221.2750 C   0  0  0  0  0  0  0  0  0  0  0  0
  138.2040   75.3820  221.1710 S   0  0  0  0  0  0  0  0  0  0  0  0
  139.0210   73.9990  221.9770 C   0  0  0  0  0  0  0  0  0  0  0  0
  140.3510   73.9400  222.1740 N   0  0  0  0  0  0  0  0  0  0  0  0
  140.6080   72.7590  222.7160 N   0  0  0  0  0  0  0  0  0  0  0  0
  139.4340   72.1070  222.8300 C   0  0  0  0  0  0  0  0  0  0  0  0
  139.3380   70.6930  223.3290 C   0  0  0  0  0  0  0  0  0  0  0  0
  139.7450   70.6230  224.7750 C   0  0  0  0  0  0  0  0  0  0  0  0
  139.1890   69.6470  225.6190 C   0  0  0  0  0  0  0  0  0  0  0  0
  139.5450   69.6000  226.9710 C   0  0  0  0  0  0  0  0  0  0  0  0
  140.4480   70.5310  227.4900 C   0  0  0  0  0  0  0  0  0  0  0  0
  140.9970   71.5120  226.6590 C   0  0  0  0  0  0  0  0  0  0  0  0
  140.6450   71.5620  225.3070 C   0  0  0  0  0  0  0  0  0  0  0  0
  138.4100   72.8590  222.3630 N   0  0  0  0  0  0  0  0  0  0  0  0
  136.9960   72.5010  222.1970 C   0  0  0  0  0  0  0  0  0  0  0  0
  136.3460   72.1410  223.5370 C   0  0  0  0  0  0  0  0  0  0  0  0
  135.5960   73.3050  224.1260 C   0  0  0  0  0  0  0  0  0  0  0  0
  134.7040   73.1020  225.1940 C   0  0  0  0  0  0  0  0  0  0  0  0
  134.0480   74.1890  225.7790 C   0  0  0  0  0  0  0  0  0  0  0  0
  134.2800   75.4840  225.3090 C   0  0  0  0  0  0  0  0  0  0  0  0
  135.1690   75.6940  224.2510 C   0  0  0  0  0  0  0  0  0  0  0  0
  135.8270   74.6100  223.6630 C   0  0  0  0  0  0  0  0  0  0  0  0
  140.5140   78.4610  222.7220 N   0  0  0  0  0  0  0  0  0  0  0  0
  141.7260   78.6480  221.9430 C   0  0  0  0  0  0  0  0  0  0  0  0
  142.5420   79.6880  222.7000 C   0  0  0  0  0  0  0  0  0  0  0  0
  141.5740   80.3540  223.6720 C   0  0  0  0  0  0  0  0  0  0  0  0
  140.4210   79.3760  223.8450 C   0  0  0  0  0  0  0  0  0  0  0  0
  139.6950   77.0893  220.3278 H   0  0  0  0  0  0  0  0  0  0  0  0
  140.5252   75.9396  221.4651 H   0  0  0  0  0  0  0  0  0  0  0  0
  138.3009   70.3412  223.2261 H   0  0  0  0  0  0  0  0  0  0  0  0
  140.0113   70.0569  222.7357 H   0  0  0  0  0  0  0  0  0  0  0  0
  138.4714   68.9175  225.2153 H   0  0  0  0  0  0  0  0  0  0  0  0
  139.1134   68.8290  227.6262 H   0  0  0  0  0  0  0  0  0  0  0  0
  140.7272   70.4922  228.5533 H   0  0  0  0  0  0  0  0  0  0  0  0
  141.7067   72.2454  227.0694 H   0  0  0  0  0  0  0  0  0  0  0  0
  141.0740   72.3391  224.6573 H   0  0  0  0  0  0  0  0  0  0  0  0
  136.4602   73.3556  221.7582 H   0  0  0  0  0  0  0  0  0  0  0  0
  136.9380   71.6219  221.5384 H   0  0  0  0  0  0  0  0  0  0  0  0
  135.6445   71.3084  223.3799 H   0  0  0  0  0  0  0  0  0  0  0  0
  137.1445   71.8588  224.2390 H   0  0  0  0  0  0  0  0  0  0  0  0
  134.5218   72.0845  225.5703 H   0  0  0  0  0  0  0  0  0  0  0  0
  133.3477   74.0244  226.6111 H   0  0  0  0  0  0  0  0  0  0  0  0
  133.7633   76.3380  225.7713 H   0  0  0  0  0  0  0  0  0  0  0  0
  135.3510   76.7137  223.8807 H   0  0  0  0  0  0  0  0  0  0  0  0
  136.5291   74.7803  222.8335 H   0  0  0  0  0  0  0  0  0  0  0  0
  142.2837   77.7029  221.8673 H   0  0  0  0  0  0  0  0  0  0  0  0
  141.5040   78.9731  220.9158 H   0  0  0  0  0  0  0  0  0  0  0  0
  143.3630   79.2041  223.2493 H   0  0  0  0  0  0  0  0  0  0  0  0
  142.9952   80.4209  222.0163 H   0  0  0  0  0  0  0  0  0  0  0  0
  142.0675   80.5389  224.6375 H   0  0  0  0  0  0  0  0  0  0  0  0
  141.2263   81.3268  223.2941 H   0  0  0  0  0  0  0  0  0  0  0  0
  140.5199   78.8298  224.7947 H   0  0  0  0  0  0  0  0  0  0  0  0
  139.4498   79.8919  223.8706 H   0  0  0  0  0  0  0  0  0  0  0  0
  1  2  2  0
  2  3  1  0
  3  4  1  0
  4  5  1  0
  5  6  2  0
  6  7  1  0
  7  8  2  0
  8  9  1  0
  9 10  1  0
 10 11  2  0
 11 12  1  0
 12 13  2  0
 13 14  1  0
 14 15  2  0
  8 16  1  0
 16 17  1  0
 17 18  1  0
 18 19  1  0
 19 20  2  0
 20 21  1  0
 21 22  2  0
 22 23  1  0
 23 24  2  0
  2 25  1  0
 25 26  1  0
 26 27  1  0
 27 28  1  0
 28 29  1  0
 16  5  1  0
 24 19  1  0
 29 25  1  0
 15 10  1  0
  3 30  1  0
  3 31  1  0
  9 32  1  0
  9 33  1  0
 11 34  1  0
 12 35  1  0
 13 36  1  0
 14 37  1  0
 15 38  1  0
 17 39  1  0
 17 40  1  0
 18 41  1  0
 18 42  1  0
 20 43  1  0
 21 44  1  0
 22 45  1  0
 23 46  1  0
 24 47  1  0
 26 48  1  0
 26 49  1  0
 27 50  1  0
 27 51  1  0
 28 52  1  0
 28 53  1  0
 29 54  1  0
 29 55  1  0
M  END
>  <UniqueID>  (38) 
18

>  <SMILES>  (38) 
O=C(CSc1nnc(Cc2ccccc2)n1CCc1ccccc1)N1CCCC1

>  <Energy>  (38) 
80.29177251831064

>  <Genealogy>  (38) 
O=C(CSc1nnc(Cc2ccccc2)n1CCc1ccccc1)N1CCCC1 (3D coordinates assigned)
O=C(CSc1nnc(Cc2ccccc2)n1CCc1ccccc1)N1CCCC1 (nonaromatic ring conformer: 80.29177251831064 kcal/mol)

>  <smiles>  (38) 
O=C(CSc1nnc(Cc2ccccc2)n1CCc1ccccc1)N1CCCC1

>  <score_type>  (38) 
oracle

>  <origin>  (38) 
autodockgpu

>  <m_score__min__energy>  (38) 
-8.1099999999999994

>  <m_primary>  (38) 
energy

>  <meeko>  (38) 
{"free_energy": -7.92, "intermolecular_energy": -10.31, "internal_energy": -1.68, "cluster_size": 4, "cluster_id": 3, "rank_in_cluster": 2}

>  <energy>  (38) 
-6.92

>  <cluster_rmsd>  (38) 
0.96

>  <rmsd>  (38) 
270.06

>  <cluster>  (38) 
6

$$$$
GPYMLVVOPJPQBB-UHFFFAOYNA-N
     RDKit          3D

 55 58  0  0  0  0  0  0  0  0999 V2000
  146.2010   73.2100  219.3440 O   0  0  0  0  0  0  0  0  0  0  0  0
  145.1230   72.6950  219.7450 C   0  0  0  0  0  0  0  0  0  0  0  0
  144.0940   73.5840  220.3820 C   0  0  0  0  0  0  0  0  0  0  0  0
  142.6520   73.8680  219.2940 S   0  0  0  0  0  0  0  0  0  0  0  0
  141.5710   74.5240  220.5720 C   0  0  0  0  0  0  0  0  0  0  0  0
  141.1900   73.8160  221.6520 N   0  0  0  0  0  0  0  0  0  0  0  0
  140.3430   74.5760  222.3300 N   0  0  0  0  0  0  0  0  0  0  0  0
  140.2080   75.7310  221.6500 C   0  0  0  0  0  0  0  0  0  0  0  0
  139.2560   76.8130  222.0720 C   0  0  0  0  0  0  0  0  0  0  0  0
  140.0100   77.9540  222.6990 C   0  0  0  0  0  0  0  0  0  0  0  0
  139.3680   79.1820  222.9320 C   0  0  0  0  0  0  0  0  0  0  0  0
  140.0760   80.2530  223.4870 C   0  0  0  0  0  0  0  0  0  0  0  0
  141.4300   80.1080  223.8030 C   0  0  0  0  0  0  0  0  0  0  0  0
  142.0780   78.8930  223.5630 C   0  0  0  0  0  0  0  0  0  0  0  0
  141.3730   77.8190  223.0100 C   0  0  0  0  0  0  0  0  0  0  0  0
  140.9640   75.7290  220.5270 N   0  0  0  0  0  0  0  0  0  0  0  0
  141.0320   76.7260  219.4510 C   0  0  0  0  0  0  0  0  0  0  0  0
  142.3750   77.4630  219.4530 C   0  0  0  0  0  0  0  0  0  0  0  0
  142.2000   78.9460  219.2640 C   0  0  0  0  0  0  0  0  0  0  0  0
  142.5600   79.5500  218.0470 C   0  0  0  0  0  0  0  0  0  0  0  0
  142.3480   80.9180  217.8500 C   0  0  0  0  0  0  0  0  0  0  0  0
  141.7720   81.6900  218.8610 C   0  0  0  0  0  0  0  0  0  0  0  0
  141.4070   81.0960  220.0730 C   0  0  0  0  0  0  0  0  0  0  0  0
  141.6180   79.7290  220.2740 C   0  0  0  0  0  0  0  0  0  0  0  0
  144.9100   71.2790  219.5910 N   0  0  0  0  0  0  0  0  0  0  0  0
  143.6670   70.5950  219.9040 C   0  0  0  0  0  0  0  0  0  0  0  0
  143.9380   69.1180  219.6480 C   0  0  0  0  0  0  0  0  0  0  0  0
  145.2080   69.0650  218.8050 C   0  0  0  0  0  0  0  0  0  0  0  0
  145.9170   70.3910  219.0380 C   0  0  0  0  0  0  0  0  0  0  0  0
  143.7469   73.1124  221.3132 H   0  0  0  0  0  0  0  0  0  0  0  0
  144.5656   74.5586  220.5764 H   0  0  0  0  0  0  0  0  0  0  0  0
  138.7092   77.1797  221.1908 H   0  0  0  0  0  0  0  0  0  0  0  0
  138.5498   76.4021  222.8085 H   0  0  0  0  0  0  0  0  0  0  0  0
  138.3047   79.3015  222.6770 H   0  0  0  0  0  0  0  0  0  0  0  0
  139.5671   81.2099  223.6749 H   0  0  0  0  0  0  0  0  0  0  0  0
  141.9857   80.9504  224.2407 H   0  0  0  0  0  0  0  0  0  0  0  0
  143.1442   78.7813  223.8095 H   0  0  0  0  0  0  0  0  0  0  0  0
  141.8875   76.8659  222.8181 H   0  0  0  0  0  0  0  0  0  0  0  0
  140.9047   76.2175  218.4839 H   0  0  0  0  0  0  0  0  0  0  0  0
  140.2328   77.4642  219.6133 H   0  0  0  0  0  0  0  0  0  0  0  0
  142.8779   77.2837  220.4147 H   0  0  0  0  0  0  0  0  0  0  0  0
  142.9758   77.0804  218.6148 H   0  0  0  0  0  0  0  0  0  0  0  0
  143.0101   78.9444  217.2466 H   0  0  0  0  0  0  0  0  0  0  0  0
  142.6354   81.3867  216.8973 H   0  0  0  0  0  0  0  0  0  0  0  0
  141.6053   82.7659  218.7038 H   0  0  0  0  0  0  0  0  0  0  0  0
  140.9535   81.7050  220.8689 H   0  0  0  0  0  0  0  0  0  0  0  0
  141.3268   79.2644  221.2276 H   0  0  0  0  0  0  0  0  0  0  0  0
  143.3930   70.7585  220.9567 H   0  0  0  0  0  0  0  0  0  0  0  0
  142.8316   70.9679  219.2932 H   0  0  0  0  0  0  0  0  0  0  0  0
  144.0879   68.5862  220.5992 H   0  0  0  0  0  0  0  0  0  0  0  0
  143.0928   68.6357  219.1351 H   0  0  0  0  0  0  0  0  0  0  0  0
  145.8458   68.2282  219.1258 H   0  0  0  0  0  0  0  0  0  0  0  0
  144.9804   68.9097  217.7401 H   0  0  0  0  0  0  0  0  0  0  0  0
  146.7478   70.2630  219.7476 H   0  0  0  0  0  0  0  0  0  0  0  0
  146.3476   70.7918  218.1085 H   0  0  0  0  0  0  0  0  0  0  0  0
  1  2  2  0
  2  3  1  0
  3  4  1  0
  4  5  1  0
  5  6  2  0
  6  7  1  0
  7  8  2  0
  8  9  1  0
  9 10  1  0
 10 11  2  0
 11 12  1  0
 12 13  2  0
 13 14  1  0
 14 15  2  0
  8 16  1  0
 16 17  1  0
 17 18  1  0
 18 19  1  0
 19 20  2  0
 20 21  1  0
 21 22  2  0
 22 23  1  0
 23 24  2  0
  2 25  1  0
 25 26  1  0
 26 27  1  0
 27 28  1  0
 28 29  1  0
 16  5  1  0
 24 19  1  0
 29 25  1  0
 15 10  1  0
  3 30  1  0
  3 31  1  0
  9 32  1  0
  9 33  1  0
 11 34  1  0
 12 35  1  0
 13 36  1  0
 14 37  1  0
 15 38  1  0
 17 39  1  0
 17 40  1  0
 18 41  1  0
 18 42  1  0
 20 43  1  0
 21 44  1  0
 22 45  1  0
 23 46  1  0
 24 47  1  0
 26 48  1  0
 26 49  1  0
 27 50  1  0
 27 51  1  0
 28 52  1  0
 28 53  1  0
 29 54  1  0
 29 55  1  0
M  END
>  <UniqueID>  (39) 
18

>  <SMILES>  (39) 
O=C(CSc1nnc(Cc2ccccc2)n1CCc1ccccc1)N1CCCC1

>  <Energy>  (39) 
80.29177251831064

>  <Genealogy>  (39) 
O=C(CSc1nnc(Cc2ccccc2)n1CCc1ccccc1)N1CCCC1 (3D coordinates assigned)
O=C(CSc1nnc(Cc2ccccc2)n1CCc1ccccc1)N1CCCC1 (nonaromatic ring conformer: 80.29177251831064 kcal/mol)

>  <smiles>  (39) 
O=C(CSc1nnc(Cc2ccccc2)n1CCc1ccccc1)N1CCCC1

>  <score_type>  (39) 
oracle

>  <origin>  (39) 
autodockgpu

>  <m_score__min__energy>  (39) 
-8.1099999999999994

>  <m_primary>  (39) 
energy

>  <meeko>  (39) 
{"free_energy": -7.33, "intermolecular_energy": -9.71, "internal_energy": -2.0, "cluster_size": 2, "cluster_id": 5, "rank_in_cluster": 2}

>  <energy>  (39) 
-7.04

>  <cluster_rmsd>  (39) 
0.0

>  <rmsd>  (39) 
270.07

>  <cluster>  (39) 
7

$$$$
GPYMLVVOPJPQBB-UHFFFAOYNA-N
     RDKit          3D

 55 58  0  0  0  0  0  0  0  0999 V2000
  146.3430   73.2080  219.3410 O   0  0  0  0  0  0  0  0  0  0  0  0
  145.2610   72.7570  219.8050 C   0  0  0  0  0  0  0  0  0  0  0  0
  144.3530   73.6920  220.5500 C   0  0  0  0  0  0  0  0  0  0  0  0
  143.4660   74.8380  219.4340 S   0  0  0  0  0  0  0  0  0  0  0  0
  142.1660   75.2730  220.5960 C   0  0  0  0  0  0  0  0  0  0  0  0
  141.4490   74.3600  221.2770 N   0  0  0  0  0  0  0  0  0  0  0  0
  140.5370   75.0260  221.9710 N   0  0  0  0  0  0  0  0  0  0  0  0
  140.7010   76.3340  221.6930 C   0  0  0  0  0  0  0  0  0  0  0  0
  139.7870   77.3970  222.2340 C   0  0  0  0  0  0  0  0  0  0  0  0
  140.5860   78.5910  222.6810 C   0  0  0  0  0  0  0  0  0  0  0  0
  140.1520   79.8900  222.3640 C   0  0  0  0  0  0  0  0  0  0  0  0
  140.9090   80.9990  222.7540 C   0  0  0  0  0  0  0  0  0  0  0  0
  142.1070   80.8210  223.4500 C   0  0  0  0  0  0  0  0  0  0  0  0
  142.5510   79.5310  223.7580 C   0  0  0  0  0  0  0  0  0  0  0  0
  141.7970   78.4190  223.3720 C   0  0  0  0  0  0  0  0  0  0  0  0
  141.7160   76.5260  220.8200 N   0  0  0  0  0  0  0  0  0  0  0  0
  142.1610   77.7650  220.1700 C   0  0  0  0  0  0  0  0  0  0  0  0
  141.0380   78.4030  219.3450 C   0  0  0  0  0  0  0  0  0  0  0  0
  141.4030   79.7850  218.8770 C   0  0  0  0  0  0  0  0  0  0  0  0
  140.6020   80.8850  219.2300 C   0  0  0  0  0  0  0  0  0  0  0  0
  140.9680   82.1770  218.8420 C   0  0  0  0  0  0  0  0  0  0  0  0
  142.1370   82.3830  218.1050 C   0  0  0  0  0  0  0  0  0  0  0  0
  142.9410   81.2950  217.7540 C   0  0  0  0  0  0  0  0  0  0  0  0
  142.5790   80.0020  218.1400 C   0  0  0  0  0  0  0  0  0  0  0  0
  144.9280   71.3690  219.6160 N   0  0  0  0  0  0  0  0  0  0  0  0
  143.6630   70.7660  219.9970 C   0  0  0  0  0  0  0  0  0  0  0  0
  143.8000   69.2850  219.6670 C   0  0  0  0  0  0  0  0  0  0  0  0
  144.9970   69.1740  218.7290 C   0  0  0  0  0  0  0  0  0  0  0  0
  145.8210   70.4330  218.9560 C   0  0  0  0  0  0  0  0  0  0  0  0
  143.6135   73.0977  221.1067 H   0  0  0  0  0  0  0  0  0  0  0  0
  144.9753   74.2965  221.2263 H   0  0  0  0  0  0  0  0  0  0  0  0
  139.0824   77.7051  221.4475 H   0  0  0  0  0  0  0  0  0  0  0  0
  139.2351   76.9917  223.0949 H   0  0  0  0  0  0  0  0  0  0  0  0
  139.2142   80.0344  221.8075 H   0  0  0  0  0  0  0  0  0  0  0  0
  140.5604   82.0139  222.5122 H   0  0  0  0  0  0  0  0  0  0  0  0
  142.7009   81.6950  223.7557 H   0  0  0  0  0  0  0  0  0  0  0  0
  143.4951   79.3912  224.3049 H   0  0  0  0  0  0  0  0  0  0  0  0
  142.1531   77.4058  223.6101 H   0  0  0  0  0  0  0  0  0  0  0  0
  142.4852   78.4773  220.9430 H   0  0  0  0  0  0  0  0  0  0  0  0
  142.9903   77.5189  219.4906 H   0  0  0  0  0  0  0  0  0  0  0  0
  140.8384   77.7711  218.4670 H   0  0  0  0  0  0  0  0  0  0  0  0
  140.1474   78.4836  219.9855 H   0  0  0  0  0  0  0  0  0  0  0  0
  139.6832   80.7283  219.8141 H   0  0  0  0  0  0  0  0  0  0  0  0
  140.3346   83.0331  219.1174 H   0  0  0  0  0  0  0  0  0  0  0  0
  142.4243   83.4005  217.8013 H   0  0  0  0  0  0  0  0  0  0  0  0
  143.8607   81.4571  217.1727 H   0  0  0  0  0  0  0  0  0  0  0  0
  143.2180   79.1497  217.8655 H   0  0  0  0  0  0  0  0  0  0  0  0
  143.4801   70.9045  221.0728 H   0  0  0  0  0  0  0  0  0  0  0  0
  142.8165   71.2251  219.4654 H   0  0  0  0  0  0  0  0  0  0  0  0
  143.9774   68.7037  220.5839 H   0  0  0  0  0  0  0  0  0  0  0  0
  142.8851   68.8888  219.2023 H   0  0  0  0  0  0  0  0  0  0  0  0
  145.5903   68.2795  218.9696 H   0  0  0  0  0  0  0  0  0  0  0  0
  144.6811   69.0811  217.6794 H   0  0  0  0  0  0  0  0  0  0  0  0
  146.6889   70.2141  219.5954 H   0  0  0  0  0  0  0  0  0  0  0  0
  146.2123   70.8397  218.0118 H   0  0  0  0  0  0  0  0  0  0  0  0
  1  2  2  0
  2  3  1  0
  3  4  1  0
  4  5  1  0
  5  6  2  0
  6  7  1  0
  7  8  2  0
  8  9  1  0
  9 10  1  0
 10 11  2  0
 11 12  1  0
 12 13  2  0
 13 14  1  0
 14 15  2  0
  8 16  1  0
 16 17  1  0
 17 18  1  0
 18 19  1  0
 19 20  2  0
 20 21  1  0
 21 22  2  0
 22 23  1  0
 23 24  2  0
  2 25  1  0
 25 26  1  0
 26 27  1  0
 27 28  1  0
 28 29  1  0
 16  5  1  0
 24 19  1  0
 29 25  1  0
 15 10  1  0
  3 30  1  0
  3 31  1  0
  9 32  1  0
  9 33  1  0
 11 34  1  0
 12 35  1  0
 13 36  1  0
 14 37  1  0
 15 38  1  0
 17 39  1  0
 17 40  1  0
 18 41  1  0
 18 42  1  0
 20 43  1  0
 21 44  1  0
 22 45  1  0
 23 46  1  0
 24 47  1  0
 26 48  1  0
 26 49  1  0
 27 50  1  0
 27 51  1  0
 28 52  1  0
 28 53  1  0
 29 54  1  0
 29 55  1  0
M  END
>  <UniqueID>  (40) 
18

>  <SMILES>  (40) 
O=C(CSc1nnc(Cc2ccccc2)n1CCc1ccccc1)N1CCCC1

>  <Energy>  (40) 
80.29177251831064

>  <Genealogy>  (40) 
O=C(CSc1nnc(Cc2ccccc2)n1CCc1ccccc1)N1CCCC1 (3D coordinates assigned)
O=C(CSc1nnc(Cc2ccccc2)n1CCc1ccccc1)N1CCCC1 (nonaromatic ring conformer: 80.29177251831064 kcal/mol)

>  <smiles>  (40) 
O=C(CSc1nnc(Cc2ccccc2)n1CCc1ccccc1)N1CCCC1

>  <score_type>  (40) 
oracle

>  <origin>  (40) 
autodockgpu

>  <m_score__min__energy>  (40) 
-8.1099999999999994

>  <m_primary>  (40) 
energy

>  <meeko>  (40) 
{"free_energy": -7.33, "intermolecular_energy": -9.72, "internal_energy": -1.73, "cluster_size": 2, "cluster_id": 5, "rank_in_cluster": 1}

>  <energy>  (40) 
-6.47

>  <cluster_rmsd>  (40) 
0.0

>  <rmsd>  (40) 
270.0

>  <cluster>  (40) 
8

$$$$
AJFQHQFDLMACKV-PYCFMQQDNA-N
     RDKit          3D

 55 58  0  0  0  0  0  0  0  0999 V2000
  138.2640   73.6220  222.7540 H   0  0  0  0  0  0  0  0  0  0  0  0
  138.1500   72.6590  222.4610 O   0  0  0  0  0  0  0  0  0  0  0  0
  139.2200   71.7670  222.3790 C   0  0  0  0  0  0  0  0  0  0  0  0
  139.8770   71.6570  221.2180 C   0  0  0  0  0  0  0  0  0  0  0  0
  139.4144   71.0985  220.3909 H   0  0  0  0  0  0  0  0  0  0  0  0
  141.4940   72.3980  220.9770 S   0  0  0  0  0  0  0  0  0  0  0  0
  140.8970   74.0530  221.3330 C   0  0  0  0  0  0  0  0  0  0  0  0
  140.0380   74.3240  222.3320 N   0  0  0  0  0  0  0  0  0  0  0  0
  139.7800   75.6210  222.2790 N   0  0  0  0  0  0  0  0  0  0  0  0
  140.4890   76.1270  221.2490 C   0  0  0  0  0  0  0  0  0  0  0  0
  140.3930   77.5570  220.7890 C   0  0  0  0  0  0  0  0  0  0  0  0
  140.8467   77.6410  219.7904 H   0  0  0  0  0  0  0  0  0  0  0  0
  139.3297   77.8377  220.7652 H   0  0  0  0  0  0  0  0  0  0  0  0
  141.1040   78.4960  221.7280 C   0  0  0  0  0  0  0  0  0  0  0  0
  141.8030   79.6050  221.2250 C   0  0  0  0  0  0  0  0  0  0  0  0
  141.8087   79.8044  220.1433 H   0  0  0  0  0  0  0  0  0  0  0  0
  142.4920   80.4570  222.0940 C   0  0  0  0  0  0  0  0  0  0  0  0
  143.0329   81.3280  221.6954 H   0  0  0  0  0  0  0  0  0  0  0  0
  142.4940   80.2030  223.4680 C   0  0  0  0  0  0  0  0  0  0  0  0
  143.0324   80.8766  224.1509 H   0  0  0  0  0  0  0  0  0  0  0  0
  141.8120   79.0930  223.9750 C   0  0  0  0  0  0  0  0  0  0  0  0
  141.8181   78.8912  225.0563 H   0  0  0  0  0  0  0  0  0  0  0  0
  141.1220   78.2390  223.1090 C   0  0  0  0  0  0  0  0  0  0  0  0
  140.5915   77.3630  223.5105 H   0  0  0  0  0  0  0  0  0  0  0  0
  141.1950   75.1600  220.6220 N   0  0  0  0  0  0  0  0  0  0  0  0
  142.0230   75.2700  219.4150 C   0  0  0  0  0  0  0  0  0  0  0  0
  142.0370   74.2967  218.9026 H   0  0  0  0  0  0  0  0  0  0  0  0
  141.5882   76.0488  218.7712 H   0  0  0  0  0  0  0  0  0  0  0  0
  143.4630   75.6760  219.7490 C   0  0  0  0  0  0  0  0  0  0  0  0
  143.8415   76.3287  218.9485 H   0  0  0  0  0  0  0  0  0  0  0  0
  143.4503   76.1960  220.7182 H   0  0  0  0  0  0  0  0  0  0  0  0
  144.3760   74.4860  219.8760 C   0  0  0  0  0  0  0  0  0  0  0  0
  144.1980   73.3610  219.0540 C   0  0  0  0  0  0  0  0  0  0  0  0
  143.3918   73.3521  218.3057 H   0  0  0  0  0  0  0  0  0  0  0  0
  145.0400   72.2530  219.1820 C   0  0  0  0  0  0  0  0  0  0  0  0
  144.8992   71.3780  218.5304 H   0  0  0  0  0  0  0  0  0  0  0  0
  146.0610   72.2550  220.1370 C   0  0  0  0  0  0  0  0  0  0  0  0
  146.7265   71.3845  220.2336 H   0  0  0  0  0  0  0  0  0  0  0  0
  146.2350   73.3650  220.9690 C   0  0  0  0  0  0  0  0  0  0  0  0
  147.0336   73.3638  221.7255 H   0  0  0  0  0  0  0  0  0  0  0  0
  145.3970   74.4760  220.8420 C   0  0  0  0  0  0  0  0  0  0  0  0
  145.5369   75.3460  221.5005 H   0  0  0  0  0  0  0  0  0  0  0  0
  139.6070   70.9890  223.5350 N   0  0  0  0  0  0  0  0  0  0  0  0
  139.1750   69.6220  223.7950 C   0  0  0  0  0  0  0  0  0  0  0  0
  138.0771   69.5567  223.7741 H   0  0  0  0  0  0  0  0  0  0  0  0
  139.5555   68.9254  223.0335 H   0  0  0  0  0  0  0  0  0  0  0  0
  139.7000   69.2780  225.1810 C   0  0  0  0  0  0  0  0  0  0  0  0
  138.8923   69.3465  225.9246 H   0  0  0  0  0  0  0  0  0  0  0  0
  140.0918   68.2510  225.2225 H   0  0  0  0  0  0  0  0  0  0  0  0
  140.7860   70.3060  225.4800 C   0  0  0  0  0  0  0  0  0  0  0  0
  140.7415   70.6146  226.5349 H   0  0  0  0  0  0  0  0  0  0  0  0
  141.7915   69.8957  225.3049 H   0  0  0  0  0  0  0  0  0  0  0  0
  140.4970   71.4910  224.5680 C   0  0  0  0  0  0  0  0  0  0  0  0
  140.0101   72.2993  225.1332 H   0  0  0  0  0  0  0  0  0  0  0  0
  141.4210   71.9060  224.1391 H   0  0  0  0  0  0  0  0  0  0  0  0
  1  2  1  0
  2  3  1  0
  3  4  2  0
  4  5  1  0
  4  6  1  0
  6  7  1  0
  7  8  2  0
  8  9  1  0
  9 10  2  0
 10 11  1  0
 11 12  1  0
 11 13  1  0
 11 14  1  0
 14 15  2  0
 15 16  1  0
 15 17  1  0
 17 18  1  0
 17 19  2  0
 19 20  1  0
 19 21  1  0
 21 22  1  0
 21 23  2  0
 23 24  1  0
 10 25  1  0
 25 26  1  0
 26 27  1  0
 26 28  1  0
 26 29  1  0
 29 30  1  0
 29 31  1  0
 29 32  1  0
 32 33  2  0
 33 34  1  0
 33 35  1  0
 35 36  1  0
 35 37  2  0
 37 38  1  0
 37 39  1  0
 39 40  1  0
 39 41  2  0
 41 42  1  0
  3 43  1  0
 43 44  1  0
 44 45  1  0
 44 46  1  0
 44 47  1  0
 47 48  1  0
 47 49  1  0
 47 50  1  0
 50 51  1  0
 50 52  1  0
 50 53  1  0
 53 54  1  0
 53 55  1  0
 25  7  1  0
 41 32  1  0
 53 43  1  0
 23 14  1  0
M  END
>  <UniqueID>  (41) 
19

>  <SMILES>  (41) 
O/C(=C\Sc1nnc(Cc2ccccc2)n1CCc1ccccc1)N1CCCC1

>  <Energy>  (41) 
80.57087443506919

>  <Genealogy>  (41) 
OC(=CSc1nnc(Cc2ccccc2)n1CCc1ccccc1)N1CCCC1 (tautomer)
O/C(=C\Sc1nnc(Cc2ccccc2)n1CCc1ccccc1)N1CCCC1 (cis-trans isomerization)
O/C(=C\Sc1nnc(Cc2ccccc2)n1CCc1ccccc1)N1CCCC1 (3D coordinates assigned)
O/C(=C\Sc1nnc(Cc2ccccc2)n1CCc1ccccc1)N1CCCC1 (nonaromatic ring conformer: 80.57087443506919 kcal/mol)

>  <smiles>  (41) 
O=C(CSc1nnc(Cc2ccccc2)n1CCc1ccccc1)N1CCCC1

>  <score_type>  (41) 
oracle

>  <origin>  (41) 
autodockgpu

>  <m_score__min__energy>  (41) 
-8.5099999999999998

>  <m_primary>  (41) 
energy

>  <meeko>  (41) 
{"free_energy": -8.13, "intermolecular_energy": -11.11, "internal_energy": -2.31, "cluster_size": 7, "cluster_id": 1, "rank_in_cluster": 5}

>  <energy>  (41) 
-8.51

>  <cluster_rmsd>  (41) 
0.0

>  <rmsd>  (41) 
271.8

>  <cluster>  (41) 
1

$$$$
AJFQHQFDLMACKV-PYCFMQQDNA-N
     RDKit          3D

 55 58  0  0  0  0  0  0  0  0999 V2000
  138.9980   73.8360  223.0510 H   0  0  0  0  0  0  0  0  0  0  0  0
  139.5410   74.6110  222.6910 O   0  0  0  0  0  0  0  0  0  0  0  0
  139.5170   74.9850  221.3460 C   0  0  0  0  0  0  0  0  0  0  0  0
  138.5640   74.4750  220.5550 C   0  0  0  0  0  0  0  0  0  0  0  0
  137.7449   75.1252  220.2139 H   0  0  0  0  0  0  0  0  0  0  0  0
  138.5910   72.7560  220.0380 S   0  0  0  0  0  0  0  0  0  0  0  0
  138.9930   72.1650  221.6850 C   0  0  0  0  0  0  0  0  0  0  0  0
  138.1230   72.2040  222.7100 N   0  0  0  0  0  0  0  0  0  0  0  0
  138.7580   71.7360  223.7730 N   0  0  0  0  0  0  0  0  0  0  0  0
  140.0080   71.4120  223.3800 C   0  0  0  0  0  0  0  0  0  0  0  0
  141.0840   70.9350  224.3190 C   0  0  0  0  0  0  0  0  0  0  0  0
  141.4688   69.9695  223.9587 H   0  0  0  0  0  0  0  0  0  0  0  0
  141.8799   71.6940  224.3412 H   0  0  0  0  0  0  0  0  0  0  0  0
  140.5640   70.7600  225.7220 C   0  0  0  0  0  0  0  0  0  0  0  0
  140.8050   71.7440  226.6940 C   0  0  0  0  0  0  0  0  0  0  0  0
  141.3514   72.6594  226.4230 H   0  0  0  0  0  0  0  0  0  0  0  0
  140.3530   71.5650  228.0060 C   0  0  0  0  0  0  0  0  0  0  0  0
  140.5381   72.3425  228.7618 H   0  0  0  0  0  0  0  0  0  0  0  0
  139.6670   70.4000  228.3570 C   0  0  0  0  0  0  0  0  0  0  0  0
  139.3087   70.2618  229.3878 H   0  0  0  0  0  0  0  0  0  0  0  0
  139.4360   69.4100  227.3980 C   0  0  0  0  0  0  0  0  0  0  0  0
  138.8996   68.4909  227.6764 H   0  0  0  0  0  0  0  0  0  0  0  0
  139.8850   69.5850  226.0860 C   0  0  0  0  0  0  0  0  0  0  0  0
  139.7062   68.8004  225.3361 H   0  0  0  0  0  0  0  0  0  0  0  0
  140.1920   71.6840  222.0700 N   0  0  0  0  0  0  0  0  0  0  0  0
  141.4190   71.5590  221.2740 C   0  0  0  0  0  0  0  0  0  0  0  0
  142.2120   71.1330  221.9062 H   0  0  0  0  0  0  0  0  0  0  0  0
  141.2050   70.9056  220.4153 H   0  0  0  0  0  0  0  0  0  0  0  0
  141.8880   72.9160  220.7360 C   0  0  0  0  0  0  0  0  0  0  0  0
  141.3854   73.1094  219.7768 H   0  0  0  0  0  0  0  0  0  0  0  0
  141.6332   73.6813  221.4839 H   0  0  0  0  0  0  0  0  0  0  0  0
  143.3770   72.9600  220.5200 C   0  0  0  0  0  0  0  0  0  0  0  0
  144.0580   71.8360  220.0220 C   0  0  0  0  0  0  0  0  0  0  0  0
  143.4992   70.9200  219.7799 H   0  0  0  0  0  0  0  0  0  0  0  0
  145.4420   71.8770  219.8330 C   0  0  0  0  0  0  0  0  0  0  0  0
  145.9682   70.9965  219.4356 H   0  0  0  0  0  0  0  0  0  0  0  0
  146.1590   73.0350  220.1480 C   0  0  0  0  0  0  0  0  0  0  0  0
  147.2478   73.0672  219.9947 H   0  0  0  0  0  0  0  0  0  0  0  0
  145.4910   74.1520  220.6580 C   0  0  0  0  0  0  0  0  0  0  0  0
  146.0560   75.0608  220.9126 H   0  0  0  0  0  0  0  0  0  0  0  0
  144.1060   74.1160  220.8450 C   0  0  0  0  0  0  0  0  0  0  0  0
  143.5848   74.9967  221.2484 H   0  0  0  0  0  0  0  0  0  0  0  0
  140.5020   75.9100  220.8320 N   0  0  0  0  0  0  0  0  0  0  0  0
  141.1090   75.8220  219.5100 C   0  0  0  0  0  0  0  0  0  0  0  0
  141.5583   74.8292  219.3601 H   0  0  0  0  0  0  0  0  0  0  0  0
  140.3649   75.9646  218.7125 H   0  0  0  0  0  0  0  0  0  0  0  0
  142.1820   76.9000  219.4740 C   0  0  0  0  0  0  0  0  0  0  0  0
  143.1772   76.4554  219.6221 H   0  0  0  0  0  0  0  0  0  0  0  0
  142.2014   77.4206  218.5052 H   0  0  0  0  0  0  0  0  0  0  0  0
  141.8500   77.8530  220.6180 C   0  0  0  0  0  0  0  0  0  0  0  0
  142.7712   78.1895  221.1161 H   0  0  0  0  0  0  0  0  0  0  0  0
  141.3298   78.7529  220.2580 H   0  0  0  0  0  0  0  0  0  0  0  0
  140.9860   77.0540  221.5840 C   0  0  0  0  0  0  0  0  0  0  0  0
  141.5832   76.7207  222.4455 H   0  0  0  0  0  0  0  0  0  0  0  0
  140.1560   77.6586  221.9783 H   0  0  0  0  0  0  0  0  0  0  0  0
  1  2  1  0
  2  3  1  0
  3  4  2  0
  4  5  1  0
  4  6  1  0
  6  7  1  0
  7  8  2  0
  8  9  1  0
  9 10  2  0
 10 11  1  0
 11 12  1  0
 11 13  1  0
 11 14  1  0
 14 15  2  0
 15 16  1  0
 15 17  1  0
 17 18  1  0
 17 19  2  0
 19 20  1  0
 19 21  1  0
 21 22  1  0
 21 23  2  0
 23 24  1  0
 10 25  1  0
 25 26  1  0
 26 27  1  0
 26 28  1  0
 26 29  1  0
 29 30  1  0
 29 31  1  0
 29 32  1  0
 32 33  2  0
 33 34  1  0
 33 35  1  0
 35 36  1  0
 35 37  2  0
 37 38  1  0
 37 39  1  0
 39 40  1  0
 39 41  2  0
 41 42  1  0
  3 43  1  0
 43 44  1  0
 44 45  1  0
 44 46  1  0
 44 47  1  0
 47 48  1  0
 47 49  1  0
 47 50  1  0
 50 51  1  0
 50 52  1  0
 50 53  1  0
 53 54  1  0
 53 55  1  0
 25  7  1  0
 41 32  1  0
 53 43  1  0
 23 14  1  0
M  END
>  <UniqueID>  (42) 
19

>  <SMILES>  (42) 
O/C(=C\Sc1nnc(Cc2ccccc2)n1CCc1ccccc1)N1CCCC1

>  <Energy>  (42) 
80.57087443506919

>  <Genealogy>  (42) 
OC(=CSc1nnc(Cc2ccccc2)n1CCc1ccccc1)N1CCCC1 (tautomer)
O/C(=C\Sc1nnc(Cc2ccccc2)n1CCc1ccccc1)N1CCCC1 (cis-trans isomerization)
O/C(=C\Sc1nnc(Cc2ccccc2)n1CCc1ccccc1)N1CCCC1 (3D coordinates assigned)
O/C(=C\Sc1nnc(Cc2ccccc2)n1CCc1ccccc1)N1CCCC1 (nonaromatic ring conformer: 80.57087443506919 kcal/mol)

>  <smiles>  (42) 
O=C(CSc1nnc(Cc2ccccc2)n1CCc1ccccc1)N1CCCC1

>  <score_type>  (42) 
oracle

>  <origin>  (42) 
autodockgpu

>  <m_score__min__energy>  (42) 
-8.5099999999999998

>  <m_primary>  (42) 
energy

>  <meeko>  (42) 
{"free_energy": -6.77, "intermolecular_energy": -9.76, "internal_energy": -3.1, "cluster_size": 1, "cluster_id": 4, "rank_in_cluster": 1}

>  <energy>  (42) 
-8.46

>  <cluster_rmsd>  (42) 
0.1

>  <rmsd>  (42) 
271.78

>  <cluster>  (42) 
1

$$$$
AJFQHQFDLMACKV-PYCFMQQDNA-N
     RDKit          3D

 55 58  0  0  0  0  0  0  0  0999 V2000
  138.1300   74.6330  222.7020 H   0  0  0  0  0  0  0  0  0  0  0  0
  137.1890   74.9450  222.4970 O   0  0  0  0  0  0  0  0  0  0  0  0
  136.6560   76.1210  223.0270 C   0  0  0  0  0  0  0  0  0  0  0  0
  137.1220   77.2960  222.5830 C   0  0  0  0  0  0  0  0  0  0  0  0
  136.4775   77.9252  221.9515 H   0  0  0  0  0  0  0  0  0  0  0  0
  138.7730   77.8680  222.9940 S   0  0  0  0  0  0  0  0  0  0  0  0
  139.5650   76.4970  222.1490 C   0  0  0  0  0  0  0  0  0  0  0  0
  139.6480   75.2610  222.6730 N   0  0  0  0  0  0  0  0  0  0  0  0
  140.3260   74.5200  221.8110 N   0  0  0  0  0  0  0  0  0  0  0  0
  140.6450   75.3130  220.7670 C   0  0  0  0  0  0  0  0  0  0  0  0
  141.5070   74.8740  219.6140 C   0  0  0  0  0  0  0  0  0  0  0  0
  140.9603   74.1212  219.0270 H   0  0  0  0  0  0  0  0  0  0  0  0
  141.7386   75.7593  219.0035 H   0  0  0  0  0  0  0  0  0  0  0  0
  142.8070   74.2760  220.0840 C   0  0  0  0  0  0  0  0  0  0  0  0
  143.9760   75.0540  220.1070 C   0  0  0  0  0  0  0  0  0  0  0  0
  143.9365   76.1115  219.8069 H   0  0  0  0  0  0  0  0  0  0  0  0
  145.1900   74.4890  220.5100 C   0  0  0  0  0  0  0  0  0  0  0  0
  146.1014   75.1045  220.5333 H   0  0  0  0  0  0  0  0  0  0  0  0
  145.2470   73.1440  220.8830 C   0  0  0  0  0  0  0  0  0  0  0  0
  146.2022   72.7020  221.2028 H   0  0  0  0  0  0  0  0  0  0  0  0
  144.0910   72.3600  220.8500 C   0  0  0  0  0  0  0  0  0  0  0  0
  144.1376   71.3001  221.1407 H   0  0  0  0  0  0  0  0  0  0  0  0
  142.8750   72.9210  220.4480 C   0  0  0  0  0  0  0  0  0  0  0  0
  141.9683   72.2990  220.4167 H   0  0  0  0  0  0  0  0  0  0  0  0
  140.1910   76.5720  220.9560 N   0  0  0  0  0  0  0  0  0  0  0  0
  140.3930   77.7530  220.1080 C   0  0  0  0  0  0  0  0  0  0  0  0
  140.3003   77.4544  219.0534 H   0  0  0  0  0  0  0  0  0  0  0  0
  139.6316   78.5006  220.3750 H   0  0  0  0  0  0  0  0  0  0  0  0
  141.7750   78.3800  220.3270 C   0  0  0  0  0  0  0  0  0  0  0  0
  142.4986   77.5781  220.5355 H   0  0  0  0  0  0  0  0  0  0  0  0
  142.0423   78.9340  219.4151 H   0  0  0  0  0  0  0  0  0  0  0  0
  141.7840   79.3520  221.4770 C   0  0  0  0  0  0  0  0  0  0  0  0
  141.4750   80.7060  221.2660 C   0  0  0  0  0  0  0  0  0  0  0  0
  141.2163   81.0580  220.2565 H   0  0  0  0  0  0  0  0  0  0  0  0
  141.4950   81.6080  222.3340 C   0  0  0  0  0  0  0  0  0  0  0  0
  141.2444   82.6656  222.1644 H   0  0  0  0  0  0  0  0  0  0  0  0
  141.8330   81.1680  223.6170 C   0  0  0  0  0  0  0  0  0  0  0  0
  141.8440   81.8777  224.4574 H   0  0  0  0  0  0  0  0  0  0  0  0
  142.1570   79.8250  223.8310 C   0  0  0  0  0  0  0  0  0  0  0  0
  142.4307   79.4805  224.8392 H   0  0  0  0  0  0  0  0  0  0  0  0
  142.1340   78.9190  222.7670 C   0  0  0  0  0  0  0  0  0  0  0  0
  142.3908   77.8635  222.9401 H   0  0  0  0  0  0  0  0  0  0  0  0
  135.6150   76.0600  224.0290 N   0  0  0  0  0  0  0  0  0  0  0  0
  134.6120   77.0940  224.2440 C   0  0  0  0  0  0  0  0  0  0  0  0
  135.0954   78.0684  224.4081 H   0  0  0  0  0  0  0  0  0  0  0  0
  133.9500   77.2035  223.3723 H   0  0  0  0  0  0  0  0  0  0  0  0
  133.8390   76.6700  225.4850 C   0  0  0  0  0  0  0  0  0  0  0  0
  134.1738   77.2458  226.3604 H   0  0  0  0  0  0  0  0  0  0  0  0
  132.7599   76.8512  225.3721 H   0  0  0  0  0  0  0  0  0  0  0  0
  134.1430   75.1880  225.6760 C   0  0  0  0  0  0  0  0  0  0  0  0
  134.2615   74.9558  226.7446 H   0  0  0  0  0  0  0  0  0  0  0  0
  133.3278   74.5549  225.2957 H   0  0  0  0  0  0  0  0  0  0  0  0
  135.4460   74.9330  224.9300 C   0  0  0  0  0  0  0  0  0  0  0  0
  136.2873   74.8783  225.6366 H   0  0  0  0  0  0  0  0  0  0  0  0
  135.4187   73.9789  224.3832 H   0  0  0  0  0  0  0  0  0  0  0  0
  1  2  1  0
  2  3  1  0
  3  4  2  0
  4  5  1  0
  4  6  1  0
  6  7  1  0
  7  8  2  0
  8  9  1  0
  9 10  2  0
 10 11  1  0
 11 12  1  0
 11 13  1  0
 11 14  1  0
 14 15  2  0
 15 16  1  0
 15 17  1  0
 17 18  1  0
 17 19  2  0
 19 20  1  0
 19 21  1  0
 21 22  1  0
 21 23  2  0
 23 24  1  0
 10 25  1  0
 25 26  1  0
 26 27  1  0
 26 28  1  0
 26 29  1  0
 29 30  1  0
 29 31  1  0
 29 32  1  0
 32 33  2  0
 33 34  1  0
 33 35  1  0
 35 36  1  0
 35 37  2  0
 37 38  1  0
 37 39  1  0
 39 40  1  0
 39 41  2  0
 41 42  1  0
  3 43  1  0
 43 44  1  0
 44 45  1  0
 44 46  1  0
 44 47  1  0
 47 48  1  0
 47 49  1  0
 47 50  1  0
 50 51  1  0
 50 52  1  0
 50 53  1  0
 53 54  1  0
 53 55  1  0
 25  7  1  0
 41 32  1  0
 53 43  1  0
 23 14  1  0
M  END
>  <UniqueID>  (43) 
19

>  <SMILES>  (43) 
O/C(=C\Sc1nnc(Cc2ccccc2)n1CCc1ccccc1)N1CCCC1

>  <Energy>  (43) 
80.57087443506919

>  <Genealogy>  (43) 
OC(=CSc1nnc(Cc2ccccc2)n1CCc1ccccc1)N1CCCC1 (tautomer)
O/C(=C\Sc1nnc(Cc2ccccc2)n1CCc1ccccc1)N1CCCC1 (cis-trans isomerization)
O/C(=C\Sc1nnc(Cc2ccccc2)n1CCc1ccccc1)N1CCCC1 (3D coordinates assigned)
O/C(=C\Sc1nnc(Cc2ccccc2)n1CCc1ccccc1)N1CCCC1 (nonaromatic ring conformer: 80.57087443506919 kcal/mol)

>  <smiles>  (43) 
O=C(CSc1nnc(Cc2ccccc2)n1CCc1ccccc1)N1CCCC1

>  <score_type>  (43) 
oracle

>  <origin>  (43) 
autodockgpu

>  <m_score__min__energy>  (43) 
-8.5099999999999998

>  <m_primary>  (43) 
energy

>  <meeko>  (43) 
{"free_energy": -7.01, "intermolecular_energy": -10.0, "internal_energy": -2.73, "cluster_size": 4, "cluster_id": 3, "rank_in_cluster": 3}

>  <energy>  (43) 
-8.43

>  <cluster_rmsd>  (43) 
0.12

>  <rmsd>  (43) 
271.74

>  <cluster>  (43) 
1

$$$$
AJFQHQFDLMACKV-PYCFMQQDNA-N
     RDKit          3D

 55 58  0  0  0  0  0  0  0  0999 V2000
  139.1960   75.0140  223.3230 H   0  0  0  0  0  0  0  0  0  0  0  0
  139.1630   75.9950  223.0760 O   0  0  0  0  0  0  0  0  0  0  0  0
  139.7480   76.4970  221.9120 C   0  0  0  0  0  0  0  0  0  0  0  0
  139.4990   75.8800  220.7500 C   0  0  0  0  0  0  0  0  0  0  0  0
  140.0857   76.1537  219.8607 H   0  0  0  0  0  0  0  0  0  0  0  0
  138.2310   74.6170  220.6080 S   0  0  0  0  0  0  0  0  0  0  0  0
  139.0750   73.5050  221.7370 C   0  0  0  0  0  0  0  0  0  0  0  0
  140.3650   73.6550  222.0870 N   0  0  0  0  0  0  0  0  0  0  0  0
  140.6680   72.6460  222.8880 N   0  0  0  0  0  0  0  0  0  0  0  0
  139.5550   71.8950  223.0220 C   0  0  0  0  0  0  0  0  0  0  0  0
  139.5080   70.5930  223.7760 C   0  0  0  0  0  0  0  0  0  0  0  0
  138.4769   70.2100  223.7613 H   0  0  0  0  0  0  0  0  0  0  0  0
  140.1979   69.8895  223.2871 H   0  0  0  0  0  0  0  0  0  0  0  0
  139.9460   70.7600  225.2080 C   0  0  0  0  0  0  0  0  0  0  0  0
  139.5060   69.8600  226.1920 C   0  0  0  0  0  0  0  0  0  0  0  0
  138.8614   69.0139  225.9116 H   0  0  0  0  0  0  0  0  0  0  0  0
  139.8840   70.0350  227.5270 C   0  0  0  0  0  0  0  0  0  0  0  0
  139.5423   69.3230  228.2927 H   0  0  0  0  0  0  0  0  0  0  0  0
  140.6950   71.1130  227.8890 C   0  0  0  0  0  0  0  0  0  0  0  0
  140.9952   71.2471  228.9387 H   0  0  0  0  0  0  0  0  0  0  0  0
  141.1250   72.0210  226.9180 C   0  0  0  0  0  0  0  0  0  0  0  0
  141.7599   72.8721  227.2053 H   0  0  0  0  0  0  0  0  0  0  0  0
  140.7500   71.8500  225.5820 C   0  0  0  0  0  0  0  0  0  0  0  0
  141.0853   72.5707  224.8216 H   0  0  0  0  0  0  0  0  0  0  0  0
  138.5340   72.4030  222.2960 N   0  0  0  0  0  0  0  0  0  0  0  0
  137.1880   71.8510  222.1000 C   0  0  0  0  0  0  0  0  0  0  0  0
  136.6359   72.4974  221.4019 H   0  0  0  0  0  0  0  0  0  0  0  0
  137.2906   70.8325  221.6973 H   0  0  0  0  0  0  0  0  0  0  0  0
  136.4110   71.7670  223.4200 C   0  0  0  0  0  0  0  0  0  0  0  0
  135.5701   71.0695  223.2920 H   0  0  0  0  0  0  0  0  0  0  0  0
  137.1059   71.4191  224.1985 H   0  0  0  0  0  0  0  0  0  0  0  0
  135.8700   73.1040  223.8490 C   0  0  0  0  0  0  0  0  0  0  0  0
  135.0330   73.2060  224.9720 C   0  0  0  0  0  0  0  0  0  0  0  0
  134.7776   72.3045  225.5482 H   0  0  0  0  0  0  0  0  0  0  0  0
  134.5230   74.4480  225.3610 C   0  0  0  0  0  0  0  0  0  0  0  0
  133.8733   74.5221  226.2456 H   0  0  0  0  0  0  0  0  0  0  0  0
  134.8370   75.5960  224.6280 C   0  0  0  0  0  0  0  0  0  0  0  0
  134.4387   76.5733  224.9382 H   0  0  0  0  0  0  0  0  0  0  0  0
  135.6580   75.5010  223.5000 C   0  0  0  0  0  0  0  0  0  0  0  0
  135.8992   76.4034  222.9191 H   0  0  0  0  0  0  0  0  0  0  0  0
  136.1730   74.2610  223.1090 C   0  0  0  0  0  0  0  0  0  0  0  0
  136.8170   74.1903  222.2200 H   0  0  0  0  0  0  0  0  0  0  0  0
  140.5990   77.6650  221.9720 N   0  0  0  0  0  0  0  0  0  0  0  0
  140.7180   78.6570  220.9130 C   0  0  0  0  0  0  0  0  0  0  0  0
  140.9829   78.1721  219.9618 H   0  0  0  0  0  0  0  0  0  0  0  0
  139.7706   79.1920  220.7510 H   0  0  0  0  0  0  0  0  0  0  0  0
  141.8270   79.6020  221.3530 C   0  0  0  0  0  0  0  0  0  0  0  0
  142.7613   79.3709  220.8203 H   0  0  0  0  0  0  0  0  0  0  0  0
  141.5785   80.6502  221.1303 H   0  0  0  0  0  0  0  0  0  0  0  0
  141.9980   79.3710  222.8500 C   0  0  0  0  0  0  0  0  0  0  0  0
  143.0628   79.4059  223.1240 H   0  0  0  0  0  0  0  0  0  0  0  0
  141.4865   80.1453  223.4407 H   0  0  0  0  0  0  0  0  0  0  0  0
  141.4250   77.9870  223.1230 C   0  0  0  0  0  0  0  0  0  0  0  0
  142.2358   77.2513  223.2302 H   0  0  0  0  0  0  0  0  0  0  0  0
  140.8432   77.9672  224.0564 H   0  0  0  0  0  0  0  0  0  0  0  0
  1  2  1  0
  2  3  1  0
  3  4  2  0
  4  5  1  0
  4  6  1  0
  6  7  1  0
  7  8  2  0
  8  9  1  0
  9 10  2  0
 10 11  1  0
 11 12  1  0
 11 13  1  0
 11 14  1  0
 14 15  2  0
 15 16  1  0
 15 17  1  0
 17 18  1  0
 17 19  2  0
 19 20  1  0
 19 21  1  0
 21 22  1  0
 21 23  2  0
 23 24  1  0
 10 25  1  0
 25 26  1  0
 26 27  1  0
 26 28  1  0
 26 29  1  0
 29 30  1  0
 29 31  1  0
 29 32  1  0
 32 33  2  0
 33 34  1  0
 33 35  1  0
 35 36  1  0
 35 37  2  0
 37 38  1  0
 37 39  1  0
 39 40  1  0
 39 41  2  0
 41 42  1  0
  3 43  1  0
 43 44  1  0
 44 45  1  0
 44 46  1  0
 44 47  1  0
 47 48  1  0
 47 49  1  0
 47 50  1  0
 50 51  1  0
 50 52  1  0
 50 53  1  0
 53 54  1  0
 53 55  1  0
 25  7  1  0
 41 32  1  0
 53 43  1  0
 23 14  1  0
M  END
>  <UniqueID>  (44) 
19

>  <SMILES>  (44) 
O/C(=C\Sc1nnc(Cc2ccccc2)n1CCc1ccccc1)N1CCCC1

>  <Energy>  (44) 
80.57087443506919

>  <Genealogy>  (44) 
OC(=CSc1nnc(Cc2ccccc2)n1CCc1ccccc1)N1CCCC1 (tautomer)
O/C(=C\Sc1nnc(Cc2ccccc2)n1CCc1ccccc1)N1CCCC1 (cis-trans isomerization)
O/C(=C\Sc1nnc(Cc2ccccc2)n1CCc1ccccc1)N1CCCC1 (3D coordinates assigned)
O/C(=C\Sc1nnc(Cc2ccccc2)n1CCc1ccccc1)N1CCCC1 (nonaromatic ring conformer: 80.57087443506919 kcal/mol)

>  <smiles>  (44) 
O=C(CSc1nnc(Cc2ccccc2)n1CCc1ccccc1)N1CCCC1

>  <score_type>  (44) 
oracle

>  <origin>  (44) 
autodockgpu

>  <m_score__min__energy>  (44) 
-8.5099999999999998

>  <m_primary>  (44) 
energy

>  <meeko>  (44) 
{"free_energy": -7.28, "intermolecular_energy": -10.27, "internal_energy": -2.4, "cluster_size": 3, "cluster_id": 2, "rank_in_cluster": 2}

>  <energy>  (44) 
-8.15

>  <cluster_rmsd>  (44) 
0.66

>  <rmsd>  (44) 
271.53

>  <cluster>  (44) 
1

$$$$
AJFQHQFDLMACKV-PYCFMQQDNA-N
     RDKit          3D

 55 58  0  0  0  0  0  0  0  0999 V2000
  138.4070   73.5840  222.7890 H   0  0  0  0  0  0  0  0  0  0  0  0
  138.2800   72.5810  222.7250 O   0  0  0  0  0  0  0  0  0  0  0  0
  139.3530   71.6930  222.6300 C   0  0  0  0  0  0  0  0  0  0  0  0
  139.9490   71.5300  221.4420 C   0  0  0  0  0  0  0  0  0  0  0  0
  139.4480   70.9296  220.6684 H   0  0  0  0  0  0  0  0  0  0  0  0
  141.5450   72.2670  221.0810 S   0  0  0  0  0  0  0  0  0  0  0  0
  140.9540   73.9340  221.3870 C   0  0  0  0  0  0  0  0  0  0  0  0
  140.0610   74.2300  222.3480 N   0  0  0  0  0  0  0  0  0  0  0  0
  139.8200   75.5290  222.2640 N   0  0  0  0  0  0  0  0  0  0  0  0
  140.5750   76.0110  221.2550 C   0  0  0  0  0  0  0  0  0  0  0  0
  140.5150   77.4340  220.7690 C   0  0  0  0  0  0  0  0  0  0  0  0
  141.0124   77.4971  219.7899 H   0  0  0  0  0  0  0  0  0  0  0  0
  139.4569   77.7255  220.6945 H   0  0  0  0  0  0  0  0  0  0  0  0
  141.1950   78.3800  221.7230 C   0  0  0  0  0  0  0  0  0  0  0  0
  141.8640   79.5150  221.2370 C   0  0  0  0  0  0  0  0  0  0  0  0
  141.8682   79.7285  220.1579 H   0  0  0  0  0  0  0  0  0  0  0  0
  142.5250   80.3750  222.1200 C   0  0  0  0  0  0  0  0  0  0  0  0
  143.0409   81.2669  221.7349 H   0  0  0  0  0  0  0  0  0  0  0  0
  142.5310   80.1030  223.4900 C   0  0  0  0  0  0  0  0  0  0  0  0
  143.0489   80.7821  224.1833 H   0  0  0  0  0  0  0  0  0  0  0  0
  141.8790   78.9680  223.9800 C   0  0  0  0  0  0  0  0  0  0  0  0
  141.8874   78.7525  225.0587 H   0  0  0  0  0  0  0  0  0  0  0  0
  141.2160   78.1060  223.1010 C   0  0  0  0  0  0  0  0  0  0  0  0
  140.7092   77.2104  223.4896 H   0  0  0  0  0  0  0  0  0  0  0  0
  141.2930   75.0260  220.6710 N   0  0  0  0  0  0  0  0  0  0  0  0
  142.1690   75.1070  219.4960 C   0  0  0  0  0  0  0  0  0  0  0  0
  142.1832   74.1284  218.9940 H   0  0  0  0  0  0  0  0  0  0  0  0
  141.7752   75.8874  218.8282 H   0  0  0  0  0  0  0  0  0  0  0  0
  143.6030   75.4880  219.8820 C   0  0  0  0  0  0  0  0  0  0  0  0
  143.9962   76.1913  219.1331 H   0  0  0  0  0  0  0  0  0  0  0  0
  143.5729   75.9432  220.8829 H   0  0  0  0  0  0  0  0  0  0  0  0
  144.5130   74.2910  219.9470 C   0  0  0  0  0  0  0  0  0  0  0  0
  144.3850   73.2470  219.0150 C   0  0  0  0  0  0  0  0  0  0  0  0
  143.6205   73.3080  218.2265 H   0  0  0  0  0  0  0  0  0  0  0  0
  145.2240   72.1320  219.0850 C   0  0  0  0  0  0  0  0  0  0  0  0
  145.1232   71.3219  218.3477 H   0  0  0  0  0  0  0  0  0  0  0  0
  146.1910   72.0440  220.0900 C   0  0  0  0  0  0  0  0  0  0  0  0
  146.8533   71.1672  220.1413 H   0  0  0  0  0  0  0  0  0  0  0  0
  146.3160   73.0710  221.0300 C   0  0  0  0  0  0  0  0  0  0  0  0
  147.0733   72.9989  221.8246 H   0  0  0  0  0  0  0  0  0  0  0  0
  145.4800   74.1900  220.9620 C   0  0  0  0  0  0  0  0  0  0  0  0
  145.5796   74.9943  221.7058 H   0  0  0  0  0  0  0  0  0  0  0  0
  139.8070   70.9750  223.8000 N   0  0  0  0  0  0  0  0  0  0  0  0
  140.6980   71.5240  224.8140 C   0  0  0  0  0  0  0  0  0  0  0  0
  141.6198   71.9036  224.3490 H   0  0  0  0  0  0  0  0  0  0  0  0
  140.2339   72.3665  225.3477 H   0  0  0  0  0  0  0  0  0  0  0  0
  141.0150   70.3710  225.7550 C   0  0  0  0  0  0  0  0  0  0  0  0
  142.0138   69.9638  225.5392 H   0  0  0  0  0  0  0  0  0  0  0  0
  141.0178   70.6950  226.8062 H   0  0  0  0  0  0  0  0  0  0  0  0
  139.9440   69.3170  225.4950 C   0  0  0  0  0  0  0  0  0  0  0  0
  140.3824   68.3087  225.5289 H   0  0  0  0  0  0  0  0  0  0  0  0
  139.1497   69.3502  226.2553 H   0  0  0  0  0  0  0  0  0  0  0  0
  139.4010   69.6130  224.1030 C   0  0  0  0  0  0  0  0  0  0  0  0
  139.8279   68.9139  223.3688 H   0  0  0  0  0  0  0  0  0  0  0  0
  138.3077   69.4983  224.0625 H   0  0  0  0  0  0  0  0  0  0  0  0
  1  2  1  0
  2  3  1  0
  3  4  2  0
  4  5  1  0
  4  6  1  0
  6  7  1  0
  7  8  2  0
  8  9  1  0
  9 10  2  0
 10 11  1  0
 11 12  1  0
 11 13  1  0
 11 14  1  0
 14 15  2  0
 15 16  1  0
 15 17  1  0
 17 18  1  0
 17 19  2  0
 19 20  1  0
 19 21  1  0
 21 22  1  0
 21 23  2  0
 23 24  1  0
 10 25  1  0
 25 26  1  0
 26 27  1  0
 26 28  1  0
 26 29  1  0
 29 30  1  0
 29 31  1  0
 29 32  1  0
 32 33  2  0
 33 34  1  0
 33 35  1  0
 35 36  1  0
 35 37  2  0
 37 38  1  0
 37 39  1  0
 39 40  1  0
 39 41  2  0
 41 42  1  0
  3 43  1  0
 43 44  1  0
 44 45  1  0
 44 46  1  0
 44 47  1  0
 47 48  1  0
 47 49  1  0
 47 50  1  0
 50 51  1  0
 50 52  1  0
 50 53  1  0
 53 54  1  0
 53 55  1  0
 25  7  1  0
 41 32  1  0
 53 43  1  0
 23 14  1  0
M  END
>  <UniqueID>  (45) 
19

>  <SMILES>  (45) 
O/C(=C\Sc1nnc(Cc2ccccc2)n1CCc1ccccc1)N1CCCC1

>  <Energy>  (45) 
80.57087443506919

>  <Genealogy>  (45) 
OC(=CSc1nnc(Cc2ccccc2)n1CCc1ccccc1)N1CCCC1 (tautomer)
O/C(=C\Sc1nnc(Cc2ccccc2)n1CCc1ccccc1)N1CCCC1 (cis-trans isomerization)
O/C(=C\Sc1nnc(Cc2ccccc2)n1CCc1ccccc1)N1CCCC1 (3D coordinates assigned)
O/C(=C\Sc1nnc(Cc2ccccc2)n1CCc1ccccc1)N1CCCC1 (nonaromatic ring conformer: 80.57087443506919 kcal/mol)

>  <smiles>  (45) 
O=C(CSc1nnc(Cc2ccccc2)n1CCc1ccccc1)N1CCCC1

>  <score_type>  (45) 
oracle

>  <origin>  (45) 
autodockgpu

>  <m_score__min__energy>  (45) 
-8.5099999999999998

>  <m_primary>  (45) 
energy

>  <meeko>  (45) 
{"free_energy": -8.15, "intermolecular_energy": -11.13, "internal_energy": -2.26, "cluster_size": 7, "cluster_id": 1, "rank_in_cluster": 4}

>  <energy>  (45) 
-8.13

>  <cluster_rmsd>  (45) 
0.73

>  <rmsd>  (45) 
271.42

>  <cluster>  (45) 
1

$$$$
AJFQHQFDLMACKV-PYCFMQQDNA-N
     RDKit          3D

 55 58  0  0  0  0  0  0  0  0999 V2000
  139.2110   74.6300  222.7240 H   0  0  0  0  0  0  0  0  0  0  0  0
  139.9730   74.0870  222.3360 O   0  0  0  0  0  0  0  0  0  0  0  0
  140.3440   74.1670  220.9930 C   0  0  0  0  0  0  0  0  0  0  0  0
  139.3980   74.0240  220.0550 C   0  0  0  0  0  0  0  0  0  0  0  0
  139.1786   73.0200  219.6627 H   0  0  0  0  0  0  0  0  0  0  0  0
  138.4800   75.4310  219.4230 S   0  0  0  0  0  0  0  0  0  0  0  0
  138.4730   76.2650  221.0130 C   0  0  0  0  0  0  0  0  0  0  0  0
  138.0580   75.6760  222.1490 N   0  0  0  0  0  0  0  0  0  0  0  0
  138.1450   76.5830  223.1090 N   0  0  0  0  0  0  0  0  0  0  0  0
  138.6190   77.7140  222.5470 C   0  0  0  0  0  0  0  0  0  0  0  0
  138.7680   79.0170  223.2860 C   0  0  0  0  0  0  0  0  0  0  0  0
  138.1291   79.7734  222.8068 H   0  0  0  0  0  0  0  0  0  0  0  0
  138.4696   78.8533  224.3320 H   0  0  0  0  0  0  0  0  0  0  0  0
  140.1930   79.5050  223.2760 C   0  0  0  0  0  0  0  0  0  0  0  0
  140.4710   80.8790  223.3730 C   0  0  0  0  0  0  0  0  0  0  0  0
  139.6460   81.5981  223.4841 H   0  0  0  0  0  0  0  0  0  0  0  0
  141.7910   81.3360  223.3290 C   0  0  0  0  0  0  0  0  0  0  0  0
  142.0030   82.4121  223.4133 H   0  0  0  0  0  0  0  0  0  0  0  0
  142.8420   80.4270  223.1780 C   0  0  0  0  0  0  0  0  0  0  0  0
  143.8808   80.7875  223.1473 H   0  0  0  0  0  0  0  0  0  0  0  0
  142.5730   79.0600  223.0660 C   0  0  0  0  0  0  0  0  0  0  0  0
  143.4004   78.3457  222.9431 H   0  0  0  0  0  0  0  0  0  0  0  0
  141.2530   78.5990  223.1100 C   0  0  0  0  0  0  0  0  0  0  0  0
  141.0447   77.5232  223.0142 H   0  0  0  0  0  0  0  0  0  0  0  0
  138.8240   77.5510  221.2210 N   0  0  0  0  0  0  0  0  0  0  0  0
  139.2490   78.5490  220.2330 C   0  0  0  0  0  0  0  0  0  0  0  0
  138.6968   78.3811  219.2966 H   0  0  0  0  0  0  0  0  0  0  0  0
  139.0373   79.5479  220.6420 H   0  0  0  0  0  0  0  0  0  0  0  0
  140.7530   78.4590  219.9460 C   0  0  0  0  0  0  0  0  0  0  0  0
  141.2819   78.2550  220.8887 H   0  0  0  0  0  0  0  0  0  0  0  0
  140.9095   77.6512  219.2160 H   0  0  0  0  0  0  0  0  0  0  0  0
  141.2960   79.7310  219.3510 C   0  0  0  0  0  0  0  0  0  0  0  0
  140.8740   80.9800  219.8350 C   0  0  0  0  0  0  0  0  0  0  0  0
  140.1483   81.0307  220.6601 H   0  0  0  0  0  0  0  0  0  0  0  0
  141.3720   82.1590  219.2730 C   0  0  0  0  0  0  0  0  0  0  0  0
  141.0426   83.1343  219.6607 H   0  0  0  0  0  0  0  0  0  0  0  0
  142.2880   82.1000  218.2190 C   0  0  0  0  0  0  0  0  0  0  0  0
  142.6830   83.0284  217.7807 H   0  0  0  0  0  0  0  0  0  0  0  0
  142.7020   80.8610  217.7220 C   0  0  0  0  0  0  0  0  0  0  0  0
  143.4169   80.8153  216.8873 H   0  0  0  0  0  0  0  0  0  0  0  0
  142.2090   79.6800  218.2840 C   0  0  0  0  0  0  0  0  0  0  0  0
  142.5370   78.7069  217.8895 H   0  0  0  0  0  0  0  0  0  0  0  0
  141.7240   74.4070  220.6340 N   0  0  0  0  0  0  0  0  0  0  0  0
  142.7800   73.4050  220.6890 C   0  0  0  0  0  0  0  0  0  0  0  0
  142.8305   72.9565  221.6921 H   0  0  0  0  0  0  0  0  0  0  0  0
  142.5988   72.5865  219.9768 H   0  0  0  0  0  0  0  0  0  0  0  0
  144.0720   74.1460  220.3740 C   0  0  0  0  0  0  0  0  0  0  0  0
  144.6354   74.3440  221.2978 H   0  0  0  0  0  0  0  0  0  0  0  0
  144.7275   73.5568  219.7158 H   0  0  0  0  0  0  0  0  0  0  0  0
  143.6480   75.4560  219.7190 C   0  0  0  0  0  0  0  0  0  0  0  0
  144.2904   76.2808  220.0611 H   0  0  0  0  0  0  0  0  0  0  0  0
  143.7375   75.4086  218.6237 H   0  0  0  0  0  0  0  0  0  0  0  0
  142.2080   75.6900  220.1540 C   0  0  0  0  0  0  0  0  0  0  0  0
  142.1682   76.4393  220.9583 H   0  0  0  0  0  0  0  0  0  0  0  0
  141.5922   76.0698  219.3254 H   0  0  0  0  0  0  0  0  0  0  0  0
  1  2  1  0
  2  3  1  0
  3  4  2  0
  4  5  1  0
  4  6  1  0
  6  7  1  0
  7  8  2  0
  8  9  1  0
  9 10  2  0
 10 11  1  0
 11 12  1  0
 11 13  1  0
 11 14  1  0
 14 15  2  0
 15 16  1  0
 15 17  1  0
 17 18  1  0
 17 19  2  0
 19 20  1  0
 19 21  1  0
 21 22  1  0
 21 23  2  0
 23 24  1  0
 10 25  1  0
 25 26  1  0
 26 27  1  0
 26 28  1  0
 26 29  1  0
 29 30  1  0
 29 31  1  0
 29 32  1  0
 32 33  2  0
 33 34  1  0
 33 35  1  0
 35 36  1  0
 35 37  2  0
 37 38  1  0
 37 39  1  0
 39 40  1  0
 39 41  2  0
 41 42  1  0
  3 43  1  0
 43 44  1  0
 44 45  1  0
 44 46  1  0
 44 47  1  0
 47 48  1  0
 47 49  1  0
 47 50  1  0
 50 51  1  0
 50 52  1  0
 50 53  1  0
 53 54  1  0
 53 55  1  0
 25  7  1  0
 41 32  1  0
 53 43  1  0
 23 14  1  0
M  END
>  <UniqueID>  (46) 
19

>  <SMILES>  (46) 
O/C(=C\Sc1nnc(Cc2ccccc2)n1CCc1ccccc1)N1CCCC1

>  <Energy>  (46) 
80.57087443506919

>  <Genealogy>  (46) 
OC(=CSc1nnc(Cc2ccccc2)n1CCc1ccccc1)N1CCCC1 (tautomer)
O/C(=C\Sc1nnc(Cc2ccccc2)n1CCc1ccccc1)N1CCCC1 (cis-trans isomerization)
O/C(=C\Sc1nnc(Cc2ccccc2)n1CCc1ccccc1)N1CCCC1 (3D coordinates assigned)
O/C(=C\Sc1nnc(Cc2ccccc2)n1CCc1ccccc1)N1CCCC1 (nonaromatic ring conformer: 80.57087443506919 kcal/mol)

>  <smiles>  (46) 
O=C(CSc1nnc(Cc2ccccc2)n1CCc1ccccc1)N1CCCC1

>  <score_type>  (46) 
oracle

>  <origin>  (46) 
autodockgpu

>  <m_score__min__energy>  (46) 
-8.5099999999999998

>  <m_primary>  (46) 
energy

>  <meeko>  (46) 
{"free_energy": -6.01, "intermolecular_energy": -9.0, "internal_energy": -3.75, "cluster_size": 4, "cluster_id": 6, "rank_in_cluster": 2}

>  <energy>  (46) 
-8.07

>  <cluster_rmsd>  (46) 
0.74

>  <rmsd>  (46) 
271.38

>  <cluster>  (46) 
1

$$$$
AJFQHQFDLMACKV-PYCFMQQDNA-N
     RDKit          3D

 55 58  0  0  0  0  0  0  0  0999 V2000
  138.3920   72.9380  223.0690 H   0  0  0  0  0  0  0  0  0  0  0  0
  138.7410   71.9900  222.9990 O   0  0  0  0  0  0  0  0  0  0  0  0
  140.0100   71.6220  223.4460 C   0  0  0  0  0  0  0  0  0  0  0  0
  141.0690   71.8960  222.6730 C   0  0  0  0  0  0  0  0  0  0  0  0
  142.0783   71.8433  223.1071 H   0  0  0  0  0  0  0  0  0  0  0  0
  140.8810   72.3470  220.9460 S   0  0  0  0  0  0  0  0  0  0  0  0
  140.5400   74.0670  221.3310 C   0  0  0  0  0  0  0  0  0  0  0  0
  139.7400   74.4470  222.3440 N   0  0  0  0  0  0  0  0  0  0  0  0
  139.6780   75.7690  222.3110 N   0  0  0  0  0  0  0  0  0  0  0  0
  140.4470   76.1790  221.2820 C   0  0  0  0  0  0  0  0  0  0  0  0
  140.5620   77.6150  220.8430 C   0  0  0  0  0  0  0  0  0  0  0  0
  141.1262   77.6550  219.8996 H   0  0  0  0  0  0  0  0  0  0  0  0
  139.5459   78.0156  220.7126 H   0  0  0  0  0  0  0  0  0  0  0  0
  141.2700   78.4580  221.8710 C   0  0  0  0  0  0  0  0  0  0  0  0
  141.1900   78.1280  223.2340 C   0  0  0  0  0  0  0  0  0  0  0  0
  140.6313   77.2346  223.5496 H   0  0  0  0  0  0  0  0  0  0  0  0
  141.8180   78.9310  224.1910 C   0  0  0  0  0  0  0  0  0  0  0  0
  141.7589   78.6634  225.2563 H   0  0  0  0  0  0  0  0  0  0  0  0
  142.5200   80.0720  223.7970 C   0  0  0  0  0  0  0  0  0  0  0  0
  143.0161   80.7006  224.5512 H   0  0  0  0  0  0  0  0  0  0  0  0
  142.5920   80.4150  222.4440 C   0  0  0  0  0  0  0  0  0  0  0  0
  143.1421   81.3159  222.1345 H   0  0  0  0  0  0  0  0  0  0  0  0
  141.9660   79.6150  221.4830 C   0  0  0  0  0  0  0  0  0  0  0  0
  142.0187   79.8925  220.4199 H   0  0  0  0  0  0  0  0  0  0  0  0
  140.9950   75.1280  220.6330 N   0  0  0  0  0  0  0  0  0  0  0  0
  141.8200   75.1320  219.4200 C   0  0  0  0  0  0  0  0  0  0  0  0
  141.8480   74.1137  219.0048 H   0  0  0  0  0  0  0  0  0  0  0  0
  141.3733   75.8379  218.7044 H   0  0  0  0  0  0  0  0  0  0  0  0
  143.2550   75.5900  219.7100 C   0  0  0  0  0  0  0  0  0  0  0  0
  143.6215   76.1711  218.8510 H   0  0  0  0  0  0  0  0  0  0  0  0
  143.2361   76.1978  220.6267 H   0  0  0  0  0  0  0  0  0  0  0  0
  144.1870   74.4310  219.9440 C   0  0  0  0  0  0  0  0  0  0  0  0
  145.2650   74.5530  220.8350 C   0  0  0  0  0  0  0  0  0  0  0  0
  145.4252   75.4985  221.3739 H   0  0  0  0  0  0  0  0  0  0  0  0
  146.1360   73.4790  221.0410 C   0  0  0  0  0  0  0  0  0  0  0  0
  146.9753   73.5792  221.7450 H   0  0  0  0  0  0  0  0  0  0  0  0
  145.9410   72.2780  220.3530 C   0  0  0  0  0  0  0  0  0  0  0  0
  146.6232   71.4314  220.5199 H   0  0  0  0  0  0  0  0  0  0  0  0
  144.8790   72.1530  219.4530 C   0  0  0  0  0  0  0  0  0  0  0  0
  144.7308   71.2102  218.9060 H   0  0  0  0  0  0  0  0  0  0  0  0
  144.0050   73.2240  219.2470 C   0  0  0  0  0  0  0  0  0  0  0  0
  143.1714   73.1220  218.5366 H   0  0  0  0  0  0  0  0  0  0  0  0
  140.1670   70.9650  224.7250 N   0  0  0  0  0  0  0  0  0  0  0  0
  140.9530   71.4890  225.8340 C   0  0  0  0  0  0  0  0  0  0  0  0
  141.9810   71.7042  225.5069 H   0  0  0  0  0  0  0  0  0  0  0  0
  140.5322   72.4292  226.2198 H   0  0  0  0  0  0  0  0  0  0  0  0
  140.9520   70.3980  226.8950 C   0  0  0  0  0  0  0  0  0  0  0  0
  141.9057   69.8500  226.8823 H   0  0  0  0  0  0  0  0  0  0  0  0
  140.8324   70.8153  227.9057 H   0  0  0  0  0  0  0  0  0  0  0  0
  139.8000   69.4680  226.5310 C   0  0  0  0  0  0  0  0  0  0  0  0
  140.0822   68.4201  226.7105 H   0  0  0  0  0  0  0  0  0  0  0  0
  138.9070   69.6718  227.1401 H   0  0  0  0  0  0  0  0  0  0  0  0
  139.5330   69.6990  225.0500 C   0  0  0  0  0  0  0  0  0  0  0  0
  139.9705   68.8868  224.4509 H   0  0  0  0  0  0  0  0  0  0  0  0
  138.4551   69.7188  224.8318 H   0  0  0  0  0  0  0  0  0  0  0  0
  1  2  1  0
  2  3  1  0
  3  4  2  0
  4  5  1  0
  4  6  1  0
  6  7  1  0
  7  8  2  0
  8  9  1  0
  9 10  2  0
 10 11  1  0
 11 12  1  0
 11 13  1  0
 11 14  1  0
 14 15  2  0
 15 16  1  0
 15 17  1  0
 17 18  1  0
 17 19  2  0
 19 20  1  0
 19 21  1  0
 21 22  1  0
 21 23  2  0
 23 24  1  0
 10 25  1  0
 25 26  1  0
 26 27  1  0
 26 28  1  0
 26 29  1  0
 29 30  1  0
 29 31  1  0
 29 32  1  0
 32 33  2  0
 33 34  1  0
 33 35  1  0
 35 36  1  0
 35 37  2  0
 37 38  1  0
 37 39  1  0
 39 40  1  0
 39 41  2  0
 41 42  1  0
  3 43  1  0
 43 44  1  0
 44 45  1  0
 44 46  1  0
 44 47  1  0
 47 48  1  0
 47 49  1  0
 47 50  1  0
 50 51  1  0
 50 52  1  0
 50 53  1  0
 53 54  1  0
 53 55  1  0
 25  7  1  0
 41 32  1  0
 53 43  1  0
 23 14  1  0
M  END
>  <UniqueID>  (47) 
19

>  <SMILES>  (47) 
O/C(=C\Sc1nnc(Cc2ccccc2)n1CCc1ccccc1)N1CCCC1

>  <Energy>  (47) 
80.57087443506919

>  <Genealogy>  (47) 
OC(=CSc1nnc(Cc2ccccc2)n1CCc1ccccc1)N1CCCC1 (tautomer)
O/C(=C\Sc1nnc(Cc2ccccc2)n1CCc1ccccc1)N1CCCC1 (cis-trans isomerization)
O/C(=C\Sc1nnc(Cc2ccccc2)n1CCc1ccccc1)N1CCCC1 (3D coordinates assigned)
O/C(=C\Sc1nnc(Cc2ccccc2)n1CCc1ccccc1)N1CCCC1 (nonaromatic ring conformer: 80.57087443506919 kcal/mol)

>  <smiles>  (47) 
O=C(CSc1nnc(Cc2ccccc2)n1CCc1ccccc1)N1CCCC1

>  <score_type>  (47) 
oracle

>  <origin>  (47) 
autodockgpu

>  <m_score__min__energy>  (47) 
-8.5099999999999998

>  <m_primary>  (47) 
energy

>  <meeko>  (47) 
{"free_energy": -8.46, "intermolecular_energy": -11.44, "internal_energy": -2.29, "cluster_size": 7, "cluster_id": 1, "rank_in_cluster": 2}

>  <energy>  (47) 
-7.94

>  <cluster_rmsd>  (47) 
0.62

>  <rmsd>  (47) 
271.72

>  <cluster>  (47) 
1

$$$$
AJFQHQFDLMACKV-PYCFMQQDNA-N
     RDKit          3D

 55 58  0  0  0  0  0  0  0  0999 V2000
  139.1740   74.5680  222.7100 H   0  0  0  0  0  0  0  0  0  0  0  0
  140.0040   74.1130  222.3500 O   0  0  0  0  0  0  0  0  0  0  0  0
  140.3640   74.1660  221.0020 C   0  0  0  0  0  0  0  0  0  0  0  0
  139.4120   73.9980  220.0750 C   0  0  0  0  0  0  0  0  0  0  0  0
  139.1984   72.9852  219.7028 H   0  0  0  0  0  0  0  0  0  0  0  0
  138.4760   75.3850  219.4250 S   0  0  0  0  0  0  0  0  0  0  0  0
  138.4520   76.2360  221.0050 C   0  0  0  0  0  0  0  0  0  0  0  0
  138.0170   75.6620  222.1410 N   0  0  0  0  0  0  0  0  0  0  0  0
  138.0960   76.5780  223.0920 N   0  0  0  0  0  0  0  0  0  0  0  0
  138.5850   77.7000  222.5250 C   0  0  0  0  0  0  0  0  0  0  0  0
  138.7330   79.0100  223.2520 C   0  0  0  0  0  0  0  0  0  0  0  0
  138.0971   79.7625  222.7627 H   0  0  0  0  0  0  0  0  0  0  0  0
  138.4303   78.8562  224.2983 H   0  0  0  0  0  0  0  0  0  0  0  0
  140.1590   79.4970  223.2440 C   0  0  0  0  0  0  0  0  0  0  0  0
  141.2180   78.5810  223.1380 C   0  0  0  0  0  0  0  0  0  0  0  0
  141.0050   77.5070  223.0325 H   0  0  0  0  0  0  0  0  0  0  0  0
  142.5420   79.0290  223.1660 C   0  0  0  0  0  0  0  0  0  0  0  0
  143.3677   78.3080  223.0745 H   0  0  0  0  0  0  0  0  0  0  0  0
  142.8180   80.3910  223.3100 C   0  0  0  0  0  0  0  0  0  0  0  0
  143.8602   80.7424  223.3281 H   0  0  0  0  0  0  0  0  0  0  0  0
  141.7690   81.3070  223.4310 C   0  0  0  0  0  0  0  0  0  0  0  0
  141.9867   82.3788  223.5484 H   0  0  0  0  0  0  0  0  0  0  0  0
  140.4440   80.8630  223.4030 C   0  0  0  0  0  0  0  0  0  0  0  0
  139.6215   81.5861  223.5059 H   0  0  0  0  0  0  0  0  0  0  0  0
  138.8080   77.5220  221.2040 N   0  0  0  0  0  0  0  0  0  0  0  0
  139.2550   78.5060  220.2110 C   0  0  0  0  0  0  0  0  0  0  0  0
  138.7607   78.2937  219.2516 H   0  0  0  0  0  0  0  0  0  0  0  0
  138.9896   79.5082  220.5787 H   0  0  0  0  0  0  0  0  0  0  0  0
  140.7740   78.4590  220.0080 C   0  0  0  0  0  0  0  0  0  0  0  0
  141.2578   78.3202  220.9861 H   0  0  0  0  0  0  0  0  0  0  0  0
  140.9977   77.6238  219.3280 H   0  0  0  0  0  0  0  0  0  0  0  0
  141.3040   79.7200  219.3800 C   0  0  0  0  0  0  0  0  0  0  0  0
  142.1950   79.6560  218.2970 C   0  0  0  0  0  0  0  0  0  0  0  0
  142.5021   78.6780  217.8980 H   0  0  0  0  0  0  0  0  0  0  0  0
  142.6940   80.8290  217.7230 C   0  0  0  0  0  0  0  0  0  0  0  0
  143.3863   80.7721  216.8701 H   0  0  0  0  0  0  0  0  0  0  0  0
  142.3140   82.0740  218.2320 C   0  0  0  0  0  0  0  0  0  0  0  0
  142.7038   82.9964  217.7768 H   0  0  0  0  0  0  0  0  0  0  0  0
  141.4390   82.1470  219.3190 C   0  0  0  0  0  0  0  0  0  0  0  0
  141.1461   83.1272  219.7232 H   0  0  0  0  0  0  0  0  0  0  0  0
  140.9350   80.9760  219.8940 C   0  0  0  0  0  0  0  0  0  0  0  0
  140.2479   81.0375  220.7508 H   0  0  0  0  0  0  0  0  0  0  0  0
  141.7390   74.4070  220.6270 N   0  0  0  0  0  0  0  0  0  0  0  0
  142.7800   73.3870  220.5980 C   0  0  0  0  0  0  0  0  0  0  0  0
  142.8449   72.8781  221.5711 H   0  0  0  0  0  0  0  0  0  0  0  0
  142.5701   72.6156  219.8424 H   0  0  0  0  0  0  0  0  0  0  0  0
  144.0760   74.1260  220.2990 C   0  0  0  0  0  0  0  0  0  0  0  0
  144.6627   74.2589  221.2200 H   0  0  0  0  0  0  0  0  0  0  0  0
  144.7068   73.5680  219.5914 H   0  0  0  0  0  0  0  0  0  0  0  0
  143.6600   75.4800  219.7340 C   0  0  0  0  0  0  0  0  0  0  0  0
  144.3233   76.2725  220.1107 H   0  0  0  0  0  0  0  0  0  0  0  0
  143.7250   75.4981  218.6361 H   0  0  0  0  0  0  0  0  0  0  0  0
  142.2340   75.7090  220.2150 C   0  0  0  0  0  0  0  0  0  0  0  0
  142.2242   76.4083  221.0641 H   0  0  0  0  0  0  0  0  0  0  0  0
  141.6069   76.1481  219.4251 H   0  0  0  0  0  0  0  0  0  0  0  0
  1  2  1  0
  2  3  1  0
  3  4  2  0
  4  5  1  0
  4  6  1  0
  6  7  1  0
  7  8  2  0
  8  9  1  0
  9 10  2  0
 10 11  1  0
 11 12  1  0
 11 13  1  0
 11 14  1  0
 14 15  2  0
 15 16  1  0
 15 17  1  0
 17 18  1  0
 17 19  2  0
 19 20  1  0
 19 21  1  0
 21 22  1  0
 21 23  2  0
 23 24  1  0
 10 25  1  0
 25 26  1  0
 26 27  1  0
 26 28  1  0
 26 29  1  0
 29 30  1  0
 29 31  1  0
 29 32  1  0
 32 33  2  0
 33 34  1  0
 33 35  1  0
 35 36  1  0
 35 37  2  0
 37 38  1  0
 37 39  1  0
 39 40  1  0
 39 41  2  0
 41 42  1  0
  3 43  1  0
 43 44  1  0
 44 45  1  0
 44 46  1  0
 44 47  1  0
 47 48  1  0
 47 49  1  0
 47 50  1  0
 50 51  1  0
 50 52  1  0
 50 53  1  0
 53 54  1  0
 53 55  1  0
 25  7  1  0
 41 32  1  0
 53 43  1  0
 23 14  1  0
M  END
>  <UniqueID>  (48) 
19

>  <SMILES>  (48) 
O/C(=C\Sc1nnc(Cc2ccccc2)n1CCc1ccccc1)N1CCCC1

>  <Energy>  (48) 
80.57087443506919

>  <Genealogy>  (48) 
OC(=CSc1nnc(Cc2ccccc2)n1CCc1ccccc1)N1CCCC1 (tautomer)
O/C(=C\Sc1nnc(Cc2ccccc2)n1CCc1ccccc1)N1CCCC1 (cis-trans isomerization)
O/C(=C\Sc1nnc(Cc2ccccc2)n1CCc1ccccc1)N1CCCC1 (3D coordinates assigned)
O/C(=C\Sc1nnc(Cc2ccccc2)n1CCc1ccccc1)N1CCCC1 (nonaromatic ring conformer: 80.57087443506919 kcal/mol)

>  <smiles>  (48) 
O=C(CSc1nnc(Cc2ccccc2)n1CCc1ccccc1)N1CCCC1

>  <score_type>  (48) 
oracle

>  <origin>  (48) 
autodockgpu

>  <m_score__min__energy>  (48) 
-8.5099999999999998

>  <m_primary>  (48) 
energy

>  <meeko>  (48) 
{"free_energy": -6.04, "intermolecular_energy": -9.02, "internal_energy": -3.69, "cluster_size": 4, "cluster_id": 6, "rank_in_cluster": 1}

>  <energy>  (48) 
-7.66

>  <cluster_rmsd>  (48) 
0.0

>  <rmsd>  (48) 
271.54

>  <cluster>  (48) 
2

$$$$
AJFQHQFDLMACKV-PYCFMQQDNA-N
     RDKit          3D

 55 58  0  0  0  0  0  0  0  0999 V2000
  142.2260   75.4560  221.6510 H   0  0  0  0  0  0  0  0  0  0  0  0
  141.7430   76.2210  221.1970 O   0  0  0  0  0  0  0  0  0  0  0  0
  140.9000   77.0920  221.8880 C   0  0  0  0  0  0  0  0  0  0  0  0
  139.6250   76.7310  222.0860 C   0  0  0  0  0  0  0  0  0  0  0  0
  139.0788   77.1404  222.9486 H   0  0  0  0  0  0  0  0  0  0  0  0
  138.7870   75.5950  220.9770 S   0  0  0  0  0  0  0  0  0  0  0  0
  139.4120   74.1460  221.8310 C   0  0  0  0  0  0  0  0  0  0  0  0
  140.7240   73.9160  222.0220 N   0  0  0  0  0  0  0  0  0  0  0  0
  140.8260   72.7490  222.6390 N   0  0  0  0  0  0  0  0  0  0  0  0
  139.5730   72.2840  222.8230 C   0  0  0  0  0  0  0  0  0  0  0  0
  139.2580   70.9310  223.4030 C   0  0  0  0  0  0  0  0  0  0  0  0
  138.1670   70.7908  223.4079 H   0  0  0  0  0  0  0  0  0  0  0  0
  139.7514   70.1690  222.7817 H   0  0  0  0  0  0  0  0  0  0  0  0
  139.7740   70.7930  224.8120 C   0  0  0  0  0  0  0  0  0  0  0  0
  139.2990   69.7630  225.6400 C   0  0  0  0  0  0  0  0  0  0  0  0
  138.5692   69.0383  225.2499 H   0  0  0  0  0  0  0  0  0  0  0  0
  139.7510   69.6560  226.9590 C   0  0  0  0  0  0  0  0  0  0  0  0
  139.3814   68.8434  227.6017 H   0  0  0  0  0  0  0  0  0  0  0  0
  140.6710   70.5790  227.4620 C   0  0  0  0  0  0  0  0  0  0  0  0
  141.0286   70.4908  228.4985 H   0  0  0  0  0  0  0  0  0  0  0  0
  141.1370   71.6150  226.6470 C   0  0  0  0  0  0  0  0  0  0  0  0
  141.8583   72.3441  227.0446 H   0  0  0  0  0  0  0  0  0  0  0  0
  140.6880   71.7260  225.3280 C   0  0  0  0  0  0  0  0  0  0  0  0
  141.0517   72.5467  224.6922 H   0  0  0  0  0  0  0  0  0  0  0  0
  138.6570   73.1360  222.3110 N   0  0  0  0  0  0  0  0  0  0  0  0
  137.2010   72.9710  222.2280 C   0  0  0  0  0  0  0  0  0  0  0  0
  136.9254   72.7584  221.1845 H   0  0  0  0  0  0  0  0  0  0  0  0
  136.9121   72.1409  222.8895 H   0  0  0  0  0  0  0  0  0  0  0  0
  136.4590   74.2310  222.6910 C   0  0  0  0  0  0  0  0  0  0  0  0
  137.1991   74.9968  222.9664 H   0  0  0  0  0  0  0  0  0  0  0  0
  135.8207   74.5707  221.8620 H   0  0  0  0  0  0  0  0  0  0  0  0
  135.5720   73.9650  223.8780 C   0  0  0  0  0  0  0  0  0  0  0  0
  135.1520   75.0220  224.7030 C   0  0  0  0  0  0  0  0  0  0  0  0
  135.4661   76.0516  224.4765 H   0  0  0  0  0  0  0  0  0  0  0  0
  134.3370   74.7710  225.8100 C   0  0  0  0  0  0  0  0  0  0  0  0
  134.0050   75.6035  226.4478 H   0  0  0  0  0  0  0  0  0  0  0  0
  133.9430   73.4630  226.1080 C   0  0  0  0  0  0  0  0  0  0  0  0
  133.2979   73.2673  226.9773 H   0  0  0  0  0  0  0  0  0  0  0  0
  134.3690   72.4040  225.3010 C   0  0  0  0  0  0  0  0  0  0  0  0
  134.0650   71.3743  225.5403 H   0  0  0  0  0  0  0  0  0  0  0  0
  135.1810   72.6520  224.1900 C   0  0  0  0  0  0  0  0  0  0  0  0
  135.5149   71.8160  223.5579 H   0  0  0  0  0  0  0  0  0  0  0  0
  141.4050   78.3540  222.3830 N   0  0  0  0  0  0  0  0  0  0  0  0
  141.6070   78.6700  223.7900 C   0  0  0  0  0  0  0  0  0  0  0  0
  140.6791   78.5037  224.3569 H   0  0  0  0  0  0  0  0  0  0  0  0
  142.3812   78.0319  224.2411 H   0  0  0  0  0  0  0  0  0  0  0  0
  141.9980   80.1400  223.8330 C   0  0  0  0  0  0  0  0  0  0  0  0
  141.1386   80.7566  224.1350 H   0  0  0  0  0  0  0  0  0  0  0  0
  142.8006   80.3249  224.5621 H   0  0  0  0  0  0  0  0  0  0  0  0
  142.4340   80.4940  222.4150 C   0  0  0  0  0  0  0  0  0  0  0  0
  142.0846   81.5020  222.1469 H   0  0  0  0  0  0  0  0  0  0  0  0
  143.5295   80.4947  222.3158 H   0  0  0  0  0  0  0  0  0  0  0  0
  141.7890   79.4510  221.5120 C   0  0  0  0  0  0  0  0  0  0  0  0
  140.9034   79.8717  221.0132 H   0  0  0  0  0  0  0  0  0  0  0  0
  142.4788   79.1178  220.7226 H   0  0  0  0  0  0  0  0  0  0  0  0
  1  2  1  0
  2  3  1  0
  3  4  2  0
  4  5  1  0
  4  6  1  0
  6  7  1  0
  7  8  2  0
  8  9  1  0
  9 10  2  0
 10 11  1  0
 11 12  1  0
 11 13  1  0
 11 14  1  0
 14 15  2  0
 15 16  1  0
 15 17  1  0
 17 18  1  0
 17 19  2  0
 19 20  1  0
 19 21  1  0
 21 22  1  0
 21 23  2  0
 23 24  1  0
 10 25  1  0
 25 26  1  0
 26 27  1  0
 26 28  1  0
 26 29  1  0
 29 30  1  0
 29 31  1  0
 29 32  1  0
 32 33  2  0
 33 34  1  0
 33 35  1  0
 35 36  1  0
 35 37  2  0
 37 38  1  0
 37 39  1  0
 39 40  1  0
 39 41  2  0
 41 42  1  0
  3 43  1  0
 43 44  1  0
 44 45  1  0
 44 46  1  0
 44 47  1  0
 47 48  1  0
 47 49  1  0
 47 50  1  0
 50 51  1  0
 50 52  1  0
 50 53  1  0
 53 54  1  0
 53 55  1  0
 25  7  1  0
 41 32  1  0
 53 43  1  0
 23 14  1  0
M  END
>  <UniqueID>  (49) 
19

>  <SMILES>  (49) 
O/C(=C\Sc1nnc(Cc2ccccc2)n1CCc1ccccc1)N1CCCC1

>  <Energy>  (49) 
80.57087443506919

>  <Genealogy>  (49) 
OC(=CSc1nnc(Cc2ccccc2)n1CCc1ccccc1)N1CCCC1 (tautomer)
O/C(=C\Sc1nnc(Cc2ccccc2)n1CCc1ccccc1)N1CCCC1 (cis-trans isomerization)
O/C(=C\Sc1nnc(Cc2ccccc2)n1CCc1ccccc1)N1CCCC1 (3D coordinates assigned)
O/C(=C\Sc1nnc(Cc2ccccc2)n1CCc1ccccc1)N1CCCC1 (nonaromatic ring conformer: 80.57087443506919 kcal/mol)

>  <smiles>  (49) 
O=C(CSc1nnc(Cc2ccccc2)n1CCc1ccccc1)N1CCCC1

>  <score_type>  (49) 
oracle

>  <origin>  (49) 
autodockgpu

>  <m_score__min__energy>  (49) 
-8.5099999999999998

>  <m_primary>  (49) 
energy

>  <meeko>  (49) 
{"free_energy": -7.66, "intermolecular_energy": -10.64, "internal_energy": -2.0, "cluster_size": 3, "cluster_id": 2, "rank_in_cluster": 1}

>  <energy>  (49) 
-7.28

>  <cluster_rmsd>  (49) 
1.24

>  <rmsd>  (49) 
271.28

>  <cluster>  (49) 
2

$$$$
AJFQHQFDLMACKV-PYCFMQQDNA-N
     RDKit          3D

 55 58  0  0  0  0  0  0  0  0999 V2000
  138.2270   73.4110  222.7530 H   0  0  0  0  0  0  0  0  0  0  0  0
  138.0920   72.4120  222.6560 O   0  0  0  0  0  0  0  0  0  0  0  0
  139.1570   71.5160  222.5540 C   0  0  0  0  0  0  0  0  0  0  0  0
  139.7620   71.3690  221.3690 C   0  0  0  0  0  0  0  0  0  0  0  0
  139.2603   70.7916  220.5785 H   0  0  0  0  0  0  0  0  0  0  0  0
  141.3720   72.0910  221.0380 S   0  0  0  0  0  0  0  0  0  0  0  0
  140.8000   73.7600  221.3690 C   0  0  0  0  0  0  0  0  0  0  0  0
  139.9560   74.0600  222.3730 N   0  0  0  0  0  0  0  0  0  0  0  0
  139.7140   75.3600  222.2980 N   0  0  0  0  0  0  0  0  0  0  0  0
  140.4190   75.8370  221.2510 C   0  0  0  0  0  0  0  0  0  0  0  0
  140.3380   77.2590  220.7660 C   0  0  0  0  0  0  0  0  0  0  0  0
  140.7665   77.3150  219.7545 H   0  0  0  0  0  0  0  0  0  0  0  0
  139.2799   77.5597  220.7649 H   0  0  0  0  0  0  0  0  0  0  0  0
  141.0910   78.2020  221.6670 C   0  0  0  0  0  0  0  0  0  0  0  0
  141.1280   77.9780  223.0530 C   0  0  0  0  0  0  0  0  0  0  0  0
  140.6284   77.0952  223.4786 H   0  0  0  0  0  0  0  0  0  0  0  0
  141.7970   78.8720  223.8940 C   0  0  0  0  0  0  0  0  0  0  0  0
  141.8282   78.6880  224.9780 H   0  0  0  0  0  0  0  0  0  0  0  0
  142.4260   79.9990  223.3590 C   0  0  0  0  0  0  0  0  0  0  0  0
  142.9558   80.6996  224.0212 H   0  0  0  0  0  0  0  0  0  0  0  0
  142.3820   80.2360  221.9830 C   0  0  0  0  0  0  0  0  0  0  0  0
  142.8742   81.1258  221.5635 H   0  0  0  0  0  0  0  0  0  0  0  0
  141.7140   79.3450  221.1380 C   0  0  0  0  0  0  0  0  0  0  0  0
  141.6760   79.5392  220.0559 H   0  0  0  0  0  0  0  0  0  0  0  0
  141.1060   74.8490  220.6350 N   0  0  0  0  0  0  0  0  0  0  0  0
  141.9220   74.9260  219.4180 C   0  0  0  0  0  0  0  0  0  0  0  0
  142.0017   73.9209  218.9782 H   0  0  0  0  0  0  0  0  0  0  0  0
  141.4337   75.6237  218.7217 H   0  0  0  0  0  0  0  0  0  0  0  0
  143.3320   75.4530  219.7120 C   0  0  0  0  0  0  0  0  0  0  0  0
  143.6523   76.0925  218.8763 H   0  0  0  0  0  0  0  0  0  0  0  0
  143.2912   76.0169  220.6556 H   0  0  0  0  0  0  0  0  0  0  0  0
  144.3320   74.3410  219.8820 C   0  0  0  0  0  0  0  0  0  0  0  0
  144.2430   73.1780  219.1010 C   0  0  0  0  0  0  0  0  0  0  0  0
  143.4423   73.0811  218.3530 H   0  0  0  0  0  0  0  0  0  0  0  0
  145.1670   72.1420  219.2690 C   0  0  0  0  0  0  0  0  0  0  0  0
  145.0962   71.2362  218.6489 H   0  0  0  0  0  0  0  0  0  0  0  0
  146.1810   72.2570  220.2250 C   0  0  0  0  0  0  0  0  0  0  0  0
  146.9107   71.4440  220.3535 H   0  0  0  0  0  0  0  0  0  0  0  0
  146.2670   73.4050  221.0170 C   0  0  0  0  0  0  0  0  0  0  0  0
  147.0602   73.4913  221.7742 H   0  0  0  0  0  0  0  0  0  0  0  0
  145.3470   74.4440  220.8490 C   0  0  0  0  0  0  0  0  0  0  0  0
  145.4176   75.3453  221.4757 H   0  0  0  0  0  0  0  0  0  0  0  0
  139.5940   70.7730  223.7150 N   0  0  0  0  0  0  0  0  0  0  0  0
  140.5010   71.2870  224.7330 C   0  0  0  0  0  0  0  0  0  0  0  0
  141.4315   71.6476  224.2702 H   0  0  0  0  0  0  0  0  0  0  0  0
  140.0600   72.1351  225.2772 H   0  0  0  0  0  0  0  0  0  0  0  0
  140.7900   70.1150  225.6610 C   0  0  0  0  0  0  0  0  0  0  0  0
  141.7776   69.6846  225.4389 H   0  0  0  0  0  0  0  0  0  0  0  0
  140.8031   70.4265  226.7159 H   0  0  0  0  0  0  0  0  0  0  0  0
  139.6910   69.0920  225.3900 C   0  0  0  0  0  0  0  0  0  0  0  0
  140.1031   68.0723  225.4105 H   0  0  0  0  0  0  0  0  0  0  0  0
  138.8991   69.1364  226.1522 H   0  0  0  0  0  0  0  0  0  0  0  0
  139.1540   69.4190  224.0040 C   0  0  0  0  0  0  0  0  0  0  0  0
  139.5612   68.7177  223.2608 H   0  0  0  0  0  0  0  0  0  0  0  0
  138.0580   69.3339  223.9654 H   0  0  0  0  0  0  0  0  0  0  0  0
  1  2  1  0
  2  3  1  0
  3  4  2  0
  4  5  1  0
  4  6  1  0
  6  7  1  0
  7  8  2  0
  8  9  1  0
  9 10  2  0
 10 11  1  0
 11 12  1  0
 11 13  1  0
 11 14  1  0
 14 15  2  0
 15 16  1  0
 15 17  1  0
 17 18  1  0
 17 19  2  0
 19 20  1  0
 19 21  1  0
 21 22  1  0
 21 23  2  0
 23 24  1  0
 10 25  1  0
 25 26  1  0
 26 27  1  0
 26 28  1  0
 26 29  1  0
 29 30  1  0
 29 31  1  0
 29 32  1  0
 32 33  2  0
 33 34  1  0
 33 35  1  0
 35 36  1  0
 35 37  2  0
 37 38  1  0
 37 39  1  0
 39 40  1  0
 39 41  2  0
 41 42  1  0
  3 43  1  0
 43 44  1  0
 44 45  1  0
 44 46  1  0
 44 47  1  0
 47 48  1  0
 47 49  1  0
 47 50  1  0
 50 51  1  0
 50 52  1  0
 50 53  1  0
 53 54  1  0
 53 55  1  0
 25  7  1  0
 41 32  1  0
 53 43  1  0
 23 14  1  0
M  END
>  <UniqueID>  (50) 
19

>  <SMILES>  (50) 
O/C(=C\Sc1nnc(Cc2ccccc2)n1CCc1ccccc1)N1CCCC1

>  <Energy>  (50) 
80.57087443506919

>  <Genealogy>  (50) 
OC(=CSc1nnc(Cc2ccccc2)n1CCc1ccccc1)N1CCCC1 (tautomer)
O/C(=C\Sc1nnc(Cc2ccccc2)n1CCc1ccccc1)N1CCCC1 (cis-trans isomerization)
O/C(=C\Sc1nnc(Cc2ccccc2)n1CCc1ccccc1)N1CCCC1 (3D coordinates assigned)
O/C(=C\Sc1nnc(Cc2ccccc2)n1CCc1ccccc1)N1CCCC1 (nonaromatic ring conformer: 80.57087443506919 kcal/mol)

>  <smiles>  (50) 
O=C(CSc1nnc(Cc2ccccc2)n1CCc1ccccc1)N1CCCC1

>  <score_type>  (50) 
oracle

>  <origin>  (50) 
autodockgpu

>  <m_score__min__energy>  (50) 
-8.5099999999999998

>  <m_primary>  (50) 
energy

>  <meeko>  (50) 
{"free_energy": -8.07, "intermolecular_energy": -11.05, "internal_energy": -2.32, "cluster_size": 7, "cluster_id": 1, "rank_in_cluster": 6}

>  <energy>  (50) 
-6.13

>  <cluster_rmsd>  (50) 
1.54

>  <rmsd>  (50) 
270.8

>  <cluster>  (50) 
2

$$$$
AJFQHQFDLMACKV-PYCFMQQDNA-N
     RDKit          3D

 55 58  0  0  0  0  0  0  0  0999 V2000
  139.5200   74.3210  223.0580 H   0  0  0  0  0  0  0  0  0  0  0  0
  139.2090   75.2330  222.7460 O   0  0  0  0  0  0  0  0  0  0  0  0
  139.5850   75.7750  221.5160 C   0  0  0  0  0  0  0  0  0  0  0  0
  139.1480   75.1880  220.3940 C   0  0  0  0  0  0  0  0  0  0  0  0
  138.3545   75.6748  219.8080 H   0  0  0  0  0  0  0  0  0  0  0  0
  139.8250   73.6270  219.8230 S   0  0  0  0  0  0  0  0  0  0  0  0
  139.7660   72.8910  221.4590 C   0  0  0  0  0  0  0  0  0  0  0  0
  140.7640   73.0110  222.3540 N   0  0  0  0  0  0  0  0  0  0  0  0
  140.4100   72.3160  223.4230 N   0  0  0  0  0  0  0  0  0  0  0  0
  139.1960   71.7850  223.1700 C   0  0  0  0  0  0  0  0  0  0  0  0
  138.4850   70.8390  224.1000 C   0  0  0  0  0  0  0  0  0  0  0  0
  137.6555   71.3736  224.5860 H   0  0  0  0  0  0  0  0  0  0  0  0
  138.1143   69.9901  223.5067 H   0  0  0  0  0  0  0  0  0  0  0  0
  139.4070   70.3010  225.1620 C   0  0  0  0  0  0  0  0  0  0  0  0
  139.5800   68.9150  225.3130 C   0  0  0  0  0  0  0  0  0  0  0  0
  139.0615   68.2211  224.6351 H   0  0  0  0  0  0  0  0  0  0  0  0
  140.4090   68.4140  226.3220 C   0  0  0  0  0  0  0  0  0  0  0  0
  140.5468   67.3281  226.4312 H   0  0  0  0  0  0  0  0  0  0  0  0
  141.0620   69.2910  227.1910 C   0  0  0  0  0  0  0  0  0  0  0  0
  141.7168   68.8955  227.9814 H   0  0  0  0  0  0  0  0  0  0  0  0
  140.8840   70.6710  227.0570 C   0  0  0  0  0  0  0  0  0  0  0  0
  141.3950   71.3603  227.7453 H   0  0  0  0  0  0  0  0  0  0  0  0
  140.0570   71.1760  226.0490 C   0  0  0  0  0  0  0  0  0  0  0  0
  139.9147   72.2622  225.9499 H   0  0  0  0  0  0  0  0  0  0  0  0
  138.7670   72.1180  221.9320 N   0  0  0  0  0  0  0  0  0  0  0  0
  137.5490   71.6830  221.2390 C   0  0  0  0  0  0  0  0  0  0  0  0
  137.8270   71.2557  220.2642 H   0  0  0  0  0  0  0  0  0  0  0  0
  137.0454   70.9349  221.8688 H   0  0  0  0  0  0  0  0  0  0  0  0
  136.5780   72.8470  221.0120 C   0  0  0  0  0  0  0  0  0  0  0  0
  137.0515   73.5768  220.3389 H   0  0  0  0  0  0  0  0  0  0  0  0
  135.6563   72.4365  220.5739 H   0  0  0  0  0  0  0  0  0  0  0  0
  136.2090   73.5410  222.2970 C   0  0  0  0  0  0  0  0  0  0  0  0
  135.7620   72.7990  223.4030 C   0  0  0  0  0  0  0  0  0  0  0  0
  135.6886   71.7036  223.3341 H   0  0  0  0  0  0  0  0  0  0  0  0
  135.4100   73.4470  224.5910 C   0  0  0  0  0  0  0  0  0  0  0  0
  135.0666   72.8603  225.4558 H   0  0  0  0  0  0  0  0  0  0  0  0
  135.4940   74.8390  224.6810 C   0  0  0  0  0  0  0  0  0  0  0  0
  135.2226   75.3469  225.6182 H   0  0  0  0  0  0  0  0  0  0  0  0
  135.9230   75.5860  223.5800 C   0  0  0  0  0  0  0  0  0  0  0  0
  135.9807   76.6823  223.6488 H   0  0  0  0  0  0  0  0  0  0  0  0
  136.2790   74.9410  222.3910 C   0  0  0  0  0  0  0  0  0  0  0  0
  136.6150   75.5321  221.5263 H   0  0  0  0  0  0  0  0  0  0  0  0
  140.4250   76.9510  221.4670 N   0  0  0  0  0  0  0  0  0  0  0  0
  140.7870   77.6600  220.2460 C   0  0  0  0  0  0  0  0  0  0  0  0
  141.2398   76.9677  219.5209 H   0  0  0  0  0  0  0  0  0  0  0  0
  139.9066   78.1067  219.7610 H   0  0  0  0  0  0  0  0  0  0  0  0
  141.7940   78.7210  220.6660 C   0  0  0  0  0  0  0  0  0  0  0  0
  142.8159   78.3999  220.4160 H   0  0  0  0  0  0  0  0  0  0  0  0
  141.6186   79.6747  220.1466 H   0  0  0  0  0  0  0  0  0  0  0  0
  141.6370   78.8660  222.1760 C   0  0  0  0  0  0  0  0  0  0  0  0
  142.6192   79.0027  222.6521 H   0  0  0  0  0  0  0  0  0  0  0  0
  141.0259   79.7424  222.4377 H   0  0  0  0  0  0  0  0  0  0  0  0
  140.9930   77.5710  222.6510 C   0  0  0  0  0  0  0  0  0  0  0  0
  141.7484   76.9115  223.1032 H   0  0  0  0  0  0  0  0  0  0  0  0
  140.2253   77.7588  223.4161 H   0  0  0  0  0  0  0  0  0  0  0  0
  1  2  1  0
  2  3  1  0
  3  4  2  0
  4  5  1  0
  4  6  1  0
  6  7  1  0
  7  8  2  0
  8  9  1  0
  9 10  2  0
 10 11  1  0
 11 12  1  0
 11 13  1  0
 11 14  1  0
 14 15  2  0
 15 16  1  0
 15 17  1  0
 17 18  1  0
 17 19  2  0
 19 20  1  0
 19 21  1  0
 21 22  1  0
 21 23  2  0
 23 24  1  0
 10 25  1  0
 25 26  1  0
 26 27  1  0
 26 28  1  0
 26 29  1  0
 29 30  1  0
 29 31  1  0
 29 32  1  0
 32 33  2  0
 33 34  1  0
 33 35  1  0
 35 36  1  0
 35 37  2  0
 37 38  1  0
 37 39  1  0
 39 40  1  0
 39 41  2  0
 41 42  1  0
  3 43  1  0
 43 44  1  0
 44 45  1  0
 44 46  1  0
 44 47  1  0
 47 48  1  0
 47 49  1  0
 47 50  1  0
 50 51  1  0
 50 52  1  0
 50 53  1  0
 53 54  1  0
 53 55  1  0
 25  7  1  0
 41 32  1  0
 53 43  1  0
 23 14  1  0
M  END
>  <UniqueID>  (51) 
19

>  <SMILES>  (51) 
O/C(=C\Sc1nnc(Cc2ccccc2)n1CCc1ccccc1)N1CCCC1

>  <Energy>  (51) 
80.57087443506919

>  <Genealogy>  (51) 
OC(=CSc1nnc(Cc2ccccc2)n1CCc1ccccc1)N1CCCC1 (tautomer)
O/C(=C\Sc1nnc(Cc2ccccc2)n1CCc1ccccc1)N1CCCC1 (cis-trans isomerization)
O/C(=C\Sc1nnc(Cc2ccccc2)n1CCc1ccccc1)N1CCCC1 (3D coordinates assigned)
O/C(=C\Sc1nnc(Cc2ccccc2)n1CCc1ccccc1)N1CCCC1 (nonaromatic ring conformer: 80.57087443506919 kcal/mol)

>  <smiles>  (51) 
O=C(CSc1nnc(Cc2ccccc2)n1CCc1ccccc1)N1CCCC1

>  <score_type>  (51) 
oracle

>  <origin>  (51) 
autodockgpu

>  <m_score__min__energy>  (51) 
-8.5099999999999998

>  <m_primary>  (51) 
energy

>  <meeko>  (51) 
{"free_energy": -6.13, "intermolecular_energy": -9.11, "internal_energy": -3.27, "cluster_size": 3, "cluster_id": 2, "rank_in_cluster": 3}

>  <energy>  (51) 
-7.04

>  <cluster_rmsd>  (51) 
0.0

>  <rmsd>  (51) 
271.37

>  <cluster>  (51) 
3

$$$$
AJFQHQFDLMACKV-PYCFMQQDNA-N
     RDKit          3D

 55 58  0  0  0  0  0  0  0  0999 V2000
  138.4240   72.9940  223.0950 H   0  0  0  0  0  0  0  0  0  0  0  0
  138.7500   72.0360  223.0760 O   0  0  0  0  0  0  0  0  0  0  0  0
  140.0320   71.6690  223.4880 C   0  0  0  0  0  0  0  0  0  0  0  0
  141.0680   71.9410  222.6840 C   0  0  0  0  0  0  0  0  0  0  0  0
  142.0892   71.8956  223.0903 H   0  0  0  0  0  0  0  0  0  0  0  0
  140.8300   72.3780  220.9590 S   0  0  0  0  0  0  0  0  0  0  0  0
  140.5330   74.1070  221.3370 C   0  0  0  0  0  0  0  0  0  0  0  0
  139.7430   74.5120  222.3480 N   0  0  0  0  0  0  0  0  0  0  0  0
  139.7140   75.8350  222.3090 N   0  0  0  0  0  0  0  0  0  0  0  0
  140.4930   76.2220  221.2780 C   0  0  0  0  0  0  0  0  0  0  0  0
  140.6440   77.6510  220.8330 C   0  0  0  0  0  0  0  0  0  0  0  0
  141.2460   77.6755  219.9127 H   0  0  0  0  0  0  0  0  0  0  0  0
  139.6389   78.0629  220.6593 H   0  0  0  0  0  0  0  0  0  0  0  0
  141.3210   78.4950  221.8810 C   0  0  0  0  0  0  0  0  0  0  0  0
  141.2340   78.1410  223.2380 C   0  0  0  0  0  0  0  0  0  0  0  0
  140.6925   77.2301  223.5329 H   0  0  0  0  0  0  0  0  0  0  0  0
  141.8330   78.9420  224.2150 C   0  0  0  0  0  0  0  0  0  0  0  0
  141.7696   78.6555  225.2751 H   0  0  0  0  0  0  0  0  0  0  0  0
  142.5120   80.1060  223.8460 C   0  0  0  0  0  0  0  0  0  0  0  0
  142.9853   80.7337  224.6153 H   0  0  0  0  0  0  0  0  0  0  0  0
  142.5900   80.4730  222.5000 C   0  0  0  0  0  0  0  0  0  0  0  0
  143.1211   81.3919  222.2112 H   0  0  0  0  0  0  0  0  0  0  0  0
  141.9940   79.6740  221.5200 C   0  0  0  0  0  0  0  0  0  0  0  0
  142.0522   79.9696  220.4621 H   0  0  0  0  0  0  0  0  0  0  0  0
  141.0140   75.1540  220.6340 N   0  0  0  0  0  0  0  0  0  0  0  0
  141.8390   75.1310  219.4210 C   0  0  0  0  0  0  0  0  0  0  0  0
  141.8637   74.1045  219.0265 H   0  0  0  0  0  0  0  0  0  0  0  0
  141.3944   75.8240  218.6916 H   0  0  0  0  0  0  0  0  0  0  0  0
  143.2750   75.5900  219.7010 C   0  0  0  0  0  0  0  0  0  0  0  0
  143.6209   76.2052  218.8573 H   0  0  0  0  0  0  0  0  0  0  0  0
  143.2687   76.1637  220.6395 H   0  0  0  0  0  0  0  0  0  0  0  0
  144.2200   74.4310  219.8750 C   0  0  0  0  0  0  0  0  0  0  0  0
  145.2560   74.4930  220.8210 C   0  0  0  0  0  0  0  0  0  0  0  0
  145.3740   75.3905  221.4459 H   0  0  0  0  0  0  0  0  0  0  0  0
  146.1380   73.4190  220.9720 C   0  0  0  0  0  0  0  0  0  0  0  0
  146.9428   73.4704  221.7201 H   0  0  0  0  0  0  0  0  0  0  0  0
  145.9990   72.2800  220.1740 C   0  0  0  0  0  0  0  0  0  0  0  0
  146.6909   71.4338  220.2973 H   0  0  0  0  0  0  0  0  0  0  0  0
  144.9800   72.2170  219.2190 C   0  0  0  0  0  0  0  0  0  0  0  0
  144.8756   71.3239  218.5854 H   0  0  0  0  0  0  0  0  0  0  0  0
  144.0930   73.2880  219.0680 C   0  0  0  0  0  0  0  0  0  0  0  0
  143.2932   73.2351  218.3147 H   0  0  0  0  0  0  0  0  0  0  0  0
  140.2260   71.0170  224.7640 N   0  0  0  0  0  0  0  0  0  0  0  0
  141.0200   71.5580  225.8580 C   0  0  0  0  0  0  0  0  0  0  0  0
  142.0369   71.7953  225.5123 H   0  0  0  0  0  0  0  0  0  0  0  0
  140.5858   72.4890  226.2513 H   0  0  0  0  0  0  0  0  0  0  0  0
  141.0620   70.4680  226.9190 C   0  0  0  0  0  0  0  0  0  0  0  0
  142.0265   69.9401  226.8883 H   0  0  0  0  0  0  0  0  0  0  0  0
  140.9530   70.8833  227.9317 H   0  0  0  0  0  0  0  0  0  0  0  0
  139.9230   69.5140  226.5770 C   0  0  0  0  0  0  0  0  0  0  0  0
  140.2301   68.4723  226.7519 H   0  0  0  0  0  0  0  0  0  0  0  0
  139.0374   69.6998  227.2024 H   0  0  0  0  0  0  0  0  0  0  0  0
  139.6240   69.7380  225.1010 C   0  0  0  0  0  0  0  0  0  0  0  0
  140.0671   68.9345  224.4943 H   0  0  0  0  0  0  0  0  0  0  0  0
  138.5421   69.7353  224.9024 H   0  0  0  0  0  0  0  0  0  0  0  0
  1  2  1  0
  2  3  1  0
  3  4  2  0
  4  5  1  0
  4  6  1  0
  6  7  1  0
  7  8  2  0
  8  9  1  0
  9 10  2  0
 10 11  1  0
 11 12  1  0
 11 13  1  0
 11 14  1  0
 14 15  2  0
 15 16  1  0
 15 17  1  0
 17 18  1  0
 17 19  2  0
 19 20  1  0
 19 21  1  0
 21 22  1  0
 21 23  2  0
 23 24  1  0
 10 25  1  0
 25 26  1  0
 26 27  1  0
 26 28  1  0
 26 29  1  0
 29 30  1  0
 29 31  1  0
 29 32  1  0
 32 33  2  0
 33 34  1  0
 33 35  1  0
 35 36  1  0
 35 37  2  0
 37 38  1  0
 37 39  1  0
 39 40  1  0
 39 41  2  0
 41 42  1  0
  3 43  1  0
 43 44  1  0
 44 45  1  0
 44 46  1  0
 44 47  1  0
 47 48  1  0
 47 49  1  0
 47 50  1  0
 50 51  1  0
 50 52  1  0
 50 53  1  0
 53 54  1  0
 53 55  1  0
 25  7  1  0
 41 32  1  0
 53 43  1  0
 23 14  1  0
M  END
>  <UniqueID>  (52) 
19

>  <SMILES>  (52) 
O/C(=C\Sc1nnc(Cc2ccccc2)n1CCc1ccccc1)N1CCCC1

>  <Energy>  (52) 
80.57087443506919

>  <Genealogy>  (52) 
OC(=CSc1nnc(Cc2ccccc2)n1CCc1ccccc1)N1CCCC1 (tautomer)
O/C(=C\Sc1nnc(Cc2ccccc2)n1CCc1ccccc1)N1CCCC1 (cis-trans isomerization)
O/C(=C\Sc1nnc(Cc2ccccc2)n1CCc1ccccc1)N1CCCC1 (3D coordinates assigned)
O/C(=C\Sc1nnc(Cc2ccccc2)n1CCc1ccccc1)N1CCCC1 (nonaromatic ring conformer: 80.57087443506919 kcal/mol)

>  <smiles>  (52) 
O=C(CSc1nnc(Cc2ccccc2)n1CCc1ccccc1)N1CCCC1

>  <score_type>  (52) 
oracle

>  <origin>  (52) 
autodockgpu

>  <m_score__min__energy>  (52) 
-8.5099999999999998

>  <m_primary>  (52) 
energy

>  <meeko>  (52) 
{"free_energy": -8.51, "intermolecular_energy": -11.49, "internal_energy": -2.25, "cluster_size": 7, "cluster_id": 1, "rank_in_cluster": 1}

>  <energy>  (52) 
-7.03

>  <cluster_rmsd>  (52) 
0.06

>  <rmsd>  (52) 
271.36

>  <cluster>  (52) 
3

$$$$
AJFQHQFDLMACKV-PYCFMQQDNA-N
     RDKit          3D

 55 58  0  0  0  0  0  0  0  0999 V2000
  138.1360   74.5570  222.7240 H   0  0  0  0  0  0  0  0  0  0  0  0
  137.1800   74.8360  222.5440 O   0  0  0  0  0  0  0  0  0  0  0  0
  136.6410   76.0270  223.0330 C   0  0  0  0  0  0  0  0  0  0  0  0
  137.0960   77.1880  222.5430 C   0  0  0  0  0  0  0  0  0  0  0  0
  136.4468   77.7837  221.8844 H   0  0  0  0  0  0  0  0  0  0  0  0
  138.7390   77.7950  222.9350 S   0  0  0  0  0  0  0  0  0  0  0  0
  139.5500   76.4220  222.1110 C   0  0  0  0  0  0  0  0  0  0  0  0
  139.6530   75.1960  222.6550 N   0  0  0  0  0  0  0  0  0  0  0  0
  140.3400   74.4510  221.8040 N   0  0  0  0  0  0  0  0  0  0  0  0
  140.6430   75.2320  220.7460 C   0  0  0  0  0  0  0  0  0  0  0  0
  141.5090   74.7870  219.5980 C   0  0  0  0  0  0  0  0  0  0  0  0
  140.9705   74.0197  219.0225 H   0  0  0  0  0  0  0  0  0  0  0  0
  141.7294   75.6665  218.9752 H   0  0  0  0  0  0  0  0  0  0  0  0
  142.8170   74.2110  220.0740 C   0  0  0  0  0  0  0  0  0  0  0  0
  143.9740   75.0080  220.0960 C   0  0  0  0  0  0  0  0  0  0  0  0
  143.9183   76.0632  219.7903 H   0  0  0  0  0  0  0  0  0  0  0  0
  145.1960   74.4650  220.5050 C   0  0  0  0  0  0  0  0  0  0  0  0
  146.0973   75.0951  220.5275 H   0  0  0  0  0  0  0  0  0  0  0  0
  145.2730   73.1230  220.8850 C   0  0  0  0  0  0  0  0  0  0  0  0
  146.2342   72.6978  221.2096 H   0  0  0  0  0  0  0  0  0  0  0  0
  144.1290   72.3200  220.8530 C   0  0  0  0  0  0  0  0  0  0  0  0
  144.1917   71.2625  221.1494 H   0  0  0  0  0  0  0  0  0  0  0  0
  142.9060   72.8590  220.4450 C   0  0  0  0  0  0  0  0  0  0  0  0
  142.0096   72.2222  220.4142 H   0  0  0  0  0  0  0  0  0  0  0  0
  140.1700   76.4870  220.9140 N   0  0  0  0  0  0  0  0  0  0  0  0
  140.3520   77.6560  220.0470 C   0  0  0  0  0  0  0  0  0  0  0  0
  140.2330   77.3440  218.9989 H   0  0  0  0  0  0  0  0  0  0  0  0
  139.5981   78.4077  220.3238 H   0  0  0  0  0  0  0  0  0  0  0  0
  141.7390   78.2850  220.2230 C   0  0  0  0  0  0  0  0  0  0  0  0
  142.4792   77.4810  220.3480 H   0  0  0  0  0  0  0  0  0  0  0  0
  141.9512   78.8896  219.3289 H   0  0  0  0  0  0  0  0  0  0  0  0
  141.8040   79.1940  221.4210 C   0  0  0  0  0  0  0  0  0  0  0  0
  141.8960   78.6590  222.7170 C   0  0  0  0  0  0  0  0  0  0  0  0
  141.9296   77.5686  222.8580 H   0  0  0  0  0  0  0  0  0  0  0  0
  141.9450   79.5060  223.8280 C   0  0  0  0  0  0  0  0  0  0  0  0
  142.0246   79.0812  224.8396 H   0  0  0  0  0  0  0  0  0  0  0  0
  141.8930   80.8920  223.6550 C   0  0  0  0  0  0  0  0  0  0  0  0
  141.9355   81.5576  224.5297 H   0  0  0  0  0  0  0  0  0  0  0  0
  141.7870   81.4320  222.3700 C   0  0  0  0  0  0  0  0  0  0  0  0
  141.7397   82.5226  222.2349 H   0  0  0  0  0  0  0  0  0  0  0  0
  141.7410   80.5880  221.2560 C   0  0  0  0  0  0  0  0  0  0  0  0
  141.6552   81.0170  220.2467 H   0  0  0  0  0  0  0  0  0  0  0  0
  135.6070   75.9960  224.0440 N   0  0  0  0  0  0  0  0  0  0  0  0
  134.6210   77.0480  224.2510 C   0  0  0  0  0  0  0  0  0  0  0  0
  135.1199   78.0174  224.3975 H   0  0  0  0  0  0  0  0  0  0  0  0
  133.9543   77.1551  223.3826 H   0  0  0  0  0  0  0  0  0  0  0  0
  133.8510   76.6530  225.5040 C   0  0  0  0  0  0  0  0  0  0  0  0
  134.2007   77.2363  226.3686 H   0  0  0  0  0  0  0  0  0  0  0  0
  132.7739   76.8484  225.3964 H   0  0  0  0  0  0  0  0  0  0  0  0
  134.1350   75.1690  225.7140 C   0  0  0  0  0  0  0  0  0  0  0  0
  134.2575   74.9501  226.7850 H   0  0  0  0  0  0  0  0  0  0  0  0
  133.3082   74.5424  225.3482 H   0  0  0  0  0  0  0  0  0  0  0  0
  135.4290   74.8850  224.9630 C   0  0  0  0  0  0  0  0  0  0  0  0
  136.2744   74.8293  225.6645 H   0  0  0  0  0  0  0  0  0  0  0  0
  135.3848   73.9233  224.4309 H   0  0  0  0  0  0  0  0  0  0  0  0
  1  2  1  0
  2  3  1  0
  3  4  2  0
  4  5  1  0
  4  6  1  0
  6  7  1  0
  7  8  2  0
  8  9  1  0
  9 10  2  0
 10 11  1  0
 11 12  1  0
 11 13  1  0
 11 14  1  0
 14 15  2  0
 15 16  1  0
 15 17  1  0
 17 18  1  0
 17 19  2  0
 19 20  1  0
 19 21  1  0
 21 22  1  0
 21 23  2  0
 23 24  1  0
 10 25  1  0
 25 26  1  0
 26 27  1  0
 26 28  1  0
 26 29  1  0
 29 30  1  0
 29 31  1  0
 29 32  1  0
 32 33  2  0
 33 34  1  0
 33 35  1  0
 35 36  1  0
 35 37  2  0
 37 38  1  0
 37 39  1  0
 39 40  1  0
 39 41  2  0
 41 42  1  0
  3 43  1  0
 43 44  1  0
 44 45  1  0
 44 46  1  0
 44 47  1  0
 47 48  1  0
 47 49  1  0
 47 50  1  0
 50 51  1  0
 50 52  1  0
 50 53  1  0
 53 54  1  0
 53 55  1  0
 25  7  1  0
 41 32  1  0
 53 43  1  0
 23 14  1  0
M  END
>  <UniqueID>  (53) 
19

>  <SMILES>  (53) 
O/C(=C\Sc1nnc(Cc2ccccc2)n1CCc1ccccc1)N1CCCC1

>  <Energy>  (53) 
80.57087443506919

>  <Genealogy>  (53) 
OC(=CSc1nnc(Cc2ccccc2)n1CCc1ccccc1)N1CCCC1 (tautomer)
O/C(=C\Sc1nnc(Cc2ccccc2)n1CCc1ccccc1)N1CCCC1 (cis-trans isomerization)
O/C(=C\Sc1nnc(Cc2ccccc2)n1CCc1ccccc1)N1CCCC1 (3D coordinates assigned)
O/C(=C\Sc1nnc(Cc2ccccc2)n1CCc1ccccc1)N1CCCC1 (nonaromatic ring conformer: 80.57087443506919 kcal/mol)

>  <smiles>  (53) 
O=C(CSc1nnc(Cc2ccccc2)n1CCc1ccccc1)N1CCCC1

>  <score_type>  (53) 
oracle

>  <origin>  (53) 
autodockgpu

>  <m_score__min__energy>  (53) 
-8.5099999999999998

>  <m_primary>  (53) 
energy

>  <meeko>  (53) 
{"free_energy": -7.04, "intermolecular_energy": -10.02, "internal_energy": -2.72, "cluster_size": 4, "cluster_id": 3, "rank_in_cluster": 1}

>  <energy>  (53) 
-7.01

>  <cluster_rmsd>  (53) 
0.16

>  <rmsd>  (53) 
271.4

>  <cluster>  (53) 
3

$$$$
AJFQHQFDLMACKV-PYCFMQQDNA-N
     RDKit          3D

 55 58  0  0  0  0  0  0  0  0999 V2000
  138.2060   72.8050  223.2760 H   0  0  0  0  0  0  0  0  0  0  0  0
  138.4650   71.8590  223.5240 O   0  0  0  0  0  0  0  0  0  0  0  0
  139.7900   71.4740  223.7370 C   0  0  0  0  0  0  0  0  0  0  0  0
  140.6720   71.6260  222.7410 C   0  0  0  0  0  0  0  0  0  0  0  0
  141.7461   71.5218  222.9544 H   0  0  0  0  0  0  0  0  0  0  0  0
  140.1430   71.9960  221.0650 S   0  0  0  0  0  0  0  0  0  0  0  0
  140.1030   73.7650  221.3650 C   0  0  0  0  0  0  0  0  0  0  0  0
  139.4770   74.3160  222.4200 N   0  0  0  0  0  0  0  0  0  0  0  0
  139.6080   75.6280  222.3050 N   0  0  0  0  0  0  0  0  0  0  0  0
  140.3180   75.8610  221.1820 C   0  0  0  0  0  0  0  0  0  0  0  0
  140.5990   77.2370  220.6390 C   0  0  0  0  0  0  0  0  0  0  0  0
  141.3088   77.1517  219.8030 H   0  0  0  0  0  0  0  0  0  0  0  0
  139.6462   77.6741  220.3058 H   0  0  0  0  0  0  0  0  0  0  0  0
  141.1880   78.1430  221.6880 C   0  0  0  0  0  0  0  0  0  0  0  0
  141.7950   79.3540  221.3170 C   0  0  0  0  0  0  0  0  0  0  0  0
  141.8158   79.6547  220.2591 H   0  0  0  0  0  0  0  0  0  0  0  0
  142.3730   80.1790  222.2870 C   0  0  0  0  0  0  0  0  0  0  0  0
  142.8408   81.1298  221.9916 H   0  0  0  0  0  0  0  0  0  0  0  0
  142.3570   79.7970  223.6310 C   0  0  0  0  0  0  0  0  0  0  0  0
  142.8083   80.4486  224.3937 H   0  0  0  0  0  0  0  0  0  0  0  0
  141.7670   78.5860  224.0060 C   0  0  0  0  0  0  0  0  0  0  0  0
  141.7584   78.2836  225.0636 H   0  0  0  0  0  0  0  0  0  0  0  0
  141.1880   77.7590  223.0390 C   0  0  0  0  0  0  0  0  0  0  0  0
  140.7307   76.8040  223.3373 H   0  0  0  0  0  0  0  0  0  0  0  0
  140.6350   74.7060  220.5570 N   0  0  0  0  0  0  0  0  0  0  0  0
  141.3220   74.5190  219.2740 C   0  0  0  0  0  0  0  0  0  0  0  0
  141.4276   73.4414  219.0801 H   0  0  0  0  0  0  0  0  0  0  0  0
  140.7218   75.0041  218.4902 H   0  0  0  0  0  0  0  0  0  0  0  0
  142.7140   75.1620  219.2760 C   0  0  0  0  0  0  0  0  0  0  0  0
  143.0210   75.3449  218.2357 H   0  0  0  0  0  0  0  0  0  0  0  0
  142.6511   76.1005  219.8463 H   0  0  0  0  0  0  0  0  0  0  0  0
  143.7450   74.2870  219.9390 C   0  0  0  0  0  0  0  0  0  0  0  0
  144.9170   74.8480  220.4720 C   0  0  0  0  0  0  0  0  0  0  0  0
  145.0801   75.9342  220.4131 H   0  0  0  0  0  0  0  0  0  0  0  0
  145.8770   74.0320  221.0770 C   0  0  0  0  0  0  0  0  0  0  0  0
  146.7895   74.4779  221.4994 H   0  0  0  0  0  0  0  0  0  0  0  0
  145.6790   72.6500  221.1460 C   0  0  0  0  0  0  0  0  0  0  0  0
  146.4332   72.0095  221.6265 H   0  0  0  0  0  0  0  0  0  0  0  0
  144.5220   72.0820  220.6040 C   0  0  0  0  0  0  0  0  0  0  0  0
  144.3699   70.9936  220.6520 H   0  0  0  0  0  0  0  0  0  0  0  0
  143.5580   72.8960  220.0010 C   0  0  0  0  0  0  0  0  0  0  0  0
  142.6500   72.4455  219.5737 H   0  0  0  0  0  0  0  0  0  0  0  0
  140.1920   70.9310  225.0160 N   0  0  0  0  0  0  0  0  0  0  0  0
  140.6560   71.7270  226.1440 C   0  0  0  0  0  0  0  0  0  0  0  0
  141.4968   72.3680  225.8403 H   0  0  0  0  0  0  0  0  0  0  0  0
  139.8645   72.3892  226.5247 H   0  0  0  0  0  0  0  0  0  0  0  0
  141.1060   70.7280  227.2000 C   0  0  0  0  0  0  0  0  0  0  0  0
  142.2027   70.6435  227.2052 H   0  0  0  0  0  0  0  0  0  0  0  0
  140.8012   71.0401  228.2098 H   0  0  0  0  0  0  0  0  0  0  0  0
  140.4720   69.3970  226.8070 C   0  0  0  0  0  0  0  0  0  0  0  0
  141.1744   68.5699  226.9873 H   0  0  0  0  0  0  0  0  0  0  0  0
  139.5680   69.1886  227.3981 H   0  0  0  0  0  0  0  0  0  0  0  0
  140.1570   69.5110  225.3220 C   0  0  0  0  0  0  0  0  0  0  0  0
  140.9107   68.9729  224.7285 H   0  0  0  0  0  0  0  0  0  0  0  0
  139.1785   69.0697  225.0814 H   0  0  0  0  0  0  0  0  0  0  0  0
  1  2  1  0
  2  3  1  0
  3  4  2  0
  4  5  1  0
  4  6  1  0
  6  7  1  0
  7  8  2  0
  8  9  1  0
  9 10  2  0
 10 11  1  0
 11 12  1  0
 11 13  1  0
 11 14  1  0
 14 15  2  0
 15 16  1  0
 15 17  1  0
 17 18  1  0
 17 19  2  0
 19 20  1  0
 19 21  1  0
 21 22  1  0
 21 23  2  0
 23 24  1  0
 10 25  1  0
 25 26  1  0
 26 27  1  0
 26 28  1  0
 26 29  1  0
 29 30  1  0
 29 31  1  0
 29 32  1  0
 32 33  2  0
 33 34  1  0
 33 35  1  0
 35 36  1  0
 35 37  2  0
 37 38  1  0
 37 39  1  0
 39 40  1  0
 39 41  2  0
 41 42  1  0
  3 43  1  0
 43 44  1  0
 44 45  1  0
 44 46  1  0
 44 47  1  0
 47 48  1  0
 47 49  1  0
 47 50  1  0
 50 51  1  0
 50 52  1  0
 50 53  1  0
 53 54  1  0
 53 55  1  0
 25  7  1  0
 41 32  1  0
 53 43  1  0
 23 14  1  0
M  END
>  <UniqueID>  (54) 
19

>  <SMILES>  (54) 
O/C(=C\Sc1nnc(Cc2ccccc2)n1CCc1ccccc1)N1CCCC1

>  <Energy>  (54) 
80.57087443506919

>  <Genealogy>  (54) 
OC(=CSc1nnc(Cc2ccccc2)n1CCc1ccccc1)N1CCCC1 (tautomer)
O/C(=C\Sc1nnc(Cc2ccccc2)n1CCc1ccccc1)N1CCCC1 (cis-trans isomerization)
O/C(=C\Sc1nnc(Cc2ccccc2)n1CCc1ccccc1)N1CCCC1 (3D coordinates assigned)
O/C(=C\Sc1nnc(Cc2ccccc2)n1CCc1ccccc1)N1CCCC1 (nonaromatic ring conformer: 80.57087443506919 kcal/mol)

>  <smiles>  (54) 
O=C(CSc1nnc(Cc2ccccc2)n1CCc1ccccc1)N1CCCC1

>  <score_type>  (54) 
oracle

>  <origin>  (54) 
autodockgpu

>  <m_score__min__energy>  (54) 
-8.5099999999999998

>  <m_primary>  (54) 
energy

>  <meeko>  (54) 
{"free_energy": -7.94, "intermolecular_energy": -10.92, "internal_energy": -2.31, "cluster_size": 7, "cluster_id": 1, "rank_in_cluster": 7}

>  <energy>  (54) 
-6.95

>  <cluster_rmsd>  (54) 
0.1

>  <rmsd>  (54) 
271.32

>  <cluster>  (54) 
3

$$$$
AJFQHQFDLMACKV-PYCFMQQDNA-N
     RDKit          3D

 55 58  0  0  0  0  0  0  0  0999 V2000
  138.1590   74.5430  222.7190 H   0  0  0  0  0  0  0  0  0  0  0  0
  137.1990   74.8140  222.5450 O   0  0  0  0  0  0  0  0  0  0  0  0
  136.6550   76.0040  223.0320 C   0  0  0  0  0  0  0  0  0  0  0  0
  137.0950   77.1650  222.5280 C   0  0  0  0  0  0  0  0  0  0  0  0
  136.4351   77.7485  221.8691 H   0  0  0  0  0  0  0  0  0  0  0  0
  138.7350   77.7910  222.9020 S   0  0  0  0  0  0  0  0  0  0  0  0
  139.5520   76.4080  222.1010 C   0  0  0  0  0  0  0  0  0  0  0  0
  139.6720   75.1960  222.6730 N   0  0  0  0  0  0  0  0  0  0  0  0
  140.3590   74.4390  221.8320 N   0  0  0  0  0  0  0  0  0  0  0  0
  140.6460   75.1980  220.7540 C   0  0  0  0  0  0  0  0  0  0  0  0
  141.5060   74.7350  219.6090 C   0  0  0  0  0  0  0  0  0  0  0  0
  140.9750   73.9413  219.0630 H   0  0  0  0  0  0  0  0  0  0  0  0
  141.7026   75.5993  218.9576 H   0  0  0  0  0  0  0  0  0  0  0  0
  142.8300   74.1970  220.0860 C   0  0  0  0  0  0  0  0  0  0  0  0
  143.9640   75.0260  220.1070 C   0  0  0  0  0  0  0  0  0  0  0  0
  143.8787   76.0789  219.8003 H   0  0  0  0  0  0  0  0  0  0  0  0
  145.2000   74.5180  220.5160 C   0  0  0  0  0  0  0  0  0  0  0  0
  146.0830   75.1736  220.5380 H   0  0  0  0  0  0  0  0  0  0  0  0
  145.3160   73.1790  220.8970 C   0  0  0  0  0  0  0  0  0  0  0  0
  146.2889   72.7817  221.2221 H   0  0  0  0  0  0  0  0  0  0  0  0
  144.1950   72.3440  220.8650 C   0  0  0  0  0  0  0  0  0  0  0  0
  144.2876   71.2888  221.1614 H   0  0  0  0  0  0  0  0  0  0  0  0
  142.9570   72.8480  220.4570 C   0  0  0  0  0  0  0  0  0  0  0  0
  142.0790   72.1861  220.4263 H   0  0  0  0  0  0  0  0  0  0  0  0
  140.1620   76.4510  220.8990 N   0  0  0  0  0  0  0  0  0  0  0  0
  140.3250   77.6030  220.0030 C   0  0  0  0  0  0  0  0  0  0  0  0
  140.2108   77.2643  218.9627 H   0  0  0  0  0  0  0  0  0  0  0  0
  139.5591   78.3490  220.2614 H   0  0  0  0  0  0  0  0  0  0  0  0
  141.7020   78.2570  220.1640 C   0  0  0  0  0  0  0  0  0  0  0  0
  142.4613   77.4662  220.2544 H   0  0  0  0  0  0  0  0  0  0  0  0
  141.8823   78.8862  219.2799 H   0  0  0  0  0  0  0  0  0  0  0  0
  141.7740   79.1400  221.3820 C   0  0  0  0  0  0  0  0  0  0  0  0
  141.8200   78.5770  222.6680 C   0  0  0  0  0  0  0  0  0  0  0  0
  141.8119   77.4835  222.7872 H   0  0  0  0  0  0  0  0  0  0  0  0
  141.8760   79.3990  223.7970 C   0  0  0  0  0  0  0  0  0  0  0  0
  141.9185   78.9517  224.8010 H   0  0  0  0  0  0  0  0  0  0  0  0
  141.8780   80.7890  223.6510 C   0  0  0  0  0  0  0  0  0  0  0  0
  141.9268   81.4352  224.5398 H   0  0  0  0  0  0  0  0  0  0  0  0
  141.8180   81.3580  222.3760 C   0  0  0  0  0  0  0  0  0  0  0  0
  141.8124   82.4521  222.2628 H   0  0  0  0  0  0  0  0  0  0  0  0
  141.7650   80.5390  221.2440 C   0  0  0  0  0  0  0  0  0  0  0  0
  141.7161   80.9908  220.2423 H   0  0  0  0  0  0  0  0  0  0  0  0
  135.6320   75.9710  224.0530 N   0  0  0  0  0  0  0  0  0  0  0  0
  134.6520   77.0250  224.2770 C   0  0  0  0  0  0  0  0  0  0  0  0
  135.1559   77.9919  224.4226 H   0  0  0  0  0  0  0  0  0  0  0  0
  133.9757   77.1383  223.4169 H   0  0  0  0  0  0  0  0  0  0  0  0
  133.8950   76.6270  225.5360 C   0  0  0  0  0  0  0  0  0  0  0  0
  134.2572   77.2039  226.3997 H   0  0  0  0  0  0  0  0  0  0  0  0
  132.8176   76.8280  225.4423 H   0  0  0  0  0  0  0  0  0  0  0  0
  134.1750   75.1410  225.7340 C   0  0  0  0  0  0  0  0  0  0  0  0
  134.3080   74.9152  226.8023 H   0  0  0  0  0  0  0  0  0  0  0  0
  133.3417   74.5201  225.3732 H   0  0  0  0  0  0  0  0  0  0  0  0
  135.4590   74.8560  224.9680 C   0  0  0  0  0  0  0  0  0  0  0  0
  136.3116   74.7931  225.6602 H   0  0  0  0  0  0  0  0  0  0  0  0
  135.4050   73.8974  224.4312 H   0  0  0  0  0  0  0  0  0  0  0  0
  1  2  1  0
  2  3  1  0
  3  4  2  0
  4  5  1  0
  4  6  1  0
  6  7  1  0
  7  8  2  0
  8  9  1  0
  9 10  2  0
 10 11  1  0
 11 12  1  0
 11 13  1  0
 11 14  1  0
 14 15  2  0
 15 16  1  0
 15 17  1  0
 17 18  1  0
 17 19  2  0
 19 20  1  0
 19 21  1  0
 21 22  1  0
 21 23  2  0
 23 24  1  0
 10 25  1  0
 25 26  1  0
 26 27  1  0
 26 28  1  0
 26 29  1  0
 29 30  1  0
 29 31  1  0
 29 32  1  0
 32 33  2  0
 33 34  1  0
 33 35  1  0
 35 36  1  0
 35 37  2  0
 37 38  1  0
 37 39  1  0
 39 40  1  0
 39 41  2  0
 41 42  1  0
  3 43  1  0
 43 44  1  0
 44 45  1  0
 44 46  1  0
 44 47  1  0
 47 48  1  0
 47 49  1  0
 47 50  1  0
 50 51  1  0
 50 52  1  0
 50 53  1  0
 53 54  1  0
 53 55  1  0
 25  7  1  0
 41 32  1  0
 53 43  1  0
 23 14  1  0
M  END
>  <UniqueID>  (55) 
19

>  <SMILES>  (55) 
O/C(=C\Sc1nnc(Cc2ccccc2)n1CCc1ccccc1)N1CCCC1

>  <Energy>  (55) 
80.57087443506919

>  <Genealogy>  (55) 
OC(=CSc1nnc(Cc2ccccc2)n1CCc1ccccc1)N1CCCC1 (tautomer)
O/C(=C\Sc1nnc(Cc2ccccc2)n1CCc1ccccc1)N1CCCC1 (cis-trans isomerization)
O/C(=C\Sc1nnc(Cc2ccccc2)n1CCc1ccccc1)N1CCCC1 (3D coordinates assigned)
O/C(=C\Sc1nnc(Cc2ccccc2)n1CCc1ccccc1)N1CCCC1 (nonaromatic ring conformer: 80.57087443506919 kcal/mol)

>  <smiles>  (55) 
O=C(CSc1nnc(Cc2ccccc2)n1CCc1ccccc1)N1CCCC1

>  <score_type>  (55) 
oracle

>  <origin>  (55) 
autodockgpu

>  <m_score__min__energy>  (55) 
-8.5099999999999998

>  <m_primary>  (55) 
energy

>  <meeko>  (55) 
{"free_energy": -7.03, "intermolecular_energy": -10.01, "internal_energy": -2.73, "cluster_size": 4, "cluster_id": 3, "rank_in_cluster": 2}

>  <energy>  (55) 
-6.77

>  <cluster_rmsd>  (55) 
0.0

>  <rmsd>  (55) 
271.23

>  <cluster>  (55) 
4

$$$$
AJFQHQFDLMACKV-PYCFMQQDNA-N
     RDKit          3D

 55 58  0  0  0  0  0  0  0  0999 V2000
  142.2440   76.1200  221.2190 H   0  0  0  0  0  0  0  0  0  0  0  0
  142.6670   76.0190  220.3050 O   0  0  0  0  0  0  0  0  0  0  0  0
  142.7300   74.7940  219.6380 C   0  0  0  0  0  0  0  0  0  0  0  0
  141.7240   74.4530  218.8230 C   0  0  0  0  0  0  0  0  0  0  0  0
  141.8903   74.4549  217.7356 H   0  0  0  0  0  0  0  0  0  0  0  0
  140.1110   73.9930  219.4610 S   0  0  0  0  0  0  0  0  0  0  0  0
  140.1710   75.2180  220.7710 C   0  0  0  0  0  0  0  0  0  0  0  0
  140.7440   74.9870  221.9660 N   0  0  0  0  0  0  0  0  0  0  0  0
  140.5690   76.0770  222.6960 N   0  0  0  0  0  0  0  0  0  0  0  0
  139.8960   76.9630  221.9340 C   0  0  0  0  0  0  0  0  0  0  0  0
  139.4100   78.2970  222.4340 C   0  0  0  0  0  0  0  0  0  0  0  0
  138.7924   78.7661  221.6539 H   0  0  0  0  0  0  0  0  0  0  0  0
  138.8268   78.1264  223.3510 H   0  0  0  0  0  0  0  0  0  0  0  0
  140.5530   79.2190  222.7710 C   0  0  0  0  0  0  0  0  0  0  0  0
  141.8680   78.8710  222.4220 C   0  0  0  0  0  0  0  0  0  0  0  0
  142.0605   77.9354  221.8765 H   0  0  0  0  0  0  0  0  0  0  0  0
  142.9340   79.7090  222.7650 C   0  0  0  0  0  0  0  0  0  0  0  0
  143.9613   79.4353  222.4824 H   0  0  0  0  0  0  0  0  0  0  0  0
  142.6950   80.8930  223.4660 C   0  0  0  0  0  0  0  0  0  0  0  0
  143.5335   81.5533  223.7325 H   0  0  0  0  0  0  0  0  0  0  0  0
  141.3900   81.2390  223.8290 C   0  0  0  0  0  0  0  0  0  0  0  0
  141.2034   82.1696  224.3850 H   0  0  0  0  0  0  0  0  0  0  0  0
  140.3220   80.4050  223.4870 C   0  0  0  0  0  0  0  0  0  0  0  0
  139.2974   80.6783  223.7795 H   0  0  0  0  0  0  0  0  0  0  0  0
  139.6170   76.4470  220.7170 N   0  0  0  0  0  0  0  0  0  0  0  0
  138.8350   77.0440  219.6280 C   0  0  0  0  0  0  0  0  0  0  0  0
  138.0055   76.3681  219.3729 H   0  0  0  0  0  0  0  0  0  0  0  0
  138.4584   78.0188  219.9713 H   0  0  0  0  0  0  0  0  0  0  0  0
  139.6890   77.2760  218.3770 C   0  0  0  0  0  0  0  0  0  0  0  0
  140.2306   76.3481  218.1411 H   0  0  0  0  0  0  0  0  0  0  0  0
  139.0148   77.5662  217.5577 H   0  0  0  0  0  0  0  0  0  0  0  0
  140.6890   78.3860  218.5670 C   0  0  0  0  0  0  0  0  0  0  0  0
  140.3350   79.5510  219.2660 C   0  0  0  0  0  0  0  0  0  0  0  0
  139.3230   79.6514  219.6852 H   0  0  0  0  0  0  0  0  0  0  0  0
  141.2620   80.5840  219.4320 C   0  0  0  0  0  0  0  0  0  0  0  0
  140.9802   81.4910  219.9869 H   0  0  0  0  0  0  0  0  0  0  0  0
  142.5460   80.4660  218.8940 C   0  0  0  0  0  0  0  0  0  0  0  0
  143.2761   81.2776  219.0288 H   0  0  0  0  0  0  0  0  0  0  0  0
  142.9020   79.3150  218.1840 C   0  0  0  0  0  0  0  0  0  0  0  0
  143.9107   79.2250  217.7545 H   0  0  0  0  0  0  0  0  0  0  0  0
  141.9790   78.2790  218.0190 C   0  0  0  0  0  0  0  0  0  0  0  0
  142.2630   77.3763  217.4582 H   0  0  0  0  0  0  0  0  0  0  0  0
  143.8690   73.9220  219.8270 N   0  0  0  0  0  0  0  0  0  0  0  0
  144.9350   74.1510  220.7930 C   0  0  0  0  0  0  0  0  0  0  0  0
  145.3731   75.1499  220.6506 H   0  0  0  0  0  0  0  0  0  0  0  0
  144.5616   74.1057  221.8267 H   0  0  0  0  0  0  0  0  0  0  0  0
  145.9750   73.0730  220.5250 C   0  0  0  0  0  0  0  0  0  0  0  0
  146.8197   73.4883  219.9558 H   0  0  0  0  0  0  0  0  0  0  0  0
  146.3852   72.6639  221.4601 H   0  0  0  0  0  0  0  0  0  0  0  0
  145.2600   72.0020  219.7090 C   0  0  0  0  0  0  0  0  0  0  0  0
  145.9284   71.6022  218.9322 H   0  0  0  0  0  0  0  0  0  0  0  0
  144.9499   71.1538  220.3371 H   0  0  0  0  0  0  0  0  0  0  0  0
  144.0630   72.6960  219.0730 C   0  0  0  0  0  0  0  0  0  0  0  0
  144.2694   72.9245  218.0170 H   0  0  0  0  0  0  0  0  0  0  0  0
  143.1661   72.0596  219.0978 H   0  0  0  0  0  0  0  0  0  0  0  0
  1  2  1  0
  2  3  1  0
  3  4  2  0
  4  5  1  0
  4  6  1  0
  6  7  1  0
  7  8  2  0
  8  9  1  0
  9 10  2  0
 10 11  1  0
 11 12  1  0
 11 13  1  0
 11 14  1  0
 14 15  2  0
 15 16  1  0
 15 17  1  0
 17 18  1  0
 17 19  2  0
 19 20  1  0
 19 21  1  0
 21 22  1  0
 21 23  2  0
 23 24  1  0
 10 25  1  0
 25 26  1  0
 26 27  1  0
 26 28  1  0
 26 29  1  0
 29 30  1  0
 29 31  1  0
 29 32  1  0
 32 33  2  0
 33 34  1  0
 33 35  1  0
 35 36  1  0
 35 37  2  0
 37 38  1  0
 37 39  1  0
 39 40  1  0
 39 41  2  0
 41 42  1  0
  3 43  1  0
 43 44  1  0
 44 45  1  0
 44 46  1  0
 44 47  1  0
 47 48  1  0
 47 49  1  0
 47 50  1  0
 50 51  1  0
 50 52  1  0
 50 53  1  0
 53 54  1  0
 53 55  1  0
 25  7  1  0
 41 32  1  0
 53 43  1  0
 23 14  1  0
M  END
>  <UniqueID>  (56) 
19

>  <SMILES>  (56) 
O/C(=C\Sc1nnc(Cc2ccccc2)n1CCc1ccccc1)N1CCCC1

>  <Energy>  (56) 
80.57087443506919

>  <Genealogy>  (56) 
OC(=CSc1nnc(Cc2ccccc2)n1CCc1ccccc1)N1CCCC1 (tautomer)
O/C(=C\Sc1nnc(Cc2ccccc2)n1CCc1ccccc1)N1CCCC1 (cis-trans isomerization)
O/C(=C\Sc1nnc(Cc2ccccc2)n1CCc1ccccc1)N1CCCC1 (3D coordinates assigned)
O/C(=C\Sc1nnc(Cc2ccccc2)n1CCc1ccccc1)N1CCCC1 (nonaromatic ring conformer: 80.57087443506919 kcal/mol)

>  <smiles>  (56) 
O=C(CSc1nnc(Cc2ccccc2)n1CCc1ccccc1)N1CCCC1

>  <score_type>  (56) 
oracle

>  <origin>  (56) 
autodockgpu

>  <m_score__min__energy>  (56) 
-8.5099999999999998

>  <m_primary>  (56) 
energy

>  <meeko>  (56) 
{"free_energy": -5.58, "intermolecular_energy": -8.56, "internal_energy": -3.86, "cluster_size": 4, "cluster_id": 6, "rank_in_cluster": 3}

>  <energy>  (56) 
-6.57

>  <cluster_rmsd>  (56) 
0.0

>  <rmsd>  (56) 
271.25

>  <cluster>  (56) 
5

$$$$
AJFQHQFDLMACKV-PYCFMQQDNA-N
     RDKit          3D

 55 58  0  0  0  0  0  0  0  0999 V2000
  138.3290   72.9830  223.1000 H   0  0  0  0  0  0  0  0  0  0  0  0
  138.6820   72.0360  223.0400 O   0  0  0  0  0  0  0  0  0  0  0  0
  139.9510   71.6770  223.4970 C   0  0  0  0  0  0  0  0  0  0  0  0
  141.0140   71.9620  222.7330 C   0  0  0  0  0  0  0  0  0  0  0  0
  142.0188   71.9361  223.1800 H   0  0  0  0  0  0  0  0  0  0  0  0
  140.8380   72.3850  220.9980 S   0  0  0  0  0  0  0  0  0  0  0  0
  140.4740   74.1060  221.3530 C   0  0  0  0  0  0  0  0  0  0  0  0
  139.6530   74.4920  222.3460 N   0  0  0  0  0  0  0  0  0  0  0  0
  139.5790   75.8130  222.2950 N   0  0  0  0  0  0  0  0  0  0  0  0
  140.3610   76.2170  221.2730 C   0  0  0  0  0  0  0  0  0  0  0  0
  140.4700   77.6470  220.8160 C   0  0  0  0  0  0  0  0  0  0  0  0
  141.0404   77.6782  219.8760 H   0  0  0  0  0  0  0  0  0  0  0  0
  139.4524   78.0395  220.6733 H   0  0  0  0  0  0  0  0  0  0  0  0
  141.1660   78.5080  221.8380 C   0  0  0  0  0  0  0  0  0  0  0  0
  141.8950   79.6380  221.4310 C   0  0  0  0  0  0  0  0  0  0  0  0
  141.9349   79.9101  220.3659 H   0  0  0  0  0  0  0  0  0  0  0  0
  142.5700   80.4180  222.3750 C   0  0  0  0  0  0  0  0  0  0  0  0
  143.1333   81.3060  222.0521 H   0  0  0  0  0  0  0  0  0  0  0  0
  142.5300   80.0710  223.7280 C   0  0  0  0  0  0  0  0  0  0  0  0
  143.0585   80.6875  224.4701 H   0  0  0  0  0  0  0  0  0  0  0  0
  141.8180   78.9400  224.1380 C   0  0  0  0  0  0  0  0  0  0  0  0
  141.7899   78.6652  225.2027 H   0  0  0  0  0  0  0  0  0  0  0  0
  141.1420   78.1580  223.1980 C   0  0  0  0  0  0  0  0  0  0  0  0
  140.5889   77.2649  223.5243 H   0  0  0  0  0  0  0  0  0  0  0  0
  140.9310   75.1620  220.6490 N   0  0  0  0  0  0  0  0  0  0  0  0
  141.7770   75.1580  219.4500 C   0  0  0  0  0  0  0  0  0  0  0  0
  141.7987   74.1405  219.0326 H   0  0  0  0  0  0  0  0  0  0  0  0
  141.3521   75.8714  218.7286 H   0  0  0  0  0  0  0  0  0  0  0  0
  143.2120   75.5960  219.7660 C   0  0  0  0  0  0  0  0  0  0  0  0
  143.5680   76.2520  218.9580 H   0  0  0  0  0  0  0  0  0  0  0  0
  143.1993   76.1212  220.7324 H   0  0  0  0  0  0  0  0  0  0  0  0
  144.1510   74.4250  219.8890 C   0  0  0  0  0  0  0  0  0  0  0  0
  145.2490   74.4830  220.7640 C   0  0  0  0  0  0  0  0  0  0  0  0
  145.4201   75.3853  221.3695 H   0  0  0  0  0  0  0  0  0  0  0  0
  146.1250   73.3980  220.8680 C   0  0  0  0  0  0  0  0  0  0  0  0
  146.9785   73.4459  221.5602 H   0  0  0  0  0  0  0  0  0  0  0  0
  145.9180   72.2530  220.0940 C   0  0  0  0  0  0  0  0  0  0  0  0
  146.6059   71.3989  220.1795 H   0  0  0  0  0  0  0  0  0  0  0  0
  144.8360   72.1940  219.2110 C   0  0  0  0  0  0  0  0  0  0  0  0
  144.6767   71.2950  218.5975 H   0  0  0  0  0  0  0  0  0  0  0  0
  143.9560   73.2750  219.1060 C   0  0  0  0  0  0  0  0  0  0  0  0
  143.1076   73.2250  218.4076 H   0  0  0  0  0  0  0  0  0  0  0  0
  140.1030   71.0170  224.7750 N   0  0  0  0  0  0  0  0  0  0  0  0
  140.8760   71.5430  225.8910 C   0  0  0  0  0  0  0  0  0  0  0  0
  141.9048   71.7668  225.5725 H   0  0  0  0  0  0  0  0  0  0  0  0
  140.4451   72.4789  226.2763 H   0  0  0  0  0  0  0  0  0  0  0  0
  140.8750   70.4490  226.9490 C   0  0  0  0  0  0  0  0  0  0  0  0
  141.8326   69.9077  226.9416 H   0  0  0  0  0  0  0  0  0  0  0  0
  140.7453   70.8626  227.9600 H   0  0  0  0  0  0  0  0  0  0  0  0
  139.7320   69.5120  226.5740 C   0  0  0  0  0  0  0  0  0  0  0  0
  140.0199   68.4655  226.7527 H   0  0  0  0  0  0  0  0  0  0  0  0
  138.8330   69.7075  227.1770 H   0  0  0  0  0  0  0  0  0  0  0  0
  139.4750   69.7460  225.0910 C   0  0  0  0  0  0  0  0  0  0  0  0
  139.9226   68.9386  224.4928 H   0  0  0  0  0  0  0  0  0  0  0  0
  138.3987   69.7594  224.8643 H   0  0  0  0  0  0  0  0  0  0  0  0
  1  2  1  0
  2  3  1  0
  3  4  2  0
  4  5  1  0
  4  6  1  0
  6  7  1  0
  7  8  2  0
  8  9  1  0
  9 10  2  0
 10 11  1  0
 11 12  1  0
 11 13  1  0
 11 14  1  0
 14 15  2  0
 15 16  1  0
 15 17  1  0
 17 18  1  0
 17 19  2  0
 19 20  1  0
 19 21  1  0
 21 22  1  0
 21 23  2  0
 23 24  1  0
 10 25  1  0
 25 26  1  0
 26 27  1  0
 26 28  1  0
 26 29  1  0
 29 30  1  0
 29 31  1  0
 29 32  1  0
 32 33  2  0
 33 34  1  0
 33 35  1  0
 35 36  1  0
 35 37  2  0
 37 38  1  0
 37 39  1  0
 39 40  1  0
 39 41  2  0
 41 42  1  0
  3 43  1  0
 43 44  1  0
 44 45  1  0
 44 46  1  0
 44 47  1  0
 47 48  1  0
 47 49  1  0
 47 50  1  0
 50 51  1  0
 50 52  1  0
 50 53  1  0
 53 54  1  0
 53 55  1  0
 25  7  1  0
 41 32  1  0
 53 43  1  0
 23 14  1  0
M  END
>  <UniqueID>  (57) 
19

>  <SMILES>  (57) 
O/C(=C\Sc1nnc(Cc2ccccc2)n1CCc1ccccc1)N1CCCC1

>  <Energy>  (57) 
80.57087443506919

>  <Genealogy>  (57) 
OC(=CSc1nnc(Cc2ccccc2)n1CCc1ccccc1)N1CCCC1 (tautomer)
O/C(=C\Sc1nnc(Cc2ccccc2)n1CCc1ccccc1)N1CCCC1 (cis-trans isomerization)
O/C(=C\Sc1nnc(Cc2ccccc2)n1CCc1ccccc1)N1CCCC1 (3D coordinates assigned)
O/C(=C\Sc1nnc(Cc2ccccc2)n1CCc1ccccc1)N1CCCC1 (nonaromatic ring conformer: 80.57087443506919 kcal/mol)

>  <smiles>  (57) 
O=C(CSc1nnc(Cc2ccccc2)n1CCc1ccccc1)N1CCCC1

>  <score_type>  (57) 
oracle

>  <origin>  (57) 
autodockgpu

>  <m_score__min__energy>  (57) 
-8.5099999999999998

>  <m_primary>  (57) 
energy

>  <meeko>  (57) 
{"free_energy": -8.43, "intermolecular_energy": -11.41, "internal_energy": -2.26, "cluster_size": 7, "cluster_id": 1, "rank_in_cluster": 3}

>  <energy>  (57) 
-6.04

>  <cluster_rmsd>  (57) 
0.0

>  <rmsd>  (57) 
271.26

>  <cluster>  (57) 
6

$$$$
AJFQHQFDLMACKV-PYCFMQQDNA-N
     RDKit          3D

 55 58  0  0  0  0  0  0  0  0999 V2000
  138.1430   74.5510  222.7040 H   0  0  0  0  0  0  0  0  0  0  0  0
  137.1810   74.8160  222.5360 O   0  0  0  0  0  0  0  0  0  0  0  0
  136.6330   76.0050  223.0190 C   0  0  0  0  0  0  0  0  0  0  0  0
  137.0630   77.1660  222.5070 C   0  0  0  0  0  0  0  0  0  0  0  0
  136.3942   77.7443  221.8525 H   0  0  0  0  0  0  0  0  0  0  0  0
  138.7040   77.8010  222.8630 S   0  0  0  0  0  0  0  0  0  0  0  0
  139.5200   76.4060  222.0830 C   0  0  0  0  0  0  0  0  0  0  0  0
  139.6480   75.2050  222.6760 N   0  0  0  0  0  0  0  0  0  0  0  0
  140.3310   74.4340  221.8450 N   0  0  0  0  0  0  0  0  0  0  0  0
  140.6070   75.1730  220.7510 C   0  0  0  0  0  0  0  0  0  0  0  0
  141.4610   74.6920  219.6080 C   0  0  0  0  0  0  0  0  0  0  0  0
  140.9243   73.8942  219.0737 H   0  0  0  0  0  0  0  0  0  0  0  0
  141.6591   75.5476  218.9456 H   0  0  0  0  0  0  0  0  0  0  0  0
  142.7840   74.1540  220.0860 C   0  0  0  0  0  0  0  0  0  0  0  0
  143.9190   74.9820  220.1050 C   0  0  0  0  0  0  0  0  0  0  0  0
  143.8348   76.0341  219.7953 H   0  0  0  0  0  0  0  0  0  0  0  0
  145.1550   74.4740  220.5160 C   0  0  0  0  0  0  0  0  0  0  0  0
  146.0387   75.1287  220.5362 H   0  0  0  0  0  0  0  0  0  0  0  0
  145.2690   73.1360  220.9010 C   0  0  0  0  0  0  0  0  0  0  0  0
  146.2413   72.7388  221.2278 H   0  0  0  0  0  0  0  0  0  0  0  0
  144.1480   72.3020  220.8710 C   0  0  0  0  0  0  0  0  0  0  0  0
  144.2397   71.2472  221.1694 H   0  0  0  0  0  0  0  0  0  0  0  0
  142.9100   72.8070  220.4620 C   0  0  0  0  0  0  0  0  0  0  0  0
  142.0310   72.1463  220.4347 H   0  0  0  0  0  0  0  0  0  0  0  0
  140.1200   76.4280  220.8750 N   0  0  0  0  0  0  0  0  0  0  0  0
  140.2720   77.5620  219.9560 C   0  0  0  0  0  0  0  0  0  0  0  0
  140.1442   77.2038  218.9238 H   0  0  0  0  0  0  0  0  0  0  0  0
  139.5099   78.3134  220.2100 H   0  0  0  0  0  0  0  0  0  0  0  0
  141.6520   78.2180  220.0870 C   0  0  0  0  0  0  0  0  0  0  0  0
  142.4123   77.4280  220.1758 H   0  0  0  0  0  0  0  0  0  0  0  0
  141.8174   78.8358  219.1920 H   0  0  0  0  0  0  0  0  0  0  0  0
  141.7450   79.1170  221.2910 C   0  0  0  0  0  0  0  0  0  0  0  0
  141.7550   80.5130  221.1370 C   0  0  0  0  0  0  0  0  0  0  0  0
  141.6863   80.9537  220.1315 H   0  0  0  0  0  0  0  0  0  0  0  0
  141.8520   81.3450  222.2570 C   0  0  0  0  0  0  0  0  0  0  0  0
  141.8520   82.4378  222.1311 H   0  0  0  0  0  0  0  0  0  0  0  0
  141.9490   80.7900  223.5360 C   0  0  0  0  0  0  0  0  0  0  0  0
  142.0214   81.4456  224.4163 H   0  0  0  0  0  0  0  0  0  0  0  0
  141.9540   79.4010  223.6960 C   0  0  0  0  0  0  0  0  0  0  0  0
  142.0367   78.9645  224.7023 H   0  0  0  0  0  0  0  0  0  0  0  0
  141.8540   78.5660  222.5790 C   0  0  0  0  0  0  0  0  0  0  0  0
  141.8607   77.4737  222.7090 H   0  0  0  0  0  0  0  0  0  0  0  0
  135.6170   75.9720  224.0480 N   0  0  0  0  0  0  0  0  0  0  0  0
  134.6500   77.0340  224.2910 C   0  0  0  0  0  0  0  0  0  0  0  0
  135.1654   77.9937  224.4437 H   0  0  0  0  0  0  0  0  0  0  0  0
  133.9687   77.1642  223.4372 H   0  0  0  0  0  0  0  0  0  0  0  0
  133.8980   76.6300  225.5510 C   0  0  0  0  0  0  0  0  0  0  0  0
  134.2723   77.1937  226.4183 H   0  0  0  0  0  0  0  0  0  0  0  0
  132.8221   76.8430  225.4672 H   0  0  0  0  0  0  0  0  0  0  0  0
  134.1640   75.1390  225.7310 C   0  0  0  0  0  0  0  0  0  0  0  0
  134.3025   74.9003  226.7958 H   0  0  0  0  0  0  0  0  0  0  0  0
  133.3217   74.5306  225.3699 H   0  0  0  0  0  0  0  0  0  0  0  0
  135.4400   74.8490  224.9520 C   0  0  0  0  0  0  0  0  0  0  0  0
  136.2971   74.7701  225.6369 H   0  0  0  0  0  0  0  0  0  0  0  0
  135.3726   73.8967  224.4055 H   0  0  0  0  0  0  0  0  0  0  0  0
  1  2  1  0
  2  3  1  0
  3  4  2  0
  4  5  1  0
  4  6  1  0
  6  7  1  0
  7  8  2  0
  8  9  1  0
  9 10  2  0
 10 11  1  0
 11 12  1  0
 11 13  1  0
 11 14  1  0
 14 15  2  0
 15 16  1  0
 15 17  1  0
 17 18  1  0
 17 19  2  0
 19 20  1  0
 19 21  1  0
 21 22  1  0
 21 23  2  0
 23 24  1  0
 10 25  1  0
 25 26  1  0
 26 27  1  0
 26 28  1  0
 26 29  1  0
 29 30  1  0
 29 31  1  0
 29 32  1  0
 32 33  2  0
 33 34  1  0
 33 35  1  0
 35 36  1  0
 35 37  2  0
 37 38  1  0
 37 39  1  0
 39 40  1  0
 39 41  2  0
 41 42  1  0
  3 43  1  0
 43 44  1  0
 44 45  1  0
 44 46  1  0
 44 47  1  0
 47 48  1  0
 47 49  1  0
 47 50  1  0
 50 51  1  0
 50 52  1  0
 50 53  1  0
 53 54  1  0
 53 55  1  0
 25  7  1  0
 41 32  1  0
 53 43  1  0
 23 14  1  0
M  END
>  <UniqueID>  (58) 
19

>  <SMILES>  (58) 
O/C(=C\Sc1nnc(Cc2ccccc2)n1CCc1ccccc1)N1CCCC1

>  <Energy>  (58) 
80.57087443506919

>  <Genealogy>  (58) 
OC(=CSc1nnc(Cc2ccccc2)n1CCc1ccccc1)N1CCCC1 (tautomer)
O/C(=C\Sc1nnc(Cc2ccccc2)n1CCc1ccccc1)N1CCCC1 (cis-trans isomerization)
O/C(=C\Sc1nnc(Cc2ccccc2)n1CCc1ccccc1)N1CCCC1 (3D coordinates assigned)
O/C(=C\Sc1nnc(Cc2ccccc2)n1CCc1ccccc1)N1CCCC1 (nonaromatic ring conformer: 80.57087443506919 kcal/mol)

>  <smiles>  (58) 
O=C(CSc1nnc(Cc2ccccc2)n1CCc1ccccc1)N1CCCC1

>  <score_type>  (58) 
oracle

>  <origin>  (58) 
autodockgpu

>  <m_score__min__energy>  (58) 
-8.5099999999999998

>  <m_primary>  (58) 
energy

>  <meeko>  (58) 
{"free_energy": -6.95, "intermolecular_energy": -9.93, "internal_energy": -2.76, "cluster_size": 4, "cluster_id": 3, "rank_in_cluster": 4}

>  <energy>  (58) 
-6.01

>  <cluster_rmsd>  (58) 
0.06

>  <rmsd>  (58) 
271.26

>  <cluster>  (58) 
6

$$$$
AJFQHQFDLMACKV-PYCFMQQDNA-N
     RDKit          3D

 55 58  0  0  0  0  0  0  0  0999 V2000
  139.2410   74.5690  222.8130 H   0  0  0  0  0  0  0  0  0  0  0  0
  140.0250   74.1320  222.3440 O   0  0  0  0  0  0  0  0  0  0  0  0
  140.2400   74.2500  220.9700 C   0  0  0  0  0  0  0  0  0  0  0  0
  139.2800   73.8390  220.1320 C   0  0  0  0  0  0  0  0  0  0  0  0
  139.3255   72.8188  219.7232 H   0  0  0  0  0  0  0  0  0  0  0  0
  137.9200   74.9120  219.6590 S   0  0  0  0  0  0  0  0  0  0  0  0
  138.0730   75.9200  221.1350 C   0  0  0  0  0  0  0  0  0  0  0  0
  137.9230   75.4280  222.3790 N   0  0  0  0  0  0  0  0  0  0  0  0
  138.0570   76.4450  223.2150 N   0  0  0  0  0  0  0  0  0  0  0  0
  138.2930   77.5460  222.4710 C   0  0  0  0  0  0  0  0  0  0  0  0
  138.4040   78.9340  223.0410 C   0  0  0  0  0  0  0  0  0  0  0  0
  137.8270   79.6255  222.4094 H   0  0  0  0  0  0  0  0  0  0  0  0
  138.0102   78.9144  224.0679 H   0  0  0  0  0  0  0  0  0  0  0  0
  139.8340   79.4030  223.0970 C   0  0  0  0  0  0  0  0  0  0  0  0
  140.8860   78.4740  223.0430 C   0  0  0  0  0  0  0  0  0  0  0  0
  140.6654   77.4021  222.9319 H   0  0  0  0  0  0  0  0  0  0  0  0
  142.2130   78.9070  223.1300 C   0  0  0  0  0  0  0  0  0  0  0  0
  143.0335   78.1761  223.0794 H   0  0  0  0  0  0  0  0  0  0  0  0
  142.4980   80.2660  223.2810 C   0  0  0  0  0  0  0  0  0  0  0  0
  143.5424   80.6051  223.3464 H   0  0  0  0  0  0  0  0  0  0  0  0
  141.4560   81.1950  223.3490 C   0  0  0  0  0  0  0  0  0  0  0  0
  141.6812   82.2647  223.4712 H   0  0  0  0  0  0  0  0  0  0  0  0
  140.1280   80.7670  223.2620 C   0  0  0  0  0  0  0  0  0  0  0  0
  139.3105   81.5005  223.3229 H   0  0  0  0  0  0  0  0  0  0  0  0
  138.2960   77.2510  221.1520 N   0  0  0  0  0  0  0  0  0  0  0  0
  138.4320   78.1640  220.0120 C   0  0  0  0  0  0  0  0  0  0  0  0
  137.4873   78.1734  219.4485 H   0  0  0  0  0  0  0  0  0  0  0  0
  138.6695   79.1649  220.4015 H   0  0  0  0  0  0  0  0  0  0  0  0
  139.5660   77.7360  219.0730 C   0  0  0  0  0  0  0  0  0  0  0  0
  140.0471   76.8370  219.4857 H   0  0  0  0  0  0  0  0  0  0  0  0
  139.1279   77.5380  218.0836 H   0  0  0  0  0  0  0  0  0  0  0  0
  140.6070   78.8110  218.9100 C   0  0  0  0  0  0  0  0  0  0  0  0
  141.5920   78.7030  217.9140 C   0  0  0  0  0  0  0  0  0  0  0  0
  141.5985   77.8319  217.2423 H   0  0  0  0  0  0  0  0  0  0  0  0
  142.5640   79.6980  217.7730 C   0  0  0  0  0  0  0  0  0  0  0  0
  143.3284   79.6114  216.9868 H   0  0  0  0  0  0  0  0  0  0  0  0
  142.5660   80.8020  218.6290 C   0  0  0  0  0  0  0  0  0  0  0  0
  143.3289   81.5861  218.5139 H   0  0  0  0  0  0  0  0  0  0  0  0
  141.5980   80.9100  219.6320 C   0  0  0  0  0  0  0  0  0  0  0  0
  141.6042   81.7762  220.3099 H   0  0  0  0  0  0  0  0  0  0  0  0
  140.6220   79.9190  219.7750 C   0  0  0  0  0  0  0  0  0  0  0  0
  139.8635   80.0067  220.5668 H   0  0  0  0  0  0  0  0  0  0  0  0
  141.4750   74.8150  220.4730 N   0  0  0  0  0  0  0  0  0  0  0  0
  141.8230   76.2280  220.5360 C   0  0  0  0  0  0  0  0  0  0  0  0
  141.0346   76.8377  220.0706 H   0  0  0  0  0  0  0  0  0  0  0  0
  141.9285   76.5729  221.5752 H   0  0  0  0  0  0  0  0  0  0  0  0
  143.1270   76.3690  219.7640 C   0  0  0  0  0  0  0  0  0  0  0  0
  142.9362   76.7773  218.7606 H   0  0  0  0  0  0  0  0  0  0  0  0
  143.8231   77.0571  220.2659 H   0  0  0  0  0  0  0  0  0  0  0  0
  143.7030   74.9600  219.6640 C   0  0  0  0  0  0  0  0  0  0  0  0
  144.1571   74.8009  218.6748 H   0  0  0  0  0  0  0  0  0  0  0  0
  144.4908   74.7901  220.4127 H   0  0  0  0  0  0  0  0  0  0  0  0
  142.5250   74.0160  219.8650 C   0  0  0  0  0  0  0  0  0  0  0  0
  142.1882   73.6129  218.8985 H   0  0  0  0  0  0  0  0  0  0  0  0
  142.7977   73.1581  220.4972 H   0  0  0  0  0  0  0  0  0  0  0  0
  1  2  1  0
  2  3  1  0
  3  4  2  0
  4  5  1  0
  4  6  1  0
  6  7  1  0
  7  8  2  0
  8  9  1  0
  9 10  2  0
 10 11  1  0
 11 12  1  0
 11 13  1  0
 11 14  1  0
 14 15  2  0
 15 16  1  0
 15 17  1  0
 17 18  1  0
 17 19  2  0
 19 20  1  0
 19 21  1  0
 21 22  1  0
 21 23  2  0
 23 24  1  0
 10 25  1  0
 25 26  1  0
 26 27  1  0
 26 28  1  0
 26 29  1  0
 29 30  1  0
 29 31  1  0
 29 32  1  0
 32 33  2  0
 33 34  1  0
 33 35  1  0
 35 36  1  0
 35 37  2  0
 37 38  1  0
 37 39  1  0
 39 40  1  0
 39 41  2  0
 41 42  1  0
  3 43  1  0
 43 44  1  0
 44 45  1  0
 44 46  1  0
 44 47  1  0
 47 48  1  0
 47 49  1  0
 47 50  1  0
 50 51  1  0
 50 52  1  0
 50 53  1  0
 53 54  1  0
 53 55  1  0
 25  7  1  0
 41 32  1  0
 53 43  1  0
 23 14  1  0
M  END
>  <UniqueID>  (59) 
19

>  <SMILES>  (59) 
O/C(=C\Sc1nnc(Cc2ccccc2)n1CCc1ccccc1)N1CCCC1

>  <Energy>  (59) 
80.57087443506919

>  <Genealogy>  (59) 
OC(=CSc1nnc(Cc2ccccc2)n1CCc1ccccc1)N1CCCC1 (tautomer)
O/C(=C\Sc1nnc(Cc2ccccc2)n1CCc1ccccc1)N1CCCC1 (cis-trans isomerization)
O/C(=C\Sc1nnc(Cc2ccccc2)n1CCc1ccccc1)N1CCCC1 (3D coordinates assigned)
O/C(=C\Sc1nnc(Cc2ccccc2)n1CCc1ccccc1)N1CCCC1 (nonaromatic ring conformer: 80.57087443506919 kcal/mol)

>  <smiles>  (59) 
O=C(CSc1nnc(Cc2ccccc2)n1CCc1ccccc1)N1CCCC1

>  <score_type>  (59) 
oracle

>  <origin>  (59) 
autodockgpu

>  <m_score__min__energy>  (59) 
-8.5099999999999998

>  <m_primary>  (59) 
energy

>  <meeko>  (59) 
{"free_energy": -5.28, "intermolecular_energy": -8.26, "internal_energy": -4.21, "cluster_size": 4, "cluster_id": 6, "rank_in_cluster": 4}

>  <energy>  (59) 
-5.58

>  <cluster_rmsd>  (59) 
1.86

>  <rmsd>  (59) 
271.21

>  <cluster>  (59) 
6

$$$$
AJFQHQFDLMACKV-PYCFMQQDNA-N
     RDKit          3D

 55 58  0  0  0  0  0  0  0  0999 V2000
  141.7840   76.0060  222.4190 H   0  0  0  0  0  0  0  0  0  0  0  0
  141.4480   76.6930  223.0830 O   0  0  0  0  0  0  0  0  0  0  0  0
  140.6620   77.7820  222.7030 C   0  0  0  0  0  0  0  0  0  0  0  0
  139.4430   77.5510  222.2010 C   0  0  0  0  0  0  0  0  0  0  0  0
  138.5602   77.7294  222.8325 H   0  0  0  0  0  0  0  0  0  0  0  0
  139.2130   76.9570  220.5220 S   0  0  0  0  0  0  0  0  0  0  0  0
  140.0050   75.3840  220.8670 C   0  0  0  0  0  0  0  0  0  0  0  0
  140.0290   74.8270  222.0910 N   0  0  0  0  0  0  0  0  0  0  0  0
  140.7260   73.7060  221.9920 N   0  0  0  0  0  0  0  0  0  0  0  0
  141.1130   73.5890  220.7050 C   0  0  0  0  0  0  0  0  0  0  0  0
  142.0140   72.4960  220.1980 C   0  0  0  0  0  0  0  0  0  0  0  0
  141.8511   71.5914  220.8023 H   0  0  0  0  0  0  0  0  0  0  0  0
  141.7699   72.3147  219.1409 H   0  0  0  0  0  0  0  0  0  0  0  0
  143.4670   72.8840  220.2830 C   0  0  0  0  0  0  0  0  0  0  0  0
  144.4690   71.9440  219.9920 C   0  0  0  0  0  0  0  0  0  0  0  0
  144.1911   70.9284  219.6737 H   0  0  0  0  0  0  0  0  0  0  0  0
  145.8180   72.2930  220.1050 C   0  0  0  0  0  0  0  0  0  0  0  0
  146.5983   71.5546  219.8686 H   0  0  0  0  0  0  0  0  0  0  0  0
  146.1760   73.5790  220.5180 C   0  0  0  0  0  0  0  0  0  0  0  0
  147.2377   73.8540  220.6023 H   0  0  0  0  0  0  0  0  0  0  0  0
  145.1850   74.5160  220.8240 C   0  0  0  0  0  0  0  0  0  0  0  0
  145.4676   75.5268  221.1533 H   0  0  0  0  0  0  0  0  0  0  0  0
  143.8350   74.1700  220.7120 C   0  0  0  0  0  0  0  0  0  0  0  0
  143.0579   74.9077  220.9608 H   0  0  0  0  0  0  0  0  0  0  0  0
  140.6850   74.6400  219.9700 N   0  0  0  0  0  0  0  0  0  0  0  0
  140.9580   74.9400  218.5600 C   0  0  0  0  0  0  0  0  0  0  0  0
  140.9227   74.0040  217.9833 H   0  0  0  0  0  0  0  0  0  0  0  0
  140.1956   75.6501  218.2072 H   0  0  0  0  0  0  0  0  0  0  0  0
  142.3360   75.5870  218.3730 C   0  0  0  0  0  0  0  0  0  0  0  0
  143.0108   75.2162  219.1586 H   0  0  0  0  0  0  0  0  0  0  0  0
  142.7015   75.3183  217.3709 H   0  0  0  0  0  0  0  0  0  0  0  0
  142.2760   77.0890  218.4550 C   0  0  0  0  0  0  0  0  0  0  0  0
  142.3650   77.8690  217.2900 C   0  0  0  0  0  0  0  0  0  0  0  0
  142.4705   77.3803  216.3102 H   0  0  0  0  0  0  0  0  0  0  0  0
  142.3200   79.2640  217.3710 C   0  0  0  0  0  0  0  0  0  0  0  0
  142.3823   79.8693  216.4547 H   0  0  0  0  0  0  0  0  0  0  0  0
  142.1960   79.8910  218.6140 C   0  0  0  0  0  0  0  0  0  0  0  0
  142.1567   80.9886  218.6758 H   0  0  0  0  0  0  0  0  0  0  0  0
  142.1220   79.1210  219.7790 C   0  0  0  0  0  0  0  0  0  0  0  0
  142.0313   79.6142  220.7580 H   0  0  0  0  0  0  0  0  0  0  0  0
  142.1630   77.7260  219.7020 C   0  0  0  0  0  0  0  0  0  0  0  0
  142.1066   77.1246  220.6213 H   0  0  0  0  0  0  0  0  0  0  0  0
  141.1640   79.1290  222.8610 N   0  0  0  0  0  0  0  0  0  0  0  0
  142.5200   79.4640  223.2760 C   0  0  0  0  0  0  0  0  0  0  0  0
  142.7636   78.9666  224.2264 H   0  0  0  0  0  0  0  0  0  0  0  0
  143.2635   79.1317  222.5365 H   0  0  0  0  0  0  0  0  0  0  0  0
  142.5390   80.9760  223.4490 C   0  0  0  0  0  0  0  0  0  0  0  0
  142.4777   81.2405  224.5150 H   0  0  0  0  0  0  0  0  0  0  0  0
  143.4683   81.4169  223.0591 H   0  0  0  0  0  0  0  0  0  0  0  0
  141.3150   81.4940  222.7020 C   0  0  0  0  0  0  0  0  0  0  0  0
  140.8458   82.3177  223.2599 H   0  0  0  0  0  0  0  0  0  0  0  0
  141.5819   81.8862  221.7095 H   0  0  0  0  0  0  0  0  0  0  0  0
  140.3610   80.3110  222.6000 C   0  0  0  0  0  0  0  0  0  0  0  0
  139.5585   80.4010  223.3469 H   0  0  0  0  0  0  0  0  0  0  0  0
  139.8809   80.2631  221.6115 H   0  0  0  0  0  0  0  0  0  0  0  0
  1  2  1  0
  2  3  1  0
  3  4  2  0
  4  5  1  0
  4  6  1  0
  6  7  1  0
  7  8  2  0
  8  9  1  0
  9 10  2  0
 10 11  1  0
 11 12  1  0
 11 13  1  0
 11 14  1  0
 14 15  2  0
 15 16  1  0
 15 17  1  0
 17 18  1  0
 17 19  2  0
 19 20  1  0
 19 21  1  0
 21 22  1  0
 21 23  2  0
 23 24  1  0
 10 25  1  0
 25 26  1  0
 26 27  1  0
 26 28  1  0
 26 29  1  0
 29 30  1  0
 29 31  1  0
 29 32  1  0
 32 33  2  0
 33 34  1  0
 33 35  1  0
 35 36  1  0
 35 37  2  0
 37 38  1  0
 37 39  1  0
 39 40  1  0
 39 41  2  0
 41 42  1  0
  3 43  1  0
 43 44  1  0
 44 45  1  0
 44 46  1  0
 44 47  1  0
 47 48  1  0
 47 49  1  0
 47 50  1  0
 50 51  1  0
 50 52  1  0
 50 53  1  0
 53 54  1  0
 53 55  1  0
 25  7  1  0
 41 32  1  0
 53 43  1  0
 23 14  1  0
M  END
>  <UniqueID>  (60) 
19

>  <SMILES>  (60) 
O/C(=C\Sc1nnc(Cc2ccccc2)n1CCc1ccccc1)N1CCCC1

>  <Energy>  (60) 
80.57087443506919

>  <Genealogy>  (60) 
OC(=CSc1nnc(Cc2ccccc2)n1CCc1ccccc1)N1CCCC1 (tautomer)
O/C(=C\Sc1nnc(Cc2ccccc2)n1CCc1ccccc1)N1CCCC1 (cis-trans isomerization)
O/C(=C\Sc1nnc(Cc2ccccc2)n1CCc1ccccc1)N1CCCC1 (3D coordinates assigned)
O/C(=C\Sc1nnc(Cc2ccccc2)n1CCc1ccccc1)N1CCCC1 (nonaromatic ring conformer: 80.57087443506919 kcal/mol)

>  <smiles>  (60) 
O=C(CSc1nnc(Cc2ccccc2)n1CCc1ccccc1)N1CCCC1

>  <score_type>  (60) 
oracle

>  <origin>  (60) 
autodockgpu

>  <m_score__min__energy>  (60) 
-8.5099999999999998

>  <m_primary>  (60) 
energy

>  <meeko>  (60) 
{"free_energy": -6.57, "intermolecular_energy": -9.55, "internal_energy": -3.29, "cluster_size": 1, "cluster_id": 5, "rank_in_cluster": 1}

>  <energy>  (60) 
-5.28

>  <cluster_rmsd>  (60) 
0.68

>  <rmsd>  (60) 
270.96

>  <cluster>  (60) 
6

$$$$
GPYMLVVOPJPQBB-UHFFFAOYNA-N
     RDKit          3D

 55 58  0  0  0  0  0  0  0  0999 V2000
  141.0660   73.3090  222.3570 O   0  0  0  0  0  0  0  0  0  0  0  0
  140.0610   72.5680  222.1850 C   0  0  0  0  0  0  0  0  0  0  0  0
  139.2920   72.6860  220.9010 C   0  0  0  0  0  0  0  0  0  0  0  0
  138.1650   74.1270  220.8940 S   0  0  0  0  0  0  0  0  0  0  0  0
  139.3900   75.3330  221.4180 C   0  0  0  0  0  0  0  0  0  0  0  0
  139.5690   75.6940  222.7030 N   0  0  0  0  0  0  0  0  0  0  0  0
  140.4870   76.6490  222.7110 N   0  0  0  0  0  0  0  0  0  0  0  0
  140.8460   76.8680  221.4310 C   0  0  0  0  0  0  0  0  0  0  0  0
  141.8120   77.9480  221.0350 C   0  0  0  0  0  0  0  0  0  0  0  0
  141.7800   79.0680  222.0390 C   0  0  0  0  0  0  0  0  0  0  0  0
  140.6040   79.8140  222.2270 C   0  0  0  0  0  0  0  0  0  0  0  0
  140.5810   80.8740  223.1400 C   0  0  0  0  0  0  0  0  0  0  0  0
  141.7320   81.2030  223.8600 C   0  0  0  0  0  0  0  0  0  0  0  0
  142.9090   80.4730  223.6690 C   0  0  0  0  0  0  0  0  0  0  0  0
  142.9360   79.4110  222.7600 C   0  0  0  0  0  0  0  0  0  0  0  0
  140.1650   76.0600  220.5860 N   0  0  0  0  0  0  0  0  0  0  0  0
  140.1650   76.0400  219.1180 C   0  0  0  0  0  0  0  0  0  0  0  0
  141.5890   76.0070  218.5550 C   0  0  0  0  0  0  0  0  0  0  0  0
  142.4620   75.0320  219.2980 C   0  0  0  0  0  0  0  0  0  0  0  0
  142.0820   73.6830  219.4050 C   0  0  0  0  0  0  0  0  0  0  0  0
  142.9180   72.7650  220.0470 C   0  0  0  0  0  0  0  0  0  0  0  0
  144.1380   73.1830  220.5820 C   0  0  0  0  0  0  0  0  0  0  0  0
  144.5250   74.5210  220.4760 C   0  0  0  0  0  0  0  0  0  0  0  0
  143.6930   75.4420  219.8350 C   0  0  0  0  0  0  0  0  0  0  0  0
  139.6730   71.6420  223.2170 N   0  0  0  0  0  0  0  0  0  0  0  0
  138.6110   70.6590  223.0860 C   0  0  0  0  0  0  0  0  0  0  0  0
  138.5260   69.9660  224.4390 C   0  0  0  0  0  0  0  0  0  0  0  0
  139.8240   70.3030  225.1650 C   0  0  0  0  0  0  0  0  0  0  0  0
  140.3610   71.5580  224.4930 C   0  0  0  0  0  0  0  0  0  0  0  0
  140.0053   72.7912  220.0703 H   0  0  0  0  0  0  0  0  0  0  0  0
  138.6785   71.7794  220.7926 H   0  0  0  0  0  0  0  0  0  0  0  0
  142.8279   77.5285  220.9910 H   0  0  0  0  0  0  0  0  0  0  0  0
  141.5251   78.3419  220.0488 H   0  0  0  0  0  0  0  0  0  0  0  0
  139.6986   79.5638  221.6545 H   0  0  0  0  0  0  0  0  0  0  0  0
  139.6555   81.4490  223.2910 H   0  0  0  0  0  0  0  0  0  0  0  0
  141.7123   82.0366  224.5774 H   0  0  0  0  0  0  0  0  0  0  0  0
  143.8153   80.7346  224.2348 H   0  0  0  0  0  0  0  0  0  0  0  0
  143.8653   78.8422  222.6089 H   0  0  0  0  0  0  0  0  0  0  0  0
  139.6239   75.1466  218.7731 H   0  0  0  0  0  0  0  0  0  0  0  0
  139.6750   76.9579  218.7612 H   0  0  0  0  0  0  0  0  0  0  0  0
  141.5464   75.7115  217.4963 H   0  0  0  0  0  0  0  0  0  0  0  0
  142.0245   77.0107  218.6684 H   0  0  0  0  0  0  0  0  0  0  0  0
  141.1233   73.3485  218.9820 H   0  0  0  0  0  0  0  0  0  0  0  0
  142.6141   71.7111  220.1309 H   0  0  0  0  0  0  0  0  0  0  0  0
  144.7943   72.4588  221.0869 H   0  0  0  0  0  0  0  0  0  0  0  0
  145.4862   74.8498  220.8978 H   0  0  0  0  0  0  0  0  0  0  0  0
  144.0037   76.4938  219.7505 H   0  0  0  0  0  0  0  0  0  0  0  0
  137.6577   71.1531  222.8470 H   0  0  0  0  0  0  0  0  0  0  0  0
  138.8151   69.9447  222.2747 H   0  0  0  0  0  0  0  0  0  0  0  0
  137.6618   70.3408  225.0070 H   0  0  0  0  0  0  0  0  0  0  0  0
  138.3963   68.8793  224.3281 H   0  0  0  0  0  0  0  0  0  0  0  0
  139.6287   70.4929  226.2307 H   0  0  0  0  0  0  0  0  0  0  0  0
  140.5453   69.4743  225.1105 H   0  0  0  0  0  0  0  0  0  0  0  0
  140.1431   72.4450  225.1059 H   0  0  0  0  0  0  0  0  0  0  0  0
  141.4527   71.5160  224.3650 H   0  0  0  0  0  0  0  0  0  0  0  0
  1  2  2  0
  2  3  1  0
  3  4  1  0
  4  5  1  0
  5  6  2  0
  6  7  1  0
  7  8  2  0
  8  9  1  0
  9 10  1  0
 10 11  2  0
 11 12  1  0
 12 13  2  0
 13 14  1  0
 14 15  2  0
  8 16  1  0
 16 17  1  0
 17 18  1  0
 18 19  1  0
 19 20  2  0
 20 21  1  0
 21 22  2  0
 22 23  1  0
 23 24  2  0
  2 25  1  0
 25 26  1  0
 26 27  1  0
 27 28  1  0
 28 29  1  0
 16  5  1  0
 24 19  1  0
 29 25  1  0
 15 10  1  0
  3 30  1  0
  3 31  1  0
  9 32  1  0
  9 33  1  0
 11 34  1  0
 12 35  1  0
 13 36  1  0
 14 37  1  0
 15 38  1  0
 17 39  1  0
 17 40  1  0
 18 41  1  0
 18 42  1  0
 20 43  1  0
 21 44  1  0
 22 45  1  0
 23 46  1  0
 24 47  1  0
 26 48  1  0
 26 49  1  0
 27 50  1  0
 27 51  1  0
 28 52  1  0
 28 53  1  0
 29 54  1  0
 29 55  1  0
M  END
>  <UniqueID>  (61) 
20

>  <SMILES>  (61) 
O=C(CSc1nnc(Cc2ccccc2)n1CCc1ccccc1)N1CCCC1

>  <Energy>  (61) 
80.64932046959768

>  <Genealogy>  (61) 
O=C(CSc1nnc(Cc2ccccc2)n1CCc1ccccc1)N1CCCC1 (3D coordinates assigned)
O=C(CSc1nnc(Cc2ccccc2)n1CCc1ccccc1)N1CCCC1 (nonaromatic ring conformer: 80.64932046959768 kcal/mol)

>  <smiles>  (61) 
O=C(CSc1nnc(Cc2ccccc2)n1CCc1ccccc1)N1CCCC1

>  <score_type>  (61) 
oracle

>  <origin>  (61) 
autodockgpu

>  <m_score__min__energy>  (61) 
-8.1099999999999994

>  <m_primary>  (61) 
energy

>  <meeko>  (61) 
{"free_energy": -6.92, "intermolecular_energy": -9.31, "internal_energy": -2.32, "cluster_size": 4, "cluster_id": 2, "rank_in_cluster": 4}

>  <energy>  (61) 
-8.11

>  <cluster_rmsd>  (61) 
0.0

>  <rmsd>  (61) 
270.53

>  <cluster>  (61) 
1

$$$$
GPYMLVVOPJPQBB-UHFFFAOYNA-N
     RDKit          3D

 55 58  0  0  0  0  0  0  0  0999 V2000
  142.1430   79.4240  219.3630 O   0  0  0  0  0  0  0  0  0  0  0  0
  141.6710   78.6790  220.2630 C   0  0  0  0  0  0  0  0  0  0  0  0
  141.0040   77.3960  219.8580 C   0  0  0  0  0  0  0  0  0  0  0  0
  142.1210   75.9560  220.0040 S   0  0  0  0  0  0  0  0  0  0  0  0
  140.9560   74.8930  220.8660 C   0  0  0  0  0  0  0  0  0  0  0  0
  140.2740   75.2790  221.9610 N   0  0  0  0  0  0  0  0  0  0  0  0
  139.5770   74.2290  222.3700 N   0  0  0  0  0  0  0  0  0  0  0  0
  139.8520   73.2140  221.5280 C   0  0  0  0  0  0  0  0  0  0  0  0
  139.3070   71.8280  221.7270 C   0  0  0  0  0  0  0  0  0  0  0  0
  139.6010   71.3490  223.1220 C   0  0  0  0  0  0  0  0  0  0  0  0
  138.7550   70.4120  223.7400 C   0  0  0  0  0  0  0  0  0  0  0  0
  139.0100   69.9880  225.0480 C   0  0  0  0  0  0  0  0  0  0  0  0
  140.1030   70.5030  225.7510 C   0  0  0  0  0  0  0  0  0  0  0  0
  140.9420   71.4440  225.1470 C   0  0  0  0  0  0  0  0  0  0  0  0
  140.6920   71.8690  223.8380 C   0  0  0  0  0  0  0  0  0  0  0  0
  140.7280   73.5950  220.5700 N   0  0  0  0  0  0  0  0  0  0  0  0
  141.3760   72.7880  219.5290 C   0  0  0  0  0  0  0  0  0  0  0  0
  142.3470   71.7680  220.1310 C   0  0  0  0  0  0  0  0  0  0  0  0
  143.7440   72.3170  220.2330 C   0  0  0  0  0  0  0  0  0  0  0  0
  144.8310   71.5790  219.7320 C   0  0  0  0  0  0  0  0  0  0  0  0
  146.1230   72.1110  219.7760 C   0  0  0  0  0  0  0  0  0  0  0  0
  146.3400   73.3820  220.3140 C   0  0  0  0  0  0  0  0  0  0  0  0
  145.2640   74.1230  220.8100 C   0  0  0  0  0  0  0  0  0  0  0  0
  143.9710   73.5950  220.7680 C   0  0  0  0  0  0  0  0  0  0  0  0
  141.7760   79.0760  221.6430 N   0  0  0  0  0  0  0  0  0  0  0  0
  141.3790   78.2490  222.7700 C   0  0  0  0  0  0  0  0  0  0  0  0
  141.6090   79.1070  224.0080 C   0  0  0  0  0  0  0  0  0  0  0  0
  142.5170   80.2480  223.5630 C   0  0  0  0  0  0  0  0  0  0  0  0
  142.3570   80.3420  222.0530 C   0  0  0  0  0  0  0  0  0  0  0  0
  140.1297   77.2324  220.5052 H   0  0  0  0  0  0  0  0  0  0  0  0
  140.7108   77.4883  218.8018 H   0  0  0  0  0  0  0  0  0  0  0  0
  138.2185   71.8395  221.5687 H   0  0  0  0  0  0  0  0  0  0  0  0
  139.7844   71.1479  221.0062 H   0  0  0  0  0  0  0  0  0  0  0  0
  137.8892   70.0108  223.1928 H   0  0  0  0  0  0  0  0  0  0  0  0
  138.3497   69.2483  225.5243 H   0  0  0  0  0  0  0  0  0  0  0  0
  140.3029   70.1678  226.7794 H   0  0  0  0  0  0  0  0  0  0  0  0
  141.8002   71.8509  225.7020 H   0  0  0  0  0  0  0  0  0  0  0  0
  141.3519   72.6129  223.3677 H   0  0  0  0  0  0  0  0  0  0  0  0
  140.6026   72.2519  218.9594 H   0  0  0  0  0  0  0  0  0  0  0  0
  141.9473   73.4633  218.8751 H   0  0  0  0  0  0  0  0  0  0  0  0
  141.9975   71.4953  221.1377 H   0  0  0  0  0  0  0  0  0  0  0  0
  142.3729   70.8897  219.4692 H   0  0  0  0  0  0  0  0  0  0  0  0
  144.6641   70.5795  219.3039 H   0  0  0  0  0  0  0  0  0  0  0  0
  146.9704   71.5278  219.3863 H   0  0  0  0  0  0  0  0  0  0  0  0
  147.3573   73.7992  220.3471 H   0  0  0  0  0  0  0  0  0  0  0  0
  145.4352   75.1234  221.2341 H   0  0  0  0  0  0  0  0  0  0  0  0
  143.1267   74.1836  221.1561 H   0  0  0  0  0  0  0  0  0  0  0  0
  140.3180   77.9707  222.6873 H   0  0  0  0  0  0  0  0  0  0  0  0
  141.9546   77.3125  222.8108 H   0  0  0  0  0  0  0  0  0  0  0  0
  140.6532   79.5024  224.3824 H   0  0  0  0  0  0  0  0  0  0  0  0
  142.0622   78.5251  224.8241 H   0  0  0  0  0  0  0  0  0  0  0  0
  142.2094   81.1903  224.0400 H   0  0  0  0  0  0  0  0  0  0  0  0
  143.5638   80.0665  223.8482 H   0  0  0  0  0  0  0  0  0  0  0  0
  141.6887   81.1748  221.7887 H   0  0  0  0  0  0  0  0  0  0  0  0
  143.3183   80.5301  221.5525 H   0  0  0  0  0  0  0  0  0  0  0  0
  1  2  2  0
  2  3  1  0
  3  4  1  0
  4  5  1  0
  5  6  2  0
  6  7  1  0
  7  8  2  0
  8  9  1  0
  9 10  1  0
 10 11  2  0
 11 12  1  0
 12 13  2  0
 13 14  1  0
 14 15  2  0
  8 16  1  0
 16 17  1  0
 17 18  1  0
 18 19  1  0
 19 20  2  0
 20 21  1  0
 21 22  2  0
 22 23  1  0
 23 24  2  0
  2 25  1  0
 25 26  1  0
 26 27  1  0
 27 28  1  0
 28 29  1  0
 16  5  1  0
 24 19  1  0
 29 25  1  0
 15 10  1  0
  3 30  1  0
  3 31  1  0
  9 32  1  0
  9 33  1  0
 11 34  1  0
 12 35  1  0
 13 36  1  0
 14 37  1  0
 15 38  1  0
 17 39  1  0
 17 40  1  0
 18 41  1  0
 18 42  1  0
 20 43  1  0
 21 44  1  0
 22 45  1  0
 23 46  1  0
 24 47  1  0
 26 48  1  0
 26 49  1  0
 27 50  1  0
 27 51  1  0
 28 52  1  0
 28 53  1  0
 29 54  1  0
 29 55  1  0
M  END
>  <UniqueID>  (62) 
20

>  <SMILES>  (62) 
O=C(CSc1nnc(Cc2ccccc2)n1CCc1ccccc1)N1CCCC1

>  <Energy>  (62) 
80.64932046959768

>  <Genealogy>  (62) 
O=C(CSc1nnc(Cc2ccccc2)n1CCc1ccccc1)N1CCCC1 (3D coordinates assigned)
O=C(CSc1nnc(Cc2ccccc2)n1CCc1ccccc1)N1CCCC1 (nonaromatic ring conformer: 80.64932046959768 kcal/mol)

>  <smiles>  (62) 
O=C(CSc1nnc(Cc2ccccc2)n1CCc1ccccc1)N1CCCC1

>  <score_type>  (62) 
oracle

>  <origin>  (62) 
autodockgpu

>  <m_score__min__energy>  (62) 
-8.1099999999999994

>  <m_primary>  (62) 
energy

>  <meeko>  (62) 
{"free_energy": -7.75, "intermolecular_energy": -10.14, "internal_energy": -1.72, "cluster_size": 1, "cluster_id": 4, "rank_in_cluster": 1}

>  <energy>  (62) 
-8.03

>  <cluster_rmsd>  (62) 
0.67

>  <rmsd>  (62) 
270.41

>  <cluster>  (62) 
1

$$$$
GPYMLVVOPJPQBB-UHFFFAOYNA-N
     RDKit          3D

 55 58  0  0  0  0  0  0  0  0999 V2000
  137.1870   76.8580  220.4730 O   0  0  0  0  0  0  0  0  0  0  0  0
  136.9480   76.9850  221.7040 C   0  0  0  0  0  0  0  0  0  0  0  0
  137.2940   78.2840  222.3730 C   0  0  0  0  0  0  0  0  0  0  0  0
  139.0120   78.3080  222.9980 S   0  0  0  0  0  0  0  0  0  0  0  0
  139.5380   76.7960  222.1800 C   0  0  0  0  0  0  0  0  0  0  0  0
  139.4960   75.5860  222.7670 N   0  0  0  0  0  0  0  0  0  0  0  0
  140.0270   74.7240  221.9120 N   0  0  0  0  0  0  0  0  0  0  0  0
  140.3960   75.4220  220.8190 C   0  0  0  0  0  0  0  0  0  0  0  0
  141.1160   74.7910  219.6620 C   0  0  0  0  0  0  0  0  0  0  0  0
  142.4720   74.3040  220.0960 C   0  0  0  0  0  0  0  0  0  0  0  0
  143.5700   75.1810  220.0970 C   0  0  0  0  0  0  0  0  0  0  0  0
  144.8370   74.7220  220.4730 C   0  0  0  0  0  0  0  0  0  0  0  0
  145.0180   73.3860  220.8390 C   0  0  0  0  0  0  0  0  0  0  0  0
  143.9320   72.5050  220.8290 C   0  0  0  0  0  0  0  0  0  0  0  0
  142.6640   72.9600  220.4560 C   0  0  0  0  0  0  0  0  0  0  0  0
  140.1100   76.7370  220.9590 N   0  0  0  0  0  0  0  0  0  0  0  0
  140.4380   77.8580  220.0690 C   0  0  0  0  0  0  0  0  0  0  0  0
  141.8220   78.4360  220.3790 C   0  0  0  0  0  0  0  0  0  0  0  0
  141.7740   79.4290  221.5090 C   0  0  0  0  0  0  0  0  0  0  0  0
  142.1770   79.0490  222.8010 C   0  0  0  0  0  0  0  0  0  0  0  0
  142.1850   79.9850  223.8390 C   0  0  0  0  0  0  0  0  0  0  0  0
  141.7970   81.3050  223.5970 C   0  0  0  0  0  0  0  0  0  0  0  0
  141.4000   81.6910  222.3140 C   0  0  0  0  0  0  0  0  0  0  0  0
  141.3900   80.7600  221.2730 C   0  0  0  0  0  0  0  0  0  0  0  0
  136.3620   75.8900  222.4330 N   0  0  0  0  0  0  0  0  0  0  0  0
  135.9340   75.9590  223.8200 C   0  0  0  0  0  0  0  0  0  0  0  0
  135.4480   74.5580  224.1680 C   0  0  0  0  0  0  0  0  0  0  0  0
  135.2390   73.8440  222.8360 C   0  0  0  0  0  0  0  0  0  0  0  0
  136.0800   74.6030  221.8210 C   0  0  0  0  0  0  0  0  0  0  0  0
  137.1709   79.1000  221.6457 H   0  0  0  0  0  0  0  0  0  0  0  0
  136.6213   78.4080  223.2344 H   0  0  0  0  0  0  0  0  0  0  0  0
  140.5272   73.9405  219.2880 H   0  0  0  0  0  0  0  0  0  0  0  0
  141.2417   75.5400  218.8663 H   0  0  0  0  0  0  0  0  0  0  0  0
  143.4329   76.2316  219.8013 H   0  0  0  0  0  0  0  0  0  0  0  0
  145.6919   75.4141  220.4805 H   0  0  0  0  0  0  0  0  0  0  0  0
  146.0147   73.0270  221.1351 H   0  0  0  0  0  0  0  0  0  0  0  0
  144.0758   71.4526  221.1150 H   0  0  0  0  0  0  0  0  0  0  0  0
  141.8133   72.2628  220.4444 H   0  0  0  0  0  0  0  0  0  0  0  0
  140.4240   77.5034  219.0278 H   0  0  0  0  0  0  0  0  0  0  0  0
  139.6911   78.6506  220.2235 H   0  0  0  0  0  0  0  0  0  0  0  0
  142.4972   77.6132  220.6568 H   0  0  0  0  0  0  0  0  0  0  0  0
  142.1829   78.9583  219.4807 H   0  0  0  0  0  0  0  0  0  0  0  0
  142.4871   78.0117  222.9957 H   0  0  0  0  0  0  0  0  0  0  0  0
  142.4976   79.6815  224.8490 H   0  0  0  0  0  0  0  0  0  0  0  0
  141.8040   82.0398  224.4156 H   0  0  0  0  0  0  0  0  0  0  0  0
  141.0947   82.7305  222.1235 H   0  0  0  0  0  0  0  0  0  0  0  0
  141.0802   81.0699  220.2640 H   0  0  0  0  0  0  0  0  0  0  0  0
  136.7755   76.2456  224.4679 H   0  0  0  0  0  0  0  0  0  0  0  0
  135.1453   76.7117  223.9660 H   0  0  0  0  0  0  0  0  0  0  0  0
  136.2019   74.0303  224.7706 H   0  0  0  0  0  0  0  0  0  0  0  0
  134.5211   74.5878  224.7596 H   0  0  0  0  0  0  0  0  0  0  0  0
  135.5739   72.7985  222.9054 H   0  0  0  0  0  0  0  0  0  0  0  0
  134.1773   73.8263  222.5490 H   0  0  0  0  0  0  0  0  0  0  0  0
  137.0155   74.0619  221.6159 H   0  0  0  0  0  0  0  0  0  0  0  0
  135.5563   74.7148  220.8601 H   0  0  0  0  0  0  0  0  0  0  0  0
  1  2  2  0
  2  3  1  0
  3  4  1  0
  4  5  1  0
  5  6  2  0
  6  7  1  0
  7  8  2  0
  8  9  1  0
  9 10  1  0
 10 11  2  0
 11 12  1  0
 12 13  2  0
 13 14  1  0
 14 15  2  0
  8 16  1  0
 16 17  1  0
 17 18  1  0
 18 19  1  0
 19 20  2  0
 20 21  1  0
 21 22  2  0
 22 23  1  0
 23 24  2  0
  2 25  1  0
 25 26  1  0
 26 27  1  0
 27 28  1  0
 28 29  1  0
 16  5  1  0
 24 19  1  0
 29 25  1  0
 15 10  1  0
  3 30  1  0
  3 31  1  0
  9 32  1  0
  9 33  1  0
 11 34  1  0
 12 35  1  0
 13 36  1  0
 14 37  1  0
 15 38  1  0
 17 39  1  0
 17 40  1  0
 18 41  1  0
 18 42  1  0
 20 43  1  0
 21 44  1  0
 22 45  1  0
 23 46  1  0
 24 47  1  0
 26 48  1  0
 26 49  1  0
 27 50  1  0
 27 51  1  0
 28 52  1  0
 28 53  1  0
 29 54  1  0
 29 55  1  0
M  END
>  <UniqueID>  (63) 
20

>  <SMILES>  (63) 
O=C(CSc1nnc(Cc2ccccc2)n1CCc1ccccc1)N1CCCC1

>  <Energy>  (63) 
80.64932046959768

>  <Genealogy>  (63) 
O=C(CSc1nnc(Cc2ccccc2)n1CCc1ccccc1)N1CCCC1 (3D coordinates assigned)
O=C(CSc1nnc(Cc2ccccc2)n1CCc1ccccc1)N1CCCC1 (nonaromatic ring conformer: 80.64932046959768 kcal/mol)

>  <smiles>  (63) 
O=C(CSc1nnc(Cc2ccccc2)n1CCc1ccccc1)N1CCCC1

>  <score_type>  (63) 
oracle

>  <origin>  (63) 
autodockgpu

>  <m_score__min__energy>  (63) 
-8.1099999999999994

>  <m_primary>  (63) 
energy

>  <meeko>  (63) 
{"free_energy": -6.47, "intermolecular_energy": -8.86, "internal_energy": -2.38, "cluster_size": 1, "cluster_id": 8, "rank_in_cluster": 1}

>  <energy>  (63) 
-8.01

>  <cluster_rmsd>  (63) 
0.45

>  <rmsd>  (63) 
270.55

>  <cluster>  (63) 
1

$$$$
GPYMLVVOPJPQBB-UHFFFAOYNA-N
     RDKit          3D

 55 58  0  0  0  0  0  0  0  0999 V2000
  139.1050   69.1350  222.6370 O   0  0  0  0  0  0  0  0  0  0  0  0
  139.4910   70.2940  222.9440 C   0  0  0  0  0  0  0  0  0  0  0  0
  139.3470   71.3930  221.9310 C   0  0  0  0  0  0  0  0  0  0  0  0
  140.9620   72.0760  221.4120 S   0  0  0  0  0  0  0  0  0  0  0  0
  140.5100   73.8060  221.6020 C   0  0  0  0  0  0  0  0  0  0  0  0
  139.6070   74.2380  222.5010 N   0  0  0  0  0  0  0  0  0  0  0  0
  139.4670   75.5420  222.3100 N   0  0  0  0  0  0  0  0  0  0  0  0
  140.2770   75.8850  221.2880 C   0  0  0  0  0  0  0  0  0  0  0  0
  140.3240   77.2770  220.7250 C   0  0  0  0  0  0  0  0  0  0  0  0
  141.0700   78.1900  221.6600 C   0  0  0  0  0  0  0  0  0  0  0  0
  141.7810   79.2910  221.1540 C   0  0  0  0  0  0  0  0  0  0  0  0
  142.4990   80.1240  222.0180 C   0  0  0  0  0  0  0  0  0  0  0  0
  142.5200   79.8570  223.3900 C   0  0  0  0  0  0  0  0  0  0  0  0
  141.8250   78.7560  223.8990 C   0  0  0  0  0  0  0  0  0  0  0  0
  141.1050   77.9220  223.0390 C   0  0  0  0  0  0  0  0  0  0  0  0
  140.9440   74.8090  220.8100 N   0  0  0  0  0  0  0  0  0  0  0  0
  141.8340   74.7100  219.6470 C   0  0  0  0  0  0  0  0  0  0  0  0
  143.2070   75.3240  219.9350 C   0  0  0  0  0  0  0  0  0  0  0  0
  144.2920   74.2820  219.9670 C   0  0  0  0  0  0  0  0  0  0  0  0
  145.3910   74.4320  220.8300 C   0  0  0  0  0  0  0  0  0  0  0  0
  146.3720   73.4380  220.9010 C   0  0  0  0  0  0  0  0  0  0  0  0
  146.2610   72.2870  220.1170 C   0  0  0  0  0  0  0  0  0  0  0  0
  145.1690   72.1280  219.2600 C   0  0  0  0  0  0  0  0  0  0  0  0
  144.1870   73.1190  219.1860 C   0  0  0  0  0  0  0  0  0  0  0  0
  140.0600   70.5340  224.2450 N   0  0  0  0  0  0  0  0  0  0  0  0
  140.4280   71.8440  224.7540 C   0  0  0  0  0  0  0  0  0  0  0  0
  141.0430   71.5920  226.1250 C   0  0  0  0  0  0  0  0  0  0  0  0
  140.6270   70.1780  226.5160 C   0  0  0  0  0  0  0  0  0  0  0  0
  140.2700   69.4750  225.2160 C   0  0  0  0  0  0  0  0  0  0  0  0
  138.8315   70.9925  221.0456 H   0  0  0  0  0  0  0  0  0  0  0  0
  138.7722   72.2067  222.3973 H   0  0  0  0  0  0  0  0  0  0  0  0
  140.8348   77.2581  219.7510 H   0  0  0  0  0  0  0  0  0  0  0  0
  139.2964   77.6499  220.6026 H   0  0  0  0  0  0  0  0  0  0  0  0
  141.7729   79.4987  220.0738 H   0  0  0  0  0  0  0  0  0  0  0  0
  143.0473   80.9895  221.6178 H   0  0  0  0  0  0  0  0  0  0  0  0
  143.0836   80.5134  224.0693 H   0  0  0  0  0  0  0  0  0  0  0  0
  141.8448   78.5456  224.9785 H   0  0  0  0  0  0  0  0  0  0  0  0
  140.5642   77.0534  223.4428 H   0  0  0  0  0  0  0  0  0  0  0  0
  141.9647   73.6493  219.3866 H   0  0  0  0  0  0  0  0  0  0  0  0
  141.3763   75.2649  218.8148 H   0  0  0  0  0  0  0  0  0  0  0  0
  143.4408   76.0569  219.1487 H   0  0  0  0  0  0  0  0  0  0  0  0
  143.1654   75.8033  220.9242 H   0  0  0  0  0  0  0  0  0  0  0  0
  145.4799   75.3348  221.4521 H   0  0  0  0  0  0  0  0  0  0  0  0
  147.2323   73.5625  221.5751 H   0  0  0  0  0  0  0  0  0  0  0  0
  147.0334   71.5059  220.1744 H   0  0  0  0  0  0  0  0  0  0  0  0
  145.0824   71.2216  218.6429 H   0  0  0  0  0  0  0  0  0  0  0  0
  143.3271   72.9879  218.5127 H   0  0  0  0  0  0  0  0  0  0  0  0
  141.1596   72.3236  224.0871 H   0  0  0  0  0  0  0  0  0  0  0  0
  139.5594   72.5162  224.8145 H   0  0  0  0  0  0  0  0  0  0  0  0
  142.1391   71.6676  226.0724 H   0  0  0  0  0  0  0  0  0  0  0  0
  140.7012   72.3323  226.8633 H   0  0  0  0  0  0  0  0  0  0  0  0
  141.4580   69.6590  227.0161 H   0  0  0  0  0  0  0  0  0  0  0  0
  139.7797   70.1854  227.2174 H   0  0  0  0  0  0  0  0  0  0  0  0
  141.0924   68.8182  224.8962 H   0  0  0  0  0  0  0  0  0  0  0  0
  139.3776   68.8416  225.3273 H   0  0  0  0  0  0  0  0  0  0  0  0
  1  2  2  0
  2  3  1  0
  3  4  1  0
  4  5  1  0
  5  6  2  0
  6  7  1  0
  7  8  2  0
  8  9  1  0
  9 10  1  0
 10 11  2  0
 11 12  1  0
 12 13  2  0
 13 14  1  0
 14 15  2  0
  8 16  1  0
 16 17  1  0
 17 18  1  0
 18 19  1  0
 19 20  2  0
 20 21  1  0
 21 22  2  0
 22 23  1  0
 23 24  2  0
  2 25  1  0
 25 26  1  0
 26 27  1  0
 27 28  1  0
 28 29  1  0
 16  5  1  0
 24 19  1  0
 29 25  1  0
 15 10  1  0
  3 30  1  0
  3 31  1  0
  9 32  1  0
  9 33  1  0
 11 34  1  0
 12 35  1  0
 13 36  1  0
 14 37  1  0
 15 38  1  0
 17 39  1  0
 17 40  1  0
 18 41  1  0
 18 42  1  0
 20 43  1  0
 21 44  1  0
 22 45  1  0
 23 46  1  0
 24 47  1  0
 26 48  1  0
 26 49  1  0
 27 50  1  0
 27 51  1  0
 28 52  1  0
 28 53  1  0
 29 54  1  0
 29 55  1  0
M  END
>  <UniqueID>  (64) 
20

>  <SMILES>  (64) 
O=C(CSc1nnc(Cc2ccccc2)n1CCc1ccccc1)N1CCCC1

>  <Energy>  (64) 
80.64932046959768

>  <Genealogy>  (64) 
O=C(CSc1nnc(Cc2ccccc2)n1CCc1ccccc1)N1CCCC1 (3D coordinates assigned)
O=C(CSc1nnc(Cc2ccccc2)n1CCc1ccccc1)N1CCCC1 (nonaromatic ring conformer: 80.64932046959768 kcal/mol)

>  <smiles>  (64) 
O=C(CSc1nnc(Cc2ccccc2)n1CCc1ccccc1)N1CCCC1

>  <score_type>  (64) 
oracle

>  <origin>  (64) 
autodockgpu

>  <m_score__min__energy>  (64) 
-8.1099999999999994

>  <m_primary>  (64) 
energy

>  <meeko>  (64) 
{"free_energy": -8.08, "intermolecular_energy": -10.47, "internal_energy": -1.67, "cluster_size": 4, "cluster_id": 2, "rank_in_cluster": 1}

>  <energy>  (64) 
-7.65

>  <cluster_rmsd>  (64) 
1.09

>  <rmsd>  (64) 
270.14

>  <cluster>  (64) 
1

$$$$
GPYMLVVOPJPQBB-UHFFFAOYNA-N
     RDKit          3D

 55 58  0  0  0  0  0  0  0  0999 V2000
  138.8570   69.9730  223.7110 O   0  0  0  0  0  0  0  0  0  0  0  0
  139.6550   70.8540  224.1300 C   0  0  0  0  0  0  0  0  0  0  0  0
  140.1730   71.8750  223.1590 C   0  0  0  0  0  0  0  0  0  0  0  0
  138.8680   72.4930  222.0370 S   0  0  0  0  0  0  0  0  0  0  0  0
  139.4220   74.2030  222.0190 C   0  0  0  0  0  0  0  0  0  0  0  0
  140.7180   74.5600  222.0960 N   0  0  0  0  0  0  0  0  0  0  0  0
  140.7500   75.8840  222.1350 N   0  0  0  0  0  0  0  0  0  0  0  0
  139.4750   76.3170  222.0940 C   0  0  0  0  0  0  0  0  0  0  0  0
  139.1090   77.7700  222.2060 C   0  0  0  0  0  0  0  0  0  0  0  0
  140.3470   78.6050  222.3870 C   0  0  0  0  0  0  0  0  0  0  0  0
  140.7990   78.9270  223.6780 C   0  0  0  0  0  0  0  0  0  0  0  0
  141.9330   79.7280  223.8480 C   0  0  0  0  0  0  0  0  0  0  0  0
  142.6160   80.2200  222.7320 C   0  0  0  0  0  0  0  0  0  0  0  0
  142.1650   79.9140  221.4450 C   0  0  0  0  0  0  0  0  0  0  0  0
  141.0320   79.1120  221.2710 C   0  0  0  0  0  0  0  0  0  0  0  0
  138.6080   75.2800  222.0300 N   0  0  0  0  0  0  0  0  0  0  0  0
  137.1410   75.2910  222.0790 C   0  0  0  0  0  0  0  0  0  0  0  0
  136.6250   76.0180  223.3250 C   0  0  0  0  0  0  0  0  0  0  0  0
  135.7260   75.1400  224.1540 C   0  0  0  0  0  0  0  0  0  0  0  0
  135.6230   73.7670  223.8690 C   0  0  0  0  0  0  0  0  0  0  0  0
  134.8310   72.9400  224.6710 C   0  0  0  0  0  0  0  0  0  0  0  0
  134.1420   73.4730  225.7630 C   0  0  0  0  0  0  0  0  0  0  0  0
  134.2440   74.8360  226.0550 C   0  0  0  0  0  0  0  0  0  0  0  0
  135.0340   75.6670  225.2570 C   0  0  0  0  0  0  0  0  0  0  0  0
  140.0510   70.8560  225.5140 N   0  0  0  0  0  0  0  0  0  0  0  0
  140.8660   71.8860  226.1370 C   0  0  0  0  0  0  0  0  0  0  0  0
  141.0760   71.4280  227.5750 C   0  0  0  0  0  0  0  0  0  0  0  0
  140.0260   70.3520  227.8280 C   0  0  0  0  0  0  0  0  0  0  0  0
  139.6140   69.8400  226.4560 C   0  0  0  0  0  0  0  0  0  0  0  0
  140.5841   72.7241  223.7247 H   0  0  0  0  0  0  0  0  0  0  0  0
  140.9446   71.3909  222.5423 H   0  0  0  0  0  0  0  0  0  0  0  0
  138.5888   78.0854  221.2895 H   0  0  0  0  0  0  0  0  0  0  0  0
  138.4520   77.9085  223.0773 H   0  0  0  0  0  0  0  0  0  0  0  0
  140.2590   78.5477  224.5581 H   0  0  0  0  0  0  0  0  0  0  0  0
  142.2876   79.9709  224.8606 H   0  0  0  0  0  0  0  0  0  0  0  0
  143.5088   80.8483  222.8668 H   0  0  0  0  0  0  0  0  0  0  0  0
  142.7016   80.3043  220.5677 H   0  0  0  0  0  0  0  0  0  0  0  0
  140.6766   78.8778  220.2567 H   0  0  0  0  0  0  0  0  0  0  0  0
  136.7575   75.8013  221.1832 H   0  0  0  0  0  0  0  0  0  0  0  0
  136.7897   74.2493  222.1176 H   0  0  0  0  0  0  0  0  0  0  0  0
  137.4844   76.3270  223.9381 H   0  0  0  0  0  0  0  0  0  0  0  0
  136.0407   76.8893  222.9943 H   0  0  0  0  0  0  0  0  0  0  0  0
  136.1672   73.3423  223.0125 H   0  0  0  0  0  0  0  0  0  0  0  0
  134.7502   71.8672  224.4416 H   0  0  0  0  0  0  0  0  0  0  0  0
  133.5195   72.8204  226.3927 H   0  0  0  0  0  0  0  0  0  0  0  0
  133.7011   75.2552  226.9149 H   0  0  0  0  0  0  0  0  0  0  0  0
  135.1145   76.7383  225.4933 H   0  0  0  0  0  0  0  0  0  0  0  0
  141.8317   71.9777  225.6182 H   0  0  0  0  0  0  0  0  0  0  0  0
  140.3812   72.8723  226.0905 H   0  0  0  0  0  0  0  0  0  0  0  0
  142.0870   71.0132  227.7007 H   0  0  0  0  0  0  0  0  0  0  0  0
  140.9772   72.2635  228.2836 H   0  0  0  0  0  0  0  0  0  0  0  0
  140.4524   69.5352  228.4289 H   0  0  0  0  0  0  0  0  0  0  0  0
  139.1655   70.7508  228.3852 H   0  0  0  0  0  0  0  0  0  0  0  0
  140.1054   68.8797  226.2408 H   0  0  0  0  0  0  0  0  0  0  0  0
  138.5295   69.6665  226.3944 H   0  0  0  0  0  0  0  0  0  0  0  0
  1  2  2  0
  2  3  1  0
  3  4  1  0
  4  5  1  0
  5  6  2  0
  6  7  1  0
  7  8  2  0
  8  9  1  0
  9 10  1  0
 10 11  2  0
 11 12  1  0
 12 13  2  0
 13 14  1  0
 14 15  2  0
  8 16  1  0
 16 17  1  0
 17 18  1  0
 18 19  1  0
 19 20  2  0
 20 21  1  0
 21 22  2  0
 22 23  1  0
 23 24  2  0
  2 25  1  0
 25 26  1  0
 26 27  1  0
 27 28  1  0
 28 29  1  0
 16  5  1  0
 24 19  1  0
 29 25  1  0
 15 10  1  0
  3 30  1  0
  3 31  1  0
  9 32  1  0
  9 33  1  0
 11 34  1  0
 12 35  1  0
 13 36  1  0
 14 37  1  0
 15 38  1  0
 17 39  1  0
 17 40  1  0
 18 41  1  0
 18 42  1  0
 20 43  1  0
 21 44  1  0
 22 45  1  0
 23 46  1  0
 24 47  1  0
 26 48  1  0
 26 49  1  0
 27 50  1  0
 27 51  1  0
 28 52  1  0
 28 53  1  0
 29 54  1  0
 29 55  1  0
M  END
>  <UniqueID>  (65) 
20

>  <SMILES>  (65) 
O=C(CSc1nnc(Cc2ccccc2)n1CCc1ccccc1)N1CCCC1

>  <Energy>  (65) 
80.64932046959768

>  <Genealogy>  (65) 
O=C(CSc1nnc(Cc2ccccc2)n1CCc1ccccc1)N1CCCC1 (3D coordinates assigned)
O=C(CSc1nnc(Cc2ccccc2)n1CCc1ccccc1)N1CCCC1 (nonaromatic ring conformer: 80.64932046959768 kcal/mol)

>  <smiles>  (65) 
O=C(CSc1nnc(Cc2ccccc2)n1CCc1ccccc1)N1CCCC1

>  <score_type>  (65) 
oracle

>  <origin>  (65) 
autodockgpu

>  <m_score__min__energy>  (65) 
-8.1099999999999994

>  <m_primary>  (65) 
energy

>  <meeko>  (65) 
{"free_energy": -8.01, "intermolecular_energy": -10.39, "internal_energy": -1.48, "cluster_size": 5, "cluster_id": 1, "rank_in_cluster": 3}

>  <energy>  (65) 
-7.51

>  <cluster_rmsd>  (65) 
1.33

>  <rmsd>  (65) 
269.97

>  <cluster>  (65) 
1

$$$$
GPYMLVVOPJPQBB-UHFFFAOYNA-N
     RDKit          3D

 55 58  0  0  0  0  0  0  0  0999 V2000
  138.7530   77.2530  222.9860 O   0  0  0  0  0  0  0  0  0  0  0  0
  139.8140   77.4330  222.3290 C   0  0  0  0  0  0  0  0  0  0  0  0
  140.1280   76.4960  221.2000 C   0  0  0  0  0  0  0  0  0  0  0  0
  138.7440   75.3580  220.8340 S   0  0  0  0  0  0  0  0  0  0  0  0
  139.3610   73.9810  221.8110 C   0  0  0  0  0  0  0  0  0  0  0  0
  140.6700   73.7670  222.0400 N   0  0  0  0  0  0  0  0  0  0  0  0
  140.7610   72.6340  222.7210 N   0  0  0  0  0  0  0  0  0  0  0  0
  139.5080   72.1660  222.8870 C   0  0  0  0  0  0  0  0  0  0  0  0
  139.2170   70.8470  223.5450 C   0  0  0  0  0  0  0  0  0  0  0  0
  139.7600   70.8340  224.9480 C   0  0  0  0  0  0  0  0  0  0  0  0
  139.3700   69.8280  225.8470 C   0  0  0  0  0  0  0  0  0  0  0  0
  139.8520   69.8320  227.1610 C   0  0  0  0  0  0  0  0  0  0  0  0
  140.7150   70.8450  227.5870 C   0  0  0  0  0  0  0  0  0  0  0  0
  141.0980   71.8570  226.7010 C   0  0  0  0  0  0  0  0  0  0  0  0
  140.6200   71.8550  225.3860 C   0  0  0  0  0  0  0  0  0  0  0  0
  138.5980   72.9880  222.3160 N   0  0  0  0  0  0  0  0  0  0  0  0
  137.1490   72.8090  222.1650 C   0  0  0  0  0  0  0  0  0  0  0  0
  136.3910   74.1160  222.4190 C   0  0  0  0  0  0  0  0  0  0  0  0
  135.6360   74.0810  223.7200 C   0  0  0  0  0  0  0  0  0  0  0  0
  135.4580   75.2610  224.4650 C   0  0  0  0  0  0  0  0  0  0  0  0
  134.7110   75.2420  225.6460 C   0  0  0  0  0  0  0  0  0  0  0  0
  134.1320   74.0500  226.0900 C   0  0  0  0  0  0  0  0  0  0  0  0
  134.3010   72.8750  225.3530 C   0  0  0  0  0  0  0  0  0  0  0  0
  135.0470   72.8890  224.1720 C   0  0  0  0  0  0  0  0  0  0  0  0
  140.6920   78.5190  222.6790 N   0  0  0  0  0  0  0  0  0  0  0  0
  141.8750   78.8970  221.9250 C   0  0  0  0  0  0  0  0  0  0  0  0
  142.5100   80.0410  222.7070 C   0  0  0  0  0  0  0  0  0  0  0  0
  141.4340   80.5410  223.6640 C   0  0  0  0  0  0  0  0  0  0  0  0
  140.4410   79.3980  223.8080 C   0  0  0  0  0  0  0  0  0  0  0  0
  140.3459   77.0885  220.2992 H   0  0  0  0  0  0  0  0  0  0  0  0
  140.9932   75.8866  221.5003 H   0  0  0  0  0  0  0  0  0  0  0  0
  138.1289   70.6885  223.5752 H   0  0  0  0  0  0  0  0  0  0  0  0
  139.6981   70.0442  222.9670 H   0  0  0  0  0  0  0  0  0  0  0  0
  138.6834   69.0343  225.5174 H   0  0  0  0  0  0  0  0  0  0  0  0
  139.5511   69.0369  227.8590 H   0  0  0  0  0  0  0  0  0  0  0  0
  141.0934   70.8465  228.6199 H   0  0  0  0  0  0  0  0  0  0  0  0
  141.7756   72.6552  227.0382 H   0  0  0  0  0  0  0  0  0  0  0  0
  140.9185   72.6554  224.6929 H   0  0  0  0  0  0  0  0  0  0  0  0
  136.9362   72.4657  221.1418 H   0  0  0  0  0  0  0  0  0  0  0  0
  136.8145   72.0672  222.9051 H   0  0  0  0  0  0  0  0  0  0  0  0
  137.1124   74.9459  222.4483 H   0  0  0  0  0  0  0  0  0  0  0  0
  135.6635   74.2527  221.6054 H   0  0  0  0  0  0  0  0  0  0  0  0
  135.9084   76.2021  224.1167 H   0  0  0  0  0  0  0  0  0  0  0  0
  134.5786   76.1666  226.2270 H   0  0  0  0  0  0  0  0  0  0  0  0
  133.5435   74.0368  227.0192 H   0  0  0  0  0  0  0  0  0  0  0  0
  133.8457   71.9370  225.7035 H   0  0  0  0  0  0  0  0  0  0  0  0
  135.1736   71.9621  223.5934 H   0  0  0  0  0  0  0  0  0  0  0  0
  142.5713   78.0486  221.8519 H   0  0  0  0  0  0  0  0  0  0  0  0
  141.6243   79.1962  220.8966 H   0  0  0  0  0  0  0  0  0  0  0  0
  143.3846   79.6812  223.2689 H   0  0  0  0  0  0  0  0  0  0  0  0
  142.8597   80.8417  222.0387 H   0  0  0  0  0  0  0  0  0  0  0  0
  141.8757   80.7895  224.6403 H   0  0  0  0  0  0  0  0  0  0  0  0
  140.9486   81.4527  223.2855 H   0  0  0  0  0  0  0  0  0  0  0  0
  140.6055   78.8633  224.7551 H   0  0  0  0  0  0  0  0  0  0  0  0
  139.4023   79.7598  223.8195 H   0  0  0  0  0  0  0  0  0  0  0  0
  1  2  2  0
  2  3  1  0
  3  4  1  0
  4  5  1  0
  5  6  2  0
  6  7  1  0
  7  8  2  0
  8  9  1  0
  9 10  1  0
 10 11  2  0
 11 12  1  0
 12 13  2  0
 13 14  1  0
 14 15  2  0
  8 16  1  0
 16 17  1  0
 17 18  1  0
 18 19  1  0
 19 20  2  0
 20 21  1  0
 21 22  2  0
 22 23  1  0
 23 24  2  0
  2 25  1  0
 25 26  1  0
 26 27  1  0
 27 28  1  0
 28 29  1  0
 16  5  1  0
 24 19  1  0
 29 25  1  0
 15 10  1  0
  3 30  1  0
  3 31  1  0
  9 32  1  0
  9 33  1  0
 11 34  1  0
 12 35  1  0
 13 36  1  0
 14 37  1  0
 15 38  1  0
 17 39  1  0
 17 40  1  0
 18 41  1  0
 18 42  1  0
 20 43  1  0
 21 44  1  0
 22 45  1  0
 23 46  1  0
 24 47  1  0
 26 48  1  0
 26 49  1  0
 27 50  1  0
 27 51  1  0
 28 52  1  0
 28 53  1  0
 29 54  1  0
 29 55  1  0
M  END
>  <UniqueID>  (66) 
20

>  <SMILES>  (66) 
O=C(CSc1nnc(Cc2ccccc2)n1CCc1ccccc1)N1CCCC1

>  <Energy>  (66) 
80.64932046959768

>  <Genealogy>  (66) 
O=C(CSc1nnc(Cc2ccccc2)n1CCc1ccccc1)N1CCCC1 (3D coordinates assigned)
O=C(CSc1nnc(Cc2ccccc2)n1CCc1ccccc1)N1CCCC1 (nonaromatic ring conformer: 80.64932046959768 kcal/mol)

>  <smiles>  (66) 
O=C(CSc1nnc(Cc2ccccc2)n1CCc1ccccc1)N1CCCC1

>  <score_type>  (66) 
oracle

>  <origin>  (66) 
autodockgpu

>  <m_score__min__energy>  (66) 
-8.1099999999999994

>  <m_primary>  (66) 
energy

>  <meeko>  (66) 
{"free_energy": -8.05, "intermolecular_energy": -10.43, "internal_energy": -1.41, "cluster_size": 4, "cluster_id": 3, "rank_in_cluster": 1}

>  <energy>  (66) 
-8.08

>  <cluster_rmsd>  (66) 
0.0

>  <rmsd>  (66) 
270.42

>  <cluster>  (66) 
2

$$$$
GPYMLVVOPJPQBB-UHFFFAOYNA-N
     RDKit          3D

 55 58  0  0  0  0  0  0  0  0999 V2000
  138.5080   77.4140  223.0090 O   0  0  0  0  0  0  0  0  0  0  0  0
  139.5830   77.4600  222.3520 C   0  0  0  0  0  0  0  0  0  0  0  0
  139.7900   76.4690  221.2430 C   0  0  0  0  0  0  0  0  0  0  0  0
  138.3830   75.3140  221.0700 S   0  0  0  0  0  0  0  0  0  0  0  0
  139.1560   73.9380  221.9300 C   0  0  0  0  0  0  0  0  0  0  0  0
  140.4800   73.8610  222.1600 N   0  0  0  0  0  0  0  0  0  0  0  0
  140.7020   72.6890  222.7380 N   0  0  0  0  0  0  0  0  0  0  0  0
  139.5140   72.0620  222.8410 C   0  0  0  0  0  0  0  0  0  0  0  0
  139.3800   70.6630  223.3730 C   0  0  0  0  0  0  0  0  0  0  0  0
  139.7540   70.6230  224.8290 C   0  0  0  0  0  0  0  0  0  0  0  0
  140.6860   71.5410  225.3450 C   0  0  0  0  0  0  0  0  0  0  0  0
  141.0570   71.4860  226.6920 C   0  0  0  0  0  0  0  0  0  0  0  0
  140.5100   70.5100  227.5300 C   0  0  0  0  0  0  0  0  0  0  0  0
  139.5920   69.5860  227.0220 C   0  0  0  0  0  0  0  0  0  0  0  0
  139.2170   69.6390  225.6750 C   0  0  0  0  0  0  0  0  0  0  0  0
  138.5150   72.8190  222.3310 N   0  0  0  0  0  0  0  0  0  0  0  0
  137.0990   72.4820  222.1410 C   0  0  0  0  0  0  0  0  0  0  0  0
  136.3950   72.2340  223.4790 C   0  0  0  0  0  0  0  0  0  0  0  0
  135.7370   73.4810  224.0050 C   0  0  0  0  0  0  0  0  0  0  0  0
  134.8520   73.4060  225.0940 C   0  0  0  0  0  0  0  0  0  0  0  0
  134.2820   74.5700  225.6200 C   0  0  0  0  0  0  0  0  0  0  0  0
  134.5930   75.8140  225.0670 C   0  0  0  0  0  0  0  0  0  0  0  0
  135.4750   75.8970  223.9860 C   0  0  0  0  0  0  0  0  0  0  0  0
  136.0480   74.7370  223.4580 C   0  0  0  0  0  0  0  0  0  0  0  0
  140.5780   78.4470  222.6820 N   0  0  0  0  0  0  0  0  0  0  0  0
  141.7970   78.6730  221.9230 C   0  0  0  0  0  0  0  0  0  0  0  0
  142.5560   79.7530  222.6830 C   0  0  0  0  0  0  0  0  0  0  0  0
  141.5430   80.3920  223.6270 C   0  0  0  0  0  0  0  0  0  0  0  0
  140.4270   79.3710  223.7910 C   0  0  0  0  0  0  0  0  0  0  0  0
  139.9153   77.0175  220.2978 H   0  0  0  0  0  0  0  0  0  0  0  0
  140.6838   75.8754  221.4856 H   0  0  0  0  0  0  0  0  0  0  0  0
  138.3388   70.3279  223.2560 H   0  0  0  0  0  0  0  0  0  0  0  0
  140.0536   69.9993  222.8111 H   0  0  0  0  0  0  0  0  0  0  0  0
  141.1248   72.3051  224.6865 H   0  0  0  0  0  0  0  0  0  0  0  0
  141.7802   72.2116  227.0927 H   0  0  0  0  0  0  0  0  0  0  0  0
  140.8020   70.4690  228.5897 H   0  0  0  0  0  0  0  0  0  0  0  0
  139.1642   68.8168  227.6817 H   0  0  0  0  0  0  0  0  0  0  0  0
  138.4987   68.9070  225.2771 H   0  0  0  0  0  0  0  0  0  0  0  0
  136.5999   73.3147  221.6238 H   0  0  0  0  0  0  0  0  0  0  0  0
  137.0414   71.5592  221.5451 H   0  0  0  0  0  0  0  0  0  0  0  0
  135.6274   71.4586  223.3389 H   0  0  0  0  0  0  0  0  0  0  0  0
  137.1527   71.9137  224.2093 H   0  0  0  0  0  0  0  0  0  0  0  0
  134.6066   72.4283  225.5344 H   0  0  0  0  0  0  0  0  0  0  0  0
  133.5876   74.5054  226.4707 H   0  0  0  0  0  0  0  0  0  0  0  0
  134.1439   76.7284  225.4821 H   0  0  0  0  0  0  0  0  0  0  0  0
  135.7185   76.8771  223.5501 H   0  0  0  0  0  0  0  0  0  0  0  0
  136.7456   74.8077  222.6104 H   0  0  0  0  0  0  0  0  0  0  0  0
  142.3929   77.7500  221.8692 H   0  0  0  0  0  0  0  0  0  0  0  0
  141.5824   78.9770  220.8879 H   0  0  0  0  0  0  0  0  0  0  0  0
  143.3838   79.3082  223.2547 H   0  0  0  0  0  0  0  0  0  0  0  0
  142.9941   80.4950  221.9993 H   0  0  0  0  0  0  0  0  0  0  0  0
  142.0094   80.6090  224.5993 H   0  0  0  0  0  0  0  0  0  0  0  0
  141.1643   81.3451  223.2292 H   0  0  0  0  0  0  0  0  0  0  0  0
  140.5293   78.8408  224.7493 H   0  0  0  0  0  0  0  0  0  0  0  0
  139.4357   79.8478  223.7917 H   0  0  0  0  0  0  0  0  0  0  0  0
  1  2  2  0
  2  3  1  0
  3  4  1  0
  4  5  1  0
  5  6  2  0
  6  7  1  0
  7  8  2  0
  8  9  1  0
  9 10  1  0
 10 11  2  0
 11 12  1  0
 12 13  2  0
 13 14  1  0
 14 15  2  0
  8 16  1  0
 16 17  1  0
 17 18  1  0
 18 19  1  0
 19 20  2  0
 20 21  1  0
 21 22  2  0
 22 23  1  0
 23 24  2  0
  2 25  1  0
 25 26  1  0
 26 27  1  0
 27 28  1  0
 28 29  1  0
 16  5  1  0
 24 19  1  0
 29 25  1  0
 15 10  1  0
  3 30  1  0
  3 31  1  0
  9 32  1  0
  9 33  1  0
 11 34  1  0
 12 35  1  0
 13 36  1  0
 14 37  1  0
 15 38  1  0
 17 39  1  0
 17 40  1  0
 18 41  1  0
 18 42  1  0
 20 43  1  0
 21 44  1  0
 22 45  1  0
 23 46  1  0
 24 47  1  0
 26 48  1  0
 26 49  1  0
 27 50  1  0
 27 51  1  0
 28 52  1  0
 28 53  1  0
 29 54  1  0
 29 55  1  0
M  END
>  <UniqueID>  (67) 
20

>  <SMILES>  (67) 
O=C(CSc1nnc(Cc2ccccc2)n1CCc1ccccc1)N1CCCC1

>  <Energy>  (67) 
80.64932046959768

>  <Genealogy>  (67) 
O=C(CSc1nnc(Cc2ccccc2)n1CCc1ccccc1)N1CCCC1 (3D coordinates assigned)
O=C(CSc1nnc(Cc2ccccc2)n1CCc1ccccc1)N1CCCC1 (nonaromatic ring conformer: 80.64932046959768 kcal/mol)

>  <smiles>  (67) 
O=C(CSc1nnc(Cc2ccccc2)n1CCc1ccccc1)N1CCCC1

>  <score_type>  (67) 
oracle

>  <origin>  (67) 
autodockgpu

>  <m_score__min__energy>  (67) 
-8.1099999999999994

>  <m_primary>  (67) 
energy

>  <meeko>  (67) 
{"free_energy": -7.9, "intermolecular_energy": -10.29, "internal_energy": -1.71, "cluster_size": 4, "cluster_id": 3, "rank_in_cluster": 3}

>  <energy>  (67) 
-7.65

>  <cluster_rmsd>  (67) 
0.94

>  <rmsd>  (67) 
270.2

>  <cluster>  (67) 
2

$$$$
GPYMLVVOPJPQBB-UHFFFAOYNA-N
     RDKit          3D

 55 58  0  0  0  0  0  0  0  0999 V2000
  138.3560   79.2530  223.2020 O   0  0  0  0  0  0  0  0  0  0  0  0
  139.4630   78.6910  222.9880 C   0  0  0  0  0  0  0  0  0  0  0  0
  139.4720   77.2320  222.6320 C   0  0  0  0  0  0  0  0  0  0  0  0
  139.8600   76.9490  220.8670 S   0  0  0  0  0  0  0  0  0  0  0  0
  140.3720   75.2360  221.0530 C   0  0  0  0  0  0  0  0  0  0  0  0
  140.1170   74.5050  222.1550 N   0  0  0  0  0  0  0  0  0  0  0  0
  140.7010   73.3290  221.9800 N   0  0  0  0  0  0  0  0  0  0  0  0
  141.3140   73.3620  220.7800 C   0  0  0  0  0  0  0  0  0  0  0  0
  142.1580   72.2280  220.2710 C   0  0  0  0  0  0  0  0  0  0  0  0
  143.6070   72.6320  220.2390 C   0  0  0  0  0  0  0  0  0  0  0  0
  144.5650   71.7800  219.6650 C   0  0  0  0  0  0  0  0  0  0  0  0
  145.9160   72.1410  219.6610 C   0  0  0  0  0  0  0  0  0  0  0  0
  146.3200   73.3490  220.2370 C   0  0  0  0  0  0  0  0  0  0  0  0
  145.3740   74.1960  220.8210 C   0  0  0  0  0  0  0  0  0  0  0  0
  144.0220   73.8390  220.8260 C   0  0  0  0  0  0  0  0  0  0  0  0
  141.1350   74.5570  220.1720 N   0  0  0  0  0  0  0  0  0  0  0  0
  141.7130   75.0570  218.9180 C   0  0  0  0  0  0  0  0  0  0  0  0
  142.8110   76.0930  219.1790 C   0  0  0  0  0  0  0  0  0  0  0  0
  142.4620   77.4370  218.5990 C   0  0  0  0  0  0  0  0  0  0  0  0
  142.1750   78.5190  219.4490 C   0  0  0  0  0  0  0  0  0  0  0  0
  141.9040   79.7820  218.9130 C   0  0  0  0  0  0  0  0  0  0  0  0
  141.9220   79.9760  217.5300 C   0  0  0  0  0  0  0  0  0  0  0  0
  142.2110   78.9050  216.6790 C   0  0  0  0  0  0  0  0  0  0  0  0
  142.4830   77.6420  217.2100 C   0  0  0  0  0  0  0  0  0  0  0  0
  140.6810   79.4520  223.0950 N   0  0  0  0  0  0  0  0  0  0  0  0
  142.0010   78.9460  222.7570 C   0  0  0  0  0  0  0  0  0  0  0  0
  142.9690   80.0740  223.0930 C   0  0  0  0  0  0  0  0  0  0  0  0
  142.1170   81.3310  223.2280 C   0  0  0  0  0  0  0  0  0  0  0  0
  140.7010   80.8460  223.5010 C   0  0  0  0  0  0  0  0  0  0  0  0
  140.2291   76.7229  223.2464 H   0  0  0  0  0  0  0  0  0  0  0  0
  138.4646   76.8334  222.8227 H   0  0  0  0  0  0  0  0  0  0  0  0
  142.0377   71.3591  220.9348 H   0  0  0  0  0  0  0  0  0  0  0  0
  141.8349   71.9697  219.2517 H   0  0  0  0  0  0  0  0  0  0  0  0
  144.2514   70.8255  219.2171 H   0  0  0  0  0  0  0  0  0  0  0  0
  146.6616   71.4737  219.2041 H   0  0  0  0  0  0  0  0  0  0  0  0
  147.3827   73.6330  220.2306 H   0  0  0  0  0  0  0  0  0  0  0  0
  145.6934   75.1446  221.2772 H   0  0  0  0  0  0  0  0  0  0  0  0
  143.2808   74.5055  221.2912 H   0  0  0  0  0  0  0  0  0  0  0  0
  142.1441   74.2119  218.3613 H   0  0  0  0  0  0  0  0  0  0  0  0
  140.9131   75.5408  218.3383 H   0  0  0  0  0  0  0  0  0  0  0  0
  142.9492   76.1992  220.2651 H   0  0  0  0  0  0  0  0  0  0  0  0
  143.7341   75.7415  218.6949 H   0  0  0  0  0  0  0  0  0  0  0  0
  142.1635   78.3719  220.5391 H   0  0  0  0  0  0  0  0  0  0  0  0
  141.6761   80.6247  219.5823 H   0  0  0  0  0  0  0  0  0  0  0  0
  141.7090   80.9704  217.1107 H   0  0  0  0  0  0  0  0  0  0  0  0
  142.2242   79.0572  215.5897 H   0  0  0  0  0  0  0  0  0  0  0  0
  142.7148   76.8037  216.5366 H   0  0  0  0  0  0  0  0  0  0  0  0
  142.2332   78.0504  223.3520 H   0  0  0  0  0  0  0  0  0  0  0  0
  142.0669   78.6540  221.6985 H   0  0  0  0  0  0  0  0  0  0  0  0
  143.4901   79.8619  224.0382 H   0  0  0  0  0  0  0  0  0  0  0  0
  143.7387   80.1899  222.3158 H   0  0  0  0  0  0  0  0  0  0  0  0
  142.4774   81.9499  224.0629 H   0  0  0  0  0  0  0  0  0  0  0  0
  142.1642   81.9509  222.3206 H   0  0  0  0  0  0  0  0  0  0  0  0
  140.4632   80.9378  224.5711 H   0  0  0  0  0  0  0  0  0  0  0  0
  139.9545   81.4402  222.9537 H   0  0  0  0  0  0  0  0  0  0  0  0
  1  2  2  0
  2  3  1  0
  3  4  1  0
  4  5  1  0
  5  6  2  0
  6  7  1  0
  7  8  2  0
  8  9  1  0
  9 10  1  0
 10 11  2  0
 11 12  1  0
 12 13  2  0
 13 14  1  0
 14 15  2  0
  8 16  1  0
 16 17  1  0
 17 18  1  0
 18 19  1  0
 19 20  2  0
 20 21  1  0
 21 22  2  0
 22 23  1  0
 23 24  2  0
  2 25  1  0
 25 26  1  0
 26 27  1  0
 27 28  1  0
 28 29  1  0
 16  5  1  0
 24 19  1  0
 29 25  1  0
 15 10  1  0
  3 30  1  0
  3 31  1  0
  9 32  1  0
  9 33  1  0
 11 34  1  0
 12 35  1  0
 13 36  1  0
 14 37  1  0
 15 38  1  0
 17 39  1  0
 17 40  1  0
 18 41  1  0
 18 42  1  0
 20 43  1  0
 21 44  1  0
 22 45  1  0
 23 46  1  0
 24 47  1  0
 26 48  1  0
 26 49  1  0
 27 50  1  0
 27 51  1  0
 28 52  1  0
 28 53  1  0
 29 54  1  0
 29 55  1  0
M  END
>  <UniqueID>  (68) 
20

>  <SMILES>  (68) 
O=C(CSc1nnc(Cc2ccccc2)n1CCc1ccccc1)N1CCCC1

>  <Energy>  (68) 
80.64932046959768

>  <Genealogy>  (68) 
O=C(CSc1nnc(Cc2ccccc2)n1CCc1ccccc1)N1CCCC1 (3D coordinates assigned)
O=C(CSc1nnc(Cc2ccccc2)n1CCc1ccccc1)N1CCCC1 (nonaromatic ring conformer: 80.64932046959768 kcal/mol)

>  <smiles>  (68) 
O=C(CSc1nnc(Cc2ccccc2)n1CCc1ccccc1)N1CCCC1

>  <score_type>  (68) 
oracle

>  <origin>  (68) 
autodockgpu

>  <m_score__min__energy>  (68) 
-8.1099999999999994

>  <m_primary>  (68) 
energy

>  <meeko>  (68) 
{"free_energy": -7.2, "intermolecular_energy": -9.59, "internal_energy": -1.98, "cluster_size": 2, "cluster_id": 6, "rank_in_cluster": 1}

>  <energy>  (68) 
-7.16

>  <cluster_rmsd>  (68) 
1.39

>  <rmsd>  (68) 
269.84

>  <cluster>  (68) 
2

$$$$
GPYMLVVOPJPQBB-UHFFFAOYNA-N
     RDKit          3D

 55 58  0  0  0  0  0  0  0  0999 V2000
  141.4350   76.7960  223.0440 O   0  0  0  0  0  0  0  0  0  0  0  0
  140.6920   77.7610  222.7190 C   0  0  0  0  0  0  0  0  0  0  0  0
  139.2990   77.4670  222.2420 C   0  0  0  0  0  0  0  0  0  0  0  0
  139.2680   76.8620  220.5170 S   0  0  0  0  0  0  0  0  0  0  0  0
  140.0250   75.2670  220.8570 C   0  0  0  0  0  0  0  0  0  0  0  0
  140.0400   74.7030  222.0790 N   0  0  0  0  0  0  0  0  0  0  0  0
  140.7420   73.5840  221.9770 N   0  0  0  0  0  0  0  0  0  0  0  0
  141.1570   73.4870  220.6990 C   0  0  0  0  0  0  0  0  0  0  0  0
  142.0580   72.3840  220.2220 C   0  0  0  0  0  0  0  0  0  0  0  0
  143.4970   72.8170  220.3000 C   0  0  0  0  0  0  0  0  0  0  0  0
  144.5250   71.9080  219.9980 C   0  0  0  0  0  0  0  0  0  0  0  0
  145.8640   72.3010  220.0990 C   0  0  0  0  0  0  0  0  0  0  0  0
  146.1840   73.5980  220.5110 C   0  0  0  0  0  0  0  0  0  0  0  0
  145.1660   74.5030  220.8250 C   0  0  0  0  0  0  0  0  0  0  0  0
  143.8270   74.1150  220.7240 C   0  0  0  0  0  0  0  0  0  0  0  0
  140.7300   74.5400  219.9650 N   0  0  0  0  0  0  0  0  0  0  0  0
  141.0400   74.8890  218.5730 C   0  0  0  0  0  0  0  0  0  0  0  0
  142.4030   75.5790  218.4560 C   0  0  0  0  0  0  0  0  0  0  0  0
  142.2750   77.0780  218.4770 C   0  0  0  0  0  0  0  0  0  0  0  0
  142.1970   77.7630  219.7020 C   0  0  0  0  0  0  0  0  0  0  0  0
  142.1330   79.1600  219.7250 C   0  0  0  0  0  0  0  0  0  0  0  0
  142.1510   79.8820  218.5290 C   0  0  0  0  0  0  0  0  0  0  0  0
  142.2330   79.2080  217.3070 C   0  0  0  0  0  0  0  0  0  0  0  0
  142.2980   77.8130  217.2800 C   0  0  0  0  0  0  0  0  0  0  0  0
  141.1940   79.1070  222.8060 N   0  0  0  0  0  0  0  0  0  0  0  0
  140.3980   80.3000  222.5750 C   0  0  0  0  0  0  0  0  0  0  0  0
  141.3640   81.4700  222.7110 C   0  0  0  0  0  0  0  0  0  0  0  0
  142.5950   80.9160  223.4210 C   0  0  0  0  0  0  0  0  0  0  0  0
  142.5580   79.4110  223.2010 C   0  0  0  0  0  0  0  0  0  0  0  0
  138.8568   76.6993  222.8939 H   0  0  0  0  0  0  0  0  0  0  0  0
  138.7260   78.4052  222.2794 H   0  0  0  0  0  0  0  0  0  0  0  0
  141.9111   71.4960  220.8543 H   0  0  0  0  0  0  0  0  0  0  0  0
  141.8113   72.1462  219.1767 H   0  0  0  0  0  0  0  0  0  0  0  0
  144.2763   70.8844  219.6812 H   0  0  0  0  0  0  0  0  0  0  0  0
  146.6657   71.5888  219.8540 H   0  0  0  0  0  0  0  0  0  0  0  0
  147.2371   73.9064  220.5881 H   0  0  0  0  0  0  0  0  0  0  0  0
  145.4191   75.5223  221.1521 H   0  0  0  0  0  0  0  0  0  0  0  0
  143.0290   74.8284  220.9774 H   0  0  0  0  0  0  0  0  0  0  0  0
  141.0517   73.9701  217.9685 H   0  0  0  0  0  0  0  0  0  0  0  0
  140.2689   75.5858  218.2125 H   0  0  0  0  0  0  0  0  0  0  0  0
  143.0350   75.2639  219.2994 H   0  0  0  0  0  0  0  0  0  0  0  0
  142.8518   75.2880  217.4948 H   0  0  0  0  0  0  0  0  0  0  0  0
  142.1863   77.1983  220.6459 H   0  0  0  0  0  0  0  0  0  0  0  0
  142.0684   79.6910  220.6862 H   0  0  0  0  0  0  0  0  0  0  0  0
  142.1007   80.9807  218.5489 H   0  0  0  0  0  0  0  0  0  0  0  0
  142.2463   79.7769  216.3656 H   0  0  0  0  0  0  0  0  0  0  0  0
  142.3676   77.2871  216.3164 H   0  0  0  0  0  0  0  0  0  0  0  0
  139.9593   80.2795  221.5665 H   0  0  0  0  0  0  0  0  0  0  0  0
  139.5633   80.3765  223.2874 H   0  0  0  0  0  0  0  0  0  0  0  0
  141.6370   81.8580  221.7186 H   0  0  0  0  0  0  0  0  0  0  0  0
  140.9141   82.3017  223.2729 H   0  0  0  0  0  0  0  0  0  0  0  0
  143.5115   81.3439  222.9887 H   0  0  0  0  0  0  0  0  0  0  0  0
  142.5931   81.1689  224.4915 H   0  0  0  0  0  0  0  0  0  0  0  0
  143.2613   79.1218  222.4062 H   0  0  0  0  0  0  0  0  0  0  0  0
  142.8516   78.8601  224.1067 H   0  0  0  0  0  0  0  0  0  0  0  0
  1  2  2  0
  2  3  1  0
  3  4  1  0
  4  5  1  0
  5  6  2  0
  6  7  1  0
  7  8  2  0
  8  9  1  0
  9 10  1  0
 10 11  2  0
 11 12  1  0
 12 13  2  0
 13 14  1  0
 14 15  2  0
  8 16  1  0
 16 17  1  0
 17 18  1  0
 18 19  1  0
 19 20  2  0
 20 21  1  0
 21 22  2  0
 22 23  1  0
 23 24  2  0
  2 25  1  0
 25 26  1  0
 26 27  1  0
 27 28  1  0
 28 29  1  0
 16  5  1  0
 24 19  1  0
 29 25  1  0
 15 10  1  0
  3 30  1  0
  3 31  1  0
  9 32  1  0
  9 33  1  0
 11 34  1  0
 12 35  1  0
 13 36  1  0
 14 37  1  0
 15 38  1  0
 17 39  1  0
 17 40  1  0
 18 41  1  0
 18 42  1  0
 20 43  1  0
 21 44  1  0
 22 45  1  0
 23 46  1  0
 24 47  1  0
 26 48  1  0
 26 49  1  0
 27 50  1  0
 27 51  1  0
 28 52  1  0
 28 53  1  0
 29 54  1  0
 29 55  1  0
M  END
>  <UniqueID>  (69) 
20

>  <SMILES>  (69) 
O=C(CSc1nnc(Cc2ccccc2)n1CCc1ccccc1)N1CCCC1

>  <Energy>  (69) 
80.64932046959768

>  <Genealogy>  (69) 
O=C(CSc1nnc(Cc2ccccc2)n1CCc1ccccc1)N1CCCC1 (3D coordinates assigned)
O=C(CSc1nnc(Cc2ccccc2)n1CCc1ccccc1)N1CCCC1 (nonaromatic ring conformer: 80.64932046959768 kcal/mol)

>  <smiles>  (69) 
O=C(CSc1nnc(Cc2ccccc2)n1CCc1ccccc1)N1CCCC1

>  <score_type>  (69) 
oracle

>  <origin>  (69) 
autodockgpu

>  <m_score__min__energy>  (69) 
-8.1099999999999994

>  <m_primary>  (69) 
energy

>  <meeko>  (69) 
{"free_energy": -6.92, "intermolecular_energy": -9.3, "internal_energy": -2.58, "cluster_size": 2, "cluster_id": 6, "rank_in_cluster": 2}

>  <energy>  (69) 
-6.92

>  <cluster_rmsd>  (69) 
1.77

>  <rmsd>  (69) 
270.12

>  <cluster>  (69) 
2

$$$$
GPYMLVVOPJPQBB-UHFFFAOYNA-N
     RDKit          3D

 55 58  0  0  0  0  0  0  0  0999 V2000
  139.9530   74.5170  222.3460 O   0  0  0  0  0  0  0  0  0  0  0  0
  139.1700   75.4920  222.1930 C   0  0  0  0  0  0  0  0  0  0  0  0
  137.7460   75.2170  221.8040 C   0  0  0  0  0  0  0  0  0  0  0  0
  137.5920   73.7530  220.7190 S   0  0  0  0  0  0  0  0  0  0  0  0
  137.9620   72.5330  221.9860 C   0  0  0  0  0  0  0  0  0  0  0  0
  137.2250   72.3820  223.1020 N   0  0  0  0  0  0  0  0  0  0  0  0
  137.8250   71.4580  223.8380 N   0  0  0  0  0  0  0  0  0  0  0  0
  138.9270   71.0670  223.1670 C   0  0  0  0  0  0  0  0  0  0  0  0
  139.9130   70.0850  223.7330 C   0  0  0  0  0  0  0  0  0  0  0  0
  140.1910   70.4020  225.1770 C   0  0  0  0  0  0  0  0  0  0  0  0
  139.7350   69.5400  226.1890 C   0  0  0  0  0  0  0  0  0  0  0  0
  139.9670   69.8490  227.5340 C   0  0  0  0  0  0  0  0  0  0  0  0
  140.6450   71.0210  227.8770 C   0  0  0  0  0  0  0  0  0  0  0  0
  141.0910   71.8890  226.8760 C   0  0  0  0  0  0  0  0  0  0  0  0
  140.8630   71.5840  225.5300 C   0  0  0  0  0  0  0  0  0  0  0  0
  139.0490   71.7340  221.9960 N   0  0  0  0  0  0  0  0  0  0  0  0
  140.1440   71.7010  221.0190 C   0  0  0  0  0  0  0  0  0  0  0  0
  141.4950   72.0030  221.6760 C   0  0  0  0  0  0  0  0  0  0  0  0
  142.2780   73.0280  220.9010 C   0  0  0  0  0  0  0  0  0  0  0  0
  143.6810   72.9570  220.8550 C   0  0  0  0  0  0  0  0  0  0  0  0
  144.4080   73.8750  220.0910 C   0  0  0  0  0  0  0  0  0  0  0  0
  143.7430   74.8640  219.3640 C   0  0  0  0  0  0  0  0  0  0  0  0
  142.3470   74.9390  219.4010 C   0  0  0  0  0  0  0  0  0  0  0  0
  141.6170   74.0230  220.1630 C   0  0  0  0  0  0  0  0  0  0  0  0
  139.6560   76.8340  222.3870 N   0  0  0  0  0  0  0  0  0  0  0  0
  138.8240   78.0240  222.3560 C   0  0  0  0  0  0  0  0  0  0  0  0
  139.7790   79.1960  222.5410 C   0  0  0  0  0  0  0  0  0  0  0  0
  141.0750   78.5990  223.0800 C   0  0  0  0  0  0  0  0  0  0  0  0
  141.0440   77.1270  222.6980 C   0  0  0  0  0  0  0  0  0  0  0  0
  137.1572   75.0440  222.7169 H   0  0  0  0  0  0  0  0  0  0  0  0
  137.3756   76.0895  221.2458 H   0  0  0  0  0  0  0  0  0  0  0  0
  139.4982   69.0690  223.6573 H   0  0  0  0  0  0  0  0  0  0  0  0
  140.8520   70.1505  223.1638 H   0  0  0  0  0  0  0  0  0  0  0  0
  139.1942   68.6198  225.9231 H   0  0  0  0  0  0  0  0  0  0  0  0
  139.6148   69.1677  228.3225 H   0  0  0  0  0  0  0  0  0  0  0  0
  140.8280   71.2610  228.9348 H   0  0  0  0  0  0  0  0  0  0  0  0
  141.6221   72.8133  227.1473 H   0  0  0  0  0  0  0  0  0  0  0  0
  141.2111   72.2720  224.7454 H   0  0  0  0  0  0  0  0  0  0  0  0
  140.1848   70.7012  220.5620 H   0  0  0  0  0  0  0  0  0  0  0  0
  139.9507   72.4725  220.2591 H   0  0  0  0  0  0  0  0  0  0  0  0
  141.3189   72.3839  222.6928 H   0  0  0  0  0  0  0  0  0  0  0  0
  142.0798   71.0716  221.6978 H   0  0  0  0  0  0  0  0  0  0  0  0
  144.2090   72.1763  221.4222 H   0  0  0  0  0  0  0  0  0  0  0  0
  145.5062   73.8178  220.0627 H   0  0  0  0  0  0  0  0  0  0  0  0
  144.3169   75.5841  218.7622 H   0  0  0  0  0  0  0  0  0  0  0  0
  141.8232   75.7197  218.8298 H   0  0  0  0  0  0  0  0  0  0  0  0
  140.5188   74.0817  220.1848 H   0  0  0  0  0  0  0  0  0  0  0  0
  138.3020   78.1026  221.3909 H   0  0  0  0  0  0  0  0  0  0  0  0
  138.0513   78.0010  223.1385 H   0  0  0  0  0  0  0  0  0  0  0  0
  139.9600   79.6975  221.5788 H   0  0  0  0  0  0  0  0  0  0  0  0
  139.3653   79.9492  223.2277 H   0  0  0  0  0  0  0  0  0  0  0  0
  141.9441   79.0950  222.6233 H   0  0  0  0  0  0  0  0  0  0  0  0
  141.1603   78.7329  224.1685 H   0  0  0  0  0  0  0  0  0  0  0  0
  141.6811   76.9445  221.8200 H   0  0  0  0  0  0  0  0  0  0  0  0
  141.4234   76.4877  223.5088 H   0  0  0  0  0  0  0  0  0  0  0  0
  1  2  2  0
  2  3  1  0
  3  4  1  0
  4  5  1  0
  5  6  2  0
  6  7  1  0
  7  8  2  0
  8  9  1  0
  9 10  1  0
 10 11  2  0
 11 12  1  0
 12 13  2  0
 13 14  1  0
 14 15  2  0
  8 16  1  0
 16 17  1  0
 17 18  1  0
 18 19  1  0
 19 20  2  0
 20 21  1  0
 21 22  2  0
 22 23  1  0
 23 24  2  0
  2 25  1  0
 25 26  1  0
 26 27  1  0
 27 28  1  0
 28 29  1  0
 16  5  1  0
 24 19  1  0
 29 25  1  0
 15 10  1  0
  3 30  1  0
  3 31  1  0
  9 32  1  0
  9 33  1  0
 11 34  1  0
 12 35  1  0
 13 36  1  0
 14 37  1  0
 15 38  1  0
 17 39  1  0
 17 40  1  0
 18 41  1  0
 18 42  1  0
 20 43  1  0
 21 44  1  0
 22 45  1  0
 23 46  1  0
 24 47  1  0
 26 48  1  0
 26 49  1  0
 27 50  1  0
 27 51  1  0
 28 52  1  0
 28 53  1  0
 29 54  1  0
 29 55  1  0
M  END
>  <UniqueID>  (70) 
20

>  <SMILES>  (70) 
O=C(CSc1nnc(Cc2ccccc2)n1CCc1ccccc1)N1CCCC1

>  <Energy>  (70) 
80.64932046959768

>  <Genealogy>  (70) 
O=C(CSc1nnc(Cc2ccccc2)n1CCc1ccccc1)N1CCCC1 (3D coordinates assigned)
O=C(CSc1nnc(Cc2ccccc2)n1CCc1ccccc1)N1CCCC1 (nonaromatic ring conformer: 80.64932046959768 kcal/mol)

>  <smiles>  (70) 
O=C(CSc1nnc(Cc2ccccc2)n1CCc1ccccc1)N1CCCC1

>  <score_type>  (70) 
oracle

>  <origin>  (70) 
autodockgpu

>  <m_score__min__energy>  (70) 
-8.1099999999999994

>  <m_primary>  (70) 
energy

>  <meeko>  (70) 
{"free_energy": -7.04, "intermolecular_energy": -9.42, "internal_energy": -2.12, "cluster_size": 1, "cluster_id": 7, "rank_in_cluster": 1}

>  <energy>  (70) 
-8.05

>  <cluster_rmsd>  (70) 
0.0

>  <rmsd>  (70) 
270.43

>  <cluster>  (70) 
3

$$$$
GPYMLVVOPJPQBB-UHFFFAOYNA-N
     RDKit          3D

 55 58  0  0  0  0  0  0  0  0999 V2000
  139.1180   68.9480  224.4110 O   0  0  0  0  0  0  0  0  0  0  0  0
  139.6840   70.0490  224.6480 C   0  0  0  0  0  0  0  0  0  0  0  0
  139.8960   71.0070  223.5120 C   0  0  0  0  0  0  0  0  0  0  0  0
  138.3290   71.7390  222.9170 S   0  0  0  0  0  0  0  0  0  0  0  0
  139.0460   73.2800  222.3310 C   0  0  0  0  0  0  0  0  0  0  0  0
  140.3670   73.5360  222.3550 N   0  0  0  0  0  0  0  0  0  0  0  0
  140.5260   74.7800  221.9270 N   0  0  0  0  0  0  0  0  0  0  0  0
  139.2990   75.2700  221.6610 C   0  0  0  0  0  0  0  0  0  0  0  0
  139.0720   76.6920  221.2310 C   0  0  0  0  0  0  0  0  0  0  0  0
  139.7750   77.6360  222.1670 C   0  0  0  0  0  0  0  0  0  0  0  0
  139.0320   78.5000  222.9900 C   0  0  0  0  0  0  0  0  0  0  0  0
  139.6860   79.3990  223.8400 C   0  0  0  0  0  0  0  0  0  0  0  0
  141.0820   79.4490  223.8650 C   0  0  0  0  0  0  0  0  0  0  0  0
  141.8280   78.6020  223.0410 C   0  0  0  0  0  0  0  0  0  0  0  0
  141.1790   77.7000  222.1910 C   0  0  0  0  0  0  0  0  0  0  0  0
  138.3390   74.3520  221.9140 N   0  0  0  0  0  0  0  0  0  0  0  0
  136.8780   74.4970  221.8680 C   0  0  0  0  0  0  0  0  0  0  0  0
  136.3820   75.5180  222.8960 C   0  0  0  0  0  0  0  0  0  0  0  0
  135.6290   74.8610  224.0200 C   0  0  0  0  0  0  0  0  0  0  0  0
  135.0810   75.6400  225.0540 C   0  0  0  0  0  0  0  0  0  0  0  0
  134.3340   75.0360  226.0710 C   0  0  0  0  0  0  0  0  0  0  0  0
  134.1240   73.6550  226.0600 C   0  0  0  0  0  0  0  0  0  0  0  0
  134.6610   72.8750  225.0330 C   0  0  0  0  0  0  0  0  0  0  0  0
  135.4080   73.4740  224.0160 C   0  0  0  0  0  0  0  0  0  0  0  0
  140.1150   70.3540  225.9870 N   0  0  0  0  0  0  0  0  0  0  0  0
  140.6670   71.6330  226.4030 C   0  0  0  0  0  0  0  0  0  0  0  0
  141.0350   71.4610  227.8720 C   0  0  0  0  0  0  0  0  0  0  0  0
  140.2970   70.2130  228.3440 C   0  0  0  0  0  0  0  0  0  0  0  0
  139.9790   69.4170  227.0880 C   0  0  0  0  0  0  0  0  0  0  0  0
  140.5580   71.8172  223.8517 H   0  0  0  0  0  0  0  0  0  0  0  0
  140.3423   70.4455  222.6780 H   0  0  0  0  0  0  0  0  0  0  0  0
  139.4642   76.8307  220.2127 H   0  0  0  0  0  0  0  0  0  0  0  0
  137.9930   76.9049  221.2500 H   0  0  0  0  0  0  0  0  0  0  0  0
  137.9327   78.4694  222.9658 H   0  0  0  0  0  0  0  0  0  0  0  0
  139.1005   80.0668  224.4890 H   0  0  0  0  0  0  0  0  0  0  0  0
  141.5945   80.1559  224.5341 H   0  0  0  0  0  0  0  0  0  0  0  0
  142.9270   78.6445  223.0607 H   0  0  0  0  0  0  0  0  0  0  0  0
  141.7692   77.0388  221.5394 H   0  0  0  0  0  0  0  0  0  0  0  0
  136.5836   74.8308  220.8621 H   0  0  0  0  0  0  0  0  0  0  0  0
  136.4271   73.5221  222.1050 H   0  0  0  0  0  0  0  0  0  0  0  0
  137.2483   76.0526  223.3129 H   0  0  0  0  0  0  0  0  0  0  0  0
  135.6968   76.2108  222.3855 H   0  0  0  0  0  0  0  0  0  0  0  0
  135.2401   76.7284  225.0634 H   0  0  0  0  0  0  0  0  0  0  0  0
  133.9114   75.6494  226.8804 H   0  0  0  0  0  0  0  0  0  0  0  0
  133.5358   73.1817  226.8600 H   0  0  0  0  0  0  0  0  0  0  0  0
  134.4953   71.7876  225.0252 H   0  0  0  0  0  0  0  0  0  0  0  0
  135.8255   72.8560  223.2075 H   0  0  0  0  0  0  0  0  0  0  0  0
  141.5602   71.8773  225.8093 H   0  0  0  0  0  0  0  0  0  0  0  0
  139.9494   72.4537  226.2561 H   0  0  0  0  0  0  0  0  0  0  0  0
  142.1214   71.3274  227.9812 H   0  0  0  0  0  0  0  0  0  0  0  0
  140.7550   72.3443  228.4647 H   0  0  0  0  0  0  0  0  0  0  0  0
  140.9348   69.6237  229.0192 H   0  0  0  0  0  0  0  0  0  0  0  0
  139.3841   70.4701  228.9012 H   0  0  0  0  0  0  0  0  0  0  0  0
  140.6871   68.5832  226.9723 H   0  0  0  0  0  0  0  0  0  0  0  0
  138.9706   68.9794  227.1279 H   0  0  0  0  0  0  0  0  0  0  0  0
  1  2  2  0
  2  3  1  0
  3  4  1  0
  4  5  1  0
  5  6  2  0
  6  7  1  0
  7  8  2  0
  8  9  1  0
  9 10  1  0
 10 11  2  0
 11 12  1  0
 12 13  2  0
 13 14  1  0
 14 15  2  0
  8 16  1  0
 16 17  1  0
 17 18  1  0
 18 19  1  0
 19 20  2  0
 20 21  1  0
 21 22  2  0
 22 23  1  0
 23 24  2  0
  2 25  1  0
 25 26  1  0
 26 27  1  0
 27 28  1  0
 28 29  1  0
 16  5  1  0
 24 19  1  0
 29 25  1  0
 15 10  1  0
  3 30  1  0
  3 31  1  0
  9 32  1  0
  9 33  1  0
 11 34  1  0
 12 35  1  0
 13 36  1  0
 14 37  1  0
 15 38  1  0
 17 39  1  0
 17 40  1  0
 18 41  1  0
 18 42  1  0
 20 43  1  0
 21 44  1  0
 22 45  1  0
 23 46  1  0
 24 47  1  0
 26 48  1  0
 26 49  1  0
 27 50  1  0
 27 51  1  0
 28 52  1  0
 28 53  1  0
 29 54  1  0
 29 55  1  0
M  END
>  <UniqueID>  (71) 
20

>  <SMILES>  (71) 
O=C(CSc1nnc(Cc2ccccc2)n1CCc1ccccc1)N1CCCC1

>  <Energy>  (71) 
80.64932046959768

>  <Genealogy>  (71) 
O=C(CSc1nnc(Cc2ccccc2)n1CCc1ccccc1)N1CCCC1 (3D coordinates assigned)
O=C(CSc1nnc(Cc2ccccc2)n1CCc1ccccc1)N1CCCC1 (nonaromatic ring conformer: 80.64932046959768 kcal/mol)

>  <smiles>  (71) 
O=C(CSc1nnc(Cc2ccccc2)n1CCc1ccccc1)N1CCCC1

>  <score_type>  (71) 
oracle

>  <origin>  (71) 
autodockgpu

>  <m_score__min__energy>  (71) 
-8.1099999999999994

>  <m_primary>  (71) 
energy

>  <meeko>  (71) 
{"free_energy": -8.03, "intermolecular_energy": -10.41, "internal_energy": -1.59, "cluster_size": 5, "cluster_id": 1, "rank_in_cluster": 2}

>  <energy>  (71) 
-7.92

>  <cluster_rmsd>  (71) 
0.51

>  <rmsd>  (71) 
270.34

>  <cluster>  (71) 
3

$$$$
GPYMLVVOPJPQBB-UHFFFAOYNA-N
     RDKit          3D

 55 58  0  0  0  0  0  0  0  0999 V2000
  139.0440   68.3090  224.9450 O   0  0  0  0  0  0  0  0  0  0  0  0
  139.5020   69.4780  224.8410 C   0  0  0  0  0  0  0  0  0  0  0  0
  139.4590   70.1510  223.5000 C   0  0  0  0  0  0  0  0  0  0  0  0
  138.0630   71.3240  223.3560 S   0  0  0  0  0  0  0  0  0  0  0  0
  138.9940   72.6360  222.5540 C   0  0  0  0  0  0  0  0  0  0  0  0
  140.3220   72.7960  222.7030 N   0  0  0  0  0  0  0  0  0  0  0  0
  140.6540   73.8950  222.0420 N   0  0  0  0  0  0  0  0  0  0  0  0
  139.5240   74.3980  221.5090 C   0  0  0  0  0  0  0  0  0  0  0  0
  139.4920   75.6970  220.7550 C   0  0  0  0  0  0  0  0  0  0  0  0
  139.7630   76.8460  221.6880 C   0  0  0  0  0  0  0  0  0  0  0  0
  141.0740   77.1110  222.1180 C   0  0  0  0  0  0  0  0  0  0  0  0
  141.3230   78.1610  223.0090 C   0  0  0  0  0  0  0  0  0  0  0  0
  140.2670   78.9430  223.4830 C   0  0  0  0  0  0  0  0  0  0  0  0
  138.9590   78.6770  223.0680 C   0  0  0  0  0  0  0  0  0  0  0  0
  138.7050   77.6300  222.1770 C   0  0  0  0  0  0  0  0  0  0  0  0
  138.4530   73.6320  221.8220 N   0  0  0  0  0  0  0  0  0  0  0  0
  137.0300   73.8670  221.5450 C   0  0  0  0  0  0  0  0  0  0  0  0
  136.5060   75.0940  222.2970 C   0  0  0  0  0  0  0  0  0  0  0  0
  135.7740   74.7090  223.5550 C   0  0  0  0  0  0  0  0  0  0  0  0
  135.4430   75.6890  224.5070 C   0  0  0  0  0  0  0  0  0  0  0  0
  134.7150   75.3430  225.6490 C   0  0  0  0  0  0  0  0  0  0  0  0
  134.3100   74.0220  225.8490 C   0  0  0  0  0  0  0  0  0  0  0  0
  134.6320   73.0420  224.9050 C   0  0  0  0  0  0  0  0  0  0  0  0
  135.3580   73.3840  223.7610 C   0  0  0  0  0  0  0  0  0  0  0  0
  140.0580   70.1300  225.9980 N   0  0  0  0  0  0  0  0  0  0  0  0
  140.5060   71.5120  226.0290 C   0  0  0  0  0  0  0  0  0  0  0  0
  141.0710   71.7280  227.4280 C   0  0  0  0  0  0  0  0  0  0  0  0
  140.5480   70.5710  228.2730 C   0  0  0  0  0  0  0  0  0  0  0  0
  140.1710   69.4740  227.2890 C   0  0  0  0  0  0  0  0  0  0  0  0
  140.3998   70.7008  223.3499 H   0  0  0  0  0  0  0  0  0  0  0  0
  139.3231   69.3710  222.7364 H   0  0  0  0  0  0  0  0  0  0  0  0
  140.2601   75.6792  219.9678 H   0  0  0  0  0  0  0  0  0  0  0  0
  138.4965   75.8267  220.3054 H   0  0  0  0  0  0  0  0  0  0  0  0
  141.9068   76.4916  221.7534 H   0  0  0  0  0  0  0  0  0  0  0  0
  142.3519   78.3709  223.3366 H   0  0  0  0  0  0  0  0  0  0  0  0
  140.4648   79.7682  224.1829 H   0  0  0  0  0  0  0  0  0  0  0  0
  138.1281   79.2925  223.4431 H   0  0  0  0  0  0  0  0  0  0  0  0
  137.6735   77.4195  221.8579 H   0  0  0  0  0  0  0  0  0  0  0  0
  136.8980   74.0268  220.4647 H   0  0  0  0  0  0  0  0  0  0  0  0
  136.4631   72.9872  221.8834 H   0  0  0  0  0  0  0  0  0  0  0  0
  137.3568   75.7384  222.5633 H   0  0  0  0  0  0  0  0  0  0  0  0
  135.8002   75.6222  221.6391 H   0  0  0  0  0  0  0  0  0  0  0  0
  135.7579   76.7316  224.3527 H   0  0  0  0  0  0  0  0  0  0  0  0
  134.4606   76.1134  226.3919 H   0  0  0  0  0  0  0  0  0  0  0  0
  133.7378   73.7522  226.7489 H   0  0  0  0  0  0  0  0  0  0  0  0
  134.3136   72.0010  225.0630 H   0  0  0  0  0  0  0  0  0  0  0  0
  135.6048   72.6112  223.0181 H   0  0  0  0  0  0  0  0  0  0  0  0
  141.2844   71.6805  225.2702 H   0  0  0  0  0  0  0  0  0  0  0  0
  139.6857   72.2110  225.8088 H   0  0  0  0  0  0  0  0  0  0  0  0
  142.1706   71.7168  227.4025 H   0  0  0  0  0  0  0  0  0  0  0  0
  140.7655   72.7005  227.8413 H   0  0  0  0  0  0  0  0  0  0  0  0
  141.3293   70.2159  228.9612 H   0  0  0  0  0  0  0  0  0  0  0  0
  139.6880   70.8758  228.8874 H   0  0  0  0  0  0  0  0  0  0  0  0
  140.9518   68.6997  227.2593 H   0  0  0  0  0  0  0  0  0  0  0  0
  139.2338   68.9745  227.5754 H   0  0  0  0  0  0  0  0  0  0  0  0
  1  2  2  0
  2  3  1  0
  3  4  1  0
  4  5  1  0
  5  6  2  0
  6  7  1  0
  7  8  2  0
  8  9  1  0
  9 10  1  0
 10 11  2  0
 11 12  1  0
 12 13  2  0
 13 14  1  0
 14 15  2  0
  8 16  1  0
 16 17  1  0
 17 18  1  0
 18 19  1  0
 19 20  2  0
 20 21  1  0
 21 22  2  0
 22 23  1  0
 23 24  2  0
  2 25  1  0
 25 26  1  0
 26 27  1  0
 27 28  1  0
 28 29  1  0
 16  5  1  0
 24 19  1  0
 29 25  1  0
 15 10  1  0
  3 30  1  0
  3 31  1  0
  9 32  1  0
  9 33  1  0
 11 34  1  0
 12 35  1  0
 13 36  1  0
 14 37  1  0
 15 38  1  0
 17 39  1  0
 17 40  1  0
 18 41  1  0
 18 42  1  0
 20 43  1  0
 21 44  1  0
 22 45  1  0
 23 46  1  0
 24 47  1  0
 26 48  1  0
 26 49  1  0
 27 50  1  0
 27 51  1  0
 28 52  1  0
 28 53  1  0
 29 54  1  0
 29 55  1  0
M  END
>  <UniqueID>  (72) 
20

>  <SMILES>  (72) 
O=C(CSc1nnc(Cc2ccccc2)n1CCc1ccccc1)N1CCCC1

>  <Energy>  (72) 
80.64932046959768

>  <Genealogy>  (72) 
O=C(CSc1nnc(Cc2ccccc2)n1CCc1ccccc1)N1CCCC1 (3D coordinates assigned)
O=C(CSc1nnc(Cc2ccccc2)n1CCc1ccccc1)N1CCCC1 (nonaromatic ring conformer: 80.64932046959768 kcal/mol)

>  <smiles>  (72) 
O=C(CSc1nnc(Cc2ccccc2)n1CCc1ccccc1)N1CCCC1

>  <score_type>  (72) 
oracle

>  <origin>  (72) 
autodockgpu

>  <m_score__min__energy>  (72) 
-8.1099999999999994

>  <m_primary>  (72) 
energy

>  <meeko>  (72) 
{"free_energy": -7.65, "intermolecular_energy": -10.04, "internal_energy": -1.91, "cluster_size": 5, "cluster_id": 1, "rank_in_cluster": 4}

>  <energy>  (72) 
-7.9

>  <cluster_rmsd>  (72) 
0.52

>  <rmsd>  (72) 
270.36

>  <cluster>  (72) 
3

$$$$
GPYMLVVOPJPQBB-UHFFFAOYNA-N
     RDKit          3D

 55 58  0  0  0  0  0  0  0  0999 V2000
  139.1880   67.8060  225.0090 O   0  0  0  0  0  0  0  0  0  0  0  0
  139.5050   69.0160  224.8520 C   0  0  0  0  0  0  0  0  0  0  0  0
  139.2770   69.6500  223.5100 C   0  0  0  0  0  0  0  0  0  0  0  0
  137.9680   70.9270  223.5590 S   0  0  0  0  0  0  0  0  0  0  0  0
  138.9270   72.2180  222.7560 C   0  0  0  0  0  0  0  0  0  0  0  0
  140.2130   72.4790  223.0580 N   0  0  0  0  0  0  0  0  0  0  0  0
  140.5710   73.5320  222.3370 N   0  0  0  0  0  0  0  0  0  0  0  0
  139.4970   73.9070  221.6160 C   0  0  0  0  0  0  0  0  0  0  0  0
  139.4980   75.1250  220.7370 C   0  0  0  0  0  0  0  0  0  0  0  0
  139.6930   76.3640  221.5670 C   0  0  0  0  0  0  0  0  0  0  0  0
  140.9880   76.7820  221.9190 C   0  0  0  0  0  0  0  0  0  0  0  0
  141.1690   77.9170  222.7150 C   0  0  0  0  0  0  0  0  0  0  0  0
  140.0620   78.6350  223.1750 C   0  0  0  0  0  0  0  0  0  0  0  0
  138.7700   78.2190  222.8390 C   0  0  0  0  0  0  0  0  0  0  0  0
  138.5840   77.0850  222.0410 C   0  0  0  0  0  0  0  0  0  0  0  0
  138.4370   73.1040  221.8630 N   0  0  0  0  0  0  0  0  0  0  0  0
  137.0530   73.2170  221.3830 C   0  0  0  0  0  0  0  0  0  0  0  0
  136.4240   74.5520  221.7940 C   0  0  0  0  0  0  0  0  0  0  0  0
  135.8280   74.4890  223.1740 C   0  0  0  0  0  0  0  0  0  0  0  0
  135.6900   75.6620  223.9370 C   0  0  0  0  0  0  0  0  0  0  0  0
  135.0870   75.6140  225.1980 C   0  0  0  0  0  0  0  0  0  0  0  0
  134.6130   74.4010  225.7030 C   0  0  0  0  0  0  0  0  0  0  0  0
  134.7420   73.2320  224.9480 C   0  0  0  0  0  0  0  0  0  0  0  0
  135.3440   73.2750  223.6880 C   0  0  0  0  0  0  0  0  0  0  0  0
  140.0800   69.7500  225.9490 N   0  0  0  0  0  0  0  0  0  0  0  0
  140.3740   71.1730  225.9240 C   0  0  0  0  0  0  0  0  0  0  0  0
  141.0260   71.4790  227.2660 C   0  0  0  0  0  0  0  0  0  0  0  0
  140.7050   70.2920  228.1680 C   0  0  0  0  0  0  0  0  0  0  0  0
  140.3700   69.1390  227.2340 C   0  0  0  0  0  0  0  0  0  0  0  0
  140.2149   70.1175  223.1756 H   0  0  0  0  0  0  0  0  0  0  0  0
  138.9517   68.8610  222.8159 H   0  0  0  0  0  0  0  0  0  0  0  0
  140.3160   75.0449  220.0059 H   0  0  0  0  0  0  0  0  0  0  0  0
  138.5324   75.1913  220.2142 H   0  0  0  0  0  0  0  0  0  0  0  0
  141.8619   76.2142  221.5670 H   0  0  0  0  0  0  0  0  0  0  0  0
  142.1849   78.2455  222.9797 H   0  0  0  0  0  0  0  0  0  0  0  0
  140.2069   79.5275  223.8015 H   0  0  0  0  0  0  0  0  0  0  0  0
  137.8990   78.7839  223.2025 H   0  0  0  0  0  0  0  0  0  0  0  0
  137.5661   76.7567  221.7838 H   0  0  0  0  0  0  0  0  0  0  0  0
  137.0480   73.1422  220.2856 H   0  0  0  0  0  0  0  0  0  0  0  0
  136.4639   72.4045  221.8333 H   0  0  0  0  0  0  0  0  0  0  0  0
  137.2002   75.3313  221.7769 H   0  0  0  0  0  0  0  0  0  0  0  0
  135.6163   74.7818  221.0835 H   0  0  0  0  0  0  0  0  0  0  0  0
  136.0574   76.6202  223.5409 H   0  0  0  0  0  0  0  0  0  0  0  0
  134.9858   76.5334  225.7933 H   0  0  0  0  0  0  0  0  0  0  0  0
  134.1383   74.3659  226.6947 H   0  0  0  0  0  0  0  0  0  0  0  0
  134.3691   72.2769  225.3463 H   0  0  0  0  0  0  0  0  0  0  0  0
  135.4394   72.3532  223.0955 H   0  0  0  0  0  0  0  0  0  0  0  0
  141.0630   71.4085  225.0995 H   0  0  0  0  0  0  0  0  0  0  0  0
  139.4663   71.7739  225.7655 H   0  0  0  0  0  0  0  0  0  0  0  0
  142.1143   71.5856  227.1470 H   0  0  0  0  0  0  0  0  0  0  0  0
  140.6512   72.4218  227.6911 H   0  0  0  0  0  0  0  0  0  0  0  0
  141.5749   70.0390  228.7919 H   0  0  0  0  0  0  0  0  0  0  0  0
  139.8711   70.5158  228.8495 H   0  0  0  0  0  0  0  0  0  0  0  0
  141.2255   68.4528  227.1487 H   0  0  0  0  0  0  0  0  0  0  0  0
  139.5198   68.5480  227.6052 H   0  0  0  0  0  0  0  0  0  0  0  0
  1  2  2  0
  2  3  1  0
  3  4  1  0
  4  5  1  0
  5  6  2  0
  6  7  1  0
  7  8  2  0
  8  9  1  0
  9 10  1  0
 10 11  2  0
 11 12  1  0
 12 13  2  0
 13 14  1  0
 14 15  2  0
  8 16  1  0
 16 17  1  0
 17 18  1  0
 18 19  1  0
 19 20  2  0
 20 21  1  0
 21 22  2  0
 22 23  1  0
 23 24  2  0
  2 25  1  0
 25 26  1  0
 26 27  1  0
 27 28  1  0
 28 29  1  0
 16  5  1  0
 24 19  1  0
 29 25  1  0
 15 10  1  0
  3 30  1  0
  3 31  1  0
  9 32  1  0
  9 33  1  0
 11 34  1  0
 12 35  1  0
 13 36  1  0
 14 37  1  0
 15 38  1  0
 17 39  1  0
 17 40  1  0
 18 41  1  0
 18 42  1  0
 20 43  1  0
 21 44  1  0
 22 45  1  0
 23 46  1  0
 24 47  1  0
 26 48  1  0
 26 49  1  0
 27 50  1  0
 27 51  1  0
 28 52  1  0
 28 53  1  0
 29 54  1  0
 29 55  1  0
M  END
>  <UniqueID>  (73) 
20

>  <SMILES>  (73) 
O=C(CSc1nnc(Cc2ccccc2)n1CCc1ccccc1)N1CCCC1

>  <Energy>  (73) 
80.64932046959768

>  <Genealogy>  (73) 
O=C(CSc1nnc(Cc2ccccc2)n1CCc1ccccc1)N1CCCC1 (3D coordinates assigned)
O=C(CSc1nnc(Cc2ccccc2)n1CCc1ccccc1)N1CCCC1 (nonaromatic ring conformer: 80.64932046959768 kcal/mol)

>  <smiles>  (73) 
O=C(CSc1nnc(Cc2ccccc2)n1CCc1ccccc1)N1CCCC1

>  <score_type>  (73) 
oracle

>  <origin>  (73) 
autodockgpu

>  <m_score__min__energy>  (73) 
-8.1099999999999994

>  <m_primary>  (73) 
energy

>  <meeko>  (73) 
{"free_energy": -7.51, "intermolecular_energy": -9.9, "internal_energy": -2.06, "cluster_size": 5, "cluster_id": 1, "rank_in_cluster": 5}

>  <energy>  (73) 
-7.86

>  <cluster_rmsd>  (73) 
0.55

>  <rmsd>  (73) 
270.36

>  <cluster>  (73) 
3

$$$$
GPYMLVVOPJPQBB-UHFFFAOYNA-N
     RDKit          3D

 55 58  0  0  0  0  0  0  0  0999 V2000
  138.8830   69.7790  224.0980 O   0  0  0  0  0  0  0  0  0  0  0  0
  139.6720   70.6700  224.5120 C   0  0  0  0  0  0  0  0  0  0  0  0
  140.1820   71.6890  223.5350 C   0  0  0  0  0  0  0  0  0  0  0  0
  138.9470   72.1010  222.2510 S   0  0  0  0  0  0  0  0  0  0  0  0
  139.4160   73.8270  222.0770 C   0  0  0  0  0  0  0  0  0  0  0  0
  140.6910   74.2540  222.1270 N   0  0  0  0  0  0  0  0  0  0  0  0
  140.6580   75.5760  222.0430 N   0  0  0  0  0  0  0  0  0  0  0  0
  139.3630   75.9390  221.9560 C   0  0  0  0  0  0  0  0  0  0  0  0
  138.9250   77.3760  221.9300 C   0  0  0  0  0  0  0  0  0  0  0  0
  140.0760   78.2760  222.2860 C   0  0  0  0  0  0  0  0  0  0  0  0
  140.0660   78.9910  223.4960 C   0  0  0  0  0  0  0  0  0  0  0  0
  141.1220   79.8520  223.8140 C   0  0  0  0  0  0  0  0  0  0  0  0
  142.1870   80.0120  222.9240 C   0  0  0  0  0  0  0  0  0  0  0  0
  142.1980   79.3140  221.7130 C   0  0  0  0  0  0  0  0  0  0  0  0
  141.1460   78.4510  221.3920 C   0  0  0  0  0  0  0  0  0  0  0  0
  138.5500   74.8580  221.9840 N   0  0  0  0  0  0  0  0  0  0  0  0
  137.0830   74.8010  222.0240 C   0  0  0  0  0  0  0  0  0  0  0  0
  136.5140   75.7090  223.1190 C   0  0  0  0  0  0  0  0  0  0  0  0
  135.7130   74.9340  224.1290 C   0  0  0  0  0  0  0  0  0  0  0  0
  135.0570   75.6050  225.1760 C   0  0  0  0  0  0  0  0  0  0  0  0
  134.2670   74.8940  226.0840 C   0  0  0  0  0  0  0  0  0  0  0  0
  134.1210   73.5110  225.9520 C   0  0  0  0  0  0  0  0  0  0  0  0
  134.7660   72.8360  224.9110 C   0  0  0  0  0  0  0  0  0  0  0  0
  135.5560   73.5440  224.0020 C   0  0  0  0  0  0  0  0  0  0  0  0
  140.0680   70.6830  225.8960 N   0  0  0  0  0  0  0  0  0  0  0  0
  140.8740   71.7240  226.5130 C   0  0  0  0  0  0  0  0  0  0  0  0
  141.0870   71.2760  227.9530 C   0  0  0  0  0  0  0  0  0  0  0  0
  140.0460   70.1920  228.2130 C   0  0  0  0  0  0  0  0  0  0  0  0
  139.6400   69.6690  226.8430 C   0  0  0  0  0  0  0  0  0  0  0  0
  140.4407   72.6065  224.0839 H   0  0  0  0  0  0  0  0  0  0  0  0
  141.0606   71.2604  223.0307 H   0  0  0  0  0  0  0  0  0  0  0  0
  138.5651   77.6280  220.9216 H   0  0  0  0  0  0  0  0  0  0  0  0
  138.1176   77.5186  222.6633 H   0  0  0  0  0  0  0  0  0  0  0  0
  139.2251   78.8733  224.1953 H   0  0  0  0  0  0  0  0  0  0  0  0
  141.1137   80.4035  224.7657 H   0  0  0  0  0  0  0  0  0  0  0  0
  143.0174   80.6877  223.1764 H   0  0  0  0  0  0  0  0  0  0  0  0
  143.0354   79.4439  221.0117 H   0  0  0  0  0  0  0  0  0  0  0  0
  141.1559   77.9069  220.4360 H   0  0  0  0  0  0  0  0  0  0  0  0
  136.6863   75.1241  221.0502 H   0  0  0  0  0  0  0  0  0  0  0  0
  136.7844   73.7657  222.2453 H   0  0  0  0  0  0  0  0  0  0  0  0
  137.3469   76.2100  223.6341 H   0  0  0  0  0  0  0  0  0  0  0  0
  135.8455   76.4409  222.6422 H   0  0  0  0  0  0  0  0  0  0  0  0
  135.1659   76.6945  225.2811 H   0  0  0  0  0  0  0  0  0  0  0  0
  133.7597   75.4242  226.9035 H   0  0  0  0  0  0  0  0  0  0  0  0
  133.4986   72.9529  226.6670 H   0  0  0  0  0  0  0  0  0  0  0  0
  134.6513   71.7469  224.8078 H   0  0  0  0  0  0  0  0  0  0  0  0
  136.0581   73.0097  223.1819 H   0  0  0  0  0  0  0  0  0  0  0  0
  141.8390   71.8210  225.9941 H   0  0  0  0  0  0  0  0  0  0  0  0
  140.3811   72.7060  226.4604 H   0  0  0  0  0  0  0  0  0  0  0  0
  142.1015   70.8706  228.0813 H   0  0  0  0  0  0  0  0  0  0  0  0
  140.9803   72.1149  228.6565 H   0  0  0  0  0  0  0  0  0  0  0  0
  140.4792   69.3826  228.8189 H   0  0  0  0  0  0  0  0  0  0  0  0
  139.1818   70.5858  228.7681 H   0  0  0  0  0  0  0  0  0  0  0  0
  140.1404   68.7121  226.6334 H   0  0  0  0  0  0  0  0  0  0  0  0
  138.5571   69.4856  226.7816 H   0  0  0  0  0  0  0  0  0  0  0  0
  1  2  2  0
  2  3  1  0
  3  4  1  0
  4  5  1  0
  5  6  2  0
  6  7  1  0
  7  8  2  0
  8  9  1  0
  9 10  1  0
 10 11  2  0
 11 12  1  0
 12 13  2  0
 13 14  1  0
 14 15  2  0
  8 16  1  0
 16 17  1  0
 17 18  1  0
 18 19  1  0
 19 20  2  0
 20 21  1  0
 21 22  2  0
 22 23  1  0
 23 24  2  0
  2 25  1  0
 25 26  1  0
 26 27  1  0
 27 28  1  0
 28 29  1  0
 16  5  1  0
 24 19  1  0
 29 25  1  0
 15 10  1  0
  3 30  1  0
  3 31  1  0
  9 32  1  0
  9 33  1  0
 11 34  1  0
 12 35  1  0
 13 36  1  0
 14 37  1  0
 15 38  1  0
 17 39  1  0
 17 40  1  0
 18 41  1  0
 18 42  1  0
 20 43  1  0
 21 44  1  0
 22 45  1  0
 23 46  1  0
 24 47  1  0
 26 48  1  0
 26 49  1  0
 27 50  1  0
 27 51  1  0
 28 52  1  0
 28 53  1  0
 29 54  1  0
 29 55  1  0
M  END
>  <UniqueID>  (74) 
20

>  <SMILES>  (74) 
O=C(CSc1nnc(Cc2ccccc2)n1CCc1ccccc1)N1CCCC1

>  <Energy>  (74) 
80.64932046959768

>  <Genealogy>  (74) 
O=C(CSc1nnc(Cc2ccccc2)n1CCc1ccccc1)N1CCCC1 (3D coordinates assigned)
O=C(CSc1nnc(Cc2ccccc2)n1CCc1ccccc1)N1CCCC1 (nonaromatic ring conformer: 80.64932046959768 kcal/mol)

>  <smiles>  (74) 
O=C(CSc1nnc(Cc2ccccc2)n1CCc1ccccc1)N1CCCC1

>  <score_type>  (74) 
oracle

>  <origin>  (74) 
autodockgpu

>  <m_score__min__energy>  (74) 
-8.1099999999999994

>  <m_primary>  (74) 
energy

>  <meeko>  (74) 
{"free_energy": -8.11, "intermolecular_energy": -10.5, "internal_energy": -1.4, "cluster_size": 5, "cluster_id": 1, "rank_in_cluster": 1}

>  <energy>  (74) 
-7.75

>  <cluster_rmsd>  (74) 
0.0

>  <rmsd>  (74) 
270.26

>  <cluster>  (74) 
4

$$$$
GPYMLVVOPJPQBB-UHFFFAOYNA-N
     RDKit          3D

 55 58  0  0  0  0  0  0  0  0999 V2000
  138.4080   72.8690  219.8110 O   0  0  0  0  0  0  0  0  0  0  0  0
  139.1900   72.1400  220.4780 C   0  0  0  0  0  0  0  0  0  0  0  0
  140.5260   71.7890  219.8900 C   0  0  0  0  0  0  0  0  0  0  0  0
  141.9160   72.4070  220.9050 S   0  0  0  0  0  0  0  0  0  0  0  0
  141.1620   73.9820  221.3290 C   0  0  0  0  0  0  0  0  0  0  0  0
  140.2770   74.1310  222.3330 N   0  0  0  0  0  0  0  0  0  0  0  0
  139.8740   75.3930  222.3070 N   0  0  0  0  0  0  0  0  0  0  0  0
  140.5080   75.9940  221.2810 C   0  0  0  0  0  0  0  0  0  0  0  0
  140.2380   77.4180  220.8860 C   0  0  0  0  0  0  0  0  0  0  0  0
  141.0280   78.3570  221.7560 C   0  0  0  0  0  0  0  0  0  0  0  0
  141.7550   79.4120  221.1780 C   0  0  0  0  0  0  0  0  0  0  0  0
  142.5140   80.2680  221.9830 C   0  0  0  0  0  0  0  0  0  0  0  0
  142.5610   80.0710  223.3650 C   0  0  0  0  0  0  0  0  0  0  0  0
  141.8500   79.0160  223.9460 C   0  0  0  0  0  0  0  0  0  0  0  0
  141.0890   78.1590  223.1450 C   0  0  0  0  0  0  0  0  0  0  0  0
  141.3230   75.1290  220.6350 N   0  0  0  0  0  0  0  0  0  0  0  0
  142.1070   75.3300  219.4100 C   0  0  0  0  0  0  0  0  0  0  0  0
  143.5520   75.7260  219.7260 C   0  0  0  0  0  0  0  0  0  0  0  0
  144.4420   74.5230  219.8800 C   0  0  0  0  0  0  0  0  0  0  0  0
  144.3020   73.4250  219.0140 C   0  0  0  0  0  0  0  0  0  0  0  0
  145.1630   72.3290  219.1200 C   0  0  0  0  0  0  0  0  0  0  0  0
  146.1720   72.3220  220.0860 C   0  0  0  0  0  0  0  0  0  0  0  0
  146.3220   73.4120  220.9480 C   0  0  0  0  0  0  0  0  0  0  0  0
  145.4630   74.5090  220.8450 C   0  0  0  0  0  0  0  0  0  0  0  0
  138.7830   71.6590  221.7730 N   0  0  0  0  0  0  0  0  0  0  0  0
  139.6380   70.9140  222.6810 C   0  0  0  0  0  0  0  0  0  0  0  0
  138.7620   70.5680  223.8780 C   0  0  0  0  0  0  0  0  0  0  0  0
  137.5480   71.4860  223.7860 C   0  0  0  0  0  0  0  0  0  0  0  0
  137.4710   71.9300  222.3330 C   0  0  0  0  0  0  0  0  0  0  0  0
  140.6026   70.6943  219.8146 H   0  0  0  0  0  0  0  0  0  0  0  0
  140.5938   72.2659  218.9011 H   0  0  0  0  0  0  0  0  0  0  0  0
  140.5285   77.5650  219.8353 H   0  0  0  0  0  0  0  0  0  0  0  0
  139.1657   77.6283  221.0120 H   0  0  0  0  0  0  0  0  0  0  0  0
  141.7270   79.5650  220.0891 H   0  0  0  0  0  0  0  0  0  0  0  0
  143.0746   81.0974  221.5270 H   0  0  0  0  0  0  0  0  0  0  0  0
  143.1574   80.7458  223.9966 H   0  0  0  0  0  0  0  0  0  0  0  0
  141.8895   78.8603  225.0342 H   0  0  0  0  0  0  0  0  0  0  0  0
  140.5360   77.3265  223.6046 H   0  0  0  0  0  0  0  0  0  0  0  0
  142.1113   74.3947  218.8311 H   0  0  0  0  0  0  0  0  0  0  0  0
  141.6442   76.1452  218.8344 H   0  0  0  0  0  0  0  0  0  0  0  0
  143.9369   76.3507  218.9065 H   0  0  0  0  0  0  0  0  0  0  0  0
  143.5544   76.2762  220.6785 H   0  0  0  0  0  0  0  0  0  0  0  0
  143.5113   73.4281  218.2493 H   0  0  0  0  0  0  0  0  0  0  0  0
  145.0459   71.4709  218.4418 H   0  0  0  0  0  0  0  0  0  0  0  0
  146.8486   71.4586  220.1683 H   0  0  0  0  0  0  0  0  0  0  0  0
  147.1171   73.4061  221.7081 H   0  0  0  0  0  0  0  0  0  0  0  0
  145.5867   75.3663  221.5230 H   0  0  0  0  0  0  0  0  0  0  0  0
  140.0059   69.9974  222.1968 H   0  0  0  0  0  0  0  0  0  0  0  0
  140.5217   71.4976  222.9787 H   0  0  0  0  0  0  0  0  0  0  0  0
  138.4494   69.5144  223.8317 H   0  0  0  0  0  0  0  0  0  0  0  0
  139.3015   70.7054  224.8267 H   0  0  0  0  0  0  0  0  0  0  0  0
  136.6346   70.9422  224.0689 H   0  0  0  0  0  0  0  0  0  0  0  0
  137.6385   72.3452  224.4669 H   0  0  0  0  0  0  0  0  0  0  0  0
  136.6990   71.3584  221.7970 H   0  0  0  0  0  0  0  0  0  0  0  0
  137.2022   72.9931  222.2454 H   0  0  0  0  0  0  0  0  0  0  0  0
  1  2  2  0
  2  3  1  0
  3  4  1  0
  4  5  1  0
  5  6  2  0
  6  7  1  0
  7  8  2  0
  8  9  1  0
  9 10  1  0
 10 11  2  0
 11 12  1  0
 12 13  2  0
 13 14  1  0
 14 15  2  0
  8 16  1  0
 16 17  1  0
 17 18  1  0
 18 19  1  0
 19 20  2  0
 20 21  1  0
 21 22  2  0
 22 23  1  0
 23 24  2  0
  2 25  1  0
 25 26  1  0
 26 27  1  0
 27 28  1  0
 28 29  1  0
 16  5  1  0
 24 19  1  0
 29 25  1  0
 15 10  1  0
  3 30  1  0
  3 31  1  0
  9 32  1  0
  9 33  1  0
 11 34  1  0
 12 35  1  0
 13 36  1  0
 14 37  1  0
 15 38  1  0
 17 39  1  0
 17 40  1  0
 18 41  1  0
 18 42  1  0
 20 43  1  0
 21 44  1  0
 22 45  1  0
 23 46  1  0
 24 47  1  0
 26 48  1  0
 26 49  1  0
 27 50  1  0
 27 51  1  0
 28 52  1  0
 28 53  1  0
 29 54  1  0
 29 55  1  0
M  END
>  <UniqueID>  (75) 
20

>  <SMILES>  (75) 
O=C(CSc1nnc(Cc2ccccc2)n1CCc1ccccc1)N1CCCC1

>  <Energy>  (75) 
80.64932046959768

>  <Genealogy>  (75) 
O=C(CSc1nnc(Cc2ccccc2)n1CCc1ccccc1)N1CCCC1 (3D coordinates assigned)
O=C(CSc1nnc(Cc2ccccc2)n1CCc1ccccc1)N1CCCC1 (nonaromatic ring conformer: 80.64932046959768 kcal/mol)

>  <smiles>  (75) 
O=C(CSc1nnc(Cc2ccccc2)n1CCc1ccccc1)N1CCCC1

>  <score_type>  (75) 
oracle

>  <origin>  (75) 
autodockgpu

>  <m_score__min__energy>  (75) 
-8.1099999999999994

>  <m_primary>  (75) 
energy

>  <meeko>  (75) 
{"free_energy": -7.16, "intermolecular_energy": -9.54, "internal_energy": -2.17, "cluster_size": 4, "cluster_id": 2, "rank_in_cluster": 3}

>  <energy>  (75) 
-7.33

>  <cluster_rmsd>  (75) 
0.0

>  <rmsd>  (75) 
270.17

>  <cluster>  (75) 
5

$$$$
GPYMLVVOPJPQBB-UHFFFAOYNA-N
     RDKit          3D

 55 58  0  0  0  0  0  0  0  0999 V2000
  138.9390   68.5440  223.4650 O   0  0  0  0  0  0  0  0  0  0  0  0
  139.3200   69.7410  223.5730 C   0  0  0  0  0  0  0  0  0  0  0  0
  139.0540   70.6860  222.4360 C   0  0  0  0  0  0  0  0  0  0  0  0
  140.5840   71.1580  221.5530 S   0  0  0  0  0  0  0  0  0  0  0  0
  140.3140   72.9340  221.6340 C   0  0  0  0  0  0  0  0  0  0  0  0
  139.6800   73.5380  222.6570 N   0  0  0  0  0  0  0  0  0  0  0  0
  139.5930   74.8240  222.3490 N   0  0  0  0  0  0  0  0  0  0  0  0
  140.1620   74.9850  221.1390 C   0  0  0  0  0  0  0  0  0  0  0  0
  140.1760   76.3040  220.4200 C   0  0  0  0  0  0  0  0  0  0  0  0
  140.8870   77.3390  221.2470 C   0  0  0  0  0  0  0  0  0  0  0  0
  140.8640   77.2610  222.6500 C   0  0  0  0  0  0  0  0  0  0  0  0
  141.5000   78.2390  223.4210 C   0  0  0  0  0  0  0  0  0  0  0  0
  142.1540   79.3060  222.7980 C   0  0  0  0  0  0  0  0  0  0  0  0
  142.1710   79.3970  221.4030 C   0  0  0  0  0  0  0  0  0  0  0  0
  141.5380   78.4200  220.6290 C   0  0  0  0  0  0  0  0  0  0  0  0
  140.6200   73.8080  220.6530 N   0  0  0  0  0  0  0  0  0  0  0  0
  141.2030   73.5100  219.3390 C   0  0  0  0  0  0  0  0  0  0  0  0
  142.2890   72.4330  219.4360 C   0  0  0  0  0  0  0  0  0  0  0  0
  143.5950   72.9980  219.9240 C   0  0  0  0  0  0  0  0  0  0  0  0
  143.7850   74.3900  219.9830 C   0  0  0  0  0  0  0  0  0  0  0  0
  144.9770   74.9170  220.4880 C   0  0  0  0  0  0  0  0  0  0  0  0
  145.9850   74.0630  220.9420 C   0  0  0  0  0  0  0  0  0  0  0  0
  145.8020   72.6780  220.8910 C   0  0  0  0  0  0  0  0  0  0  0  0
  144.6120   72.1470  220.3870 C   0  0  0  0  0  0  0  0  0  0  0  0
  140.0010   70.1670  224.7680 N   0  0  0  0  0  0  0  0  0  0  0  0
  140.3790   71.5400  225.0560 C   0  0  0  0  0  0  0  0  0  0  0  0
  141.1240   71.4890  226.3840 C   0  0  0  0  0  0  0  0  0  0  0  0
  140.7840   70.1380  227.0030 C   0  0  0  0  0  0  0  0  0  0  0  0
  140.3270   69.2560  225.8510 C   0  0  0  0  0  0  0  0  0  0  0  0
  138.3707   70.1996  221.7243 H   0  0  0  0  0  0  0  0  0  0  0  0
  138.6119   71.6015  222.8560 H   0  0  0  0  0  0  0  0  0  0  0  0
  140.6962   76.1877  219.4578 H   0  0  0  0  0  0  0  0  0  0  0  0
  139.1396   76.6308  220.2497 H   0  0  0  0  0  0  0  0  0  0  0  0
  140.3435   76.4271  223.1437 H   0  0  0  0  0  0  0  0  0  0  0  0
  141.4857   78.1687  224.5187 H   0  0  0  0  0  0  0  0  0  0  0  0
  142.6553   80.0740  223.4054 H   0  0  0  0  0  0  0  0  0  0  0  0
  142.6832   80.2386  220.9137 H   0  0  0  0  0  0  0  0  0  0  0  0
  141.5496   78.4978  219.5318 H   0  0  0  0  0  0  0  0  0  0  0  0
  140.4073   73.1554  218.6673 H   0  0  0  0  0  0  0  0  0  0  0  0
  141.6639   74.4299  218.9499 H   0  0  0  0  0  0  0  0  0  0  0  0
  141.9551   71.6528  220.1358 H   0  0  0  0  0  0  0  0  0  0  0  0
  142.4505   72.0191  218.4297 H   0  0  0  0  0  0  0  0  0  0  0  0
  142.9926   75.0667  219.6304 H   0  0  0  0  0  0  0  0  0  0  0  0
  145.1217   76.0067  220.5280 H   0  0  0  0  0  0  0  0  0  0  0  0
  146.9221   74.4801  221.3394 H   0  0  0  0  0  0  0  0  0  0  0  0
  146.5958   72.0055  221.2481 H   0  0  0  0  0  0  0  0  0  0  0  0
  144.4708   71.0566  220.3526 H   0  0  0  0  0  0  0  0  0  0  0  0
  141.0330   71.9327  224.2635 H   0  0  0  0  0  0  0  0  0  0  0  0
  139.5019   72.2020  225.1061 H   0  0  0  0  0  0  0  0  0  0  0  0
  142.2082   71.5716  226.2178 H   0  0  0  0  0  0  0  0  0  0  0  0
  140.8316   72.3199  227.0429 H   0  0  0  0  0  0  0  0  0  0  0  0
  141.6713   69.7050  227.4880 H   0  0  0  0  0  0  0  0  0  0  0  0
  140.0054   70.2312  227.7744 H   0  0  0  0  0  0  0  0  0  0  0  0
  141.1332   68.5718  225.5478 H   0  0  0  0  0  0  0  0  0  0  0  0
  139.4654   68.6327  226.1322 H   0  0  0  0  0  0  0  0  0  0  0  0
  1  2  2  0
  2  3  1  0
  3  4  1  0
  4  5  1  0
  5  6  2  0
  6  7  1  0
  7  8  2  0
  8  9  1  0
  9 10  1  0
 10 11  2  0
 11 12  1  0
 12 13  2  0
 13 14  1  0
 14 15  2  0
  8 16  1  0
 16 17  1  0
 17 18  1  0
 18 19  1  0
 19 20  2  0
 20 21  1  0
 21 22  2  0
 22 23  1  0
 23 24  2  0
  2 25  1  0
 25 26  1  0
 26 27  1  0
 27 28  1  0
 28 29  1  0
 16  5  1  0
 24 19  1  0
 29 25  1  0
 15 10  1  0
  3 30  1  0
  3 31  1  0
  9 32  1  0
  9 33  1  0
 11 34  1  0
 12 35  1  0
 13 36  1  0
 14 37  1  0
 15 38  1  0
 17 39  1  0
 17 40  1  0
 18 41  1  0
 18 42  1  0
 20 43  1  0
 21 44  1  0
 22 45  1  0
 23 46  1  0
 24 47  1  0
 26 48  1  0
 26 49  1  0
 27 50  1  0
 27 51  1  0
 28 52  1  0
 28 53  1  0
 29 54  1  0
 29 55  1  0
M  END
>  <UniqueID>  (76) 
20

>  <SMILES>  (76) 
O=C(CSc1nnc(Cc2ccccc2)n1CCc1ccccc1)N1CCCC1

>  <Energy>  (76) 
80.64932046959768

>  <Genealogy>  (76) 
O=C(CSc1nnc(Cc2ccccc2)n1CCc1ccccc1)N1CCCC1 (3D coordinates assigned)
O=C(CSc1nnc(Cc2ccccc2)n1CCc1ccccc1)N1CCCC1 (nonaromatic ring conformer: 80.64932046959768 kcal/mol)

>  <smiles>  (76) 
O=C(CSc1nnc(Cc2ccccc2)n1CCc1ccccc1)N1CCCC1

>  <score_type>  (76) 
oracle

>  <origin>  (76) 
autodockgpu

>  <m_score__min__energy>  (76) 
-8.1099999999999994

>  <m_primary>  (76) 
energy

>  <meeko>  (76) 
{"free_energy": -7.65, "intermolecular_energy": -10.03, "internal_energy": -1.61, "cluster_size": 4, "cluster_id": 2, "rank_in_cluster": 2}

>  <energy>  (76) 
-7.33

>  <cluster_rmsd>  (76) 
0.87

>  <rmsd>  (76) 
270.02

>  <cluster>  (76) 
5

$$$$
GPYMLVVOPJPQBB-UHFFFAOYNA-N
     RDKit          3D

 55 58  0  0  0  0  0  0  0  0999 V2000
  138.4900   77.4480  222.9930 O   0  0  0  0  0  0  0  0  0  0  0  0
  139.5740   77.4740  222.3520 C   0  0  0  0  0  0  0  0  0  0  0  0
  139.7850   76.4740  221.2520 C   0  0  0  0  0  0  0  0  0  0  0  0
  138.3780   75.3170  221.0860 S   0  0  0  0  0  0  0  0  0  0  0  0
  139.1610   73.9370  221.9310 C   0  0  0  0  0  0  0  0  0  0  0  0
  140.4850   73.8670  222.1600 N   0  0  0  0  0  0  0  0  0  0  0  0
  140.7160   72.6910  222.7250 N   0  0  0  0  0  0  0  0  0  0  0  0
  139.5330   72.0550  222.8220 C   0  0  0  0  0  0  0  0  0  0  0  0
  139.4090   70.6490  223.3390 C   0  0  0  0  0  0  0  0  0  0  0  0
  139.7630   70.6010  224.8000 C   0  0  0  0  0  0  0  0  0  0  0  0
  140.6790   71.5220  225.3360 C   0  0  0  0  0  0  0  0  0  0  0  0
  141.0320   71.4590  226.6880 C   0  0  0  0  0  0  0  0  0  0  0  0
  140.4820   70.4710  227.5100 C   0  0  0  0  0  0  0  0  0  0  0  0
  139.5800   69.5440  226.9810 C   0  0  0  0  0  0  0  0  0  0  0  0
  139.2230   69.6040  225.6310 C   0  0  0  0  0  0  0  0  0  0  0  0
  138.5280   72.8100  222.3200 N   0  0  0  0  0  0  0  0  0  0  0  0
  137.1140   72.4650  222.1280 C   0  0  0  0  0  0  0  0  0  0  0  0
  136.4050   72.2330  223.4650 C   0  0  0  0  0  0  0  0  0  0  0  0
  135.8110   73.5030  224.0120 C   0  0  0  0  0  0  0  0  0  0  0  0
  136.1350   74.7410  223.4310 C   0  0  0  0  0  0  0  0  0  0  0  0
  135.5430   75.9170  223.9020 C   0  0  0  0  0  0  0  0  0  0  0  0
  134.6200   75.8660  224.9500 C   0  0  0  0  0  0  0  0  0  0  0  0
  134.2890   74.6380  225.5290 C   0  0  0  0  0  0  0  0  0  0  0  0
  134.8780   73.4610  225.0620 C   0  0  0  0  0  0  0  0  0  0  0  0
  140.5780   78.4490  222.6910 N   0  0  0  0  0  0  0  0  0  0  0  0
  141.8110   78.6540  221.9500 C   0  0  0  0  0  0  0  0  0  0  0  0
  142.5740   79.7280  222.7140 C   0  0  0  0  0  0  0  0  0  0  0  0
  141.5560   80.3870  223.6390 C   0  0  0  0  0  0  0  0  0  0  0  0
  140.4230   79.3830  223.7920 C   0  0  0  0  0  0  0  0  0  0  0  0
  139.9125   77.0144  220.3024 H   0  0  0  0  0  0  0  0  0  0  0  0
  140.6788   75.8832  221.5013 H   0  0  0  0  0  0  0  0  0  0  0  0
  138.3739   70.3020  223.2041 H   0  0  0  0  0  0  0  0  0  0  0  0
  140.0983   69.9986  222.7806 H   0  0  0  0  0  0  0  0  0  0  0  0
  141.1201   72.2954  224.6900 H   0  0  0  0  0  0  0  0  0  0  0  0
  141.7430   72.1875  227.1048 H   0  0  0  0  0  0  0  0  0  0  0  0
  140.7593   70.4233  228.5734 H   0  0  0  0  0  0  0  0  0  0  0  0
  139.1501   68.7655  227.6284 H   0  0  0  0  0  0  0  0  0  0  0  0
  138.5172   68.8686  225.2174 H   0  0  0  0  0  0  0  0  0  0  0  0
  136.6143   73.2886  221.5969 H   0  0  0  0  0  0  0  0  0  0  0  0
  137.0627   71.5338  221.5447 H   0  0  0  0  0  0  0  0  0  0  0  0
  135.5998   71.4981  223.3179 H   0  0  0  0  0  0  0  0  0  0  0  0
  137.1494   71.8658  224.1868 H   0  0  0  0  0  0  0  0  0  0  0  0
  136.8572   74.7850  222.6024 H   0  0  0  0  0  0  0  0  0  0  0  0
  135.8042   76.8838  223.4469 H   0  0  0  0  0  0  0  0  0  0  0  0
  134.1543   76.7918  225.3189 H   0  0  0  0  0  0  0  0  0  0  0  0
  133.5630   74.5983  226.3544 H   0  0  0  0  0  0  0  0  0  0  0  0
  134.6104   72.4965  225.5182 H   0  0  0  0  0  0  0  0  0  0  0  0
  142.3949   77.7226  221.9108 H   0  0  0  0  0  0  0  0  0  0  0  0
  141.6158   78.9551  220.9102 H   0  0  0  0  0  0  0  0  0  0  0  0
  143.3871   79.2754  223.3006 H   0  0  0  0  0  0  0  0  0  0  0  0
  143.0327   80.4594  222.0323 H   0  0  0  0  0  0  0  0  0  0  0  0
  142.0108   80.6031  224.6170 H   0  0  0  0  0  0  0  0  0  0  0  0
  141.1970   81.3429  223.2300 H   0  0  0  0  0  0  0  0  0  0  0  0
  140.5027   78.8578  224.7552 H   0  0  0  0  0  0  0  0  0  0  0  0
  139.4388   79.8739  223.7740 H   0  0  0  0  0  0  0  0  0  0  0  0
  1  2  2  0
  2  3  1  0
  3  4  1  0
  4  5  1  0
  5  6  2  0
  6  7  1  0
  7  8  2  0
  8  9  1  0
  9 10  1  0
 10 11  2  0
 11 12  1  0
 12 13  2  0
 13 14  1  0
 14 15  2  0
  8 16  1  0
 16 17  1  0
 17 18  1  0
 18 19  1  0
 19 20  2  0
 20 21  1  0
 21 22  2  0
 22 23  1  0
 23 24  2  0
  2 25  1  0
 25 26  1  0
 26 27  1  0
 27 28  1  0
 28 29  1  0
 16  5  1  0
 24 19  1  0
 29 25  1  0
 15 10  1  0
  3 30  1  0
  3 31  1  0
  9 32  1  0
  9 33  1  0
 11 34  1  0
 12 35  1  0
 13 36  1  0
 14 37  1  0
 15 38  1  0
 17 39  1  0
 17 40  1  0
 18 41  1  0
 18 42  1  0
 20 43  1  0
 21 44  1  0
 22 45  1  0
 23 46  1  0
 24 47  1  0
 26 48  1  0
 26 49  1  0
 27 50  1  0
 27 51  1  0
 28 52  1  0
 28 53  1  0
 29 54  1  0
 29 55  1  0
M  END
>  <UniqueID>  (77) 
20

>  <SMILES>  (77) 
O=C(CSc1nnc(Cc2ccccc2)n1CCc1ccccc1)N1CCCC1

>  <Energy>  (77) 
80.64932046959768

>  <Genealogy>  (77) 
O=C(CSc1nnc(Cc2ccccc2)n1CCc1ccccc1)N1CCCC1 (3D coordinates assigned)
O=C(CSc1nnc(Cc2ccccc2)n1CCc1ccccc1)N1CCCC1 (nonaromatic ring conformer: 80.64932046959768 kcal/mol)

>  <smiles>  (77) 
O=C(CSc1nnc(Cc2ccccc2)n1CCc1ccccc1)N1CCCC1

>  <score_type>  (77) 
oracle

>  <origin>  (77) 
autodockgpu

>  <m_score__min__energy>  (77) 
-8.1099999999999994

>  <m_primary>  (77) 
energy

>  <meeko>  (77) 
{"free_energy": -7.86, "intermolecular_energy": -10.24, "internal_energy": -1.72, "cluster_size": 4, "cluster_id": 3, "rank_in_cluster": 4}

>  <energy>  (77) 
-7.2

>  <cluster_rmsd>  (77) 
0.0

>  <rmsd>  (77) 
270.08

>  <cluster>  (77) 
6

$$$$
GPYMLVVOPJPQBB-UHFFFAOYNA-N
     RDKit          3D

 55 58  0  0  0  0  0  0  0  0999 V2000
  138.4110   77.5070  223.0770 O   0  0  0  0  0  0  0  0  0  0  0  0
  139.4730   77.5190  222.4000 C   0  0  0  0  0  0  0  0  0  0  0  0
  139.6200   76.5350  221.2750 C   0  0  0  0  0  0  0  0  0  0  0  0
  138.2040   75.3820  221.1710 S   0  0  0  0  0  0  0  0  0  0  0  0
  139.0210   73.9990  221.9770 C   0  0  0  0  0  0  0  0  0  0  0  0
  140.3510   73.9400  222.1740 N   0  0  0  0  0  0  0  0  0  0  0  0
  140.6080   72.7590  222.7160 N   0  0  0  0  0  0  0  0  0  0  0  0
  139.4340   72.1070  222.8300 C   0  0  0  0  0  0  0  0  0  0  0  0
  139.3380   70.6930  223.3290 C   0  0  0  0  0  0  0  0  0  0  0  0
  139.7450   70.6230  224.7750 C   0  0  0  0  0  0  0  0  0  0  0  0
  139.1890   69.6470  225.6190 C   0  0  0  0  0  0  0  0  0  0  0  0
  139.5450   69.6000  226.9710 C   0  0  0  0  0  0  0  0  0  0  0  0
  140.4480   70.5310  227.4900 C   0  0  0  0  0  0  0  0  0  0  0  0
  140.9970   71.5120  226.6590 C   0  0  0  0  0  0  0  0  0  0  0  0
  140.6450   71.5620  225.3070 C   0  0  0  0  0  0  0  0  0  0  0  0
  138.4100   72.8590  222.3630 N   0  0  0  0  0  0  0  0  0  0  0  0
  136.9960   72.5010  222.1970 C   0  0  0  0  0  0  0  0  0  0  0  0
  136.3460   72.1410  223.5370 C   0  0  0  0  0  0  0  0  0  0  0  0
  135.5960   73.3050  224.1260 C   0  0  0  0  0  0  0  0  0  0  0  0
  134.7040   73.1020  225.1940 C   0  0  0  0  0  0  0  0  0  0  0  0
  134.0480   74.1890  225.7790 C   0  0  0  0  0  0  0  0  0  0  0  0
  134.2800   75.4840  225.3090 C   0  0  0  0  0  0  0  0  0  0  0  0
  135.1690   75.6940  224.2510 C   0  0  0  0  0  0  0  0  0  0  0  0
  135.8270   74.6100  223.6630 C   0  0  0  0  0  0  0  0  0  0  0  0
  140.5140   78.4610  222.7220 N   0  0  0  0  0  0  0  0  0  0  0  0
  141.7260   78.6480  221.9430 C   0  0  0  0  0  0  0  0  0  0  0  0
  142.5420   79.6880  222.7000 C   0  0  0  0  0  0  0  0  0  0  0  0
  141.5740   80.3540  223.6720 C   0  0  0  0  0  0  0  0  0  0  0  0
  140.4210   79.3760  223.8450 C   0  0  0  0  0  0  0  0  0  0  0  0
  139.6950   77.0893  220.3278 H   0  0  0  0  0  0  0  0  0  0  0  0
  140.5252   75.9396  221.4651 H   0  0  0  0  0  0  0  0  0  0  0  0
  138.3009   70.3412  223.2261 H   0  0  0  0  0  0  0  0  0  0  0  0
  140.0113   70.0569  222.7357 H   0  0  0  0  0  0  0  0  0  0  0  0
  138.4714   68.9175  225.2153 H   0  0  0  0  0  0  0  0  0  0  0  0
  139.1134   68.8290  227.6262 H   0  0  0  0  0  0  0  0  0  0  0  0
  140.7272   70.4922  228.5533 H   0  0  0  0  0  0  0  0  0  0  0  0
  141.7067   72.2454  227.0694 H   0  0  0  0  0  0  0  0  0  0  0  0
  141.0740   72.3391  224.6573 H   0  0  0  0  0  0  0  0  0  0  0  0
  136.4602   73.3556  221.7582 H   0  0  0  0  0  0  0  0  0  0  0  0
  136.9380   71.6219  221.5384 H   0  0  0  0  0  0  0  0  0  0  0  0
  135.6445   71.3084  223.3799 H   0  0  0  0  0  0  0  0  0  0  0  0
  137.1445   71.8588  224.2390 H   0  0  0  0  0  0  0  0  0  0  0  0
  134.5218   72.0845  225.5703 H   0  0  0  0  0  0  0  0  0  0  0  0
  133.3477   74.0244  226.6111 H   0  0  0  0  0  0  0  0  0  0  0  0
  133.7633   76.3380  225.7713 H   0  0  0  0  0  0  0  0  0  0  0  0
  135.3510   76.7137  223.8807 H   0  0  0  0  0  0  0  0  0  0  0  0
  136.5291   74.7803  222.8335 H   0  0  0  0  0  0  0  0  0  0  0  0
  142.2837   77.7029  221.8673 H   0  0  0  0  0  0  0  0  0  0  0  0
  141.5040   78.9731  220.9158 H   0  0  0  0  0  0  0  0  0  0  0  0
  143.3630   79.2041  223.2493 H   0  0  0  0  0  0  0  0  0  0  0  0
  142.9952   80.4209  222.0163 H   0  0  0  0  0  0  0  0  0  0  0  0
  142.0675   80.5389  224.6375 H   0  0  0  0  0  0  0  0  0  0  0  0
  141.2263   81.3268  223.2941 H   0  0  0  0  0  0  0  0  0  0  0  0
  140.5199   78.8298  224.7947 H   0  0  0  0  0  0  0  0  0  0  0  0
  139.4498   79.8919  223.8706 H   0  0  0  0  0  0  0  0  0  0  0  0
  1  2  2  0
  2  3  1  0
  3  4  1  0
  4  5  1  0
  5  6  2  0
  6  7  1  0
  7  8  2  0
  8  9  1  0
  9 10  1  0
 10 11  2  0
 11 12  1  0
 12 13  2  0
 13 14  1  0
 14 15  2  0
  8 16  1  0
 16 17  1  0
 17 18  1  0
 18 19  1  0
 19 20  2  0
 20 21  1  0
 21 22  2  0
 22 23  1  0
 23 24  2  0
  2 25  1  0
 25 26  1  0
 26 27  1  0
 27 28  1  0
 28 29  1  0
 16  5  1  0
 24 19  1  0
 29 25  1  0
 15 10  1  0
  3 30  1  0
  3 31  1  0
  9 32  1  0
  9 33  1  0
 11 34  1  0
 12 35  1  0
 13 36  1  0
 14 37  1  0
 15 38  1  0
 17 39  1  0
 17 40  1  0
 18 41  1  0
 18 42  1  0
 20 43  1  0
 21 44  1  0
 22 45  1  0
 23 46  1  0
 24 47  1  0
 26 48  1  0
 26 49  1  0
 27 50  1  0
 27 51  1  0
 28 52  1  0
 28 53  1  0
 29 54  1  0
 29 55  1  0
M  END
>  <UniqueID>  (78) 
20

>  <SMILES>  (78) 
O=C(CSc1nnc(Cc2ccccc2)n1CCc1ccccc1)N1CCCC1

>  <Energy>  (78) 
80.64932046959768

>  <Genealogy>  (78) 
O=C(CSc1nnc(Cc2ccccc2)n1CCc1ccccc1)N1CCCC1 (3D coordinates assigned)
O=C(CSc1nnc(Cc2ccccc2)n1CCc1ccccc1)N1CCCC1 (nonaromatic ring conformer: 80.64932046959768 kcal/mol)

>  <smiles>  (78) 
O=C(CSc1nnc(Cc2ccccc2)n1CCc1ccccc1)N1CCCC1

>  <score_type>  (78) 
oracle

>  <origin>  (78) 
autodockgpu

>  <m_score__min__energy>  (78) 
-8.1099999999999994

>  <m_primary>  (78) 
energy

>  <meeko>  (78) 
{"free_energy": -7.92, "intermolecular_energy": -10.31, "internal_energy": -1.68, "cluster_size": 4, "cluster_id": 3, "rank_in_cluster": 2}

>  <energy>  (78) 
-6.92

>  <cluster_rmsd>  (78) 
0.96

>  <rmsd>  (78) 
270.06

>  <cluster>  (78) 
6

$$$$
GPYMLVVOPJPQBB-UHFFFAOYNA-N
     RDKit          3D

 55 58  0  0  0  0  0  0  0  0999 V2000
  146.2010   73.2100  219.3440 O   0  0  0  0  0  0  0  0  0  0  0  0
  145.1230   72.6950  219.7450 C   0  0  0  0  0  0  0  0  0  0  0  0
  144.0940   73.5840  220.3820 C   0  0  0  0  0  0  0  0  0  0  0  0
  142.6520   73.8680  219.2940 S   0  0  0  0  0  0  0  0  0  0  0  0
  141.5710   74.5240  220.5720 C   0  0  0  0  0  0  0  0  0  0  0  0
  141.1900   73.8160  221.6520 N   0  0  0  0  0  0  0  0  0  0  0  0
  140.3430   74.5760  222.3300 N   0  0  0  0  0  0  0  0  0  0  0  0
  140.2080   75.7310  221.6500 C   0  0  0  0  0  0  0  0  0  0  0  0
  139.2560   76.8130  222.0720 C   0  0  0  0  0  0  0  0  0  0  0  0
  140.0100   77.9540  222.6990 C   0  0  0  0  0  0  0  0  0  0  0  0
  139.3680   79.1820  222.9320 C   0  0  0  0  0  0  0  0  0  0  0  0
  140.0760   80.2530  223.4870 C   0  0  0  0  0  0  0  0  0  0  0  0
  141.4300   80.1080  223.8030 C   0  0  0  0  0  0  0  0  0  0  0  0
  142.0780   78.8930  223.5630 C   0  0  0  0  0  0  0  0  0  0  0  0
  141.3730   77.8190  223.0100 C   0  0  0  0  0  0  0  0  0  0  0  0
  140.9640   75.7290  220.5270 N   0  0  0  0  0  0  0  0  0  0  0  0
  141.0320   76.7260  219.4510 C   0  0  0  0  0  0  0  0  0  0  0  0
  142.3750   77.4630  219.4530 C   0  0  0  0  0  0  0  0  0  0  0  0
  142.2000   78.9460  219.2640 C   0  0  0  0  0  0  0  0  0  0  0  0
  142.5600   79.5500  218.0470 C   0  0  0  0  0  0  0  0  0  0  0  0
  142.3480   80.9180  217.8500 C   0  0  0  0  0  0  0  0  0  0  0  0
  141.7720   81.6900  218.8610 C   0  0  0  0  0  0  0  0  0  0  0  0
  141.4070   81.0960  220.0730 C   0  0  0  0  0  0  0  0  0  0  0  0
  141.6180   79.7290  220.2740 C   0  0  0  0  0  0  0  0  0  0  0  0
  144.9100   71.2790  219.5910 N   0  0  0  0  0  0  0  0  0  0  0  0
  143.6670   70.5950  219.9040 C   0  0  0  0  0  0  0  0  0  0  0  0
  143.9380   69.1180  219.6480 C   0  0  0  0  0  0  0  0  0  0  0  0
  145.2080   69.0650  218.8050 C   0  0  0  0  0  0  0  0  0  0  0  0
  145.9170   70.3910  219.0380 C   0  0  0  0  0  0  0  0  0  0  0  0
  143.7469   73.1124  221.3132 H   0  0  0  0  0  0  0  0  0  0  0  0
  144.5656   74.5586  220.5764 H   0  0  0  0  0  0  0  0  0  0  0  0
  138.7092   77.1797  221.1908 H   0  0  0  0  0  0  0  0  0  0  0  0
  138.5498   76.4021  222.8085 H   0  0  0  0  0  0  0  0  0  0  0  0
  138.3047   79.3015  222.6770 H   0  0  0  0  0  0  0  0  0  0  0  0
  139.5671   81.2099  223.6749 H   0  0  0  0  0  0  0  0  0  0  0  0
  141.9857   80.9504  224.2407 H   0  0  0  0  0  0  0  0  0  0  0  0
  143.1442   78.7813  223.8095 H   0  0  0  0  0  0  0  0  0  0  0  0
  141.8875   76.8659  222.8181 H   0  0  0  0  0  0  0  0  0  0  0  0
  140.9047   76.2175  218.4839 H   0  0  0  0  0  0  0  0  0  0  0  0
  140.2328   77.4642  219.6133 H   0  0  0  0  0  0  0  0  0  0  0  0
  142.8779   77.2837  220.4147 H   0  0  0  0  0  0  0  0  0  0  0  0
  142.9758   77.0804  218.6148 H   0  0  0  0  0  0  0  0  0  0  0  0
  143.0101   78.9444  217.2466 H   0  0  0  0  0  0  0  0  0  0  0  0
  142.6354   81.3867  216.8973 H   0  0  0  0  0  0  0  0  0  0  0  0
  141.6053   82.7659  218.7038 H   0  0  0  0  0  0  0  0  0  0  0  0
  140.9535   81.7050  220.8689 H   0  0  0  0  0  0  0  0  0  0  0  0
  141.3268   79.2644  221.2276 H   0  0  0  0  0  0  0  0  0  0  0  0
  143.3930   70.7585  220.9567 H   0  0  0  0  0  0  0  0  0  0  0  0
  142.8316   70.9679  219.2932 H   0  0  0  0  0  0  0  0  0  0  0  0
  144.0879   68.5862  220.5992 H   0  0  0  0  0  0  0  0  0  0  0  0
  143.0928   68.6357  219.1351 H   0  0  0  0  0  0  0  0  0  0  0  0
  145.8458   68.2282  219.1258 H   0  0  0  0  0  0  0  0  0  0  0  0
  144.9804   68.9097  217.7401 H   0  0  0  0  0  0  0  0  0  0  0  0
  146.7478   70.2630  219.7476 H   0  0  0  0  0  0  0  0  0  0  0  0
  146.3476   70.7918  218.1085 H   0  0  0  0  0  0  0  0  0  0  0  0
  1  2  2  0
  2  3  1  0
  3  4  1  0
  4  5  1  0
  5  6  2  0
  6  7  1  0
  7  8  2  0
  8  9  1  0
  9 10  1  0
 10 11  2  0
 11 12  1  0
 12 13  2  0
 13 14  1  0
 14 15  2  0
  8 16  1  0
 16 17  1  0
 17 18  1  0
 18 19  1  0
 19 20  2  0
 20 21  1  0
 21 22  2  0
 22 23  1  0
 23 24  2  0
  2 25  1  0
 25 26  1  0
 26 27  1  0
 27 28  1  0
 28 29  1  0
 16  5  1  0
 24 19  1  0
 29 25  1  0
 15 10  1  0
  3 30  1  0
  3 31  1  0
  9 32  1  0
  9 33  1  0
 11 34  1  0
 12 35  1  0
 13 36  1  0
 14 37  1  0
 15 38  1  0
 17 39  1  0
 17 40  1  0
 18 41  1  0
 18 42  1  0
 20 43  1  0
 21 44  1  0
 22 45  1  0
 23 46  1  0
 24 47  1  0
 26 48  1  0
 26 49  1  0
 27 50  1  0
 27 51  1  0
 28 52  1  0
 28 53  1  0
 29 54  1  0
 29 55  1  0
M  END
>  <UniqueID>  (79) 
20

>  <SMILES>  (79) 
O=C(CSc1nnc(Cc2ccccc2)n1CCc1ccccc1)N1CCCC1

>  <Energy>  (79) 
80.64932046959768

>  <Genealogy>  (79) 
O=C(CSc1nnc(Cc2ccccc2)n1CCc1ccccc1)N1CCCC1 (3D coordinates assigned)
O=C(CSc1nnc(Cc2ccccc2)n1CCc1ccccc1)N1CCCC1 (nonaromatic ring conformer: 80.64932046959768 kcal/mol)

>  <smiles>  (79) 
O=C(CSc1nnc(Cc2ccccc2)n1CCc1ccccc1)N1CCCC1

>  <score_type>  (79) 
oracle

>  <origin>  (79) 
autodockgpu

>  <m_score__min__energy>  (79) 
-8.1099999999999994

>  <m_primary>  (79) 
energy

>  <meeko>  (79) 
{"free_energy": -7.33, "intermolecular_energy": -9.71, "internal_energy": -2.0, "cluster_size": 2, "cluster_id": 5, "rank_in_cluster": 2}

>  <energy>  (79) 
-7.04

>  <cluster_rmsd>  (79) 
0.0

>  <rmsd>  (79) 
270.07

>  <cluster>  (79) 
7

$$$$
GPYMLVVOPJPQBB-UHFFFAOYNA-N
     RDKit          3D

 55 58  0  0  0  0  0  0  0  0999 V2000
  146.3430   73.2080  219.3410 O   0  0  0  0  0  0  0  0  0  0  0  0
  145.2610   72.7570  219.8050 C   0  0  0  0  0  0  0  0  0  0  0  0
  144.3530   73.6920  220.5500 C   0  0  0  0  0  0  0  0  0  0  0  0
  143.4660   74.8380  219.4340 S   0  0  0  0  0  0  0  0  0  0  0  0
  142.1660   75.2730  220.5960 C   0  0  0  0  0  0  0  0  0  0  0  0
  141.4490   74.3600  221.2770 N   0  0  0  0  0  0  0  0  0  0  0  0
  140.5370   75.0260  221.9710 N   0  0  0  0  0  0  0  0  0  0  0  0
  140.7010   76.3340  221.6930 C   0  0  0  0  0  0  0  0  0  0  0  0
  139.7870   77.3970  222.2340 C   0  0  0  0  0  0  0  0  0  0  0  0
  140.5860   78.5910  222.6810 C   0  0  0  0  0  0  0  0  0  0  0  0
  140.1520   79.8900  222.3640 C   0  0  0  0  0  0  0  0  0  0  0  0
  140.9090   80.9990  222.7540 C   0  0  0  0  0  0  0  0  0  0  0  0
  142.1070   80.8210  223.4500 C   0  0  0  0  0  0  0  0  0  0  0  0
  142.5510   79.5310  223.7580 C   0  0  0  0  0  0  0  0  0  0  0  0
  141.7970   78.4190  223.3720 C   0  0  0  0  0  0  0  0  0  0  0  0
  141.7160   76.5260  220.8200 N   0  0  0  0  0  0  0  0  0  0  0  0
  142.1610   77.7650  220.1700 C   0  0  0  0  0  0  0  0  0  0  0  0
  141.0380   78.4030  219.3450 C   0  0  0  0  0  0  0  0  0  0  0  0
  141.4030   79.7850  218.8770 C   0  0  0  0  0  0  0  0  0  0  0  0
  140.6020   80.8850  219.2300 C   0  0  0  0  0  0  0  0  0  0  0  0
  140.9680   82.1770  218.8420 C   0  0  0  0  0  0  0  0  0  0  0  0
  142.1370   82.3830  218.1050 C   0  0  0  0  0  0  0  0  0  0  0  0
  142.9410   81.2950  217.7540 C   0  0  0  0  0  0  0  0  0  0  0  0
  142.5790   80.0020  218.1400 C   0  0  0  0  0  0  0  0  0  0  0  0
  144.9280   71.3690  219.6160 N   0  0  0  0  0  0  0  0  0  0  0  0
  143.6630   70.7660  219.9970 C   0  0  0  0  0  0  0  0  0  0  0  0
  143.8000   69.2850  219.6670 C   0  0  0  0  0  0  0  0  0  0  0  0
  144.9970   69.1740  218.7290 C   0  0  0  0  0  0  0  0  0  0  0  0
  145.8210   70.4330  218.9560 C   0  0  0  0  0  0  0  0  0  0  0  0
  143.6135   73.0977  221.1067 H   0  0  0  0  0  0  0  0  0  0  0  0
  144.9753   74.2965  221.2263 H   0  0  0  0  0  0  0  0  0  0  0  0
  139.0824   77.7051  221.4475 H   0  0  0  0  0  0  0  0  0  0  0  0
  139.2351   76.9917  223.0949 H   0  0  0  0  0  0  0  0  0  0  0  0
  139.2142   80.0344  221.8075 H   0  0  0  0  0  0  0  0  0  0  0  0
  140.5604   82.0139  222.5122 H   0  0  0  0  0  0  0  0  0  0  0  0
  142.7009   81.6950  223.7557 H   0  0  0  0  0  0  0  0  0  0  0  0
  143.4951   79.3912  224.3049 H   0  0  0  0  0  0  0  0  0  0  0  0
  142.1531   77.4058  223.6101 H   0  0  0  0  0  0  0  0  0  0  0  0
  142.4852   78.4773  220.9430 H   0  0  0  0  0  0  0  0  0  0  0  0
  142.9903   77.5189  219.4906 H   0  0  0  0  0  0  0  0  0  0  0  0
  140.8384   77.7711  218.4670 H   0  0  0  0  0  0  0  0  0  0  0  0
  140.1474   78.4836  219.9855 H   0  0  0  0  0  0  0  0  0  0  0  0
  139.6832   80.7283  219.8141 H   0  0  0  0  0  0  0  0  0  0  0  0
  140.3346   83.0331  219.1174 H   0  0  0  0  0  0  0  0  0  0  0  0
  142.4243   83.4005  217.8013 H   0  0  0  0  0  0  0  0  0  0  0  0
  143.8607   81.4571  217.1727 H   0  0  0  0  0  0  0  0  0  0  0  0
  143.2180   79.1497  217.8655 H   0  0  0  0  0  0  0  0  0  0  0  0
  143.4801   70.9045  221.0728 H   0  0  0  0  0  0  0  0  0  0  0  0
  142.8165   71.2251  219.4654 H   0  0  0  0  0  0  0  0  0  0  0  0
  143.9774   68.7037  220.5839 H   0  0  0  0  0  0  0  0  0  0  0  0
  142.8851   68.8888  219.2023 H   0  0  0  0  0  0  0  0  0  0  0  0
  145.5903   68.2795  218.9696 H   0  0  0  0  0  0  0  0  0  0  0  0
  144.6811   69.0811  217.6794 H   0  0  0  0  0  0  0  0  0  0  0  0
  146.6889   70.2141  219.5954 H   0  0  0  0  0  0  0  0  0  0  0  0
  146.2123   70.8397  218.0118 H   0  0  0  0  0  0  0  0  0  0  0  0
  1  2  2  0
  2  3  1  0
  3  4  1  0
  4  5  1  0
  5  6  2  0
  6  7  1  0
  7  8  2  0
  8  9  1  0
  9 10  1  0
 10 11  2  0
 11 12  1  0
 12 13  2  0
 13 14  1  0
 14 15  2  0
  8 16  1  0
 16 17  1  0
 17 18  1  0
 18 19  1  0
 19 20  2  0
 20 21  1  0
 21 22  2  0
 22 23  1  0
 23 24  2  0
  2 25  1  0
 25 26  1  0
 26 27  1  0
 27 28  1  0
 28 29  1  0
 16  5  1  0
 24 19  1  0
 29 25  1  0
 15 10  1  0
  3 30  1  0
  3 31  1  0
  9 32  1  0
  9 33  1  0
 11 34  1  0
 12 35  1  0
 13 36  1  0
 14 37  1  0
 15 38  1  0
 17 39  1  0
 17 40  1  0
 18 41  1  0
 18 42  1  0
 20 43  1  0
 21 44  1  0
 22 45  1  0
 23 46  1  0
 24 47  1  0
 26 48  1  0
 26 49  1  0
 27 50  1  0
 27 51  1  0
 28 52  1  0
 28 53  1  0
 29 54  1  0
 29 55  1  0
M  END
>  <UniqueID>  (80) 
20

>  <SMILES>  (80) 
O=C(CSc1nnc(Cc2ccccc2)n1CCc1ccccc1)N1CCCC1

>  <Energy>  (80) 
80.64932046959768

>  <Genealogy>  (80) 
O=C(CSc1nnc(Cc2ccccc2)n1CCc1ccccc1)N1CCCC1 (3D coordinates assigned)
O=C(CSc1nnc(Cc2ccccc2)n1CCc1ccccc1)N1CCCC1 (nonaromatic ring conformer: 80.64932046959768 kcal/mol)

>  <smiles>  (80) 
O=C(CSc1nnc(Cc2ccccc2)n1CCc1ccccc1)N1CCCC1

>  <score_type>  (80) 
oracle

>  <origin>  (80) 
autodockgpu

>  <m_score__min__energy>  (80) 
-8.1099999999999994

>  <m_primary>  (80) 
energy

>  <meeko>  (80) 
{"free_energy": -7.33, "intermolecular_energy": -9.72, "internal_energy": -1.73, "cluster_size": 2, "cluster_id": 5, "rank_in_cluster": 1}

>  <energy>  (80) 
-6.47

>  <cluster_rmsd>  (80) 
0.0

>  <rmsd>  (80) 
270.0

>  <cluster>  (80) 
8

$$$$
