
     RDKit          3D

 44 47  0  0  0  0  0  0  0  0999 V2000
  135.7470   68.5640  225.1860 O   0  0  0  0  0  0  0  0  0  0  0  0
  135.9750   68.9380  223.7650 S   0  0  0  0  0  0  0  0  0  0  0  0
  135.4420   67.8840  222.8470 O   0  0  0  0  0  0  0  0  0  0  0  0
  137.7210   69.1190  223.4070 C   0  0  0  0  0  0  0  0  0  0  0  0
  138.4870   69.6130  224.5590 C   0  0  0  0  0  0  0  0  0  0  0  0
  139.1880   70.8090  224.3830 C   0  0  0  0  0  0  0  0  0  0  0  0
  139.9270   71.3240  225.4290 C   0  0  0  0  0  0  0  0  0  0  0  0
  139.9780   70.6650  226.6490 C   0  0  0  0  0  0  0  0  0  0  0  0
  140.8050   71.3080  227.7090 C   0  0  0  0  0  0  0  0  0  0  0  0
  140.0280   72.0370  228.5830 F   0  0  0  0  0  0  0  0  0  0  0  0
  141.7480   72.1570  227.1550 F   0  0  0  0  0  0  0  0  0  0  0  0
  141.4770   70.3100  228.3790 F   0  0  0  0  0  0  0  0  0  0  0  0
  139.2950   69.4830  226.8460 C   0  0  0  0  0  0  0  0  0  0  0  0
  138.5480   68.9650  225.7840 C   0  0  0  0  0  0  0  0  0  0  0  0
  135.1910   70.4240  223.4390 N   0  0  0  0  0  0  0  0  0  0  0  0
  133.8120   70.4610  223.8170 C   0  0  0  0  0  0  0  0  0  0  0  0
  133.6480   70.8420  225.2940 C   0  0  0  0  0  0  0  0  0  0  0  0
  134.1140   72.2680  225.3620 C   0  0  0  0  0  0  0  0  0  0  0  0
  135.2380   72.5720  224.6150 C   0  0  0  0  0  0  0  0  0  0  0  0
  135.5030   73.8770  224.7960 N   0  0  0  0  0  0  0  0  0  0  0  0
  134.5820   74.3920  225.6290 C   0  0  0  0  0  0  0  0  0  0  0  0
  134.4320   75.6780  226.1110 C   0  0  0  0  0  0  0  0  0  0  0  0
  133.3710   75.9290  226.9730 C   0  0  0  0  0  0  0  0  0  0  0  0
  132.4810   74.9200  227.3420 C   0  0  0  0  0  0  0  0  0  0  0  0
  132.6400   73.6390  226.8530 C   0  0  0  0  0  0  0  0  0  0  0  0
  133.6810   73.4010  226.0100 C   0  0  0  0  0  0  0  0  0  0  0  0
  135.9610   71.5760  223.7900 C   0  0  0  0  0  0  0  0  0  0  0  0
  138.1231   68.1389  223.1110 H   0  0  0  0  0  0  0  0  0  0  0  0
  137.8199   69.8595  222.5996 H   0  0  0  0  0  0  0  0  0  0  0  0
  139.1512   71.3361  223.4182 H   0  0  0  0  0  0  0  0  0  0  0  0
  140.4803   72.2651  225.2942 H   0  0  0  0  0  0  0  0  0  0  0  0
  139.3370   68.9615  227.8136 H   0  0  0  0  0  0  0  0  0  0  0  0
  137.9967   68.0233  225.9227 H   0  0  0  0  0  0  0  0  0  0  0  0
  133.2901   71.2035  223.1955 H   0  0  0  0  0  0  0  0  0  0  0  0
  133.3845   69.4585  223.6679 H   0  0  0  0  0  0  0  0  0  0  0  0
  132.5955   70.7606  225.6031 H   0  0  0  0  0  0  0  0  0  0  0  0
  134.2166   70.1811  225.9647 H   0  0  0  0  0  0  0  0  0  0  0  0
  136.3000   74.4110  224.3580 H   0  0  0  0  0  0  0  0  0  0  0  0
  135.1299   76.4776  225.8218 H   0  0  0  0  0  0  0  0  0  0  0  0
  133.2301   76.9442  227.3725 H   0  0  0  0  0  0  0  0  0  0  0  0
  131.6492   75.1462  228.0254 H   0  0  0  0  0  0  0  0  0  0  0  0
  131.9456   72.8344  227.1365 H   0  0  0  0  0  0  0  0  0  0  0  0
  136.2840   72.0691  222.8612 H   0  0  0  0  0  0  0  0  0  0  0  0
  136.8015   71.2154  224.4012 H   0  0  0  0  0  0  0  0  0  0  0  0
  1  2  2  0
  2  3  2  0
  2  4  1  0
  4  5  1  0
  5  6  2  0
  6  7  1  0
  7  8  2  0
  8  9  1  0
  9 10  1  0
  9 11  1  0
  9 12  1  0
  8 13  1  0
 13 14  2  0
  2 15  1  0
 15 16  1  0
 16 17  1  0
 17 18  1  0
 18 19  2  0
 19 20  1  0
 20 21  1  0
 21 22  2  0
 22 23  1  0
 23 24  2  0
 24 25  1  0
 25 26  2  0
 19 27  1  0
 14  5  1  0
 27 15  1  0
 26 18  1  0
 26 21  1  0
  4 28  1  0
  4 29  1  0
  6 30  1  0
  7 31  1  0
 13 32  1  0
 14 33  1  0
 16 34  1  0
 16 35  1  0
 17 36  1  0
 17 37  1  0
 20 38  1  0
 22 39  1  0
 23 40  1  0
 24 41  1  0
 25 42  1  0
 27 43  1  0
 27 44  1  0
M  END
>  <smiles>  (1) 
O=S(=O)(Cc1ccc(C(F)(F)F)cc1)N1CCc2c([nH]c3ccccc23)C1

>  <score_type>  (1) 
oracle

>  <origin>  (1) 
autodockgpu

>  <m_score__min__energy>  (1) 
-7.2300000000000004

>  <m_primary>  (1) 
energy

>  <meeko>  (1) 
{"free_energy": -7.07, "intermolecular_energy": -8.26, "internal_energy": -0.96, "cluster_size": 5, "cluster_id": 2, "rank_in_cluster": 5}

>  <energy>  (1) 
-7.23

>  <cluster_rmsd>  (1) 
0.0

>  <rmsd>  (1) 
271.37

>  <cluster>  (1) 
1

$$$$

     RDKit          3D

 44 47  0  0  0  0  0  0  0  0999 V2000
  135.7440   68.7660  225.3510 O   0  0  0  0  0  0  0  0  0  0  0  0
  135.9160   69.0360  223.8980 S   0  0  0  0  0  0  0  0  0  0  0  0
  135.2930   67.9500  223.0790 O   0  0  0  0  0  0  0  0  0  0  0  0
  137.6480   69.1130  223.4470 C   0  0  0  0  0  0  0  0  0  0  0  0
  138.4770   69.7360  224.4880 C   0  0  0  0  0  0  0  0  0  0  0  0
  138.5410   69.0770  225.7190 C   0  0  0  0  0  0  0  0  0  0  0  0
  139.3040   69.6130  226.7380 C   0  0  0  0  0  0  0  0  0  0  0  0
  140.0030   70.7960  226.5480 C   0  0  0  0  0  0  0  0  0  0  0  0
  140.7940   71.2850  227.7130 C   0  0  0  0  0  0  0  0  0  0  0  0
  141.4220   70.2480  228.3680 F   0  0  0  0  0  0  0  0  0  0  0  0
  139.9830   71.9440  228.6220 F   0  0  0  0  0  0  0  0  0  0  0  0
  141.7200   72.1880  227.2410 F   0  0  0  0  0  0  0  0  0  0  0  0
  139.9540   71.4640  225.3420 C   0  0  0  0  0  0  0  0  0  0  0  0
  139.1810   70.9180  224.3140 C   0  0  0  0  0  0  0  0  0  0  0  0
  135.1800   70.5320  223.5110 N   0  0  0  0  0  0  0  0  0  0  0  0
  133.7960   70.6180  223.8600 C   0  0  0  0  0  0  0  0  0  0  0  0
  133.6150   71.0500  225.3200 C   0  0  0  0  0  0  0  0  0  0  0  0
  134.1180   72.4640  225.3540 C   0  0  0  0  0  0  0  0  0  0  0  0
  135.2650   72.7140  224.6200 C   0  0  0  0  0  0  0  0  0  0  0  0
  135.5630   74.0160  224.7650 N   0  0  0  0  0  0  0  0  0  0  0  0
  134.6400   74.5820  225.5640 C   0  0  0  0  0  0  0  0  0  0  0  0
  134.5170   75.8860  226.0030 C   0  0  0  0  0  0  0  0  0  0  0  0
  133.4470   76.1930  226.8340 C   0  0  0  0  0  0  0  0  0  0  0  0
  132.5220   75.2210  227.2170 C   0  0  0  0  0  0  0  0  0  0  0  0
  132.6550   73.9220  226.7710 C   0  0  0  0  0  0  0  0  0  0  0  0
  133.7050   73.6280  225.9580 C   0  0  0  0  0  0  0  0  0  0  0  0
  135.9750   71.6730  223.8410 C   0  0  0  0  0  0  0  0  0  0  0  0
  138.0122   68.0898  223.2724 H   0  0  0  0  0  0  0  0  0  0  0  0
  137.7288   69.7331  222.5420 H   0  0  0  0  0  0  0  0  0  0  0  0
  137.9881   68.1389  225.8750 H   0  0  0  0  0  0  0  0  0  0  0  0
  139.3578   69.0975  227.7082 H   0  0  0  0  0  0  0  0  0  0  0  0
  140.5090   72.4020  225.1935 H   0  0  0  0  0  0  0  0  0  0  0  0
  139.1298   71.4371  223.3455 H   0  0  0  0  0  0  0  0  0  0  0  0
  133.3065   71.3540  223.2053 H   0  0  0  0  0  0  0  0  0  0  0  0
  133.3439   69.6232  223.7339 H   0  0  0  0  0  0  0  0  0  0  0  0
  132.5550   71.0065  225.6106 H   0  0  0  0  0  0  0  0  0  0  0  0
  134.1533   70.3957  226.0215 H   0  0  0  0  0  0  0  0  0  0  0  0
  136.3820   74.5140  224.3280 H   0  0  0  0  0  0  0  0  0  0  0  0
  135.2430   76.6565  225.7042 H   0  0  0  0  0  0  0  0  0  0  0  0
  133.3264   77.2241  227.1978 H   0  0  0  0  0  0  0  0  0  0  0  0
  131.6841   75.4912  227.8765 H   0  0  0  0  0  0  0  0  0  0  0  0
  131.9324   73.1463  227.0646 H   0  0  0  0  0  0  0  0  0  0  0  0
  136.3291   72.1273  222.9039 H   0  0  0  0  0  0  0  0  0  0  0  0
  136.7933   71.3090  224.4797 H   0  0  0  0  0  0  0  0  0  0  0  0
  1  2  2  0
  2  3  2  0
  2  4  1  0
  4  5  1  0
  5  6  2  0
  6  7  1  0
  7  8  2  0
  8  9  1  0
  9 10  1  0
  9 11  1  0
  9 12  1  0
  8 13  1  0
 13 14  2  0
  2 15  1  0
 15 16  1  0
 16 17  1  0
 17 18  1  0
 18 19  2  0
 19 20  1  0
 20 21  1  0
 21 22  2  0
 22 23  1  0
 23 24  2  0
 24 25  1  0
 25 26  2  0
 19 27  1  0
 14  5  1  0
 27 15  1  0
 26 18  1  0
 26 21  1  0
  4 28  1  0
  4 29  1  0
  6 30  1  0
  7 31  1  0
 13 32  1  0
 14 33  1  0
 16 34  1  0
 16 35  1  0
 17 36  1  0
 17 37  1  0
 20 38  1  0
 22 39  1  0
 23 40  1  0
 24 41  1  0
 25 42  1  0
 27 43  1  0
 27 44  1  0
M  END
>  <smiles>  (2) 
O=S(=O)(Cc1ccc(C(F)(F)F)cc1)N1CCc2c([nH]c3ccccc23)C1

>  <score_type>  (2) 
oracle

>  <origin>  (2) 
autodockgpu

>  <m_score__min__energy>  (2) 
-7.2300000000000004

>  <m_primary>  (2) 
energy

>  <meeko>  (2) 
{"free_energy": -7.11, "intermolecular_energy": -8.3, "internal_energy": -0.93, "cluster_size": 5, "cluster_id": 2, "rank_in_cluster": 2}

>  <energy>  (2) 
-7.15

>  <cluster_rmsd>  (2) 
1.2

>  <rmsd>  (2) 
271.46

>  <cluster>  (2) 
1

$$$$

     RDKit          3D

 44 47  0  0  0  0  0  0  0  0999 V2000
  137.4830   72.2900  223.0960 O   0  0  0  0  0  0  0  0  0  0  0  0
  138.2920   71.9540  221.8940 S   0  0  0  0  0  0  0  0  0  0  0  0
  137.4890   71.1470  220.9230 O   0  0  0  0  0  0  0  0  0  0  0  0
  139.7340   70.9820  222.3250 C   0  0  0  0  0  0  0  0  0  0  0  0
  139.9030   70.8340  223.7770 C   0  0  0  0  0  0  0  0  0  0  0  0
  140.6800   71.8000  224.4220 C   0  0  0  0  0  0  0  0  0  0  0  0
  140.8760   71.7140  225.7860 C   0  0  0  0  0  0  0  0  0  0  0  0
  140.3100   70.6790  226.5170 C   0  0  0  0  0  0  0  0  0  0  0  0
  140.5860   70.6830  227.9810 C   0  0  0  0  0  0  0  0  0  0  0  0
  141.3170   69.5790  228.3610 F   0  0  0  0  0  0  0  0  0  0  0  0
  139.4070   70.6920  228.7070 F   0  0  0  0  0  0  0  0  0  0  0  0
  141.2720   71.8400  228.2760 F   0  0  0  0  0  0  0  0  0  0  0  0
  139.5410   69.7140  225.9010 C   0  0  0  0  0  0  0  0  0  0  0  0
  139.3450   69.8040  224.5200 C   0  0  0  0  0  0  0  0  0  0  0  0
  138.8090   73.4000  221.1390 N   0  0  0  0  0  0  0  0  0  0  0  0
  137.7960   74.4030  221.0250 C   0  0  0  0  0  0  0  0  0  0  0  0
  137.7030   75.2500  222.3000 C   0  0  0  0  0  0  0  0  0  0  0  0
  139.0010   76.0040  222.3400 C   0  0  0  0  0  0  0  0  0  0  0  0
  140.1270   75.2850  221.9820 C   0  0  0  0  0  0  0  0  0  0  0  0
  141.1820   76.1120  222.0750 N   0  0  0  0  0  0  0  0  0  0  0  0
  140.7470   77.3190  222.4780 C   0  0  0  0  0  0  0  0  0  0  0  0
  141.4470   78.4870  222.7160 C   0  0  0  0  0  0  0  0  0  0  0  0
  140.7270   79.6010  223.1320 C   0  0  0  0  0  0  0  0  0  0  0  0
  139.3440   79.5490  223.3060 C   0  0  0  0  0  0  0  0  0  0  0  0
  138.6570   78.3770  223.0640 C   0  0  0  0  0  0  0  0  0  0  0  0
  139.3670   77.2900  222.6570 C   0  0  0  0  0  0  0  0  0  0  0  0
  140.0900   73.8590  221.5800 C   0  0  0  0  0  0  0  0  0  0  0  0
  139.6308   69.9819  221.8787 H   0  0  0  0  0  0  0  0  0  0  0  0
  140.6186   71.5096  221.9390 H   0  0  0  0  0  0  0  0  0  0  0  0
  141.1318   72.6222  223.8477 H   0  0  0  0  0  0  0  0  0  0  0  0
  141.4863   72.4726  226.2979 H   0  0  0  0  0  0  0  0  0  0  0  0
  139.0932   68.8942  226.4818 H   0  0  0  0  0  0  0  0  0  0  0  0
  138.7356   69.0422  224.0118 H   0  0  0  0  0  0  0  0  0  0  0  0
  138.0360   75.0595  220.1756 H   0  0  0  0  0  0  0  0  0  0  0  0
  136.8287   73.9028  220.8697 H   0  0  0  0  0  0  0  0  0  0  0  0
  136.8510   75.9436  222.2458 H   0  0  0  0  0  0  0  0  0  0  0  0
  137.5444   74.6382  223.2003 H   0  0  0  0  0  0  0  0  0  0  0  0
  142.1840   75.8600  221.8660 H   0  0  0  0  0  0  0  0  0  0  0  0
  142.5377   78.5334  222.5807 H   0  0  0  0  0  0  0  0  0  0  0  0
  141.2592   80.5435  223.3281 H   0  0  0  0  0  0  0  0  0  0  0  0
  138.7991   80.4453  223.6373 H   0  0  0  0  0  0  0  0  0  0  0  0
  137.5663   78.3230  223.1964 H   0  0  0  0  0  0  0  0  0  0  0  0
  140.8079   73.7147  220.7592 H   0  0  0  0  0  0  0  0  0  0  0  0
  140.3397   73.2744  222.4777 H   0  0  0  0  0  0  0  0  0  0  0  0
  1  2  2  0
  2  3  2  0
  2  4  1  0
  4  5  1  0
  5  6  2  0
  6  7  1  0
  7  8  2  0
  8  9  1  0
  9 10  1  0
  9 11  1  0
  9 12  1  0
  8 13  1  0
 13 14  2  0
  2 15  1  0
 15 16  1  0
 16 17  1  0
 17 18  1  0
 18 19  2  0
 19 20  1  0
 20 21  1  0
 21 22  2  0
 22 23  1  0
 23 24  2  0
 24 25  1  0
 25 26  2  0
 19 27  1  0
 14  5  1  0
 27 15  1  0
 26 18  1  0
 26 21  1  0
  4 28  1  0
  4 29  1  0
  6 30  1  0
  7 31  1  0
 13 32  1  0
 14 33  1  0
 16 34  1  0
 16 35  1  0
 17 36  1  0
 17 37  1  0
 20 38  1  0
 22 39  1  0
 23 40  1  0
 24 41  1  0
 25 42  1  0
 27 43  1  0
 27 44  1  0
M  END
>  <smiles>  (3) 
O=S(=O)(Cc1ccc(C(F)(F)F)cc1)N1CCc2c([nH]c3ccccc23)C1

>  <score_type>  (3) 
oracle

>  <origin>  (3) 
autodockgpu

>  <m_score__min__energy>  (3) 
-7.2300000000000004

>  <m_primary>  (3) 
energy

>  <meeko>  (3) 
{"free_energy": -7.14, "intermolecular_energy": -8.33, "internal_energy": -0.93, "cluster_size": 12, "cluster_id": 1, "rank_in_cluster": 4}

>  <energy>  (3) 
-7.15

>  <cluster_rmsd>  (3) 
1.28

>  <rmsd>  (3) 
271.43

>  <cluster>  (3) 
1

$$$$

     RDKit          3D

 44 47  0  0  0  0  0  0  0  0999 V2000
  135.8560   68.8080  225.2600 O   0  0  0  0  0  0  0  0  0  0  0  0
  136.0520   69.1660  223.8290 S   0  0  0  0  0  0  0  0  0  0  0  0
  135.5370   68.0820  222.9360 O   0  0  0  0  0  0  0  0  0  0  0  0
  137.7860   69.3930  223.4420 C   0  0  0  0  0  0  0  0  0  0  0  0
  138.5750   69.8170  224.6060 C   0  0  0  0  0  0  0  0  0  0  0  0
  139.2390   71.0430  224.5030 C   0  0  0  0  0  0  0  0  0  0  0  0
  139.9980   71.4970  225.5640 C   0  0  0  0  0  0  0  0  0  0  0  0
  140.1050   70.7460  226.7260 C   0  0  0  0  0  0  0  0  0  0  0  0
  140.9480   71.3290  227.8080 C   0  0  0  0  0  0  0  0  0  0  0  0
  141.6360   70.3530  228.4940 F   0  0  0  0  0  0  0  0  0  0  0  0
  140.1740   72.0320  228.7160 F   0  0  0  0  0  0  0  0  0  0  0  0
  141.8250   72.2160  227.2240 F   0  0  0  0  0  0  0  0  0  0  0  0
  139.4590   69.5340  226.8510 C   0  0  0  0  0  0  0  0  0  0  0  0
  138.6930   69.0780  225.7740 C   0  0  0  0  0  0  0  0  0  0  0  0
  135.2190   70.6230  223.4930 N   0  0  0  0  0  0  0  0  0  0  0  0
  133.8520   70.6340  223.9140 C   0  0  0  0  0  0  0  0  0  0  0  0
  133.7250   71.0470  225.3850 C   0  0  0  0  0  0  0  0  0  0  0  0
  134.1540   72.4860  225.4040 C   0  0  0  0  0  0  0  0  0  0  0  0
  135.2460   72.8000  224.6140 C   0  0  0  0  0  0  0  0  0  0  0  0
  135.4830   74.1160  224.7550 N   0  0  0  0  0  0  0  0  0  0  0  0
  134.5740   74.6270  225.6040 C   0  0  0  0  0  0  0  0  0  0  0  0
  134.4060   75.9210  226.0600 C   0  0  0  0  0  0  0  0  0  0  0  0
  133.3660   76.1660  226.9480 C   0  0  0  0  0  0  0  0  0  0  0  0
  132.5140   75.1440  227.3700 C   0  0  0  0  0  0  0  0  0  0  0  0
  132.6920   73.8560  226.9070 C   0  0  0  0  0  0  0  0  0  0  0  0
  133.7120   73.6230  226.0380 C   0  0  0  0  0  0  0  0  0  0  0  0
  135.9690   71.8030  223.7910 C   0  0  0  0  0  0  0  0  0  0  0  0
  138.1913   68.4405  223.0700 H   0  0  0  0  0  0  0  0  0  0  0  0
  137.8565   70.1879  222.6850 H   0  0  0  0  0  0  0  0  0  0  0  0
  139.1576   71.6417  223.5838 H   0  0  0  0  0  0  0  0  0  0  0  0
  140.5217   72.4613  225.4872 H   0  0  0  0  0  0  0  0  0  0  0  0
  139.5442   68.9416  227.7739 H   0  0  0  0  0  0  0  0  0  0  0  0
  138.1726   68.1123  225.8546 H   0  0  0  0  0  0  0  0  0  0  0  0
  133.2913   71.3472  223.2920 H   0  0  0  0  0  0  0  0  0  0  0  0
  133.4465   69.6176  223.8027 H   0  0  0  0  0  0  0  0  0  0  0  0
  132.6854   70.9456  225.7300 H   0  0  0  0  0  0  0  0  0  0  0  0
  134.3326   70.4182  226.0523 H   0  0  0  0  0  0  0  0  0  0  0  0
  136.2510   74.6590  224.2800 H   0  0  0  0  0  0  0  0  0  0  0  0
  135.0740   76.7305  225.7305 H   0  0  0  0  0  0  0  0  0  0  0  0
  133.2107   77.1871  227.3266 H   0  0  0  0  0  0  0  0  0  0  0  0
  131.6982   75.3658  228.0737 H   0  0  0  0  0  0  0  0  0  0  0  0
  132.0280   73.0413  227.2315 H   0  0  0  0  0  0  0  0  0  0  0  0
  136.2495   72.2807  222.8407 H   0  0  0  0  0  0  0  0  0  0  0  0
  136.8376   71.4798  224.3834 H   0  0  0  0  0  0  0  0  0  0  0  0
  1  2  2  0
  2  3  2  0
  2  4  1  0
  4  5  1  0
  5  6  2  0
  6  7  1  0
  7  8  2  0
  8  9  1  0
  9 10  1  0
  9 11  1  0
  9 12  1  0
  8 13  1  0
 13 14  2  0
  2 15  1  0
 15 16  1  0
 16 17  1  0
 17 18  1  0
 18 19  2  0
 19 20  1  0
 20 21  1  0
 21 22  2  0
 22 23  1  0
 23 24  2  0
 24 25  1  0
 25 26  2  0
 19 27  1  0
 14  5  1  0
 27 15  1  0
 26 18  1  0
 26 21  1  0
  4 28  1  0
  4 29  1  0
  6 30  1  0
  7 31  1  0
 13 32  1  0
 14 33  1  0
 16 34  1  0
 16 35  1  0
 17 36  1  0
 17 37  1  0
 20 38  1  0
 22 39  1  0
 23 40  1  0
 24 41  1  0
 25 42  1  0
 27 43  1  0
 27 44  1  0
M  END
>  <smiles>  (4) 
O=S(=O)(Cc1ccc(C(F)(F)F)cc1)N1CCc2c([nH]c3ccccc23)C1

>  <score_type>  (4) 
oracle

>  <origin>  (4) 
autodockgpu

>  <m_score__min__energy>  (4) 
-7.2300000000000004

>  <m_primary>  (4) 
energy

>  <meeko>  (4) 
{"free_energy": -7.09, "intermolecular_energy": -8.28, "internal_energy": -0.94, "cluster_size": 5, "cluster_id": 2, "rank_in_cluster": 3}

>  <energy>  (4) 
-7.14

>  <cluster_rmsd>  (4) 
1.33

>  <rmsd>  (4) 
271.49

>  <cluster>  (4) 
1

$$$$

     RDKit          3D

 44 47  0  0  0  0  0  0  0  0999 V2000
  137.3060   72.3080  223.1610 O   0  0  0  0  0  0  0  0  0  0  0  0
  138.0530   71.8970  221.9420 S   0  0  0  0  0  0  0  0  0  0  0  0
  137.1630   71.1450  221.0030 O   0  0  0  0  0  0  0  0  0  0  0  0
  139.4260   70.8200  222.3470 C   0  0  0  0  0  0  0  0  0  0  0  0
  139.8110   70.9020  223.7620 C   0  0  0  0  0  0  0  0  0  0  0  0
  139.2230   69.9760  224.6290 C   0  0  0  0  0  0  0  0  0  0  0  0
  139.5450   70.0020  225.9720 C   0  0  0  0  0  0  0  0  0  0  0  0
  140.4430   70.9390  226.4640 C   0  0  0  0  0  0  0  0  0  0  0  0
  140.7180   70.8780  227.9270 C   0  0  0  0  0  0  0  0  0  0  0  0
  141.3160   69.6880  228.2800 F   0  0  0  0  0  0  0  0  0  0  0  0
  139.5490   71.0090  228.6570 F   0  0  0  0  0  0  0  0  0  0  0  0
  141.5360   71.9400  228.2440 F   0  0  0  0  0  0  0  0  0  0  0  0
  141.0350   71.8620  225.6270 C   0  0  0  0  0  0  0  0  0  0  0  0
  140.7060   71.8320  224.2700 C   0  0  0  0  0  0  0  0  0  0  0  0
  138.6610   73.2900  221.1550 N   0  0  0  0  0  0  0  0  0  0  0  0
  137.7010   74.3350  220.9770 C   0  0  0  0  0  0  0  0  0  0  0  0
  137.6130   75.2290  222.2200 C   0  0  0  0  0  0  0  0  0  0  0  0
  138.9440   75.9220  222.2740 C   0  0  0  0  0  0  0  0  0  0  0  0
  140.0440   75.1380  221.9730 C   0  0  0  0  0  0  0  0  0  0  0  0
  141.1340   75.9180  222.0700 N   0  0  0  0  0  0  0  0  0  0  0  0
  140.7470   77.1570  222.4200 C   0  0  0  0  0  0  0  0  0  0  0  0
  141.4950   78.2980  222.6400 C   0  0  0  0  0  0  0  0  0  0  0  0
  140.8190   79.4590  222.9970 C   0  0  0  0  0  0  0  0  0  0  0  0
  139.4300   79.4780  223.1300 C   0  0  0  0  0  0  0  0  0  0  0  0
  138.6940   78.3320  222.9080 C   0  0  0  0  0  0  0  0  0  0  0  0
  139.3620   77.2000  222.5590 C   0  0  0  0  0  0  0  0  0  0  0  0
  139.9490   73.7030  221.6180 C   0  0  0  0  0  0  0  0  0  0  0  0
  139.1388   69.7827  222.1197 H   0  0  0  0  0  0  0  0  0  0  0  0
  140.2901   71.1428  221.7478 H   0  0  0  0  0  0  0  0  0  0  0  0
  138.5094   69.2324  224.2445 H   0  0  0  0  0  0  0  0  0  0  0  0
  139.0860   69.2741  226.6572 H   0  0  0  0  0  0  0  0  0  0  0  0
  141.7479   72.6027  226.0183 H   0  0  0  0  0  0  0  0  0  0  0  0
  141.1670   72.5623  223.5888 H   0  0  0  0  0  0  0  0  0  0  0  0
  137.9964   74.9496  220.1139 H   0  0  0  0  0  0  0  0  0  0  0  0
  136.7155   73.8760  220.8092 H   0  0  0  0  0  0  0  0  0  0  0  0
  136.7972   75.9597  222.1174 H   0  0  0  0  0  0  0  0  0  0  0  0
  137.3999   74.6567  223.1349 H   0  0  0  0  0  0  0  0  0  0  0  0
  142.1290   75.6120  221.9000 H   0  0  0  0  0  0  0  0  0  0  0  0
  142.5900   78.2878  222.5360 H   0  0  0  0  0  0  0  0  0  0  0  0
  141.3904   80.3813  223.1783 H   0  0  0  0  0  0  0  0  0  0  0  0
  138.9196   80.4104  223.4130 H   0  0  0  0  0  0  0  0  0  0  0  0
  137.5988   78.3341  223.0104 H   0  0  0  0  0  0  0  0  0  0  0  0
  140.6818   73.4964  220.8241 H   0  0  0  0  0  0  0  0  0  0  0  0
  140.1446   73.1389  222.5419 H   0  0  0  0  0  0  0  0  0  0  0  0
  1  2  2  0
  2  3  2  0
  2  4  1  0
  4  5  1  0
  5  6  2  0
  6  7  1  0
  7  8  2  0
  8  9  1  0
  9 10  1  0
  9 11  1  0
  9 12  1  0
  8 13  1  0
 13 14  2  0
  2 15  1  0
 15 16  1  0
 16 17  1  0
 17 18  1  0
 18 19  2  0
 19 20  1  0
 20 21  1  0
 21 22  2  0
 22 23  1  0
 23 24  2  0
 24 25  1  0
 25 26  2  0
 19 27  1  0
 14  5  1  0
 27 15  1  0
 26 18  1  0
 26 21  1  0
  4 28  1  0
  4 29  1  0
  6 30  1  0
  7 31  1  0
 13 32  1  0
 14 33  1  0
 16 34  1  0
 16 35  1  0
 17 36  1  0
 17 37  1  0
 20 38  1  0
 22 39  1  0
 23 40  1  0
 24 41  1  0
 25 42  1  0
 27 43  1  0
 27 44  1  0
M  END
>  <smiles>  (5) 
O=S(=O)(Cc1ccc(C(F)(F)F)cc1)N1CCc2c([nH]c3ccccc23)C1

>  <score_type>  (5) 
oracle

>  <origin>  (5) 
autodockgpu

>  <m_score__min__energy>  (5) 
-7.2300000000000004

>  <m_primary>  (5) 
energy

>  <meeko>  (5) 
{"free_energy": -6.97, "intermolecular_energy": -8.16, "internal_energy": -0.95, "cluster_size": 12, "cluster_id": 1, "rank_in_cluster": 10}

>  <energy>  (5) 
-7.14

>  <cluster_rmsd>  (5) 
1.37

>  <rmsd>  (5) 
271.49

>  <cluster>  (5) 
1

$$$$

     RDKit          3D

 44 47  0  0  0  0  0  0  0  0999 V2000
  137.6380   72.2580  223.0920 O   0  0  0  0  0  0  0  0  0  0  0  0
  138.5040   71.9790  221.9150 S   0  0  0  0  0  0  0  0  0  0  0  0
  137.8000   71.0940  220.9360 O   0  0  0  0  0  0  0  0  0  0  0  0
  140.0130   71.1420  222.3970 C   0  0  0  0  0  0  0  0  0  0  0  0
  140.0340   70.7870  223.8220 C   0  0  0  0  0  0  0  0  0  0  0  0
  140.6920   71.6720  224.6820 C   0  0  0  0  0  0  0  0  0  0  0  0
  140.7460   71.3930  226.0330 C   0  0  0  0  0  0  0  0  0  0  0  0
  140.1540   70.2450  226.5410 C   0  0  0  0  0  0  0  0  0  0  0  0
  140.2710   70.0430  228.0120 C   0  0  0  0  0  0  0  0  0  0  0  0
  140.3440   68.7050  228.3340 F   0  0  0  0  0  0  0  0  0  0  0  0
  139.1870   70.5900  228.6770 F   0  0  0  0  0  0  0  0  0  0  0  0
  141.4040   70.7020  228.4370 F   0  0  0  0  0  0  0  0  0  0  0  0
  139.4990   69.3580  225.7120 C   0  0  0  0  0  0  0  0  0  0  0  0
  139.4470   69.6440  224.3450 C   0  0  0  0  0  0  0  0  0  0  0  0
  138.9140   73.4550  221.1530 N   0  0  0  0  0  0  0  0  0  0  0  0
  137.8370   74.3910  221.0560 C   0  0  0  0  0  0  0  0  0  0  0  0
  137.7100   75.2300  222.3330 C   0  0  0  0  0  0  0  0  0  0  0  0
  138.9570   76.0670  222.3520 C   0  0  0  0  0  0  0  0  0  0  0  0
  140.1220   75.4210  221.9740 C   0  0  0  0  0  0  0  0  0  0  0  0
  141.1220   76.3160  222.0500 N   0  0  0  0  0  0  0  0  0  0  0  0
  140.6170   77.4920  222.4610 C   0  0  0  0  0  0  0  0  0  0  0  0
  141.2430   78.7030  222.6880 C   0  0  0  0  0  0  0  0  0  0  0  0
  140.4610   79.7690  223.1160 C   0  0  0  0  0  0  0  0  0  0  0  0
  139.0860   79.6270  223.3130 C   0  0  0  0  0  0  0  0  0  0  0  0
  138.4730   78.4130  223.0820 C   0  0  0  0  0  0  0  0  0  0  0  0
  139.2440   77.3750  222.6630 C   0  0  0  0  0  0  0  0  0  0  0  0
  140.1700   73.9960  221.5720 C   0  0  0  0  0  0  0  0  0  0  0  0
  140.1095   70.2209  221.8034 H   0  0  0  0  0  0  0  0  0  0  0  0
  140.8491   71.8331  222.2145 H   0  0  0  0  0  0  0  0  0  0  0  0
  141.1629   72.5834  224.2851 H   0  0  0  0  0  0  0  0  0  0  0  0
  141.2627   72.0865  226.7127 H   0  0  0  0  0  0  0  0  0  0  0  0
  139.0297   68.4491  226.1165 H   0  0  0  0  0  0  0  0  0  0  0  0
  138.9293   68.9476  223.6690 H   0  0  0  0  0  0  0  0  0  0  0  0
  138.0210   75.0616  220.2037 H   0  0  0  0  0  0  0  0  0  0  0  0
  136.9015   73.8298  220.9154 H   0  0  0  0  0  0  0  0  0  0  0  0
  136.8138   75.8666  222.2935 H   0  0  0  0  0  0  0  0  0  0  0  0
  137.6063   74.6094  223.2353 H   0  0  0  0  0  0  0  0  0  0  0  0
  142.1350   76.1290  221.8250 H   0  0  0  0  0  0  0  0  0  0  0  0
  142.3260   78.8194  222.5347 H   0  0  0  0  0  0  0  0  0  0  0  0
  140.9346   80.7440  223.3033 H   0  0  0  0  0  0  0  0  0  0  0  0
  138.4895   80.4862  223.6536 H   0  0  0  0  0  0  0  0  0  0  0  0
  137.3905   78.2885  223.2327 H   0  0  0  0  0  0  0  0  0  0  0  0
  140.8814   73.8979  220.7388 H   0  0  0  0  0  0  0  0  0  0  0  0
  140.4724   73.4292  222.4649 H   0  0  0  0  0  0  0  0  0  0  0  0
  1  2  2  0
  2  3  2  0
  2  4  1  0
  4  5  1  0
  5  6  2  0
  6  7  1  0
  7  8  2  0
  8  9  1  0
  9 10  1  0
  9 11  1  0
  9 12  1  0
  8 13  1  0
 13 14  2  0
  2 15  1  0
 15 16  1  0
 16 17  1  0
 17 18  1  0
 18 19  2  0
 19 20  1  0
 20 21  1  0
 21 22  2  0
 22 23  1  0
 23 24  2  0
 24 25  1  0
 25 26  2  0
 19 27  1  0
 14  5  1  0
 27 15  1  0
 26 18  1  0
 26 21  1  0
  4 28  1  0
  4 29  1  0
  6 30  1  0
  7 31  1  0
 13 32  1  0
 14 33  1  0
 16 34  1  0
 16 35  1  0
 17 36  1  0
 17 37  1  0
 20 38  1  0
 22 39  1  0
 23 40  1  0
 24 41  1  0
 25 42  1  0
 27 43  1  0
 27 44  1  0
M  END
>  <smiles>  (6) 
O=S(=O)(Cc1ccc(C(F)(F)F)cc1)N1CCc2c([nH]c3ccccc23)C1

>  <score_type>  (6) 
oracle

>  <origin>  (6) 
autodockgpu

>  <m_score__min__energy>  (6) 
-7.2300000000000004

>  <m_primary>  (6) 
energy

>  <meeko>  (6) 
{"free_energy": -7.1, "intermolecular_energy": -8.29, "internal_energy": -0.86, "cluster_size": 12, "cluster_id": 1, "rank_in_cluster": 7}

>  <energy>  (6) 
-7.13

>  <cluster_rmsd>  (6) 
1.36

>  <rmsd>  (6) 
271.52

>  <cluster>  (6) 
1

$$$$

     RDKit          3D

 44 47  0  0  0  0  0  0  0  0999 V2000
  137.4370   72.2740  223.0690 O   0  0  0  0  0  0  0  0  0  0  0  0
  138.2500   71.9350  221.8700 S   0  0  0  0  0  0  0  0  0  0  0  0
  137.4460   71.1360  220.8930 O   0  0  0  0  0  0  0  0  0  0  0  0
  139.6830   70.9520  222.3060 C   0  0  0  0  0  0  0  0  0  0  0  0
  139.8210   70.7650  223.7560 C   0  0  0  0  0  0  0  0  0  0  0  0
  140.6900   71.6340  224.4230 C   0  0  0  0  0  0  0  0  0  0  0  0
  140.8620   71.5080  225.7870 C   0  0  0  0  0  0  0  0  0  0  0  0
  140.1820   70.5280  226.4970 C   0  0  0  0  0  0  0  0  0  0  0  0
  140.4420   70.4810  227.9640 C   0  0  0  0  0  0  0  0  0  0  0  0
  141.2230   69.3990  228.3040 F   0  0  0  0  0  0  0  0  0  0  0  0
  139.2570   70.4020  228.6750 F   0  0  0  0  0  0  0  0  0  0  0  0
  141.0680   71.6570  228.3160 F   0  0  0  0  0  0  0  0  0  0  0  0
  139.3200   69.6600  225.8600 C   0  0  0  0  0  0  0  0  0  0  0  0
  139.1490   69.7910  224.4790 C   0  0  0  0  0  0  0  0  0  0  0  0
  138.7810   73.3790  221.1210 N   0  0  0  0  0  0  0  0  0  0  0  0
  137.7760   74.3900  221.0050 C   0  0  0  0  0  0  0  0  0  0  0  0
  137.6850   75.2340  222.2820 C   0  0  0  0  0  0  0  0  0  0  0  0
  138.9880   75.9780  222.3290 C   0  0  0  0  0  0  0  0  0  0  0  0
  140.1100   75.2510  221.9720 C   0  0  0  0  0  0  0  0  0  0  0  0
  141.1710   76.0700  222.0710 N   0  0  0  0  0  0  0  0  0  0  0  0
  140.7440   77.2800  222.4760 C   0  0  0  0  0  0  0  0  0  0  0  0
  141.4510   78.4420  222.7200 C   0  0  0  0  0  0  0  0  0  0  0  0
  140.7390   79.5600  223.1360 C   0  0  0  0  0  0  0  0  0  0  0  0
  139.3550   79.5180  223.3040 C   0  0  0  0  0  0  0  0  0  0  0  0
  138.6590   78.3520  223.0570 C   0  0  0  0  0  0  0  0  0  0  0  0
  139.3620   77.2610  222.6500 C   0  0  0  0  0  0  0  0  0  0  0  0
  140.0630   73.8270  221.5670 C   0  0  0  0  0  0  0  0  0  0  0  0
  139.5902   69.9643  221.8309 H   0  0  0  0  0  0  0  0  0  0  0  0
  140.5753   71.4902  221.9536 H   0  0  0  0  0  0  0  0  0  0  0  0
  141.2323   72.4118  223.8654 H   0  0  0  0  0  0  0  0  0  0  0  0
  141.5439   72.1902  226.3158 H   0  0  0  0  0  0  0  0  0  0  0  0
  138.7810   68.8847  226.4242 H   0  0  0  0  0  0  0  0  0  0  0  0
  138.4664   69.1065  223.9542 H   0  0  0  0  0  0  0  0  0  0  0  0
  138.0245   75.0468  220.1583 H   0  0  0  0  0  0  0  0  0  0  0  0
  136.8054   73.8980  220.8440 H   0  0  0  0  0  0  0  0  0  0  0  0
  136.8384   75.9341  222.2268 H   0  0  0  0  0  0  0  0  0  0  0  0
  137.5188   74.6207  223.1799 H   0  0  0  0  0  0  0  0  0  0  0  0
  142.1720   75.8110  221.8660 H   0  0  0  0  0  0  0  0  0  0  0  0
  142.5425   78.4805  222.5890 H   0  0  0  0  0  0  0  0  0  0  0  0
  141.2778   80.4977  223.3370 H   0  0  0  0  0  0  0  0  0  0  0  0
  138.8159   80.4180  223.6348 H   0  0  0  0  0  0  0  0  0  0  0  0
  137.5675   78.3063  223.1856 H   0  0  0  0  0  0  0  0  0  0  0  0
  140.7825   73.6789  220.7483 H   0  0  0  0  0  0  0  0  0  0  0  0
  140.3049   73.2387  222.4644 H   0  0  0  0  0  0  0  0  0  0  0  0
  1  2  2  0
  2  3  2  0
  2  4  1  0
  4  5  1  0
  5  6  2  0
  6  7  1  0
  7  8  2  0
  8  9  1  0
  9 10  1  0
  9 11  1  0
  9 12  1  0
  8 13  1  0
 13 14  2  0
  2 15  1  0
 15 16  1  0
 16 17  1  0
 17 18  1  0
 18 19  2  0
 19 20  1  0
 20 21  1  0
 21 22  2  0
 22 23  1  0
 23 24  2  0
 24 25  1  0
 25 26  2  0
 19 27  1  0
 14  5  1  0
 27 15  1  0
 26 18  1  0
 26 21  1  0
  4 28  1  0
  4 29  1  0
  6 30  1  0
  7 31  1  0
 13 32  1  0
 14 33  1  0
 16 34  1  0
 16 35  1  0
 17 36  1  0
 17 37  1  0
 20 38  1  0
 22 39  1  0
 23 40  1  0
 24 41  1  0
 25 42  1  0
 27 43  1  0
 27 44  1  0
M  END
>  <smiles>  (7) 
O=S(=O)(Cc1ccc(C(F)(F)F)cc1)N1CCc2c([nH]c3ccccc23)C1

>  <score_type>  (7) 
oracle

>  <origin>  (7) 
autodockgpu

>  <m_score__min__energy>  (7) 
-7.2300000000000004

>  <m_primary>  (7) 
energy

>  <meeko>  (7) 
{"free_energy": -7.15, "intermolecular_energy": -8.35, "internal_energy": -0.91, "cluster_size": 12, "cluster_id": 1, "rank_in_cluster": 3}

>  <energy>  (7) 
-7.1

>  <cluster_rmsd>  (7) 
1.09

>  <rmsd>  (7) 
271.45

>  <cluster>  (7) 
1

$$$$

     RDKit          3D

 44 47  0  0  0  0  0  0  0  0999 V2000
  139.8930   70.8250  220.6670 O   0  0  0  0  0  0  0  0  0  0  0  0
  140.1420   71.8550  221.7110 S   0  0  0  0  0  0  0  0  0  0  0  0
  141.4670   71.6330  222.3700 O   0  0  0  0  0  0  0  0  0  0  0  0
  138.8950   71.7980  222.9970 C   0  0  0  0  0  0  0  0  0  0  0  0
  139.2980   70.9690  224.1400 C   0  0  0  0  0  0  0  0  0  0  0  0
  140.2480   71.5140  225.0090 C   0  0  0  0  0  0  0  0  0  0  0  0
  140.6670   70.7830  226.1030 C   0  0  0  0  0  0  0  0  0  0  0  0
  140.1550   69.5160  226.3430 C   0  0  0  0  0  0  0  0  0  0  0  0
  140.6770   68.8150  227.5500 C   0  0  0  0  0  0  0  0  0  0  0  0
  141.4480   69.6520  228.3260 F   0  0  0  0  0  0  0  0  0  0  0  0
  141.4470   67.7210  227.1940 F   0  0  0  0  0  0  0  0  0  0  0  0
  139.5950   68.3550  228.2670 F   0  0  0  0  0  0  0  0  0  0  0  0
  139.2180   68.9570  225.4980 C   0  0  0  0  0  0  0  0  0  0  0  0
  138.7960   69.7010  224.3930 C   0  0  0  0  0  0  0  0  0  0  0  0
  140.1190   73.4070  220.9910 N   0  0  0  0  0  0  0  0  0  0  0  0
  138.8090   73.9270  220.7460 C   0  0  0  0  0  0  0  0  0  0  0  0
  138.2480   74.6320  221.9870 C   0  0  0  0  0  0  0  0  0  0  0  0
  139.1250   75.8390  222.1560 C   0  0  0  0  0  0  0  0  0  0  0  0
  140.4770   75.6370  221.9380 C   0  0  0  0  0  0  0  0  0  0  0  0
  141.0970   76.8130  222.1320 N   0  0  0  0  0  0  0  0  0  0  0  0
  140.1760   77.7360  222.4620 C   0  0  0  0  0  0  0  0  0  0  0  0
  140.3220   79.0790  222.7530 C   0  0  0  0  0  0  0  0  0  0  0  0
  139.1780   79.8030  223.0660 C   0  0  0  0  0  0  0  0  0  0  0  0
  137.9190   79.2000  223.0860 C   0  0  0  0  0  0  0  0  0  0  0  0
  137.7870   77.8580  222.7920 C   0  0  0  0  0  0  0  0  0  0  0  0
  138.9110   77.1560  222.4870 C   0  0  0  0  0  0  0  0  0  0  0  0
  141.0540   74.3260  221.5620 C   0  0  0  0  0  0  0  0  0  0  0  0
  138.7094   72.8221  223.3530 H   0  0  0  0  0  0  0  0  0  0  0  0
  137.9899   71.3483  222.5628 H   0  0  0  0  0  0  0  0  0  0  0  0
  140.6585   72.5174  224.8227 H   0  0  0  0  0  0  0  0  0  0  0  0
  141.4131   71.2088  226.7901 H   0  0  0  0  0  0  0  0  0  0  0  0
  138.8139   67.9520  225.6893 H   0  0  0  0  0  0  0  0  0  0  0  0
  138.0493   69.2716  223.7088 H   0  0  0  0  0  0  0  0  0  0  0  0
  138.8590   74.6477  219.9164 H   0  0  0  0  0  0  0  0  0  0  0  0
  138.1442   73.0879  220.4932 H   0  0  0  0  0  0  0  0  0  0  0  0
  137.2015   74.9302  221.8261 H   0  0  0  0  0  0  0  0  0  0  0  0
  138.2496   73.9835  222.8755 H   0  0  0  0  0  0  0  0  0  0  0  0
  142.1330   76.9870  222.0400 H   0  0  0  0  0  0  0  0  0  0  0  0
  141.3115   79.5592  222.7374 H   0  0  0  0  0  0  0  0  0  0  0  0
  139.2662   80.8736  223.3029 H   0  0  0  0  0  0  0  0  0  0  0  0
  137.0294   79.7964  223.3369 H   0  0  0  0  0  0  0  0  0  0  0  0
  136.8011   77.3704  222.8041 H   0  0  0  0  0  0  0  0  0  0  0  0
  141.8549   74.5010  220.8286 H   0  0  0  0  0  0  0  0  0  0  0  0
  141.4156   73.8654  222.4932 H   0  0  0  0  0  0  0  0  0  0  0  0
  1  2  2  0
  2  3  2  0
  2  4  1  0
  4  5  1  0
  5  6  2  0
  6  7  1  0
  7  8  2  0
  8  9  1  0
  9 10  1  0
  9 11  1  0
  9 12  1  0
  8 13  1  0
 13 14  2  0
  2 15  1  0
 15 16  1  0
 16 17  1  0
 17 18  1  0
 18 19  2  0
 19 20  1  0
 20 21  1  0
 21 22  2  0
 22 23  1  0
 23 24  2  0
 24 25  1  0
 25 26  2  0
 19 27  1  0
 14  5  1  0
 27 15  1  0
 26 18  1  0
 26 21  1  0
  4 28  1  0
  4 29  1  0
  6 30  1  0
  7 31  1  0
 13 32  1  0
 14 33  1  0
 16 34  1  0
 16 35  1  0
 17 36  1  0
 17 37  1  0
 20 38  1  0
 22 39  1  0
 23 40  1  0
 24 41  1  0
 25 42  1  0
 27 43  1  0
 27 44  1  0
M  END
>  <smiles>  (8) 
O=S(=O)(Cc1ccc(C(F)(F)F)cc1)N1CCc2c([nH]c3ccccc23)C1

>  <score_type>  (8) 
oracle

>  <origin>  (8) 
autodockgpu

>  <m_score__min__energy>  (8) 
-7.2300000000000004

>  <m_primary>  (8) 
energy

>  <meeko>  (8) 
{"free_energy": -6.91, "intermolecular_energy": -8.1, "internal_energy": -0.72, "cluster_size": 12, "cluster_id": 1, "rank_in_cluster": 12}

>  <energy>  (8) 
-7.04

>  <cluster_rmsd>  (8) 
1.23

>  <rmsd>  (8) 
271.35

>  <cluster>  (8) 
1

$$$$

     RDKit          3D

 44 47  0  0  0  0  0  0  0  0999 V2000
  135.8520   68.7050  225.2730 O   0  0  0  0  0  0  0  0  0  0  0  0
  136.0570   69.0630  223.8430 S   0  0  0  0  0  0  0  0  0  0  0  0
  135.5340   67.9860  222.9460 O   0  0  0  0  0  0  0  0  0  0  0  0
  137.7960   69.2710  223.4640 C   0  0  0  0  0  0  0  0  0  0  0  0
  138.5820   69.6990  224.6280 C   0  0  0  0  0  0  0  0  0  0  0  0
  139.1960   70.9520  224.5470 C   0  0  0  0  0  0  0  0  0  0  0  0
  139.9490   71.4100  225.6100 C   0  0  0  0  0  0  0  0  0  0  0  0
  140.1010   70.6380  226.7520 C   0  0  0  0  0  0  0  0  0  0  0  0
  140.9330   71.2280  227.8380 C   0  0  0  0  0  0  0  0  0  0  0  0
  141.6070   70.2550  228.5440 F   0  0  0  0  0  0  0  0  0  0  0  0
  140.1530   71.9470  228.7270 F   0  0  0  0  0  0  0  0  0  0  0  0
  141.8240   72.1020  227.2540 F   0  0  0  0  0  0  0  0  0  0  0  0
  139.5040   69.3980  226.8550 C   0  0  0  0  0  0  0  0  0  0  0  0
  138.7430   68.9380  225.7770 C   0  0  0  0  0  0  0  0  0  0  0  0
  135.2420   70.5290  223.5050 N   0  0  0  0  0  0  0  0  0  0  0  0
  133.8690   70.5500  223.9070 C   0  0  0  0  0  0  0  0  0  0  0  0
  133.7250   70.9550  225.3790 C   0  0  0  0  0  0  0  0  0  0  0  0
  134.1670   72.3900  225.4130 C   0  0  0  0  0  0  0  0  0  0  0  0
  135.2720   72.6990  224.6410 C   0  0  0  0  0  0  0  0  0  0  0  0
  135.5180   74.0110  224.7930 N   0  0  0  0  0  0  0  0  0  0  0  0
  134.6020   74.5250  225.6340 C   0  0  0  0  0  0  0  0  0  0  0  0
  134.4390   75.8170  226.0950 C   0  0  0  0  0  0  0  0  0  0  0  0
  133.3880   76.0660  226.9700 C   0  0  0  0  0  0  0  0  0  0  0  0
  132.5230   75.0490  227.3740 C   0  0  0  0  0  0  0  0  0  0  0  0
  132.6960   73.7620  226.9050 C   0  0  0  0  0  0  0  0  0  0  0  0
  133.7260   73.5260  226.0490 C   0  0  0  0  0  0  0  0  0  0  0  0
  135.9980   71.7010  223.8210 C   0  0  0  0  0  0  0  0  0  0  0  0
  138.1949   68.3114  223.1035 H   0  0  0  0  0  0  0  0  0  0  0  0
  137.8779   70.0581  222.7000 H   0  0  0  0  0  0  0  0  0  0  0  0
  139.0803   71.5685  223.6434 H   0  0  0  0  0  0  0  0  0  0  0  0
  140.4327   72.3962  225.5504 H   0  0  0  0  0  0  0  0  0  0  0  0
  139.6241   68.7876  227.7622 H   0  0  0  0  0  0  0  0  0  0  0  0
  138.2612   67.9512  225.8407 H   0  0  0  0  0  0  0  0  0  0  0  0
  133.3237   71.2723  223.2817 H   0  0  0  0  0  0  0  0  0  0  0  0
  133.4558   69.5381  223.7835 H   0  0  0  0  0  0  0  0  0  0  0  0
  132.6798   70.8611  225.7087 H   0  0  0  0  0  0  0  0  0  0  0  0
  134.3173   70.3164  226.0509 H   0  0  0  0  0  0  0  0  0  0  0  0
  136.2980   74.5510  224.3320 H   0  0  0  0  0  0  0  0  0  0  0  0
  135.1187   76.6224  225.7799 H   0  0  0  0  0  0  0  0  0  0  0  0
  133.2353   77.0863  227.3518 H   0  0  0  0  0  0  0  0  0  0  0  0
  131.7001   75.2732  228.0687 H   0  0  0  0  0  0  0  0  0  0  0  0
  132.0203   72.9511  227.2147 H   0  0  0  0  0  0  0  0  0  0  0  0
  136.2954   72.1825  222.8777 H   0  0  0  0  0  0  0  0  0  0  0  0
  136.8558   71.3666  224.4229 H   0  0  0  0  0  0  0  0  0  0  0  0
  1  2  2  0
  2  3  2  0
  2  4  1  0
  4  5  1  0
  5  6  2  0
  6  7  1  0
  7  8  2  0
  8  9  1  0
  9 10  1  0
  9 11  1  0
  9 12  1  0
  8 13  1  0
 13 14  2  0
  2 15  1  0
 15 16  1  0
 16 17  1  0
 17 18  1  0
 18 19  2  0
 19 20  1  0
 20 21  1  0
 21 22  2  0
 22 23  1  0
 23 24  2  0
 24 25  1  0
 25 26  2  0
 19 27  1  0
 14  5  1  0
 27 15  1  0
 26 18  1  0
 26 21  1  0
  4 28  1  0
  4 29  1  0
  6 30  1  0
  7 31  1  0
 13 32  1  0
 14 33  1  0
 16 34  1  0
 16 35  1  0
 17 36  1  0
 17 37  1  0
 20 38  1  0
 22 39  1  0
 23 40  1  0
 24 41  1  0
 25 42  1  0
 27 43  1  0
 27 44  1  0
M  END
>  <smiles>  (9) 
O=S(=O)(Cc1ccc(C(F)(F)F)cc1)N1CCc2c([nH]c3ccccc23)C1

>  <score_type>  (9) 
oracle

>  <origin>  (9) 
autodockgpu

>  <m_score__min__energy>  (9) 
-7.2300000000000004

>  <m_primary>  (9) 
energy

>  <meeko>  (9) 
{"free_energy": -7.07, "intermolecular_energy": -8.26, "internal_energy": -0.95, "cluster_size": 5, "cluster_id": 2, "rank_in_cluster": 4}

>  <energy>  (9) 
-7.04

>  <cluster_rmsd>  (9) 
1.48

>  <rmsd>  (9) 
271.42

>  <cluster>  (9) 
1

$$$$

     RDKit          3D

 44 47  0  0  0  0  0  0  0  0999 V2000
  140.2730   72.0200  220.0680 O   0  0  0  0  0  0  0  0  0  0  0  0
  140.3530   72.9500  221.2260 S   0  0  0  0  0  0  0  0  0  0  0  0
  141.6490   72.7810  221.9540 O   0  0  0  0  0  0  0  0  0  0  0  0
  139.0390   72.6420  222.4050 C   0  0  0  0  0  0  0  0  0  0  0  0
  139.4030   71.6330  223.4070 C   0  0  0  0  0  0  0  0  0  0  0  0
  138.7220   70.4130  223.3490 C   0  0  0  0  0  0  0  0  0  0  0  0
  139.0200   69.4230  224.2640 C   0  0  0  0  0  0  0  0  0  0  0  0
  139.9860   69.6310  225.2390 C   0  0  0  0  0  0  0  0  0  0  0  0
  140.2280   68.4980  226.1760 C   0  0  0  0  0  0  0  0  0  0  0  0
  141.5520   68.1180  226.1780 F   0  0  0  0  0  0  0  0  0  0  0  0
  139.4620   67.3970  225.8310 F   0  0  0  0  0  0  0  0  0  0  0  0
  139.8410   68.9040  227.4340 F   0  0  0  0  0  0  0  0  0  0  0  0
  140.6700   70.8270  225.3170 C   0  0  0  0  0  0  0  0  0  0  0  0
  140.3650   71.8260  224.3880 C   0  0  0  0  0  0  0  0  0  0  0  0
  140.2220   74.5620  220.6660 N   0  0  0  0  0  0  0  0  0  0  0  0
  138.9580   75.1790  220.9270 C   0  0  0  0  0  0  0  0  0  0  0  0
  138.9180   75.7960  222.3310 C   0  0  0  0  0  0  0  0  0  0  0  0
  139.9030   76.9280  222.2670 C   0  0  0  0  0  0  0  0  0  0  0  0
  141.0760   76.6680  221.5800 C   0  0  0  0  0  0  0  0  0  0  0  0
  141.8260   77.7820  221.6260 N   0  0  0  0  0  0  0  0  0  0  0  0
  141.1580   78.7220  222.3170 C   0  0  0  0  0  0  0  0  0  0  0  0
  141.5120   80.0210  222.6310 C   0  0  0  0  0  0  0  0  0  0  0  0
  140.6110   80.7790  223.3700 C   0  0  0  0  0  0  0  0  0  0  0  0
  139.3870   80.2520  223.7850 C   0  0  0  0  0  0  0  0  0  0  0  0
  139.0450   78.9530  223.4640 C   0  0  0  0  0  0  0  0  0  0  0  0
  139.9310   78.2180  222.7410 C   0  0  0  0  0  0  0  0  0  0  0  0
  141.3730   75.3660  220.9380 C   0  0  0  0  0  0  0  0  0  0  0  0
  138.8029   73.5833  222.9229 H   0  0  0  0  0  0  0  0  0  0  0  0
  138.1734   72.2579  221.8454 H   0  0  0  0  0  0  0  0  0  0  0  0
  137.9543   70.2433  222.5797 H   0  0  0  0  0  0  0  0  0  0  0  0
  138.4876   68.4614  224.2201 H   0  0  0  0  0  0  0  0  0  0  0  0
  141.4353   70.9900  226.0901 H   0  0  0  0  0  0  0  0  0  0  0  0
  140.8995   72.7862  224.4358 H   0  0  0  0  0  0  0  0  0  0  0  0
  138.7851   75.9704  220.1828 H   0  0  0  0  0  0  0  0  0  0  0  0
  138.1759   74.4081  220.8642 H   0  0  0  0  0  0  0  0  0  0  0  0
  137.9099   76.1694  222.5640 H   0  0  0  0  0  0  0  0  0  0  0  0
  139.1653   75.0677  223.1174 H   0  0  0  0  0  0  0  0  0  0  0  0
  142.7800   77.9020  221.1930 H   0  0  0  0  0  0  0  0  0  0  0  0
  142.4754   80.4412  222.3066 H   0  0  0  0  0  0  0  0  0  0  0  0
  140.8680   81.8157  223.6332 H   0  0  0  0  0  0  0  0  0  0  0  0
  138.6925   80.8733  224.3696 H   0  0  0  0  0  0  0  0  0  0  0  0
  138.0834   78.5255  223.7842 H   0  0  0  0  0  0  0  0  0  0  0  0
  141.8878   75.5620  219.9859 H   0  0  0  0  0  0  0  0  0  0  0  0
  141.9889   74.7989  221.6515 H   0  0  0  0  0  0  0  0  0  0  0  0
  1  2  2  0
  2  3  2  0
  2  4  1  0
  4  5  1  0
  5  6  2  0
  6  7  1  0
  7  8  2  0
  8  9  1  0
  9 10  1  0
  9 11  1  0
  9 12  1  0
  8 13  1  0
 13 14  2  0
  2 15  1  0
 15 16  1  0
 16 17  1  0
 17 18  1  0
 18 19  2  0
 19 20  1  0
 20 21  1  0
 21 22  2  0
 22 23  1  0
 23 24  2  0
 24 25  1  0
 25 26  2  0
 19 27  1  0
 14  5  1  0
 27 15  1  0
 26 18  1  0
 26 21  1  0
  4 28  1  0
  4 29  1  0
  6 30  1  0
  7 31  1  0
 13 32  1  0
 14 33  1  0
 16 34  1  0
 16 35  1  0
 17 36  1  0
 17 37  1  0
 20 38  1  0
 22 39  1  0
 23 40  1  0
 24 41  1  0
 25 42  1  0
 27 43  1  0
 27 44  1  0
M  END
>  <smiles>  (10) 
O=S(=O)(Cc1ccc(C(F)(F)F)cc1)N1CCc2c([nH]c3ccccc23)C1

>  <score_type>  (10) 
oracle

>  <origin>  (10) 
autodockgpu

>  <m_score__min__energy>  (10) 
-7.2300000000000004

>  <m_primary>  (10) 
energy

>  <meeko>  (10) 
{"free_energy": -6.96, "intermolecular_energy": -8.15, "internal_energy": -0.72, "cluster_size": 12, "cluster_id": 1, "rank_in_cluster": 11}

>  <energy>  (10) 
-6.97

>  <cluster_rmsd>  (10) 
1.46

>  <rmsd>  (10) 
271.44

>  <cluster>  (10) 
1

$$$$

     RDKit          3D

 44 47  0  0  0  0  0  0  0  0999 V2000
  135.7300   68.8330  225.3410 O   0  0  0  0  0  0  0  0  0  0  0  0
  135.8830   69.1220  223.8900 S   0  0  0  0  0  0  0  0  0  0  0  0
  135.2590   68.0410  223.0650 O   0  0  0  0  0  0  0  0  0  0  0  0
  137.6090   69.2180  223.4200 C   0  0  0  0  0  0  0  0  0  0  0  0
  138.4500   69.8080  224.4700 C   0  0  0  0  0  0  0  0  0  0  0  0
  138.4960   69.1340  225.6930 C   0  0  0  0  0  0  0  0  0  0  0  0
  139.2690   69.6400  226.7200 C   0  0  0  0  0  0  0  0  0  0  0  0
  139.9960   70.8090  226.5450 C   0  0  0  0  0  0  0  0  0  0  0  0
  140.7950   71.2650  227.7170 C   0  0  0  0  0  0  0  0  0  0  0  0
  139.9950   71.8290  228.6860 F   0  0  0  0  0  0  0  0  0  0  0  0
  141.7420   72.2010  227.3370 F   0  0  0  0  0  0  0  0  0  0  0  0
  141.4620   70.1700  228.2210 F   0  0  0  0  0  0  0  0  0  0  0  0
  139.9660   71.4910  225.3470 C   0  0  0  0  0  0  0  0  0  0  0  0
  139.1820   70.9760  224.3110 C   0  0  0  0  0  0  0  0  0  0  0  0
  135.1320   70.6170  223.5300 N   0  0  0  0  0  0  0  0  0  0  0  0
  133.7420   70.6770  223.8640 C   0  0  0  0  0  0  0  0  0  0  0  0
  133.5390   71.0710  225.3320 C   0  0  0  0  0  0  0  0  0  0  0  0
  134.0220   72.4910  225.4050 C   0  0  0  0  0  0  0  0  0  0  0  0
  135.1740   72.7720  224.6910 C   0  0  0  0  0  0  0  0  0  0  0  0
  135.4530   74.0750  224.8710 N   0  0  0  0  0  0  0  0  0  0  0  0
  134.5130   74.6090  225.6720 C   0  0  0  0  0  0  0  0  0  0  0  0
  134.3680   75.9010  226.1400 C   0  0  0  0  0  0  0  0  0  0  0  0
  133.2840   76.1740  226.9660 C   0  0  0  0  0  0  0  0  0  0  0  0
  132.3670   75.1800  227.3140 C   0  0  0  0  0  0  0  0  0  0  0  0
  132.5230   73.8940  226.8390 C   0  0  0  0  0  0  0  0  0  0  0  0
  133.5860   73.6340  226.0310 C   0  0  0  0  0  0  0  0  0  0  0  0
  135.9080   71.7600  223.8970 C   0  0  0  0  0  0  0  0  0  0  0  0
  137.9728   68.2020  223.2070 H   0  0  0  0  0  0  0  0  0  0  0  0
  137.6770   69.8680  222.5352 H   0  0  0  0  0  0  0  0  0  0  0  0
  137.9210   68.2074  225.8370 H   0  0  0  0  0  0  0  0  0  0  0  0
  139.3086   69.1121  227.6842 H   0  0  0  0  0  0  0  0  0  0  0  0
  140.5443   72.4167  225.2102 H   0  0  0  0  0  0  0  0  0  0  0  0
  139.1444   71.5080  223.3489 H   0  0  0  0  0  0  0  0  0  0  0  0
  133.2508   71.4226  223.2215 H   0  0  0  0  0  0  0  0  0  0  0  0
  133.3037   69.6802  223.7079 H   0  0  0  0  0  0  0  0  0  0  0  0
  132.4766   71.0060  225.6096 H   0  0  0  0  0  0  0  0  0  0  0  0
  134.0785   70.4074  226.0238 H   0  0  0  0  0  0  0  0  0  0  0  0
  136.2710   74.5940  224.4560 H   0  0  0  0  0  0  0  0  0  0  0  0
  135.0870   76.6878  225.8678 H   0  0  0  0  0  0  0  0  0  0  0  0
  133.1456   77.1941  227.3536 H   0  0  0  0  0  0  0  0  0  0  0  0
  131.5174   75.4231  227.9690 H   0  0  0  0  0  0  0  0  0  0  0  0
  131.8082   73.1017  227.1061 H   0  0  0  0  0  0  0  0  0  0  0  0
  136.2677   72.2412  222.9756 H   0  0  0  0  0  0  0  0  0  0  0  0
  136.7235   71.3919  224.5369 H   0  0  0  0  0  0  0  0  0  0  0  0
  1  2  2  0
  2  3  2  0
  2  4  1  0
  4  5  1  0
  5  6  2  0
  6  7  1  0
  7  8  2  0
  8  9  1  0
  9 10  1  0
  9 11  1  0
  9 12  1  0
  8 13  1  0
 13 14  2  0
  2 15  1  0
 15 16  1  0
 16 17  1  0
 17 18  1  0
 18 19  2  0
 19 20  1  0
 20 21  1  0
 21 22  2  0
 22 23  1  0
 23 24  2  0
 24 25  1  0
 25 26  2  0
 19 27  1  0
 14  5  1  0
 27 15  1  0
 26 18  1  0
 26 21  1  0
  4 28  1  0
  4 29  1  0
  6 30  1  0
  7 31  1  0
 13 32  1  0
 14 33  1  0
 16 34  1  0
 16 35  1  0
 17 36  1  0
 17 37  1  0
 20 38  1  0
 22 39  1  0
 23 40  1  0
 24 41  1  0
 25 42  1  0
 27 43  1  0
 27 44  1  0
M  END
>  <smiles>  (11) 
O=S(=O)(Cc1ccc(C(F)(F)F)cc1)N1CCc2c([nH]c3ccccc23)C1

>  <score_type>  (11) 
oracle

>  <origin>  (11) 
autodockgpu

>  <m_score__min__energy>  (11) 
-7.2300000000000004

>  <m_primary>  (11) 
energy

>  <meeko>  (11) 
{"free_energy": -7.14, "intermolecular_energy": -8.33, "internal_energy": -0.91, "cluster_size": 5, "cluster_id": 2, "rank_in_cluster": 1}

>  <energy>  (11) 
-6.96

>  <cluster_rmsd>  (11) 
1.07

>  <rmsd>  (11) 
271.34

>  <cluster>  (11) 
1

$$$$

     RDKit          3D

 44 47  0  0  0  0  0  0  0  0999 V2000
  140.3200   72.1030  220.0400 O   0  0  0  0  0  0  0  0  0  0  0  0
  140.3160   73.0350  221.1990 S   0  0  0  0  0  0  0  0  0  0  0  0
  141.5950   72.9300  221.9680 O   0  0  0  0  0  0  0  0  0  0  0  0
  138.9820   72.6620  222.3350 C   0  0  0  0  0  0  0  0  0  0  0  0
  139.3640   71.6700  223.3490 C   0  0  0  0  0  0  0  0  0  0  0  0
  138.6920   70.4440  223.3150 C   0  0  0  0  0  0  0  0  0  0  0  0
  139.0060   69.4710  224.2430 C   0  0  0  0  0  0  0  0  0  0  0  0
  139.9790   69.7010  225.2050 C   0  0  0  0  0  0  0  0  0  0  0  0
  140.2380   68.5840  226.1560 C   0  0  0  0  0  0  0  0  0  0  0  0
  139.5890   67.4310  225.7710 F   0  0  0  0  0  0  0  0  0  0  0  0
  139.8180   68.9120  227.4340 F   0  0  0  0  0  0  0  0  0  0  0  0
  141.5990   68.3780  226.1990 F   0  0  0  0  0  0  0  0  0  0  0  0
  140.6540   70.9030  225.2580 C   0  0  0  0  0  0  0  0  0  0  0  0
  140.3330   71.8850  224.3180 C   0  0  0  0  0  0  0  0  0  0  0  0
  140.1240   74.6390  220.6340 N   0  0  0  0  0  0  0  0  0  0  0  0
  139.0560   75.3620  221.2540 C   0  0  0  0  0  0  0  0  0  0  0  0
  139.5120   76.0110  222.5670 C   0  0  0  0  0  0  0  0  0  0  0  0
  140.4990   77.0590  222.1390 C   0  0  0  0  0  0  0  0  0  0  0  0
  141.3680   76.6900  221.1280 C   0  0  0  0  0  0  0  0  0  0  0  0
  142.1680   77.7410  220.8790 N   0  0  0  0  0  0  0  0  0  0  0  0
  141.8240   78.7470  221.7020 C   0  0  0  0  0  0  0  0  0  0  0  0
  142.3480   80.0200  221.8250 C   0  0  0  0  0  0  0  0  0  0  0  0
  141.7870   80.8650  222.7750 C   0  0  0  0  0  0  0  0  0  0  0  0
  140.7280   80.4470  223.5820 C   0  0  0  0  0  0  0  0  0  0  0  0
  140.2120   79.1740  223.4490 C   0  0  0  0  0  0  0  0  0  0  0  0
  140.7660   78.3530  222.5170 C   0  0  0  0  0  0  0  0  0  0  0  0
  141.3530   75.3540  220.4870 C   0  0  0  0  0  0  0  0  0  0  0  0
  138.6836   73.5899  222.8448 H   0  0  0  0  0  0  0  0  0  0  0  0
  138.1541   72.2370  221.7485 H   0  0  0  0  0  0  0  0  0  0  0  0
  137.9193   70.2563  222.5549 H   0  0  0  0  0  0  0  0  0  0  0  0
  138.4802   68.5051  224.2194 H   0  0  0  0  0  0  0  0  0  0  0  0
  141.4254   71.0835  226.0211 H   0  0  0  0  0  0  0  0  0  0  0  0
  140.8602   72.8500  224.3468 H   0  0  0  0  0  0  0  0  0  0  0  0
  138.7091   76.1480  220.5671 H   0  0  0  0  0  0  0  0  0  0  0  0
  138.2431   74.6560  221.4792 H   0  0  0  0  0  0  0  0  0  0  0  0
  138.6605   76.4687  223.0919 H   0  0  0  0  0  0  0  0  0  0  0  0
  139.9485   75.2829  223.2666 H   0  0  0  0  0  0  0  0  0  0  0  0
  142.9380   77.7740  220.1600 H   0  0  0  0  0  0  0  0  0  0  0  0
  143.1827   80.3537  221.1910 H   0  0  0  0  0  0  0  0  0  0  0  0
  142.1856   81.8834  222.8932 H   0  0  0  0  0  0  0  0  0  0  0  0
  140.3027   81.1352  224.3273 H   0  0  0  0  0  0  0  0  0  0  0  0
  139.3768   78.8332  224.0786 H   0  0  0  0  0  0  0  0  0  0  0  0
  141.5468   75.4865  219.4123 H   0  0  0  0  0  0  0  0  0  0  0  0
  142.1250   74.7558  220.9932 H   0  0  0  0  0  0  0  0  0  0  0  0
  1  2  2  0
  2  3  2  0
  2  4  1  0
  4  5  1  0
  5  6  2  0
  6  7  1  0
  7  8  2  0
  8  9  1  0
  9 10  1  0
  9 11  1  0
  9 12  1  0
  8 13  1  0
 13 14  2  0
  2 15  1  0
 15 16  1  0
 16 17  1  0
 17 18  1  0
 18 19  2  0
 19 20  1  0
 20 21  1  0
 21 22  2  0
 22 23  1  0
 23 24  2  0
 24 25  1  0
 25 26  2  0
 19 27  1  0
 14  5  1  0
 27 15  1  0
 26 18  1  0
 26 21  1  0
  4 28  1  0
  4 29  1  0
  6 30  1  0
  7 31  1  0
 13 32  1  0
 14 33  1  0
 16 34  1  0
 16 35  1  0
 17 36  1  0
 17 37  1  0
 20 38  1  0
 22 39  1  0
 23 40  1  0
 24 41  1  0
 25 42  1  0
 27 43  1  0
 27 44  1  0
M  END
>  <smiles>  (12) 
O=S(=O)(Cc1ccc(C(F)(F)F)cc1)N1CCc2c([nH]c3ccccc23)C1

>  <score_type>  (12) 
oracle

>  <origin>  (12) 
autodockgpu

>  <m_score__min__energy>  (12) 
-7.2300000000000004

>  <m_primary>  (12) 
energy

>  <meeko>  (12) 
{"free_energy": -7.04, "intermolecular_energy": -8.23, "internal_energy": -0.74, "cluster_size": 12, "cluster_id": 1, "rank_in_cluster": 8}

>  <energy>  (12) 
-6.91

>  <cluster_rmsd>  (12) 
1.16

>  <rmsd>  (12) 
271.37

>  <cluster>  (12) 
1

$$$$

     RDKit          3D

 44 47  0  0  0  0  0  0  0  0999 V2000
  140.1050   73.7750  222.3530 O   0  0  0  0  0  0  0  0  0  0  0  0
  139.4930   73.9470  221.0080 S   0  0  0  0  0  0  0  0  0  0  0  0
  138.0460   73.5650  221.0310 O   0  0  0  0  0  0  0  0  0  0  0  0
  140.2950   72.9100  219.7870 C   0  0  0  0  0  0  0  0  0  0  0  0
  141.7440   72.8030  219.9980 C   0  0  0  0  0  0  0  0  0  0  0  0
  142.5460   73.7450  219.3460 C   0  0  0  0  0  0  0  0  0  0  0  0
  143.9170   73.6970  219.5050 C   0  0  0  0  0  0  0  0  0  0  0  0
  144.5010   72.7240  220.3040 C   0  0  0  0  0  0  0  0  0  0  0  0
  145.9870   72.7640  220.4060 C   0  0  0  0  0  0  0  0  0  0  0  0
  146.5480   71.5460  220.0900 F   0  0  0  0  0  0  0  0  0  0  0  0
  146.3870   73.1070  221.6860 F   0  0  0  0  0  0  0  0  0  0  0  0
  146.4390   73.7400  219.5460 F   0  0  0  0  0  0  0  0  0  0  0  0
  143.7300   71.7840  220.9570 C   0  0  0  0  0  0  0  0  0  0  0  0
  142.3430   71.8360  220.7920 C   0  0  0  0  0  0  0  0  0  0  0  0
  139.6410   75.5810  220.5230 N   0  0  0  0  0  0  0  0  0  0  0  0
  138.6440   76.4520  221.0650 C   0  0  0  0  0  0  0  0  0  0  0  0
  139.0430   76.9590  222.4570 C   0  0  0  0  0  0  0  0  0  0  0  0
  140.2360   77.8350  222.2050 C   0  0  0  0  0  0  0  0  0  0  0  0
  141.1450   77.3620  221.2740 C   0  0  0  0  0  0  0  0  0  0  0  0
  142.1340   78.2680  221.1800 N   0  0  0  0  0  0  0  0  0  0  0  0
  141.8680   79.2840  222.0190 C   0  0  0  0  0  0  0  0  0  0  0  0
  142.5800   80.4400  222.2760 C   0  0  0  0  0  0  0  0  0  0  0  0
  142.0600   81.3300  223.2080 C   0  0  0  0  0  0  0  0  0  0  0  0
  140.8580   81.0700  223.8670 C   0  0  0  0  0  0  0  0  0  0  0  0
  140.1550   79.9120  223.6010 C   0  0  0  0  0  0  0  0  0  0  0  0
  140.6700   79.0460  222.6880 C   0  0  0  0  0  0  0  0  0  0  0  0
  140.9820   76.0770  220.5560 C   0  0  0  0  0  0  0  0  0  0  0  0
  139.8566   71.9025  219.8385 H   0  0  0  0  0  0  0  0  0  0  0  0
  140.1361   73.3731  218.8020 H   0  0  0  0  0  0  0  0  0  0  0  0
  142.0884   74.5182  218.7114 H   0  0  0  0  0  0  0  0  0  0  0  0
  144.5515   74.4362  218.9941 H   0  0  0  0  0  0  0  0  0  0  0  0
  144.1947   71.0142  221.5906 H   0  0  0  0  0  0  0  0  0  0  0  0
  141.7124   71.0936  221.3031 H   0  0  0  0  0  0  0  0  0  0  0  0
  138.5171   77.3134  220.3928 H   0  0  0  0  0  0  0  0  0  0  0  0
  137.7039   75.8883  221.1574 H   0  0  0  0  0  0  0  0  0  0  0  0
  138.2242   77.5367  222.9107 H   0  0  0  0  0  0  0  0  0  0  0  0
  139.2641   76.1386  223.1556 H   0  0  0  0  0  0  0  0  0  0  0  0
  142.9780   78.1960  220.5530 H   0  0  0  0  0  0  0  0  0  0  0  0
  143.5283   80.6491  221.7593 H   0  0  0  0  0  0  0  0  0  0  0  0
  142.6070   82.2580  223.4306 H   0  0  0  0  0  0  0  0  0  0  0  0
  140.4689   81.7906  224.6015 H   0  0  0  0  0  0  0  0  0  0  0  0
  139.2056   79.6962  224.1129 H   0  0  0  0  0  0  0  0  0  0  0  0
  141.3218   76.2174  219.5193 H   0  0  0  0  0  0  0  0  0  0  0  0
  141.5766   75.3336  221.1071 H   0  0  0  0  0  0  0  0  0  0  0  0
  1  2  2  0
  2  3  2  0
  2  4  1  0
  4  5  1  0
  5  6  2  0
  6  7  1  0
  7  8  2  0
  8  9  1  0
  9 10  1  0
  9 11  1  0
  9 12  1  0
  8 13  1  0
 13 14  2  0
  2 15  1  0
 15 16  1  0
 16 17  1  0
 17 18  1  0
 18 19  2  0
 19 20  1  0
 20 21  1  0
 21 22  2  0
 22 23  1  0
 23 24  2  0
 24 25  1  0
 25 26  2  0
 19 27  1  0
 14  5  1  0
 27 15  1  0
 26 18  1  0
 26 21  1  0
  4 28  1  0
  4 29  1  0
  6 30  1  0
  7 31  1  0
 13 32  1  0
 14 33  1  0
 16 34  1  0
 16 35  1  0
 17 36  1  0
 17 37  1  0
 20 38  1  0
 22 39  1  0
 23 40  1  0
 24 41  1  0
 25 42  1  0
 27 43  1  0
 27 44  1  0
M  END
>  <smiles>  (13) 
O=S(=O)(Cc1ccc(C(F)(F)F)cc1)N1CCc2c([nH]c3ccccc23)C1

>  <score_type>  (13) 
oracle

>  <origin>  (13) 
autodockgpu

>  <m_score__min__energy>  (13) 
-7.2300000000000004

>  <m_primary>  (13) 
energy

>  <meeko>  (13) 
{"free_energy": -6.93, "intermolecular_energy": -8.12, "internal_energy": -0.82, "cluster_size": 2, "cluster_id": 3, "rank_in_cluster": 1}

>  <energy>  (13) 
-7.14

>  <cluster_rmsd>  (13) 
0.0

>  <rmsd>  (13) 
270.91

>  <cluster>  (13) 
2

$$$$

     RDKit          3D

 44 47  0  0  0  0  0  0  0  0999 V2000
  137.4890   72.2710  223.0900 O   0  0  0  0  0  0  0  0  0  0  0  0
  138.3150   71.9440  221.8970 S   0  0  0  0  0  0  0  0  0  0  0  0
  137.5320   71.1270  220.9170 O   0  0  0  0  0  0  0  0  0  0  0  0
  139.7640   70.9900  222.3450 C   0  0  0  0  0  0  0  0  0  0  0  0
  139.9340   70.8680  223.7980 C   0  0  0  0  0  0  0  0  0  0  0  0
  140.7010   71.8540  224.4270 C   0  0  0  0  0  0  0  0  0  0  0  0
  140.8970   71.7940  225.7920 C   0  0  0  0  0  0  0  0  0  0  0  0
  140.3420   70.7650  226.5410 C   0  0  0  0  0  0  0  0  0  0  0  0
  140.6170   70.7970  228.0050 C   0  0  0  0  0  0  0  0  0  0  0  0
  139.4570   70.9350  228.7340 F   0  0  0  0  0  0  0  0  0  0  0  0
  141.4600   71.8470  228.3290 F   0  0  0  0  0  0  0  0  0  0  0  0
  141.2580   69.6240  228.3360 F   0  0  0  0  0  0  0  0  0  0  0  0
  139.5830   69.7810  225.9420 C   0  0  0  0  0  0  0  0  0  0  0  0
  139.3870   69.8460  224.5600 C   0  0  0  0  0  0  0  0  0  0  0  0
  138.8240   73.3960  221.1470 N   0  0  0  0  0  0  0  0  0  0  0  0
  137.8060   74.3950  221.0400 C   0  0  0  0  0  0  0  0  0  0  0  0
  137.7140   75.2350  222.3200 C   0  0  0  0  0  0  0  0  0  0  0  0
  139.0090   75.9950  222.3590 C   0  0  0  0  0  0  0  0  0  0  0  0
  140.1370   75.2820  221.9930 C   0  0  0  0  0  0  0  0  0  0  0  0
  141.1890   76.1130  222.0870 N   0  0  0  0  0  0  0  0  0  0  0  0
  140.7500   77.3170  222.4970 C   0  0  0  0  0  0  0  0  0  0  0  0
  141.4450   78.4860  222.7380 C   0  0  0  0  0  0  0  0  0  0  0  0
  140.7230   79.5960  223.1610 C   0  0  0  0  0  0  0  0  0  0  0  0
  139.3400   79.5370  223.3390 C   0  0  0  0  0  0  0  0  0  0  0  0
  138.6570   78.3630  223.0950 C   0  0  0  0  0  0  0  0  0  0  0  0
  139.3700   77.2810  222.6810 C   0  0  0  0  0  0  0  0  0  0  0  0
  140.1040   73.8580  221.5850 C   0  0  0  0  0  0  0  0  0  0  0  0
  139.6682   69.9817  221.9159 H   0  0  0  0  0  0  0  0  0  0  0  0
  140.6448   71.5177  221.9502 H   0  0  0  0  0  0  0  0  0  0  0  0
  141.1445   72.6708  223.8386 H   0  0  0  0  0  0  0  0  0  0  0  0
  141.4983   72.5683  226.2909 H   0  0  0  0  0  0  0  0  0  0  0  0
  139.1436   68.9666  226.5367 H   0  0  0  0  0  0  0  0  0  0  0  0
  138.7854   69.0693  224.0652 H   0  0  0  0  0  0  0  0  0  0  0  0
  138.0406   75.0566  220.1931 H   0  0  0  0  0  0  0  0  0  0  0  0
  136.8403   73.8919  220.8843 H   0  0  0  0  0  0  0  0  0  0  0  0
  136.8586   75.9249  222.2727 H   0  0  0  0  0  0  0  0  0  0  0  0
  137.5617   74.6178  223.2177 H   0  0  0  0  0  0  0  0  0  0  0  0
  142.1910   75.8670  221.8740 H   0  0  0  0  0  0  0  0  0  0  0  0
  142.5351   78.5370  222.5996 H   0  0  0  0  0  0  0  0  0  0  0  0
  141.2522   80.5397  223.3594 H   0  0  0  0  0  0  0  0  0  0  0  0
  138.7923   80.4298  223.6751 H   0  0  0  0  0  0  0  0  0  0  0  0
  137.5671   78.3038  223.2314 H   0  0  0  0  0  0  0  0  0  0  0  0
  140.8194   73.7201  220.7609 H   0  0  0  0  0  0  0  0  0  0  0  0
  140.3593   73.2705  222.4793 H   0  0  0  0  0  0  0  0  0  0  0  0
  1  2  2  0
  2  3  2  0
  2  4  1  0
  4  5  1  0
  5  6  2  0
  6  7  1  0
  7  8  2  0
  8  9  1  0
  9 10  1  0
  9 11  1  0
  9 12  1  0
  8 13  1  0
 13 14  2  0
  2 15  1  0
 15 16  1  0
 16 17  1  0
 17 18  1  0
 18 19  2  0
 19 20  1  0
 20 21  1  0
 21 22  2  0
 22 23  1  0
 23 24  2  0
 24 25  1  0
 25 26  2  0
 19 27  1  0
 14  5  1  0
 27 15  1  0
 26 18  1  0
 26 21  1  0
  4 28  1  0
  4 29  1  0
  6 30  1  0
  7 31  1  0
 13 32  1  0
 14 33  1  0
 16 34  1  0
 16 35  1  0
 17 36  1  0
 17 37  1  0
 20 38  1  0
 22 39  1  0
 23 40  1  0
 24 41  1  0
 25 42  1  0
 27 43  1  0
 27 44  1  0
M  END
>  <smiles>  (14) 
O=S(=O)(Cc1ccc(C(F)(F)F)cc1)N1CCc2c([nH]c3ccccc23)C1

>  <score_type>  (14) 
oracle

>  <origin>  (14) 
autodockgpu

>  <m_score__min__energy>  (14) 
-7.2300000000000004

>  <m_primary>  (14) 
energy

>  <meeko>  (14) 
{"free_energy": -7.13, "intermolecular_energy": -8.32, "internal_energy": -0.94, "cluster_size": 12, "cluster_id": 1, "rank_in_cluster": 6}

>  <energy>  (14) 
-7.11

>  <cluster_rmsd>  (14) 
0.12

>  <rmsd>  (14) 
270.9

>  <cluster>  (14) 
2

$$$$

     RDKit          3D

 44 47  0  0  0  0  0  0  0  0999 V2000
  137.4490   72.2770  223.0860 O   0  0  0  0  0  0  0  0  0  0  0  0
  138.2580   71.9370  221.8850 S   0  0  0  0  0  0  0  0  0  0  0  0
  137.4540   71.1340  220.9130 O   0  0  0  0  0  0  0  0  0  0  0  0
  139.6950   70.9590  222.3200 C   0  0  0  0  0  0  0  0  0  0  0  0
  139.8830   70.8420  223.7720 C   0  0  0  0  0  0  0  0  0  0  0  0
  140.7080   71.7940  224.3790 C   0  0  0  0  0  0  0  0  0  0  0  0
  140.9230   71.7360  225.7410 C   0  0  0  0  0  0  0  0  0  0  0  0
  140.3290   70.7440  226.5080 C   0  0  0  0  0  0  0  0  0  0  0  0
  140.6290   70.7760  227.9680 C   0  0  0  0  0  0  0  0  0  0  0  0
  141.2890   69.6370  228.3730 F   0  0  0  0  0  0  0  0  0  0  0  0
  139.4660   70.8900  228.7100 F   0  0  0  0  0  0  0  0  0  0  0  0
  141.3990   71.8910  228.2130 F   0  0  0  0  0  0  0  0  0  0  0  0
  139.5120   69.7950  225.9310 C   0  0  0  0  0  0  0  0  0  0  0  0
  139.2970   69.8560  224.5520 C   0  0  0  0  0  0  0  0  0  0  0  0
  138.7840   73.3810  221.1310 N   0  0  0  0  0  0  0  0  0  0  0  0
  137.7780   74.3920  221.0220 C   0  0  0  0  0  0  0  0  0  0  0  0
  137.6940   75.2360  222.2990 C   0  0  0  0  0  0  0  0  0  0  0  0
  138.9980   75.9810  222.3360 C   0  0  0  0  0  0  0  0  0  0  0  0
  140.1180   75.2540  221.9730 C   0  0  0  0  0  0  0  0  0  0  0  0
  141.1790   76.0740  222.0640 N   0  0  0  0  0  0  0  0  0  0  0  0
  140.7540   77.2840  222.4710 C   0  0  0  0  0  0  0  0  0  0  0  0
  141.4620   78.4460  222.7090 C   0  0  0  0  0  0  0  0  0  0  0  0
  140.7520   79.5650  223.1290 C   0  0  0  0  0  0  0  0  0  0  0  0
  139.3690   79.5220  223.3060 C   0  0  0  0  0  0  0  0  0  0  0  0
  138.6730   78.3550  223.0650 C   0  0  0  0  0  0  0  0  0  0  0  0
  139.3740   77.2650  222.6540 C   0  0  0  0  0  0  0  0  0  0  0  0
  140.0690   73.8300  221.5690 C   0  0  0  0  0  0  0  0  0  0  0  0
  139.5748   69.9502  221.8984 H   0  0  0  0  0  0  0  0  0  0  0  0
  140.5798   71.4684  221.9105 H   0  0  0  0  0  0  0  0  0  0  0  0
  141.1817   72.5826  223.7759 H   0  0  0  0  0  0  0  0  0  0  0  0
  141.5711   72.4829  226.2228 H   0  0  0  0  0  0  0  0  0  0  0  0
  139.0414   69.0098  226.5410 H   0  0  0  0  0  0  0  0  0  0  0  0
  138.6492   69.1061  224.0745 H   0  0  0  0  0  0  0  0  0  0  0  0
  138.0210   75.0490  220.1739 H   0  0  0  0  0  0  0  0  0  0  0  0
  136.8067   73.8993  220.8676 H   0  0  0  0  0  0  0  0  0  0  0  0
  136.8465   75.9355  222.2491 H   0  0  0  0  0  0  0  0  0  0  0  0
  137.5334   74.6236  223.1985 H   0  0  0  0  0  0  0  0  0  0  0  0
  142.1790   75.8160  221.8520 H   0  0  0  0  0  0  0  0  0  0  0  0
  142.5526   78.4847  222.5706 H   0  0  0  0  0  0  0  0  0  0  0  0
  141.2916   80.5032  223.3257 H   0  0  0  0  0  0  0  0  0  0  0  0
  138.8311   80.4219  223.6390 H   0  0  0  0  0  0  0  0  0  0  0  0
  137.5825   78.3080  223.2015 H   0  0  0  0  0  0  0  0  0  0  0  0
  140.7835   73.6818  220.7459 H   0  0  0  0  0  0  0  0  0  0  0  0
  140.3166   73.2422  222.4652 H   0  0  0  0  0  0  0  0  0  0  0  0
  1  2  2  0
  2  3  2  0
  2  4  1  0
  4  5  1  0
  5  6  2  0
  6  7  1  0
  7  8  2  0
  8  9  1  0
  9 10  1  0
  9 11  1  0
  9 12  1  0
  8 13  1  0
 13 14  2  0
  2 15  1  0
 15 16  1  0
 16 17  1  0
 17 18  1  0
 18 19  2  0
 19 20  1  0
 20 21  1  0
 21 22  2  0
 22 23  1  0
 23 24  2  0
 24 25  1  0
 25 26  2  0
 19 27  1  0
 14  5  1  0
 27 15  1  0
 26 18  1  0
 26 21  1  0
  4 28  1  0
  4 29  1  0
  6 30  1  0
  7 31  1  0
 13 32  1  0
 14 33  1  0
 16 34  1  0
 16 35  1  0
 17 36  1  0
 17 37  1  0
 20 38  1  0
 22 39  1  0
 23 40  1  0
 24 41  1  0
 25 42  1  0
 27 43  1  0
 27 44  1  0
M  END
>  <smiles>  (15) 
O=S(=O)(Cc1ccc(C(F)(F)F)cc1)N1CCc2c([nH]c3ccccc23)C1

>  <score_type>  (15) 
oracle

>  <origin>  (15) 
autodockgpu

>  <m_score__min__energy>  (15) 
-7.2300000000000004

>  <m_primary>  (15) 
energy

>  <meeko>  (15) 
{"free_energy": -7.14, "intermolecular_energy": -8.33, "internal_energy": -0.94, "cluster_size": 12, "cluster_id": 1, "rank_in_cluster": 5}

>  <energy>  (15) 
-7.09

>  <cluster_rmsd>  (15) 
0.19

>  <rmsd>  (15) 
270.99

>  <cluster>  (15) 
2

$$$$

     RDKit          3D

 44 47  0  0  0  0  0  0  0  0999 V2000
  140.3300   73.6960  222.3540 O   0  0  0  0  0  0  0  0  0  0  0  0
  139.6680   73.8530  221.0310 S   0  0  0  0  0  0  0  0  0  0  0  0
  138.2400   73.4120  221.0970 O   0  0  0  0  0  0  0  0  0  0  0  0
  140.4720   72.8610  219.7740 C   0  0  0  0  0  0  0  0  0  0  0  0
  141.9370   72.9110  219.8650 C   0  0  0  0  0  0  0  0  0  0  0  0
  142.5400   72.0490  220.7860 C   0  0  0  0  0  0  0  0  0  0  0  0
  143.9150   72.0490  220.9180 C   0  0  0  0  0  0  0  0  0  0  0  0
  144.6970   72.8970  220.1470 C   0  0  0  0  0  0  0  0  0  0  0  0
  146.1680   72.8160  220.3700 C   0  0  0  0  0  0  0  0  0  0  0  0
  146.6550   71.5610  220.0760 F   0  0  0  0  0  0  0  0  0  0  0  0
  146.4870   73.1070  221.6850 F   0  0  0  0  0  0  0  0  0  0  0  0
  146.7660   73.7640  219.5700 F   0  0  0  0  0  0  0  0  0  0  0  0
  144.1240   73.7570  219.2330 C   0  0  0  0  0  0  0  0  0  0  0  0
  142.7330   73.7530  219.1030 C   0  0  0  0  0  0  0  0  0  0  0  0
  139.7320   75.4970  220.5580 N   0  0  0  0  0  0  0  0  0  0  0  0
  138.7310   76.3250  221.1560 C   0  0  0  0  0  0  0  0  0  0  0  0
  139.1760   76.8330  222.5320 C   0  0  0  0  0  0  0  0  0  0  0  0
  140.3220   77.7550  222.2340 C   0  0  0  0  0  0  0  0  0  0  0  0
  141.2030   77.3260  221.2570 C   0  0  0  0  0  0  0  0  0  0  0  0
  142.1520   78.2680  221.1260 N   0  0  0  0  0  0  0  0  0  0  0  0
  141.8890   79.2670  221.9880 C   0  0  0  0  0  0  0  0  0  0  0  0
  142.5690   80.4460  222.2230 C   0  0  0  0  0  0  0  0  0  0  0  0
  142.0610   81.3070  223.1890 C   0  0  0  0  0  0  0  0  0  0  0  0
  140.9020   80.9960  223.9010 C   0  0  0  0  0  0  0  0  0  0  0  0
  140.2310   79.8150  223.6560 C   0  0  0  0  0  0  0  0  0  0  0  0
  140.7340   78.9780  222.7090 C   0  0  0  0  0  0  0  0  0  0  0  0
  141.0540   76.0420  220.5330 C   0  0  0  0  0  0  0  0  0  0  0  0
  140.1475   71.8163  219.8891 H   0  0  0  0  0  0  0  0  0  0  0  0
  140.1854   73.2698  218.7938 H   0  0  0  0  0  0  0  0  0  0  0  0
  141.9242   71.3760  221.4007 H   0  0  0  0  0  0  0  0  0  0  0  0
  144.3938   71.3713  221.6401 H   0  0  0  0  0  0  0  0  0  0  0  0
  144.7460   74.4282  218.6226 H   0  0  0  0  0  0  0  0  0  0  0  0
  142.2586   74.4329  218.3801 H   0  0  0  0  0  0  0  0  0  0  0  0
  138.5409   77.1874  220.5002 H   0  0  0  0  0  0  0  0  0  0  0  0
  137.8178   75.7257  221.2863 H   0  0  0  0  0  0  0  0  0  0  0  0
  138.3589   77.3754  223.0301 H   0  0  0  0  0  0  0  0  0  0  0  0
  139.4601   76.0150  223.2103 H   0  0  0  0  0  0  0  0  0  0  0  0
  142.9680   78.2340  220.4590 H   0  0  0  0  0  0  0  0  0  0  0  0
  143.4829   80.6956  221.6639 H   0  0  0  0  0  0  0  0  0  0  0  0
  142.5833   82.2526  223.3963 H   0  0  0  0  0  0  0  0  0  0  0  0
  140.5216   81.6948  224.6606 H   0  0  0  0  0  0  0  0  0  0  0  0
  139.3163   79.5581  224.2103 H   0  0  0  0  0  0  0  0  0  0  0  0
  141.3388   76.2046  219.4830 H   0  0  0  0  0  0  0  0  0  0  0  0
  141.7014   75.3162  221.0469 H   0  0  0  0  0  0  0  0  0  0  0  0
  1  2  2  0
  2  3  2  0
  2  4  1  0
  4  5  1  0
  5  6  2  0
  6  7  1  0
  7  8  2  0
  8  9  1  0
  9 10  1  0
  9 11  1  0
  9 12  1  0
  8 13  1  0
 13 14  2  0
  2 15  1  0
 15 16  1  0
 16 17  1  0
 17 18  1  0
 18 19  2  0
 19 20  1  0
 20 21  1  0
 21 22  2  0
 22 23  1  0
 23 24  2  0
 24 25  1  0
 25 26  2  0
 19 27  1  0
 14  5  1  0
 27 15  1  0
 26 18  1  0
 26 21  1  0
  4 28  1  0
  4 29  1  0
  6 30  1  0
  7 31  1  0
 13 32  1  0
 14 33  1  0
 16 34  1  0
 16 35  1  0
 17 36  1  0
 17 37  1  0
 20 38  1  0
 22 39  1  0
 23 40  1  0
 24 41  1  0
 25 42  1  0
 27 43  1  0
 27 44  1  0
M  END
>  <smiles>  (16) 
O=S(=O)(Cc1ccc(C(F)(F)F)cc1)N1CCc2c([nH]c3ccccc23)C1

>  <score_type>  (16) 
oracle

>  <origin>  (16) 
autodockgpu

>  <m_score__min__energy>  (16) 
-7.2300000000000004

>  <m_primary>  (16) 
energy

>  <meeko>  (16) 
{"free_energy": -6.92, "intermolecular_energy": -8.11, "internal_energy": -0.87, "cluster_size": 2, "cluster_id": 3, "rank_in_cluster": 2}

>  <energy>  (16) 
-7.07

>  <cluster_rmsd>  (16) 
0.22

>  <rmsd>  (16) 
270.99

>  <cluster>  (16) 
2

$$$$

     RDKit          3D

 44 47  0  0  0  0  0  0  0  0999 V2000
  141.5260   71.5650  220.9460 O   0  0  0  0  0  0  0  0  0  0  0  0
  140.0520   71.7620  220.8840 S   0  0  0  0  0  0  0  0  0  0  0  0
  139.3900   70.6060  220.2030 O   0  0  0  0  0  0  0  0  0  0  0  0
  139.6270   73.2360  219.9590 C   0  0  0  0  0  0  0  0  0  0  0  0
  139.9100   74.4720  220.7010 C   0  0  0  0  0  0  0  0  0  0  0  0
  141.1070   75.1270  220.4000 C   0  0  0  0  0  0  0  0  0  0  0  0
  141.4300   76.2930  221.0650 C   0  0  0  0  0  0  0  0  0  0  0  0
  140.5770   76.8160  222.0260 C   0  0  0  0  0  0  0  0  0  0  0  0
  141.0220   78.0790  222.6810 C   0  0  0  0  0  0  0  0  0  0  0  0
  141.7380   78.8730  221.8140 F   0  0  0  0  0  0  0  0  0  0  0  0
  141.8170   77.8120  223.7830 F   0  0  0  0  0  0  0  0  0  0  0  0
  139.8970   78.7400  223.1230 F   0  0  0  0  0  0  0  0  0  0  0  0
  139.3900   76.1870  222.3410 C   0  0  0  0  0  0  0  0  0  0  0  0
  139.0680   75.0060  221.6660 C   0  0  0  0  0  0  0  0  0  0  0  0
  139.4360   71.9140  222.4740 N   0  0  0  0  0  0  0  0  0  0  0  0
  138.5120   70.8890  222.8510 C   0  0  0  0  0  0  0  0  0  0  0  0
  139.2400   69.6500  223.3850 C   0  0  0  0  0  0  0  0  0  0  0  0
  139.8620   70.1120  224.6720 C   0  0  0  0  0  0  0  0  0  0  0  0
  140.4220   71.3780  224.6500 C   0  0  0  0  0  0  0  0  0  0  0  0
  140.9230   71.6180  225.8740 N   0  0  0  0  0  0  0  0  0  0  0  0
  140.6920   70.5460  226.6520 C   0  0  0  0  0  0  0  0  0  0  0  0
  141.0150   70.3170  227.9760 C   0  0  0  0  0  0  0  0  0  0  0  0
  140.6470   69.0970  228.5320 C   0  0  0  0  0  0  0  0  0  0  0  0
  139.9740   68.1310  227.7830 C   0  0  0  0  0  0  0  0  0  0  0  0
  139.6570   68.3720  226.4620 C   0  0  0  0  0  0  0  0  0  0  0  0
  140.0200   69.5680  225.9240 C   0  0  0  0  0  0  0  0  0  0  0  0
  140.4250   72.2460  223.4510 C   0  0  0  0  0  0  0  0  0  0  0  0
  140.2082   73.2452  219.0251 H   0  0  0  0  0  0  0  0  0  0  0  0
  138.5448   73.2057  219.7643 H   0  0  0  0  0  0  0  0  0  0  0  0
  141.7869   74.7167  219.6388 H   0  0  0  0  0  0  0  0  0  0  0  0
  142.3714   76.8116  220.8309 H   0  0  0  0  0  0  0  0  0  0  0  0
  138.7150   76.6038  223.1030 H   0  0  0  0  0  0  0  0  0  0  0  0
  138.1270   74.4889  221.9050 H   0  0  0  0  0  0  0  0  0  0  0  0
  137.8455   71.2783  223.6348 H   0  0  0  0  0  0  0  0  0  0  0  0
  137.9368   70.5961  221.9603 H   0  0  0  0  0  0  0  0  0  0  0  0
  138.5305   68.8294  223.5674 H   0  0  0  0  0  0  0  0  0  0  0  0
  139.9838   69.2603  222.6744 H   0  0  0  0  0  0  0  0  0  0  0  0
  141.4150   72.5000  226.1770 H   0  0  0  0  0  0  0  0  0  0  0  0
  141.5459   71.0751  228.5705 H   0  0  0  0  0  0  0  0  0  0  0  0
  140.8914   68.8890  229.5841 H   0  0  0  0  0  0  0  0  0  0  0  0
  139.6951   67.1737  228.2475 H   0  0  0  0  0  0  0  0  0  0  0  0
  139.1261   67.6190  225.8610 H   0  0  0  0  0  0  0  0  0  0  0  0
  140.2511   73.2821  223.7770 H   0  0  0  0  0  0  0  0  0  0  0  0
  141.4022   72.1047  222.9661 H   0  0  0  0  0  0  0  0  0  0  0  0
  1  2  2  0
  2  3  2  0
  2  4  1  0
  4  5  1  0
  5  6  2  0
  6  7  1  0
  7  8  2  0
  8  9  1  0
  9 10  1  0
  9 11  1  0
  9 12  1  0
  8 13  1  0
 13 14  2  0
  2 15  1  0
 15 16  1  0
 16 17  1  0
 17 18  1  0
 18 19  2  0
 19 20  1  0
 20 21  1  0
 21 22  2  0
 22 23  1  0
 23 24  2  0
 24 25  1  0
 25 26  2  0
 19 27  1  0
 14  5  1  0
 27 15  1  0
 26 18  1  0
 26 21  1  0
  4 28  1  0
  4 29  1  0
  6 30  1  0
  7 31  1  0
 13 32  1  0
 14 33  1  0
 16 34  1  0
 16 35  1  0
 17 36  1  0
 17 37  1  0
 20 38  1  0
 22 39  1  0
 23 40  1  0
 24 41  1  0
 25 42  1  0
 27 43  1  0
 27 44  1  0
M  END
>  <smiles>  (17) 
O=S(=O)(Cc1ccc(C(F)(F)F)cc1)N1CCc2c([nH]c3ccccc23)C1

>  <score_type>  (17) 
oracle

>  <origin>  (17) 
autodockgpu

>  <m_score__min__energy>  (17) 
-7.2300000000000004

>  <m_primary>  (17) 
energy

>  <meeko>  (17) 
{"free_energy": -6.78, "intermolecular_energy": -7.98, "internal_energy": -0.91, "cluster_size": 1, "cluster_id": 4, "rank_in_cluster": 1}

>  <energy>  (17) 
-7.07

>  <cluster_rmsd>  (17) 
0.23

>  <rmsd>  (17) 
270.88

>  <cluster>  (17) 
2

$$$$

     RDKit          3D

 44 47  0  0  0  0  0  0  0  0999 V2000
  137.7750   72.6140  222.7120 O   0  0  0  0  0  0  0  0  0  0  0  0
  139.0430   72.6270  221.9340 S   0  0  0  0  0  0  0  0  0  0  0  0
  139.0460   71.5400  220.9060 O   0  0  0  0  0  0  0  0  0  0  0  0
  140.4640   72.3590  222.9920 C   0  0  0  0  0  0  0  0  0  0  0  0
  140.2710   71.2410  223.9260 C   0  0  0  0  0  0  0  0  0  0  0  0
  140.8510   71.3710  225.1910 C   0  0  0  0  0  0  0  0  0  0  0  0
  140.7060   70.3530  226.1130 C   0  0  0  0  0  0  0  0  0  0  0  0
  139.9920   69.2080  225.7920 C   0  0  0  0  0  0  0  0  0  0  0  0
  139.8970   68.1730  226.8600 C   0  0  0  0  0  0  0  0  0  0  0  0
  139.6260   68.7370  228.0880 F   0  0  0  0  0  0  0  0  0  0  0  0
  141.0770   67.4570  226.9630 F   0  0  0  0  0  0  0  0  0  0  0  0
  138.8990   67.2930  226.5040 F   0  0  0  0  0  0  0  0  0  0  0  0
  139.4110   69.0570  224.5500 C   0  0  0  0  0  0  0  0  0  0  0  0
  139.5610   70.0900  223.6200 C   0  0  0  0  0  0  0  0  0  0  0  0
  139.2140   74.1430  221.1580 N   0  0  0  0  0  0  0  0  0  0  0  0
  138.1050   75.0290  221.3390 C   0  0  0  0  0  0  0  0  0  0  0  0
  138.2330   75.8230  222.6450 C   0  0  0  0  0  0  0  0  0  0  0  0
  139.4180   76.7170  222.4200 C   0  0  0  0  0  0  0  0  0  0  0  0
  140.4940   76.1390  221.7690 C   0  0  0  0  0  0  0  0  0  0  0  0
  141.4500   77.0780  221.6570 N   0  0  0  0  0  0  0  0  0  0  0  0
  141.0030   78.2160  222.2160 C   0  0  0  0  0  0  0  0  0  0  0  0
  141.6150   79.4480  222.3460 C   0  0  0  0  0  0  0  0  0  0  0  0
  140.9050   80.4620  222.9790 C   0  0  0  0  0  0  0  0  0  0  0  0
  139.6160   80.2500  223.4680 C   0  0  0  0  0  0  0  0  0  0  0  0
  139.0150   79.0150  223.3310 C   0  0  0  0  0  0  0  0  0  0  0  0
  139.7150   78.0270  222.7120 C   0  0  0  0  0  0  0  0  0  0  0  0
  140.5080   74.7310  221.3110 C   0  0  0  0  0  0  0  0  0  0  0  0
  141.3380   72.1430  222.3599 H   0  0  0  0  0  0  0  0  0  0  0  0
  140.6106   73.2707  223.5898 H   0  0  0  0  0  0  0  0  0  0  0  0
  141.4185   72.2770  225.4502 H   0  0  0  0  0  0  0  0  0  0  0  0
  141.1604   70.4510  227.1100 H   0  0  0  0  0  0  0  0  0  0  0  0
  138.8448   68.1481  224.2981 H   0  0  0  0  0  0  0  0  0  0  0  0
  139.1059   69.9874  222.6238 H   0  0  0  0  0  0  0  0  0  0  0  0
  138.0669   75.7325  220.4943 H   0  0  0  0  0  0  0  0  0  0  0  0
  137.1849   74.4281  221.3870 H   0  0  0  0  0  0  0  0  0  0  0  0
  137.3261   76.4172  222.8305 H   0  0  0  0  0  0  0  0  0  0  0  0
  138.3581   75.1718  223.5226 H   0  0  0  0  0  0  0  0  0  0  0  0
  142.3940   76.9460  221.2070 H   0  0  0  0  0  0  0  0  0  0  0  0
  142.6309   79.6209  221.9612 H   0  0  0  0  0  0  0  0  0  0  0  0
  141.3695   81.4521  223.0967 H   0  0  0  0  0  0  0  0  0  0  0  0
  139.0765   81.0700  223.9646 H   0  0  0  0  0  0  0  0  0  0  0  0
  137.9988   78.8351  223.7117 H   0  0  0  0  0  0  0  0  0  0  0  0
  141.0202   74.6915  220.3383 H   0  0  0  0  0  0  0  0  0  0  0  0
  141.0228   74.1535  222.0929 H   0  0  0  0  0  0  0  0  0  0  0  0
  1  2  2  0
  2  3  2  0
  2  4  1  0
  4  5  1  0
  5  6  2  0
  6  7  1  0
  7  8  2  0
  8  9  1  0
  9 10  1  0
  9 11  1  0
  9 12  1  0
  8 13  1  0
 13 14  2  0
  2 15  1  0
 15 16  1  0
 16 17  1  0
 17 18  1  0
 18 19  2  0
 19 20  1  0
 20 21  1  0
 21 22  2  0
 22 23  1  0
 23 24  2  0
 24 25  1  0
 25 26  2  0
 19 27  1  0
 14  5  1  0
 27 15  1  0
 26 18  1  0
 26 21  1  0
  4 28  1  0
  4 29  1  0
  6 30  1  0
  7 31  1  0
 13 32  1  0
 14 33  1  0
 16 34  1  0
 16 35  1  0
 17 36  1  0
 17 37  1  0
 20 38  1  0
 22 39  1  0
 23 40  1  0
 24 41  1  0
 25 42  1  0
 27 43  1  0
 27 44  1  0
M  END
>  <smiles>  (18) 
O=S(=O)(Cc1ccc(C(F)(F)F)cc1)N1CCc2c([nH]c3ccccc23)C1

>  <score_type>  (18) 
oracle

>  <origin>  (18) 
autodockgpu

>  <m_score__min__energy>  (18) 
-7.2300000000000004

>  <m_primary>  (18) 
energy

>  <meeko>  (18) 
{"free_energy": -7.23, "intermolecular_energy": -8.43, "internal_energy": -0.75, "cluster_size": 12, "cluster_id": 1, "rank_in_cluster": 1}

>  <energy>  (18) 
-6.93

>  <cluster_rmsd>  (18) 
0.0

>  <rmsd>  (18) 
271.08

>  <cluster>  (18) 
3

$$$$

     RDKit          3D

 44 47  0  0  0  0  0  0  0  0999 V2000
  137.4180   72.1970  223.0820 O   0  0  0  0  0  0  0  0  0  0  0  0
  138.2040   71.7890  221.8870 S   0  0  0  0  0  0  0  0  0  0  0  0
  137.3530   71.0120  220.9320 O   0  0  0  0  0  0  0  0  0  0  0  0
  139.5850   70.7410  222.3400 C   0  0  0  0  0  0  0  0  0  0  0  0
  139.8310   70.7220  223.7870 C   0  0  0  0  0  0  0  0  0  0  0  0
  140.4450   71.8530  224.3360 C   0  0  0  0  0  0  0  0  0  0  0  0
  140.7030   71.8950  225.6920 C   0  0  0  0  0  0  0  0  0  0  0  0
  140.3600   70.8280  226.5090 C   0  0  0  0  0  0  0  0  0  0  0  0
  140.6830   70.9790  227.9560 C   0  0  0  0  0  0  0  0  0  0  0  0
  139.5500   71.1950  228.7070 F   0  0  0  0  0  0  0  0  0  0  0  0
  141.5500   72.0390  228.1620 F   0  0  0  0  0  0  0  0  0  0  0  0
  141.3190   69.8270  228.3650 F   0  0  0  0  0  0  0  0  0  0  0  0
  139.7540   69.7020  225.9900 C   0  0  0  0  0  0  0  0  0  0  0  0
  139.4950   69.6630  224.6170 C   0  0  0  0  0  0  0  0  0  0  0  0
  138.8080   73.1850  221.1030 N   0  0  0  0  0  0  0  0  0  0  0  0
  137.8290   74.2000  220.8650 C   0  0  0  0  0  0  0  0  0  0  0  0
  137.6620   75.1110  222.0880 C   0  0  0  0  0  0  0  0  0  0  0  0
  138.9700   75.8420  222.1870 C   0  0  0  0  0  0  0  0  0  0  0  0
  140.1030   75.0840  221.9480 C   0  0  0  0  0  0  0  0  0  0  0  0
  141.1670   75.8950  222.0790 N   0  0  0  0  0  0  0  0  0  0  0  0
  140.7310   77.1290  222.3900 C   0  0  0  0  0  0  0  0  0  0  0  0
  141.4370   78.2940  222.6220 C   0  0  0  0  0  0  0  0  0  0  0  0
  140.7150   79.4410  222.9280 C   0  0  0  0  0  0  0  0  0  0  0  0
  139.3220   79.4240  223.0010 C   0  0  0  0  0  0  0  0  0  0  0  0
  138.6270   78.2540  222.7670 C   0  0  0  0  0  0  0  0  0  0  0  0
  139.3410   77.1350  222.4670 C   0  0  0  0  0  0  0  0  0  0  0  0
  140.0620   73.6410  221.6140 C   0  0  0  0  0  0  0  0  0  0  0  0
  139.3725   69.7148  222.0057 H   0  0  0  0  0  0  0  0  0  0  0  0
  140.4844   71.1487  221.8554 H   0  0  0  0  0  0  0  0  0  0  0  0
  140.7200   72.7019  223.6927 H   0  0  0  0  0  0  0  0  0  0  0  0
  141.1848   72.7826  226.1280 H   0  0  0  0  0  0  0  0  0  0  0  0
  139.4819   68.8572  226.6399 H   0  0  0  0  0  0  0  0  0  0  0  0
  139.0141   68.7728  224.1854 H   0  0  0  0  0  0  0  0  0  0  0  0
  138.1457   74.8088  220.0053 H   0  0  0  0  0  0  0  0  0  0  0  0
  136.8646   73.7114  220.6617 H   0  0  0  0  0  0  0  0  0  0  0  0
  136.8316   75.8166  221.9379 H   0  0  0  0  0  0  0  0  0  0  0  0
  137.4249   74.5477  223.0026 H   0  0  0  0  0  0  0  0  0  0  0  0
  142.1750   75.6140  221.9580 H   0  0  0  0  0  0  0  0  0  0  0  0
  142.5354   78.3127  222.5662 H   0  0  0  0  0  0  0  0  0  0  0  0
  141.2529   80.3818  223.1166 H   0  0  0  0  0  0  0  0  0  0  0  0
  138.7750   80.3464  223.2460 H   0  0  0  0  0  0  0  0  0  0  0  0
  137.5287   78.2272  222.8215 H   0  0  0  0  0  0  0  0  0  0  0  0
  140.8342   73.4419  220.8564 H   0  0  0  0  0  0  0  0  0  0  0  0
  140.2316   73.0978  222.5553 H   0  0  0  0  0  0  0  0  0  0  0  0
  1  2  2  0
  2  3  2  0
  2  4  1  0
  4  5  1  0
  5  6  2  0
  6  7  1  0
  7  8  2  0
  8  9  1  0
  9 10  1  0
  9 11  1  0
  9 12  1  0
  8 13  1  0
 13 14  2  0
  2 15  1  0
 15 16  1  0
 16 17  1  0
 17 18  1  0
 18 19  2  0
 19 20  1  0
 20 21  1  0
 21 22  2  0
 22 23  1  0
 23 24  2  0
 24 25  1  0
 25 26  2  0
 19 27  1  0
 14  5  1  0
 27 15  1  0
 26 18  1  0
 26 21  1  0
  4 28  1  0
  4 29  1  0
  6 30  1  0
  7 31  1  0
 13 32  1  0
 14 33  1  0
 16 34  1  0
 16 35  1  0
 17 36  1  0
 17 37  1  0
 20 38  1  0
 22 39  1  0
 23 40  1  0
 24 41  1  0
 25 42  1  0
 27 43  1  0
 27 44  1  0
M  END
>  <smiles>  (19) 
O=S(=O)(Cc1ccc(C(F)(F)F)cc1)N1CCc2c([nH]c3ccccc23)C1

>  <score_type>  (19) 
oracle

>  <origin>  (19) 
autodockgpu

>  <m_score__min__energy>  (19) 
-7.2300000000000004

>  <m_primary>  (19) 
energy

>  <meeko>  (19) 
{"free_energy": -7.04, "intermolecular_energy": -8.23, "internal_energy": -0.94, "cluster_size": 12, "cluster_id": 1, "rank_in_cluster": 9}

>  <energy>  (19) 
-6.92

>  <cluster_rmsd>  (19) 
0.2

>  <rmsd>  (19) 
271.11

>  <cluster>  (19) 
3

$$$$

     RDKit          3D

 44 47  0  0  0  0  0  0  0  0999 V2000
  137.5290   72.2970  223.0930 O   0  0  0  0  0  0  0  0  0  0  0  0
  138.3620   71.9840  221.9010 S   0  0  0  0  0  0  0  0  0  0  0  0
  137.6010   71.1370  220.9290 O   0  0  0  0  0  0  0  0  0  0  0  0
  139.8370   71.0740  222.3550 C   0  0  0  0  0  0  0  0  0  0  0  0
  139.9220   70.8170  223.7980 C   0  0  0  0  0  0  0  0  0  0  0  0
  140.6800   71.7170  224.5540 C   0  0  0  0  0  0  0  0  0  0  0  0
  140.7990   71.5290  225.9170 C   0  0  0  0  0  0  0  0  0  0  0  0
  140.1740   70.4570  226.5380 C   0  0  0  0  0  0  0  0  0  0  0  0
  140.3670   70.3480  228.0110 C   0  0  0  0  0  0  0  0  0  0  0  0
  141.0210   69.1850  228.3510 F   0  0  0  0  0  0  0  0  0  0  0  0
  139.1520   70.3720  228.6740 F   0  0  0  0  0  0  0  0  0  0  0  0
  141.0930   71.4450  228.4200 F   0  0  0  0  0  0  0  0  0  0  0  0
  139.4210   69.5560  225.8120 C   0  0  0  0  0  0  0  0  0  0  0  0
  139.3050   69.7500  224.4330 C   0  0  0  0  0  0  0  0  0  0  0  0
  138.8290   73.4430  221.1380 N   0  0  0  0  0  0  0  0  0  0  0  0
  137.7890   74.4200  221.0430 C   0  0  0  0  0  0  0  0  0  0  0  0
  137.6970   75.2630  222.3210 C   0  0  0  0  0  0  0  0  0  0  0  0
  138.9760   76.0500  222.3380 C   0  0  0  0  0  0  0  0  0  0  0  0
  140.1140   75.3600  221.9590 C   0  0  0  0  0  0  0  0  0  0  0  0
  141.1490   76.2140  222.0330 N   0  0  0  0  0  0  0  0  0  0  0  0
  140.6910   77.4090  222.4460 C   0  0  0  0  0  0  0  0  0  0  0  0
  141.3650   78.5940  222.6720 C   0  0  0  0  0  0  0  0  0  0  0  0
  140.6250   79.6890  223.1020 C   0  0  0  0  0  0  0  0  0  0  0  0
  139.2470   79.6020  223.3010 C   0  0  0  0  0  0  0  0  0  0  0  0
  138.5850   78.4130  223.0700 C   0  0  0  0  0  0  0  0  0  0  0  0
  139.3150   77.3450  222.6500 C   0  0  0  0  0  0  0  0  0  0  0  0
  140.1050   73.9340  221.5560 C   0  0  0  0  0  0  0  0  0  0  0  0
  139.8327   70.1099  221.8254 H   0  0  0  0  0  0  0  0  0  0  0  0
  140.7057   71.6879  222.0749 H   0  0  0  0  0  0  0  0  0  0  0  0
  141.1777   72.5683  224.0666 H   0  0  0  0  0  0  0  0  0  0  0  0
  141.3940   72.2348  226.5152 H   0  0  0  0  0  0  0  0  0  0  0  0
  138.9253   68.7075  226.3062 H   0  0  0  0  0  0  0  0  0  0  0  0
  138.7110   69.0405  223.8381 H   0  0  0  0  0  0  0  0  0  0  0  0
  137.9974   75.0833  220.1906 H   0  0  0  0  0  0  0  0  0  0  0  0
  136.8321   73.8957  220.9036 H   0  0  0  0  0  0  0  0  0  0  0  0
  136.8266   75.9345  222.2833 H   0  0  0  0  0  0  0  0  0  0  0  0
  137.5703   74.6467  223.2233 H   0  0  0  0  0  0  0  0  0  0  0  0
  142.1530   75.9870  221.8070 H   0  0  0  0  0  0  0  0  0  0  0  0
  142.4515   78.6682  222.5167 H   0  0  0  0  0  0  0  0  0  0  0  0
  141.1367   80.6445  223.2894 H   0  0  0  0  0  0  0  0  0  0  0  0
  138.6859   80.4841  223.6432 H   0  0  0  0  0  0  0  0  0  0  0  0
  137.4985   78.3316  223.2212 H   0  0  0  0  0  0  0  0  0  0  0  0
  140.8112   73.8084  220.7220 H   0  0  0  0  0  0  0  0  0  0  0  0
  140.3852   73.3554  222.4486 H   0  0  0  0  0  0  0  0  0  0  0  0
  1  2  2  0
  2  3  2  0
  2  4  1  0
  4  5  1  0
  5  6  2  0
  6  7  1  0
  7  8  2  0
  8  9  1  0
  9 10  1  0
  9 11  1  0
  9 12  1  0
  8 13  1  0
 13 14  2  0
  2 15  1  0
 15 16  1  0
 16 17  1  0
 17 18  1  0
 18 19  2  0
 19 20  1  0
 20 21  1  0
 21 22  2  0
 22 23  1  0
 23 24  2  0
 24 25  1  0
 25 26  2  0
 19 27  1  0
 14  5  1  0
 27 15  1  0
 26 18  1  0
 26 21  1  0
  4 28  1  0
  4 29  1  0
  6 30  1  0
  7 31  1  0
 13 32  1  0
 14 33  1  0
 16 34  1  0
 16 35  1  0
 17 36  1  0
 17 37  1  0
 20 38  1  0
 22 39  1  0
 23 40  1  0
 24 41  1  0
 25 42  1  0
 27 43  1  0
 27 44  1  0
M  END
>  <smiles>  (20) 
O=S(=O)(Cc1ccc(C(F)(F)F)cc1)N1CCc2c([nH]c3ccccc23)C1

>  <score_type>  (20) 
oracle

>  <origin>  (20) 
autodockgpu

>  <m_score__min__energy>  (20) 
-7.2300000000000004

>  <m_primary>  (20) 
energy

>  <meeko>  (20) 
{"free_energy": -7.15, "intermolecular_energy": -8.35, "internal_energy": -0.89, "cluster_size": 12, "cluster_id": 1, "rank_in_cluster": 2}

>  <energy>  (20) 
-6.78

>  <cluster_rmsd>  (20) 
0.0

>  <rmsd>  (20) 
271.38

>  <cluster>  (20) 
4

$$$$
