AOEMPDNDYKTPOZ-MVXFCSEMNA-N
     RDKit          3D

 67 72  0  0  0  0  0  0  0  0999 V2000
  142.1760   81.3380  222.6150 C   0  0  0  0  0  0  0  0  0  0  0  0
  142.0660   80.6620  223.8310 C   0  0  0  0  0  0  0  0  0  0  0  0
  141.6220   79.3380  223.8570 C   0  0  0  0  0  0  0  0  0  0  0  0
  141.2950   78.6740  222.6640 C   0  0  0  0  0  0  0  0  0  0  0  0
  141.3870   79.3650  221.4310 C   0  0  0  0  0  0  0  0  0  0  0  0
  141.8440   80.6930  221.4200 C   0  0  0  0  0  0  0  0  0  0  0  0
  141.1110   78.6740  220.1130 C   0  0  0  0  0  0  0  0  0  0  0  0
  140.2730   77.4050  220.2860 C   0  0  0  0  0  0  0  0  0  0  0  0
  140.8040   76.6270  221.4070 N   0  0  0  0  0  0  0  0  0  0  0  0
  141.3840   75.3220  221.2150 C   0  0  0  0  0  0  0  0  0  0  0  0
  140.7640   74.2230  221.7110 N   0  0  0  0  0  0  0  0  0  0  0  0
  141.2970   72.9870  221.5380 C   0  0  0  0  0  0  0  0  0  0  0  0
  140.6400   71.8340  222.0800 N   0  0  0  0  0  0  0  0  0  0  0  0
  139.9280   71.8760  223.3560 C   0  0  0  0  0  0  0  0  0  0  0  0
  140.5810   70.9220  224.3680 C   0  0  0  0  0  0  0  0  0  0  0  0
  140.0600   71.1360  225.8080 C   0  0  0  0  0  0  0  0  0  0  0  0
  141.1000   71.8840  226.6800 C   0  0  0  0  0  0  0  0  0  0  0  0
  140.9970   71.4490  228.1490 C   0  0  0  0  0  0  0  0  0  0  0  0
  141.2750   70.0680  228.3500 O   0  0  0  0  0  0  0  0  0  0  0  0
  140.8320   69.2210  227.2920 C   0  0  0  0  0  0  0  0  0  0  0  0
  139.6670   69.7900  226.4610 C   0  0  0  0  0  0  0  0  0  0  0  0
  142.4560   72.8490  220.8470 N   0  0  0  0  0  0  0  0  0  0  0  0
  143.0900   73.9450  220.3480 C   0  0  0  0  0  0  0  0  0  0  0  0
  144.3820   73.8030  219.5920 C   0  0  1  0  0  0  0  0  0  0  0  0
  145.6160   74.0280  220.4980 C   0  0  0  0  0  0  0  0  0  0  0  0
  146.3360   72.6740  220.6410 C   0  0  0  0  0  0  0  0  0  0  0  0
  145.6450   71.7970  219.6670 C   0  0  0  0  0  0  0  0  0  0  0  0
  145.9850   70.4820  219.3400 C   0  0  0  0  0  0  0  0  0  0  0  0
  145.2010   69.7960  218.4030 C   0  0  0  0  0  0  0  0  0  0  0  0
  144.0920   70.4270  217.8100 C   0  0  0  0  0  0  0  0  0  0  0  0
  143.7620   71.7450  218.1610 C   0  0  0  0  0  0  0  0  0  0  0  0
  144.5580   72.4130  219.0960 C   0  0  0  0  0  0  0  0  0  0  0  0
  142.5520   75.1780  220.5390 N   0  0  0  0  0  0  0  0  0  0  0  0
  140.7700   77.2620  222.7310 C   0  0  0  0  0  0  0  0  0  0  0  0
  142.5248   82.3811  222.5968 H   0  0  0  0  0  0  0  0  0  0  0  0
  142.3291   81.1722  224.7694 H   0  0  0  0  0  0  0  0  0  0  0  0
  141.5279   78.8120  224.8185 H   0  0  0  0  0  0  0  0  0  0  0  0
  141.9414   81.2293  220.4645 H   0  0  0  0  0  0  0  0  0  0  0  0
  140.5681   79.3694  219.4560 H   0  0  0  0  0  0  0  0  0  0  0  0
  142.0780   78.3816  219.6777 H   0  0  0  0  0  0  0  0  0  0  0  0
  139.2277   77.6794  220.4909 H   0  0  0  0  0  0  0  0  0  0  0  0
  140.3170   76.8045  219.3654 H   0  0  0  0  0  0  0  0  0  0  0  0
  140.6170   70.9520  221.5160 H   0  0  0  0  0  0  0  0  0  0  0  0
  139.9577   72.9012  223.7536 H   0  0  0  0  0  0  0  0  0  0  0  0
  138.8862   71.5628  223.1927 H   0  0  0  0  0  0  0  0  0  0  0  0
  140.3658   69.8865  224.0657 H   0  0  0  0  0  0  0  0  0  0  0  0
  141.6616   71.1275  224.3705 H   0  0  0  0  0  0  0  0  0  0  0  0
  139.1593   71.7642  225.7440 H   0  0  0  0  0  0  0  0  0  0  0  0
  142.1104   71.6593  226.3078 H   0  0  0  0  0  0  0  0  0  0  0  0
  140.8993   72.9638  226.6181 H   0  0  0  0  0  0  0  0  0  0  0  0
  141.7146   72.0386  228.7384 H   0  0  0  0  0  0  0  0  0  0  0  0
  139.9579   71.6208  228.4666 H   0  0  0  0  0  0  0  0  0  0  0  0
  141.6813   69.0436  226.6159 H   0  0  0  0  0  0  0  0  0  0  0  0
  140.4578   68.3010  227.7648 H   0  0  0  0  0  0  0  0  0  0  0  0
  139.4025   69.0706  225.6720 H   0  0  0  0  0  0  0  0  0  0  0  0
  138.8097   69.9606  227.1288 H   0  0  0  0  0  0  0  0  0  0  0  0
  144.3213   74.5473  218.7843 H   0  0  0  0  0  0  0  0  0  0  0  0
  146.2903   74.7656  220.0384 H   0  0  0  0  0  0  0  0  0  0  0  0
  145.3099   74.4108  221.4828 H   0  0  0  0  0  0  0  0  0  0  0  0
  147.4032   72.7703  220.3923 H   0  0  0  0  0  0  0  0  0  0  0  0
  146.2978   72.2801  221.6674 H   0  0  0  0  0  0  0  0  0  0  0  0
  146.8521   69.9943  219.8094 H   0  0  0  0  0  0  0  0  0  0  0  0
  145.4534   68.7607  218.1301 H   0  0  0  0  0  0  0  0  0  0  0  0
  143.4830   69.8866  217.0704 H   0  0  0  0  0  0  0  0  0  0  0  0
  142.8923   72.2437  217.7084 H   0  0  0  0  0  0  0  0  0  0  0  0
  139.7322   77.2805  223.0951 H   0  0  0  0  0  0  0  0  0  0  0  0
  141.4068   76.6823  223.4154 H   0  0  0  0  0  0  0  0  0  0  0  0
  1  2  2  0
  2  3  1  0
  3  4  2  0
  4  5  1  0
  5  6  2  0
  5  7  1  0
  7  8  1  0
  8  9  1  0
  9 10  1  0
 10 11  2  0
 11 12  1  0
 12 13  1  0
 13 14  1  0
 14 15  1  0
 15 16  1  0
 16 17  1  0
 17 18  1  0
 18 19  1  0
 19 20  1  0
 20 21  1  0
 12 22  2  0
 22 23  1  0
 23 24  1  0
 24 25  1  0
 25 26  1  0
 26 27  1  0
 27 28  2  0
 28 29  1  0
 29 30  2  0
 30 31  1  0
 31 32  2  0
 23 33  2  0
  9 34  1  0
  6  1  1  0
 33 10  1  0
 34  4  1  0
 21 16  1  0
 32 24  1  0
 32 27  1  0
  1 35  1  0
  2 36  1  0
  3 37  1  0
  6 38  1  0
  7 39  1  0
  7 40  1  0
  8 41  1  0
  8 42  1  0
 13 43  1  0
 14 44  1  0
 14 45  1  0
 15 46  1  0
 15 47  1  0
 16 48  1  0
 17 49  1  0
 17 50  1  0
 18 51  1  0
 18 52  1  0
 20 53  1  0
 20 54  1  0
 21 55  1  0
 21 56  1  0
 24 57  1  6
 25 58  1  0
 25 59  1  0
 26 60  1  0
 26 61  1  0
 28 62  1  0
 29 63  1  0
 30 64  1  0
 31 65  1  0
 34 66  1  0
 34 67  1  0
M  END
>  <UniqueID>  (1) 
494

>  <SMILES>  (1) 
c1ccc2c(c1)CCN(c1nc(NCCC3CCOCC3)nc([C@H]3CCc4ccccc43)n1)C2

>  <Energy>  (1) 
82.83335883849176

>  <Genealogy>  (1) 
c1ccc2c(c1)CCN(c1nc(NCCC3CCOCC3)nc([C@H]3CCc4ccccc43)n1)C2 (chirality)
c1ccc2c(c1)CCN(c1nc(NCCC3CCOCC3)nc([C@H]3CCc4ccccc43)n1)C2 (3D coordinates assigned)
c1ccc2c(c1)CCN(c1nc(NCCC3CCOCC3)nc([C@H]3CCc4ccccc43)n1)C2 (nonaromatic ring conformer: 82.83335883849176 kcal/mol)

>  <smiles>  (1) 
c1ccc2c(c1)CCN(c1nc(NCCC3CCOCC3)nc(C3CCc4ccccc43)n1)C2

>  <score_type>  (1) 
oracle

>  <origin>  (1) 
autodockgpu

>  <m_score__min__energy>  (1) 
-10.26

>  <m_primary>  (1) 
energy

>  <meeko>  (1) 
{"free_energy": -9.95, "intermolecular_energy": -11.74, "internal_energy": -1.09, "cluster_size": 7, "cluster_id": 1, "rank_in_cluster": 3}

>  <energy>  (1) 
-10.26

>  <cluster_rmsd>  (1) 
0.0

>  <rmsd>  (1) 
271.6

>  <cluster>  (1) 
1

$$$$
AOEMPDNDYKTPOZ-MVXFCSEMNA-N
     RDKit          3D

 67 72  0  0  0  0  0  0  0  0999 V2000
  145.6600   67.3890  219.3600 C   0  0  0  0  0  0  0  0  0  0  0  0
  146.3170   68.6190  219.2900 C   0  0  0  0  0  0  0  0  0  0  0  0
  145.5810   69.8050  219.2820 C   0  0  0  0  0  0  0  0  0  0  0  0
  144.1790   69.7730  219.3560 C   0  0  0  0  0  0  0  0  0  0  0  0
  143.5100   68.5260  219.4070 C   0  0  0  0  0  0  0  0  0  0  0  0
  144.2640   67.3420  219.4240 C   0  0  0  0  0  0  0  0  0  0  0  0
  142.0060   68.4400  219.5550 C   0  0  0  0  0  0  0  0  0  0  0  0
  141.3050   69.7350  219.1380 C   0  0  0  0  0  0  0  0  0  0  0  0
  142.0190   70.8750  219.7150 N   0  0  0  0  0  0  0  0  0  0  0  0
  141.4040   71.7350  220.6940 C   0  0  0  0  0  0  0  0  0  0  0  0
  141.6490   73.0690  220.6770 N   0  0  0  0  0  0  0  0  0  0  0  0
  141.0770   73.8930  221.5910 C   0  0  0  0  0  0  0  0  0  0  0  0
  141.3550   75.2980  221.5720 N   0  0  0  0  0  0  0  0  0  0  0  0
  140.3210   76.2880  221.2750 C   0  0  0  0  0  0  0  0  0  0  0  0
  140.2440   77.3370  222.3950 C   0  0  0  0  0  0  0  0  0  0  0  0
  141.4530   78.3020  222.3900 C   0  0  0  0  0  0  0  0  0  0  0  0
  141.8000   78.7810  223.8230 C   0  0  0  0  0  0  0  0  0  0  0  0
  142.3850   80.2000  223.7980 C   0  0  0  0  0  0  0  0  0  0  0  0
  141.4800   81.1760  223.2950 O   0  0  0  0  0  0  0  0  0  0  0  0
  140.6320   80.7040  222.2510 C   0  0  0  0  0  0  0  0  0  0  0  0
  141.1940   79.5090  221.4590 C   0  0  0  0  0  0  0  0  0  0  0  0
  140.2390   73.3770  222.5250 N   0  0  0  0  0  0  0  0  0  0  0  0
  139.9890   72.0390  222.5550 C   0  0  0  0  0  0  0  0  0  0  0  0
  139.0700   71.4570  223.5940 C   0  0  1  0  0  0  0  0  0  0  0  0
  138.3750   70.1650  223.0990 C   0  0  0  0  0  0  0  0  0  0  0  0
  138.9430   68.9930  223.9210 C   0  0  0  0  0  0  0  0  0  0  0  0
  139.7510   69.6520  224.9740 C   0  0  0  0  0  0  0  0  0  0  0  0
  140.4010   69.0270  226.0410 C   0  0  0  0  0  0  0  0  0  0  0  0
  141.1390   69.8140  226.9350 C   0  0  0  0  0  0  0  0  0  0  0  0
  141.2180   71.2070  226.7530 C   0  0  0  0  0  0  0  0  0  0  0  0
  140.5650   71.8130  225.6690 C   0  0  0  0  0  0  0  0  0  0  0  0
  139.8330   71.0100  224.7880 C   0  0  0  0  0  0  0  0  0  0  0  0
  140.5770   71.2240  221.6410 N   0  0  0  0  0  0  0  0  0  0  0  0
  143.4120   71.0700  219.2930 C   0  0  0  0  0  0  0  0  0  0  0  0
  146.2416   66.4553  219.3648 H   0  0  0  0  0  0  0  0  0  0  0  0
  147.4154   68.6534  219.2411 H   0  0  0  0  0  0  0  0  0  0  0  0
  146.1027   70.7712  219.2173 H   0  0  0  0  0  0  0  0  0  0  0  0
  143.7528   66.3701  219.4881 H   0  0  0  0  0  0  0  0  0  0  0  0
  141.6352   67.6185  218.9245 H   0  0  0  0  0  0  0  0  0  0  0  0
  141.7825   68.2642  220.6176 H   0  0  0  0  0  0  0  0  0  0  0  0
  141.3057   69.8172  218.0411 H   0  0  0  0  0  0  0  0  0  0  0  0
  140.2665   69.7269  219.5007 H   0  0  0  0  0  0  0  0  0  0  0  0
  142.3120   75.6300  221.8390 H   0  0  0  0  0  0  0  0  0  0  0  0
  140.5612   76.7889  220.3256 H   0  0  0  0  0  0  0  0  0  0  0  0
  139.3500   75.7768  221.1985 H   0  0  0  0  0  0  0  0  0  0  0  0
  139.3234   77.9248  222.2645 H   0  0  0  0  0  0  0  0  0  0  0  0
  140.2499   76.8004  223.3552 H   0  0  0  0  0  0  0  0  0  0  0  0
  142.3189   77.7459  222.0014 H   0  0  0  0  0  0  0  0  0  0  0  0
  140.8860   78.7787  224.4350 H   0  0  0  0  0  0  0  0  0  0  0  0
  142.5495   78.0987  224.2505 H   0  0  0  0  0  0  0  0  0  0  0  0
  142.6645   80.4799  224.8244 H   0  0  0  0  0  0  0  0  0  0  0  0
  143.2518   80.1818  223.1211 H   0  0  0  0  0  0  0  0  0  0  0  0
  139.6744   80.3992  222.6983 H   0  0  0  0  0  0  0  0  0  0  0  0
  140.5295   81.5322  221.5344 H   0  0  0  0  0  0  0  0  0  0  0  0
  140.4692   79.2174  220.6847 H   0  0  0  0  0  0  0  0  0  0  0  0
  142.1474   79.8092  220.9997 H   0  0  0  0  0  0  0  0  0  0  0  0
  138.3480   72.2569  223.8150 H   0  0  0  0  0  0  0  0  0  0  0  0
  137.2883   70.2401  223.2524 H   0  0  0  0  0  0  0  0  0  0  0  0
  138.5590   70.0117  222.0254 H   0  0  0  0  0  0  0  0  0  0  0  0
  138.1317   68.3979  224.3657 H   0  0  0  0  0  0  0  0  0  0  0  0
  139.5330   68.2940  223.3100 H   0  0  0  0  0  0  0  0  0  0  0  0
  140.3347   67.9374  226.1768 H   0  0  0  0  0  0  0  0  0  0  0  0
  141.6583   69.3414  227.7818 H   0  0  0  0  0  0  0  0  0  0  0  0
  141.7925   71.8218  227.4615 H   0  0  0  0  0  0  0  0  0  0  0  0
  140.6276   72.9003  225.5147 H   0  0  0  0  0  0  0  0  0  0  0  0
  143.4261   71.4471  218.2598 H   0  0  0  0  0  0  0  0  0  0  0  0
  143.8874   71.7932  219.9719 H   0  0  0  0  0  0  0  0  0  0  0  0
  1  2  2  0
  2  3  1  0
  3  4  2  0
  4  5  1  0
  5  6  2  0
  5  7  1  0
  7  8  1  0
  8  9  1  0
  9 10  1  0
 10 11  2  0
 11 12  1  0
 12 13  1  0
 13 14  1  0
 14 15  1  0
 15 16  1  0
 16 17  1  0
 17 18  1  0
 18 19  1  0
 19 20  1  0
 20 21  1  0
 12 22  2  0
 22 23  1  0
 23 24  1  0
 24 25  1  0
 25 26  1  0
 26 27  1  0
 27 28  2  0
 28 29  1  0
 29 30  2  0
 30 31  1  0
 31 32  2  0
 23 33  2  0
  9 34  1  0
  6  1  1  0
 33 10  1  0
 34  4  1  0
 21 16  1  0
 32 24  1  0
 32 27  1  0
  1 35  1  0
  2 36  1  0
  3 37  1  0
  6 38  1  0
  7 39  1  0
  7 40  1  0
  8 41  1  0
  8 42  1  0
 13 43  1  0
 14 44  1  0
 14 45  1  0
 15 46  1  0
 15 47  1  0
 16 48  1  0
 17 49  1  0
 17 50  1  0
 18 51  1  0
 18 52  1  0
 20 53  1  0
 20 54  1  0
 21 55  1  0
 21 56  1  0
 24 57  1  1
 25 58  1  0
 25 59  1  0
 26 60  1  0
 26 61  1  0
 28 62  1  0
 29 63  1  0
 30 64  1  0
 31 65  1  0
 34 66  1  0
 34 67  1  0
M  END
>  <UniqueID>  (2) 
494

>  <SMILES>  (2) 
c1ccc2c(c1)CCN(c1nc(NCCC3CCOCC3)nc([C@H]3CCc4ccccc43)n1)C2

>  <Energy>  (2) 
82.83335883849176

>  <Genealogy>  (2) 
c1ccc2c(c1)CCN(c1nc(NCCC3CCOCC3)nc([C@H]3CCc4ccccc43)n1)C2 (chirality)
c1ccc2c(c1)CCN(c1nc(NCCC3CCOCC3)nc([C@H]3CCc4ccccc43)n1)C2 (3D coordinates assigned)
c1ccc2c(c1)CCN(c1nc(NCCC3CCOCC3)nc([C@H]3CCc4ccccc43)n1)C2 (nonaromatic ring conformer: 82.83335883849176 kcal/mol)

>  <smiles>  (2) 
c1ccc2c(c1)CCN(c1nc(NCCC3CCOCC3)nc(C3CCc4ccccc43)n1)C2

>  <score_type>  (2) 
oracle

>  <origin>  (2) 
autodockgpu

>  <m_score__min__energy>  (2) 
-10.26

>  <m_primary>  (2) 
energy

>  <meeko>  (2) 
{"free_energy": -9.86, "intermolecular_energy": -11.65, "internal_energy": -1.18, "cluster_size": 3, "cluster_id": 2, "rank_in_cluster": 2}

>  <energy>  (2) 
-10.2

>  <cluster_rmsd>  (2) 
0.14

>  <rmsd>  (2) 
271.6

>  <cluster>  (2) 
1

$$$$
AOEMPDNDYKTPOZ-MVXFCSEMNA-N
     RDKit          3D

 67 72  0  0  0  0  0  0  0  0999 V2000
  145.6370   67.3810  219.3630 C   0  0  0  0  0  0  0  0  0  0  0  0
  146.3070   68.6050  219.3270 C   0  0  0  0  0  0  0  0  0  0  0  0
  145.5830   69.7990  219.3240 C   0  0  0  0  0  0  0  0  0  0  0  0
  144.1790   69.7800  219.3680 C   0  0  0  0  0  0  0  0  0  0  0  0
  143.4970   68.5380  219.3840 C   0  0  0  0  0  0  0  0  0  0  0  0
  144.2400   67.3460  219.3970 C   0  0  0  0  0  0  0  0  0  0  0  0
  141.9900   68.4640  219.4990 C   0  0  0  0  0  0  0  0  0  0  0  0
  141.3100   69.7730  219.0890 C   0  0  0  0  0  0  0  0  0  0  0  0
  142.0220   70.8960  219.7000 N   0  0  0  0  0  0  0  0  0  0  0  0
  141.3950   71.7460  220.6800 C   0  0  0  0  0  0  0  0  0  0  0  0
  141.6300   73.0820  220.6720 N   0  0  0  0  0  0  0  0  0  0  0  0
  141.0470   73.8960  221.5870 C   0  0  0  0  0  0  0  0  0  0  0  0
  141.3150   75.3030  221.5790 N   0  0  0  0  0  0  0  0  0  0  0  0
  140.2660   76.2900  221.3270 C   0  0  0  0  0  0  0  0  0  0  0  0
  140.2370   77.3420  222.4460 C   0  0  0  0  0  0  0  0  0  0  0  0
  141.4780   78.2650  222.4260 C   0  0  0  0  0  0  0  0  0  0  0  0
  141.8000   78.8100  223.8400 C   0  0  0  0  0  0  0  0  0  0  0  0
  142.4330   80.2070  223.7570 C   0  0  0  0  0  0  0  0  0  0  0  0
  141.5770   81.1820  223.1750 O   0  0  0  0  0  0  0  0  0  0  0  0
  140.7440   80.6810  222.1320 C   0  0  0  0  0  0  0  0  0  0  0  0
  141.2880   79.4270  221.4230 C   0  0  0  0  0  0  0  0  0  0  0  0
  140.2060   73.3680  222.5120 N   0  0  0  0  0  0  0  0  0  0  0  0
  139.9660   72.0290  222.5330 C   0  0  0  0  0  0  0  0  0  0  0  0
  139.0450   71.4330  223.5630 C   0  0  1  0  0  0  0  0  0  0  0  0
  138.3520   70.1470  223.0510 C   0  0  0  0  0  0  0  0  0  0  0  0
  138.9190   68.9660  223.8610 C   0  0  0  0  0  0  0  0  0  0  0  0
  139.7220   69.6140  224.9240 C   0  0  0  0  0  0  0  0  0  0  0  0
  140.3700   68.9770  225.9850 C   0  0  0  0  0  0  0  0  0  0  0  0
  141.1040   69.7550  226.8910 C   0  0  0  0  0  0  0  0  0  0  0  0
  141.1830   71.1500  226.7250 C   0  0  0  0  0  0  0  0  0  0  0  0
  140.5320   71.7670  225.6460 C   0  0  0  0  0  0  0  0  0  0  0  0
  139.8040   70.9740  224.7540 C   0  0  0  0  0  0  0  0  0  0  0  0
  140.5650   71.2230  221.6190 N   0  0  0  0  0  0  0  0  0  0  0  0
  143.4260   71.0850  219.3100 C   0  0  0  0  0  0  0  0  0  0  0  0
  146.2096   66.4418  219.3646 H   0  0  0  0  0  0  0  0  0  0  0  0
  147.4064   68.6290  219.3009 H   0  0  0  0  0  0  0  0  0  0  0  0
  146.1155   70.7608  219.2870 H   0  0  0  0  0  0  0  0  0  0  0  0
  143.7188   66.3780  219.4342 H   0  0  0  0  0  0  0  0  0  0  0  0
  141.6249   67.6567  218.8471 H   0  0  0  0  0  0  0  0  0  0  0  0
  141.7424   68.2726  220.5535 H   0  0  0  0  0  0  0  0  0  0  0  0
  141.3349   69.8734  217.9939 H   0  0  0  0  0  0  0  0  0  0  0  0
  140.2640   69.7689  219.4294 H   0  0  0  0  0  0  0  0  0  0  0  0
  142.2770   75.6380  221.8200 H   0  0  0  0  0  0  0  0  0  0  0  0
  140.4615   76.7888  220.3663 H   0  0  0  0  0  0  0  0  0  0  0  0
  139.2939   75.7761  221.2966 H   0  0  0  0  0  0  0  0  0  0  0  0
  139.3356   77.9607  222.3248 H   0  0  0  0  0  0  0  0  0  0  0  0
  140.2350   76.8067  223.4070 H   0  0  0  0  0  0  0  0  0  0  0  0
  142.3350   77.6601  222.0948 H   0  0  0  0  0  0  0  0  0  0  0  0
  140.8694   78.8702  224.4235 H   0  0  0  0  0  0  0  0  0  0  0  0
  142.5140   78.1285  224.3255 H   0  0  0  0  0  0  0  0  0  0  0  0
  142.6916   80.5335  224.7751 H   0  0  0  0  0  0  0  0  0  0  0  0
  143.3180   80.1241  223.1090 H   0  0  0  0  0  0  0  0  0  0  0  0
  139.7641   80.4321  222.5653 H   0  0  0  0  0  0  0  0  0  0  0  0
  140.6905   81.4717  221.3691 H   0  0  0  0  0  0  0  0  0  0  0  0
  140.5768   79.1171  220.6432 H   0  0  0  0  0  0  0  0  0  0  0  0
  142.2640   79.6704  220.9779 H   0  0  0  0  0  0  0  0  0  0  0  0
  138.3216   72.2296  223.7914 H   0  0  0  0  0  0  0  0  0  0  0  0
  137.2649   70.2197  223.2025 H   0  0  0  0  0  0  0  0  0  0  0  0
  138.5384   70.0064  221.9761 H   0  0  0  0  0  0  0  0  0  0  0  0
  138.1072   68.3644  224.2959 H   0  0  0  0  0  0  0  0  0  0  0  0
  139.5120   68.2750  223.2439 H   0  0  0  0  0  0  0  0  0  0  0  0
  140.3055   67.8857  226.1072 H   0  0  0  0  0  0  0  0  0  0  0  0
  141.6200   69.2733  227.7346 H   0  0  0  0  0  0  0  0  0  0  0  0
  141.7555   71.7573  227.4416 H   0  0  0  0  0  0  0  0  0  0  0  0
  140.5934   72.8561  225.5043 H   0  0  0  0  0  0  0  0  0  0  0  0
  143.4652   71.4785  218.2835 H   0  0  0  0  0  0  0  0  0  0  0  0
  143.8938   71.7930  220.0100 H   0  0  0  0  0  0  0  0  0  0  0  0
  1  2  2  0
  2  3  1  0
  3  4  2  0
  4  5  1  0
  5  6  2  0
  5  7  1  0
  7  8  1  0
  8  9  1  0
  9 10  1  0
 10 11  2  0
 11 12  1  0
 12 13  1  0
 13 14  1  0
 14 15  1  0
 15 16  1  0
 16 17  1  0
 17 18  1  0
 18 19  1  0
 19 20  1  0
 20 21  1  0
 12 22  2  0
 22 23  1  0
 23 24  1  0
 24 25  1  0
 25 26  1  0
 26 27  1  0
 27 28  2  0
 28 29  1  0
 29 30  2  0
 30 31  1  0
 31 32  2  0
 23 33  2  0
  9 34  1  0
  6  1  1  0
 33 10  1  0
 34  4  1  0
 21 16  1  0
 32 24  1  0
 32 27  1  0
  1 35  1  0
  2 36  1  0
  3 37  1  0
  6 38  1  0
  7 39  1  0
  7 40  1  0
  8 41  1  0
  8 42  1  0
 13 43  1  0
 14 44  1  0
 14 45  1  0
 15 46  1  0
 15 47  1  0
 16 48  1  0
 17 49  1  0
 17 50  1  0
 18 51  1  0
 18 52  1  0
 20 53  1  0
 20 54  1  0
 21 55  1  0
 21 56  1  0
 24 57  1  1
 25 58  1  0
 25 59  1  0
 26 60  1  0
 26 61  1  0
 28 62  1  0
 29 63  1  0
 30 64  1  0
 31 65  1  0
 34 66  1  0
 34 67  1  0
M  END
>  <UniqueID>  (3) 
494

>  <SMILES>  (3) 
c1ccc2c(c1)CCN(c1nc(NCCC3CCOCC3)nc([C@H]3CCc4ccccc43)n1)C2

>  <Energy>  (3) 
82.83335883849176

>  <Genealogy>  (3) 
c1ccc2c(c1)CCN(c1nc(NCCC3CCOCC3)nc([C@H]3CCc4ccccc43)n1)C2 (chirality)
c1ccc2c(c1)CCN(c1nc(NCCC3CCOCC3)nc([C@H]3CCc4ccccc43)n1)C2 (3D coordinates assigned)
c1ccc2c(c1)CCN(c1nc(NCCC3CCOCC3)nc([C@H]3CCc4ccccc43)n1)C2 (nonaromatic ring conformer: 82.83335883849176 kcal/mol)

>  <smiles>  (3) 
c1ccc2c(c1)CCN(c1nc(NCCC3CCOCC3)nc(C3CCc4ccccc43)n1)C2

>  <score_type>  (3) 
oracle

>  <origin>  (3) 
autodockgpu

>  <m_score__min__energy>  (3) 
-10.26

>  <m_primary>  (3) 
energy

>  <meeko>  (3) 
{"free_energy": -9.85, "intermolecular_energy": -11.64, "internal_energy": -1.18, "cluster_size": 3, "cluster_id": 2, "rank_in_cluster": 3}

>  <energy>  (3) 
-9.95

>  <cluster_rmsd>  (3) 
1.81

>  <rmsd>  (3) 
271.56

>  <cluster>  (3) 
1

$$$$
AOEMPDNDYKTPOZ-MVXFCSEMNA-N
     RDKit          3D

 67 72  0  0  0  0  0  0  0  0999 V2000
  139.9560   68.6950  228.1460 C   0  0  0  0  0  0  0  0  0  0  0  0
  140.8150   69.7880  228.2770 C   0  0  0  0  0  0  0  0  0  0  0  0
  141.0840   70.6020  227.1750 C   0  0  0  0  0  0  0  0  0  0  0  0
  140.4850   70.3370  225.9320 C   0  0  0  0  0  0  0  0  0  0  0  0
  139.6300   69.2170  225.7920 C   0  0  0  0  0  0  0  0  0  0  0  0
  139.3610   68.4130  226.9120 C   0  0  0  0  0  0  0  0  0  0  0  0
  138.9090   68.9280  224.4930 C   0  0  0  0  0  0  0  0  0  0  0  0
  139.5700   69.6140  223.2960 C   0  0  0  0  0  0  0  0  0  0  0  0
  139.8860   70.9990  223.6490 N   0  0  0  0  0  0  0  0  0  0  0  0
  139.2530   72.1120  222.9870 C   0  0  0  0  0  0  0  0  0  0  0  0
  140.0070   73.0490  222.3600 N   0  0  0  0  0  0  0  0  0  0  0  0
  139.4250   74.1010  221.7320 C   0  0  0  0  0  0  0  0  0  0  0  0
  140.2330   75.0930  221.0850 N   0  0  0  0  0  0  0  0  0  0  0  0
  141.6920   75.0860  221.1810 C   0  0  0  0  0  0  0  0  0  0  0  0
  142.2870   74.0130  220.2560 C   0  0  0  0  0  0  0  0  0  0  0  0
  143.5790   73.3860  220.8280 C   0  0  0  0  0  0  0  0  0  0  0  0
  144.8060   74.3020  220.5860 C   0  0  0  0  0  0  0  0  0  0  0  0
  146.0850   73.4690  220.4130 C   0  0  0  0  0  0  0  0  0  0  0  0
  146.0460   72.6020  219.2850 O   0  0  0  0  0  0  0  0  0  0  0  0
  144.7600   72.0520  219.0130 C   0  0  0  0  0  0  0  0  0  0  0  0
  143.8230   71.9790  220.2330 C   0  0  0  0  0  0  0  0  0  0  0  0
  138.0730   74.2100  221.7190 N   0  0  0  0  0  0  0  0  0  0  0  0
  137.3060   73.2780  222.3480 C   0  0  0  0  0  0  0  0  0  0  0  0
  135.8070   73.3970  222.3490 C   0  0  1  0  0  0  0  0  0  0  0  0
  135.1130   72.0140  222.2920 C   0  0  0  0  0  0  0  0  0  0  0  0
  134.4190   71.7910  223.6490 C   0  0  0  0  0  0  0  0  0  0  0  0
  134.5440   73.0990  224.3340 C   0  0  0  0  0  0  0  0  0  0  0  0
  133.9880   73.4520  225.5660 C   0  0  0  0  0  0  0  0  0  0  0  0
  134.2280   74.7380  226.0700 C   0  0  0  0  0  0  0  0  0  0  0  0
  135.0160   75.6480  225.3420 C   0  0  0  0  0  0  0  0  0  0  0  0
  135.5720   75.2690  224.1110 C   0  0  0  0  0  0  0  0  0  0  0  0
  135.3200   73.9830  223.6250 C   0  0  0  0  0  0  0  0  0  0  0  0
  137.9000   72.2350  222.9840 N   0  0  0  0  0  0  0  0  0  0  0  0
  140.8370   71.2040  224.7500 C   0  0  0  0  0  0  0  0  0  0  0  0
  139.7467   68.0543  229.0153 H   0  0  0  0  0  0  0  0  0  0  0  0
  141.2802   70.0079  229.2492 H   0  0  0  0  0  0  0  0  0  0  0  0
  141.7691   71.4561  227.2806 H   0  0  0  0  0  0  0  0  0  0  0  0
  138.6779   67.5560  226.8180 H   0  0  0  0  0  0  0  0  0  0  0  0
  138.9096   67.8413  224.3224 H   0  0  0  0  0  0  0  0  0  0  0  0
  137.8853   69.3205  224.5822 H   0  0  0  0  0  0  0  0  0  0  0  0
  140.4955   69.0814  223.0317 H   0  0  0  0  0  0  0  0  0  0  0  0
  138.8839   69.5991  222.4363 H   0  0  0  0  0  0  0  0  0  0  0  0
  139.7690   75.8070  220.4770 H   0  0  0  0  0  0  0  0  0  0  0  0
  142.0789   76.0727  220.8866 H   0  0  0  0  0  0  0  0  0  0  0  0
  141.9792   74.8602  222.2186 H   0  0  0  0  0  0  0  0  0  0  0  0
  141.5414   73.2167  220.1147 H   0  0  0  0  0  0  0  0  0  0  0  0
  142.5457   74.4996  219.3040 H   0  0  0  0  0  0  0  0  0  0  0  0
  143.4436   73.2822  221.9147 H   0  0  0  0  0  0  0  0  0  0  0  0
  144.6377   74.8970  219.6762 H   0  0  0  0  0  0  0  0  0  0  0  0
  144.9305   74.9610  221.4579 H   0  0  0  0  0  0  0  0  0  0  0  0
  146.9357   74.1564  220.2953 H   0  0  0  0  0  0  0  0  0  0  0  0
  146.1835   72.8353  221.3067 H   0  0  0  0  0  0  0  0  0  0  0  0
  144.2762   72.6740  218.2455 H   0  0  0  0  0  0  0  0  0  0  0  0
  144.9271   71.0152  218.6857 H   0  0  0  0  0  0  0  0  0  0  0  0
  142.8600   71.5478  219.9220 H   0  0  0  0  0  0  0  0  0  0  0  0
  144.2959   71.3500  221.0016 H   0  0  0  0  0  0  0  0  0  0  0  0
  135.5706   74.0154  221.4705 H   0  0  0  0  0  0  0  0  0  0  0  0
  134.3687   71.9998  221.4822 H   0  0  0  0  0  0  0  0  0  0  0  0
  135.8471   71.2187  222.0957 H   0  0  0  0  0  0  0  0  0  0  0  0
  133.3616   71.5228  223.5081 H   0  0  0  0  0  0  0  0  0  0  0  0
  134.8673   70.9672  224.2238 H   0  0  0  0  0  0  0  0  0  0  0  0
  133.3736   72.7346  226.1298 H   0  0  0  0  0  0  0  0  0  0  0  0
  133.7988   75.0364  227.0378 H   0  0  0  0  0  0  0  0  0  0  0  0
  135.1965   76.6581  225.7385 H   0  0  0  0  0  0  0  0  0  0  0  0
  136.1953   75.9716  223.5384 H   0  0  0  0  0  0  0  0  0  0  0  0
  141.8493   70.9480  224.4041 H   0  0  0  0  0  0  0  0  0  0  0  0
  140.7930   72.2581  225.0613 H   0  0  0  0  0  0  0  0  0  0  0  0
  1  2  2  0
  2  3  1  0
  3  4  2  0
  4  5  1  0
  5  6  2  0
  5  7  1  0
  7  8  1  0
  8  9  1  0
  9 10  1  0
 10 11  2  0
 11 12  1  0
 12 13  1  0
 13 14  1  0
 14 15  1  0
 15 16  1  0
 16 17  1  0
 17 18  1  0
 18 19  1  0
 19 20  1  0
 20 21  1  0
 12 22  2  0
 22 23  1  0
 23 24  1  0
 24 25  1  0
 25 26  1  0
 26 27  1  0
 27 28  2  0
 28 29  1  0
 29 30  2  0
 30 31  1  0
 31 32  2  0
 23 33  2  0
  9 34  1  0
  6  1  1  0
 33 10  1  0
 34  4  1  0
 21 16  1  0
 32 24  1  0
 32 27  1  0
  1 35  1  0
  2 36  1  0
  3 37  1  0
  6 38  1  0
  7 39  1  0
  7 40  1  0
  8 41  1  0
  8 42  1  0
 13 43  1  0
 14 44  1  0
 14 45  1  0
 15 46  1  0
 15 47  1  0
 16 48  1  0
 17 49  1  0
 17 50  1  0
 18 51  1  0
 18 52  1  0
 20 53  1  0
 20 54  1  0
 21 55  1  0
 21 56  1  0
 24 57  1  6
 25 58  1  0
 25 59  1  0
 26 60  1  0
 26 61  1  0
 28 62  1  0
 29 63  1  0
 30 64  1  0
 31 65  1  0
 34 66  1  0
 34 67  1  0
M  END
>  <UniqueID>  (4) 
494

>  <SMILES>  (4) 
c1ccc2c(c1)CCN(c1nc(NCCC3CCOCC3)nc([C@H]3CCc4ccccc43)n1)C2

>  <Energy>  (4) 
82.83335883849176

>  <Genealogy>  (4) 
c1ccc2c(c1)CCN(c1nc(NCCC3CCOCC3)nc([C@H]3CCc4ccccc43)n1)C2 (chirality)
c1ccc2c(c1)CCN(c1nc(NCCC3CCOCC3)nc([C@H]3CCc4ccccc43)n1)C2 (3D coordinates assigned)
c1ccc2c(c1)CCN(c1nc(NCCC3CCOCC3)nc([C@H]3CCc4ccccc43)n1)C2 (nonaromatic ring conformer: 82.83335883849176 kcal/mol)

>  <smiles>  (4) 
c1ccc2c(c1)CCN(c1nc(NCCC3CCOCC3)nc(C3CCc4ccccc43)n1)C2

>  <score_type>  (4) 
oracle

>  <origin>  (4) 
autodockgpu

>  <m_score__min__energy>  (4) 
-10.26

>  <m_primary>  (4) 
energy

>  <meeko>  (4) 
{"free_energy": -9.0, "intermolecular_energy": -10.79, "internal_energy": -1.38, "cluster_size": 2, "cluster_id": 5, "rank_in_cluster": 1}

>  <energy>  (4) 
-9.95

>  <cluster_rmsd>  (4) 
1.92

>  <rmsd>  (4) 
271.22

>  <cluster>  (4) 
1

$$$$
AOEMPDNDYKTPOZ-MVXFCSEMNA-N
     RDKit          3D

 67 72  0  0  0  0  0  0  0  0999 V2000
  141.7640   80.3900  222.8810 C   0  0  0  0  0  0  0  0  0  0  0  0
  140.6570   79.9930  223.6320 C   0  0  0  0  0  0  0  0  0  0  0  0
  140.0120   78.7890  223.3450 C   0  0  0  0  0  0  0  0  0  0  0  0
  140.4770   77.9620  222.3100 C   0  0  0  0  0  0  0  0  0  0  0  0
  141.5890   78.3720  221.5340 C   0  0  0  0  0  0  0  0  0  0  0  0
  142.2330   79.5820  221.8400 C   0  0  0  0  0  0  0  0  0  0  0  0
  142.1690   77.4870  220.4520 C   0  0  0  0  0  0  0  0  0  0  0  0
  141.1750   76.4270  219.9720 C   0  0  0  0  0  0  0  0  0  0  0  0
  140.5300   75.8120  221.1330 N   0  0  0  0  0  0  0  0  0  0  0  0
  140.7170   74.4200  221.4540 C   0  0  0  0  0  0  0  0  0  0  0  0
  139.9130   73.8170  222.3640 N   0  0  0  0  0  0  0  0  0  0  0  0
  140.0760   72.5070  222.6760 C   0  0  0  0  0  0  0  0  0  0  0  0
  139.2300   71.8850  223.6510 N   0  0  0  0  0  0  0  0  0  0  0  0
  139.7410   70.9020  224.6050 C   0  0  0  0  0  0  0  0  0  0  0  0
  140.8800   71.5060  225.4410 C   0  0  0  0  0  0  0  0  0  0  0  0
  141.3900   70.5400  226.5360 C   0  0  0  0  0  0  0  0  0  0  0  0
  140.9490   69.0810  226.2530 C   0  0  0  0  0  0  0  0  0  0  0  0
  140.7420   68.3080  227.5640 C   0  0  0  0  0  0  0  0  0  0  0  0
  139.7130   68.8510  228.3830 O   0  0  0  0  0  0  0  0  0  0  0  0
  139.6150   70.2720  228.3360 C   0  0  0  0  0  0  0  0  0  0  0  0
  140.9160   70.9920  227.9380 C   0  0  0  0  0  0  0  0  0  0  0  0
  141.0450   71.7870  222.0580 N   0  0  0  0  0  0  0  0  0  0  0  0
  141.8620   72.3810  221.1440 C   0  0  0  0  0  0  0  0  0  0  0  0
  142.9470   71.5950  220.4620 C   0  0  1  0  0  0  0  0  0  0  0  0
  142.6440   71.3630  218.9620 C   0  0  0  0  0  0  0  0  0  0  0  0
  143.6660   72.1840  218.1540 C   0  0  0  0  0  0  0  0  0  0  0  0
  144.6270   72.6640  219.1750 C   0  0  0  0  0  0  0  0  0  0  0  0
  145.8040   73.3790  218.9410 C   0  0  0  0  0  0  0  0  0  0  0  0
  146.5860   73.7670  220.0390 C   0  0  0  0  0  0  0  0  0  0  0  0
  146.1810   73.4420  221.3460 C   0  0  0  0  0  0  0  0  0  0  0  0
  144.9890   72.7310  221.5580 C   0  0  0  0  0  0  0  0  0  0  0  0
  144.2260   72.3520  220.4500 C   0  0  0  0  0  0  0  0  0  0  0  0
  141.6960   73.6970  220.8500 N   0  0  0  0  0  0  0  0  0  0  0  0
  139.7270   76.6930  221.9920 C   0  0  0  0  0  0  0  0  0  0  0  0
  142.2690   81.3405  223.1081 H   0  0  0  0  0  0  0  0  0  0  0  0
  140.2922   80.6298  224.4514 H   0  0  0  0  0  0  0  0  0  0  0  0
  139.1335   78.4860  223.9336 H   0  0  0  0  0  0  0  0  0  0  0  0
  143.1116   79.8962  221.2574 H   0  0  0  0  0  0  0  0  0  0  0  0
  142.4554   78.1162  219.5964 H   0  0  0  0  0  0  0  0  0  0  0  0
  143.0390   76.9642  220.8761 H   0  0  0  0  0  0  0  0  0  0  0  0
  140.4128   76.8991  219.3347 H   0  0  0  0  0  0  0  0  0  0  0  0
  141.7062   75.6571  219.3931 H   0  0  0  0  0  0  0  0  0  0  0  0
  138.2300   72.1880  223.7230 H   0  0  0  0  0  0  0  0  0  0  0  0
  138.9262   70.5900  225.2749 H   0  0  0  0  0  0  0  0  0  0  0  0
  140.1280   70.0349  224.0498 H   0  0  0  0  0  0  0  0  0  0  0  0
  141.7167   71.7523  224.7708 H   0  0  0  0  0  0  0  0  0  0  0  0
  140.4860   72.4016  225.9436 H   0  0  0  0  0  0  0  0  0  0  0  0
  142.4895   70.5693  226.5175 H   0  0  0  0  0  0  0  0  0  0  0  0
  140.0048   69.0930  225.6888 H   0  0  0  0  0  0  0  0  0  0  0  0
  141.7375   68.5817  225.6709 H   0  0  0  0  0  0  0  0  0  0  0  0
  140.4801   67.2683  227.3182 H   0  0  0  0  0  0  0  0  0  0  0  0
  141.6807   68.3765  228.1334 H   0  0  0  0  0  0  0  0  0  0  0  0
  138.8381   70.5382  227.6042 H   0  0  0  0  0  0  0  0  0  0  0  0
  139.3768   70.6017  229.3580 H   0  0  0  0  0  0  0  0  0  0  0  0
  140.7377   72.0774  227.9254 H   0  0  0  0  0  0  0  0  0  0  0  0
  141.6961   70.7395  228.6713 H   0  0  0  0  0  0  0  0  0  0  0  0
  143.0080   70.6505  221.0225 H   0  0  0  0  0  0  0  0  0  0  0  0
  142.7434   70.2948  218.7191 H   0  0  0  0  0  0  0  0  0  0  0  0
  141.6171   71.6745  218.7203 H   0  0  0  0  0  0  0  0  0  0  0  0
  144.1711   71.5538  217.4072 H   0  0  0  0  0  0  0  0  0  0  0  0
  143.1993   73.0063  217.5919 H   0  0  0  0  0  0  0  0  0  0  0  0
  146.1116   73.6328  217.9158 H   0  0  0  0  0  0  0  0  0  0  0  0
  147.5188   74.3271  219.8773 H   0  0  0  0  0  0  0  0  0  0  0  0
  146.7992   73.7454  222.2037 H   0  0  0  0  0  0  0  0  0  0  0  0
  144.6618   72.4770  222.5770 H   0  0  0  0  0  0  0  0  0  0  0  0
  138.7915   76.9479  221.4725 H   0  0  0  0  0  0  0  0  0  0  0  0
  139.5118   76.1661  222.9333 H   0  0  0  0  0  0  0  0  0  0  0  0
  1  2  2  0
  2  3  1  0
  3  4  2  0
  4  5  1  0
  5  6  2  0
  5  7  1  0
  7  8  1  0
  8  9  1  0
  9 10  1  0
 10 11  2  0
 11 12  1  0
 12 13  1  0
 13 14  1  0
 14 15  1  0
 15 16  1  0
 16 17  1  0
 17 18  1  0
 18 19  1  0
 19 20  1  0
 20 21  1  0
 12 22  2  0
 22 23  1  0
 23 24  1  0
 24 25  1  0
 25 26  1  0
 26 27  1  0
 27 28  2  0
 28 29  1  0
 29 30  2  0
 30 31  1  0
 31 32  2  0
 23 33  2  0
  9 34  1  0
  6  1  1  0
 33 10  1  0
 34  4  1  0
 21 16  1  0
 32 24  1  0
 32 27  1  0
  1 35  1  0
  2 36  1  0
  3 37  1  0
  6 38  1  0
  7 39  1  0
  7 40  1  0
  8 41  1  0
  8 42  1  0
 13 43  1  0
 14 44  1  0
 14 45  1  0
 15 46  1  0
 15 47  1  0
 16 48  1  0
 17 49  1  0
 17 50  1  0
 18 51  1  0
 18 52  1  0
 20 53  1  0
 20 54  1  0
 21 55  1  0
 21 56  1  0
 24 57  1  1
 25 58  1  0
 25 59  1  0
 26 60  1  0
 26 61  1  0
 28 62  1  0
 29 63  1  0
 30 64  1  0
 31 65  1  0
 34 66  1  0
 34 67  1  0
M  END
>  <UniqueID>  (5) 
494

>  <SMILES>  (5) 
c1ccc2c(c1)CCN(c1nc(NCCC3CCOCC3)nc([C@H]3CCc4ccccc43)n1)C2

>  <Energy>  (5) 
82.83335883849176

>  <Genealogy>  (5) 
c1ccc2c(c1)CCN(c1nc(NCCC3CCOCC3)nc([C@H]3CCc4ccccc43)n1)C2 (chirality)
c1ccc2c(c1)CCN(c1nc(NCCC3CCOCC3)nc([C@H]3CCc4ccccc43)n1)C2 (3D coordinates assigned)
c1ccc2c(c1)CCN(c1nc(NCCC3CCOCC3)nc([C@H]3CCc4ccccc43)n1)C2 (nonaromatic ring conformer: 82.83335883849176 kcal/mol)

>  <smiles>  (5) 
c1ccc2c(c1)CCN(c1nc(NCCC3CCOCC3)nc(C3CCc4ccccc43)n1)C2

>  <score_type>  (5) 
oracle

>  <origin>  (5) 
autodockgpu

>  <m_score__min__energy>  (5) 
-10.26

>  <m_primary>  (5) 
energy

>  <meeko>  (5) 
{"free_energy": -10.26, "intermolecular_energy": -12.05, "internal_energy": -1.41, "cluster_size": 7, "cluster_id": 1, "rank_in_cluster": 1}

>  <energy>  (5) 
-9.77

>  <cluster_rmsd>  (5) 
1.77

>  <rmsd>  (5) 
271.07

>  <cluster>  (5) 
1

$$$$
AOEMPDNDYKTPOZ-MVXFCSEMNA-N
     RDKit          3D

 67 72  0  0  0  0  0  0  0  0999 V2000
  142.6600   80.9920  223.0800 C   0  0  0  0  0  0  0  0  0  0  0  0
  142.0160   80.4250  224.1800 C   0  0  0  0  0  0  0  0  0  0  0  0
  141.2700   79.2540  224.0270 C   0  0  0  0  0  0  0  0  0  0  0  0
  141.1720   78.6330  222.7720 C   0  0  0  0  0  0  0  0  0  0  0  0
  141.8080   79.2180  221.6500 C   0  0  0  0  0  0  0  0  0  0  0  0
  142.5620   80.3900  221.8210 C   0  0  0  0  0  0  0  0  0  0  0  0
  141.7870   78.5520  220.2910 C   0  0  0  0  0  0  0  0  0  0  0  0
  140.6480   77.5390  220.1560 C   0  0  0  0  0  0  0  0  0  0  0  0
  140.5960   76.7110  221.3630 N   0  0  0  0  0  0  0  0  0  0  0  0
  140.8620   75.2960  221.3200 C   0  0  0  0  0  0  0  0  0  0  0  0
  140.2540   74.4620  222.2010 N   0  0  0  0  0  0  0  0  0  0  0  0
  140.4940   73.1270  222.1740 C   0  0  0  0  0  0  0  0  0  0  0  0
  139.8570   72.2590  223.1200 N   0  0  0  0  0  0  0  0  0  0  0  0
  140.5550   71.1220  223.7180 C   0  0  0  0  0  0  0  0  0  0  0  0
  140.7260   71.3320  225.2310 C   0  0  0  0  0  0  0  0  0  0  0  0
  139.9610   70.2800  226.0670 C   0  0  0  0  0  0  0  0  0  0  0  0
  140.8880   69.1140  226.4940 C   0  0  0  0  0  0  0  0  0  0  0  0
  140.1000   67.8000  226.6030 C   0  0  0  0  0  0  0  0  0  0  0  0
  139.5270   67.3810  225.3700 O   0  0  0  0  0  0  0  0  0  0  0  0
  139.0790   68.4490  224.5400 C   0  0  0  0  0  0  0  0  0  0  0  0
  138.7320   69.7460  225.2940 C   0  0  0  0  0  0  0  0  0  0  0  0
  141.3390   72.6180  221.2440 N   0  0  0  0  0  0  0  0  0  0  0  0
  141.9590   73.4440  220.3560 C   0  0  0  0  0  0  0  0  0  0  0  0
  142.9070   72.8900  219.3290 C   0  0  1  0  0  0  0  0  0  0  0  0
  144.3780   73.2620  219.6340 C   0  0  0  0  0  0  0  0  0  0  0  0
  145.1100   71.9630  220.0220 C   0  0  0  0  0  0  0  0  0  0  0  0
  144.1280   70.8950  219.7220 C   0  0  0  0  0  0  0  0  0  0  0  0
  144.3400   69.5170  219.8110 C   0  0  0  0  0  0  0  0  0  0  0  0
  143.2820   68.6510  219.5020 C   0  0  0  0  0  0  0  0  0  0  0  0
  142.0330   69.1690  219.1150 C   0  0  0  0  0  0  0  0  0  0  0  0
  141.8390   70.5570  219.0420 C   0  0  0  0  0  0  0  0  0  0  0  0
  142.9070   71.4040  219.3520 C   0  0  0  0  0  0  0  0  0  0  0  0
  141.7200   74.7800  220.4020 N   0  0  0  0  0  0  0  0  0  0  0  0
  140.3160   77.3990  222.6300 C   0  0  0  0  0  0  0  0  0  0  0  0
  143.2462   81.9146  223.2029 H   0  0  0  0  0  0  0  0  0  0  0  0
  142.0958   80.9005  225.1687 H   0  0  0  0  0  0  0  0  0  0  0  0
  140.7562   78.8158  224.8953 H   0  0  0  0  0  0  0  0  0  0  0  0
  143.0790   80.8377  220.9595 H   0  0  0  0  0  0  0  0  0  0  0  0
  141.6642   79.3266  219.5197 H   0  0  0  0  0  0  0  0  0  0  0  0
  142.7356   78.0087  220.1688 H   0  0  0  0  0  0  0  0  0  0  0  0
  139.6936   78.0722  220.0339 H   0  0  0  0  0  0  0  0  0  0  0  0
  140.8222   76.9012  219.2769 H   0  0  0  0  0  0  0  0  0  0  0  0
  138.8850   72.4810  223.4380 H   0  0  0  0  0  0  0  0  0  0  0  0
  139.9715   70.2061  223.5431 H   0  0  0  0  0  0  0  0  0  0  0  0
  141.5493   71.0315  223.2563 H   0  0  0  0  0  0  0  0  0  0  0  0
  141.7962   71.2673  225.4770 H   0  0  0  0  0  0  0  0  0  0  0  0
  140.3120   72.3204  225.4793 H   0  0  0  0  0  0  0  0  0  0  0  0
  139.6044   70.7784  226.9805 H   0  0  0  0  0  0  0  0  0  0  0  0
  141.6853   68.9950  225.7456 H   0  0  0  0  0  0  0  0  0  0  0  0
  141.3180   69.3490  227.4788 H   0  0  0  0  0  0  0  0  0  0  0  0
  140.7822   67.0126  226.9559 H   0  0  0  0  0  0  0  0  0  0  0  0
  139.2704   67.9760  227.3035 H   0  0  0  0  0  0  0  0  0  0  0  0
  139.8741   68.6763  223.8146 H   0  0  0  0  0  0  0  0  0  0  0  0
  138.1475   68.1055  224.0664 H   0  0  0  0  0  0  0  0  0  0  0  0
  138.4032   70.5065  224.5704 H   0  0  0  0  0  0  0  0  0  0  0  0
  137.9297   69.5299  226.0149 H   0  0  0  0  0  0  0  0  0  0  0  0
  142.5648   73.3083  218.3709 H   0  0  0  0  0  0  0  0  0  0  0  0
  144.8462   73.7058  218.7430 H   0  0  0  0  0  0  0  0  0  0  0  0
  144.4318   73.9972  220.4505 H   0  0  0  0  0  0  0  0  0  0  0  0
  146.0230   71.8345  219.4220 H   0  0  0  0  0  0  0  0  0  0  0  0
  145.4338   71.9573  221.0732 H   0  0  0  0  0  0  0  0  0  0  0  0
  145.3186   69.1192  220.1177 H   0  0  0  0  0  0  0  0  0  0  0  0
  143.4291   67.5626  219.5624 H   0  0  0  0  0  0  0  0  0  0  0  0
  141.2071   68.4853  218.8692 H   0  0  0  0  0  0  0  0  0  0  0  0
  140.8638   70.9711  218.7461 H   0  0  0  0  0  0  0  0  0  0  0  0
  139.2558   77.6911  222.6548 H   0  0  0  0  0  0  0  0  0  0  0  0
  140.5449   76.7145  223.4601 H   0  0  0  0  0  0  0  0  0  0  0  0
  1  2  2  0
  2  3  1  0
  3  4  2  0
  4  5  1  0
  5  6  2  0
  5  7  1  0
  7  8  1  0
  8  9  1  0
  9 10  1  0
 10 11  2  0
 11 12  1  0
 12 13  1  0
 13 14  1  0
 14 15  1  0
 15 16  1  0
 16 17  1  0
 17 18  1  0
 18 19  1  0
 19 20  1  0
 20 21  1  0
 12 22  2  0
 22 23  1  0
 23 24  1  0
 24 25  1  0
 25 26  1  0
 26 27  1  0
 27 28  2  0
 28 29  1  0
 29 30  2  0
 30 31  1  0
 31 32  2  0
 23 33  2  0
  9 34  1  0
  6  1  1  0
 33 10  1  0
 34  4  1  0
 21 16  1  0
 32 24  1  0
 32 27  1  0
  1 35  1  0
  2 36  1  0
  3 37  1  0
  6 38  1  0
  7 39  1  0
  7 40  1  0
  8 41  1  0
  8 42  1  0
 13 43  1  0
 14 44  1  0
 14 45  1  0
 15 46  1  0
 15 47  1  0
 16 48  1  0
 17 49  1  0
 17 50  1  0
 18 51  1  0
 18 52  1  0
 20 53  1  0
 20 54  1  0
 21 55  1  0
 21 56  1  0
 24 57  1  6
 25 58  1  0
 25 59  1  0
 26 60  1  0
 26 61  1  0
 28 62  1  0
 29 63  1  0
 30 64  1  0
 31 65  1  0
 34 66  1  0
 34 67  1  0
M  END
>  <UniqueID>  (6) 
494

>  <SMILES>  (6) 
c1ccc2c(c1)CCN(c1nc(NCCC3CCOCC3)nc([C@H]3CCc4ccccc43)n1)C2

>  <Energy>  (6) 
82.83335883849176

>  <Genealogy>  (6) 
c1ccc2c(c1)CCN(c1nc(NCCC3CCOCC3)nc([C@H]3CCc4ccccc43)n1)C2 (chirality)
c1ccc2c(c1)CCN(c1nc(NCCC3CCOCC3)nc([C@H]3CCc4ccccc43)n1)C2 (3D coordinates assigned)
c1ccc2c(c1)CCN(c1nc(NCCC3CCOCC3)nc([C@H]3CCc4ccccc43)n1)C2 (nonaromatic ring conformer: 82.83335883849176 kcal/mol)

>  <smiles>  (6) 
c1ccc2c(c1)CCN(c1nc(NCCC3CCOCC3)nc(C3CCc4ccccc43)n1)C2

>  <score_type>  (6) 
oracle

>  <origin>  (6) 
autodockgpu

>  <m_score__min__energy>  (6) 
-10.26

>  <m_primary>  (6) 
energy

>  <meeko>  (6) 
{"free_energy": -9.77, "intermolecular_energy": -11.56, "internal_energy": -1.2, "cluster_size": 7, "cluster_id": 1, "rank_in_cluster": 5}

>  <energy>  (6) 
-9.7

>  <cluster_rmsd>  (6) 
0.35

>  <rmsd>  (6) 
271.61

>  <cluster>  (6) 
1

$$$$
AOEMPDNDYKTPOZ-MVXFCSEMNA-N
     RDKit          3D

 67 72  0  0  0  0  0  0  0  0999 V2000
  142.1710   81.3790  222.4020 C   0  0  0  0  0  0  0  0  0  0  0  0
  142.4070   80.7610  223.6310 C   0  0  0  0  0  0  0  0  0  0  0  0
  142.0460   79.4260  223.8240 C   0  0  0  0  0  0  0  0  0  0  0  0
  141.4550   78.6920  222.7830 C   0  0  0  0  0  0  0  0  0  0  0  0
  141.1960   79.3220  221.5420 C   0  0  0  0  0  0  0  0  0  0  0  0
  141.5740   80.6630  221.3600 C   0  0  0  0  0  0  0  0  0  0  0  0
  140.6230   78.5570  220.3680 C   0  0  0  0  0  0  0  0  0  0  0  0
  139.9160   77.2710  220.8020 C   0  0  0  0  0  0  0  0  0  0  0  0
  140.7520   76.5690  221.7780 N   0  0  0  0  0  0  0  0  0  0  0  0
  141.3230   75.2770  221.4950 C   0  0  0  0  0  0  0  0  0  0  0  0
  140.7270   74.1520  221.9640 N   0  0  0  0  0  0  0  0  0  0  0  0
  141.2510   72.9280  221.7060 C   0  0  0  0  0  0  0  0  0  0  0  0
  140.6210   71.7480  222.2200 N   0  0  0  0  0  0  0  0  0  0  0  0
  139.8360   71.7640  223.4530 C   0  0  0  0  0  0  0  0  0  0  0  0
  140.6900   71.2940  224.6410 C   0  0  0  0  0  0  0  0  0  0  0  0
  139.8970   70.4050  225.6270 C   0  0  0  0  0  0  0  0  0  0  0  0
  140.7680   69.2430  226.1670 C   0  0  0  0  0  0  0  0  0  0  0  0
  139.9070   68.0070  226.4660 C   0  0  0  0  0  0  0  0  0  0  0  0
  139.2600   67.4770  225.3150 O   0  0  0  0  0  0  0  0  0  0  0  0
  138.8440   68.4610  224.3720 C   0  0  0  0  0  0  0  0  0  0  0  0
  138.6070   69.8610  224.9680 C   0  0  0  0  0  0  0  0  0  0  0  0
  142.3770   72.8270  220.9560 N   0  0  0  0  0  0  0  0  0  0  0  0
  142.9870   73.9480  220.4820 C   0  0  0  0  0  0  0  0  0  0  0  0
  144.2420   73.8460  219.6600 C   0  0  1  0  0  0  0  0  0  0  0  0
  145.5130   74.1220  220.5000 C   0  0  0  0  0  0  0  0  0  0  0  0
  146.2870   72.7950  220.6120 C   0  0  0  0  0  0  0  0  0  0  0  0
  145.5780   71.8870  219.6800 C   0  0  0  0  0  0  0  0  0  0  0  0
  145.9480   70.5830  219.3430 C   0  0  0  0  0  0  0  0  0  0  0  0
  145.1410   69.8620  218.4510 C   0  0  0  0  0  0  0  0  0  0  0  0
  143.9810   70.4500  217.9140 C   0  0  0  0  0  0  0  0  0  0  0  0
  143.6230   71.7580  218.2750 C   0  0  0  0  0  0  0  0  0  0  0  0
  144.4420   72.4600  219.1640 C   0  0  0  0  0  0  0  0  0  0  0  0
  142.4580   75.1680  220.7580 N   0  0  0  0  0  0  0  0  0  0  0  0
  141.0300   77.2680  223.0400 C   0  0  0  0  0  0  0  0  0  0  0  0
  142.4552   82.4311  222.2529 H   0  0  0  0  0  0  0  0  0  0  0  0
  142.8780   81.3264  224.4486 H   0  0  0  0  0  0  0  0  0  0  0  0
  142.2257   78.9464  224.7975 H   0  0  0  0  0  0  0  0  0  0  0  0
  141.3990   81.1530  220.3908 H   0  0  0  0  0  0  0  0  0  0  0  0
  139.8988   79.2000  219.8463 H   0  0  0  0  0  0  0  0  0  0  0  0
  141.4582   78.2760  219.7096 H   0  0  0  0  0  0  0  0  0  0  0  0
  138.9469   77.5200  221.2589 H   0  0  0  0  0  0  0  0  0  0  0  0
  139.7494   76.6267  219.9262 H   0  0  0  0  0  0  0  0  0  0  0  0
  140.6730   70.8620  221.6640 H   0  0  0  0  0  0  0  0  0  0  0  0
  139.4827   72.7881  223.6439 H   0  0  0  0  0  0  0  0  0  0  0  0
  138.9801   71.0826  223.3386 H   0  0  0  0  0  0  0  0  0  0  0  0
  141.5439   70.7177  224.2552 H   0  0  0  0  0  0  0  0  0  0  0  0
  141.0198   72.1886  225.1895 H   0  0  0  0  0  0  0  0  0  0  0  0
  139.6086   71.0346  226.4817 H   0  0  0  0  0  0  0  0  0  0  0  0
  141.5258   68.9807  225.4140 H   0  0  0  0  0  0  0  0  0  0  0  0
  141.2509   69.5694  227.0999 H   0  0  0  0  0  0  0  0  0  0  0  0
  140.5539   67.2264  226.8928 H   0  0  0  0  0  0  0  0  0  0  0  0
  139.1186   68.3220  227.1654 H   0  0  0  0  0  0  0  0  0  0  0  0
  139.6213   68.5447  223.5982 H   0  0  0  0  0  0  0  0  0  0  0  0
  137.8751   68.1229  223.9759 H   0  0  0  0  0  0  0  0  0  0  0  0
  138.2956   70.5462  224.1658 H   0  0  0  0  0  0  0  0  0  0  0  0
  137.8231   69.7883  225.7362 H   0  0  0  0  0  0  0  0  0  0  0  0
  144.1126   74.5809  218.8518 H   0  0  0  0  0  0  0  0  0  0  0  0
  146.1357   74.8798  220.0021 H   0  0  0  0  0  0  0  0  0  0  0  0
  145.2452   74.5013  221.4972 H   0  0  0  0  0  0  0  0  0  0  0  0
  147.3357   72.9270  220.3073 H   0  0  0  0  0  0  0  0  0  0  0  0
  146.3160   72.4072  221.6410 H   0  0  0  0  0  0  0  0  0  0  0  0
  146.8553   70.1301  219.7692 H   0  0  0  0  0  0  0  0  0  0  0  0
  145.4155   68.8344  218.1705 H   0  0  0  0  0  0  0  0  0  0  0  0
  143.3537   69.8835  217.2101 H   0  0  0  0  0  0  0  0  0  0  0  0
  142.7139   72.2227  217.8656 H   0  0  0  0  0  0  0  0  0  0  0  0
  140.1207   77.2695  223.6590 H   0  0  0  0  0  0  0  0  0  0  0  0
  141.8468   76.7453  223.5592 H   0  0  0  0  0  0  0  0  0  0  0  0
  1  2  2  0
  2  3  1  0
  3  4  2  0
  4  5  1  0
  5  6  2  0
  5  7  1  0
  7  8  1  0
  8  9  1  0
  9 10  1  0
 10 11  2  0
 11 12  1  0
 12 13  1  0
 13 14  1  0
 14 15  1  0
 15 16  1  0
 16 17  1  0
 17 18  1  0
 18 19  1  0
 19 20  1  0
 20 21  1  0
 12 22  2  0
 22 23  1  0
 23 24  1  0
 24 25  1  0
 25 26  1  0
 26 27  1  0
 27 28  2  0
 28 29  1  0
 29 30  2  0
 30 31  1  0
 31 32  2  0
 23 33  2  0
  9 34  1  0
  6  1  1  0
 33 10  1  0
 34  4  1  0
 21 16  1  0
 32 24  1  0
 32 27  1  0
  1 35  1  0
  2 36  1  0
  3 37  1  0
  6 38  1  0
  7 39  1  0
  7 40  1  0
  8 41  1  0
  8 42  1  0
 13 43  1  0
 14 44  1  0
 14 45  1  0
 15 46  1  0
 15 47  1  0
 16 48  1  0
 17 49  1  0
 17 50  1  0
 18 51  1  0
 18 52  1  0
 20 53  1  0
 20 54  1  0
 21 55  1  0
 21 56  1  0
 24 57  1  6
 25 58  1  0
 25 59  1  0
 26 60  1  0
 26 61  1  0
 28 62  1  0
 29 63  1  0
 30 64  1  0
 31 65  1  0
 34 66  1  0
 34 67  1  0
M  END
>  <UniqueID>  (7) 
494

>  <SMILES>  (7) 
c1ccc2c(c1)CCN(c1nc(NCCC3CCOCC3)nc([C@H]3CCc4ccccc43)n1)C2

>  <Energy>  (7) 
82.83335883849176

>  <Genealogy>  (7) 
c1ccc2c(c1)CCN(c1nc(NCCC3CCOCC3)nc([C@H]3CCc4ccccc43)n1)C2 (chirality)
c1ccc2c(c1)CCN(c1nc(NCCC3CCOCC3)nc([C@H]3CCc4ccccc43)n1)C2 (3D coordinates assigned)
c1ccc2c(c1)CCN(c1nc(NCCC3CCOCC3)nc([C@H]3CCc4ccccc43)n1)C2 (nonaromatic ring conformer: 82.83335883849176 kcal/mol)

>  <smiles>  (7) 
c1ccc2c(c1)CCN(c1nc(NCCC3CCOCC3)nc(C3CCc4ccccc43)n1)C2

>  <score_type>  (7) 
oracle

>  <origin>  (7) 
autodockgpu

>  <m_score__min__energy>  (7) 
-10.26

>  <m_primary>  (7) 
energy

>  <meeko>  (7) 
{"free_energy": -9.95, "intermolecular_energy": -11.74, "internal_energy": -1.14, "cluster_size": 7, "cluster_id": 1, "rank_in_cluster": 4}

>  <energy>  (7) 
-9.61

>  <cluster_rmsd>  (7) 
0.66

>  <rmsd>  (7) 
271.51

>  <cluster>  (7) 
1

$$$$
AOEMPDNDYKTPOZ-MVXFCSEMNA-N
     RDKit          3D

 67 72  0  0  0  0  0  0  0  0999 V2000
  141.8160   80.0020  222.8930 C   0  0  0  0  0  0  0  0  0  0  0  0
  140.7400   79.6240  223.6980 C   0  0  0  0  0  0  0  0  0  0  0  0
  140.0230   78.4610  223.4070 C   0  0  0  0  0  0  0  0  0  0  0  0
  140.3840   77.6580  222.3130 C   0  0  0  0  0  0  0  0  0  0  0  0
  141.4630   78.0500  221.4830 C   0  0  0  0  0  0  0  0  0  0  0  0
  142.1800   79.2170  221.7940 C   0  0  0  0  0  0  0  0  0  0  0  0
  141.9330   77.1850  220.3340 C   0  0  0  0  0  0  0  0  0  0  0  0
  140.8630   76.1900  219.8780 C   0  0  0  0  0  0  0  0  0  0  0  0
  140.2640   75.5570  221.0550 N   0  0  0  0  0  0  0  0  0  0  0  0
  140.4060   74.1460  221.3090 C   0  0  0  0  0  0  0  0  0  0  0  0
  141.2710   73.4060  220.5730 N   0  0  0  0  0  0  0  0  0  0  0  0
  141.4170   72.0760  220.8010 C   0  0  0  0  0  0  0  0  0  0  0  0
  142.3230   71.3020  220.0070 N   0  0  0  0  0  0  0  0  0  0  0  0
  143.6470   70.9190  220.4940 C   0  0  0  0  0  0  0  0  0  0  0  0
  144.6890   71.0390  219.3700 C   0  0  0  0  0  0  0  0  0  0  0  0
  145.4610   72.3770  219.4160 C   0  0  0  0  0  0  0  0  0  0  0  0
  145.5310   72.9410  220.8580 C   0  0  0  0  0  0  0  0  0  0  0  0
  145.5580   74.4770  220.8440 C   0  0  0  0  0  0  0  0  0  0  0  0
  144.3890   75.0570  220.2790 O   0  0  0  0  0  0  0  0  0  0  0  0
  143.8300   74.3150  219.1980 C   0  0  0  0  0  0  0  0  0  0  0  0
  144.8320   73.4130  218.4540 C   0  0  0  0  0  0  0  0  0  0  0  0
  140.6980   71.4840  221.7870 N   0  0  0  0  0  0  0  0  0  0  0  0
  139.8230   72.2150  222.5300 C   0  0  0  0  0  0  0  0  0  0  0  0
  139.0130   71.5640  223.6170 C   0  0  1  0  0  0  0  0  0  0  0  0
  138.2970   70.2840  223.1240 C   0  0  0  0  0  0  0  0  0  0  0  0
  138.9570   69.0850  223.8310 C   0  0  0  0  0  0  0  0  0  0  0  0
  139.8470   69.7100  224.8380 C   0  0  0  0  0  0  0  0  0  0  0  0
  140.6020   69.0470  225.8090 C   0  0  0  0  0  0  0  0  0  0  0  0
  141.4060   69.8060  226.6710 C   0  0  0  0  0  0  0  0  0  0  0  0
  141.4450   71.2070  226.5520 C   0  0  0  0  0  0  0  0  0  0  0  0
  140.6850   71.8510  225.5630 C   0  0  0  0  0  0  0  0  0  0  0  0
  139.8890   71.0760  224.7140 C   0  0  0  0  0  0  0  0  0  0  0  0
  139.6780   73.5430  222.2840 N   0  0  0  0  0  0  0  0  0  0  0  0
  139.5580   76.4370  221.9960 C   0  0  0  0  0  0  0  0  0  0  0  0
  142.3786   80.9188  223.1233 H   0  0  0  0  0  0  0  0  0  0  0  0
  140.4565   80.2425  224.5623 H   0  0  0  0  0  0  0  0  0  0  0  0
  139.1701   78.1723  224.0389 H   0  0  0  0  0  0  0  0  0  0  0  0
  143.0342   79.5159  221.1686 H   0  0  0  0  0  0  0  0  0  0  0  0
  142.1951   77.8352  219.4864 H   0  0  0  0  0  0  0  0  0  0  0  0
  142.8020   76.6074  220.6822 H   0  0  0  0  0  0  0  0  0  0  0  0
  140.0852   76.7206  219.3093 H   0  0  0  0  0  0  0  0  0  0  0  0
  141.3204   75.4221  219.2369 H   0  0  0  0  0  0  0  0  0  0  0  0
  142.0050   70.9460  219.0740 H   0  0  0  0  0  0  0  0  0  0  0  0
  143.9327   71.5810  221.3248 H   0  0  0  0  0  0  0  0  0  0  0  0
  143.6118   69.8744  220.8367 H   0  0  0  0  0  0  0  0  0  0  0  0
  145.4091   70.2132  219.4675 H   0  0  0  0  0  0  0  0  0  0  0  0
  144.1513   70.9973  218.4113 H   0  0  0  0  0  0  0  0  0  0  0  0
  146.4900   72.1766  219.0827 H   0  0  0  0  0  0  0  0  0  0  0  0
  144.6492   72.6012  221.4210 H   0  0  0  0  0  0  0  0  0  0  0  0
  146.4536   72.5771  221.3338 H   0  0  0  0  0  0  0  0  0  0  0  0
  145.6585   74.8335  221.8798 H   0  0  0  0  0  0  0  0  0  0  0  0
  146.4079   74.7812  220.2154 H   0  0  0  0  0  0  0  0  0  0  0  0
  143.0267   73.6787  219.5977 H   0  0  0  0  0  0  0  0  0  0  0  0
  143.4715   75.0532  218.4655 H   0  0  0  0  0  0  0  0  0  0  0  0
  144.3077   72.8822  217.6457 H   0  0  0  0  0  0  0  0  0  0  0  0
  145.6341   74.0431  218.0422 H   0  0  0  0  0  0  0  0  0  0  0  0
  138.3012   72.3373  223.9416 H   0  0  0  0  0  0  0  0  0  0  0  0
  137.2280   70.3292  223.3795 H   0  0  0  0  0  0  0  0  0  0  0  0
  138.3842   70.1867  222.0318 H   0  0  0  0  0  0  0  0  0  0  0  0
  138.1999   68.4521  224.3170 H   0  0  0  0  0  0  0  0  0  0  0  0
  139.4996   68.4285  223.1349 H   0  0  0  0  0  0  0  0  0  0  0  0
  140.5662   67.9510  225.8954 H   0  0  0  0  0  0  0  0  0  0  0  0
  142.0082   69.3043  227.4428 H   0  0  0  0  0  0  0  0  0  0  0  0
  142.0720   71.7989  227.2350 H   0  0  0  0  0  0  0  0  0  0  0  0
  140.7151   72.9455  225.4578 H   0  0  0  0  0  0  0  0  0  0  0  0
  138.6048   76.7534  221.5474 H   0  0  0  0  0  0  0  0  0  0  0  0
  139.3779   75.8823  222.9287 H   0  0  0  0  0  0  0  0  0  0  0  0
  1  2  2  0
  2  3  1  0
  3  4  2  0
  4  5  1  0
  5  6  2  0
  5  7  1  0
  7  8  1  0
  8  9  1  0
  9 10  1  0
 10 11  2  0
 11 12  1  0
 12 13  1  0
 13 14  1  0
 14 15  1  0
 15 16  1  0
 16 17  1  0
 17 18  1  0
 18 19  1  0
 19 20  1  0
 20 21  1  0
 12 22  2  0
 22 23  1  0
 23 24  1  0
 24 25  1  0
 25 26  1  0
 26 27  1  0
 27 28  2  0
 28 29  1  0
 29 30  2  0
 30 31  1  0
 31 32  2  0
 23 33  2  0
  9 34  1  0
  6  1  1  0
 33 10  1  0
 34  4  1  0
 21 16  1  0
 32 24  1  0
 32 27  1  0
  1 35  1  0
  2 36  1  0
  3 37  1  0
  6 38  1  0
  7 39  1  0
  7 40  1  0
  8 41  1  0
  8 42  1  0
 13 43  1  0
 14 44  1  0
 14 45  1  0
 15 46  1  0
 15 47  1  0
 16 48  1  0
 17 49  1  0
 17 50  1  0
 18 51  1  0
 18 52  1  0
 20 53  1  0
 20 54  1  0
 21 55  1  0
 21 56  1  0
 24 57  1  1
 25 58  1  0
 25 59  1  0
 26 60  1  0
 26 61  1  0
 28 62  1  0
 29 63  1  0
 30 64  1  0
 31 65  1  0
 34 66  1  0
 34 67  1  0
M  END
>  <UniqueID>  (8) 
494

>  <SMILES>  (8) 
c1ccc2c(c1)CCN(c1nc(NCCC3CCOCC3)nc([C@H]3CCc4ccccc43)n1)C2

>  <Energy>  (8) 
82.83335883849176

>  <Genealogy>  (8) 
c1ccc2c(c1)CCN(c1nc(NCCC3CCOCC3)nc([C@H]3CCc4ccccc43)n1)C2 (chirality)
c1ccc2c(c1)CCN(c1nc(NCCC3CCOCC3)nc([C@H]3CCc4ccccc43)n1)C2 (3D coordinates assigned)
c1ccc2c(c1)CCN(c1nc(NCCC3CCOCC3)nc([C@H]3CCc4ccccc43)n1)C2 (nonaromatic ring conformer: 82.83335883849176 kcal/mol)

>  <smiles>  (8) 
c1ccc2c(c1)CCN(c1nc(NCCC3CCOCC3)nc(C3CCc4ccccc43)n1)C2

>  <score_type>  (8) 
oracle

>  <origin>  (8) 
autodockgpu

>  <m_score__min__energy>  (8) 
-10.26

>  <m_primary>  (8) 
energy

>  <meeko>  (8) 
{"free_energy": -8.73, "intermolecular_energy": -10.51, "internal_energy": -1.88, "cluster_size": 3, "cluster_id": 3, "rank_in_cluster": 3}

>  <energy>  (8) 
-9.86

>  <cluster_rmsd>  (8) 
0.0

>  <rmsd>  (8) 
270.89

>  <cluster>  (8) 
2

$$$$
AOEMPDNDYKTPOZ-MVXFCSEMNA-N
     RDKit          3D

 67 72  0  0  0  0  0  0  0  0999 V2000
  145.6180   67.3110  219.3050 C   0  0  0  0  0  0  0  0  0  0  0  0
  146.2780   68.5410  219.2760 C   0  0  0  0  0  0  0  0  0  0  0  0
  145.5450   69.7290  219.3020 C   0  0  0  0  0  0  0  0  0  0  0  0
  144.1420   69.6980  219.3690 C   0  0  0  0  0  0  0  0  0  0  0  0
  143.4700   68.4510  219.3770 C   0  0  0  0  0  0  0  0  0  0  0  0
  144.2220   67.2640  219.3610 C   0  0  0  0  0  0  0  0  0  0  0  0
  141.9660   68.3630  219.5160 C   0  0  0  0  0  0  0  0  0  0  0  0
  141.2690   69.6720  219.1370 C   0  0  0  0  0  0  0  0  0  0  0  0
  141.9820   70.7920  219.7530 N   0  0  0  0  0  0  0  0  0  0  0  0
  141.3650   71.6230  220.7550 C   0  0  0  0  0  0  0  0  0  0  0  0
  141.6190   72.9550  220.7860 N   0  0  0  0  0  0  0  0  0  0  0  0
  141.0450   73.7500  221.7230 C   0  0  0  0  0  0  0  0  0  0  0  0
  141.3330   75.1530  221.7550 N   0  0  0  0  0  0  0  0  0  0  0  0
  140.2890   76.1620  221.5790 C   0  0  0  0  0  0  0  0  0  0  0  0
  140.9040   77.5700  221.5330 C   0  0  0  0  0  0  0  0  0  0  0  0
  140.5680   78.4060  222.7890 C   0  0  0  0  0  0  0  0  0  0  0  0
  139.9100   79.7570  222.4090 C   0  0  0  0  0  0  0  0  0  0  0  0
  140.2660   80.8460  223.4320 C   0  0  0  0  0  0  0  0  0  0  0  0
  141.6590   81.1230  223.5000 O   0  0  0  0  0  0  0  0  0  0  0  0
  142.4930   79.9830  223.3090 C   0  0  0  0  0  0  0  0  0  0  0  0
  141.8290   78.6380  223.6550 C   0  0  0  0  0  0  0  0  0  0  0  0
  140.1950   73.2080  222.6310 N   0  0  0  0  0  0  0  0  0  0  0  0
  139.9360   71.8720  222.6130 C   0  0  0  0  0  0  0  0  0  0  0  0
  139.0040   71.2610  223.6240 C   0  0  1  0  0  0  0  0  0  0  0  0
  138.3130   69.9860  223.0830 C   0  0  0  0  0  0  0  0  0  0  0  0
  138.8700   68.7890  223.8770 C   0  0  0  0  0  0  0  0  0  0  0  0
  139.6650   69.4160  224.9580 C   0  0  0  0  0  0  0  0  0  0  0  0
  140.3020   68.7590  226.0140 C   0  0  0  0  0  0  0  0  0  0  0  0
  141.0300   69.5190  226.9400 C   0  0  0  0  0  0  0  0  0  0  0  0
  141.1130   70.9160  226.7990 C   0  0  0  0  0  0  0  0  0  0  0  0
  140.4730   71.5540  225.7260 C   0  0  0  0  0  0  0  0  0  0  0  0
  139.7520   70.7790  224.8140 C   0  0  0  0  0  0  0  0  0  0  0  0
  140.5260   71.0850  221.6770 N   0  0  0  0  0  0  0  0  0  0  0  0
  143.3780   70.9970  219.3430 C   0  0  0  0  0  0  0  0  0  0  0  0
  146.1980   66.3766  219.2837 H   0  0  0  0  0  0  0  0  0  0  0  0
  147.3766   68.5741  219.2326 H   0  0  0  0  0  0  0  0  0  0  0  0
  146.0693   70.6955  219.2698 H   0  0  0  0  0  0  0  0  0  0  0  0
  143.7088   66.2916  219.3927 H   0  0  0  0  0  0  0  0  0  0  0  0
  141.5964   67.5624  218.8584 H   0  0  0  0  0  0  0  0  0  0  0  0
  141.7377   68.1541  220.5716 H   0  0  0  0  0  0  0  0  0  0  0  0
  141.2750   69.7888  218.0432 H   0  0  0  0  0  0  0  0  0  0  0  0
  140.2289   69.6542  219.4945 H   0  0  0  0  0  0  0  0  0  0  0  0
  142.3080   75.4660  221.9710 H   0  0  0  0  0  0  0  0  0  0  0  0
  139.7545   75.9694  220.6371 H   0  0  0  0  0  0  0  0  0  0  0  0
  139.5924   76.1054  222.4285 H   0  0  0  0  0  0  0  0  0  0  0  0
  141.9971   77.4747  221.4551 H   0  0  0  0  0  0  0  0  0  0  0  0
  140.4794   78.0910  220.6622 H   0  0  0  0  0  0  0  0  0  0  0  0
  139.8421   77.8320  223.3837 H   0  0  0  0  0  0  0  0  0  0  0  0
  140.2678   80.0652  221.4155 H   0  0  0  0  0  0  0  0  0  0  0  0
  138.8178   79.6262  222.4001 H   0  0  0  0  0  0  0  0  0  0  0  0
  139.7397   81.7710  223.1540 H   0  0  0  0  0  0  0  0  0  0  0  0
  139.9600   80.4749  224.4212 H   0  0  0  0  0  0  0  0  0  0  0  0
  142.7972   79.9536  222.2523 H   0  0  0  0  0  0  0  0  0  0  0  0
  143.3416   80.0984  223.9993 H   0  0  0  0  0  0  0  0  0  0  0  0
  142.5464   77.8245  223.4718 H   0  0  0  0  0  0  0  0  0  0  0  0
  141.5301   78.6555  224.7135 H   0  0  0  0  0  0  0  0  0  0  0  0
  138.2802   72.0550  223.8600 H   0  0  0  0  0  0  0  0  0  0  0  0
  137.2247   70.0585  223.2259 H   0  0  0  0  0  0  0  0  0  0  0  0
  138.5091   69.8642  222.0075 H   0  0  0  0  0  0  0  0  0  0  0  0
  138.0529   68.1820  224.2940 H   0  0  0  0  0  0  0  0  0  0  0  0
  139.4666   68.1073  223.2530 H   0  0  0  0  0  0  0  0  0  0  0  0
  140.2335   67.6660  226.1167 H   0  0  0  0  0  0  0  0  0  0  0  0
  141.5378   69.0214  227.7794 H   0  0  0  0  0  0  0  0  0  0  0  0
  141.6806   71.5091  227.5312 H   0  0  0  0  0  0  0  0  0  0  0  0
  140.5377   72.6454  225.6047 H   0  0  0  0  0  0  0  0  0  0  0  0
  143.3973   71.4059  218.3220 H   0  0  0  0  0  0  0  0  0  0  0  0
  143.8518   71.6977  220.0462 H   0  0  0  0  0  0  0  0  0  0  0  0
  1  2  2  0
  2  3  1  0
  3  4  2  0
  4  5  1  0
  5  6  2  0
  5  7  1  0
  7  8  1  0
  8  9  1  0
  9 10  1  0
 10 11  2  0
 11 12  1  0
 12 13  1  0
 13 14  1  0
 14 15  1  0
 15 16  1  0
 16 17  1  0
 17 18  1  0
 18 19  1  0
 19 20  1  0
 20 21  1  0
 12 22  2  0
 22 23  1  0
 23 24  1  0
 24 25  1  0
 25 26  1  0
 26 27  1  0
 27 28  2  0
 28 29  1  0
 29 30  2  0
 30 31  1  0
 31 32  2  0
 23 33  2  0
  9 34  1  0
  6  1  1  0
 33 10  1  0
 34  4  1  0
 21 16  1  0
 32 24  1  0
 32 27  1  0
  1 35  1  0
  2 36  1  0
  3 37  1  0
  6 38  1  0
  7 39  1  0
  7 40  1  0
  8 41  1  0
  8 42  1  0
 13 43  1  0
 14 44  1  0
 14 45  1  0
 15 46  1  0
 15 47  1  0
 16 48  1  0
 17 49  1  0
 17 50  1  0
 18 51  1  0
 18 52  1  0
 20 53  1  0
 20 54  1  0
 21 55  1  0
 21 56  1  0
 24 57  1  1
 25 58  1  0
 25 59  1  0
 26 60  1  0
 26 61  1  0
 28 62  1  0
 29 63  1  0
 30 64  1  0
 31 65  1  0
 34 66  1  0
 34 67  1  0
M  END
>  <UniqueID>  (9) 
494

>  <SMILES>  (9) 
c1ccc2c(c1)CCN(c1nc(NCCC3CCOCC3)nc([C@H]3CCc4ccccc43)n1)C2

>  <Energy>  (9) 
82.83335883849176

>  <Genealogy>  (9) 
c1ccc2c(c1)CCN(c1nc(NCCC3CCOCC3)nc([C@H]3CCc4ccccc43)n1)C2 (chirality)
c1ccc2c(c1)CCN(c1nc(NCCC3CCOCC3)nc([C@H]3CCc4ccccc43)n1)C2 (3D coordinates assigned)
c1ccc2c(c1)CCN(c1nc(NCCC3CCOCC3)nc([C@H]3CCc4ccccc43)n1)C2 (nonaromatic ring conformer: 82.83335883849176 kcal/mol)

>  <smiles>  (9) 
c1ccc2c(c1)CCN(c1nc(NCCC3CCOCC3)nc(C3CCc4ccccc43)n1)C2

>  <score_type>  (9) 
oracle

>  <origin>  (9) 
autodockgpu

>  <m_score__min__energy>  (9) 
-10.26

>  <m_primary>  (9) 
energy

>  <meeko>  (9) 
{"free_energy": -9.86, "intermolecular_energy": -11.65, "internal_energy": -1.13, "cluster_size": 3, "cluster_id": 2, "rank_in_cluster": 1}

>  <energy>  (9) 
-9.86

>  <cluster_rmsd>  (9) 
0.47

>  <rmsd>  (9) 
270.91

>  <cluster>  (9) 
2

$$$$
AOEMPDNDYKTPOZ-MVXFCSEMNA-N
     RDKit          3D

 67 72  0  0  0  0  0  0  0  0999 V2000
  141.9850   80.3400  223.0020 C   0  0  0  0  0  0  0  0  0  0  0  0
  140.8980   79.9630  223.7930 C   0  0  0  0  0  0  0  0  0  0  0  0
  140.2000   78.7880  223.5070 C   0  0  0  0  0  0  0  0  0  0  0  0
  140.5910   77.9710  222.4350 C   0  0  0  0  0  0  0  0  0  0  0  0
  141.6810   78.3610  221.6190 C   0  0  0  0  0  0  0  0  0  0  0  0
  142.3800   79.5410  221.9240 C   0  0  0  0  0  0  0  0  0  0  0  0
  142.1830   77.4830  220.4940 C   0  0  0  0  0  0  0  0  0  0  0  0
  141.1330   76.4680  220.0340 C   0  0  0  0  0  0  0  0  0  0  0  0
  140.5170   75.8490  221.2090 N   0  0  0  0  0  0  0  0  0  0  0  0
  140.6690   74.4440  221.4900 C   0  0  0  0  0  0  0  0  0  0  0  0
  139.8310   73.8300  222.3620 N   0  0  0  0  0  0  0  0  0  0  0  0
  139.9600   72.5070  222.6360 C   0  0  0  0  0  0  0  0  0  0  0  0
  139.0790   71.8730  223.5710 N   0  0  0  0  0  0  0  0  0  0  0  0
  139.5580   70.8950  224.5460 C   0  0  0  0  0  0  0  0  0  0  0  0
  140.6940   71.4910  225.3920 C   0  0  0  0  0  0  0  0  0  0  0  0
  141.2370   70.4940  226.4420 C   0  0  0  0  0  0  0  0  0  0  0  0
  140.7120   69.0590  226.1850 C   0  0  0  0  0  0  0  0  0  0  0  0
  140.5660   68.2850  227.5040 C   0  0  0  0  0  0  0  0  0  0  0  0
  139.6230   68.8660  228.3970 O   0  0  0  0  0  0  0  0  0  0  0  0
  139.5850   70.2900  228.3640 C   0  0  0  0  0  0  0  0  0  0  0  0
  140.8850   70.9550  227.8770 C   0  0  0  0  0  0  0  0  0  0  0  0
  140.9300   71.7870  222.0190 N   0  0  0  0  0  0  0  0  0  0  0  0
  141.7800   72.3930  221.1450 C   0  0  0  0  0  0  0  0  0  0  0  0
  142.8660   71.6060  220.4650 C   0  0  1  0  0  0  0  0  0  0  0  0
  142.5690   71.3790  218.9630 C   0  0  0  0  0  0  0  0  0  0  0  0
  143.5970   72.2000  218.1610 C   0  0  0  0  0  0  0  0  0  0  0  0
  144.5540   72.6750  219.1870 C   0  0  0  0  0  0  0  0  0  0  0  0
  145.7340   73.3870  218.9610 C   0  0  0  0  0  0  0  0  0  0  0  0
  146.5120   73.7710  220.0620 C   0  0  0  0  0  0  0  0  0  0  0  0
  146.1020   73.4420  221.3670 C   0  0  0  0  0  0  0  0  0  0  0  0
  144.9070   72.7340  221.5720 C   0  0  0  0  0  0  0  0  0  0  0  0
  144.1470   72.3600  220.4600 C   0  0  0  0  0  0  0  0  0  0  0  0
  141.6480   73.7200  220.8880 N   0  0  0  0  0  0  0  0  0  0  0  0
  139.7840   76.7360  222.1220 C   0  0  0  0  0  0  0  0  0  0  0  0
  142.5320   81.2674  223.2271 H   0  0  0  0  0  0  0  0  0  0  0  0
  140.5914   80.5919  224.6418 H   0  0  0  0  0  0  0  0  0  0  0  0
  139.3375   78.5007  224.1263 H   0  0  0  0  0  0  0  0  0  0  0  0
  143.2436   79.8385  221.3110 H   0  0  0  0  0  0  0  0  0  0  0  0
  142.4542   78.1222  219.6409 H   0  0  0  0  0  0  0  0  0  0  0  0
  143.0516   76.9214  220.8684 H   0  0  0  0  0  0  0  0  0  0  0  0
  140.3613   76.9799  219.4403 H   0  0  0  0  0  0  0  0  0  0  0  0
  141.6118   75.6942  219.4160 H   0  0  0  0  0  0  0  0  0  0  0  0
  138.0730   72.1630  223.5970 H   0  0  0  0  0  0  0  0  0  0  0  0
  138.7276   70.6061  225.2070 H   0  0  0  0  0  0  0  0  0  0  0  0
  139.9389   70.0140  224.0087 H   0  0  0  0  0  0  0  0  0  0  0  0
  141.5172   71.7814  224.7226 H   0  0  0  0  0  0  0  0  0  0  0  0
  140.2877   72.3580  225.9335 H   0  0  0  0  0  0  0  0  0  0  0  0
  142.3324   70.4744  226.3438 H   0  0  0  0  0  0  0  0  0  0  0  0
  139.7309   69.1174  225.6910 H   0  0  0  0  0  0  0  0  0  0  0  0
  141.4333   68.5300  225.5447 H   0  0  0  0  0  0  0  0  0  0  0  0
  140.2418   67.2596  227.2728 H   0  0  0  0  0  0  0  0  0  0  0  0
  141.5451   68.3077  228.0047 H   0  0  0  0  0  0  0  0  0  0  0  0
  138.7703   70.5959  227.6912 H   0  0  0  0  0  0  0  0  0  0  0  0
  139.4352   70.6218  229.4020 H   0  0  0  0  0  0  0  0  0  0  0  0
  140.7549   72.0473  227.8827 H   0  0  0  0  0  0  0  0  0  0  0  0
  141.7035   70.6622  228.5510 H   0  0  0  0  0  0  0  0  0  0  0  0
  142.9220   70.6598  221.0232 H   0  0  0  0  0  0  0  0  0  0  0  0
  142.6668   70.3112  218.7176 H   0  0  0  0  0  0  0  0  0  0  0  0
  141.5440   71.6939  218.7178 H   0  0  0  0  0  0  0  0  0  0  0  0
  144.1040   71.5704  217.4149 H   0  0  0  0  0  0  0  0  0  0  0  0
  143.1347   73.0247  217.5987 H   0  0  0  0  0  0  0  0  0  0  0  0
  146.0472   73.6418  217.9378 H   0  0  0  0  0  0  0  0  0  0  0  0
  147.4456   74.3311  219.9052 H   0  0  0  0  0  0  0  0  0  0  0  0
  146.7185   73.7399  222.2279 H   0  0  0  0  0  0  0  0  0  0  0  0
  144.5749   72.4783  222.5890 H   0  0  0  0  0  0  0  0  0  0  0  0
  138.8363   77.0349  221.6503 H   0  0  0  0  0  0  0  0  0  0  0  0
  139.5920   76.1943  223.0599 H   0  0  0  0  0  0  0  0  0  0  0  0
  1  2  2  0
  2  3  1  0
  3  4  2  0
  4  5  1  0
  5  6  2  0
  5  7  1  0
  7  8  1  0
  8  9  1  0
  9 10  1  0
 10 11  2  0
 11 12  1  0
 12 13  1  0
 13 14  1  0
 14 15  1  0
 15 16  1  0
 16 17  1  0
 17 18  1  0
 18 19  1  0
 19 20  1  0
 20 21  1  0
 12 22  2  0
 22 23  1  0
 23 24  1  0
 24 25  1  0
 25 26  1  0
 26 27  1  0
 27 28  2  0
 28 29  1  0
 29 30  2  0
 30 31  1  0
 31 32  2  0
 23 33  2  0
  9 34  1  0
  6  1  1  0
 33 10  1  0
 34  4  1  0
 21 16  1  0
 32 24  1  0
 32 27  1  0
  1 35  1  0
  2 36  1  0
  3 37  1  0
  6 38  1  0
  7 39  1  0
  7 40  1  0
  8 41  1  0
  8 42  1  0
 13 43  1  0
 14 44  1  0
 14 45  1  0
 15 46  1  0
 15 47  1  0
 16 48  1  0
 17 49  1  0
 17 50  1  0
 18 51  1  0
 18 52  1  0
 20 53  1  0
 20 54  1  0
 21 55  1  0
 21 56  1  0
 24 57  1  1
 25 58  1  0
 25 59  1  0
 26 60  1  0
 26 61  1  0
 28 62  1  0
 29 63  1  0
 30 64  1  0
 31 65  1  0
 34 66  1  0
 34 67  1  0
M  END
>  <UniqueID>  (10) 
494

>  <SMILES>  (10) 
c1ccc2c(c1)CCN(c1nc(NCCC3CCOCC3)nc([C@H]3CCc4ccccc43)n1)C2

>  <Energy>  (10) 
82.83335883849176

>  <Genealogy>  (10) 
c1ccc2c(c1)CCN(c1nc(NCCC3CCOCC3)nc([C@H]3CCc4ccccc43)n1)C2 (chirality)
c1ccc2c(c1)CCN(c1nc(NCCC3CCOCC3)nc([C@H]3CCc4ccccc43)n1)C2 (3D coordinates assigned)
c1ccc2c(c1)CCN(c1nc(NCCC3CCOCC3)nc([C@H]3CCc4ccccc43)n1)C2 (nonaromatic ring conformer: 82.83335883849176 kcal/mol)

>  <smiles>  (10) 
c1ccc2c(c1)CCN(c1nc(NCCC3CCOCC3)nc(C3CCc4ccccc43)n1)C2

>  <score_type>  (10) 
oracle

>  <origin>  (10) 
autodockgpu

>  <m_score__min__energy>  (10) 
-10.26

>  <m_primary>  (10) 
energy

>  <meeko>  (10) 
{"free_energy": -10.2, "intermolecular_energy": -11.99, "internal_energy": -1.42, "cluster_size": 7, "cluster_id": 1, "rank_in_cluster": 2}

>  <energy>  (10) 
-9.85

>  <cluster_rmsd>  (10) 
0.49

>  <rmsd>  (10) 
270.89

>  <cluster>  (10) 
2

$$$$
AOEMPDNDYKTPOZ-MVXFCSEMNA-N
     RDKit          3D

 67 72  0  0  0  0  0  0  0  0999 V2000
  139.5730   68.2650  226.8020 C   0  0  0  0  0  0  0  0  0  0  0  0
  140.5470   69.1820  227.2000 C   0  0  0  0  0  0  0  0  0  0  0  0
  140.9720   70.1780  226.3180 C   0  0  0  0  0  0  0  0  0  0  0  0
  140.4170   70.2740  225.0320 C   0  0  0  0  0  0  0  0  0  0  0  0
  139.4420   69.3330  224.6190 C   0  0  0  0  0  0  0  0  0  0  0  0
  139.0170   68.3430  225.5200 C   0  0  0  0  0  0  0  0  0  0  0  0
  138.7650   69.4340  223.2690 C   0  0  0  0  0  0  0  0  0  0  0  0
  139.5700   70.2760  222.2760 C   0  0  0  0  0  0  0  0  0  0  0  0
  140.0290   71.4960  222.9420 N   0  0  0  0  0  0  0  0  0  0  0  0
  139.5720   72.7990  222.5320 C   0  0  0  0  0  0  0  0  0  0  0  0
  140.4650   73.7970  222.3180 N   0  0  0  0  0  0  0  0  0  0  0  0
  140.0500   75.0290  221.9310 C   0  0  0  0  0  0  0  0  0  0  0  0
  141.0020   76.0800  221.7220 N   0  0  0  0  0  0  0  0  0  0  0  0
  140.5910   77.4670  221.5100 C   0  0  0  0  0  0  0  0  0  0  0  0
  139.6950   77.9450  222.6630 C   0  0  0  0  0  0  0  0  0  0  0  0
  140.3430   79.0840  223.4850 C   0  0  0  0  0  0  0  0  0  0  0  0
  140.2280   80.4450  222.7530 C   0  0  0  0  0  0  0  0  0  0  0  0
  141.4250   81.3480  223.0840 C   0  0  0  0  0  0  0  0  0  0  0  0
  142.6720   80.8100  222.6630 O   0  0  0  0  0  0  0  0  0  0  0  0
  142.7620   79.3910  222.7650 C   0  0  0  0  0  0  0  0  0  0  0  0
  141.8210   78.7620  223.8090 C   0  0  0  0  0  0  0  0  0  0  0  0
  138.7270   75.2620  221.7420 N   0  0  0  0  0  0  0  0  0  0  0  0
  137.8200   74.2700  221.9580 C   0  0  0  0  0  0  0  0  0  0  0  0
  136.3510   74.5210  221.7620 C   0  0  1  0  0  0  0  0  0  0  0  0
  135.6420   73.3300  221.0730 C   0  0  0  0  0  0  0  0  0  0  0  0
  134.7030   72.6890  222.1120 C   0  0  0  0  0  0  0  0  0  0  0  0
  134.7350   73.6330  223.2540 C   0  0  0  0  0  0  0  0  0  0  0  0
  133.9710   73.5570  224.4210 C   0  0  0  0  0  0  0  0  0  0  0  0
  134.1480   74.5370  225.4080 C   0  0  0  0  0  0  0  0  0  0  0  0
  135.0820   75.5720  225.2170 C   0  0  0  0  0  0  0  0  0  0  0  0
  135.8450   75.6240  224.0410 C   0  0  0  0  0  0  0  0  0  0  0  0
  135.6520   74.6380  223.0690 C   0  0  0  0  0  0  0  0  0  0  0  0
  138.2470   73.0440  222.3560 N   0  0  0  0  0  0  0  0  0  0  0  0
  140.9350   71.3280  224.0860 C   0  0  0  0  0  0  0  0  0  0  0  0
  139.2417   67.4795  227.4972 H   0  0  0  0  0  0  0  0  0  0  0  0
  140.9803   69.1202  228.2092 H   0  0  0  0  0  0  0  0  0  0  0  0
  141.7470   70.8922  226.6331 H   0  0  0  0  0  0  0  0  0  0  0  0
  138.2419   67.6241  225.2160 H   0  0  0  0  0  0  0  0  0  0  0  0
  138.6443   68.4211  222.8573 H   0  0  0  0  0  0  0  0  0  0  0  0
  137.7926   69.9266  223.4166 H   0  0  0  0  0  0  0  0  0  0  0  0
  140.4384   69.6998  221.9240 H   0  0  0  0  0  0  0  0  0  0  0  0
  138.9368   70.5398  221.4161 H   0  0  0  0  0  0  0  0  0  0  0  0
  142.0230   75.8590  221.7840 H   0  0  0  0  0  0  0  0  0  0  0  0
  141.4852   78.1056  221.4578 H   0  0  0  0  0  0  0  0  0  0  0  0
  140.0243   77.5303  220.5693 H   0  0  0  0  0  0  0  0  0  0  0  0
  138.7453   78.3089  222.2440 H   0  0  0  0  0  0  0  0  0  0  0  0
  139.5386   77.0921  223.3399 H   0  0  0  0  0  0  0  0  0  0  0  0
  139.7911   79.1630  224.4332 H   0  0  0  0  0  0  0  0  0  0  0  0
  140.1990   80.2688  221.6676 H   0  0  0  0  0  0  0  0  0  0  0  0
  139.3070   80.9462  223.0856 H   0  0  0  0  0  0  0  0  0  0  0  0
  141.2780   82.3180  222.5865 H   0  0  0  0  0  0  0  0  0  0  0  0
  141.4661   81.4441  224.1790 H   0  0  0  0  0  0  0  0  0  0  0  0
  142.5205   78.9604  221.7820 H   0  0  0  0  0  0  0  0  0  0  0  0
  143.7873   79.1667  223.0944 H   0  0  0  0  0  0  0  0  0  0  0  0
  141.9604   77.6709  223.8084 H   0  0  0  0  0  0  0  0  0  0  0  0
  142.0632   79.1797  224.7974 H   0  0  0  0  0  0  0  0  0  0  0  0
  136.2984   75.4389  221.1581 H   0  0  0  0  0  0  0  0  0  0  0  0
  135.0604   73.6868  220.2102 H   0  0  0  0  0  0  0  0  0  0  0  0
  136.3778   72.5972  220.7103 H   0  0  0  0  0  0  0  0  0  0  0  0
  133.6829   72.5942  221.7114 H   0  0  0  0  0  0  0  0  0  0  0  0
  135.0143   71.6723  222.3940 H   0  0  0  0  0  0  0  0  0  0  0  0
  133.2442   72.7436  224.5630 H   0  0  0  0  0  0  0  0  0  0  0  0
  133.5553   74.4967  226.3338 H   0  0  0  0  0  0  0  0  0  0  0  0
  135.2141   76.3419  225.9915 H   0  0  0  0  0  0  0  0  0  0  0  0
  136.5818   76.4260  223.8865 H   0  0  0  0  0  0  0  0  0  0  0  0
  141.9269   71.0262  223.7186 H   0  0  0  0  0  0  0  0  0  0  0  0
  141.0001   72.2840  224.6263 H   0  0  0  0  0  0  0  0  0  0  0  0
  1  2  2  0
  2  3  1  0
  3  4  2  0
  4  5  1  0
  5  6  2  0
  5  7  1  0
  7  8  1  0
  8  9  1  0
  9 10  1  0
 10 11  2  0
 11 12  1  0
 12 13  1  0
 13 14  1  0
 14 15  1  0
 15 16  1  0
 16 17  1  0
 17 18  1  0
 18 19  1  0
 19 20  1  0
 20 21  1  0
 12 22  2  0
 22 23  1  0
 23 24  1  0
 24 25  1  0
 25 26  1  0
 26 27  1  0
 27 28  2  0
 28 29  1  0
 29 30  2  0
 30 31  1  0
 31 32  2  0
 23 33  2  0
  9 34  1  0
  6  1  1  0
 33 10  1  0
 34  4  1  0
 21 16  1  0
 32 24  1  0
 32 27  1  0
  1 35  1  0
  2 36  1  0
  3 37  1  0
  6 38  1  0
  7 39  1  0
  7 40  1  0
  8 41  1  0
  8 42  1  0
 13 43  1  0
 14 44  1  0
 14 45  1  0
 15 46  1  0
 15 47  1  0
 16 48  1  0
 17 49  1  0
 17 50  1  0
 18 51  1  0
 18 52  1  0
 20 53  1  0
 20 54  1  0
 21 55  1  0
 21 56  1  0
 24 57  1  6
 25 58  1  0
 25 59  1  0
 26 60  1  0
 26 61  1  0
 28 62  1  0
 29 63  1  0
 30 64  1  0
 31 65  1  0
 34 66  1  0
 34 67  1  0
M  END
>  <UniqueID>  (11) 
494

>  <SMILES>  (11) 
c1ccc2c(c1)CCN(c1nc(NCCC3CCOCC3)nc([C@H]3CCc4ccccc43)n1)C2

>  <Energy>  (11) 
82.83335883849176

>  <Genealogy>  (11) 
c1ccc2c(c1)CCN(c1nc(NCCC3CCOCC3)nc([C@H]3CCc4ccccc43)n1)C2 (chirality)
c1ccc2c(c1)CCN(c1nc(NCCC3CCOCC3)nc([C@H]3CCc4ccccc43)n1)C2 (3D coordinates assigned)
c1ccc2c(c1)CCN(c1nc(NCCC3CCOCC3)nc([C@H]3CCc4ccccc43)n1)C2 (nonaromatic ring conformer: 82.83335883849176 kcal/mol)

>  <smiles>  (11) 
c1ccc2c(c1)CCN(c1nc(NCCC3CCOCC3)nc(C3CCc4ccccc43)n1)C2

>  <score_type>  (11) 
oracle

>  <origin>  (11) 
autodockgpu

>  <m_score__min__energy>  (11) 
-10.26

>  <m_primary>  (11) 
energy

>  <meeko>  (11) 
{"free_energy": -8.96, "intermolecular_energy": -10.75, "internal_energy": -1.37, "cluster_size": 1, "cluster_id": 6, "rank_in_cluster": 1}

>  <energy>  (11) 
-9.3

>  <cluster_rmsd>  (11) 
0.0

>  <rmsd>  (11) 
271.24

>  <cluster>  (11) 
3

$$$$
AOEMPDNDYKTPOZ-MVXFCSEMNA-N
     RDKit          3D

 67 72  0  0  0  0  0  0  0  0999 V2000
  145.5860   66.8080  219.1430 C   0  0  0  0  0  0  0  0  0  0  0  0
  146.2420   68.0210  218.9290 C   0  0  0  0  0  0  0  0  0  0  0  0
  145.5170   69.2140  218.9070 C   0  0  0  0  0  0  0  0  0  0  0  0
  144.1280   69.2060  219.1120 C   0  0  0  0  0  0  0  0  0  0  0  0
  143.4570   67.9750  219.3100 C   0  0  0  0  0  0  0  0  0  0  0  0
  144.2010   66.7840  219.3390 C   0  0  0  0  0  0  0  0  0  0  0  0
  141.9730   67.9190  219.6020 C   0  0  0  0  0  0  0  0  0  0  0  0
  141.2450   69.1920  219.1640 C   0  0  0  0  0  0  0  0  0  0  0  0
  142.0180   70.3590  219.5930 N   0  0  0  0  0  0  0  0  0  0  0  0
  141.5040   71.2920  220.5630 C   0  0  0  0  0  0  0  0  0  0  0  0
  141.8880   72.5920  220.5270 N   0  0  0  0  0  0  0  0  0  0  0  0
  141.4120   73.4820  221.4330 C   0  0  0  0  0  0  0  0  0  0  0  0
  141.8370   74.8500  221.3950 N   0  0  0  0  0  0  0  0  0  0  0  0
  141.7980   75.6390  220.1640 C   0  0  0  0  0  0  0  0  0  0  0  0
  142.2460   74.7890  218.9660 C   0  0  0  0  0  0  0  0  0  0  0  0
  143.7720   74.8590  218.7250 C   0  0  0  0  0  0  0  0  0  0  0  0
  144.2100   73.8970  217.5920 C   0  0  0  0  0  0  0  0  0  0  0  0
  145.6340   73.3760  217.8370 C   0  0  0  0  0  0  0  0  0  0  0  0
  145.7590   72.6150  219.0330 O   0  0  0  0  0  0  0  0  0  0  0  0
  144.9410   73.0730  220.1060 C   0  0  0  0  0  0  0  0  0  0  0  0
  144.5520   74.5610  220.0270 C   0  0  0  0  0  0  0  0  0  0  0  0
  140.5290   73.0700  222.3770 N   0  0  0  0  0  0  0  0  0  0  0  0
  140.1390   71.7670  222.4260 C   0  0  0  0  0  0  0  0  0  0  0  0
  139.1690   71.2980  223.4760 C   0  0  1  0  0  0  0  0  0  0  0  0
  138.3970   70.0310  223.0330 C   0  0  0  0  0  0  0  0  0  0  0  0
  138.8760   68.8670  223.9210 C   0  0  0  0  0  0  0  0  0  0  0  0
  139.7100   69.5240  224.9540 C   0  0  0  0  0  0  0  0  0  0  0  0
  140.3030   68.9120  226.0610 C   0  0  0  0  0  0  0  0  0  0  0  0
  141.0780   69.6930  226.9290 C   0  0  0  0  0  0  0  0  0  0  0  0
  141.2520   71.0670  226.6790 C   0  0  0  0  0  0  0  0  0  0  0  0
  140.6550   71.6590  225.5560 C   0  0  0  0  0  0  0  0  0  0  0  0
  139.8850   70.8630  224.7040 C   0  0  0  0  0  0  0  0  0  0  0  0
  140.6320   70.8830  221.5210 N   0  0  0  0  0  0  0  0  0  0  0  0
  143.3670   70.5060  219.0310 C   0  0  0  0  0  0  0  0  0  0  0  0
  146.1589   65.8691  219.1576 H   0  0  0  0  0  0  0  0  0  0  0  0
  147.3314   68.0372  218.7775 H   0  0  0  0  0  0  0  0  0  0  0  0
  146.0374   70.1664  218.7279 H   0  0  0  0  0  0  0  0  0  0  0  0
  143.6911   65.8257  219.5171 H   0  0  0  0  0  0  0  0  0  0  0  0
  141.5394   67.0617  219.0662 H   0  0  0  0  0  0  0  0  0  0  0  0
  141.8484   67.8183  220.6903 H   0  0  0  0  0  0  0  0  0  0  0  0
  141.1438   69.1998  218.0687 H   0  0  0  0  0  0  0  0  0  0  0  0
  140.2449   69.2222  219.6210 H   0  0  0  0  0  0  0  0  0  0  0  0
  142.1260   75.3170  222.2860 H   0  0  0  0  0  0  0  0  0  0  0  0
  140.7705   75.9925  219.9930 H   0  0  0  0  0  0  0  0  0  0  0  0
  142.4810   76.4949  220.2682 H   0  0  0  0  0  0  0  0  0  0  0  0
  141.9665   73.7417  219.1529 H   0  0  0  0  0  0  0  0  0  0  0  0
  141.7484   75.1878  218.0697 H   0  0  0  0  0  0  0  0  0  0  0  0
  144.0106   75.8846  218.4069 H   0  0  0  0  0  0  0  0  0  0  0  0
  143.5158   73.0445  217.5546 H   0  0  0  0  0  0  0  0  0  0  0  0
  144.1952   74.4459  216.6388 H   0  0  0  0  0  0  0  0  0  0  0  0
  145.9238   72.7404  216.9873 H   0  0  0  0  0  0  0  0  0  0  0  0
  146.2879   74.2544  217.9410 H   0  0  0  0  0  0  0  0  0  0  0  0
  144.0166   72.4767  220.1112 H   0  0  0  0  0  0  0  0  0  0  0  0
  145.5363   72.9551  221.0235 H   0  0  0  0  0  0  0  0  0  0  0  0
  143.9205   74.8146  220.8912 H   0  0  0  0  0  0  0  0  0  0  0  0
  145.4711   75.1654  220.0323 H   0  0  0  0  0  0  0  0  0  0  0  0
  138.4975   72.1527  223.6449 H   0  0  0  0  0  0  0  0  0  0  0  0
  137.3157   70.1842  223.1645 H   0  0  0  0  0  0  0  0  0  0  0  0
  138.5845   69.8128  221.9713 H   0  0  0  0  0  0  0  0  0  0  0  0
  138.0216   68.3482  224.3801 H   0  0  0  0  0  0  0  0  0  0  0  0
  139.4277   68.1020  223.3550 H   0  0  0  0  0  0  0  0  0  0  0  0
  140.1642   67.8369  226.2479 H   0  0  0  0  0  0  0  0  0  0  0  0
  141.5515   69.2310  227.8078 H   0  0  0  0  0  0  0  0  0  0  0  0
  141.8571   71.6777  227.3652 H   0  0  0  0  0  0  0  0  0  0  0  0
  140.7907   72.7309  225.3498 H   0  0  0  0  0  0  0  0  0  0  0  0
  143.2870   70.8115  217.9773 H   0  0  0  0  0  0  0  0  0  0  0  0
  143.9087   71.2673  219.6115 H   0  0  0  0  0  0  0  0  0  0  0  0
  1  2  2  0
  2  3  1  0
  3  4  2  0
  4  5  1  0
  5  6  2  0
  5  7  1  0
  7  8  1  0
  8  9  1  0
  9 10  1  0
 10 11  2  0
 11 12  1  0
 12 13  1  0
 13 14  1  0
 14 15  1  0
 15 16  1  0
 16 17  1  0
 17 18  1  0
 18 19  1  0
 19 20  1  0
 20 21  1  0
 12 22  2  0
 22 23  1  0
 23 24  1  0
 24 25  1  0
 25 26  1  0
 26 27  1  0
 27 28  2  0
 28 29  1  0
 29 30  2  0
 30 31  1  0
 31 32  2  0
 23 33  2  0
  9 34  1  0
  6  1  1  0
 33 10  1  0
 34  4  1  0
 21 16  1  0
 32 24  1  0
 32 27  1  0
  1 35  1  0
  2 36  1  0
  3 37  1  0
  6 38  1  0
  7 39  1  0
  7 40  1  0
  8 41  1  0
  8 42  1  0
 13 43  1  0
 14 44  1  0
 14 45  1  0
 15 46  1  0
 15 47  1  0
 16 48  1  0
 17 49  1  0
 17 50  1  0
 18 51  1  0
 18 52  1  0
 20 53  1  0
 20 54  1  0
 21 55  1  0
 21 56  1  0
 24 57  1  1
 25 58  1  0
 25 59  1  0
 26 60  1  0
 26 61  1  0
 28 62  1  0
 29 63  1  0
 30 64  1  0
 31 65  1  0
 34 66  1  0
 34 67  1  0
M  END
>  <UniqueID>  (12) 
494

>  <SMILES>  (12) 
c1ccc2c(c1)CCN(c1nc(NCCC3CCOCC3)nc([C@H]3CCc4ccccc43)n1)C2

>  <Energy>  (12) 
82.83335883849176

>  <Genealogy>  (12) 
c1ccc2c(c1)CCN(c1nc(NCCC3CCOCC3)nc([C@H]3CCc4ccccc43)n1)C2 (chirality)
c1ccc2c(c1)CCN(c1nc(NCCC3CCOCC3)nc([C@H]3CCc4ccccc43)n1)C2 (3D coordinates assigned)
c1ccc2c(c1)CCN(c1nc(NCCC3CCOCC3)nc([C@H]3CCc4ccccc43)n1)C2 (nonaromatic ring conformer: 82.83335883849176 kcal/mol)

>  <smiles>  (12) 
c1ccc2c(c1)CCN(c1nc(NCCC3CCOCC3)nc(C3CCc4ccccc43)n1)C2

>  <score_type>  (12) 
oracle

>  <origin>  (12) 
autodockgpu

>  <m_score__min__energy>  (12) 
-10.26

>  <m_primary>  (12) 
energy

>  <meeko>  (12) 
{"free_energy": -9.03, "intermolecular_energy": -10.82, "internal_energy": -1.89, "cluster_size": 3, "cluster_id": 4, "rank_in_cluster": 3}

>  <energy>  (12) 
-9.16

>  <cluster_rmsd>  (12) 
0.2

>  <rmsd>  (12) 
271.22

>  <cluster>  (12) 
3

$$$$
AOEMPDNDYKTPOZ-MVXFCSEMNA-N
     RDKit          3D

 67 72  0  0  0  0  0  0  0  0999 V2000
  141.8260   80.1100  222.5920 C   0  0  0  0  0  0  0  0  0  0  0  0
  140.7940   79.7660  223.4670 C   0  0  0  0  0  0  0  0  0  0  0  0
  140.1210   78.5530  223.3120 C   0  0  0  0  0  0  0  0  0  0  0  0
  140.4820   77.6650  222.2860 C   0  0  0  0  0  0  0  0  0  0  0  0
  141.5150   78.0210  221.3850 C   0  0  0  0  0  0  0  0  0  0  0  0
  142.1900   79.2400  221.5590 C   0  0  0  0  0  0  0  0  0  0  0  0
  141.9860   77.0710  220.3050 C   0  0  0  0  0  0  0  0  0  0  0  0
  140.9470   75.9940  219.9830 C   0  0  0  0  0  0  0  0  0  0  0  0
  140.4150   75.4520  221.2340 N   0  0  0  0  0  0  0  0  0  0  0  0
  140.6270   74.0780  221.6140 C   0  0  0  0  0  0  0  0  0  0  0  0
  141.6760   73.3850  221.1040 N   0  0  0  0  0  0  0  0  0  0  0  0
  141.8890   72.0920  221.4520 C   0  0  0  0  0  0  0  0  0  0  0  0
  142.9920   71.3660  220.8950 N   0  0  0  0  0  0  0  0  0  0  0  0
  143.0350   70.9860  219.4840 C   0  0  0  0  0  0  0  0  0  0  0  0
  142.9740   72.2340  218.5890 C   0  0  0  0  0  0  0  0  0  0  0  0
  144.3030   73.0250  218.5820 C   0  0  0  0  0  0  0  0  0  0  0  0
  145.3520   72.3770  219.5200 C   0  0  0  0  0  0  0  0  0  0  0  0
  146.2850   73.4410  220.1170 C   0  0  0  0  0  0  0  0  0  0  0  0
  145.6080   74.3940  220.9270 O   0  0  0  0  0  0  0  0  0  0  0  0
  144.2980   74.7260  220.4720 C   0  0  0  0  0  0  0  0  0  0  0  0
  144.0680   74.5060  218.9660 C   0  0  0  0  0  0  0  0  0  0  0  0
  141.0520   71.4880  222.3330 N   0  0  0  0  0  0  0  0  0  0  0  0
  139.9930   72.1720  222.8490 C   0  0  0  0  0  0  0  0  0  0  0  0
  139.0530   71.5080  223.8170 C   0  0  1  0  0  0  0  0  0  0  0  0
  138.4400   70.2100  223.2360 C   0  0  0  0  0  0  0  0  0  0  0  0
  139.0200   69.0290  224.0370 C   0  0  0  0  0  0  0  0  0  0  0  0
  139.7460   69.6760  225.1550 C   0  0  0  0  0  0  0  0  0  0  0  0
  140.3720   69.0340  226.2260 C   0  0  0  0  0  0  0  0  0  0  0  0
  141.0310   69.8140  227.1870 C   0  0  0  0  0  0  0  0  0  0  0  0
  141.0570   71.2150  227.0650 C   0  0  0  0  0  0  0  0  0  0  0  0
  140.4300   71.8380  225.9750 C   0  0  0  0  0  0  0  0  0  0  0  0
  139.7770   71.0430  225.0280 C   0  0  0  0  0  0  0  0  0  0  0  0
  139.7840   73.4630  222.4830 N   0  0  0  0  0  0  0  0  0  0  0  0
  139.7010   76.3870  222.1140 C   0  0  0  0  0  0  0  0  0  0  0  0
  142.3539   81.0671  222.7152 H   0  0  0  0  0  0  0  0  0  0  0  0
  140.5110   80.4515  224.2794 H   0  0  0  0  0  0  0  0  0  0  0  0
  139.3023   78.2910  223.9983 H   0  0  0  0  0  0  0  0  0  0  0  0
  143.0103   79.5124  220.8786 H   0  0  0  0  0  0  0  0  0  0  0  0
  142.1914   77.6483  219.3915 H   0  0  0  0  0  0  0  0  0  0  0  0
  142.8907   76.5654  220.6736 H   0  0  0  0  0  0  0  0  0  0  0  0
  140.1286   76.4357  219.3955 H   0  0  0  0  0  0  0  0  0  0  0  0
  141.4173   75.1881  219.4005 H   0  0  0  0  0  0  0  0  0  0  0  0
  143.8180   71.1540  221.5020 H   0  0  0  0  0  0  0  0  0  0  0  0
  143.9700   70.4422  219.2838 H   0  0  0  0  0  0  0  0  0  0  0  0
  142.1689   70.3454  219.2612 H   0  0  0  0  0  0  0  0  0  0  0  0
  142.7458   71.9191  217.5601 H   0  0  0  0  0  0  0  0  0  0  0  0
  142.1938   72.8961  218.9925 H   0  0  0  0  0  0  0  0  0  0  0  0
  144.7018   72.9927  217.5574 H   0  0  0  0  0  0  0  0  0  0  0  0
  144.8314   71.8554  220.3367 H   0  0  0  0  0  0  0  0  0  0  0  0
  145.9563   71.6681  218.9349 H   0  0  0  0  0  0  0  0  0  0  0  0
  147.0425   72.9346  220.7333 H   0  0  0  0  0  0  0  0  0  0  0  0
  146.7334   73.9895  219.2755 H   0  0  0  0  0  0  0  0  0  0  0  0
  143.5758   74.1061  221.0236 H   0  0  0  0  0  0  0  0  0  0  0  0
  144.1687   75.8033  220.6531 H   0  0  0  0  0  0  0  0  0  0  0  0
  143.0334   74.7833  218.7154 H   0  0  0  0  0  0  0  0  0  0  0  0
  144.7795   75.1313  218.4067 H   0  0  0  0  0  0  0  0  0  0  0  0
  138.2869   72.2667  224.0348 H   0  0  0  0  0  0  0  0  0  0  0  0
  137.3450   70.2324  223.3386 H   0  0  0  0  0  0  0  0  0  0  0  0
  138.6812   70.1107  222.1674 H   0  0  0  0  0  0  0  0  0  0  0  0
  138.2158   68.3812  224.4160 H   0  0  0  0  0  0  0  0  0  0  0  0
  139.6695   68.3829  223.4281 H   0  0  0  0  0  0  0  0  0  0  0  0
  140.3484   67.9378  226.3138 H   0  0  0  0  0  0  0  0  0  0  0  0
  141.5293   69.3286  228.0391 H   0  0  0  0  0  0  0  0  0  0  0  0
  141.5695   71.8231  227.8250 H   0  0  0  0  0  0  0  0  0  0  0  0
  140.4518   72.9325  225.8675 H   0  0  0  0  0  0  0  0  0  0  0  0
  138.7209   76.6203  221.6725 H   0  0  0  0  0  0  0  0  0  0  0  0
  139.5753   75.9159  223.1001 H   0  0  0  0  0  0  0  0  0  0  0  0
  1  2  2  0
  2  3  1  0
  3  4  2  0
  4  5  1  0
  5  6  2  0
  5  7  1  0
  7  8  1  0
  8  9  1  0
  9 10  1  0
 10 11  2  0
 11 12  1  0
 12 13  1  0
 13 14  1  0
 14 15  1  0
 15 16  1  0
 16 17  1  0
 17 18  1  0
 18 19  1  0
 19 20  1  0
 20 21  1  0
 12 22  2  0
 22 23  1  0
 23 24  1  0
 24 25  1  0
 25 26  1  0
 26 27  1  0
 27 28  2  0
 28 29  1  0
 29 30  2  0
 30 31  1  0
 31 32  2  0
 23 33  2  0
  9 34  1  0
  6  1  1  0
 33 10  1  0
 34  4  1  0
 21 16  1  0
 32 24  1  0
 32 27  1  0
  1 35  1  0
  2 36  1  0
  3 37  1  0
  6 38  1  0
  7 39  1  0
  7 40  1  0
  8 41  1  0
  8 42  1  0
 13 43  1  0
 14 44  1  0
 14 45  1  0
 15 46  1  0
 15 47  1  0
 16 48  1  0
 17 49  1  0
 17 50  1  0
 18 51  1  0
 18 52  1  0
 20 53  1  0
 20 54  1  0
 21 55  1  0
 21 56  1  0
 24 57  1  1
 25 58  1  0
 25 59  1  0
 26 60  1  0
 26 61  1  0
 28 62  1  0
 29 63  1  0
 30 64  1  0
 31 65  1  0
 34 66  1  0
 34 67  1  0
M  END
>  <UniqueID>  (13) 
494

>  <SMILES>  (13) 
c1ccc2c(c1)CCN(c1nc(NCCC3CCOCC3)nc([C@H]3CCc4ccccc43)n1)C2

>  <Energy>  (13) 
82.83335883849176

>  <Genealogy>  (13) 
c1ccc2c(c1)CCN(c1nc(NCCC3CCOCC3)nc([C@H]3CCc4ccccc43)n1)C2 (chirality)
c1ccc2c(c1)CCN(c1nc(NCCC3CCOCC3)nc([C@H]3CCc4ccccc43)n1)C2 (3D coordinates assigned)
c1ccc2c(c1)CCN(c1nc(NCCC3CCOCC3)nc([C@H]3CCc4ccccc43)n1)C2 (nonaromatic ring conformer: 82.83335883849176 kcal/mol)

>  <smiles>  (13) 
c1ccc2c(c1)CCN(c1nc(NCCC3CCOCC3)nc(C3CCc4ccccc43)n1)C2

>  <score_type>  (13) 
oracle

>  <origin>  (13) 
autodockgpu

>  <m_score__min__energy>  (13) 
-10.26

>  <m_primary>  (13) 
energy

>  <meeko>  (13) 
{"free_energy": -9.16, "intermolecular_energy": -10.95, "internal_energy": -1.82, "cluster_size": 3, "cluster_id": 3, "rank_in_cluster": 2}

>  <energy>  (13) 
-8.73

>  <cluster_rmsd>  (13) 
0.87

>  <rmsd>  (13) 
271.05

>  <cluster>  (13) 
3

$$$$
AOEMPDNDYKTPOZ-MVXFCSEMNA-N
     RDKit          3D

 67 72  0  0  0  0  0  0  0  0999 V2000
  141.8480   80.1870  222.5980 C   0  0  0  0  0  0  0  0  0  0  0  0
  140.8700   79.8420  223.5310 C   0  0  0  0  0  0  0  0  0  0  0  0
  140.1940   78.6260  223.4190 C   0  0  0  0  0  0  0  0  0  0  0  0
  140.4990   77.7360  222.3760 C   0  0  0  0  0  0  0  0  0  0  0  0
  141.4770   78.0930  221.4160 C   0  0  0  0  0  0  0  0  0  0  0  0
  142.1560   79.3160  221.5480 C   0  0  0  0  0  0  0  0  0  0  0  0
  141.8890   77.1420  220.3130 C   0  0  0  0  0  0  0  0  0  0  0  0
  140.8370   76.0610  220.0540 C   0  0  0  0  0  0  0  0  0  0  0  0
  140.3800   75.5200  221.3360 N   0  0  0  0  0  0  0  0  0  0  0  0
  140.6190   74.1480  221.7060 C   0  0  0  0  0  0  0  0  0  0  0  0
  141.7100   73.4960  221.2330 N   0  0  0  0  0  0  0  0  0  0  0  0
  141.9490   72.2040  221.5730 C   0  0  0  0  0  0  0  0  0  0  0  0
  143.0970   71.5210  221.0560 N   0  0  0  0  0  0  0  0  0  0  0  0
  143.1030   70.9160  219.7250 C   0  0  0  0  0  0  0  0  0  0  0  0
  143.0790   72.0030  218.6390 C   0  0  0  0  0  0  0  0  0  0  0  0
  144.3740   72.8480  218.6160 C   0  0  0  0  0  0  0  0  0  0  0  0
  145.4460   72.2660  219.5720 C   0  0  0  0  0  0  0  0  0  0  0  0
  146.3320   73.3820  220.1460 C   0  0  0  0  0  0  0  0  0  0  0  0
  145.6130   74.3250  220.9320 O   0  0  0  0  0  0  0  0  0  0  0  0
  144.2920   74.5900  220.4660 C   0  0  0  0  0  0  0  0  0  0  0  0
  144.0770   74.3260  218.9650 C   0  0  0  0  0  0  0  0  0  0  0  0
  141.0940   71.5630  222.4090 N   0  0  0  0  0  0  0  0  0  0  0  0
  139.9930   72.2050  222.8870 C   0  0  0  0  0  0  0  0  0  0  0  0
  139.0340   71.4980  223.8040 C   0  0  1  0  0  0  0  0  0  0  0  0
  138.3670   70.2790  223.1220 C   0  0  0  0  0  0  0  0  0  0  0  0
  138.9040   69.0130  223.8150 C   0  0  0  0  0  0  0  0  0  0  0  0
  139.6620   69.5350  224.9760 C   0  0  0  0  0  0  0  0  0  0  0  0
  140.2690   68.7800  225.9830 C   0  0  0  0  0  0  0  0  0  0  0  0
  140.9640   69.4500  227.0010 C   0  0  0  0  0  0  0  0  0  0  0  0
  141.0450   70.8540  226.9970 C   0  0  0  0  0  0  0  0  0  0  0  0
  140.4360   71.5910  225.9690 C   0  0  0  0  0  0  0  0  0  0  0  0
  139.7470   70.9050  224.9650 C   0  0  0  0  0  0  0  0  0  0  0  0
  139.7590   73.4940  222.5290 N   0  0  0  0  0  0  0  0  0  0  0  0
  139.7140   76.4540  222.2520 C   0  0  0  0  0  0  0  0  0  0  0  0
  142.3783   81.1465  222.6884 H   0  0  0  0  0  0  0  0  0  0  0  0
  140.6312   80.5292  224.3561 H   0  0  0  0  0  0  0  0  0  0  0  0
  139.4174   78.3630  224.1523 H   0  0  0  0  0  0  0  0  0  0  0  0
  142.9347   79.5901  220.8210 H   0  0  0  0  0  0  0  0  0  0  0  0
  142.0397   77.7176  219.3878 H   0  0  0  0  0  0  0  0  0  0  0  0
  142.8153   76.6405  220.6301 H   0  0  0  0  0  0  0  0  0  0  0  0
  139.9844   76.4986  219.5139 H   0  0  0  0  0  0  0  0  0  0  0  0
  141.2754   75.2552  219.4469 H   0  0  0  0  0  0  0  0  0  0  0  0
  143.9780   71.5080  221.6220 H   0  0  0  0  0  0  0  0  0  0  0  0
  144.0120   70.3076  219.6081 H   0  0  0  0  0  0  0  0  0  0  0  0
  142.2080   70.2857  219.6170 H   0  0  0  0  0  0  0  0  0  0  0  0
  142.9563   71.5192  217.6587 H   0  0  0  0  0  0  0  0  0  0  0  0
  142.2424   72.6808  218.8639 H   0  0  0  0  0  0  0  0  0  0  0  0
  144.7768   72.8084  217.5932 H   0  0  0  0  0  0  0  0  0  0  0  0
  144.9447   71.7426  220.3995 H   0  0  0  0  0  0  0  0  0  0  0  0
  146.0812   71.5691  219.0055 H   0  0  0  0  0  0  0  0  0  0  0  0
  147.1079   72.9223  220.7758 H   0  0  0  0  0  0  0  0  0  0  0  0
  146.7598   73.9288  219.2928 H   0  0  0  0  0  0  0  0  0  0  0  0
  143.5950   73.9525  221.0298 H   0  0  0  0  0  0  0  0  0  0  0  0
  144.1162   75.6646  220.6218 H   0  0  0  0  0  0  0  0  0  0  0  0
  143.0329   74.5546  218.7051 H   0  0  0  0  0  0  0  0  0  0  0  0
  144.7644   74.9669  218.3935 H   0  0  0  0  0  0  0  0  0  0  0  0
  138.2993   72.2643  224.0920 H   0  0  0  0  0  0  0  0  0  0  0  0
  137.2744   70.3355  223.2362 H   0  0  0  0  0  0  0  0  0  0  0  0
  138.5980   70.2609  222.0467 H   0  0  0  0  0  0  0  0  0  0  0  0
  138.0770   68.3676  224.1460 H   0  0  0  0  0  0  0  0  0  0  0  0
  139.5231   68.3951  223.1480 H   0  0  0  0  0  0  0  0  0  0  0  0
  140.2032   67.6820  225.9777 H   0  0  0  0  0  0  0  0  0  0  0  0
  141.4471   68.8753  227.8049 H   0  0  0  0  0  0  0  0  0  0  0  0
  141.5862   71.3753  227.8003 H   0  0  0  0  0  0  0  0  0  0  0  0
  140.5000   72.6890  225.9540 H   0  0  0  0  0  0  0  0  0  0  0  0
  138.7095   76.6824  221.8663 H   0  0  0  0  0  0  0  0  0  0  0  0
  139.6463   75.9853  223.2448 H   0  0  0  0  0  0  0  0  0  0  0  0
  1  2  2  0
  2  3  1  0
  3  4  2  0
  4  5  1  0
  5  6  2  0
  5  7  1  0
  7  8  1  0
  8  9  1  0
  9 10  1  0
 10 11  2  0
 11 12  1  0
 12 13  1  0
 13 14  1  0
 14 15  1  0
 15 16  1  0
 16 17  1  0
 17 18  1  0
 18 19  1  0
 19 20  1  0
 20 21  1  0
 12 22  2  0
 22 23  1  0
 23 24  1  0
 24 25  1  0
 25 26  1  0
 26 27  1  0
 27 28  2  0
 28 29  1  0
 29 30  2  0
 30 31  1  0
 31 32  2  0
 23 33  2  0
  9 34  1  0
  6  1  1  0
 33 10  1  0
 34  4  1  0
 21 16  1  0
 32 24  1  0
 32 27  1  0
  1 35  1  0
  2 36  1  0
  3 37  1  0
  6 38  1  0
  7 39  1  0
  7 40  1  0
  8 41  1  0
  8 42  1  0
 13 43  1  0
 14 44  1  0
 14 45  1  0
 15 46  1  0
 15 47  1  0
 16 48  1  0
 17 49  1  0
 17 50  1  0
 18 51  1  0
 18 52  1  0
 20 53  1  0
 20 54  1  0
 21 55  1  0
 21 56  1  0
 24 57  1  1
 25 58  1  0
 25 59  1  0
 26 60  1  0
 26 61  1  0
 28 62  1  0
 29 63  1  0
 30 64  1  0
 31 65  1  0
 34 66  1  0
 34 67  1  0
M  END
>  <UniqueID>  (14) 
494

>  <SMILES>  (14) 
c1ccc2c(c1)CCN(c1nc(NCCC3CCOCC3)nc([C@H]3CCc4ccccc43)n1)C2

>  <Energy>  (14) 
82.83335883849176

>  <Genealogy>  (14) 
c1ccc2c(c1)CCN(c1nc(NCCC3CCOCC3)nc([C@H]3CCc4ccccc43)n1)C2 (chirality)
c1ccc2c(c1)CCN(c1nc(NCCC3CCOCC3)nc([C@H]3CCc4ccccc43)n1)C2 (3D coordinates assigned)
c1ccc2c(c1)CCN(c1nc(NCCC3CCOCC3)nc([C@H]3CCc4ccccc43)n1)C2 (nonaromatic ring conformer: 82.83335883849176 kcal/mol)

>  <smiles>  (14) 
c1ccc2c(c1)CCN(c1nc(NCCC3CCOCC3)nc(C3CCc4ccccc43)n1)C2

>  <score_type>  (14) 
oracle

>  <origin>  (14) 
autodockgpu

>  <m_score__min__energy>  (14) 
-10.26

>  <m_primary>  (14) 
energy

>  <meeko>  (14) 
{"free_energy": -9.3, "intermolecular_energy": -11.09, "internal_energy": -1.77, "cluster_size": 3, "cluster_id": 3, "rank_in_cluster": 1}

>  <energy>  (14) 
-9.06

>  <cluster_rmsd>  (14) 
0.0

>  <rmsd>  (14) 
270.19

>  <cluster>  (14) 
4

$$$$
AOEMPDNDYKTPOZ-MVXFCSEMNA-N
     RDKit          3D

 67 72  0  0  0  0  0  0  0  0999 V2000
  141.9650   80.3060  223.0420 C   0  0  0  0  0  0  0  0  0  0  0  0
  140.8570   79.9210  223.7990 C   0  0  0  0  0  0  0  0  0  0  0  0
  140.1620   78.7530  223.4780 C   0  0  0  0  0  0  0  0  0  0  0  0
  140.5760   77.9520  222.4020 C   0  0  0  0  0  0  0  0  0  0  0  0
  141.6880   78.3510  221.6200 C   0  0  0  0  0  0  0  0  0  0  0  0
  142.3830   79.5220  221.9610 C   0  0  0  0  0  0  0  0  0  0  0  0
  142.2150   77.4880  220.4940 C   0  0  0  0  0  0  0  0  0  0  0  0
  141.1730   76.4850  219.9920 C   0  0  0  0  0  0  0  0  0  0  0  0
  140.5260   75.8490  221.1420 N   0  0  0  0  0  0  0  0  0  0  0  0
  140.6660   74.4400  221.4040 C   0  0  0  0  0  0  0  0  0  0  0  0
  139.8040   73.8150  222.2440 N   0  0  0  0  0  0  0  0  0  0  0  0
  139.9220   72.4880  222.5000 C   0  0  0  0  0  0  0  0  0  0  0  0
  139.0140   71.8420  223.4010 N   0  0  0  0  0  0  0  0  0  0  0  0
  139.4820   71.0920  224.5660 C   0  0  0  0  0  0  0  0  0  0  0  0
  140.7200   71.7660  225.1780 C   0  0  0  0  0  0  0  0  0  0  0  0
  141.3650   70.9170  226.2980 C   0  0  0  0  0  0  0  0  0  0  0  0
  140.7730   69.4860  226.3360 C   0  0  0  0  0  0  0  0  0  0  0  0
  140.7740   68.9300  227.7670 C   0  0  0  0  0  0  0  0  0  0  0  0
  139.9700   69.6840  228.6670 O   0  0  0  0  0  0  0  0  0  0  0  0
  139.9670   71.0870  228.4150 C   0  0  0  0  0  0  0  0  0  0  0  0
  141.2130   71.6080  227.6740 C   0  0  0  0  0  0  0  0  0  0  0  0
  140.9050   71.7740  221.8970 N   0  0  0  0  0  0  0  0  0  0  0  0
  141.7790   72.3910  221.0550 C   0  0  0  0  0  0  0  0  0  0  0  0
  142.8800   71.6100  220.3900 C   0  0  1  0  0  0  0  0  0  0  0  0
  142.6190   71.4070  218.8780 C   0  0  0  0  0  0  0  0  0  0  0  0
  143.6690   72.2360  218.1150 C   0  0  0  0  0  0  0  0  0  0  0  0
  144.6020   72.6930  219.1710 C   0  0  0  0  0  0  0  0  0  0  0  0
  145.7890   73.4060  218.9850 C   0  0  0  0  0  0  0  0  0  0  0  0
  146.5400   73.7710  220.1110 C   0  0  0  0  0  0  0  0  0  0  0  0
  146.0960   73.4240  221.4000 C   0  0  0  0  0  0  0  0  0  0  0  0
  144.8960   72.7160  221.5640 C   0  0  0  0  0  0  0  0  0  0  0  0
  144.1620   72.3600  220.4290 C   0  0  0  0  0  0  0  0  0  0  0  0
  141.6580   73.7220  220.8160 N   0  0  0  0  0  0  0  0  0  0  0  0
  139.7730   76.7250  222.0490 C   0  0  0  0  0  0  0  0  0  0  0  0
  142.5102   81.2270  223.2957 H   0  0  0  0  0  0  0  0  0  0  0  0
  140.5311   80.5383  224.6491 H   0  0  0  0  0  0  0  0  0  0  0  0
  139.2844   78.4587  224.0722 H   0  0  0  0  0  0  0  0  0  0  0  0
  143.2625   79.8255  221.3742 H   0  0  0  0  0  0  0  0  0  0  0  0
  142.5102   78.1392  219.6580 H   0  0  0  0  0  0  0  0  0  0  0  0
  143.0716   76.9168  220.8813 H   0  0  0  0  0  0  0  0  0  0  0  0
  140.4178   77.0096  219.3883 H   0  0  0  0  0  0  0  0  0  0  0  0
  141.6640   75.7195  219.3732 H   0  0  0  0  0  0  0  0  0  0  0  0
  137.9840   71.9610  223.2560 H   0  0  0  0  0  0  0  0  0  0  0  0
  138.6806   71.0551  225.3186 H   0  0  0  0  0  0  0  0  0  0  0  0
  139.7514   70.0737  224.2489 H   0  0  0  0  0  0  0  0  0  0  0  0
  141.4639   71.9250  224.3834 H   0  0  0  0  0  0  0  0  0  0  0  0
  140.3954   72.7172  225.6251 H   0  0  0  0  0  0  0  0  0  0  0  0
  142.4380   70.8311  226.0714 H   0  0  0  0  0  0  0  0  0  0  0  0
  139.7391   69.5140  225.9613 H   0  0  0  0  0  0  0  0  0  0  0  0
  141.3931   68.8325  225.7048 H   0  0  0  0  0  0  0  0  0  0  0  0
  140.3937   67.8982  227.7404 H   0  0  0  0  0  0  0  0  0  0  0  0
  141.8094   68.9822  228.1349 H   0  0  0  0  0  0  0  0  0  0  0  0
  139.0818   71.3245  227.8067 H   0  0  0  0  0  0  0  0  0  0  0  0
  139.9599   71.5804  229.3981 H   0  0  0  0  0  0  0  0  0  0  0  0
  141.1151   72.6932  227.5234 H   0  0  0  0  0  0  0  0  0  0  0  0
  142.1027   71.3835  228.2807 H   0  0  0  0  0  0  0  0  0  0  0  0
  142.9201   70.6550  220.9343 H   0  0  0  0  0  0  0  0  0  0  0  0
  142.7190   70.3427  218.6186 H   0  0  0  0  0  0  0  0  0  0  0  0
  141.6013   71.7292  218.6124 H   0  0  0  0  0  0  0  0  0  0  0  0
  144.1925   71.6158  217.3725 H   0  0  0  0  0  0  0  0  0  0  0  0
  143.2231   73.0706  217.5541 H   0  0  0  0  0  0  0  0  0  0  0  0
  146.1279   73.6759  217.9739 H   0  0  0  0  0  0  0  0  0  0  0  0
  147.4790   74.3302  219.9863 H   0  0  0  0  0  0  0  0  0  0  0  0
  146.6906   73.7083  222.2807 H   0  0  0  0  0  0  0  0  0  0  0  0
  144.5388   72.4457  222.5687 H   0  0  0  0  0  0  0  0  0  0  0  0
  138.8390   77.0349  221.5575 H   0  0  0  0  0  0  0  0  0  0  0  0
  139.5548   76.1698  222.9732 H   0  0  0  0  0  0  0  0  0  0  0  0
  1  2  2  0
  2  3  1  0
  3  4  2  0
  4  5  1  0
  5  6  2  0
  5  7  1  0
  7  8  1  0
  8  9  1  0
  9 10  1  0
 10 11  2  0
 11 12  1  0
 12 13  1  0
 13 14  1  0
 14 15  1  0
 15 16  1  0
 16 17  1  0
 17 18  1  0
 18 19  1  0
 19 20  1  0
 20 21  1  0
 12 22  2  0
 22 23  1  0
 23 24  1  0
 24 25  1  0
 25 26  1  0
 26 27  1  0
 27 28  2  0
 28 29  1  0
 29 30  2  0
 30 31  1  0
 31 32  2  0
 23 33  2  0
  9 34  1  0
  6  1  1  0
 33 10  1  0
 34  4  1  0
 21 16  1  0
 32 24  1  0
 32 27  1  0
  1 35  1  0
  2 36  1  0
  3 37  1  0
  6 38  1  0
  7 39  1  0
  7 40  1  0
  8 41  1  0
  8 42  1  0
 13 43  1  0
 14 44  1  0
 14 45  1  0
 15 46  1  0
 15 47  1  0
 16 48  1  0
 17 49  1  0
 17 50  1  0
 18 51  1  0
 18 52  1  0
 20 53  1  0
 20 54  1  0
 21 55  1  0
 21 56  1  0
 24 57  1  1
 25 58  1  0
 25 59  1  0
 26 60  1  0
 26 61  1  0
 28 62  1  0
 29 63  1  0
 30 64  1  0
 31 65  1  0
 34 66  1  0
 34 67  1  0
M  END
>  <UniqueID>  (15) 
494

>  <SMILES>  (15) 
c1ccc2c(c1)CCN(c1nc(NCCC3CCOCC3)nc([C@H]3CCc4ccccc43)n1)C2

>  <Energy>  (15) 
82.83335883849176

>  <Genealogy>  (15) 
c1ccc2c(c1)CCN(c1nc(NCCC3CCOCC3)nc([C@H]3CCc4ccccc43)n1)C2 (chirality)
c1ccc2c(c1)CCN(c1nc(NCCC3CCOCC3)nc([C@H]3CCc4ccccc43)n1)C2 (3D coordinates assigned)
c1ccc2c(c1)CCN(c1nc(NCCC3CCOCC3)nc([C@H]3CCc4ccccc43)n1)C2 (nonaromatic ring conformer: 82.83335883849176 kcal/mol)

>  <smiles>  (15) 
c1ccc2c(c1)CCN(c1nc(NCCC3CCOCC3)nc(C3CCc4ccccc43)n1)C2

>  <score_type>  (15) 
oracle

>  <origin>  (15) 
autodockgpu

>  <m_score__min__energy>  (15) 
-10.26

>  <m_primary>  (15) 
energy

>  <meeko>  (15) 
{"free_energy": -9.7, "intermolecular_energy": -11.49, "internal_energy": -1.46, "cluster_size": 7, "cluster_id": 1, "rank_in_cluster": 6}

>  <energy>  (15) 
-9.05

>  <cluster_rmsd>  (15) 
0.16

>  <rmsd>  (15) 
270.24

>  <cluster>  (15) 
4

$$$$
AOEMPDNDYKTPOZ-MVXFCSEMNA-N
     RDKit          3D

 67 72  0  0  0  0  0  0  0  0999 V2000
  139.8040   69.3550  226.6460 C   0  0  0  0  0  0  0  0  0  0  0  0
  141.0850   69.8830  226.4760 C   0  0  0  0  0  0  0  0  0  0  0  0
  141.3620   70.7110  225.3870 C   0  0  0  0  0  0  0  0  0  0  0  0
  140.3540   71.0290  224.4620 C   0  0  0  0  0  0  0  0  0  0  0  0
  139.0590   70.4790  224.6210 C   0  0  0  0  0  0  0  0  0  0  0  0
  138.7930   69.6550  225.7270 C   0  0  0  0  0  0  0  0  0  0  0  0
  137.9230   70.8440  223.6910 C   0  0  0  0  0  0  0  0  0  0  0  0
  138.4210   71.4050  222.3560 C   0  0  0  0  0  0  0  0  0  0  0  0
  139.4820   72.3810  222.6120 N   0  0  0  0  0  0  0  0  0  0  0  0
  139.3220   73.7760  222.2870 C   0  0  0  0  0  0  0  0  0  0  0  0
  138.0900   74.3430  222.3130 N   0  0  0  0  0  0  0  0  0  0  0  0
  137.9230   75.6550  222.0100 C   0  0  0  0  0  0  0  0  0  0  0  0
  136.6150   76.2400  222.0260 N   0  0  0  0  0  0  0  0  0  0  0  0
  135.4450   75.5350  221.5050 C   0  0  0  0  0  0  0  0  0  0  0  0
  134.4520   75.2300  222.6370 C   0  0  0  0  0  0  0  0  0  0  0  0
  135.0800   74.3800  223.7650 C   0  0  0  0  0  0  0  0  0  0  0  0
  134.1640   73.1920  224.1550 C   0  0  0  0  0  0  0  0  0  0  0  0
  134.3250   72.8420  225.6420 C   0  0  0  0  0  0  0  0  0  0  0  0
  133.9460   73.8990  226.5150 O   0  0  0  0  0  0  0  0  0  0  0  0
  134.2470   75.2020  226.0230 C   0  0  0  0  0  0  0  0  0  0  0  0
  135.4000   75.2520  225.0030 C   0  0  0  0  0  0  0  0  0  0  0  0
  139.0030   76.4110  221.6910 N   0  0  0  0  0  0  0  0  0  0  0  0
  140.2440   75.8520  221.6570 C   0  0  0  0  0  0  0  0  0  0  0  0
  141.4450   76.6800  221.2930 C   0  0  1  0  0  0  0  0  0  0  0  0
  141.4500   77.0750  219.7960 C   0  0  0  0  0  0  0  0  0  0  0  0
  141.2230   78.5970  219.7220 C   0  0  0  0  0  0  0  0  0  0  0  0
  141.3160   79.0430  221.1320 C   0  0  0  0  0  0  0  0  0  0  0  0
  141.2760   80.3600  221.5940 C   0  0  0  0  0  0  0  0  0  0  0  0
  141.3620   80.5930  222.9740 C   0  0  0  0  0  0  0  0  0  0  0  0
  141.4830   79.5130  223.8680 C   0  0  0  0  0  0  0  0  0  0  0  0
  141.5110   78.1970  223.3810 C   0  0  0  0  0  0  0  0  0  0  0  0
  141.4260   77.9860  222.0020 C   0  0  0  0  0  0  0  0  0  0  0  0
  140.3960   74.5350  221.9510 N   0  0  0  0  0  0  0  0  0  0  0  0
  140.6980   71.8840  223.2680 C   0  0  0  0  0  0  0  0  0  0  0  0
  139.5891   68.7016  227.5045 H   0  0  0  0  0  0  0  0  0  0  0  0
  141.8773   69.6462  227.2014 H   0  0  0  0  0  0  0  0  0  0  0  0
  142.3755   71.1168  225.2524 H   0  0  0  0  0  0  0  0  0  0  0  0
  137.7833   69.2430  225.8714 H   0  0  0  0  0  0  0  0  0  0  0  0
  137.3236   69.9428  223.4943 H   0  0  0  0  0  0  0  0  0  0  0  0
  137.3247   71.6257  224.1819 H   0  0  0  0  0  0  0  0  0  0  0  0
  138.8156   70.5861  221.7366 H   0  0  0  0  0  0  0  0  0  0  0  0
  137.5895   71.8922  221.8257 H   0  0  0  0  0  0  0  0  0  0  0  0
  136.4820   77.1740  222.4800 H   0  0  0  0  0  0  0  0  0  0  0  0
  134.9507   76.1632  220.7494 H   0  0  0  0  0  0  0  0  0  0  0  0
  135.7728   74.5866  221.0543 H   0  0  0  0  0  0  0  0  0  0  0  0
  134.1028   76.1812  223.0652 H   0  0  0  0  0  0  0  0  0  0  0  0
  133.6223   74.6507  222.2056 H   0  0  0  0  0  0  0  0  0  0  0  0
  136.0239   73.9658  223.3808 H   0  0  0  0  0  0  0  0  0  0  0  0
  133.1165   73.4658  223.9607 H   0  0  0  0  0  0  0  0  0  0  0  0
  134.4494   72.3157  223.5544 H   0  0  0  0  0  0  0  0  0  0  0  0
  133.6989   71.9652  225.8637 H   0  0  0  0  0  0  0  0  0  0  0  0
  135.3931   72.6445  225.8155 H   0  0  0  0  0  0  0  0  0  0  0  0
  133.3439   75.6033  225.5399 H   0  0  0  0  0  0  0  0  0  0  0  0
  134.5723   75.7952  226.8904 H   0  0  0  0  0  0  0  0  0  0  0  0
  135.5512   76.2929  224.6811 H   0  0  0  0  0  0  0  0  0  0  0  0
  136.3102   74.8620  225.4819 H   0  0  0  0  0  0  0  0  0  0  0  0
  142.3108   76.0554  221.5583 H   0  0  0  0  0  0  0  0  0  0  0  0
  142.4179   76.8164  219.3419 H   0  0  0  0  0  0  0  0  0  0  0  0
  140.6617   76.5370  219.2491 H   0  0  0  0  0  0  0  0  0  0  0  0
  141.9983   79.0784  219.1078 H   0  0  0  0  0  0  0  0  0  0  0  0
  140.2608   78.8592  219.2579 H   0  0  0  0  0  0  0  0  0  0  0  0
  141.1789   81.1987  220.8889 H   0  0  0  0  0  0  0  0  0  0  0  0
  141.3348   81.6231  223.3589 H   0  0  0  0  0  0  0  0  0  0  0  0
  141.5557   79.7004  224.9495 H   0  0  0  0  0  0  0  0  0  0  0  0
  141.5984   77.3462  224.0728 H   0  0  0  0  0  0  0  0  0  0  0  0
  141.2752   71.2837  222.5494 H   0  0  0  0  0  0  0  0  0  0  0  0
  141.2895   72.7456  223.6113 H   0  0  0  0  0  0  0  0  0  0  0  0
  1  2  2  0
  2  3  1  0
  3  4  2  0
  4  5  1  0
  5  6  2  0
  5  7  1  0
  7  8  1  0
  8  9  1  0
  9 10  1  0
 10 11  2  0
 11 12  1  0
 12 13  1  0
 13 14  1  0
 14 15  1  0
 15 16  1  0
 16 17  1  0
 17 18  1  0
 18 19  1  0
 19 20  1  0
 20 21  1  0
 12 22  2  0
 22 23  1  0
 23 24  1  0
 24 25  1  0
 25 26  1  0
 26 27  1  0
 27 28  2  0
 28 29  1  0
 29 30  2  0
 30 31  1  0
 31 32  2  0
 23 33  2  0
  9 34  1  0
  6  1  1  0
 33 10  1  0
 34  4  1  0
 21 16  1  0
 32 24  1  0
 32 27  1  0
  1 35  1  0
  2 36  1  0
  3 37  1  0
  6 38  1  0
  7 39  1  0
  7 40  1  0
  8 41  1  0
  8 42  1  0
 13 43  1  0
 14 44  1  0
 14 45  1  0
 15 46  1  0
 15 47  1  0
 16 48  1  0
 17 49  1  0
 17 50  1  0
 18 51  1  0
 18 52  1  0
 20 53  1  0
 20 54  1  0
 21 55  1  0
 21 56  1  0
 24 57  1  1
 25 58  1  0
 25 59  1  0
 26 60  1  0
 26 61  1  0
 28 62  1  0
 29 63  1  0
 30 64  1  0
 31 65  1  0
 34 66  1  0
 34 67  1  0
M  END
>  <UniqueID>  (16) 
494

>  <SMILES>  (16) 
c1ccc2c(c1)CCN(c1nc(NCCC3CCOCC3)nc([C@H]3CCc4ccccc43)n1)C2

>  <Energy>  (16) 
82.83335883849176

>  <Genealogy>  (16) 
c1ccc2c(c1)CCN(c1nc(NCCC3CCOCC3)nc([C@H]3CCc4ccccc43)n1)C2 (chirality)
c1ccc2c(c1)CCN(c1nc(NCCC3CCOCC3)nc([C@H]3CCc4ccccc43)n1)C2 (3D coordinates assigned)
c1ccc2c(c1)CCN(c1nc(NCCC3CCOCC3)nc([C@H]3CCc4ccccc43)n1)C2 (nonaromatic ring conformer: 82.83335883849176 kcal/mol)

>  <smiles>  (16) 
c1ccc2c(c1)CCN(c1nc(NCCC3CCOCC3)nc(C3CCc4ccccc43)n1)C2

>  <score_type>  (16) 
oracle

>  <origin>  (16) 
autodockgpu

>  <m_score__min__energy>  (16) 
-10.26

>  <m_primary>  (16) 
energy

>  <meeko>  (16) 
{"free_energy": -8.81, "intermolecular_energy": -10.6, "internal_energy": -1.6, "cluster_size": 1, "cluster_id": 7, "rank_in_cluster": 1}

>  <energy>  (16) 
-9.03

>  <cluster_rmsd>  (16) 
0.08

>  <rmsd>  (16) 
270.19

>  <cluster>  (16) 
4

$$$$
AOEMPDNDYKTPOZ-MVXFCSEMNA-N
     RDKit          3D

 67 72  0  0  0  0  0  0  0  0999 V2000
  139.5690   69.1480  227.7670 C   0  0  0  0  0  0  0  0  0  0  0  0
  140.7200   69.9320  227.8650 C   0  0  0  0  0  0  0  0  0  0  0  0
  141.1890   70.6280  226.7500 C   0  0  0  0  0  0  0  0  0  0  0  0
  140.5030   70.5570  225.5270 C   0  0  0  0  0  0  0  0  0  0  0  0
  139.3470   69.7470  225.4190 C   0  0  0  0  0  0  0  0  0  0  0  0
  138.8810   69.0590  226.5520 C   0  0  0  0  0  0  0  0  0  0  0  0
  138.5350   69.6900  224.1430 C   0  0  0  0  0  0  0  0  0  0  0  0
  139.3380   70.1460  222.9220 C   0  0  0  0  0  0  0  0  0  0  0  0
  140.0650   71.3720  223.2560 N   0  0  0  0  0  0  0  0  0  0  0  0
  139.7780   72.6230  222.6040 C   0  0  0  0  0  0  0  0  0  0  0  0
  140.7900   73.4440  222.2290 N   0  0  0  0  0  0  0  0  0  0  0  0
  140.5360   74.6260  221.6130 C   0  0  0  0  0  0  0  0  0  0  0  0
  141.6130   75.4910  221.2360 N   0  0  0  0  0  0  0  0  0  0  0  0
  142.4450   75.2270  220.0630 C   0  0  0  0  0  0  0  0  0  0  0  0
  142.3600   73.7450  219.6660 C   0  0  0  0  0  0  0  0  0  0  0  0
  143.4930   72.8970  220.2900 C   0  0  0  0  0  0  0  0  0  0  0  0
  144.6770   73.7860  220.7470 C   0  0  0  0  0  0  0  0  0  0  0  0
  146.0080   73.0280  220.6290 C   0  0  0  0  0  0  0  0  0  0  0  0
  146.3260   72.6510  219.2950 O   0  0  0  0  0  0  0  0  0  0  0  0
  145.1970   72.2970  218.5010 C   0  0  0  0  0  0  0  0  0  0  0  0
  143.9770   71.8080  219.3030 C   0  0  0  0  0  0  0  0  0  0  0  0
  139.2530   74.9840  221.3560 N   0  0  0  0  0  0  0  0  0  0  0  0
  138.2270   74.1710  221.7300 C   0  0  0  0  0  0  0  0  0  0  0  0
  136.8010   74.5640  221.4600 C   0  0  1  0  0  0  0  0  0  0  0  0
  136.0420   73.4850  220.6500 C   0  0  0  0  0  0  0  0  0  0  0  0
  134.9830   72.8700  221.5840 C   0  0  0  0  0  0  0  0  0  0  0  0
  135.0170   73.7370  222.7850 C   0  0  0  0  0  0  0  0  0  0  0  0
  134.1710   73.6600  223.8940 C   0  0  0  0  0  0  0  0  0  0  0  0
  134.3640   74.5590  224.9520 C   0  0  0  0  0  0  0  0  0  0  0  0
  135.3930   75.5160  224.8900 C   0  0  0  0  0  0  0  0  0  0  0  0
  136.2370   75.5690  223.7700 C   0  0  0  0  0  0  0  0  0  0  0  0
  136.0280   74.6650  222.7240 C   0  0  0  0  0  0  0  0  0  0  0  0
  138.4950   72.9960  222.3570 N   0  0  0  0  0  0  0  0  0  0  0  0
  141.0650   71.2800  224.3280 C   0  0  0  0  0  0  0  0  0  0  0  0
  139.2023   68.5991  228.6469 H   0  0  0  0  0  0  0  0  0  0  0  0
  141.2578   70.0012  228.8221 H   0  0  0  0  0  0  0  0  0  0  0  0
  142.1021   71.2362  226.8298 H   0  0  0  0  0  0  0  0  0  0  0  0
  137.9697   68.4467  226.4833 H   0  0  0  0  0  0  0  0  0  0  0  0
  138.2030   68.6539  223.9811 H   0  0  0  0  0  0  0  0  0  0  0  0
  137.6802   70.3728  224.2575 H   0  0  0  0  0  0  0  0  0  0  0  0
  140.0529   69.3601  222.6371 H   0  0  0  0  0  0  0  0  0  0  0  0
  138.6556   70.3379  222.0809 H   0  0  0  0  0  0  0  0  0  0  0  0
  141.7710   76.3720  221.7800 H   0  0  0  0  0  0  0  0  0  0  0  0
  142.0957   75.8471  219.2243 H   0  0  0  0  0  0  0  0  0  0  0  0
  143.4898   75.4712  220.3054 H   0  0  0  0  0  0  0  0  0  0  0  0
  141.3929   73.3445  220.0041 H   0  0  0  0  0  0  0  0  0  0  0  0
  142.4630   73.6863  218.5724 H   0  0  0  0  0  0  0  0  0  0  0  0
  143.0823   72.3982  221.1802 H   0  0  0  0  0  0  0  0  0  0  0  0
  144.7173   74.6853  220.1149 H   0  0  0  0  0  0  0  0  0  0  0  0
  144.5224   74.0637  221.8001 H   0  0  0  0  0  0  0  0  0  0  0  0
  146.8125   73.6742  221.0101 H   0  0  0  0  0  0  0  0  0  0  0  0
  145.9075   72.1016  221.2135 H   0  0  0  0  0  0  0  0  0  0  0  0
  144.8944   73.1815  217.9213 H   0  0  0  0  0  0  0  0  0  0  0  0
  145.5126   71.4539  217.8688 H   0  0  0  0  0  0  0  0  0  0  0  0
  143.1614   71.5654  218.6059 H   0  0  0  0  0  0  0  0  0  0  0  0
  144.2685   70.9167  219.8780 H   0  0  0  0  0  0  0  0  0  0  0  0
  136.8679   75.5179  220.9163 H   0  0  0  0  0  0  0  0  0  0  0  0
  135.5534   73.9437  219.7777 H   0  0  0  0  0  0  0  0  0  0  0  0
  136.7354   72.7125  220.2861 H   0  0  0  0  0  0  0  0  0  0  0  0
  133.9884   72.8910  221.1147 H   0  0  0  0  0  0  0  0  0  0  0  0
  135.1867   71.8146  221.8180 H   0  0  0  0  0  0  0  0  0  0  0  0
  133.3689   72.9084  223.9362 H   0  0  0  0  0  0  0  0  0  0  0  0
  133.7082   74.5159  225.8341 H   0  0  0  0  0  0  0  0  0  0  0  0
  135.5363   76.2234  225.7201 H   0  0  0  0  0  0  0  0  0  0  0  0
  137.0490   76.3090  223.7160 H   0  0  0  0  0  0  0  0  0  0  0  0
  141.9430   70.7318  223.9556 H   0  0  0  0  0  0  0  0  0  0  0  0
  141.3489   72.2982  224.6325 H   0  0  0  0  0  0  0  0  0  0  0  0
  1  2  2  0
  2  3  1  0
  3  4  2  0
  4  5  1  0
  5  6  2  0
  5  7  1  0
  7  8  1  0
  8  9  1  0
  9 10  1  0
 10 11  2  0
 11 12  1  0
 12 13  1  0
 13 14  1  0
 14 15  1  0
 15 16  1  0
 16 17  1  0
 17 18  1  0
 18 19  1  0
 19 20  1  0
 20 21  1  0
 12 22  2  0
 22 23  1  0
 23 24  1  0
 24 25  1  0
 25 26  1  0
 26 27  1  0
 27 28  2  0
 28 29  1  0
 29 30  2  0
 30 31  1  0
 31 32  2  0
 23 33  2  0
  9 34  1  0
  6  1  1  0
 33 10  1  0
 34  4  1  0
 21 16  1  0
 32 24  1  0
 32 27  1  0
  1 35  1  0
  2 36  1  0
  3 37  1  0
  6 38  1  0
  7 39  1  0
  7 40  1  0
  8 41  1  0
  8 42  1  0
 13 43  1  0
 14 44  1  0
 14 45  1  0
 15 46  1  0
 15 47  1  0
 16 48  1  0
 17 49  1  0
 17 50  1  0
 18 51  1  0
 18 52  1  0
 20 53  1  0
 20 54  1  0
 21 55  1  0
 21 56  1  0
 24 57  1  6
 25 58  1  0
 25 59  1  0
 26 60  1  0
 26 61  1  0
 28 62  1  0
 29 63  1  0
 30 64  1  0
 31 65  1  0
 34 66  1  0
 34 67  1  0
M  END
>  <UniqueID>  (17) 
494

>  <SMILES>  (17) 
c1ccc2c(c1)CCN(c1nc(NCCC3CCOCC3)nc([C@H]3CCc4ccccc43)n1)C2

>  <Energy>  (17) 
82.83335883849176

>  <Genealogy>  (17) 
c1ccc2c(c1)CCN(c1nc(NCCC3CCOCC3)nc([C@H]3CCc4ccccc43)n1)C2 (chirality)
c1ccc2c(c1)CCN(c1nc(NCCC3CCOCC3)nc([C@H]3CCc4ccccc43)n1)C2 (3D coordinates assigned)
c1ccc2c(c1)CCN(c1nc(NCCC3CCOCC3)nc([C@H]3CCc4ccccc43)n1)C2 (nonaromatic ring conformer: 82.83335883849176 kcal/mol)

>  <smiles>  (17) 
c1ccc2c(c1)CCN(c1nc(NCCC3CCOCC3)nc(C3CCc4ccccc43)n1)C2

>  <score_type>  (17) 
oracle

>  <origin>  (17) 
autodockgpu

>  <m_score__min__energy>  (17) 
-10.26

>  <m_primary>  (17) 
energy

>  <meeko>  (17) 
{"free_energy": -8.81, "intermolecular_energy": -10.6, "internal_energy": -1.56, "cluster_size": 2, "cluster_id": 5, "rank_in_cluster": 2}

>  <energy>  (17) 
-9.0

>  <cluster_rmsd>  (17) 
0.0

>  <rmsd>  (17) 
270.66

>  <cluster>  (17) 
5

$$$$
AOEMPDNDYKTPOZ-MVXFCSEMNA-N
     RDKit          3D

 67 72  0  0  0  0  0  0  0  0999 V2000
  145.6060   66.9840  219.1800 C   0  0  0  0  0  0  0  0  0  0  0  0
  146.2430   68.2110  218.9900 C   0  0  0  0  0  0  0  0  0  0  0  0
  145.4970   69.3920  218.9800 C   0  0  0  0  0  0  0  0  0  0  0  0
  144.1070   69.3570  219.1730 C   0  0  0  0  0  0  0  0  0  0  0  0
  143.4560   68.1110  219.3460 C   0  0  0  0  0  0  0  0  0  0  0  0
  144.2200   66.9330  219.3630 C   0  0  0  0  0  0  0  0  0  0  0  0
  141.9710   68.0250  219.6240 C   0  0  0  0  0  0  0  0  0  0  0  0
  141.2250   69.2920  219.1980 C   0  0  0  0  0  0  0  0  0  0  0  0
  141.9730   70.4650  219.6520 N   0  0  0  0  0  0  0  0  0  0  0  0
  141.4340   71.3740  220.6320 C   0  0  0  0  0  0  0  0  0  0  0  0
  141.7840   72.6840  220.6100 N   0  0  0  0  0  0  0  0  0  0  0  0
  141.2840   73.5520  221.5250 C   0  0  0  0  0  0  0  0  0  0  0  0
  141.6730   74.9310  221.5010 N   0  0  0  0  0  0  0  0  0  0  0  0
  141.7480   75.6930  220.2560 C   0  0  0  0  0  0  0  0  0  0  0  0
  142.1890   74.7860  219.0960 C   0  0  0  0  0  0  0  0  0  0  0  0
  143.7070   74.8720  218.8180 C   0  0  0  0  0  0  0  0  0  0  0  0
  144.1350   73.8870  217.7010 C   0  0  0  0  0  0  0  0  0  0  0  0
  145.5710   73.3930  217.9270 C   0  0  0  0  0  0  0  0  0  0  0  0
  145.7350   72.6670  219.1390 O   0  0  0  0  0  0  0  0  0  0  0  0
  144.9350   73.1420  220.2190 C   0  0  0  0  0  0  0  0  0  0  0  0
  144.5220   74.6210  220.1090 C   0  0  0  0  0  0  0  0  0  0  0  0
  140.4130   73.1070  222.4640 N   0  0  0  0  0  0  0  0  0  0  0  0
  140.0570   71.7930  222.4990 C   0  0  0  0  0  0  0  0  0  0  0  0
  139.1000   71.2880  223.5440 C   0  0  1  0  0  0  0  0  0  0  0  0
  138.3690   70.0010  223.0910 C   0  0  0  0  0  0  0  0  0  0  0  0
  138.8810   68.8460  223.9730 C   0  0  0  0  0  0  0  0  0  0  0  0
  139.6930   69.5220  225.0120 C   0  0  0  0  0  0  0  0  0  0  0  0
  140.3020   68.9210  226.1170 C   0  0  0  0  0  0  0  0  0  0  0  0
  141.0510   69.7210  226.9910 C   0  0  0  0  0  0  0  0  0  0  0  0
  141.1820   71.1010  226.7510 C   0  0  0  0  0  0  0  0  0  0  0  0
  140.5700   71.6820  225.6300 C   0  0  0  0  0  0  0  0  0  0  0  0
  139.8260   70.8670  224.7710 C   0  0  0  0  0  0  0  0  0  0  0  0
  140.5730   70.9320  221.5850 N   0  0  0  0  0  0  0  0  0  0  0  0
  143.3240   70.6440  219.1050 C   0  0  0  0  0  0  0  0  0  0  0  0
  146.1949   66.0550  219.1859 H   0  0  0  0  0  0  0  0  0  0  0  0
  147.3332   68.2482  218.8480 H   0  0  0  0  0  0  0  0  0  0  0  0
  146.0022   70.3559  218.8198 H   0  0  0  0  0  0  0  0  0  0  0  0
  143.7253   65.9634  219.5213 H   0  0  0  0  0  0  0  0  0  0  0  0
  141.5569   67.1684  219.0719 H   0  0  0  0  0  0  0  0  0  0  0  0
  141.8386   67.9059  220.7095 H   0  0  0  0  0  0  0  0  0  0  0  0
  141.1342   69.3148  218.1020 H   0  0  0  0  0  0  0  0  0  0  0  0
  140.2201   69.2979  219.6454 H   0  0  0  0  0  0  0  0  0  0  0  0
  141.8480   75.4250  222.4080 H   0  0  0  0  0  0  0  0  0  0  0  0
  140.7577   76.1148  220.0295 H   0  0  0  0  0  0  0  0  0  0  0  0
  142.4853   76.5004  220.3767 H   0  0  0  0  0  0  0  0  0  0  0  0
  141.9351   73.7454  219.3463 H   0  0  0  0  0  0  0  0  0  0  0  0
  141.6648   75.1250  218.1903 H   0  0  0  0  0  0  0  0  0  0  0  0
  143.9212   75.8923  218.4672 H   0  0  0  0  0  0  0  0  0  0  0  0
  143.4530   73.0239  217.7011 H   0  0  0  0  0  0  0  0  0  0  0  0
  144.0915   74.4109  216.7347 H   0  0  0  0  0  0  0  0  0  0  0  0
  145.8506   72.7386  217.0882 H   0  0  0  0  0  0  0  0  0  0  0  0
  146.2138   74.2832  217.9925 H   0  0  0  0  0  0  0  0  0  0  0  0
  144.0202   72.5327  220.2621 H   0  0  0  0  0  0  0  0  0  0  0  0
  145.5529   73.0576  221.1251 H   0  0  0  0  0  0  0  0  0  0  0  0
  143.9072   74.8891  220.9809 H   0  0  0  0  0  0  0  0  0  0  0  0
  145.4318   75.2385  220.0760 H   0  0  0  0  0  0  0  0  0  0  0  0
  138.4026   72.1208  223.7172 H   0  0  0  0  0  0  0  0  0  0  0  0
  137.2831   70.1200  223.2203 H   0  0  0  0  0  0  0  0  0  0  0  0
  138.5665   69.7955  222.0286 H   0  0  0  0  0  0  0  0  0  0  0  0
  138.0416   68.2989  224.4271 H   0  0  0  0  0  0  0  0  0  0  0  0
  139.4564   68.1012  223.4037 H   0  0  0  0  0  0  0  0  0  0  0  0
  140.1956   67.8411  226.2974 H   0  0  0  0  0  0  0  0  0  0  0  0
  141.5379   69.2683  227.8673 H   0  0  0  0  0  0  0  0  0  0  0  0
  141.7653   71.7257  227.4435 H   0  0  0  0  0  0  0  0  0  0  0  0
  140.6735   72.7588  225.4305 H   0  0  0  0  0  0  0  0  0  0  0  0
  143.2481   70.9643  218.0554 H   0  0  0  0  0  0  0  0  0  0  0  0
  143.8469   71.4055  219.7022 H   0  0  0  0  0  0  0  0  0  0  0  0
  1  2  2  0
  2  3  1  0
  3  4  2  0
  4  5  1  0
  5  6  2  0
  5  7  1  0
  7  8  1  0
  8  9  1  0
  9 10  1  0
 10 11  2  0
 11 12  1  0
 12 13  1  0
 13 14  1  0
 14 15  1  0
 15 16  1  0
 16 17  1  0
 17 18  1  0
 18 19  1  0
 19 20  1  0
 20 21  1  0
 12 22  2  0
 22 23  1  0
 23 24  1  0
 24 25  1  0
 25 26  1  0
 26 27  1  0
 27 28  2  0
 28 29  1  0
 29 30  2  0
 30 31  1  0
 31 32  2  0
 23 33  2  0
  9 34  1  0
  6  1  1  0
 33 10  1  0
 34  4  1  0
 21 16  1  0
 32 24  1  0
 32 27  1  0
  1 35  1  0
  2 36  1  0
  3 37  1  0
  6 38  1  0
  7 39  1  0
  7 40  1  0
  8 41  1  0
  8 42  1  0
 13 43  1  0
 14 44  1  0
 14 45  1  0
 15 46  1  0
 15 47  1  0
 16 48  1  0
 17 49  1  0
 17 50  1  0
 18 51  1  0
 18 52  1  0
 20 53  1  0
 20 54  1  0
 21 55  1  0
 21 56  1  0
 24 57  1  1
 25 58  1  0
 25 59  1  0
 26 60  1  0
 26 61  1  0
 28 62  1  0
 29 63  1  0
 30 64  1  0
 31 65  1  0
 34 66  1  0
 34 67  1  0
M  END
>  <UniqueID>  (18) 
494

>  <SMILES>  (18) 
c1ccc2c(c1)CCN(c1nc(NCCC3CCOCC3)nc([C@H]3CCc4ccccc43)n1)C2

>  <Energy>  (18) 
82.83335883849176

>  <Genealogy>  (18) 
c1ccc2c(c1)CCN(c1nc(NCCC3CCOCC3)nc([C@H]3CCc4ccccc43)n1)C2 (chirality)
c1ccc2c(c1)CCN(c1nc(NCCC3CCOCC3)nc([C@H]3CCc4ccccc43)n1)C2 (3D coordinates assigned)
c1ccc2c(c1)CCN(c1nc(NCCC3CCOCC3)nc([C@H]3CCc4ccccc43)n1)C2 (nonaromatic ring conformer: 82.83335883849176 kcal/mol)

>  <smiles>  (18) 
c1ccc2c(c1)CCN(c1nc(NCCC3CCOCC3)nc(C3CCc4ccccc43)n1)C2

>  <score_type>  (18) 
oracle

>  <origin>  (18) 
autodockgpu

>  <m_score__min__energy>  (18) 
-10.26

>  <m_primary>  (18) 
energy

>  <meeko>  (18) 
{"free_energy": -9.05, "intermolecular_energy": -10.83, "internal_energy": -1.79, "cluster_size": 3, "cluster_id": 4, "rank_in_cluster": 2}

>  <energy>  (18) 
-8.81

>  <cluster_rmsd>  (18) 
1.04

>  <rmsd>  (18) 
270.52

>  <cluster>  (18) 
5

$$$$
AOEMPDNDYKTPOZ-MVXFCSEMNA-N
     RDKit          3D

 67 72  0  0  0  0  0  0  0  0999 V2000
  145.5120   66.7110  219.2130 C   0  0  0  0  0  0  0  0  0  0  0  0
  146.2070   67.9100  219.0430 C   0  0  0  0  0  0  0  0  0  0  0  0
  145.5160   69.1230  219.0230 C   0  0  0  0  0  0  0  0  0  0  0  0
  144.1210   69.1490  219.1850 C   0  0  0  0  0  0  0  0  0  0  0  0
  143.4110   67.9330  219.3380 C   0  0  0  0  0  0  0  0  0  0  0  0
  144.1220   66.7210  219.3660 C   0  0  0  0  0  0  0  0  0  0  0  0
  141.9180   67.9120  219.5830 C   0  0  0  0  0  0  0  0  0  0  0  0
  141.2390   69.2130  219.1480 C   0  0  0  0  0  0  0  0  0  0  0  0
  142.0290   70.3500  219.6240 N   0  0  0  0  0  0  0  0  0  0  0  0
  141.5100   71.2780  220.5960 C   0  0  0  0  0  0  0  0  0  0  0  0
  141.8970   72.5780  220.5700 N   0  0  0  0  0  0  0  0  0  0  0  0
  141.4160   73.4640  221.4780 C   0  0  0  0  0  0  0  0  0  0  0  0
  141.8440   74.8310  221.4510 N   0  0  0  0  0  0  0  0  0  0  0  0
  141.7650   75.6430  220.2380 C   0  0  0  0  0  0  0  0  0  0  0  0
  142.1870   74.8190  219.0110 C   0  0  0  0  0  0  0  0  0  0  0  0
  143.7100   74.8860  218.7460 C   0  0  0  0  0  0  0  0  0  0  0  0
  144.1300   73.9130  217.6150 C   0  0  0  0  0  0  0  0  0  0  0  0
  145.5560   73.3920  217.8430 C   0  0  0  0  0  0  0  0  0  0  0  0
  145.6980   72.6410  219.0440 O   0  0  0  0  0  0  0  0  0  0  0  0
  144.8970   73.1100  220.1260 C   0  0  0  0  0  0  0  0  0  0  0  0
  144.5090   74.5980  220.0390 C   0  0  0  0  0  0  0  0  0  0  0  0
  140.5260   73.0480  222.4130 N   0  0  0  0  0  0  0  0  0  0  0  0
  140.1330   71.7450  222.4520 C   0  0  0  0  0  0  0  0  0  0  0  0
  139.1560   71.2720  223.4930 C   0  0  1  0  0  0  0  0  0  0  0  0
  138.3790   70.0130  223.0340 C   0  0  0  0  0  0  0  0  0  0  0  0
  138.8470   68.8380  223.9140 C   0  0  0  0  0  0  0  0  0  0  0  0
  139.6790   69.4820  224.9580 C   0  0  0  0  0  0  0  0  0  0  0  0
  140.2630   68.8560  226.0620 C   0  0  0  0  0  0  0  0  0  0  0  0
  141.0370   69.6260  226.9410 C   0  0  0  0  0  0  0  0  0  0  0  0
  141.2200   71.0010  226.7050 C   0  0  0  0  0  0  0  0  0  0  0  0
  140.6320   71.6060  225.5840 C   0  0  0  0  0  0  0  0  0  0  0  0
  139.8620   70.8220  224.7200 C   0  0  0  0  0  0  0  0  0  0  0  0
  140.6300   70.8650  221.5450 N   0  0  0  0  0  0  0  0  0  0  0  0
  143.3990   70.4700  219.1070 C   0  0  0  0  0  0  0  0  0  0  0  0
  146.0589   65.7567  219.2266 H   0  0  0  0  0  0  0  0  0  0  0  0
  147.3006   67.8989  218.9247 H   0  0  0  0  0  0  0  0  0  0  0  0
  146.0674   70.0640  218.8795 H   0  0  0  0  0  0  0  0  0  0  0  0
  143.5814   65.7738  219.5092 H   0  0  0  0  0  0  0  0  0  0  0  0
  141.4785   67.0774  219.0171 H   0  0  0  0  0  0  0  0  0  0  0  0
  141.7564   67.7937  220.6646 H   0  0  0  0  0  0  0  0  0  0  0  0
  141.1729   69.2445  218.0504 H   0  0  0  0  0  0  0  0  0  0  0  0
  140.2261   69.2620  219.5742 H   0  0  0  0  0  0  0  0  0  0  0  0
  142.1650   75.2800  222.3400 H   0  0  0  0  0  0  0  0  0  0  0  0
  140.7304   75.9911  220.1020 H   0  0  0  0  0  0  0  0  0  0  0  0
  142.4437   76.5026  220.3402 H   0  0  0  0  0  0  0  0  0  0  0  0
  141.9039   73.7691  219.1771 H   0  0  0  0  0  0  0  0  0  0  0  0
  141.6766   75.2422  218.1333 H   0  0  0  0  0  0  0  0  0  0  0  0
  143.9448   75.9085  218.4152 H   0  0  0  0  0  0  0  0  0  0  0  0
  143.4341   73.0613  217.5955 H   0  0  0  0  0  0  0  0  0  0  0  0
  144.1019   74.4536  216.6574 H   0  0  0  0  0  0  0  0  0  0  0  0
  145.8320   72.7485  216.9946 H   0  0  0  0  0  0  0  0  0  0  0  0
  146.2128   74.2702  217.9294 H   0  0  0  0  0  0  0  0  0  0  0  0
  143.9720   72.5152  220.1510 H   0  0  0  0  0  0  0  0  0  0  0  0
  145.5060   72.9994  221.0353 H   0  0  0  0  0  0  0  0  0  0  0  0
  143.8909   74.8604  220.9102 H   0  0  0  0  0  0  0  0  0  0  0  0
  145.4291   75.2006  220.0249 H   0  0  0  0  0  0  0  0  0  0  0  0
  138.4891   72.1293  223.6668 H   0  0  0  0  0  0  0  0  0  0  0  0
  137.2979   70.1710  223.1612 H   0  0  0  0  0  0  0  0  0  0  0  0
  138.5709   69.8035  221.9713 H   0  0  0  0  0  0  0  0  0  0  0  0
  137.9874   68.3195  224.3636 H   0  0  0  0  0  0  0  0  0  0  0  0
  139.3977   68.0751  223.3442 H   0  0  0  0  0  0  0  0  0  0  0  0
  140.1182   67.7799  226.2380 H   0  0  0  0  0  0  0  0  0  0  0  0
  141.5030   69.1537  227.8184 H   0  0  0  0  0  0  0  0  0  0  0  0
  141.8246   71.6021  227.4000 H   0  0  0  0  0  0  0  0  0  0  0  0
  140.7745   72.6790  225.3883 H   0  0  0  0  0  0  0  0  0  0  0  0
  143.3605   70.7980  218.0577 H   0  0  0  0  0  0  0  0  0  0  0  0
  143.9427   71.2044  219.7194 H   0  0  0  0  0  0  0  0  0  0  0  0
  1  2  2  0
  2  3  1  0
  3  4  2  0
  4  5  1  0
  5  6  2  0
  5  7  1  0
  7  8  1  0
  8  9  1  0
  9 10  1  0
 10 11  2  0
 11 12  1  0
 12 13  1  0
 13 14  1  0
 14 15  1  0
 15 16  1  0
 16 17  1  0
 17 18  1  0
 18 19  1  0
 19 20  1  0
 20 21  1  0
 12 22  2  0
 22 23  1  0
 23 24  1  0
 24 25  1  0
 25 26  1  0
 26 27  1  0
 27 28  2  0
 28 29  1  0
 29 30  2  0
 30 31  1  0
 31 32  2  0
 23 33  2  0
  9 34  1  0
  6  1  1  0
 33 10  1  0
 34  4  1  0
 21 16  1  0
 32 24  1  0
 32 27  1  0
  1 35  1  0
  2 36  1  0
  3 37  1  0
  6 38  1  0
  7 39  1  0
  7 40  1  0
  8 41  1  0
  8 42  1  0
 13 43  1  0
 14 44  1  0
 14 45  1  0
 15 46  1  0
 15 47  1  0
 16 48  1  0
 17 49  1  0
 17 50  1  0
 18 51  1  0
 18 52  1  0
 20 53  1  0
 20 54  1  0
 21 55  1  0
 21 56  1  0
 24 57  1  1
 25 58  1  0
 25 59  1  0
 26 60  1  0
 26 61  1  0
 28 62  1  0
 29 63  1  0
 30 64  1  0
 31 65  1  0
 34 66  1  0
 34 67  1  0
M  END
>  <UniqueID>  (19) 
494

>  <SMILES>  (19) 
c1ccc2c(c1)CCN(c1nc(NCCC3CCOCC3)nc([C@H]3CCc4ccccc43)n1)C2

>  <Energy>  (19) 
82.83335883849176

>  <Genealogy>  (19) 
c1ccc2c(c1)CCN(c1nc(NCCC3CCOCC3)nc([C@H]3CCc4ccccc43)n1)C2 (chirality)
c1ccc2c(c1)CCN(c1nc(NCCC3CCOCC3)nc([C@H]3CCc4ccccc43)n1)C2 (3D coordinates assigned)
c1ccc2c(c1)CCN(c1nc(NCCC3CCOCC3)nc([C@H]3CCc4ccccc43)n1)C2 (nonaromatic ring conformer: 82.83335883849176 kcal/mol)

>  <smiles>  (19) 
c1ccc2c(c1)CCN(c1nc(NCCC3CCOCC3)nc(C3CCc4ccccc43)n1)C2

>  <score_type>  (19) 
oracle

>  <origin>  (19) 
autodockgpu

>  <m_score__min__energy>  (19) 
-10.26

>  <m_primary>  (19) 
energy

>  <meeko>  (19) 
{"free_energy": -9.06, "intermolecular_energy": -10.85, "internal_energy": -1.9, "cluster_size": 3, "cluster_id": 4, "rank_in_cluster": 1}

>  <energy>  (19) 
-8.96

>  <cluster_rmsd>  (19) 
0.0

>  <rmsd>  (19) 
270.96

>  <cluster>  (19) 
6

$$$$
AOEMPDNDYKTPOZ-MVXFCSEMNA-N
     RDKit          3D

 67 72  0  0  0  0  0  0  0  0999 V2000
  141.7550   80.3300  222.8250 C   0  0  0  0  0  0  0  0  0  0  0  0
  140.6700   79.9170  223.6010 C   0  0  0  0  0  0  0  0  0  0  0  0
  140.0440   78.6980  223.3340 C   0  0  0  0  0  0  0  0  0  0  0  0
  140.5050   77.8740  222.2940 C   0  0  0  0  0  0  0  0  0  0  0  0
  141.5920   78.3000  221.4940 C   0  0  0  0  0  0  0  0  0  0  0  0
  142.2190   79.5240  221.7810 C   0  0  0  0  0  0  0  0  0  0  0  0
  142.1690   77.4200  220.4060 C   0  0  0  0  0  0  0  0  0  0  0  0
  141.1870   76.3370  219.9520 C   0  0  0  0  0  0  0  0  0  0  0  0
  140.5770   75.7180  221.1300 N   0  0  0  0  0  0  0  0  0  0  0  0
  140.7970   74.3310  221.4550 C   0  0  0  0  0  0  0  0  0  0  0  0
  140.0150   73.7160  222.3760 N   0  0  0  0  0  0  0  0  0  0  0  0
  140.2090   72.4110  222.6920 C   0  0  0  0  0  0  0  0  0  0  0  0
  139.3860   71.7750  223.6780 N   0  0  0  0  0  0  0  0  0  0  0  0
  138.9410   70.3900  223.5390 C   0  0  0  0  0  0  0  0  0  0  0  0
  139.7050   69.4790  224.5130 C   0  0  0  0  0  0  0  0  0  0  0  0
  139.4580   69.8520  225.9930 C   0  0  0  0  0  0  0  0  0  0  0  0
  140.4350   70.9570  226.4690 C   0  0  0  0  0  0  0  0  0  0  0  0
  140.7520   70.8020  227.9630 C   0  0  0  0  0  0  0  0  0  0  0  0
  141.4030   69.5770  228.2780 O   0  0  0  0  0  0  0  0  0  0  0  0
  140.9770   68.4680  227.4900 C   0  0  0  0  0  0  0  0  0  0  0  0
  139.5610   68.6050  226.9030 C   0  0  0  0  0  0  0  0  0  0  0  0
  141.1880   71.7090  222.0680 N   0  0  0  0  0  0  0  0  0  0  0  0
  141.9830   72.3170  221.1450 C   0  0  0  0  0  0  0  0  0  0  0  0
  143.0790   71.5510  220.4560 C   0  0  1  0  0  0  0  0  0  0  0  0
  142.7830   71.3350  218.9520 C   0  0  0  0  0  0  0  0  0  0  0  0
  143.8000   72.1780  218.1580 C   0  0  0  0  0  0  0  0  0  0  0  0
  144.7520   72.6550  219.1890 C   0  0  0  0  0  0  0  0  0  0  0  0
  145.9220   73.3850  218.9690 C   0  0  0  0  0  0  0  0  0  0  0  0
  146.6960   73.7670  220.0740 C   0  0  0  0  0  0  0  0  0  0  0  0
  146.2900   73.4200  221.3760 C   0  0  0  0  0  0  0  0  0  0  0  0
  145.1050   72.6950  221.5740 C   0  0  0  0  0  0  0  0  0  0  0  0
  144.3490   72.3210  220.4590 C   0  0  0  0  0  0  0  0  0  0  0  0
  141.7860   73.6270  220.8460 N   0  0  0  0  0  0  0  0  0  0  0  0
  139.7740   76.5880  221.9990 C   0  0  0  0  0  0  0  0  0  0  0  0
  142.2458   81.2917  223.0356 H   0  0  0  0  0  0  0  0  0  0  0  0
  140.3084   80.5523  224.4229 H   0  0  0  0  0  0  0  0  0  0  0  0
  139.1840   78.3807  223.9421 H   0  0  0  0  0  0  0  0  0  0  0  0
  143.0808   79.8504  221.1803 H   0  0  0  0  0  0  0  0  0  0  0  0
  142.4259   78.0494  219.5412 H   0  0  0  0  0  0  0  0  0  0  0  0
  143.0577   76.9177  220.8158 H   0  0  0  0  0  0  0  0  0  0  0  0
  140.4034   76.7893  219.3264 H   0  0  0  0  0  0  0  0  0  0  0  0
  141.7218   75.5737  219.3678 H   0  0  0  0  0  0  0  0  0  0  0  0
  139.1470   72.2980  224.5530 H   0  0  0  0  0  0  0  0  0  0  0  0
  137.8645   70.3319  223.7578 H   0  0  0  0  0  0  0  0  0  0  0  0
  139.1373   70.0547  222.5099 H   0  0  0  0  0  0  0  0  0  0  0  0
  139.3802   68.4404  224.3524 H   0  0  0  0  0  0  0  0  0  0  0  0
  140.7794   69.6034  224.3127 H   0  0  0  0  0  0  0  0  0  0  0  0
  138.4356   70.2509  226.0669 H   0  0  0  0  0  0  0  0  0  0  0  0
  141.3694   70.8839  225.8932 H   0  0  0  0  0  0  0  0  0  0  0  0
  139.9613   71.9370  226.3102 H   0  0  0  0  0  0  0  0  0  0  0  0
  141.4050   71.6327  228.2690 H   0  0  0  0  0  0  0  0  0  0  0  0
  139.7925   70.8077  228.5010 H   0  0  0  0  0  0  0  0  0  0  0  0
  141.6840   68.3482  226.6559 H   0  0  0  0  0  0  0  0  0  0  0  0
  140.9524   67.5985  228.1633 H   0  0  0  0  0  0  0  0  0  0  0  0
  139.3282   67.7074  226.3114 H   0  0  0  0  0  0  0  0  0  0  0  0
  138.8464   68.7153  227.7320 H   0  0  0  0  0  0  0  0  0  0  0  0
  143.1483   70.5997  221.0039 H   0  0  0  0  0  0  0  0  0  0  0  0
  142.8945   70.2711  218.6956 H   0  0  0  0  0  0  0  0  0  0  0  0
  141.7536   71.6383  218.7106 H   0  0  0  0  0  0  0  0  0  0  0  0
  144.3147   71.5630  217.4051 H   0  0  0  0  0  0  0  0  0  0  0  0
  143.3266   73.0025  217.6047 H   0  0  0  0  0  0  0  0  0  0  0  0
  146.2305   73.6552  217.9483 H   0  0  0  0  0  0  0  0  0  0  0  0
  147.6231   74.3394  219.9228 H   0  0  0  0  0  0  0  0  0  0  0  0
  146.9025   73.7176  222.2399 H   0  0  0  0  0  0  0  0  0  0  0  0
  144.7766   72.4256  222.5887 H   0  0  0  0  0  0  0  0  0  0  0  0
  138.8235   76.8208  221.4967 H   0  0  0  0  0  0  0  0  0  0  0  0
  139.5879   76.0631  222.9476 H   0  0  0  0  0  0  0  0  0  0  0  0
  1  2  2  0
  2  3  1  0
  3  4  2  0
  4  5  1  0
  5  6  2  0
  5  7  1  0
  7  8  1  0
  8  9  1  0
  9 10  1  0
 10 11  2  0
 11 12  1  0
 12 13  1  0
 13 14  1  0
 14 15  1  0
 15 16  1  0
 16 17  1  0
 17 18  1  0
 18 19  1  0
 19 20  1  0
 20 21  1  0
 12 22  2  0
 22 23  1  0
 23 24  1  0
 24 25  1  0
 25 26  1  0
 26 27  1  0
 27 28  2  0
 28 29  1  0
 29 30  2  0
 30 31  1  0
 31 32  2  0
 23 33  2  0
  9 34  1  0
  6  1  1  0
 33 10  1  0
 34  4  1  0
 21 16  1  0
 32 24  1  0
 32 27  1  0
  1 35  1  0
  2 36  1  0
  3 37  1  0
  6 38  1  0
  7 39  1  0
  7 40  1  0
  8 41  1  0
  8 42  1  0
 13 43  1  0
 14 44  1  0
 14 45  1  0
 15 46  1  0
 15 47  1  0
 16 48  1  0
 17 49  1  0
 17 50  1  0
 18 51  1  0
 18 52  1  0
 20 53  1  0
 20 54  1  0
 21 55  1  0
 21 56  1  0
 24 57  1  1
 25 58  1  0
 25 59  1  0
 26 60  1  0
 26 61  1  0
 28 62  1  0
 29 63  1  0
 30 64  1  0
 31 65  1  0
 34 66  1  0
 34 67  1  0
M  END
>  <UniqueID>  (20) 
494

>  <SMILES>  (20) 
c1ccc2c(c1)CCN(c1nc(NCCC3CCOCC3)nc([C@H]3CCc4ccccc43)n1)C2

>  <Energy>  (20) 
82.83335883849176

>  <Genealogy>  (20) 
c1ccc2c(c1)CCN(c1nc(NCCC3CCOCC3)nc([C@H]3CCc4ccccc43)n1)C2 (chirality)
c1ccc2c(c1)CCN(c1nc(NCCC3CCOCC3)nc([C@H]3CCc4ccccc43)n1)C2 (3D coordinates assigned)
c1ccc2c(c1)CCN(c1nc(NCCC3CCOCC3)nc([C@H]3CCc4ccccc43)n1)C2 (nonaromatic ring conformer: 82.83335883849176 kcal/mol)

>  <smiles>  (20) 
c1ccc2c(c1)CCN(c1nc(NCCC3CCOCC3)nc(C3CCc4ccccc43)n1)C2

>  <score_type>  (20) 
oracle

>  <origin>  (20) 
autodockgpu

>  <m_score__min__energy>  (20) 
-10.26

>  <m_primary>  (20) 
energy

>  <meeko>  (20) 
{"free_energy": -9.61, "intermolecular_energy": -11.4, "internal_energy": -1.33, "cluster_size": 7, "cluster_id": 1, "rank_in_cluster": 7}

>  <energy>  (20) 
-8.81

>  <cluster_rmsd>  (20) 
0.0

>  <rmsd>  (20) 
270.86

>  <cluster>  (20) 
7

$$$$
AOEMPDNDYKTPOZ-RFWLWHBWNA-O
     RDKit          3D

 68 73  0  0  0  0  0  0  0  0999 V2000
  142.0085   80.8555  224.7837 H   0  0  0  0  0  0  0  0  0  0  0  0
  141.8850   80.2990  223.8430 C   0  0  0  0  0  0  0  0  0  0  0  0
  142.1860   80.9130  222.6240 C   0  0  0  0  0  0  0  0  0  0  0  0
  142.5482   81.9515  222.6061 H   0  0  0  0  0  0  0  0  0  0  0  0
  142.0270   80.2080  221.4280 C   0  0  0  0  0  0  0  0  0  0  0  0
  142.2502   80.6976  220.4686 H   0  0  0  0  0  0  0  0  0  0  0  0
  141.5830   78.8760  221.4480 C   0  0  0  0  0  0  0  0  0  0  0  0
  141.2840   78.2560  222.6730 C   0  0  0  0  0  0  0  0  0  0  0  0
  141.4270   78.9780  223.8680 C   0  0  0  0  0  0  0  0  0  0  0  0
  141.1778   78.5028  224.8282 H   0  0  0  0  0  0  0  0  0  0  0  0
  140.7530   76.8440  222.6970 C   0  0  0  0  0  0  0  0  0  0  0  0
  139.6537   76.8819  222.6902 H   0  0  0  0  0  0  0  0  0  0  0  0
  141.1394   76.3607  223.6064 H   0  0  0  0  0  0  0  0  0  0  0  0
  141.2040   76.0430  221.5430 N   0  0  0  0  0  0  0  0  0  0  0  0
  141.1050   74.6060  221.6130 C   0  0  0  0  0  0  0  0  0  0  0  0
  142.0490   73.8240  221.0290 N   0  0  0  0  0  0  0  0  0  0  0  0
  141.9560   72.4720  221.0820 C   0  0  0  0  0  0  0  0  0  0  0  0
  143.0430   71.6340  220.4560 C   0  0  2  0  0  0  0  0  0  0  0  0
  143.0893   70.7231  221.0709 H   0  0  0  0  0  0  0  0  0  0  0  0
  144.3350   72.3680  220.4140 C   0  0  0  0  0  0  0  0  0  0  0  0
  145.1010   72.7860  221.5050 C   0  0  0  0  0  0  0  0  0  0  0  0
  144.7750   72.5717  222.5335 H   0  0  0  0  0  0  0  0  0  0  0  0
  146.2950   73.4850  221.2640 C   0  0  0  0  0  0  0  0  0  0  0  0
  146.9145   73.8211  222.1086 H   0  0  0  0  0  0  0  0  0  0  0  0
  146.7000   73.7560  219.9450 C   0  0  0  0  0  0  0  0  0  0  0  0
  147.6341   74.3067  219.7603 H   0  0  0  0  0  0  0  0  0  0  0  0
  145.9160   73.3260  218.8640 C   0  0  0  0  0  0  0  0  0  0  0  0
  146.2248   73.5370  217.8295 H   0  0  0  0  0  0  0  0  0  0  0  0
  144.7360   72.6250  219.1250 C   0  0  0  0  0  0  0  0  0  0  0  0
  143.7760   72.1040  218.1260 C   0  0  0  0  0  0  0  0  0  0  0  0
  144.2795   71.4368  217.4109 H   0  0  0  0  0  0  0  0  0  0  0  0
  143.3157   72.9021  217.5251 H   0  0  0  0  0  0  0  0  0  0  0  0
  142.7460   71.3270  218.9680 C   0  0  0  0  0  0  0  0  0  0  0  0
  142.8431   70.2476  218.7796 H   0  0  0  0  0  0  0  0  0  0  0  0
  141.7212   71.6280  218.7051 H   0  0  0  0  0  0  0  0  0  0  0  0
  140.9070   71.8910  221.7320 N   0  0  0  0  0  0  0  0  0  0  0  0
  140.8480   70.8510  221.7410 H   0  0  0  0  0  0  0  0  0  0  0  0
  139.9630   72.6670  222.3430 C   0  0  0  0  0  0  0  0  0  0  0  0
  138.9610   72.1500  223.0090 N   0  0  0  0  0  0  0  0  0  0  0  0
  138.1110   72.7390  223.1590 H   0  0  0  0  0  0  0  0  0  0  0  0
  138.9130   70.7950  223.5700 C   0  0  0  0  0  0  0  0  0  0  0  0
  137.9103   70.3766  223.3980 H   0  0  0  0  0  0  0  0  0  0  0  0
  139.6897   70.1971  223.0708 H   0  0  0  0  0  0  0  0  0  0  0  0
  139.2050   70.7760  225.0850 C   0  0  0  0  0  0  0  0  0  0  0  0
  138.8550   71.7250  225.5173 H   0  0  0  0  0  0  0  0  0  0  0  0
  138.6795   69.9038  225.5011 H   0  0  0  0  0  0  0  0  0  0  0  0
  140.7100   70.6050  225.4330 C   0  0  0  0  0  0  0  0  0  0  0  0
  141.2222   70.5031  224.4649 H   0  0  0  0  0  0  0  0  0  0  0  0
  141.0040   69.3370  226.2660 C   0  0  0  0  0  0  0  0  0  0  0  0
  140.4513   68.4898  225.8338 H   0  0  0  0  0  0  0  0  0  0  0  0
  142.0881   69.1525  226.2409 H   0  0  0  0  0  0  0  0  0  0  0  0
  140.5800   69.5130  227.7330 C   0  0  0  0  0  0  0  0  0  0  0  0
  139.4884   69.6405  227.7786 H   0  0  0  0  0  0  0  0  0  0  0  0
  140.8888   68.6195  228.2954 H   0  0  0  0  0  0  0  0  0  0  0  0
  141.2020   70.6450  228.3110 O   0  0  0  0  0  0  0  0  0  0  0  0
  140.7740   71.8210  227.6540 C   0  0  0  0  0  0  0  0  0  0  0  0
  139.6752   71.8666  227.6752 H   0  0  0  0  0  0  0  0  0  0  0  0
  141.2029   72.6911  228.1726 H   0  0  0  0  0  0  0  0  0  0  0  0
  141.2500   71.8330  226.1960 C   0  0  0  0  0  0  0  0  0  0  0  0
  140.8888   72.7493  225.7063 H   0  0  0  0  0  0  0  0  0  0  0  0
  142.3494   71.8002  226.1838 H   0  0  0  0  0  0  0  0  0  0  0  0
  140.0710   74.0190  222.2680 N   0  0  0  0  0  0  0  0  0  0  0  0
  141.8030   76.6610  220.3460 C   0  0  0  0  0  0  0  0  0  0  0  0
  141.4924   76.0902  219.4585 H   0  0  0  0  0  0  0  0  0  0  0  0
  142.8963   76.6454  220.4665 H   0  0  0  0  0  0  0  0  0  0  0  0
  141.3670   78.1180  220.1740 C   0  0  0  0  0  0  0  0  0  0  0  0
  140.2999   78.1492  219.9090 H   0  0  0  0  0  0  0  0  0  0  0  0
  141.9657   78.5801  219.3752 H   0  0  0  0  0  0  0  0  0  0  0  0
  1  2  1  0
  2  3  2  0
  3  4  1  0
  3  5  1  0
  5  6  1  0
  5  7  2  0
  7  8  1  0
  8  9  2  0
  9 10  1  0
  8 11  1  0
 11 12  1  0
 11 13  1  0
 11 14  1  0
 14 15  1  0
 15 16  1  0
 16 17  2  0
 17 18  1  0
 18 19  1  1
 18 20  1  0
 20 21  2  0
 21 22  1  0
 21 23  1  0
 23 24  1  0
 23 25  2  0
 25 26  1  0
 25 27  1  0
 27 28  1  0
 27 29  2  0
 29 30  1  0
 30 31  1  0
 30 32  1  0
 30 33  1  0
 33 34  1  0
 33 35  1  0
 17 36  1  0
 36 37  1  0
 36 38  1  0
 38 39  2  0
 39 40  1  0
 39 41  1  0
 41 42  1  0
 41 43  1  0
 41 44  1  0
 44 45  1  0
 44 46  1  0
 44 47  1  0
 47 48  1  0
 47 49  1  0
 49 50  1  0
 49 51  1  0
 49 52  1  0
 52 53  1  0
 52 54  1  0
 52 55  1  0
 55 56  1  0
 56 57  1  0
 56 58  1  0
 56 59  1  0
 59 60  1  0
 59 61  1  0
 38 62  1  0
 14 63  1  0
 63 64  1  0
 63 65  1  0
 63 66  1  0
 66 67  1  0
 66 68  1  0
  9  2  1  0
 62 15  2  0
 66  7  1  0
 33 18  1  0
 59 47  1  0
 29 20  1  0
M  CHG  1  39   1
M  END
>  <UniqueID>  (21) 
495

>  <SMILES>  (21) 
c1ccc2c(c1)CCN(c1nc([C@H]3CCc4ccccc43)[nH]/c(=[NH+]\CCC3CCOCC3)n1)C2

>  <Energy>  (21) 
83.47530777218503

>  <Genealogy>  (21) 
c1ccc2c(c1)CCN(c1nc([NH2+]CCC3CCOCC3)nc(C3CCc4ccccc43)n1)C2 (protonated)
c1ccc2c(c1)CCN(c1nc(C3CCc4ccccc43)[nH]c(=[NH+]CCC3CCOCC3)n1)C2 (tautomer)
c1ccc2c(c1)CCN(c1nc([C@H]3CCc4ccccc43)[nH]c(=[NH+]CCC3CCOCC3)n1)C2 (chirality)
c1ccc2c(c1)CCN(c1nc([C@H]3CCc4ccccc43)[nH]/c(=[NH+]\CCC3CCOCC3)n1)C2 (cis-trans isomerization)
c1ccc2c(c1)CCN(c1nc([C@H]3CCc4ccccc43)[nH]/c(=[NH+]\CCC3CCOCC3)n1)C2 (3D coordinates assigned)
c1ccc2c(c1)CCN(c1nc([C@H]3CCc4ccccc43)[nH]/c(=[NH+]\CCC3CCOCC3)n1)C2 (nonaromatic ring conformer: 83.47530777218503 kcal/mol)

>  <smiles>  (21) 
c1ccc2c(c1)CCN(c1nc(NCCC3CCOCC3)nc(C3CCc4ccccc43)n1)C2

>  <score_type>  (21) 
oracle

>  <origin>  (21) 
autodockgpu

>  <m_score__min__energy>  (21) 
-10.66

>  <m_primary>  (21) 
energy

>  <meeko>  (21) 
{"free_energy": -10.66, "intermolecular_energy": -12.45, "internal_energy": -1.0, "cluster_size": 7, "cluster_id": 1, "rank_in_cluster": 1}

>  <energy>  (21) 
-10.66

>  <cluster_rmsd>  (21) 
0.0

>  <rmsd>  (21) 
270.73

>  <cluster>  (21) 
1

$$$$
AOEMPDNDYKTPOZ-RFWLWHBWNA-O
     RDKit          3D

 68 73  0  0  0  0  0  0  0  0999 V2000
  139.8795   80.2484  223.9399 H   0  0  0  0  0  0  0  0  0  0  0  0
  140.2850   79.5620  223.1820 C   0  0  0  0  0  0  0  0  0  0  0  0
  141.2830   79.9990  222.3070 C   0  0  0  0  0  0  0  0  0  0  0  0
  141.6645   81.0283  222.3780 H   0  0  0  0  0  0  0  0  0  0  0  0
  141.7970   79.1280  221.3410 C   0  0  0  0  0  0  0  0  0  0  0  0
  142.5720   79.4780  220.6432 H   0  0  0  0  0  0  0  0  0  0  0  0
  141.3260   77.8080  221.2600 C   0  0  0  0  0  0  0  0  0  0  0  0
  140.3260   77.3660  222.1420 C   0  0  0  0  0  0  0  0  0  0  0  0
  139.8010   78.2520  223.0950 C   0  0  0  0  0  0  0  0  0  0  0  0
  139.0058   77.9154  223.7764 H   0  0  0  0  0  0  0  0  0  0  0  0
  139.7750   75.9660  222.0230 C   0  0  0  0  0  0  0  0  0  0  0  0
  138.8909   75.9906  221.3690 H   0  0  0  0  0  0  0  0  0  0  0  0
  139.5228   75.6219  223.0369 H   0  0  0  0  0  0  0  0  0  0  0  0
  140.7520   75.0130  221.4600 N   0  0  0  0  0  0  0  0  0  0  0  0
  140.5230   73.6000  221.6330 C   0  0  0  0  0  0  0  0  0  0  0  0
  139.8070   73.1460  222.6940 N   0  0  0  0  0  0  0  0  0  0  0  0
  139.5960   71.8180  222.8680 C   0  0  0  0  0  0  0  0  0  0  0  0
  138.7630   71.3510  224.0360 C   0  0  2  0  0  0  0  0  0  0  0  0
  138.1723   72.2297  224.3342 H   0  0  0  0  0  0  0  0  0  0  0  0
  139.6180   70.8300  225.1350 C   0  0  0  0  0  0  0  0  0  0  0  0
  140.5320   71.5550  225.9050 C   0  0  0  0  0  0  0  0  0  0  0  0
  140.6751   72.6328  225.7379 H   0  0  0  0  0  0  0  0  0  0  0  0
  141.2640   70.8810  226.8960 C   0  0  0  0  0  0  0  0  0  0  0  0
  141.9867   71.4326  227.5153 H   0  0  0  0  0  0  0  0  0  0  0  0
  141.0750   69.5030  227.0980 C   0  0  0  0  0  0  0  0  0  0  0  0
  141.6538   68.9781  227.8723 H   0  0  0  0  0  0  0  0  0  0  0  0
  140.1500   68.7940  226.3150 C   0  0  0  0  0  0  0  0  0  0  0  0
  139.9975   67.7152  226.4662 H   0  0  0  0  0  0  0  0  0  0  0  0
  139.4270   69.4860  225.3400 C   0  0  0  0  0  0  0  0  0  0  0  0
  138.4230   68.9150  224.4120 C   0  0  0  0  0  0  0  0  0  0  0  0
  137.6218   68.4059  224.9678 H   0  0  0  0  0  0  0  0  0  0  0  0
  138.8517   68.1598  223.7368 H   0  0  0  0  0  0  0  0  0  0  0  0
  137.8730   70.1410  223.6580 C   0  0  0  0  0  0  0  0  0  0  0  0
  136.8318   70.3313  223.9575 H   0  0  0  0  0  0  0  0  0  0  0  0
  137.8892   69.9697  222.5715 H   0  0  0  0  0  0  0  0  0  0  0  0
  140.1060   70.9290  221.9680 N   0  0  0  0  0  0  0  0  0  0  0  0
  139.9470   69.9130  222.1350 H   0  0  0  0  0  0  0  0  0  0  0  0
  140.8080   71.3750  220.8840 C   0  0  0  0  0  0  0  0  0  0  0  0
  141.2810   70.5570  219.9770 N   0  0  0  0  0  0  0  0  0  0  0  0
  140.6080   69.9340  219.4740 H   0  0  0  0  0  0  0  0  0  0  0  0
  142.6890   70.4330  219.5850 C   0  0  0  0  0  0  0  0  0  0  0  0
  142.9669   69.3687  219.5977 H   0  0  0  0  0  0  0  0  0  0  0  0
  142.7966   70.8656  218.5794 H   0  0  0  0  0  0  0  0  0  0  0  0
  143.6330   71.2030  220.5320 C   0  0  0  0  0  0  0  0  0  0  0  0
  143.2350   71.1276  221.5547 H   0  0  0  0  0  0  0  0  0  0  0  0
  144.6286   70.7460  220.4322 H   0  0  0  0  0  0  0  0  0  0  0  0
  143.7890   72.7080  220.1770 C   0  0  0  0  0  0  0  0  0  0  0  0
  142.8707   73.1893  220.5444 H   0  0  0  0  0  0  0  0  0  0  0  0
  143.8920   72.9690  218.6570 C   0  0  0  0  0  0  0  0  0  0  0  0
  143.1295   72.3688  218.1390 H   0  0  0  0  0  0  0  0  0  0  0  0
  143.7326   74.0429  218.4802 H   0  0  0  0  0  0  0  0  0  0  0  0
  145.2790   72.5920  218.1120 C   0  0  0  0  0  0  0  0  0  0  0  0
  145.4287   71.5086  218.2297 H   0  0  0  0  0  0  0  0  0  0  0  0
  145.3258   72.8763  217.0504 H   0  0  0  0  0  0  0  0  0  0  0  0
  146.3040   73.2780  218.8060 O   0  0  0  0  0  0  0  0  0  0  0  0
  146.3160   72.8840  220.1640 C   0  0  0  0  0  0  0  0  0  0  0  0
  146.4057   71.7892  220.2214 H   0  0  0  0  0  0  0  0  0  0  0  0
  147.1703   73.3641  220.6636 H   0  0  0  0  0  0  0  0  0  0  0  0
  145.0240   73.3210  220.8680 C   0  0  0  0  0  0  0  0  0  0  0  0
  145.0537   72.9873  221.9157 H   0  0  0  0  0  0  0  0  0  0  0  0
  144.9484   74.4172  220.8171 H   0  0  0  0  0  0  0  0  0  0  0  0
  141.0150   72.7090  220.7350 N   0  0  0  0  0  0  0  0  0  0  0  0
  141.9790   75.4610  220.7760 C   0  0  0  0  0  0  0  0  0  0  0  0
  142.2004   74.7662  219.9525 H   0  0  0  0  0  0  0  0  0  0  0  0
  142.7939   75.4750  221.5147 H   0  0  0  0  0  0  0  0  0  0  0  0
  141.8340   76.8740  220.2050 C   0  0  0  0  0  0  0  0  0  0  0  0
  141.1250   76.8552  219.3642 H   0  0  0  0  0  0  0  0  0  0  0  0
  142.8176   77.2241  219.8587 H   0  0  0  0  0  0  0  0  0  0  0  0
  1  2  1  0
  2  3  2  0
  3  4  1  0
  3  5  1  0
  5  6  1  0
  5  7  2  0
  7  8  1  0
  8  9  2  0
  9 10  1  0
  8 11  1  0
 11 12  1  0
 11 13  1  0
 11 14  1  0
 14 15  1  0
 15 16  1  0
 16 17  2  0
 17 18  1  0
 18 19  1  1
 18 20  1  0
 20 21  2  0
 21 22  1  0
 21 23  1  0
 23 24  1  0
 23 25  2  0
 25 26  1  0
 25 27  1  0
 27 28  1  0
 27 29  2  0
 29 30  1  0
 30 31  1  0
 30 32  1  0
 30 33  1  0
 33 34  1  0
 33 35  1  0
 17 36  1  0
 36 37  1  0
 36 38  1  0
 38 39  2  0
 39 40  1  0
 39 41  1  0
 41 42  1  0
 41 43  1  0
 41 44  1  0
 44 45  1  0
 44 46  1  0
 44 47  1  0
 47 48  1  0
 47 49  1  0
 49 50  1  0
 49 51  1  0
 49 52  1  0
 52 53  1  0
 52 54  1  0
 52 55  1  0
 55 56  1  0
 56 57  1  0
 56 58  1  0
 56 59  1  0
 59 60  1  0
 59 61  1  0
 38 62  1  0
 14 63  1  0
 63 64  1  0
 63 65  1  0
 63 66  1  0
 66 67  1  0
 66 68  1  0
  9  2  1  0
 62 15  2  0
 66  7  1  0
 33 18  1  0
 59 47  1  0
 29 20  1  0
M  CHG  1  39   1
M  END
>  <UniqueID>  (22) 
495

>  <SMILES>  (22) 
c1ccc2c(c1)CCN(c1nc([C@H]3CCc4ccccc43)[nH]/c(=[NH+]\CCC3CCOCC3)n1)C2

>  <Energy>  (22) 
83.47530777218503

>  <Genealogy>  (22) 
c1ccc2c(c1)CCN(c1nc([NH2+]CCC3CCOCC3)nc(C3CCc4ccccc43)n1)C2 (protonated)
c1ccc2c(c1)CCN(c1nc(C3CCc4ccccc43)[nH]c(=[NH+]CCC3CCOCC3)n1)C2 (tautomer)
c1ccc2c(c1)CCN(c1nc([C@H]3CCc4ccccc43)[nH]c(=[NH+]CCC3CCOCC3)n1)C2 (chirality)
c1ccc2c(c1)CCN(c1nc([C@H]3CCc4ccccc43)[nH]/c(=[NH+]\CCC3CCOCC3)n1)C2 (cis-trans isomerization)
c1ccc2c(c1)CCN(c1nc([C@H]3CCc4ccccc43)[nH]/c(=[NH+]\CCC3CCOCC3)n1)C2 (3D coordinates assigned)
c1ccc2c(c1)CCN(c1nc([C@H]3CCc4ccccc43)[nH]/c(=[NH+]\CCC3CCOCC3)n1)C2 (nonaromatic ring conformer: 83.47530777218503 kcal/mol)

>  <smiles>  (22) 
c1ccc2c(c1)CCN(c1nc(NCCC3CCOCC3)nc(C3CCc4ccccc43)n1)C2

>  <score_type>  (22) 
oracle

>  <origin>  (22) 
autodockgpu

>  <m_score__min__energy>  (22) 
-10.66

>  <m_primary>  (22) 
energy

>  <meeko>  (22) 
{"free_energy": -9.43, "intermolecular_energy": -11.22, "internal_energy": -1.16, "cluster_size": 3, "cluster_id": 4, "rank_in_cluster": 1}

>  <energy>  (22) 
-10.66

>  <cluster_rmsd>  (22) 
0.15

>  <rmsd>  (22) 
270.7

>  <cluster>  (22) 
1

$$$$
AOEMPDNDYKTPOZ-RFWLWHBWNA-O
     RDKit          3D

 68 73  0  0  0  0  0  0  0  0999 V2000
  141.0908   69.8856  228.1881 H   0  0  0  0  0  0  0  0  0  0  0  0
  140.5470   69.9300  227.2330 C   0  0  0  0  0  0  0  0  0  0  0  0
  139.4590   69.0820  227.0090 C   0  0  0  0  0  0  0  0  0  0  0  0
  139.1450   68.3731  227.7893 H   0  0  0  0  0  0  0  0  0  0  0  0
  138.7700   69.1340  225.7950 C   0  0  0  0  0  0  0  0  0  0  0  0
  137.9242   68.4544  225.6143 H   0  0  0  0  0  0  0  0  0  0  0  0
  139.1550   70.0520  224.8050 C   0  0  0  0  0  0  0  0  0  0  0  0
  140.2450   70.9090  225.0290 C   0  0  0  0  0  0  0  0  0  0  0  0
  140.9450   70.8350  226.2440 C   0  0  0  0  0  0  0  0  0  0  0  0
  141.8101   71.4917  226.4186 H   0  0  0  0  0  0  0  0  0  0  0  0
  140.6990   71.8570  223.9480 C   0  0  0  0  0  0  0  0  0  0  0  0
  141.4819   71.3633  223.3535 H   0  0  0  0  0  0  0  0  0  0  0  0
  141.0735   72.7664  224.4407 H   0  0  0  0  0  0  0  0  0  0  0  0
  139.6040   72.2600  223.0440 N   0  0  0  0  0  0  0  0  0  0  0  0
  139.7810   73.4270  222.2160 C   0  0  0  0  0  0  0  0  0  0  0  0
  140.7780   73.4710  221.2960 N   0  0  0  0  0  0  0  0  0  0  0  0
  140.9560   74.5690  220.5200 C   0  0  0  0  0  0  0  0  0  0  0  0
  142.0500   74.5690  219.4810 C   0  0  2  0  0  0  0  0  0  0  0  0
  141.6321   74.0146  218.6278 H   0  0  0  0  0  0  0  0  0  0  0  0
  143.2980   73.9590  220.0110 C   0  0  0  0  0  0  0  0  0  0  0  0
  143.4850   72.6300  220.4020 C   0  0  0  0  0  0  0  0  0  0  0  0
  142.6636   71.9025  220.3249 H   0  0  0  0  0  0  0  0  0  0  0  0
  144.7410   72.2410  220.8950 C   0  0  0  0  0  0  0  0  0  0  0  0
  144.9103   71.1995  221.2059 H   0  0  0  0  0  0  0  0  0  0  0  0
  145.7830   73.1810  220.9920 C   0  0  0  0  0  0  0  0  0  0  0  0
  146.7644   72.8736  221.3824 H   0  0  0  0  0  0  0  0  0  0  0  0
  145.5740   74.5100  220.5920 C   0  0  0  0  0  0  0  0  0  0  0  0
  146.3832   75.2513  220.6668 H   0  0  0  0  0  0  0  0  0  0  0  0
  144.3190   74.8740  220.0970 C   0  0  0  0  0  0  0  0  0  0  0  0
  143.9040   76.2200  219.6410 C   0  0  0  0  0  0  0  0  0  0  0  0
  144.5729   76.5879  218.8491 H   0  0  0  0  0  0  0  0  0  0  0  0
  143.9431   76.9698  220.4449 H   0  0  0  0  0  0  0  0  0  0  0  0
  142.4780   76.0070  219.0980 C   0  0  0  0  0  0  0  0  0  0  0  0
  142.4703   76.1234  218.0042 H   0  0  0  0  0  0  0  0  0  0  0  0
  141.7842   76.7466  219.5243 H   0  0  0  0  0  0  0  0  0  0  0  0
  140.1230   75.6400  220.6620 N   0  0  0  0  0  0  0  0  0  0  0  0
  140.2930   76.4790  220.0690 H   0  0  0  0  0  0  0  0  0  0  0  0
  139.1010   75.5990  221.5690 C   0  0  0  0  0  0  0  0  0  0  0  0
  138.2560   76.5890  221.7100 N   0  0  0  0  0  0  0  0  0  0  0  0
  137.5360   76.7350  220.9660 H   0  0  0  0  0  0  0  0  0  0  0  0
  138.2170   77.5290  222.8350 C   0  0  0  0  0  0  0  0  0  0  0  0
  137.2169   77.9848  222.8799 H   0  0  0  0  0  0  0  0  0  0  0  0
  138.4445   76.9647  223.7514 H   0  0  0  0  0  0  0  0  0  0  0  0
  139.2670   78.6510  222.7010 C   0  0  0  0  0  0  0  0  0  0  0  0
  139.0859   79.1841  221.7560 H   0  0  0  0  0  0  0  0  0  0  0  0
  139.1538   79.3017  223.5807 H   0  0  0  0  0  0  0  0  0  0  0  0
  140.7360   78.1410  222.7020 C   0  0  0  0  0  0  0  0  0  0  0  0
  140.6670   77.0569  222.8751 H   0  0  0  0  0  0  0  0  0  0  0  0
  141.5940   78.7540  223.8330 C   0  0  0  0  0  0  0  0  0  0  0  0
  141.0164   78.7368  224.7690 H   0  0  0  0  0  0  0  0  0  0  0  0
  142.5140   78.1588  223.9292 H   0  0  0  0  0  0  0  0  0  0  0  0
  141.9900   80.2060  223.5170 C   0  0  0  0  0  0  0  0  0  0  0  0
  141.0817   80.8250  223.4751 H   0  0  0  0  0  0  0  0  0  0  0  0
  142.6658   80.5635  224.3079 H   0  0  0  0  0  0  0  0  0  0  0  0
  142.6650   80.2920  222.2770 O   0  0  0  0  0  0  0  0  0  0  0  0
  141.8000   79.9050  221.2270 C   0  0  0  0  0  0  0  0  0  0  0  0
  140.8845   80.5133  221.2704 H   0  0  0  0  0  0  0  0  0  0  0  0
  142.3159   80.0603  220.2680 H   0  0  0  0  0  0  0  0  0  0  0  0
  141.4260   78.4220  221.3520 C   0  0  0  0  0  0  0  0  0  0  0  0
  140.7410   78.1531  220.5344 H   0  0  0  0  0  0  0  0  0  0  0  0
  142.3458   77.8214  221.2954 H   0  0  0  0  0  0  0  0  0  0  0  0
  138.9480   74.4920  222.3420 N   0  0  0  0  0  0  0  0  0  0  0  0
  138.3180   71.5410  223.0020 C   0  0  0  0  0  0  0  0  0  0  0  0
  137.9460   71.5389  221.9668 H   0  0  0  0  0  0  0  0  0  0  0  0
  137.6180   72.0573  223.6754 H   0  0  0  0  0  0  0  0  0  0  0  0
  138.4540   70.0940  223.4810 C   0  0  0  0  0  0  0  0  0  0  0  0
  139.0347   69.5201  222.7438 H   0  0  0  0  0  0  0  0  0  0  0  0
  137.4509   69.6562  223.5914 H   0  0  0  0  0  0  0  0  0  0  0  0
  1  2  1  0
  2  3  2  0
  3  4  1  0
  3  5  1  0
  5  6  1  0
  5  7  2  0
  7  8  1  0
  8  9  2  0
  9 10  1  0
  8 11  1  0
 11 12  1  0
 11 13  1  0
 11 14  1  0
 14 15  1  0
 15 16  1  0
 16 17  2  0
 17 18  1  0
 18 19  1  6
 18 20  1  0
 20 21  2  0
 21 22  1  0
 21 23  1  0
 23 24  1  0
 23 25  2  0
 25 26  1  0
 25 27  1  0
 27 28  1  0
 27 29  2  0
 29 30  1  0
 30 31  1  0
 30 32  1  0
 30 33  1  0
 33 34  1  0
 33 35  1  0
 17 36  1  0
 36 37  1  0
 36 38  1  0
 38 39  2  0
 39 40  1  0
 39 41  1  0
 41 42  1  0
 41 43  1  0
 41 44  1  0
 44 45  1  0
 44 46  1  0
 44 47  1  0
 47 48  1  0
 47 49  1  0
 49 50  1  0
 49 51  1  0
 49 52  1  0
 52 53  1  0
 52 54  1  0
 52 55  1  0
 55 56  1  0
 56 57  1  0
 56 58  1  0
 56 59  1  0
 59 60  1  0
 59 61  1  0
 38 62  1  0
 14 63  1  0
 63 64  1  0
 63 65  1  0
 63 66  1  0
 66 67  1  0
 66 68  1  0
  9  2  1  0
 62 15  2  0
 66  7  1  0
 33 18  1  0
 59 47  1  0
 29 20  1  0
M  CHG  1  39   1
M  END
>  <UniqueID>  (23) 
495

>  <SMILES>  (23) 
c1ccc2c(c1)CCN(c1nc([C@H]3CCc4ccccc43)[nH]/c(=[NH+]\CCC3CCOCC3)n1)C2

>  <Energy>  (23) 
83.47530777218503

>  <Genealogy>  (23) 
c1ccc2c(c1)CCN(c1nc([NH2+]CCC3CCOCC3)nc(C3CCc4ccccc43)n1)C2 (protonated)
c1ccc2c(c1)CCN(c1nc(C3CCc4ccccc43)[nH]c(=[NH+]CCC3CCOCC3)n1)C2 (tautomer)
c1ccc2c(c1)CCN(c1nc([C@H]3CCc4ccccc43)[nH]c(=[NH+]CCC3CCOCC3)n1)C2 (chirality)
c1ccc2c(c1)CCN(c1nc([C@H]3CCc4ccccc43)[nH]/c(=[NH+]\CCC3CCOCC3)n1)C2 (cis-trans isomerization)
c1ccc2c(c1)CCN(c1nc([C@H]3CCc4ccccc43)[nH]/c(=[NH+]\CCC3CCOCC3)n1)C2 (3D coordinates assigned)
c1ccc2c(c1)CCN(c1nc([C@H]3CCc4ccccc43)[nH]/c(=[NH+]\CCC3CCOCC3)n1)C2 (nonaromatic ring conformer: 83.47530777218503 kcal/mol)

>  <smiles>  (23) 
c1ccc2c(c1)CCN(c1nc(NCCC3CCOCC3)nc(C3CCc4ccccc43)n1)C2

>  <score_type>  (23) 
oracle

>  <origin>  (23) 
autodockgpu

>  <m_score__min__energy>  (23) 
-10.66

>  <m_primary>  (23) 
energy

>  <meeko>  (23) 
{"free_energy": -9.3, "intermolecular_energy": -11.09, "internal_energy": -1.32, "cluster_size": 6, "cluster_id": 2, "rank_in_cluster": 5}

>  <energy>  (23) 
-10.64

>  <cluster_rmsd>  (23) 
0.08

>  <rmsd>  (23) 
270.72

>  <cluster>  (23) 
1

$$$$
AOEMPDNDYKTPOZ-RFWLWHBWNA-O
     RDKit          3D

 68 73  0  0  0  0  0  0  0  0999 V2000
  141.2941   81.5637  224.6619 H   0  0  0  0  0  0  0  0  0  0  0  0
  141.3850   80.8250  223.8520 C   0  0  0  0  0  0  0  0  0  0  0  0
  142.4250   80.9300  222.9250 C   0  0  0  0  0  0  0  0  0  0  0  0
  143.1529   81.7507  223.0060 H   0  0  0  0  0  0  0  0  0  0  0  0
  142.5410   79.9920  221.8940 C   0  0  0  0  0  0  0  0  0  0  0  0
  143.3517   80.0845  221.1563 H   0  0  0  0  0  0  0  0  0  0  0  0
  141.6250   78.9330  221.7990 C   0  0  0  0  0  0  0  0  0  0  0  0
  140.5800   78.8230  222.7320 C   0  0  0  0  0  0  0  0  0  0  0  0
  140.4590   79.7810  223.7510 C   0  0  0  0  0  0  0  0  0  0  0  0
  139.6324   79.7105  224.4734 H   0  0  0  0  0  0  0  0  0  0  0  0
  139.5590   77.7200  222.6010 C   0  0  0  0  0  0  0  0  0  0  0  0
  138.7094   78.0955  222.0117 H   0  0  0  0  0  0  0  0  0  0  0  0
  139.2535   77.4286  223.6168 H   0  0  0  0  0  0  0  0  0  0  0  0
  140.0990   76.5180  221.9370 N   0  0  0  0  0  0  0  0  0  0  0  0
  139.3890   75.2710  222.0740 C   0  0  0  0  0  0  0  0  0  0  0  0
  138.0310   75.2530  222.0970 N   0  0  0  0  0  0  0  0  0  0  0  0
  137.3570   74.0850  222.2350 C   0  0  0  0  0  0  0  0  0  0  0  0
  135.8480   74.0980  222.2180 C   0  0  2  0  0  0  0  0  0  0  0  0
  135.5792   74.8577  221.4693 H   0  0  0  0  0  0  0  0  0  0  0  0
  135.2940   74.3940  223.5650 C   0  0  0  0  0  0  0  0  0  0  0  0
  135.4300   75.5830  224.2870 C   0  0  0  0  0  0  0  0  0  0  0  0
  135.9854   76.4339  223.8657 H   0  0  0  0  0  0  0  0  0  0  0  0
  134.8440   75.6710  225.5610 C   0  0  0  0  0  0  0  0  0  0  0  0
  134.9361   76.5985  226.1452 H   0  0  0  0  0  0  0  0  0  0  0  0
  134.1400   74.5750  226.0900 C   0  0  0  0  0  0  0  0  0  0  0  0
  133.6856   74.6460  227.0892 H   0  0  0  0  0  0  0  0  0  0  0  0
  134.0150   73.3900  225.3470 C   0  0  0  0  0  0  0  0  0  0  0  0
  133.4675   72.5277  225.7552 H   0  0  0  0  0  0  0  0  0  0  0  0
  134.5990   73.3270  224.0800 C   0  0  0  0  0  0  0  0  0  0  0  0
  134.5870   72.1690  223.1560 C   0  0  0  0  0  0  0  0  0  0  0  0
  133.5563   71.8478  222.9449 H   0  0  0  0  0  0  0  0  0  0  0  0
  135.1001   71.2896  223.5725 H   0  0  0  0  0  0  0  0  0  0  0  0
  135.2660   72.7030  221.8810 C   0  0  0  0  0  0  0  0  0  0  0  0
  134.5283   72.7891  221.0696 H   0  0  0  0  0  0  0  0  0  0  0  0
  136.0612   72.0197  221.5482 H   0  0  0  0  0  0  0  0  0  0  0  0
  138.0470   72.9150  222.3500 N   0  0  0  0  0  0  0  0  0  0  0  0
  137.5070   72.0330  222.4750 H   0  0  0  0  0  0  0  0  0  0  0  0
  139.4130   72.9160  222.3050 C   0  0  0  0  0  0  0  0  0  0  0  0
  140.1130   71.8120  222.3730 N   0  0  0  0  0  0  0  0  0  0  0  0
  140.9310   71.7050  221.7300 H   0  0  0  0  0  0  0  0  0  0  0  0
  139.8610   70.6910  223.2840 C   0  0  0  0  0  0  0  0  0  0  0  0
  138.9021   70.2247  223.0137 H   0  0  0  0  0  0  0  0  0  0  0  0
  140.6962   69.9823  223.1831 H   0  0  0  0  0  0  0  0  0  0  0  0
  139.7970   71.1360  224.7600 C   0  0  0  0  0  0  0  0  0  0  0  0
  139.6329   72.2233  224.7876 H   0  0  0  0  0  0  0  0  0  0  0  0
  138.9756   70.5742  225.2286 H   0  0  0  0  0  0  0  0  0  0  0  0
  141.0850   70.8140  225.5690 C   0  0  0  0  0  0  0  0  0  0  0  0
  141.9086   70.8835  224.8432 H   0  0  0  0  0  0  0  0  0  0  0  0
  141.0910   69.3880  226.1660 C   0  0  0  0  0  0  0  0  0  0  0  0
  140.7448   68.6786  225.4000 H   0  0  0  0  0  0  0  0  0  0  0  0
  142.1172   69.1518  226.4840 H   0  0  0  0  0  0  0  0  0  0  0  0
  140.1710   69.2860  227.3930 C   0  0  0  0  0  0  0  0  0  0  0  0
  139.1320   69.4631  227.0783 H   0  0  0  0  0  0  0  0  0  0  0  0
  140.2786   68.2809  227.8268 H   0  0  0  0  0  0  0  0  0  0  0  0
  140.5240   70.2390  228.3770 O   0  0  0  0  0  0  0  0  0  0  0  0
  140.3330   71.5470  227.8750 C   0  0  0  0  0  0  0  0  0  0  0  0
  139.2971   71.6496  227.5196 H   0  0  0  0  0  0  0  0  0  0  0  0
  140.5332   72.2678  228.6814 H   0  0  0  0  0  0  0  0  0  0  0  0
  141.2940   71.8280  226.7130 C   0  0  0  0  0  0  0  0  0  0  0  0
  141.1114   72.8436  226.3320 H   0  0  0  0  0  0  0  0  0  0  0  0
  142.3267   71.7357  227.0805 H   0  0  0  0  0  0  0  0  0  0  0  0
  140.0680   74.1000  222.1750 N   0  0  0  0  0  0  0  0  0  0  0  0
  141.3670   76.5400  221.1850 C   0  0  0  0  0  0  0  0  0  0  0  0
  141.2808   75.8616  220.3234 H   0  0  0  0  0  0  0  0  0  0  0  0
  142.1707   76.2200  221.8645 H   0  0  0  0  0  0  0  0  0  0  0  0
  141.7080   77.9430  220.6770 C   0  0  0  0  0  0  0  0  0  0  0  0
  140.9959   78.2270  219.8882 H   0  0  0  0  0  0  0  0  0  0  0  0
  142.7319   77.9406  220.2749 H   0  0  0  0  0  0  0  0  0  0  0  0
  1  2  1  0
  2  3  2  0
  3  4  1  0
  3  5  1  0
  5  6  1  0
  5  7  2  0
  7  8  1  0
  8  9  2  0
  9 10  1  0
  8 11  1  0
 11 12  1  0
 11 13  1  0
 11 14  1  0
 14 15  1  0
 15 16  1  0
 16 17  2  0
 17 18  1  0
 18 19  1  6
 18 20  1  0
 20 21  2  0
 21 22  1  0
 21 23  1  0
 23 24  1  0
 23 25  2  0
 25 26  1  0
 25 27  1  0
 27 28  1  0
 27 29  2  0
 29 30  1  0
 30 31  1  0
 30 32  1  0
 30 33  1  0
 33 34  1  0
 33 35  1  0
 17 36  1  0
 36 37  1  0
 36 38  1  0
 38 39  2  0
 39 40  1  0
 39 41  1  0
 41 42  1  0
 41 43  1  0
 41 44  1  0
 44 45  1  0
 44 46  1  0
 44 47  1  0
 47 48  1  0
 47 49  1  0
 49 50  1  0
 49 51  1  0
 49 52  1  0
 52 53  1  0
 52 54  1  0
 52 55  1  0
 55 56  1  0
 56 57  1  0
 56 58  1  0
 56 59  1  0
 59 60  1  0
 59 61  1  0
 38 62  1  0
 14 63  1  0
 63 64  1  0
 63 65  1  0
 63 66  1  0
 66 67  1  0
 66 68  1  0
  9  2  1  0
 62 15  2  0
 66  7  1  0
 33 18  1  0
 59 47  1  0
 29 20  1  0
M  CHG  1  39   1
M  END
>  <UniqueID>  (24) 
495

>  <SMILES>  (24) 
c1ccc2c(c1)CCN(c1nc([C@H]3CCc4ccccc43)[nH]/c(=[NH+]\CCC3CCOCC3)n1)C2

>  <Energy>  (24) 
83.47530777218503

>  <Genealogy>  (24) 
c1ccc2c(c1)CCN(c1nc([NH2+]CCC3CCOCC3)nc(C3CCc4ccccc43)n1)C2 (protonated)
c1ccc2c(c1)CCN(c1nc(C3CCc4ccccc43)[nH]c(=[NH+]CCC3CCOCC3)n1)C2 (tautomer)
c1ccc2c(c1)CCN(c1nc([C@H]3CCc4ccccc43)[nH]c(=[NH+]CCC3CCOCC3)n1)C2 (chirality)
c1ccc2c(c1)CCN(c1nc([C@H]3CCc4ccccc43)[nH]/c(=[NH+]\CCC3CCOCC3)n1)C2 (cis-trans isomerization)
c1ccc2c(c1)CCN(c1nc([C@H]3CCc4ccccc43)[nH]/c(=[NH+]\CCC3CCOCC3)n1)C2 (3D coordinates assigned)
c1ccc2c(c1)CCN(c1nc([C@H]3CCc4ccccc43)[nH]/c(=[NH+]\CCC3CCOCC3)n1)C2 (nonaromatic ring conformer: 83.47530777218503 kcal/mol)

>  <smiles>  (24) 
c1ccc2c(c1)CCN(c1nc(NCCC3CCOCC3)nc(C3CCc4ccccc43)n1)C2

>  <score_type>  (24) 
oracle

>  <origin>  (24) 
autodockgpu

>  <m_score__min__energy>  (24) 
-10.66

>  <m_primary>  (24) 
energy

>  <meeko>  (24) 
{"free_energy": -9.51, "intermolecular_energy": -11.3, "internal_energy": -0.87, "cluster_size": 3, "cluster_id": 3, "rank_in_cluster": 2}

>  <energy>  (24) 
-10.62

>  <cluster_rmsd>  (24) 
0.06

>  <rmsd>  (24) 
270.71

>  <cluster>  (24) 
1

$$$$
AOEMPDNDYKTPOZ-RFWLWHBWNA-O
     RDKit          3D

 68 73  0  0  0  0  0  0  0  0999 V2000
  142.1043   80.2239  224.2647 H   0  0  0  0  0  0  0  0  0  0  0  0
  141.8760   79.6540  223.3520 C   0  0  0  0  0  0  0  0  0  0  0  0
  142.0930   80.2300  222.0970 C   0  0  0  0  0  0  0  0  0  0  0  0
  142.4937   81.2517  222.0226 H   0  0  0  0  0  0  0  0  0  0  0  0
  141.8010   79.5080  220.9370 C   0  0  0  0  0  0  0  0  0  0  0  0
  141.9578   79.9681  219.9502 H   0  0  0  0  0  0  0  0  0  0  0  0
  141.3080   78.1970  221.0280 C   0  0  0  0  0  0  0  0  0  0  0  0
  141.0930   77.6150  222.2880 C   0  0  0  0  0  0  0  0  0  0  0  0
  141.3690   78.3540  223.4490 C   0  0  0  0  0  0  0  0  0  0  0  0
  141.1860   77.9093  224.4383 H   0  0  0  0  0  0  0  0  0  0  0  0
  140.5080   76.2280  222.3930 C   0  0  0  0  0  0  0  0  0  0  0  0
  139.4148   76.3131  222.4802 H   0  0  0  0  0  0  0  0  0  0  0  0
  140.9511   75.7472  223.2776 H   0  0  0  0  0  0  0  0  0  0  0  0
  140.8240   75.3850  221.2230 N   0  0  0  0  0  0  0  0  0  0  0  0
  140.6730   73.9560  221.3360 C   0  0  0  0  0  0  0  0  0  0  0  0
  139.9490   73.4200  222.3530 N   0  0  0  0  0  0  0  0  0  0  0  0
  139.8110   72.0770  222.4700 C   0  0  0  0  0  0  0  0  0  0  0  0
  138.9680   71.5170  223.5900 C   0  0  2  0  0  0  0  0  0  0  0  0
  138.3019   72.3414  223.8845 H   0  0  0  0  0  0  0  0  0  0  0  0
  139.8140   71.0300  224.7110 C   0  0  0  0  0  0  0  0  0  0  0  0
  140.6400   71.7970  225.5360 C   0  0  0  0  0  0  0  0  0  0  0  0
  140.7102   72.8865  225.4016 H   0  0  0  0  0  0  0  0  0  0  0  0
  141.3790   71.1510  226.5400 C   0  0  0  0  0  0  0  0  0  0  0  0
  142.0330   71.7366  227.2028 H   0  0  0  0  0  0  0  0  0  0  0  0
  141.2850   69.7580  226.7000 C   0  0  0  0  0  0  0  0  0  0  0  0
  141.8695   69.2554  227.4847 H   0  0  0  0  0  0  0  0  0  0  0  0
  140.4470   69.0060  225.8610 C   0  0  0  0  0  0  0  0  0  0  0  0
  140.3685   67.9151  225.9787 H   0  0  0  0  0  0  0  0  0  0  0  0
  139.7150   69.6700  224.8740 C   0  0  0  0  0  0  0  0  0  0  0  0
  138.7940   69.0540  223.8910 C   0  0  0  0  0  0  0  0  0  0  0  0
  138.0107   68.4730  224.3998 H   0  0  0  0  0  0  0  0  0  0  0  0
  139.3039   68.3510  223.2159 H   0  0  0  0  0  0  0  0  0  0  0  0
  138.1860   70.2570  223.1450 C   0  0  0  0  0  0  0  0  0  0  0  0
  137.1224   70.3627  223.4048 H   0  0  0  0  0  0  0  0  0  0  0  0
  138.2586   70.1176  222.0563 H   0  0  0  0  0  0  0  0  0  0  0  0
  140.4010   71.2530  221.5570 N   0  0  0  0  0  0  0  0  0  0  0  0
  140.2960   70.2240  221.6810 H   0  0  0  0  0  0  0  0  0  0  0  0
  141.1120   71.7800  220.5160 C   0  0  0  0  0  0  0  0  0  0  0  0
  141.6620   71.0280  219.5960 N   0  0  0  0  0  0  0  0  0  0  0  0
  141.1040   70.8070  218.7400 H   0  0  0  0  0  0  0  0  0  0  0  0
  143.0120   70.4580  219.6490 C   0  0  0  0  0  0  0  0  0  0  0  0
  142.9604   69.4722  220.1343 H   0  0  0  0  0  0  0  0  0  0  0  0
  143.3839   70.3801  218.6167 H   0  0  0  0  0  0  0  0  0  0  0  0
  143.9950   71.3470  220.4370 C   0  0  0  0  0  0  0  0  0  0  0  0
  143.4145   71.9841  221.1205 H   0  0  0  0  0  0  0  0  0  0  0  0
  144.6803   70.6714  220.9699 H   0  0  0  0  0  0  0  0  0  0  0  0
  144.8720   72.2640  219.5390 C   0  0  0  0  0  0  0  0  0  0  0  0
  145.0442   71.6887  218.6174 H   0  0  0  0  0  0  0  0  0  0  0  0
  146.2480   72.5940  220.1630 C   0  0  0  0  0  0  0  0  0  0  0  0
  146.6817   71.6728  220.5794 H   0  0  0  0  0  0  0  0  0  0  0  0
  146.8932   73.0096  219.3750 H   0  0  0  0  0  0  0  0  0  0  0  0
  146.1230   73.6390  221.2850 C   0  0  0  0  0  0  0  0  0  0  0  0
  145.5276   73.2142  222.1066 H   0  0  0  0  0  0  0  0  0  0  0  0
  147.1333   73.8994  221.6335 H   0  0  0  0  0  0  0  0  0  0  0  0
  145.4920   74.8160  220.8180 O   0  0  0  0  0  0  0  0  0  0  0  0
  144.1640   74.5300  220.4250 C   0  0  0  0  0  0  0  0  0  0  0  0
  143.6345   74.0521  221.2624 H   0  0  0  0  0  0  0  0  0  0  0  0
  143.6670   75.4710  220.1466 H   0  0  0  0  0  0  0  0  0  0  0  0
  144.1480   73.5860  219.2140 C   0  0  0  0  0  0  0  0  0  0  0  0
  143.1050   73.3680  218.9408 H   0  0  0  0  0  0  0  0  0  0  0  0
  144.6689   74.0764  218.3785 H   0  0  0  0  0  0  0  0  0  0  0  0
  141.2450   73.1290  220.4230 N   0  0  0  0  0  0  0  0  0  0  0  0
  141.3400   75.9530  219.9640 C   0  0  0  0  0  0  0  0  0  0  0  0
  140.9301   75.3780  219.1206 H   0  0  0  0  0  0  0  0  0  0  0  0
  142.4381   75.8939  219.9893 H   0  0  0  0  0  0  0  0  0  0  0  0
  140.9490   77.4240  219.7960 C   0  0  0  0  0  0  0  0  0  0  0  0
  139.8646   77.4949  219.6253 H   0  0  0  0  0  0  0  0  0  0  0  0
  141.4919   77.8445  218.9367 H   0  0  0  0  0  0  0  0  0  0  0  0
  1  2  1  0
  2  3  2  0
  3  4  1  0
  3  5  1  0
  5  6  1  0
  5  7  2  0
  7  8  1  0
  8  9  2  0
  9 10  1  0
  8 11  1  0
 11 12  1  0
 11 13  1  0
 11 14  1  0
 14 15  1  0
 15 16  1  0
 16 17  2  0
 17 18  1  0
 18 19  1  1
 18 20  1  0
 20 21  2  0
 21 22  1  0
 21 23  1  0
 23 24  1  0
 23 25  2  0
 25 26  1  0
 25 27  1  0
 27 28  1  0
 27 29  2  0
 29 30  1  0
 30 31  1  0
 30 32  1  0
 30 33  1  0
 33 34  1  0
 33 35  1  0
 17 36  1  0
 36 37  1  0
 36 38  1  0
 38 39  2  0
 39 40  1  0
 39 41  1  0
 41 42  1  0
 41 43  1  0
 41 44  1  0
 44 45  1  0
 44 46  1  0
 44 47  1  0
 47 48  1  0
 47 49  1  0
 49 50  1  0
 49 51  1  0
 49 52  1  0
 52 53  1  0
 52 54  1  0
 52 55  1  0
 55 56  1  0
 56 57  1  0
 56 58  1  0
 56 59  1  0
 59 60  1  0
 59 61  1  0
 38 62  1  0
 14 63  1  0
 63 64  1  0
 63 65  1  0
 63 66  1  0
 66 67  1  0
 66 68  1  0
  9  2  1  0
 62 15  2  0
 66  7  1  0
 33 18  1  0
 59 47  1  0
 29 20  1  0
M  CHG  1  39   1
M  END
>  <UniqueID>  (25) 
495

>  <SMILES>  (25) 
c1ccc2c(c1)CCN(c1nc([C@H]3CCc4ccccc43)[nH]/c(=[NH+]\CCC3CCOCC3)n1)C2

>  <Energy>  (25) 
83.47530777218503

>  <Genealogy>  (25) 
c1ccc2c(c1)CCN(c1nc([NH2+]CCC3CCOCC3)nc(C3CCc4ccccc43)n1)C2 (protonated)
c1ccc2c(c1)CCN(c1nc(C3CCc4ccccc43)[nH]c(=[NH+]CCC3CCOCC3)n1)C2 (tautomer)
c1ccc2c(c1)CCN(c1nc([C@H]3CCc4ccccc43)[nH]c(=[NH+]CCC3CCOCC3)n1)C2 (chirality)
c1ccc2c(c1)CCN(c1nc([C@H]3CCc4ccccc43)[nH]/c(=[NH+]\CCC3CCOCC3)n1)C2 (cis-trans isomerization)
c1ccc2c(c1)CCN(c1nc([C@H]3CCc4ccccc43)[nH]/c(=[NH+]\CCC3CCOCC3)n1)C2 (3D coordinates assigned)
c1ccc2c(c1)CCN(c1nc([C@H]3CCc4ccccc43)[nH]/c(=[NH+]\CCC3CCOCC3)n1)C2 (nonaromatic ring conformer: 83.47530777218503 kcal/mol)

>  <smiles>  (25) 
c1ccc2c(c1)CCN(c1nc(NCCC3CCOCC3)nc(C3CCc4ccccc43)n1)C2

>  <score_type>  (25) 
oracle

>  <origin>  (25) 
autodockgpu

>  <m_score__min__energy>  (25) 
-10.66

>  <m_primary>  (25) 
energy

>  <meeko>  (25) 
{"free_energy": -9.29, "intermolecular_energy": -11.08, "internal_energy": -1.38, "cluster_size": 3, "cluster_id": 4, "rank_in_cluster": 3}

>  <energy>  (25) 
-10.61

>  <cluster_rmsd>  (25) 
0.14

>  <rmsd>  (25) 
270.76

>  <cluster>  (25) 
1

$$$$
AOEMPDNDYKTPOZ-RFWLWHBWNA-O
     RDKit          3D

 68 73  0  0  0  0  0  0  0  0999 V2000
  139.9796   69.3124  225.1752 H   0  0  0  0  0  0  0  0  0  0  0  0
  139.5650   69.9930  224.4170 C   0  0  0  0  0  0  0  0  0  0  0  0
  138.2480   69.8310  223.9800 C   0  0  0  0  0  0  0  0  0  0  0  0
  137.6257   69.0250  224.3961 H   0  0  0  0  0  0  0  0  0  0  0  0
  137.7210   70.6930  223.0140 C   0  0  0  0  0  0  0  0  0  0  0  0
  136.6887   70.5550  222.6599 H   0  0  0  0  0  0  0  0  0  0  0  0
  138.5060   71.7340  222.4950 C   0  0  0  0  0  0  0  0  0  0  0  0
  139.8300   71.9020  222.9370 C   0  0  0  0  0  0  0  0  0  0  0  0
  140.3570   71.0190  223.8920 C   0  0  0  0  0  0  0  0  0  0  0  0
  141.3977   71.1344  224.2291 H   0  0  0  0  0  0  0  0  0  0  0  0
  140.6970   72.9830  222.3420 C   0  0  0  0  0  0  0  0  0  0  0  0
  141.2570   72.5585  221.4957 H   0  0  0  0  0  0  0  0  0  0  0  0
  141.3683   73.3437  223.1352 H   0  0  0  0  0  0  0  0  0  0  0  0
  139.9170   74.1400  221.8590 N   0  0  0  0  0  0  0  0  0  0  0  0
  140.6000   75.3870  221.6210 C   0  0  0  0  0  0  0  0  0  0  0  0
  140.3440   76.4690  222.4010 N   0  0  0  0  0  0  0  0  0  0  0  0
  140.9750   77.6480  222.1770 C   0  0  0  0  0  0  0  0  0  0  0  0
  140.6950   78.8180  223.0880 C   0  0  2  0  0  0  0  0  0  0  0  0
  139.7468   78.5699  223.5873 H   0  0  0  0  0  0  0  0  0  0  0  0
  140.6310   80.0920  222.3250 C   0  0  0  0  0  0  0  0  0  0  0  0
  139.6870   80.4470  221.3570 C   0  0  0  0  0  0  0  0  0  0  0  0
  138.8710   79.7589  221.0912 H   0  0  0  0  0  0  0  0  0  0  0  0
  139.8000   81.6990  220.7300 C   0  0  0  0  0  0  0  0  0  0  0  0
  139.0659   81.9999  219.9680 H   0  0  0  0  0  0  0  0  0  0  0  0
  140.8500   82.5680  221.0750 C   0  0  0  0  0  0  0  0  0  0  0  0
  140.9378   83.5456  220.5784 H   0  0  0  0  0  0  0  0  0  0  0  0
  141.7860   82.1930  222.0500 C   0  0  0  0  0  0  0  0  0  0  0  0
  142.6108   82.8674  222.3237 H   0  0  0  0  0  0  0  0  0  0  0  0
  141.6510   80.9470  222.6670 C   0  0  0  0  0  0  0  0  0  0  0  0
  142.5400   80.3710  223.7020 C   0  0  0  0  0  0  0  0  0  0  0  0
  142.6183   81.0438  224.5687 H   0  0  0  0  0  0  0  0  0  0  0  0
  143.5679   80.2198  223.3408 H   0  0  0  0  0  0  0  0  0  0  0  0
  141.8490   79.0510  224.0940 C   0  0  0  0  0  0  0  0  0  0  0  0
  141.4483   79.1250  225.1157 H   0  0  0  0  0  0  0  0  0  0  0  0
  142.5633   78.2149  224.0672 H   0  0  0  0  0  0  0  0  0  0  0  0
  141.8790   77.7490  221.1610 N   0  0  0  0  0  0  0  0  0  0  0  0
  142.3350   78.6710  220.9970 H   0  0  0  0  0  0  0  0  0  0  0  0
  142.1620   76.6610  220.3830 C   0  0  0  0  0  0  0  0  0  0  0  0
  143.0510   76.7050  219.4230 N   0  0  0  0  0  0  0  0  0  0  0  0
  143.8780   77.3330  219.5430 H   0  0  0  0  0  0  0  0  0  0  0  0
  143.0000   75.9400  218.1730 C   0  0  0  0  0  0  0  0  0  0  0  0
  141.9691   75.5907  218.0143 H   0  0  0  0  0  0  0  0  0  0  0  0
  143.3302   76.6032  217.3599 H   0  0  0  0  0  0  0  0  0  0  0  0
  143.9400   74.7170  218.1940 C   0  0  0  0  0  0  0  0  0  0  0  0
  143.7010   74.0814  217.3286 H   0  0  0  0  0  0  0  0  0  0  0  0
  144.9691   75.1042  218.1617 H   0  0  0  0  0  0  0  0  0  0  0  0
  143.8220   73.8550  219.4820 C   0  0  0  0  0  0  0  0  0  0  0  0
  142.8801   74.1685  219.9559 H   0  0  0  0  0  0  0  0  0  0  0  0
  144.9700   74.1010  220.4880 C   0  0  0  0  0  0  0  0  0  0  0  0
  145.1416   75.1839  220.5765 H   0  0  0  0  0  0  0  0  0  0  0  0
  144.6776   73.6700  221.4569 H   0  0  0  0  0  0  0  0  0  0  0  0
  146.2740   73.4240  220.0330 C   0  0  0  0  0  0  0  0  0  0  0  0
  146.6102   73.8872  219.0936 H   0  0  0  0  0  0  0  0  0  0  0  0
  147.0292   73.5560  220.8218 H   0  0  0  0  0  0  0  0  0  0  0  0
  146.0830   72.0380  219.8220 O   0  0  0  0  0  0  0  0  0  0  0  0
  145.1660   71.8310  218.7660 C   0  0  0  0  0  0  0  0  0  0  0  0
  145.5187   72.3657  217.8718 H   0  0  0  0  0  0  0  0  0  0  0  0
  145.0978   70.7518  218.5641 H   0  0  0  0  0  0  0  0  0  0  0  0
  143.7730   72.3500  219.1460 C   0  0  0  0  0  0  0  0  0  0  0  0
  143.0862   72.1912  218.3015 H   0  0  0  0  0  0  0  0  0  0  0  0
  143.4223   71.8019  220.0329 H   0  0  0  0  0  0  0  0  0  0  0  0
  141.5110   75.4930  220.6200 N   0  0  0  0  0  0  0  0  0  0  0  0
  138.4570   74.0750  221.6650 C   0  0  0  0  0  0  0  0  0  0  0  0
  138.1869   74.6891  220.7933 H   0  0  0  0  0  0  0  0  0  0  0  0
  137.9756   74.4498  222.5803 H   0  0  0  0  0  0  0  0  0  0  0  0
  137.9730   72.6420  221.4290 C   0  0  0  0  0  0  0  0  0  0  0  0
  138.3269   72.2960  220.4466 H   0  0  0  0  0  0  0  0  0  0  0  0
  136.8736   72.6248  221.4594 H   0  0  0  0  0  0  0  0  0  0  0  0
  1  2  1  0
  2  3  2  0
  3  4  1  0
  3  5  1  0
  5  6  1  0
  5  7  2  0
  7  8  1  0
  8  9  2  0
  9 10  1  0
  8 11  1  0
 11 12  1  0
 11 13  1  0
 11 14  1  0
 14 15  1  0
 15 16  1  0
 16 17  2  0
 17 18  1  0
 18 19  1  1
 18 20  1  0
 20 21  2  0
 21 22  1  0
 21 23  1  0
 23 24  1  0
 23 25  2  0
 25 26  1  0
 25 27  1  0
 27 28  1  0
 27 29  2  0
 29 30  1  0
 30 31  1  0
 30 32  1  0
 30 33  1  0
 33 34  1  0
 33 35  1  0
 17 36  1  0
 36 37  1  0
 36 38  1  0
 38 39  2  0
 39 40  1  0
 39 41  1  0
 41 42  1  0
 41 43  1  0
 41 44  1  0
 44 45  1  0
 44 46  1  0
 44 47  1  0
 47 48  1  0
 47 49  1  0
 49 50  1  0
 49 51  1  0
 49 52  1  0
 52 53  1  0
 52 54  1  0
 52 55  1  0
 55 56  1  0
 56 57  1  0
 56 58  1  0
 56 59  1  0
 59 60  1  0
 59 61  1  0
 38 62  1  0
 14 63  1  0
 63 64  1  0
 63 65  1  0
 63 66  1  0
 66 67  1  0
 66 68  1  0
  9  2  1  0
 62 15  2  0
 66  7  1  0
 33 18  1  0
 59 47  1  0
 29 20  1  0
M  CHG  1  39   1
M  END
>  <UniqueID>  (26) 
495

>  <SMILES>  (26) 
c1ccc2c(c1)CCN(c1nc([C@H]3CCc4ccccc43)[nH]/c(=[NH+]\CCC3CCOCC3)n1)C2

>  <Energy>  (26) 
83.47530777218503

>  <Genealogy>  (26) 
c1ccc2c(c1)CCN(c1nc([NH2+]CCC3CCOCC3)nc(C3CCc4ccccc43)n1)C2 (protonated)
c1ccc2c(c1)CCN(c1nc(C3CCc4ccccc43)[nH]c(=[NH+]CCC3CCOCC3)n1)C2 (tautomer)
c1ccc2c(c1)CCN(c1nc([C@H]3CCc4ccccc43)[nH]c(=[NH+]CCC3CCOCC3)n1)C2 (chirality)
c1ccc2c(c1)CCN(c1nc([C@H]3CCc4ccccc43)[nH]/c(=[NH+]\CCC3CCOCC3)n1)C2 (cis-trans isomerization)
c1ccc2c(c1)CCN(c1nc([C@H]3CCc4ccccc43)[nH]/c(=[NH+]\CCC3CCOCC3)n1)C2 (3D coordinates assigned)
c1ccc2c(c1)CCN(c1nc([C@H]3CCc4ccccc43)[nH]/c(=[NH+]\CCC3CCOCC3)n1)C2 (nonaromatic ring conformer: 83.47530777218503 kcal/mol)

>  <smiles>  (26) 
c1ccc2c(c1)CCN(c1nc(NCCC3CCOCC3)nc(C3CCc4ccccc43)n1)C2

>  <score_type>  (26) 
oracle

>  <origin>  (26) 
autodockgpu

>  <m_score__min__energy>  (26) 
-10.66

>  <m_primary>  (26) 
energy

>  <meeko>  (26) 
{"free_energy": -9.15, "intermolecular_energy": -10.94, "internal_energy": -1.07, "cluster_size": 1, "cluster_id": 5, "rank_in_cluster": 1}

>  <energy>  (26) 
-10.6

>  <cluster_rmsd>  (26) 
0.17

>  <rmsd>  (26) 
270.69

>  <cluster>  (26) 
1

$$$$
AOEMPDNDYKTPOZ-RFWLWHBWNA-O
     RDKit          3D

 68 73  0  0  0  0  0  0  0  0999 V2000
  141.2531   69.5330  227.9292 H   0  0  0  0  0  0  0  0  0  0  0  0
  140.6610   69.6370  227.0080 C   0  0  0  0  0  0  0  0  0  0  0  0
  139.5320   68.8380  226.8100 C   0  0  0  0  0  0  0  0  0  0  0  0
  139.2348   68.1069  227.5763 H   0  0  0  0  0  0  0  0  0  0  0  0
  138.7800   68.9670  225.6390 C   0  0  0  0  0  0  0  0  0  0  0  0
  137.9006   68.3262  225.4779 H   0  0  0  0  0  0  0  0  0  0  0  0
  139.1450   69.9130  224.6680 C   0  0  0  0  0  0  0  0  0  0  0  0
  140.2780   70.7200  224.8660 C   0  0  0  0  0  0  0  0  0  0  0  0
  141.0390   70.5690  226.0360 C   0  0  0  0  0  0  0  0  0  0  0  0
  141.9365   71.1864  226.1890 H   0  0  0  0  0  0  0  0  0  0  0  0
  140.7080   71.6980  223.8010 C   0  0  0  0  0  0  0  0  0  0  0  0
  141.4384   71.2034  223.1438 H   0  0  0  0  0  0  0  0  0  0  0  0
  141.1425   72.5715  224.3092 H   0  0  0  0  0  0  0  0  0  0  0  0
  139.5810   72.1780  222.9770 N   0  0  0  0  0  0  0  0  0  0  0  0
  139.7570   73.3730  222.1890 C   0  0  0  0  0  0  0  0  0  0  0  0
  140.7470   73.4440  221.2630 N   0  0  0  0  0  0  0  0  0  0  0  0
  140.9230   74.5680  220.5250 C   0  0  0  0  0  0  0  0  0  0  0  0
  142.0080   74.5990  219.4770 C   0  0  2  0  0  0  0  0  0  0  0  0
  141.5809   74.0737  218.6101 H   0  0  0  0  0  0  0  0  0  0  0  0
  143.2590   73.9690  219.9750 C   0  0  0  0  0  0  0  0  0  0  0  0
  143.4450   72.6280  220.3210 C   0  0  0  0  0  0  0  0  0  0  0  0
  142.6202   71.9061  220.2284 H   0  0  0  0  0  0  0  0  0  0  0  0
  144.7040   72.2190  220.7890 C   0  0  0  0  0  0  0  0  0  0  0  0
  144.8727   71.1671  221.0631 H   0  0  0  0  0  0  0  0  0  0  0  0
  145.7500   73.1520  220.9080 C   0  0  0  0  0  0  0  0  0  0  0  0
  146.7340   72.8288  221.2785 H   0  0  0  0  0  0  0  0  0  0  0  0
  145.5410   74.4950  220.5550 C   0  0  0  0  0  0  0  0  0  0  0  0
  146.3525   75.2317  220.6483 H   0  0  0  0  0  0  0  0  0  0  0  0
  144.2830   74.8780  220.0830 C   0  0  0  0  0  0  0  0  0  0  0  0
  143.8690   76.2400  219.6760 C   0  0  0  0  0  0  0  0  0  0  0  0
  144.5324   76.6324  218.8912 H   0  0  0  0  0  0  0  0  0  0  0  0
  143.9175   76.9628  220.5037 H   0  0  0  0  0  0  0  0  0  0  0  0
  142.4370   76.0480  219.1380 C   0  0  0  0  0  0  0  0  0  0  0  0
  142.4205   76.2003  218.0487 H   0  0  0  0  0  0  0  0  0  0  0  0
  141.7488   76.7747  219.5944 H   0  0  0  0  0  0  0  0  0  0  0  0
  140.0970   75.6370  220.7120 N   0  0  0  0  0  0  0  0  0  0  0  0
  140.2660   76.4960  220.1470 H   0  0  0  0  0  0  0  0  0  0  0  0
  139.0830   75.5690  221.6250 C   0  0  0  0  0  0  0  0  0  0  0  0
  138.2440   76.5580  221.8090 N   0  0  0  0  0  0  0  0  0  0  0  0
  137.2720   76.3300  222.1190 H   0  0  0  0  0  0  0  0  0  0  0  0
  138.5430   77.9820  221.6240 C   0  0  0  0  0  0  0  0  0  0  0  0
  139.0687   78.1111  220.6664 H   0  0  0  0  0  0  0  0  0  0  0  0
  137.5890   78.5294  221.6371 H   0  0  0  0  0  0  0  0  0  0  0  0
  139.4260   78.5490  222.7540 C   0  0  0  0  0  0  0  0  0  0  0  0
  139.3610   79.6468  222.7270 H   0  0  0  0  0  0  0  0  0  0  0  0
  139.0483   78.1275  223.6972 H   0  0  0  0  0  0  0  0  0  0  0  0
  140.9230   78.1440  222.6450 C   0  0  0  0  0  0  0  0  0  0  0  0
  140.9312   77.0455  222.7014 H   0  0  0  0  0  0  0  0  0  0  0  0
  141.7890   78.6910  223.8030 C   0  0  0  0  0  0  0  0  0  0  0  0
  141.2561   78.5340  224.7524 H   0  0  0  0  0  0  0  0  0  0  0  0
  142.7491   78.1542  223.7983 H   0  0  0  0  0  0  0  0  0  0  0  0
  142.0760   80.1920  223.6340 C   0  0  0  0  0  0  0  0  0  0  0  0
  141.1286   80.7477  223.6937 H   0  0  0  0  0  0  0  0  0  0  0  0
  142.7614   80.5084  224.4340 H   0  0  0  0  0  0  0  0  0  0  0  0
  142.6890   80.4570  222.3870 O   0  0  0  0  0  0  0  0  0  0  0  0
  141.8050   80.1240  221.3340 C   0  0  0  0  0  0  0  0  0  0  0  0
  140.8545   80.6587  221.4782 H   0  0  0  0  0  0  0  0  0  0  0  0
  142.2672   80.4160  220.3795 H   0  0  0  0  0  0  0  0  0  0  0  0
  141.5340   78.6140  221.3080 C   0  0  0  0  0  0  0  0  0  0  0  0
  140.8326   78.3875  220.4915 H   0  0  0  0  0  0  0  0  0  0  0  0
  142.4869   78.0873  221.1512 H   0  0  0  0  0  0  0  0  0  0  0  0
  138.9310   74.4360  222.3600 N   0  0  0  0  0  0  0  0  0  0  0  0
  138.2690   71.5070  222.9770 C   0  0  0  0  0  0  0  0  0  0  0  0
  137.8419   71.5626  221.9648 H   0  0  0  0  0  0  0  0  0  0  0  0
  137.6265   72.0180  223.7091 H   0  0  0  0  0  0  0  0  0  0  0  0
  138.3760   70.0360  223.3880 C   0  0  0  0  0  0  0  0  0  0  0  0
  138.8942   69.4741  222.5970 H   0  0  0  0  0  0  0  0  0  0  0  0
  137.3647   69.6292  223.5354 H   0  0  0  0  0  0  0  0  0  0  0  0
  1  2  1  0
  2  3  2  0
  3  4  1  0
  3  5  1  0
  5  6  1  0
  5  7  2  0
  7  8  1  0
  8  9  2  0
  9 10  1  0
  8 11  1  0
 11 12  1  0
 11 13  1  0
 11 14  1  0
 14 15  1  0
 15 16  1  0
 16 17  2  0
 17 18  1  0
 18 19  1  6
 18 20  1  0
 20 21  2  0
 21 22  1  0
 21 23  1  0
 23 24  1  0
 23 25  2  0
 25 26  1  0
 25 27  1  0
 27 28  1  0
 27 29  2  0
 29 30  1  0
 30 31  1  0
 30 32  1  0
 30 33  1  0
 33 34  1  0
 33 35  1  0
 17 36  1  0
 36 37  1  0
 36 38  1  0
 38 39  2  0
 39 40  1  0
 39 41  1  0
 41 42  1  0
 41 43  1  0
 41 44  1  0
 44 45  1  0
 44 46  1  0
 44 47  1  0
 47 48  1  0
 47 49  1  0
 49 50  1  0
 49 51  1  0
 49 52  1  0
 52 53  1  0
 52 54  1  0
 52 55  1  0
 55 56  1  0
 56 57  1  0
 56 58  1  0
 56 59  1  0
 59 60  1  0
 59 61  1  0
 38 62  1  0
 14 63  1  0
 63 64  1  0
 63 65  1  0
 63 66  1  0
 66 67  1  0
 66 68  1  0
  9  2  1  0
 62 15  2  0
 66  7  1  0
 33 18  1  0
 59 47  1  0
 29 20  1  0
M  CHG  1  39   1
M  END
>  <UniqueID>  (27) 
495

>  <SMILES>  (27) 
c1ccc2c(c1)CCN(c1nc([C@H]3CCc4ccccc43)[nH]/c(=[NH+]\CCC3CCOCC3)n1)C2

>  <Energy>  (27) 
83.47530777218503

>  <Genealogy>  (27) 
c1ccc2c(c1)CCN(c1nc([NH2+]CCC3CCOCC3)nc(C3CCc4ccccc43)n1)C2 (protonated)
c1ccc2c(c1)CCN(c1nc(C3CCc4ccccc43)[nH]c(=[NH+]CCC3CCOCC3)n1)C2 (tautomer)
c1ccc2c(c1)CCN(c1nc([C@H]3CCc4ccccc43)[nH]c(=[NH+]CCC3CCOCC3)n1)C2 (chirality)
c1ccc2c(c1)CCN(c1nc([C@H]3CCc4ccccc43)[nH]/c(=[NH+]\CCC3CCOCC3)n1)C2 (cis-trans isomerization)
c1ccc2c(c1)CCN(c1nc([C@H]3CCc4ccccc43)[nH]/c(=[NH+]\CCC3CCOCC3)n1)C2 (3D coordinates assigned)
c1ccc2c(c1)CCN(c1nc([C@H]3CCc4ccccc43)[nH]/c(=[NH+]\CCC3CCOCC3)n1)C2 (nonaromatic ring conformer: 83.47530777218503 kcal/mol)

>  <smiles>  (27) 
c1ccc2c(c1)CCN(c1nc(NCCC3CCOCC3)nc(C3CCc4ccccc43)n1)C2

>  <score_type>  (27) 
oracle

>  <origin>  (27) 
autodockgpu

>  <m_score__min__energy>  (27) 
-10.66

>  <m_primary>  (27) 
energy

>  <meeko>  (27) 
{"free_energy": -9.33, "intermolecular_energy": -11.12, "internal_energy": -1.34, "cluster_size": 6, "cluster_id": 2, "rank_in_cluster": 3}

>  <energy>  (27) 
-9.95

>  <cluster_rmsd>  (27) 
1.58

>  <rmsd>  (27) 
270.49

>  <cluster>  (27) 
1

$$$$
AOEMPDNDYKTPOZ-RFWLWHBWNA-O
     RDKit          3D

 68 73  0  0  0  0  0  0  0  0999 V2000
  142.8752   81.6414  224.6583 H   0  0  0  0  0  0  0  0  0  0  0  0
  142.3100   81.1610  223.8460 C   0  0  0  0  0  0  0  0  0  0  0  0
  141.7960   81.9340  222.8020 C   0  0  0  0  0  0  0  0  0  0  0  0
  141.9570   83.0221  222.7927 H   0  0  0  0  0  0  0  0  0  0  0  0
  141.0770   81.3250  221.7690 C   0  0  0  0  0  0  0  0  0  0  0  0
  140.6616   81.9367  220.9546 H   0  0  0  0  0  0  0  0  0  0  0  0
  140.8840   79.9340  221.7690 C   0  0  0  0  0  0  0  0  0  0  0  0
  141.4030   79.1550  222.8170 C   0  0  0  0  0  0  0  0  0  0  0  0
  142.1070   79.7770  223.8600 C   0  0  0  0  0  0  0  0  0  0  0  0
  142.5005   79.1739  224.6915 H   0  0  0  0  0  0  0  0  0  0  0  0
  141.1510   77.6680  222.8520 C   0  0  0  0  0  0  0  0  0  0  0  0
  140.2439   77.4792  223.4450 H   0  0  0  0  0  0  0  0  0  0  0  0
  142.0369   77.1926  223.2983 H   0  0  0  0  0  0  0  0  0  0  0  0
  140.9650   77.0870  221.5080 N   0  0  0  0  0  0  0  0  0  0  0  0
  141.0950   75.6610  221.3430 C   0  0  0  0  0  0  0  0  0  0  0  0
  141.9760   75.1510  220.4440 N   0  0  0  0  0  0  0  0  0  0  0  0
  142.0960   73.8110  220.2770 C   0  0  0  0  0  0  0  0  0  0  0  0
  143.1120   73.2780  219.2980 C   0  0  2  0  0  0  0  0  0  0  0  0
  142.8556   73.7497  218.3379 H   0  0  0  0  0  0  0  0  0  0  0  0
  143.0790   71.7930  219.2390 C   0  0  0  0  0  0  0  0  0  0  0  0
  142.0260   70.9920  218.7880 C   0  0  0  0  0  0  0  0  0  0  0  0
  141.0970   71.4466  218.4134 H   0  0  0  0  0  0  0  0  0  0  0  0
  142.1760   69.5960  218.8220 C   0  0  0  0  0  0  0  0  0  0  0  0
  141.3612   68.9474  218.4679 H   0  0  0  0  0  0  0  0  0  0  0  0
  143.3660   69.0260  219.3080 C   0  0  0  0  0  0  0  0  0  0  0  0
  143.4777   67.9321  219.3381 H   0  0  0  0  0  0  0  0  0  0  0  0
  144.4120   69.8490  219.7550 C   0  0  0  0  0  0  0  0  0  0  0  0
  145.3456   69.4106  220.1374 H   0  0  0  0  0  0  0  0  0  0  0  0
  144.2450   71.2350  219.7050 C   0  0  0  0  0  0  0  0  0  0  0  0
  145.2210   72.2600  220.1400 C   0  0  0  0  0  0  0  0  0  0  0  0
  146.1821   72.1299  219.6210 H   0  0  0  0  0  0  0  0  0  0  0  0
  145.4457   72.2013  221.2152 H   0  0  0  0  0  0  0  0  0  0  0  0
  144.5610   73.5950  219.7440 C   0  0  0  0  0  0  0  0  0  0  0  0
  145.1169   74.0586  218.9157 H   0  0  0  0  0  0  0  0  0  0  0  0
  144.5630   74.2968  220.5911 H   0  0  0  0  0  0  0  0  0  0  0  0
  141.3270   72.9650  221.0210 N   0  0  0  0  0  0  0  0  0  0  0  0
  141.4230   71.9400  220.8600 H   0  0  0  0  0  0  0  0  0  0  0  0
  140.4530   73.4650  221.9450 C   0  0  0  0  0  0  0  0  0  0  0  0
  139.7240   72.6880  222.7060 N   0  0  0  0  0  0  0  0  0  0  0  0
  138.8010   73.0480  223.0410 H   0  0  0  0  0  0  0  0  0  0  0  0
  140.0810   71.3320  223.1380 C   0  0  0  0  0  0  0  0  0  0  0  0
  139.4646   70.6104  222.5819 H   0  0  0  0  0  0  0  0  0  0  0  0
  141.1525   71.1870  222.9360 H   0  0  0  0  0  0  0  0  0  0  0  0
  139.8540   71.1170  224.6480 C   0  0  0  0  0  0  0  0  0  0  0  0
  139.4179   72.0358  225.0671 H   0  0  0  0  0  0  0  0  0  0  0  0
  139.1868   70.2485  224.7505 H   0  0  0  0  0  0  0  0  0  0  0  0
  141.1510   70.7860  225.4380 C   0  0  0  0  0  0  0  0  0  0  0  0
  141.9553   70.7822  224.6876 H   0  0  0  0  0  0  0  0  0  0  0  0
  141.1170   69.3950  226.1120 C   0  0  0  0  0  0  0  0  0  0  0  0
  140.7195   68.6608  225.3958 H   0  0  0  0  0  0  0  0  0  0  0  0
  142.1419   69.1336  226.4141 H   0  0  0  0  0  0  0  0  0  0  0  0
  140.2310   69.3970  227.3680 C   0  0  0  0  0  0  0  0  0  0  0  0
  139.1908   69.5997  227.0731 H   0  0  0  0  0  0  0  0  0  0  0  0
  140.3116   68.4130  227.8530 H   0  0  0  0  0  0  0  0  0  0  0  0
  140.6510   70.3860  228.2880 O   0  0  0  0  0  0  0  0  0  0  0  0
  140.4970   71.6720  227.7200 C   0  0  0  0  0  0  0  0  0  0  0  0
  139.4560   71.7974  227.3874 H   0  0  0  0  0  0  0  0  0  0  0  0
  140.7488   72.4263  228.4800 H   0  0  0  0  0  0  0  0  0  0  0  0
  141.4340   71.8510  226.5190 C   0  0  0  0  0  0  0  0  0  0  0  0
  141.2807   72.8514  226.0882 H   0  0  0  0  0  0  0  0  0  0  0  0
  142.4727   71.7366  226.8626 H   0  0  0  0  0  0  0  0  0  0  0  0
  140.3430   74.8120  222.0890 N   0  0  0  0  0  0  0  0  0  0  0  0
  140.7070   77.9240  220.3220 C   0  0  0  0  0  0  0  0  0  0  0  0
  140.0212   77.3865  219.6506 H   0  0  0  0  0  0  0  0  0  0  0  0
  141.6710   78.1229  219.8310 H   0  0  0  0  0  0  0  0  0  0  0  0
  140.0800   79.2700  220.6940 C   0  0  0  0  0  0  0  0  0  0  0  0
  139.0544   79.1057  221.0560 H   0  0  0  0  0  0  0  0  0  0  0  0
  140.0645   79.9174  219.8048 H   0  0  0  0  0  0  0  0  0  0  0  0
  1  2  1  0
  2  3  2  0
  3  4  1  0
  3  5  1  0
  5  6  1  0
  5  7  2  0
  7  8  1  0
  8  9  2  0
  9 10  1  0
  8 11  1  0
 11 12  1  0
 11 13  1  0
 11 14  1  0
 14 15  1  0
 15 16  1  0
 16 17  2  0
 17 18  1  0
 18 19  1  6
 18 20  1  0
 20 21  2  0
 21 22  1  0
 21 23  1  0
 23 24  1  0
 23 25  2  0
 25 26  1  0
 25 27  1  0
 27 28  1  0
 27 29  2  0
 29 30  1  0
 30 31  1  0
 30 32  1  0
 30 33  1  0
 33 34  1  0
 33 35  1  0
 17 36  1  0
 36 37  1  0
 36 38  1  0
 38 39  2  0
 39 40  1  0
 39 41  1  0
 41 42  1  0
 41 43  1  0
 41 44  1  0
 44 45  1  0
 44 46  1  0
 44 47  1  0
 47 48  1  0
 47 49  1  0
 49 50  1  0
 49 51  1  0
 49 52  1  0
 52 53  1  0
 52 54  1  0
 52 55  1  0
 55 56  1  0
 56 57  1  0
 56 58  1  0
 56 59  1  0
 59 60  1  0
 59 61  1  0
 38 62  1  0
 14 63  1  0
 63 64  1  0
 63 65  1  0
 63 66  1  0
 66 67  1  0
 66 68  1  0
  9  2  1  0
 62 15  2  0
 66  7  1  0
 33 18  1  0
 59 47  1  0
 29 20  1  0
M  CHG  1  39   1
M  END
>  <UniqueID>  (28) 
495

>  <SMILES>  (28) 
c1ccc2c(c1)CCN(c1nc([C@H]3CCc4ccccc43)[nH]/c(=[NH+]\CCC3CCOCC3)n1)C2

>  <Energy>  (28) 
83.47530777218503

>  <Genealogy>  (28) 
c1ccc2c(c1)CCN(c1nc([NH2+]CCC3CCOCC3)nc(C3CCc4ccccc43)n1)C2 (protonated)
c1ccc2c(c1)CCN(c1nc(C3CCc4ccccc43)[nH]c(=[NH+]CCC3CCOCC3)n1)C2 (tautomer)
c1ccc2c(c1)CCN(c1nc([C@H]3CCc4ccccc43)[nH]c(=[NH+]CCC3CCOCC3)n1)C2 (chirality)
c1ccc2c(c1)CCN(c1nc([C@H]3CCc4ccccc43)[nH]/c(=[NH+]\CCC3CCOCC3)n1)C2 (cis-trans isomerization)
c1ccc2c(c1)CCN(c1nc([C@H]3CCc4ccccc43)[nH]/c(=[NH+]\CCC3CCOCC3)n1)C2 (3D coordinates assigned)
c1ccc2c(c1)CCN(c1nc([C@H]3CCc4ccccc43)[nH]/c(=[NH+]\CCC3CCOCC3)n1)C2 (nonaromatic ring conformer: 83.47530777218503 kcal/mol)

>  <smiles>  (28) 
c1ccc2c(c1)CCN(c1nc(NCCC3CCOCC3)nc(C3CCc4ccccc43)n1)C2

>  <score_type>  (28) 
oracle

>  <origin>  (28) 
autodockgpu

>  <m_score__min__energy>  (28) 
-10.66

>  <m_primary>  (28) 
energy

>  <meeko>  (28) 
{"free_energy": -9.95, "intermolecular_energy": -11.74, "internal_energy": -0.75, "cluster_size": 7, "cluster_id": 1, "rank_in_cluster": 7}

>  <energy>  (28) 
-9.53

>  <cluster_rmsd>  (28) 
0.0

>  <rmsd>  (28) 
270.38

>  <cluster>  (28) 
2

$$$$
AOEMPDNDYKTPOZ-RFWLWHBWNA-O
     RDKit          3D

 68 73  0  0  0  0  0  0  0  0999 V2000
  141.1605   69.8124  228.1397 H   0  0  0  0  0  0  0  0  0  0  0  0
  140.5990   69.8600  227.1950 C   0  0  0  0  0  0  0  0  0  0  0  0
  139.5100   69.0090  226.9870 C   0  0  0  0  0  0  0  0  0  0  0  0
  139.2131   68.2945  227.7688 H   0  0  0  0  0  0  0  0  0  0  0  0
  138.7980   69.0660  225.7850 C   0  0  0  0  0  0  0  0  0  0  0  0
  137.9515   68.3843  225.6158 H   0  0  0  0  0  0  0  0  0  0  0  0
  139.1610   69.9910  224.7940 C   0  0  0  0  0  0  0  0  0  0  0  0
  140.2530   70.8510  225.0030 C   0  0  0  0  0  0  0  0  0  0  0  0
  140.9760   70.7720  226.2040 C   0  0  0  0  0  0  0  0  0  0  0  0
  141.8424   71.4301  226.3661 H   0  0  0  0  0  0  0  0  0  0  0  0
  140.6840   71.8060  223.9190 C   0  0  0  0  0  0  0  0  0  0  0  0
  141.4568   71.3176  223.3072 H   0  0  0  0  0  0  0  0  0  0  0  0
  141.0653   72.7137  224.4096 H   0  0  0  0  0  0  0  0  0  0  0  0
  139.5710   72.2110  223.0380 N   0  0  0  0  0  0  0  0  0  0  0  0
  139.7280   73.3840  222.2140 C   0  0  0  0  0  0  0  0  0  0  0  0
  140.7230   73.4460  221.2920 N   0  0  0  0  0  0  0  0  0  0  0  0
  140.8830   74.5490  220.5200 C   0  0  0  0  0  0  0  0  0  0  0  0
  141.9750   74.5690  219.4790 C   0  0  2  0  0  0  0  0  0  0  0  0
  141.5585   74.0236  218.6193 H   0  0  0  0  0  0  0  0  0  0  0  0
  143.2270   73.9590  219.9980 C   0  0  0  0  0  0  0  0  0  0  0  0
  143.4220   72.6260  220.3710 C   0  0  0  0  0  0  0  0  0  0  0  0
  142.6045   71.8949  220.2861 H   0  0  0  0  0  0  0  0  0  0  0  0
  144.6810   72.2380  220.8560 C   0  0  0  0  0  0  0  0  0  0  0  0
  144.8568   71.1933  221.1522 H   0  0  0  0  0  0  0  0  0  0  0  0
  145.7180   73.1820  220.9640 C   0  0  0  0  0  0  0  0  0  0  0  0
  146.7016   72.8748  221.3488 H   0  0  0  0  0  0  0  0  0  0  0  0
  145.5010   74.5150  220.5820 C   0  0  0  0  0  0  0  0  0  0  0  0
  146.3066   75.2595  220.6645 H   0  0  0  0  0  0  0  0  0  0  0  0
  144.2430   74.8790  220.0950 C   0  0  0  0  0  0  0  0  0  0  0  0
  143.8200   76.2290  219.6580 C   0  0  0  0  0  0  0  0  0  0  0  0
  144.4856   76.6116  218.8702 H   0  0  0  0  0  0  0  0  0  0  0  0
  143.8562   76.9684  220.4716 H   0  0  0  0  0  0  0  0  0  0  0  0
  142.3940   76.0140  219.1140 C   0  0  0  0  0  0  0  0  0  0  0  0
  142.3842   76.1443  218.0218 H   0  0  0  0  0  0  0  0  0  0  0  0
  141.6964   76.7438  219.5507 H   0  0  0  0  0  0  0  0  0  0  0  0
  140.0340   75.6070  220.6680 N   0  0  0  0  0  0  0  0  0  0  0  0
  140.1900   76.4500  220.0770 H   0  0  0  0  0  0  0  0  0  0  0  0
  139.0140   75.5470  221.5760 C   0  0  0  0  0  0  0  0  0  0  0  0
  138.1550   76.5240  221.7220 N   0  0  0  0  0  0  0  0  0  0  0  0
  137.3810   76.6100  221.0240 H   0  0  0  0  0  0  0  0  0  0  0  0
  138.1680   77.5250  222.7950 C   0  0  0  0  0  0  0  0  0  0  0  0
  137.1727   77.9893  222.8573 H   0  0  0  0  0  0  0  0  0  0  0  0
  138.4315   77.0106  223.7309 H   0  0  0  0  0  0  0  0  0  0  0  0
  139.2160   78.6300  222.5540 C   0  0  0  0  0  0  0  0  0  0  0  0
  139.0756   79.0245  221.5368 H   0  0  0  0  0  0  0  0  0  0  0  0
  139.0580   79.3943  223.3292 H   0  0  0  0  0  0  0  0  0  0  0  0
  140.6860   78.1450  222.6920 C   0  0  0  0  0  0  0  0  0  0  0  0
  140.6167   77.0695  222.9123 H   0  0  0  0  0  0  0  0  0  0  0  0
  141.4470   78.8240  223.8540 C   0  0  0  0  0  0  0  0  0  0  0  0
  140.7993   78.8424  224.7429 H   0  0  0  0  0  0  0  0  0  0  0  0
  142.3638   78.2482  224.0490 H   0  0  0  0  0  0  0  0  0  0  0  0
  141.8490   80.2650  223.4990 C   0  0  0  0  0  0  0  0  0  0  0  0
  140.9393   80.8671  223.3578 H   0  0  0  0  0  0  0  0  0  0  0  0
  142.4577   80.6699  224.3209 H   0  0  0  0  0  0  0  0  0  0  0  0
  142.6170   80.3030  222.3110 O   0  0  0  0  0  0  0  0  0  0  0  0
  141.8400   79.8520  221.2190 C   0  0  0  0  0  0  0  0  0  0  0  0
  140.9166   80.4471  221.1631 H   0  0  0  0  0  0  0  0  0  0  0  0
  142.4269   79.9690  220.2960 H   0  0  0  0  0  0  0  0  0  0  0  0
  141.4750   78.3710  221.3860 C   0  0  0  0  0  0  0  0  0  0  0  0
  140.8582   78.0532  220.5325 H   0  0  0  0  0  0  0  0  0  0  0  0
  142.4030   77.7819  221.4284 H   0  0  0  0  0  0  0  0  0  0  0  0
  138.8800   74.4350  222.3450 N   0  0  0  0  0  0  0  0  0  0  0  0
  138.2860   71.4880  223.0160 C   0  0  0  0  0  0  0  0  0  0  0  0
  137.8944   71.4908  221.9881 H   0  0  0  0  0  0  0  0  0  0  0  0
  137.5971   71.9981  223.7054 H   0  0  0  0  0  0  0  0  0  0  0  0
  138.4360   70.0380  223.4840 C   0  0  0  0  0  0  0  0  0  0  0  0
  139.0051   69.4706  222.7329 H   0  0  0  0  0  0  0  0  0  0  0  0
  137.4368   69.5957  223.6100 H   0  0  0  0  0  0  0  0  0  0  0  0
  1  2  1  0
  2  3  2  0
  3  4  1  0
  3  5  1  0
  5  6  1  0
  5  7  2  0
  7  8  1  0
  8  9  2  0
  9 10  1  0
  8 11  1  0
 11 12  1  0
 11 13  1  0
 11 14  1  0
 14 15  1  0
 15 16  1  0
 16 17  2  0
 17 18  1  0
 18 19  1  6
 18 20  1  0
 20 21  2  0
 21 22  1  0
 21 23  1  0
 23 24  1  0
 23 25  2  0
 25 26  1  0
 25 27  1  0
 27 28  1  0
 27 29  2  0
 29 30  1  0
 30 31  1  0
 30 32  1  0
 30 33  1  0
 33 34  1  0
 33 35  1  0
 17 36  1  0
 36 37  1  0
 36 38  1  0
 38 39  2  0
 39 40  1  0
 39 41  1  0
 41 42  1  0
 41 43  1  0
 41 44  1  0
 44 45  1  0
 44 46  1  0
 44 47  1  0
 47 48  1  0
 47 49  1  0
 49 50  1  0
 49 51  1  0
 49 52  1  0
 52 53  1  0
 52 54  1  0
 52 55  1  0
 55 56  1  0
 56 57  1  0
 56 58  1  0
 56 59  1  0
 59 60  1  0
 59 61  1  0
 38 62  1  0
 14 63  1  0
 63 64  1  0
 63 65  1  0
 63 66  1  0
 66 67  1  0
 66 68  1  0
  9  2  1  0
 62 15  2  0
 66  7  1  0
 33 18  1  0
 59 47  1  0
 29 20  1  0
M  CHG  1  39   1
M  END
>  <UniqueID>  (29) 
495

>  <SMILES>  (29) 
c1ccc2c(c1)CCN(c1nc([C@H]3CCc4ccccc43)[nH]/c(=[NH+]\CCC3CCOCC3)n1)C2

>  <Energy>  (29) 
83.47530777218503

>  <Genealogy>  (29) 
c1ccc2c(c1)CCN(c1nc([NH2+]CCC3CCOCC3)nc(C3CCc4ccccc43)n1)C2 (protonated)
c1ccc2c(c1)CCN(c1nc(C3CCc4ccccc43)[nH]c(=[NH+]CCC3CCOCC3)n1)C2 (tautomer)
c1ccc2c(c1)CCN(c1nc([C@H]3CCc4ccccc43)[nH]c(=[NH+]CCC3CCOCC3)n1)C2 (chirality)
c1ccc2c(c1)CCN(c1nc([C@H]3CCc4ccccc43)[nH]/c(=[NH+]\CCC3CCOCC3)n1)C2 (cis-trans isomerization)
c1ccc2c(c1)CCN(c1nc([C@H]3CCc4ccccc43)[nH]/c(=[NH+]\CCC3CCOCC3)n1)C2 (3D coordinates assigned)
c1ccc2c(c1)CCN(c1nc([C@H]3CCc4ccccc43)[nH]/c(=[NH+]\CCC3CCOCC3)n1)C2 (nonaromatic ring conformer: 83.47530777218503 kcal/mol)

>  <smiles>  (29) 
c1ccc2c(c1)CCN(c1nc(NCCC3CCOCC3)nc(C3CCc4ccccc43)n1)C2

>  <score_type>  (29) 
oracle

>  <origin>  (29) 
autodockgpu

>  <m_score__min__energy>  (29) 
-10.66

>  <m_primary>  (29) 
energy

>  <meeko>  (29) 
{"free_energy": -9.34, "intermolecular_energy": -11.13, "internal_energy": -1.34, "cluster_size": 6, "cluster_id": 2, "rank_in_cluster": 2}

>  <energy>  (29) 
-9.34

>  <cluster_rmsd>  (29) 
0.57

>  <rmsd>  (29) 
270.3

>  <cluster>  (29) 
2

$$$$
AOEMPDNDYKTPOZ-RFWLWHBWNA-O
     RDKit          3D

 68 73  0  0  0  0  0  0  0  0999 V2000
  142.0232   80.8934  224.7587 H   0  0  0  0  0  0  0  0  0  0  0  0
  141.8960   80.3360  223.8190 C   0  0  0  0  0  0  0  0  0  0  0  0
  142.1940   80.9480  222.5990 C   0  0  0  0  0  0  0  0  0  0  0  0
  142.5555   81.9867  222.5788 H   0  0  0  0  0  0  0  0  0  0  0  0
  142.0330   80.2410  221.4040 C   0  0  0  0  0  0  0  0  0  0  0  0
  142.2554   80.7284  220.4433 H   0  0  0  0  0  0  0  0  0  0  0  0
  141.5880   78.9100  221.4280 C   0  0  0  0  0  0  0  0  0  0  0  0
  141.2910   78.2910  222.6540 C   0  0  0  0  0  0  0  0  0  0  0  0
  141.4360   79.0150  223.8470 C   0  0  0  0  0  0  0  0  0  0  0  0
  141.1870   78.5420  224.8084 H   0  0  0  0  0  0  0  0  0  0  0  0
  140.7580   76.8800  222.6820 C   0  0  0  0  0  0  0  0  0  0  0  0
  139.6587   76.9192  222.6767 H   0  0  0  0  0  0  0  0  0  0  0  0
  141.1442   76.3976  223.5920 H   0  0  0  0  0  0  0  0  0  0  0  0
  141.2070   76.0770  221.5280 N   0  0  0  0  0  0  0  0  0  0  0  0
  141.1070   74.6400  221.6000 C   0  0  0  0  0  0  0  0  0  0  0  0
  142.0410   73.8560  221.0020 N   0  0  0  0  0  0  0  0  0  0  0  0
  141.9480   72.5050  221.0580 C   0  0  0  0  0  0  0  0  0  0  0  0
  143.0240   71.6640  220.4160 C   0  0  2  0  0  0  0  0  0  0  0  0
  143.0531   70.7374  221.0081 H   0  0  0  0  0  0  0  0  0  0  0  0
  144.3270   72.3780  220.3970 C   0  0  0  0  0  0  0  0  0  0  0  0
  145.0950   72.7580  221.5010 C   0  0  0  0  0  0  0  0  0  0  0  0
  144.7609   72.5248  222.5228 H   0  0  0  0  0  0  0  0  0  0  0  0
  146.3010   73.4430  221.2820 C   0  0  0  0  0  0  0  0  0  0  0  0
  146.9223   73.7478  222.1370 H   0  0  0  0  0  0  0  0  0  0  0  0
  146.7160   73.7400  219.9720 C   0  0  0  0  0  0  0  0  0  0  0  0
  147.6589   74.2813  219.8049 H   0  0  0  0  0  0  0  0  0  0  0  0
  145.9310   73.3480  218.8770 C   0  0  0  0  0  0  0  0  0  0  0  0
  146.2487   73.5771  217.8491 H   0  0  0  0  0  0  0  0  0  0  0  0
  144.7380   72.6610  219.1170 C   0  0  0  0  0  0  0  0  0  0  0  0
  143.7740   72.1800  218.1000 C   0  0  0  0  0  0  0  0  0  0  0  0
  144.2701   71.5226  217.3708 H   0  0  0  0  0  0  0  0  0  0  0  0
  143.3294   72.9997  217.5166 H   0  0  0  0  0  0  0  0  0  0  0  0
  142.7280   71.3990  218.9190 C   0  0  0  0  0  0  0  0  0  0  0  0
  142.8083   70.3232  218.7041 H   0  0  0  0  0  0  0  0  0  0  0  0
  141.7093   71.7232  218.6600 H   0  0  0  0  0  0  0  0  0  0  0  0
  140.9070   71.9260  221.7230 N   0  0  0  0  0  0  0  0  0  0  0  0
  140.8470   70.8850  221.7340 H   0  0  0  0  0  0  0  0  0  0  0  0
  139.9740   72.7030  222.3480 C   0  0  0  0  0  0  0  0  0  0  0  0
  138.9810   72.1880  223.0300 N   0  0  0  0  0  0  0  0  0  0  0  0
  138.0900   72.7310  223.0920 H   0  0  0  0  0  0  0  0  0  0  0  0
  138.9970   70.8950  223.7230 C   0  0  0  0  0  0  0  0  0  0  0  0
  137.9999   70.4377  223.6408 H   0  0  0  0  0  0  0  0  0  0  0  0
  139.7675   70.2695  223.2485 H   0  0  0  0  0  0  0  0  0  0  0  0
  139.3570   71.0330  225.2160 C   0  0  0  0  0  0  0  0  0  0  0  0
  139.1015   72.0523  225.5410 H   0  0  0  0  0  0  0  0  0  0  0  0
  138.7861   70.2622  225.7545 H   0  0  0  0  0  0  0  0  0  0  0  0
  140.8590   70.7820  225.5280 C   0  0  0  0  0  0  0  0  0  0  0  0
  141.3682   70.8192  224.5537 H   0  0  0  0  0  0  0  0  0  0  0  0
  141.1280   69.3950  226.1570 C   0  0  0  0  0  0  0  0  0  0  0  0
  140.5572   68.6348  225.6036 H   0  0  0  0  0  0  0  0  0  0  0  0
  142.2078   69.1932  226.0988 H   0  0  0  0  0  0  0  0  0  0  0  0
  140.7090   69.3560  227.6360 C   0  0  0  0  0  0  0  0  0  0  0  0
  139.6205   69.4989  227.7048 H   0  0  0  0  0  0  0  0  0  0  0  0
  140.9985   68.3811  228.0553 H   0  0  0  0  0  0  0  0  0  0  0  0
  141.3560   70.3730  228.3760 O   0  0  0  0  0  0  0  0  0  0  0  0
  140.9500   71.6450  227.9080 C   0  0  0  0  0  0  0  0  0  0  0  0
  139.8523   71.7087  227.9410 H   0  0  0  0  0  0  0  0  0  0  0  0
  141.3960   72.4179  228.5511 H   0  0  0  0  0  0  0  0  0  0  0  0
  141.4250   71.8680  226.4650 C   0  0  0  0  0  0  0  0  0  0  0  0
  141.0826   72.8552  226.1211 H   0  0  0  0  0  0  0  0  0  0  0  0
  142.5235   71.8147  226.4433 H   0  0  0  0  0  0  0  0  0  0  0  0
  140.0820   74.0550  222.2710 N   0  0  0  0  0  0  0  0  0  0  0  0
  141.8040   76.6930  220.3290 C   0  0  0  0  0  0  0  0  0  0  0  0
  141.4918   76.1207  219.4430 H   0  0  0  0  0  0  0  0  0  0  0  0
  142.8974   76.6776  220.4479 H   0  0  0  0  0  0  0  0  0  0  0  0
  141.3680   78.1500  220.1550 C   0  0  0  0  0  0  0  0  0  0  0  0
  140.3002   78.1812  219.8928 H   0  0  0  0  0  0  0  0  0  0  0  0
  141.9643   78.6106  219.3536 H   0  0  0  0  0  0  0  0  0  0  0  0
  1  2  1  0
  2  3  2  0
  3  4  1  0
  3  5  1  0
  5  6  1  0
  5  7  2  0
  7  8  1  0
  8  9  2  0
  9 10  1  0
  8 11  1  0
 11 12  1  0
 11 13  1  0
 11 14  1  0
 14 15  1  0
 15 16  1  0
 16 17  2  0
 17 18  1  0
 18 19  1  1
 18 20  1  0
 20 21  2  0
 21 22  1  0
 21 23  1  0
 23 24  1  0
 23 25  2  0
 25 26  1  0
 25 27  1  0
 27 28  1  0
 27 29  2  0
 29 30  1  0
 30 31  1  0
 30 32  1  0
 30 33  1  0
 33 34  1  0
 33 35  1  0
 17 36  1  0
 36 37  1  0
 36 38  1  0
 38 39  2  0
 39 40  1  0
 39 41  1  0
 41 42  1  0
 41 43  1  0
 41 44  1  0
 44 45  1  0
 44 46  1  0
 44 47  1  0
 47 48  1  0
 47 49  1  0
 49 50  1  0
 49 51  1  0
 49 52  1  0
 52 53  1  0
 52 54  1  0
 52 55  1  0
 55 56  1  0
 56 57  1  0
 56 58  1  0
 56 59  1  0
 59 60  1  0
 59 61  1  0
 38 62  1  0
 14 63  1  0
 63 64  1  0
 63 65  1  0
 63 66  1  0
 66 67  1  0
 66 68  1  0
  9  2  1  0
 62 15  2  0
 66  7  1  0
 33 18  1  0
 59 47  1  0
 29 20  1  0
M  CHG  1  39   1
M  END
>  <UniqueID>  (30) 
495

>  <SMILES>  (30) 
c1ccc2c(c1)CCN(c1nc([C@H]3CCc4ccccc43)[nH]/c(=[NH+]\CCC3CCOCC3)n1)C2

>  <Energy>  (30) 
83.47530777218503

>  <Genealogy>  (30) 
c1ccc2c(c1)CCN(c1nc([NH2+]CCC3CCOCC3)nc(C3CCc4ccccc43)n1)C2 (protonated)
c1ccc2c(c1)CCN(c1nc(C3CCc4ccccc43)[nH]c(=[NH+]CCC3CCOCC3)n1)C2 (tautomer)
c1ccc2c(c1)CCN(c1nc([C@H]3CCc4ccccc43)[nH]c(=[NH+]CCC3CCOCC3)n1)C2 (chirality)
c1ccc2c(c1)CCN(c1nc([C@H]3CCc4ccccc43)[nH]/c(=[NH+]\CCC3CCOCC3)n1)C2 (cis-trans isomerization)
c1ccc2c(c1)CCN(c1nc([C@H]3CCc4ccccc43)[nH]/c(=[NH+]\CCC3CCOCC3)n1)C2 (3D coordinates assigned)
c1ccc2c(c1)CCN(c1nc([C@H]3CCc4ccccc43)[nH]/c(=[NH+]\CCC3CCOCC3)n1)C2 (nonaromatic ring conformer: 83.47530777218503 kcal/mol)

>  <smiles>  (30) 
c1ccc2c(c1)CCN(c1nc(NCCC3CCOCC3)nc(C3CCc4ccccc43)n1)C2

>  <score_type>  (30) 
oracle

>  <origin>  (30) 
autodockgpu

>  <m_score__min__energy>  (30) 
-10.66

>  <m_primary>  (30) 
energy

>  <meeko>  (30) 
{"free_energy": -10.61, "intermolecular_energy": -12.4, "internal_energy": -0.98, "cluster_size": 7, "cluster_id": 1, "rank_in_cluster": 5}

>  <energy>  (30) 
-9.33

>  <cluster_rmsd>  (30) 
0.6

>  <rmsd>  (30) 
270.31

>  <cluster>  (30) 
2

$$$$
AOEMPDNDYKTPOZ-RFWLWHBWNA-O
     RDKit          3D

 68 73  0  0  0  0  0  0  0  0999 V2000
  142.0555   80.8883  224.7543 H   0  0  0  0  0  0  0  0  0  0  0  0
  141.9110   80.3310  223.8170 C   0  0  0  0  0  0  0  0  0  0  0  0
  142.1800   80.9450  222.5910 C   0  0  0  0  0  0  0  0  0  0  0  0
  142.5374   81.9849  222.5636 H   0  0  0  0  0  0  0  0  0  0  0  0
  141.9950   80.2380  221.3990 C   0  0  0  0  0  0  0  0  0  0  0  0
  142.1932   80.7276  220.4341 H   0  0  0  0  0  0  0  0  0  0  0  0
  141.5570   78.9050  221.4310 C   0  0  0  0  0  0  0  0  0  0  0  0
  141.2900   78.2840  222.6630 C   0  0  0  0  0  0  0  0  0  0  0  0
  141.4580   79.0080  223.8530 C   0  0  0  0  0  0  0  0  0  0  0  0
  141.2324   78.5329  224.8191 H   0  0  0  0  0  0  0  0  0  0  0  0
  140.7640   76.8710  222.7010 C   0  0  0  0  0  0  0  0  0  0  0  0
  139.6647   76.9056  222.7199 H   0  0  0  0  0  0  0  0  0  0  0  0
  141.1726   76.3896  223.6017 H   0  0  0  0  0  0  0  0  0  0  0  0
  141.1910   76.0700  221.5360 N   0  0  0  0  0  0  0  0  0  0  0  0
  141.0980   74.6330  221.6090 C   0  0  0  0  0  0  0  0  0  0  0  0
  142.0380   73.8540  221.0140 N   0  0  0  0  0  0  0  0  0  0  0  0
  141.9520   72.5020  221.0700 C   0  0  0  0  0  0  0  0  0  0  0  0
  143.0340   71.6670  220.4310 C   0  0  2  0  0  0  0  0  0  0  0  0
  143.0698   70.7425  221.0260 H   0  0  0  0  0  0  0  0  0  0  0  0
  144.3320   72.3900  220.4100 C   0  0  0  0  0  0  0  0  0  0  0  0
  145.0970   72.7780  221.5130 C   0  0  0  0  0  0  0  0  0  0  0  0
  144.7643   72.5452  222.5353 H   0  0  0  0  0  0  0  0  0  0  0  0
  146.2990   73.4710  221.2920 C   0  0  0  0  0  0  0  0  0  0  0  0
  146.9181   73.7826  222.1462 H   0  0  0  0  0  0  0  0  0  0  0  0
  146.7120   73.7670  219.9810 C   0  0  0  0  0  0  0  0  0  0  0  0
  147.6515   74.3137  219.8123 H   0  0  0  0  0  0  0  0  0  0  0  0
  145.9290   73.3670  218.8870 C   0  0  0  0  0  0  0  0  0  0  0  0
  146.2445   73.5962  217.8585 H   0  0  0  0  0  0  0  0  0  0  0  0
  144.7410   72.6720  219.1290 C   0  0  0  0  0  0  0  0  0  0  0  0
  143.7810   72.1810  218.1140 C   0  0  0  0  0  0  0  0  0  0  0  0
  144.2819   71.5244  217.3874 H   0  0  0  0  0  0  0  0  0  0  0  0
  143.3310   72.9957  217.5276 H   0  0  0  0  0  0  0  0  0  0  0  0
  142.7400   71.3960  218.9350 C   0  0  0  0  0  0  0  0  0  0  0  0
  142.8271   70.3201  218.7231 H   0  0  0  0  0  0  0  0  0  0  0  0
  141.7193   71.7132  218.6750 H   0  0  0  0  0  0  0  0  0  0  0  0
  140.9140   71.9180  221.7340 N   0  0  0  0  0  0  0  0  0  0  0  0
  140.8600   70.8770  221.7460 H   0  0  0  0  0  0  0  0  0  0  0  0
  139.9750   72.6910  222.3580 C   0  0  0  0  0  0  0  0  0  0  0  0
  138.9840   72.1700  223.0380 N   0  0  0  0  0  0  0  0  0  0  0  0
  138.1930   72.7950  223.3150 H   0  0  0  0  0  0  0  0  0  0  0  0
  138.8720   70.7670  223.4510 C   0  0  0  0  0  0  0  0  0  0  0  0
  137.8708   70.3985  223.1832 H   0  0  0  0  0  0  0  0  0  0  0  0
  139.6608   70.2006  222.9342 H   0  0  0  0  0  0  0  0  0  0  0  0
  139.0780   70.5840  224.9690 C   0  0  0  0  0  0  0  0  0  0  0  0
  138.7557   71.5054  225.4761 H   0  0  0  0  0  0  0  0  0  0  0  0
  138.4844   69.7079  225.2690 H   0  0  0  0  0  0  0  0  0  0  0  0
  140.5510   70.2920  225.3730 C   0  0  0  0  0  0  0  0  0  0  0  0
  141.0578   70.0073  224.4391 H   0  0  0  0  0  0  0  0  0  0  0  0
  140.6890   69.1190  226.3700 C   0  0  0  0  0  0  0  0  0  0  0  0
  140.0465   68.2903  226.0375 H   0  0  0  0  0  0  0  0  0  0  0  0
  141.7448   68.8113  226.3956 H   0  0  0  0  0  0  0  0  0  0  0  0
  140.2740   69.5330  227.7910 C   0  0  0  0  0  0  0  0  0  0  0  0
  139.2038   69.7873  227.7928 H   0  0  0  0  0  0  0  0  0  0  0  0
  140.4732   68.6922  228.4717 H   0  0  0  0  0  0  0  0  0  0  0  0
  141.0160   70.6540  228.2330 O   0  0  0  0  0  0  0  0  0  0  0  0
  140.7320   71.7750  227.4190 C   0  0  0  0  0  0  0  0  0  0  0  0
  139.6455   71.9464  227.4068 H   0  0  0  0  0  0  0  0  0  0  0  0
  141.2522   72.6522  227.8312 H   0  0  0  0  0  0  0  0  0  0  0  0
  141.2210   71.5410  225.9840 C   0  0  0  0  0  0  0  0  0  0  0  0
  140.9727   72.4198  225.3707 H   0  0  0  0  0  0  0  0  0  0  0  0
  142.3094   71.3829  226.0040 H   0  0  0  0  0  0  0  0  0  0  0  0
  140.0760   74.0430  222.2790 N   0  0  0  0  0  0  0  0  0  0  0  0
  141.7590   76.6900  220.3250 C   0  0  0  0  0  0  0  0  0  0  0  0
  141.4297   76.1177  219.4452 H   0  0  0  0  0  0  0  0  0  0  0  0
  142.8549   76.6788  220.4196 H   0  0  0  0  0  0  0  0  0  0  0  0
  141.3130   78.1460  220.1630 C   0  0  0  0  0  0  0  0  0  0  0  0
  140.2396   78.1729  219.9240 H   0  0  0  0  0  0  0  0  0  0  0  0
  141.8901   78.6102  219.3497 H   0  0  0  0  0  0  0  0  0  0  0  0
  1  2  1  0
  2  3  2  0
  3  4  1  0
  3  5  1  0
  5  6  1  0
  5  7  2  0
  7  8  1  0
  8  9  2  0
  9 10  1  0
  8 11  1  0
 11 12  1  0
 11 13  1  0
 11 14  1  0
 14 15  1  0
 15 16  1  0
 16 17  2  0
 17 18  1  0
 18 19  1  1
 18 20  1  0
 20 21  2  0
 21 22  1  0
 21 23  1  0
 23 24  1  0
 23 25  2  0
 25 26  1  0
 25 27  1  0
 27 28  1  0
 27 29  2  0
 29 30  1  0
 30 31  1  0
 30 32  1  0
 30 33  1  0
 33 34  1  0
 33 35  1  0
 17 36  1  0
 36 37  1  0
 36 38  1  0
 38 39  2  0
 39 40  1  0
 39 41  1  0
 41 42  1  0
 41 43  1  0
 41 44  1  0
 44 45  1  0
 44 46  1  0
 44 47  1  0
 47 48  1  0
 47 49  1  0
 49 50  1  0
 49 51  1  0
 49 52  1  0
 52 53  1  0
 52 54  1  0
 52 55  1  0
 55 56  1  0
 56 57  1  0
 56 58  1  0
 56 59  1  0
 59 60  1  0
 59 61  1  0
 38 62  1  0
 14 63  1  0
 63 64  1  0
 63 65  1  0
 63 66  1  0
 66 67  1  0
 66 68  1  0
  9  2  1  0
 62 15  2  0
 66  7  1  0
 33 18  1  0
 59 47  1  0
 29 20  1  0
M  CHG  1  39   1
M  END
>  <UniqueID>  (31) 
495

>  <SMILES>  (31) 
c1ccc2c(c1)CCN(c1nc([C@H]3CCc4ccccc43)[nH]/c(=[NH+]\CCC3CCOCC3)n1)C2

>  <Energy>  (31) 
83.47530777218503

>  <Genealogy>  (31) 
c1ccc2c(c1)CCN(c1nc([NH2+]CCC3CCOCC3)nc(C3CCc4ccccc43)n1)C2 (protonated)
c1ccc2c(c1)CCN(c1nc(C3CCc4ccccc43)[nH]c(=[NH+]CCC3CCOCC3)n1)C2 (tautomer)
c1ccc2c(c1)CCN(c1nc([C@H]3CCc4ccccc43)[nH]c(=[NH+]CCC3CCOCC3)n1)C2 (chirality)
c1ccc2c(c1)CCN(c1nc([C@H]3CCc4ccccc43)[nH]/c(=[NH+]\CCC3CCOCC3)n1)C2 (cis-trans isomerization)
c1ccc2c(c1)CCN(c1nc([C@H]3CCc4ccccc43)[nH]/c(=[NH+]\CCC3CCOCC3)n1)C2 (3D coordinates assigned)
c1ccc2c(c1)CCN(c1nc([C@H]3CCc4ccccc43)[nH]/c(=[NH+]\CCC3CCOCC3)n1)C2 (nonaromatic ring conformer: 83.47530777218503 kcal/mol)

>  <smiles>  (31) 
c1ccc2c(c1)CCN(c1nc(NCCC3CCOCC3)nc(C3CCc4ccccc43)n1)C2

>  <score_type>  (31) 
oracle

>  <origin>  (31) 
autodockgpu

>  <m_score__min__energy>  (31) 
-10.66

>  <m_primary>  (31) 
energy

>  <meeko>  (31) 
{"free_energy": -10.66, "intermolecular_energy": -12.45, "internal_energy": -0.98, "cluster_size": 7, "cluster_id": 1, "rank_in_cluster": 2}

>  <energy>  (31) 
-9.31

>  <cluster_rmsd>  (31) 
0.54

>  <rmsd>  (31) 
270.36

>  <cluster>  (31) 
2

$$$$
AOEMPDNDYKTPOZ-RFWLWHBWNA-O
     RDKit          3D

 68 73  0  0  0  0  0  0  0  0999 V2000
  142.1608   80.1877  224.0892 H   0  0  0  0  0  0  0  0  0  0  0  0
  141.9190   79.5930  223.1960 C   0  0  0  0  0  0  0  0  0  0  0  0
  142.1370   80.1260  221.9230 C   0  0  0  0  0  0  0  0  0  0  0  0
  142.5518   81.1390  221.8146 H   0  0  0  0  0  0  0  0  0  0  0  0
  141.8280   79.3720  220.7870 C   0  0  0  0  0  0  0  0  0  0  0  0
  141.9857   79.7986  219.7854 H   0  0  0  0  0  0  0  0  0  0  0  0
  141.3170   78.0720  220.9220 C   0  0  0  0  0  0  0  0  0  0  0  0
  141.1010   77.5330  222.2010 C   0  0  0  0  0  0  0  0  0  0  0  0
  141.3940   78.3050  223.3360 C   0  0  0  0  0  0  0  0  0  0  0  0
  141.2097   77.8948  224.3399 H   0  0  0  0  0  0  0  0  0  0  0  0
  140.4970   76.1590  222.3530 C   0  0  0  0  0  0  0  0  0  0  0  0
  139.4056   76.2626  222.4435 H   0  0  0  0  0  0  0  0  0  0  0  0
  140.9384   75.6999  223.2499 H   0  0  0  0  0  0  0  0  0  0  0  0
  140.7940   75.2750  221.2080 N   0  0  0  0  0  0  0  0  0  0  0  0
  140.6240   73.8520  221.3670 C   0  0  0  0  0  0  0  0  0  0  0  0
  139.8810   73.3600  222.3910 N   0  0  0  0  0  0  0  0  0  0  0  0
  139.7240   72.0230  222.5520 C   0  0  0  0  0  0  0  0  0  0  0  0
  138.8600   71.5120  223.6790 C   0  0  2  0  0  0  0  0  0  0  0  0
  138.2781   72.3849  224.0098 H   0  0  0  0  0  0  0  0  0  0  0  0
  139.6830   70.9220  224.7660 C   0  0  0  0  0  0  0  0  0  0  0  0
  140.5940   71.5910  225.5890 C   0  0  0  0  0  0  0  0  0  0  0  0
  140.7586   72.6730  225.4788 H   0  0  0  0  0  0  0  0  0  0  0  0
  141.2950   70.8560  226.5590 C   0  0  0  0  0  0  0  0  0  0  0  0
  142.0141   71.3634  227.2189 H   0  0  0  0  0  0  0  0  0  0  0  0
  141.0790   69.4720  226.6880 C   0  0  0  0  0  0  0  0  0  0  0  0
  141.6327   68.8989  227.4463 H   0  0  0  0  0  0  0  0  0  0  0  0
  140.1590   68.8200  225.8520 C   0  0  0  0  0  0  0  0  0  0  0  0
  139.9861   67.7377  225.9453 H   0  0  0  0  0  0  0  0  0  0  0  0
  139.4670   69.5720  224.8990 C   0  0  0  0  0  0  0  0  0  0  0  0
  138.4730   69.0660  223.9250 C   0  0  0  0  0  0  0  0  0  0  0  0
  137.6527   68.5437  224.4390 H   0  0  0  0  0  0  0  0  0  0  0  0
  138.9027   68.3383  223.2209 H   0  0  0  0  0  0  0  0  0  0  0  0
  137.9580   70.3380  223.2230 C   0  0  0  0  0  0  0  0  0  0  0  0
  136.9142   70.5310  223.5115 H   0  0  0  0  0  0  0  0  0  0  0  0
  137.9931   70.2213  222.1298 H   0  0  0  0  0  0  0  0  0  0  0  0
  140.3150   71.1620  221.6750 N   0  0  0  0  0  0  0  0  0  0  0  0
  140.1960   70.1390  221.8310 H   0  0  0  0  0  0  0  0  0  0  0  0
  141.0460   71.6450  220.6260 C   0  0  0  0  0  0  0  0  0  0  0  0
  141.5980   70.8550  219.7390 N   0  0  0  0  0  0  0  0  0  0  0  0
  140.9930   70.4660  218.9800 H   0  0  0  0  0  0  0  0  0  0  0  0
  143.0100   70.4610  219.7030 C   0  0  0  0  0  0  0  0  0  0  0  0
  143.1086   69.4595  220.1472 H   0  0  0  0  0  0  0  0  0  0  0  0
  143.3336   70.4696  218.6517 H   0  0  0  0  0  0  0  0  0  0  0  0
  143.9140   71.4390  220.4810 C   0  0  0  0  0  0  0  0  0  0  0  0
  143.2724   72.1036  221.0782 H   0  0  0  0  0  0  0  0  0  0  0  0
  144.5842   70.8284  221.1039 H   0  0  0  0  0  0  0  0  0  0  0  0
  144.8180   72.3180  219.5720 C   0  0  0  0  0  0  0  0  0  0  0  0
  144.9547   71.7360  218.6486 H   0  0  0  0  0  0  0  0  0  0  0  0
  146.2140   72.5890  220.1800 C   0  0  0  0  0  0  0  0  0  0  0  0
  146.6122   71.6504  220.5929 H   0  0  0  0  0  0  0  0  0  0  0  0
  146.8676   72.9755  219.3841 H   0  0  0  0  0  0  0  0  0  0  0  0
  146.1470   73.6390  221.3010 C   0  0  0  0  0  0  0  0  0  0  0  0
  145.5440   73.2407  222.1303 H   0  0  0  0  0  0  0  0  0  0  0  0
  147.1717   73.8565  221.6367 H   0  0  0  0  0  0  0  0  0  0  0  0
  145.5610   74.8420  220.8400 O   0  0  0  0  0  0  0  0  0  0  0  0
  144.2170   74.6120  220.4620 C   0  0  0  0  0  0  0  0  0  0  0  0
  143.6773   74.1577  221.3060 H   0  0  0  0  0  0  0  0  0  0  0  0
  143.7574   75.5731  220.1879 H   0  0  0  0  0  0  0  0  0  0  0  0
  144.1470   73.6690  219.2530 C   0  0  0  0  0  0  0  0  0  0  0  0
  143.0927   73.4951  218.9920 H   0  0  0  0  0  0  0  0  0  0  0  0
  144.6783   74.1361  218.4107 H   0  0  0  0  0  0  0  0  0  0  0  0
  141.1970   72.9890  220.4900 N   0  0  0  0  0  0  0  0  0  0  0  0
  141.3110   75.7950  219.9300 C   0  0  0  0  0  0  0  0  0  0  0  0
  140.8887   75.1993  219.1073 H   0  0  0  0  0  0  0  0  0  0  0  0
  142.4083   75.7212  219.9521 H   0  0  0  0  0  0  0  0  0  0  0  0
  140.9400   77.2650  219.7170 C   0  0  0  0  0  0  0  0  0  0  0  0
  139.8558   77.3459  219.5498 H   0  0  0  0  0  0  0  0  0  0  0  0
  141.4839   77.6500  218.8418 H   0  0  0  0  0  0  0  0  0  0  0  0
  1  2  1  0
  2  3  2  0
  3  4  1  0
  3  5  1  0
  5  6  1  0
  5  7  2  0
  7  8  1  0
  8  9  2  0
  9 10  1  0
  8 11  1  0
 11 12  1  0
 11 13  1  0
 11 14  1  0
 14 15  1  0
 15 16  1  0
 16 17  2  0
 17 18  1  0
 18 19  1  1
 18 20  1  0
 20 21  2  0
 21 22  1  0
 21 23  1  0
 23 24  1  0
 23 25  2  0
 25 26  1  0
 25 27  1  0
 27 28  1  0
 27 29  2  0
 29 30  1  0
 30 31  1  0
 30 32  1  0
 30 33  1  0
 33 34  1  0
 33 35  1  0
 17 36  1  0
 36 37  1  0
 36 38  1  0
 38 39  2  0
 39 40  1  0
 39 41  1  0
 41 42  1  0
 41 43  1  0
 41 44  1  0
 44 45  1  0
 44 46  1  0
 44 47  1  0
 47 48  1  0
 47 49  1  0
 49 50  1  0
 49 51  1  0
 49 52  1  0
 52 53  1  0
 52 54  1  0
 52 55  1  0
 55 56  1  0
 56 57  1  0
 56 58  1  0
 56 59  1  0
 59 60  1  0
 59 61  1  0
 38 62  1  0
 14 63  1  0
 63 64  1  0
 63 65  1  0
 63 66  1  0
 66 67  1  0
 66 68  1  0
  9  2  1  0
 62 15  2  0
 66  7  1  0
 33 18  1  0
 59 47  1  0
 29 20  1  0
M  CHG  1  39   1
M  END
>  <UniqueID>  (32) 
495

>  <SMILES>  (32) 
c1ccc2c(c1)CCN(c1nc([C@H]3CCc4ccccc43)[nH]/c(=[NH+]\CCC3CCOCC3)n1)C2

>  <Energy>  (32) 
83.47530777218503

>  <Genealogy>  (32) 
c1ccc2c(c1)CCN(c1nc([NH2+]CCC3CCOCC3)nc(C3CCc4ccccc43)n1)C2 (protonated)
c1ccc2c(c1)CCN(c1nc(C3CCc4ccccc43)[nH]c(=[NH+]CCC3CCOCC3)n1)C2 (tautomer)
c1ccc2c(c1)CCN(c1nc([C@H]3CCc4ccccc43)[nH]c(=[NH+]CCC3CCOCC3)n1)C2 (chirality)
c1ccc2c(c1)CCN(c1nc([C@H]3CCc4ccccc43)[nH]/c(=[NH+]\CCC3CCOCC3)n1)C2 (cis-trans isomerization)
c1ccc2c(c1)CCN(c1nc([C@H]3CCc4ccccc43)[nH]/c(=[NH+]\CCC3CCOCC3)n1)C2 (3D coordinates assigned)
c1ccc2c(c1)CCN(c1nc([C@H]3CCc4ccccc43)[nH]/c(=[NH+]\CCC3CCOCC3)n1)C2 (nonaromatic ring conformer: 83.47530777218503 kcal/mol)

>  <smiles>  (32) 
c1ccc2c(c1)CCN(c1nc(NCCC3CCOCC3)nc(C3CCc4ccccc43)n1)C2

>  <score_type>  (32) 
oracle

>  <origin>  (32) 
autodockgpu

>  <m_score__min__energy>  (32) 
-10.66

>  <m_primary>  (32) 
energy

>  <meeko>  (32) 
{"free_energy": -9.29, "intermolecular_energy": -11.08, "internal_energy": -1.37, "cluster_size": 3, "cluster_id": 4, "rank_in_cluster": 2}

>  <energy>  (32) 
-9.3

>  <cluster_rmsd>  (32) 
0.59

>  <rmsd>  (32) 
270.34

>  <cluster>  (32) 
2

$$$$
AOEMPDNDYKTPOZ-RFWLWHBWNA-O
     RDKit          3D

 68 73  0  0  0  0  0  0  0  0999 V2000
  141.1526   69.7281  228.1020 H   0  0  0  0  0  0  0  0  0  0  0  0
  140.5950   69.7930  227.1560 C   0  0  0  0  0  0  0  0  0  0  0  0
  139.5070   68.9460  226.9270 C   0  0  0  0  0  0  0  0  0  0  0  0
  139.2085   68.2152  227.6931 H   0  0  0  0  0  0  0  0  0  0  0  0
  138.7980   69.0270  225.7250 C   0  0  0  0  0  0  0  0  0  0  0  0
  137.9502   68.3507  225.5411 H   0  0  0  0  0  0  0  0  0  0  0  0
  139.1660   69.9700  224.7520 C   0  0  0  0  0  0  0  0  0  0  0  0
  140.2570   70.8250  224.9810 C   0  0  0  0  0  0  0  0  0  0  0  0
  140.9750   70.7230  226.1830 C   0  0  0  0  0  0  0  0  0  0  0  0
  141.8409   71.3778  226.3605 H   0  0  0  0  0  0  0  0  0  0  0  0
  140.6920   71.8010  223.9170 C   0  0  0  0  0  0  0  0  0  0  0  0
  141.4673   71.3248  223.2989 H   0  0  0  0  0  0  0  0  0  0  0  0
  141.0713   72.6993  224.4262 H   0  0  0  0  0  0  0  0  0  0  0  0
  139.5820   72.2220  223.0400 N   0  0  0  0  0  0  0  0  0  0  0  0
  139.7430   73.4100  222.2380 C   0  0  0  0  0  0  0  0  0  0  0  0
  140.7360   73.4860  221.3160 N   0  0  0  0  0  0  0  0  0  0  0  0
  140.8990   74.6030  220.5650 C   0  0  0  0  0  0  0  0  0  0  0  0
  141.9890   74.6380  219.5220 C   0  0  2  0  0  0  0  0  0  0  0  0
  141.5680   74.1119  218.6525 H   0  0  0  0  0  0  0  0  0  0  0  0
  143.2390   74.0120  220.0260 C   0  0  0  0  0  0  0  0  0  0  0  0
  143.4280   72.6710  220.3720 C   0  0  0  0  0  0  0  0  0  0  0  0
  142.6062   71.9462  220.2750 H   0  0  0  0  0  0  0  0  0  0  0  0
  144.6870   72.2660  220.8460 C   0  0  0  0  0  0  0  0  0  0  0  0
  144.8586   71.2145  221.1197 H   0  0  0  0  0  0  0  0  0  0  0  0
  145.7280   73.2030  220.9710 C   0  0  0  0  0  0  0  0  0  0  0  0
  146.7109   72.8834  221.3474 H   0  0  0  0  0  0  0  0  0  0  0  0
  145.5170   74.5450  220.6170 C   0  0  0  0  0  0  0  0  0  0  0  0
  146.3261   75.2840  220.7134 H   0  0  0  0  0  0  0  0  0  0  0  0
  144.2600   74.9240  220.1400 C   0  0  0  0  0  0  0  0  0  0  0  0
  143.8430   76.2850  219.7310 C   0  0  0  0  0  0  0  0  0  0  0  0
  144.5090   76.6798  218.9496 H   0  0  0  0  0  0  0  0  0  0  0  0
  143.8847   77.0076  220.5594 H   0  0  0  0  0  0  0  0  0  0  0  0
  142.4150   76.0890  219.1860 C   0  0  0  0  0  0  0  0  0  0  0  0
  142.4034   76.2421  218.0968 H   0  0  0  0  0  0  0  0  0  0  0  0
  141.7222   76.8132  219.6394 H   0  0  0  0  0  0  0  0  0  0  0  0
  140.0550   75.6610  220.7350 N   0  0  0  0  0  0  0  0  0  0  0  0
  140.2140   76.5150  220.1600 H   0  0  0  0  0  0  0  0  0  0  0  0
  139.0370   75.5880  221.6430 C   0  0  0  0  0  0  0  0  0  0  0  0
  138.1820   76.5660  221.8100 N   0  0  0  0  0  0  0  0  0  0  0  0
  137.3010   76.5530  221.2470 H   0  0  0  0  0  0  0  0  0  0  0  0
  138.3400   77.6950  222.7330 C   0  0  0  0  0  0  0  0  0  0  0  0
  137.3765   78.2188  222.8189 H   0  0  0  0  0  0  0  0  0  0  0  0
  138.6673   77.2924  223.7030 H   0  0  0  0  0  0  0  0  0  0  0  0
  139.4090   78.6990  222.2550 C   0  0  0  0  0  0  0  0  0  0  0  0
  139.2744   78.8605  221.1753 H   0  0  0  0  0  0  0  0  0  0  0  0
  139.2673   79.6195  222.8404 H   0  0  0  0  0  0  0  0  0  0  0  0
  140.8690   78.2280  222.5010 C   0  0  0  0  0  0  0  0  0  0  0  0
  140.8143   77.1306  222.5536 H   0  0  0  0  0  0  0  0  0  0  0  0
  141.4610   78.7440  223.8330 C   0  0  0  0  0  0  0  0  0  0  0  0
  140.7125   78.6177  224.6292 H   0  0  0  0  0  0  0  0  0  0  0  0
  142.3698   78.1648  224.0533 H   0  0  0  0  0  0  0  0  0  0  0  0
  141.8470   80.2290  223.7420 C   0  0  0  0  0  0  0  0  0  0  0  0
  140.9383   80.8270  223.5788 H   0  0  0  0  0  0  0  0  0  0  0  0
  142.3381   80.5204  224.6821 H   0  0  0  0  0  0  0  0  0  0  0  0
  142.7480   80.4570  222.6750 O   0  0  0  0  0  0  0  0  0  0  0  0
  142.1240   80.1570  221.4420 C   0  0  0  0  0  0  0  0  0  0  0  0
  141.1917   80.7348  221.3593 H   0  0  0  0  0  0  0  0  0  0  0  0
  142.8110   80.4214  220.6247 H   0  0  0  0  0  0  0  0  0  0  0  0
  141.7990   78.6610  221.3480 C   0  0  0  0  0  0  0  0  0  0  0  0
  141.3008   78.4599  220.3881 H   0  0  0  0  0  0  0  0  0  0  0  0
  142.7374   78.0915  221.4195 H   0  0  0  0  0  0  0  0  0  0  0  0
  138.8990   74.4620  222.3910 N   0  0  0  0  0  0  0  0  0  0  0  0
  138.2980   71.5000  222.9990 C   0  0  0  0  0  0  0  0  0  0  0  0
  137.9113   71.5216  221.9694 H   0  0  0  0  0  0  0  0  0  0  0  0
  137.6063   71.9976  223.6947 H   0  0  0  0  0  0  0  0  0  0  0  0
  138.4450   70.0420  223.4410 C   0  0  0  0  0  0  0  0  0  0  0  0
  139.0157   69.4876  222.6814 H   0  0  0  0  0  0  0  0  0  0  0  0
  137.4448   69.5989  223.5562 H   0  0  0  0  0  0  0  0  0  0  0  0
  1  2  1  0
  2  3  2  0
  3  4  1  0
  3  5  1  0
  5  6  1  0
  5  7  2  0
  7  8  1  0
  8  9  2  0
  9 10  1  0
  8 11  1  0
 11 12  1  0
 11 13  1  0
 11 14  1  0
 14 15  1  0
 15 16  1  0
 16 17  2  0
 17 18  1  0
 18 19  1  6
 18 20  1  0
 20 21  2  0
 21 22  1  0
 21 23  1  0
 23 24  1  0
 23 25  2  0
 25 26  1  0
 25 27  1  0
 27 28  1  0
 27 29  2  0
 29 30  1  0
 30 31  1  0
 30 32  1  0
 30 33  1  0
 33 34  1  0
 33 35  1  0
 17 36  1  0
 36 37  1  0
 36 38  1  0
 38 39  2  0
 39 40  1  0
 39 41  1  0
 41 42  1  0
 41 43  1  0
 41 44  1  0
 44 45  1  0
 44 46  1  0
 44 47  1  0
 47 48  1  0
 47 49  1  0
 49 50  1  0
 49 51  1  0
 49 52  1  0
 52 53  1  0
 52 54  1  0
 52 55  1  0
 55 56  1  0
 56 57  1  0
 56 58  1  0
 56 59  1  0
 59 60  1  0
 59 61  1  0
 38 62  1  0
 14 63  1  0
 63 64  1  0
 63 65  1  0
 63 66  1  0
 66 67  1  0
 66 68  1  0
  9  2  1  0
 62 15  2  0
 66  7  1  0
 33 18  1  0
 59 47  1  0
 29 20  1  0
M  CHG  1  39   1
M  END
>  <UniqueID>  (33) 
495

>  <SMILES>  (33) 
c1ccc2c(c1)CCN(c1nc([C@H]3CCc4ccccc43)[nH]/c(=[NH+]\CCC3CCOCC3)n1)C2

>  <Energy>  (33) 
83.47530777218503

>  <Genealogy>  (33) 
c1ccc2c(c1)CCN(c1nc([NH2+]CCC3CCOCC3)nc(C3CCc4ccccc43)n1)C2 (protonated)
c1ccc2c(c1)CCN(c1nc(C3CCc4ccccc43)[nH]c(=[NH+]CCC3CCOCC3)n1)C2 (tautomer)
c1ccc2c(c1)CCN(c1nc([C@H]3CCc4ccccc43)[nH]c(=[NH+]CCC3CCOCC3)n1)C2 (chirality)
c1ccc2c(c1)CCN(c1nc([C@H]3CCc4ccccc43)[nH]/c(=[NH+]\CCC3CCOCC3)n1)C2 (cis-trans isomerization)
c1ccc2c(c1)CCN(c1nc([C@H]3CCc4ccccc43)[nH]/c(=[NH+]\CCC3CCOCC3)n1)C2 (3D coordinates assigned)
c1ccc2c(c1)CCN(c1nc([C@H]3CCc4ccccc43)[nH]/c(=[NH+]\CCC3CCOCC3)n1)C2 (nonaromatic ring conformer: 83.47530777218503 kcal/mol)

>  <smiles>  (33) 
c1ccc2c(c1)CCN(c1nc(NCCC3CCOCC3)nc(C3CCc4ccccc43)n1)C2

>  <score_type>  (33) 
oracle

>  <origin>  (33) 
autodockgpu

>  <m_score__min__energy>  (33) 
-10.66

>  <m_primary>  (33) 
energy

>  <meeko>  (33) 
{"free_energy": -9.31, "intermolecular_energy": -11.1, "internal_energy": -1.35, "cluster_size": 6, "cluster_id": 2, "rank_in_cluster": 4}

>  <energy>  (33) 
-8.98

>  <cluster_rmsd>  (33) 
0.56

>  <rmsd>  (33) 
270.24

>  <cluster>  (33) 
2

$$$$
AOEMPDNDYKTPOZ-RFWLWHBWNA-O
     RDKit          3D

 68 73  0  0  0  0  0  0  0  0999 V2000
  141.3237   69.8391  228.0966 H   0  0  0  0  0  0  0  0  0  0  0  0
  140.7280   69.8860  227.1730 C   0  0  0  0  0  0  0  0  0  0  0  0
  139.6290   69.0400  227.0080 C   0  0  0  0  0  0  0  0  0  0  0  0
  139.3589   68.3285  227.8022 H   0  0  0  0  0  0  0  0  0  0  0  0
  138.8720   69.0970  225.8340 C   0  0  0  0  0  0  0  0  0  0  0  0
  138.0152   68.4203  225.7000 H   0  0  0  0  0  0  0  0  0  0  0  0
  139.2030   70.0160  224.8260 C   0  0  0  0  0  0  0  0  0  0  0  0
  140.3050   70.8710  224.9910 C   0  0  0  0  0  0  0  0  0  0  0  0
  141.0720   70.7930  226.1650 C   0  0  0  0  0  0  0  0  0  0  0  0
  141.9467   71.4477  226.2924 H   0  0  0  0  0  0  0  0  0  0  0  0
  140.7000   71.8210  223.8880 C   0  0  0  0  0  0  0  0  0  0  0  0
  141.4473   71.3272  223.2495 H   0  0  0  0  0  0  0  0  0  0  0  0
  141.1035   72.7285  224.3609 H   0  0  0  0  0  0  0  0  0  0  0  0
  139.5570   72.2280  223.0480 N   0  0  0  0  0  0  0  0  0  0  0  0
  139.6890   73.3970  222.2140 C   0  0  0  0  0  0  0  0  0  0  0  0
  140.6810   73.4720  221.2910 N   0  0  0  0  0  0  0  0  0  0  0  0
  140.8170   74.5730  220.5100 C   0  0  0  0  0  0  0  0  0  0  0  0
  141.9070   74.6070  219.4670 C   0  0  2  0  0  0  0  0  0  0  0  0
  141.4871   74.0777  218.5989 H   0  0  0  0  0  0  0  0  0  0  0  0
  143.1580   73.9840  219.9730 C   0  0  0  0  0  0  0  0  0  0  0  0
  143.3500   72.6450  220.3230 C   0  0  0  0  0  0  0  0  0  0  0  0
  142.5302   71.9178  220.2274 H   0  0  0  0  0  0  0  0  0  0  0  0
  144.6090   72.2450  220.7990 C   0  0  0  0  0  0  0  0  0  0  0  0
  144.7823   71.1949  221.0771 H   0  0  0  0  0  0  0  0  0  0  0  0
  145.6490   73.1840  220.9210 C   0  0  0  0  0  0  0  0  0  0  0  0
  146.6325   72.8675  221.2987 H   0  0  0  0  0  0  0  0  0  0  0  0
  145.4350   74.5240  220.5620 C   0  0  0  0  0  0  0  0  0  0  0  0
  146.2427   75.2649  220.6553 H   0  0  0  0  0  0  0  0  0  0  0  0
  144.1770   74.8990  220.0840 C   0  0  0  0  0  0  0  0  0  0  0  0
  143.7570   76.2580  219.6700 C   0  0  0  0  0  0  0  0  0  0  0  0
  144.4222   76.6514  218.8872 H   0  0  0  0  0  0  0  0  0  0  0  0
  143.7972   76.9837  220.4957 H   0  0  0  0  0  0  0  0  0  0  0  0
  142.3300   76.0570  219.1260 C   0  0  0  0  0  0  0  0  0  0  0  0
  142.3181   76.2061  218.0362 H   0  0  0  0  0  0  0  0  0  0  0  0
  141.6358   76.7814  219.5770 H   0  0  0  0  0  0  0  0  0  0  0  0
  139.9470   75.6130  220.6500 N   0  0  0  0  0  0  0  0  0  0  0  0
  140.0840   76.4550  220.0520 H   0  0  0  0  0  0  0  0  0  0  0  0
  138.9290   75.5400  221.5600 C   0  0  0  0  0  0  0  0  0  0  0  0
  138.0500   76.5000  221.7000 N   0  0  0  0  0  0  0  0  0  0  0  0
  137.1010   76.3650  221.2820 H   0  0  0  0  0  0  0  0  0  0  0  0
  138.2690   77.7680  222.4030 C   0  0  0  0  0  0  0  0  0  0  0  0
  137.5679   78.5172  222.0066 H   0  0  0  0  0  0  0  0  0  0  0  0
  138.1043   77.5892  223.4758 H   0  0  0  0  0  0  0  0  0  0  0  0
  139.7080   78.2960  222.2300 C   0  0  0  0  0  0  0  0  0  0  0  0
  140.3654   77.4430  222.0058 H   0  0  0  0  0  0  0  0  0  0  0  0
  139.6816   79.0342  221.4149 H   0  0  0  0  0  0  0  0  0  0  0  0
  140.2650   79.0270  223.4830 C   0  0  0  0  0  0  0  0  0  0  0  0
  139.6535   78.6675  224.3238 H   0  0  0  0  0  0  0  0  0  0  0  0
  140.1210   80.5640  223.4070 C   0  0  0  0  0  0  0  0  0  0  0  0
  139.1130   80.8106  223.0420 H   0  0  0  0  0  0  0  0  0  0  0  0
  140.2854   80.9755  224.4138 H   0  0  0  0  0  0  0  0  0  0  0  0
  141.1610   81.1830  222.4580 C   0  0  0  0  0  0  0  0  0  0  0  0
  140.9719   80.8250  221.4352 H   0  0  0  0  0  0  0  0  0  0  0  0
  141.0707   82.2782  222.5074 H   0  0  0  0  0  0  0  0  0  0  0  0
  142.4760   80.8230  222.8380 O   0  0  0  0  0  0  0  0  0  0  0  0
  142.6480   79.4250  222.7210 C   0  0  0  0  0  0  0  0  0  0  0  0
  142.3867   79.1134  221.6989 H   0  0  0  0  0  0  0  0  0  0  0  0
  143.6977   79.1787  222.9388 H   0  0  0  0  0  0  0  0  0  0  0  0
  141.7500   78.6820  223.7190 C   0  0  0  0  0  0  0  0  0  0  0  0
  141.8925   77.5984  223.5947 H   0  0  0  0  0  0  0  0  0  0  0  0
  142.0256   78.9904  224.7383 H   0  0  0  0  0  0  0  0  0  0  0  0
  138.8190   74.4320  222.3380 N   0  0  0  0  0  0  0  0  0  0  0  0
  138.2690   71.5110  223.0760 C   0  0  0  0  0  0  0  0  0  0  0  0
  137.8400   71.5116  222.0631 H   0  0  0  0  0  0  0  0  0  0  0  0
  137.6080   72.0269  223.7880 H   0  0  0  0  0  0  0  0  0  0  0  0
  138.4300   70.0620  223.5440 C   0  0  0  0  0  0  0  0  0  0  0  0
  138.9681   69.4891  222.7744 H   0  0  0  0  0  0  0  0  0  0  0  0
  137.4341   69.6252  223.7092 H   0  0  0  0  0  0  0  0  0  0  0  0
  1  2  1  0
  2  3  2  0
  3  4  1  0
  3  5  1  0
  5  6  1  0
  5  7  2  0
  7  8  1  0
  8  9  2  0
  9 10  1  0
  8 11  1  0
 11 12  1  0
 11 13  1  0
 11 14  1  0
 14 15  1  0
 15 16  1  0
 16 17  2  0
 17 18  1  0
 18 19  1  6
 18 20  1  0
 20 21  2  0
 21 22  1  0
 21 23  1  0
 23 24  1  0
 23 25  2  0
 25 26  1  0
 25 27  1  0
 27 28  1  0
 27 29  2  0
 29 30  1  0
 30 31  1  0
 30 32  1  0
 30 33  1  0
 33 34  1  0
 33 35  1  0
 17 36  1  0
 36 37  1  0
 36 38  1  0
 38 39  2  0
 39 40  1  0
 39 41  1  0
 41 42  1  0
 41 43  1  0
 41 44  1  0
 44 45  1  0
 44 46  1  0
 44 47  1  0
 47 48  1  0
 47 49  1  0
 49 50  1  0
 49 51  1  0
 49 52  1  0
 52 53  1  0
 52 54  1  0
 52 55  1  0
 55 56  1  0
 56 57  1  0
 56 58  1  0
 56 59  1  0
 59 60  1  0
 59 61  1  0
 38 62  1  0
 14 63  1  0
 63 64  1  0
 63 65  1  0
 63 66  1  0
 66 67  1  0
 66 68  1  0
  9  2  1  0
 62 15  2  0
 66  7  1  0
 33 18  1  0
 59 47  1  0
 29 20  1  0
M  CHG  1  39   1
M  END
>  <UniqueID>  (34) 
495

>  <SMILES>  (34) 
c1ccc2c(c1)CCN(c1nc([C@H]3CCc4ccccc43)[nH]/c(=[NH+]\CCC3CCOCC3)n1)C2

>  <Energy>  (34) 
83.47530777218503

>  <Genealogy>  (34) 
c1ccc2c(c1)CCN(c1nc([NH2+]CCC3CCOCC3)nc(C3CCc4ccccc43)n1)C2 (protonated)
c1ccc2c(c1)CCN(c1nc(C3CCc4ccccc43)[nH]c(=[NH+]CCC3CCOCC3)n1)C2 (tautomer)
c1ccc2c(c1)CCN(c1nc([C@H]3CCc4ccccc43)[nH]c(=[NH+]CCC3CCOCC3)n1)C2 (chirality)
c1ccc2c(c1)CCN(c1nc([C@H]3CCc4ccccc43)[nH]/c(=[NH+]\CCC3CCOCC3)n1)C2 (cis-trans isomerization)
c1ccc2c(c1)CCN(c1nc([C@H]3CCc4ccccc43)[nH]/c(=[NH+]\CCC3CCOCC3)n1)C2 (3D coordinates assigned)
c1ccc2c(c1)CCN(c1nc([C@H]3CCc4ccccc43)[nH]/c(=[NH+]\CCC3CCOCC3)n1)C2 (nonaromatic ring conformer: 83.47530777218503 kcal/mol)

>  <smiles>  (34) 
c1ccc2c(c1)CCN(c1nc(NCCC3CCOCC3)nc(C3CCc4ccccc43)n1)C2

>  <score_type>  (34) 
oracle

>  <origin>  (34) 
autodockgpu

>  <m_score__min__energy>  (34) 
-10.66

>  <m_primary>  (34) 
energy

>  <meeko>  (34) 
{"free_energy": -9.53, "intermolecular_energy": -11.32, "internal_energy": -1.06, "cluster_size": 6, "cluster_id": 2, "rank_in_cluster": 1}

>  <energy>  (34) 
-9.52

>  <cluster_rmsd>  (34) 
0.0

>  <rmsd>  (34) 
270.32

>  <cluster>  (34) 
3

$$$$
AOEMPDNDYKTPOZ-RFWLWHBWNA-O
     RDKit          3D

 68 73  0  0  0  0  0  0  0  0999 V2000
  141.3218   81.5798  224.6653 H   0  0  0  0  0  0  0  0  0  0  0  0
  141.4060   80.8450  223.8510 C   0  0  0  0  0  0  0  0  0  0  0  0
  142.4370   80.9560  222.9140 C   0  0  0  0  0  0  0  0  0  0  0  0
  143.1646   81.7773  222.9919 H   0  0  0  0  0  0  0  0  0  0  0  0
  142.5440   80.0240  221.8780 C   0  0  0  0  0  0  0  0  0  0  0  0
  143.3478   80.1208  221.1333 H   0  0  0  0  0  0  0  0  0  0  0  0
  141.6280   78.9650  221.7860 C   0  0  0  0  0  0  0  0  0  0  0  0
  140.5940   78.8480  222.7290 C   0  0  0  0  0  0  0  0  0  0  0  0
  140.4810   79.8000  223.7540 C   0  0  0  0  0  0  0  0  0  0  0  0
  139.6617   79.7242  224.4841 H   0  0  0  0  0  0  0  0  0  0  0  0
  139.5730   77.7450  222.6020 C   0  0  0  0  0  0  0  0  0  0  0  0
  138.7173   78.1230  222.0234 H   0  0  0  0  0  0  0  0  0  0  0  0
  139.2782   77.4477  223.6192 H   0  0  0  0  0  0  0  0  0  0  0  0
  140.1070   76.5470  221.9260 N   0  0  0  0  0  0  0  0  0  0  0  0
  139.4000   75.2980  222.0640 C   0  0  0  0  0  0  0  0  0  0  0  0
  138.0420   75.2770  222.0890 N   0  0  0  0  0  0  0  0  0  0  0  0
  137.3710   74.1080  222.2280 C   0  0  0  0  0  0  0  0  0  0  0  0
  135.8620   74.1170  222.2130 C   0  0  2  0  0  0  0  0  0  0  0  0
  135.5895   74.8846  221.4737 H   0  0  0  0  0  0  0  0  0  0  0  0
  135.3100   74.3960  223.5640 C   0  0  0  0  0  0  0  0  0  0  0  0
  135.4440   75.5760  224.3010 C   0  0  0  0  0  0  0  0  0  0  0  0
  135.9969   76.4334  223.8897 H   0  0  0  0  0  0  0  0  0  0  0  0
  134.8600   75.6470  225.5760 C   0  0  0  0  0  0  0  0  0  0  0  0
  134.9507   76.5676  226.1713 H   0  0  0  0  0  0  0  0  0  0  0  0
  134.1590   74.5420  226.0930 C   0  0  0  0  0  0  0  0  0  0  0  0
  133.7060   74.5994  227.0937 H   0  0  0  0  0  0  0  0  0  0  0  0
  134.0360   73.3670  225.3360 C   0  0  0  0  0  0  0  0  0  0  0  0
  133.4914   72.4983  225.7344 H   0  0  0  0  0  0  0  0  0  0  0  0
  134.6180   73.3210  224.0670 C   0  0  0  0  0  0  0  0  0  0  0  0
  134.6070   72.1740  223.1300 C   0  0  0  0  0  0  0  0  0  0  0  0
  133.5767   71.8528  222.9171 H   0  0  0  0  0  0  0  0  0  0  0  0
  135.1228   71.2910  223.5353 H   0  0  0  0  0  0  0  0  0  0  0  0
  135.2830   72.7250  221.8590 C   0  0  0  0  0  0  0  0  0  0  0  0
  134.5437   72.8193  221.0500 H   0  0  0  0  0  0  0  0  0  0  0  0
  136.0788   72.0476  221.5159 H   0  0  0  0  0  0  0  0  0  0  0  0
  138.0640   72.9390  222.3400 N   0  0  0  0  0  0  0  0  0  0  0  0
  137.5260   72.0560  222.4660 H   0  0  0  0  0  0  0  0  0  0  0  0
  139.4300   72.9430  222.2930 C   0  0  0  0  0  0  0  0  0  0  0  0
  140.1330   71.8410  222.3590 N   0  0  0  0  0  0  0  0  0  0  0  0
  140.9140   71.7110  221.6760 H   0  0  0  0  0  0  0  0  0  0  0  0
  139.9310   70.7510  223.3210 C   0  0  0  0  0  0  0  0  0  0  0  0
  138.9777   70.2514  223.0938 H   0  0  0  0  0  0  0  0  0  0  0  0
  140.7809   70.0590  223.2272 H   0  0  0  0  0  0  0  0  0  0  0  0
  139.8920   71.2530  224.7780 C   0  0  0  0  0  0  0  0  0  0  0  0
  139.8163   72.3503  224.7644 H   0  0  0  0  0  0  0  0  0  0  0  0
  139.0244   70.7759  225.2572 H   0  0  0  0  0  0  0  0  0  0  0  0
  141.1420   70.8590  225.6130 C   0  0  0  0  0  0  0  0  0  0  0  0
  141.9893   70.9233  224.9145 H   0  0  0  0  0  0  0  0  0  0  0  0
  141.0790   69.4140  226.1610 C   0  0  0  0  0  0  0  0  0  0  0  0
  140.7305   68.7437  225.3615 H   0  0  0  0  0  0  0  0  0  0  0  0
  142.0862   69.1299  226.5000 H   0  0  0  0  0  0  0  0  0  0  0  0
  140.1200   69.3050  227.3570 C   0  0  0  0  0  0  0  0  0  0  0  0
  139.0977   69.5299  227.0189 H   0  0  0  0  0  0  0  0  0  0  0  0
  140.1793   68.2829  227.7592 H   0  0  0  0  0  0  0  0  0  0  0  0
  140.4770   70.2120  228.3830 O   0  0  0  0  0  0  0  0  0  0  0  0
  140.3470   71.5420  227.9200 C   0  0  0  0  0  0  0  0  0  0  0  0
  139.3266   71.6933  227.5380 H   0  0  0  0  0  0  0  0  0  0  0  0
  140.5474   72.2286  228.7557 H   0  0  0  0  0  0  0  0  0  0  0  0
  141.3530   71.8260  226.7960 C   0  0  0  0  0  0  0  0  0  0  0  0
  141.2187   72.8597  226.4448 H   0  0  0  0  0  0  0  0  0  0  0  0
  142.3702   71.6838  227.1898 H   0  0  0  0  0  0  0  0  0  0  0  0
  140.0820   74.1280  222.1630 N   0  0  0  0  0  0  0  0  0  0  0  0
  141.3670   76.5750  221.1620 C   0  0  0  0  0  0  0  0  0  0  0  0
  141.2731   75.9011  220.2977 H   0  0  0  0  0  0  0  0  0  0  0  0
  142.1775   76.2527  221.8322 H   0  0  0  0  0  0  0  0  0  0  0  0
  141.7020   77.9810  220.6580 C   0  0  0  0  0  0  0  0  0  0  0  0
  140.9826   78.2683  219.8771 H   0  0  0  0  0  0  0  0  0  0  0  0
  142.7221   77.9818  220.2465 H   0  0  0  0  0  0  0  0  0  0  0  0
  1  2  1  0
  2  3  2  0
  3  4  1  0
  3  5  1  0
  5  6  1  0
  5  7  2  0
  7  8  1  0
  8  9  2  0
  9 10  1  0
  8 11  1  0
 11 12  1  0
 11 13  1  0
 11 14  1  0
 14 15  1  0
 15 16  1  0
 16 17  2  0
 17 18  1  0
 18 19  1  6
 18 20  1  0
 20 21  2  0
 21 22  1  0
 21 23  1  0
 23 24  1  0
 23 25  2  0
 25 26  1  0
 25 27  1  0
 27 28  1  0
 27 29  2  0
 29 30  1  0
 30 31  1  0
 30 32  1  0
 30 33  1  0
 33 34  1  0
 33 35  1  0
 17 36  1  0
 36 37  1  0
 36 38  1  0
 38 39  2  0
 39 40  1  0
 39 41  1  0
 41 42  1  0
 41 43  1  0
 41 44  1  0
 44 45  1  0
 44 46  1  0
 44 47  1  0
 47 48  1  0
 47 49  1  0
 49 50  1  0
 49 51  1  0
 49 52  1  0
 52 53  1  0
 52 54  1  0
 52 55  1  0
 55 56  1  0
 56 57  1  0
 56 58  1  0
 56 59  1  0
 59 60  1  0
 59 61  1  0
 38 62  1  0
 14 63  1  0
 63 64  1  0
 63 65  1  0
 63 66  1  0
 66 67  1  0
 66 68  1  0
  9  2  1  0
 62 15  2  0
 66  7  1  0
 33 18  1  0
 59 47  1  0
 29 20  1  0
M  CHG  1  39   1
M  END
>  <UniqueID>  (35) 
495

>  <SMILES>  (35) 
c1ccc2c(c1)CCN(c1nc([C@H]3CCc4ccccc43)[nH]/c(=[NH+]\CCC3CCOCC3)n1)C2

>  <Energy>  (35) 
83.47530777218503

>  <Genealogy>  (35) 
c1ccc2c(c1)CCN(c1nc([NH2+]CCC3CCOCC3)nc(C3CCc4ccccc43)n1)C2 (protonated)
c1ccc2c(c1)CCN(c1nc(C3CCc4ccccc43)[nH]c(=[NH+]CCC3CCOCC3)n1)C2 (tautomer)
c1ccc2c(c1)CCN(c1nc([C@H]3CCc4ccccc43)[nH]c(=[NH+]CCC3CCOCC3)n1)C2 (chirality)
c1ccc2c(c1)CCN(c1nc([C@H]3CCc4ccccc43)[nH]/c(=[NH+]\CCC3CCOCC3)n1)C2 (cis-trans isomerization)
c1ccc2c(c1)CCN(c1nc([C@H]3CCc4ccccc43)[nH]/c(=[NH+]\CCC3CCOCC3)n1)C2 (3D coordinates assigned)
c1ccc2c(c1)CCN(c1nc([C@H]3CCc4ccccc43)[nH]/c(=[NH+]\CCC3CCOCC3)n1)C2 (nonaromatic ring conformer: 83.47530777218503 kcal/mol)

>  <smiles>  (35) 
c1ccc2c(c1)CCN(c1nc(NCCC3CCOCC3)nc(C3CCc4ccccc43)n1)C2

>  <score_type>  (35) 
oracle

>  <origin>  (35) 
autodockgpu

>  <m_score__min__energy>  (35) 
-10.66

>  <m_primary>  (35) 
energy

>  <meeko>  (35) 
{"free_energy": -9.52, "intermolecular_energy": -11.31, "internal_energy": -0.86, "cluster_size": 3, "cluster_id": 3, "rank_in_cluster": 1}

>  <energy>  (35) 
-9.51

>  <cluster_rmsd>  (35) 
0.05

>  <rmsd>  (35) 
270.31

>  <cluster>  (35) 
3

$$$$
AOEMPDNDYKTPOZ-RFWLWHBWNA-O
     RDKit          3D

 68 73  0  0  0  0  0  0  0  0999 V2000
  141.1563   70.1004  228.3823 H   0  0  0  0  0  0  0  0  0  0  0  0
  140.6340   70.0610  227.4150 C   0  0  0  0  0  0  0  0  0  0  0  0
  139.6310   69.1120  227.2020 C   0  0  0  0  0  0  0  0  0  0  0  0
  139.3623   68.4066  228.0021 H   0  0  0  0  0  0  0  0  0  0  0  0
  138.9690   69.0590  225.9720 C   0  0  0  0  0  0  0  0  0  0  0  0
  138.1897   68.3018  225.8005 H   0  0  0  0  0  0  0  0  0  0  0  0
  139.2960   69.9690  224.9560 C   0  0  0  0  0  0  0  0  0  0  0  0
  140.3010   70.9280  225.1690 C   0  0  0  0  0  0  0  0  0  0  0  0
  140.9750   70.9610  226.4000 C   0  0  0  0  0  0  0  0  0  0  0  0
  141.7746   71.6977  226.5670 H   0  0  0  0  0  0  0  0  0  0  0  0
  140.6960   71.8720  224.0610 C   0  0  0  0  0  0  0  0  0  0  0  0
  141.5333   71.4280  223.5026 H   0  0  0  0  0  0  0  0  0  0  0  0
  140.9773   72.8287  224.5252 H   0  0  0  0  0  0  0  0  0  0  0  0
  139.5920   72.1420  223.1200 N   0  0  0  0  0  0  0  0  0  0  0  0
  139.6860   73.2890  222.2510 C   0  0  0  0  0  0  0  0  0  0  0  0
  140.6760   73.3690  221.3250 N   0  0  0  0  0  0  0  0  0  0  0  0
  140.7750   74.4490  220.5100 C   0  0  0  0  0  0  0  0  0  0  0  0
  141.8640   74.4870  219.4670 C   0  0  2  0  0  0  0  0  0  0  0  0
  141.4502   73.9427  218.6053 H   0  0  0  0  0  0  0  0  0  0  0  0
  143.1240   73.8870  219.9780 C   0  0  0  0  0  0  0  0  0  0  0  0
  143.3340   72.5530  220.3410 C   0  0  0  0  0  0  0  0  0  0  0  0
  142.5238   71.8143  220.2529 H   0  0  0  0  0  0  0  0  0  0  0  0
  144.5980   72.1740  220.8200 C   0  0  0  0  0  0  0  0  0  0  0  0
  144.7853   71.1293  221.1089 H   0  0  0  0  0  0  0  0  0  0  0  0
  145.6250   73.1280  220.9310 C   0  0  0  0  0  0  0  0  0  0  0  0
  146.6131   72.8279  221.3100 H   0  0  0  0  0  0  0  0  0  0  0  0
  145.3940   74.4620  220.5600 C   0  0  0  0  0  0  0  0  0  0  0  0
  146.1920   75.2141  220.6463 H   0  0  0  0  0  0  0  0  0  0  0  0
  144.1310   74.8160  220.0790 C   0  0  0  0  0  0  0  0  0  0  0  0
  143.6930   76.1640  219.6520 C   0  0  0  0  0  0  0  0  0  0  0  0
  144.3524   76.5582  218.8647 H   0  0  0  0  0  0  0  0  0  0  0  0
  143.7241   76.8983  220.4705 H   0  0  0  0  0  0  0  0  0  0  0  0
  142.2680   75.9390  219.1110 C   0  0  0  0  0  0  0  0  0  0  0  0
  142.2535   76.0769  218.0198 H   0  0  0  0  0  0  0  0  0  0  0  0
  141.5647   76.6588  219.5551 H   0  0  0  0  0  0  0  0  0  0  0  0
  139.8710   75.4640  220.6200 N   0  0  0  0  0  0  0  0  0  0  0  0
  139.9810   76.2920  219.9960 H   0  0  0  0  0  0  0  0  0  0  0  0
  138.8570   75.3850  221.5320 C   0  0  0  0  0  0  0  0  0  0  0  0
  137.9460   76.3190  221.6430 N   0  0  0  0  0  0  0  0  0  0  0  0
  137.1700   76.1740  222.3290 H   0  0  0  0  0  0  0  0  0  0  0  0
  137.9110   77.5760  220.8880 C   0  0  0  0  0  0  0  0  0  0  0  0
  138.0264   77.3487  219.8179 H   0  0  0  0  0  0  0  0  0  0  0  0
  136.9474   78.0647  221.0945 H   0  0  0  0  0  0  0  0  0  0  0  0
  139.0320   78.5480  221.3120 C   0  0  0  0  0  0  0  0  0  0  0  0
  139.8558   78.4638  220.5880 H   0  0  0  0  0  0  0  0  0  0  0  0
  138.5905   79.5553  221.3335 H   0  0  0  0  0  0  0  0  0  0  0  0
  139.5990   78.2730  222.7330 C   0  0  0  0  0  0  0  0  0  0  0  0
  138.9670   77.4747  223.1492 H   0  0  0  0  0  0  0  0  0  0  0  0
  139.5070   79.4960  223.6730 C   0  0  0  0  0  0  0  0  0  0  0  0
  138.5121   79.9532  223.5680 H   0  0  0  0  0  0  0  0  0  0  0  0
  139.6734   79.1512  224.7042 H   0  0  0  0  0  0  0  0  0  0  0  0
  140.5780   80.5480  223.3380 C   0  0  0  0  0  0  0  0  0  0  0  0
  140.3888   80.9447  222.3296 H   0  0  0  0  0  0  0  0  0  0  0  0
  140.5237   81.3522  224.0865 H   0  0  0  0  0  0  0  0  0  0  0  0
  141.8750   79.9850  223.3770 O   0  0  0  0  0  0  0  0  0  0  0  0
  142.0020   78.9910  222.3780 C   0  0  0  0  0  0  0  0  0  0  0  0
  141.7424   79.4253  221.4013 H   0  0  0  0  0  0  0  0  0  0  0  0
  143.0403   78.6279  222.3701 H   0  0  0  0  0  0  0  0  0  0  0  0
  141.0680   77.8090  222.6680 C   0  0  0  0  0  0  0  0  0  0  0  0
  141.1746   77.0610  221.8686 H   0  0  0  0  0  0  0  0  0  0  0  0
  141.3428   77.3736  223.6400 H   0  0  0  0  0  0  0  0  0  0  0  0
  138.7820   74.2980  222.3430 N   0  0  0  0  0  0  0  0  0  0  0  0
  138.3760   71.3110  223.0790 C   0  0  0  0  0  0  0  0  0  0  0  0
  138.0310   71.2376  222.0371 H   0  0  0  0  0  0  0  0  0  0  0  0
  137.6171   71.7877  223.7169 H   0  0  0  0  0  0  0  0  0  0  0  0
  138.6270   69.9000  223.6170 C   0  0  0  0  0  0  0  0  0  0  0  0
  139.2739   69.3531  222.9152 H   0  0  0  0  0  0  0  0  0  0  0  0
  137.6638   69.3793  223.7230 H   0  0  0  0  0  0  0  0  0  0  0  0
  1  2  1  0
  2  3  2  0
  3  4  1  0
  3  5  1  0
  5  6  1  0
  5  7  2  0
  7  8  1  0
  8  9  2  0
  9 10  1  0
  8 11  1  0
 11 12  1  0
 11 13  1  0
 11 14  1  0
 14 15  1  0
 15 16  1  0
 16 17  2  0
 17 18  1  0
 18 19  1  6
 18 20  1  0
 20 21  2  0
 21 22  1  0
 21 23  1  0
 23 24  1  0
 23 25  2  0
 25 26  1  0
 25 27  1  0
 27 28  1  0
 27 29  2  0
 29 30  1  0
 30 31  1  0
 30 32  1  0
 30 33  1  0
 33 34  1  0
 33 35  1  0
 17 36  1  0
 36 37  1  0
 36 38  1  0
 38 39  2  0
 39 40  1  0
 39 41  1  0
 41 42  1  0
 41 43  1  0
 41 44  1  0
 44 45  1  0
 44 46  1  0
 44 47  1  0
 47 48  1  0
 47 49  1  0
 49 50  1  0
 49 51  1  0
 49 52  1  0
 52 53  1  0
 52 54  1  0
 52 55  1  0
 55 56  1  0
 56 57  1  0
 56 58  1  0
 56 59  1  0
 59 60  1  0
 59 61  1  0
 38 62  1  0
 14 63  1  0
 63 64  1  0
 63 65  1  0
 63 66  1  0
 66 67  1  0
 66 68  1  0
  9  2  1  0
 62 15  2  0
 66  7  1  0
 33 18  1  0
 59 47  1  0
 29 20  1  0
M  CHG  1  39   1
M  END
>  <UniqueID>  (36) 
495

>  <SMILES>  (36) 
c1ccc2c(c1)CCN(c1nc([C@H]3CCc4ccccc43)[nH]/c(=[NH+]\CCC3CCOCC3)n1)C2

>  <Energy>  (36) 
83.47530777218503

>  <Genealogy>  (36) 
c1ccc2c(c1)CCN(c1nc([NH2+]CCC3CCOCC3)nc(C3CCc4ccccc43)n1)C2 (protonated)
c1ccc2c(c1)CCN(c1nc(C3CCc4ccccc43)[nH]c(=[NH+]CCC3CCOCC3)n1)C2 (tautomer)
c1ccc2c(c1)CCN(c1nc([C@H]3CCc4ccccc43)[nH]c(=[NH+]CCC3CCOCC3)n1)C2 (chirality)
c1ccc2c(c1)CCN(c1nc([C@H]3CCc4ccccc43)[nH]/c(=[NH+]\CCC3CCOCC3)n1)C2 (cis-trans isomerization)
c1ccc2c(c1)CCN(c1nc([C@H]3CCc4ccccc43)[nH]/c(=[NH+]\CCC3CCOCC3)n1)C2 (3D coordinates assigned)
c1ccc2c(c1)CCN(c1nc([C@H]3CCc4ccccc43)[nH]/c(=[NH+]\CCC3CCOCC3)n1)C2 (nonaromatic ring conformer: 83.47530777218503 kcal/mol)

>  <smiles>  (36) 
c1ccc2c(c1)CCN(c1nc(NCCC3CCOCC3)nc(C3CCc4ccccc43)n1)C2

>  <score_type>  (36) 
oracle

>  <origin>  (36) 
autodockgpu

>  <m_score__min__energy>  (36) 
-10.66

>  <m_primary>  (36) 
energy

>  <meeko>  (36) 
{"free_energy": -8.98, "intermolecular_energy": -10.77, "internal_energy": -1.28, "cluster_size": 6, "cluster_id": 2, "rank_in_cluster": 6}

>  <energy>  (36) 
-9.47

>  <cluster_rmsd>  (36) 
0.23

>  <rmsd>  (36) 
270.26

>  <cluster>  (36) 
3

$$$$
AOEMPDNDYKTPOZ-RFWLWHBWNA-O
     RDKit          3D

 68 73  0  0  0  0  0  0  0  0999 V2000
  142.0554   80.8443  224.7289 H   0  0  0  0  0  0  0  0  0  0  0  0
  141.9270   80.2840  223.7910 C   0  0  0  0  0  0  0  0  0  0  0  0
  142.2260   80.8920  222.5690 C   0  0  0  0  0  0  0  0  0  0  0  0
  142.5912   81.9293  222.5456 H   0  0  0  0  0  0  0  0  0  0  0  0
  142.0610   80.1820  221.3760 C   0  0  0  0  0  0  0  0  0  0  0  0
  142.2827   80.6665  220.4136 H   0  0  0  0  0  0  0  0  0  0  0  0
  141.6130   78.8520  221.4040 C   0  0  0  0  0  0  0  0  0  0  0  0
  141.3160   78.2380  222.6320 C   0  0  0  0  0  0  0  0  0  0  0  0
  141.4650   78.9650  223.8240 C   0  0  0  0  0  0  0  0  0  0  0  0
  141.2173   78.4950  224.7872 H   0  0  0  0  0  0  0  0  0  0  0  0
  140.7800   76.8280  222.6650 C   0  0  0  0  0  0  0  0  0  0  0  0
  139.6808   76.8697  222.6614 H   0  0  0  0  0  0  0  0  0  0  0  0
  141.1671   76.3477  223.5757 H   0  0  0  0  0  0  0  0  0  0  0  0
  141.2250   76.0200  221.5130 N   0  0  0  0  0  0  0  0  0  0  0  0
  141.1210   74.5840  221.5890 C   0  0  0  0  0  0  0  0  0  0  0  0
  142.0730   73.7960  221.0260 N   0  0  0  0  0  0  0  0  0  0  0  0
  141.9770   72.4450  221.0860 C   0  0  0  0  0  0  0  0  0  0  0  0
  143.0720   71.6010  220.4830 C   0  0  2  0  0  0  0  0  0  0  0  0
  143.1307   70.7107  221.1263 H   0  0  0  0  0  0  0  0  0  0  0  0
  144.3550   72.3490  220.4130 C   0  0  0  0  0  0  0  0  0  0  0  0
  145.1190   72.8110  221.4880 C   0  0  0  0  0  0  0  0  0  0  0  0
  144.7989   72.6251  222.5238 H   0  0  0  0  0  0  0  0  0  0  0  0
  146.3030   73.5170  221.2210 C   0  0  0  0  0  0  0  0  0  0  0  0
  146.9204   73.8878  222.0525 H   0  0  0  0  0  0  0  0  0  0  0  0
  146.7010   73.7510  219.8930 C   0  0  0  0  0  0  0  0  0  0  0  0
  147.6276   74.3074  219.6883 H   0  0  0  0  0  0  0  0  0  0  0  0
  145.9200   73.2770  218.8280 C   0  0  0  0  0  0  0  0  0  0  0  0
  146.2237   73.4577  217.7863 H   0  0  0  0  0  0  0  0  0  0  0  0
  144.7490   72.5710  219.1160 C   0  0  0  0  0  0  0  0  0  0  0  0
  143.7930   72.0060  218.1360 C   0  0  0  0  0  0  0  0  0  0  0  0
  144.3031   71.3223  217.4415 H   0  0  0  0  0  0  0  0  0  0  0  0
  143.3215   72.7783  217.5105 H   0  0  0  0  0  0  0  0  0  0  0  0
  142.7750   71.2440  219.0060 C   0  0  0  0  0  0  0  0  0  0  0  0
  142.8845   70.1604  218.8514 H   0  0  0  0  0  0  0  0  0  0  0  0
  141.7460   71.5249  218.7371 H   0  0  0  0  0  0  0  0  0  0  0  0
  140.9160   71.8700  221.7200 N   0  0  0  0  0  0  0  0  0  0  0  0
  140.8550   70.8300  221.7350 H   0  0  0  0  0  0  0  0  0  0  0  0
  139.9630   72.6520  222.3120 C   0  0  0  0  0  0  0  0  0  0  0  0
  138.9490   72.1400  222.9640 N   0  0  0  0  0  0  0  0  0  0  0  0
  138.0910   72.7260  223.0800 H   0  0  0  0  0  0  0  0  0  0  0  0
  138.8980   70.7980  223.5520 C   0  0  0  0  0  0  0  0  0  0  0  0
  137.8905   70.3836  223.3997 H   0  0  0  0  0  0  0  0  0  0  0  0
  139.6651   70.1851  223.0560 H   0  0  0  0  0  0  0  0  0  0  0  0
  139.2070   70.8060  225.0630 C   0  0  0  0  0  0  0  0  0  0  0  0
  138.8619   71.7626  225.4822 H   0  0  0  0  0  0  0  0  0  0  0  0
  138.6863   69.9414  225.5005 H   0  0  0  0  0  0  0  0  0  0  0  0
  140.7160   70.6410  225.3970 C   0  0  0  0  0  0  0  0  0  0  0  0
  141.2235   70.5828  224.4228 H   0  0  0  0  0  0  0  0  0  0  0  0
  141.0300   69.3460  226.1800 C   0  0  0  0  0  0  0  0  0  0  0  0
  140.4852   68.5090  225.7188 H   0  0  0  0  0  0  0  0  0  0  0  0
  142.1161   69.1761  226.1425 H   0  0  0  0  0  0  0  0  0  0  0  0
  140.6120   69.4610  227.6550 C   0  0  0  0  0  0  0  0  0  0  0  0
  139.5192   69.5740  227.7108 H   0  0  0  0  0  0  0  0  0  0  0  0
  140.9342   68.5503  228.1812 H   0  0  0  0  0  0  0  0  0  0  0  0
  141.2240   70.5770  228.2730 O   0  0  0  0  0  0  0  0  0  0  0  0
  140.7780   71.7730  227.6630 C   0  0  0  0  0  0  0  0  0  0  0  0
  139.6788   71.8048  227.6918 H   0  0  0  0  0  0  0  0  0  0  0  0
  141.1992   72.6282  228.2118 H   0  0  0  0  0  0  0  0  0  0  0  0
  141.2460   71.8450  226.2030 C   0  0  0  0  0  0  0  0  0  0  0  0
  140.8718   72.7749  225.7499 H   0  0  0  0  0  0  0  0  0  0  0  0
  142.3457   71.8249  226.1842 H   0  0  0  0  0  0  0  0  0  0  0  0
  140.0750   74.0030  222.2310 N   0  0  0  0  0  0  0  0  0  0  0  0
  141.8220   76.6310  220.3110 C   0  0  0  0  0  0  0  0  0  0  0  0
  141.5066   76.0573  219.4270 H   0  0  0  0  0  0  0  0  0  0  0  0
  142.9156   76.6125  220.4279 H   0  0  0  0  0  0  0  0  0  0  0  0
  141.3900   78.0890  220.1340 C   0  0  0  0  0  0  0  0  0  0  0  0
  140.3220   78.1225  219.8727 H   0  0  0  0  0  0  0  0  0  0  0  0
  141.9873   78.5456  219.3311 H   0  0  0  0  0  0  0  0  0  0  0  0
  1  2  1  0
  2  3  2  0
  3  4  1  0
  3  5  1  0
  5  6  1  0
  5  7  2  0
  7  8  1  0
  8  9  2  0
  9 10  1  0
  8 11  1  0
 11 12  1  0
 11 13  1  0
 11 14  1  0
 14 15  1  0
 15 16  1  0
 16 17  2  0
 17 18  1  0
 18 19  1  1
 18 20  1  0
 20 21  2  0
 21 22  1  0
 21 23  1  0
 23 24  1  0
 23 25  2  0
 25 26  1  0
 25 27  1  0
 27 28  1  0
 27 29  2  0
 29 30  1  0
 30 31  1  0
 30 32  1  0
 30 33  1  0
 33 34  1  0
 33 35  1  0
 17 36  1  0
 36 37  1  0
 36 38  1  0
 38 39  2  0
 39 40  1  0
 39 41  1  0
 41 42  1  0
 41 43  1  0
 41 44  1  0
 44 45  1  0
 44 46  1  0
 44 47  1  0
 47 48  1  0
 47 49  1  0
 49 50  1  0
 49 51  1  0
 49 52  1  0
 52 53  1  0
 52 54  1  0
 52 55  1  0
 55 56  1  0
 56 57  1  0
 56 58  1  0
 56 59  1  0
 59 60  1  0
 59 61  1  0
 38 62  1  0
 14 63  1  0
 63 64  1  0
 63 65  1  0
 63 66  1  0
 66 67  1  0
 66 68  1  0
  9  2  1  0
 62 15  2  0
 66  7  1  0
 33 18  1  0
 59 47  1  0
 29 20  1  0
M  CHG  1  39   1
M  END
>  <UniqueID>  (37) 
495

>  <SMILES>  (37) 
c1ccc2c(c1)CCN(c1nc([C@H]3CCc4ccccc43)[nH]/c(=[NH+]\CCC3CCOCC3)n1)C2

>  <Energy>  (37) 
83.47530777218503

>  <Genealogy>  (37) 
c1ccc2c(c1)CCN(c1nc([NH2+]CCC3CCOCC3)nc(C3CCc4ccccc43)n1)C2 (protonated)
c1ccc2c(c1)CCN(c1nc(C3CCc4ccccc43)[nH]c(=[NH+]CCC3CCOCC3)n1)C2 (tautomer)
c1ccc2c(c1)CCN(c1nc([C@H]3CCc4ccccc43)[nH]c(=[NH+]CCC3CCOCC3)n1)C2 (chirality)
c1ccc2c(c1)CCN(c1nc([C@H]3CCc4ccccc43)[nH]/c(=[NH+]\CCC3CCOCC3)n1)C2 (cis-trans isomerization)
c1ccc2c(c1)CCN(c1nc([C@H]3CCc4ccccc43)[nH]/c(=[NH+]\CCC3CCOCC3)n1)C2 (3D coordinates assigned)
c1ccc2c(c1)CCN(c1nc([C@H]3CCc4ccccc43)[nH]/c(=[NH+]\CCC3CCOCC3)n1)C2 (nonaromatic ring conformer: 83.47530777218503 kcal/mol)

>  <smiles>  (37) 
c1ccc2c(c1)CCN(c1nc(NCCC3CCOCC3)nc(C3CCc4ccccc43)n1)C2

>  <score_type>  (37) 
oracle

>  <origin>  (37) 
autodockgpu

>  <m_score__min__energy>  (37) 
-10.66

>  <m_primary>  (37) 
energy

>  <meeko>  (37) 
{"free_energy": -10.62, "intermolecular_energy": -12.41, "internal_energy": -1.01, "cluster_size": 7, "cluster_id": 1, "rank_in_cluster": 4}

>  <energy>  (37) 
-9.43

>  <cluster_rmsd>  (37) 
0.0

>  <rmsd>  (37) 
269.94

>  <cluster>  (37) 
4

$$$$
AOEMPDNDYKTPOZ-RFWLWHBWNA-O
     RDKit          3D

 68 73  0  0  0  0  0  0  0  0999 V2000
  140.9612   81.5392  224.6390 H   0  0  0  0  0  0  0  0  0  0  0  0
  141.0900   80.7910  223.8430 C   0  0  0  0  0  0  0  0  0  0  0  0
  142.1580   80.9000  222.9480 C   0  0  0  0  0  0  0  0  0  0  0  0
  142.8700   81.7333  223.0409 H   0  0  0  0  0  0  0  0  0  0  0  0
  142.3220   79.9510  221.9350 C   0  0  0  0  0  0  0  0  0  0  0  0
  143.1547   80.0467  221.2227 H   0  0  0  0  0  0  0  0  0  0  0  0
  141.4260   78.8760  221.8250 C   0  0  0  0  0  0  0  0  0  0  0  0
  140.3540   78.7620  222.7260 C   0  0  0  0  0  0  0  0  0  0  0  0
  140.1850   79.7310  223.7270 C   0  0  0  0  0  0  0  0  0  0  0  0
  139.3369   79.6565  224.4235 H   0  0  0  0  0  0  0  0  0  0  0  0
  139.3550   77.6410  222.5770 C   0  0  0  0  0  0  0  0  0  0  0  0
  138.5193   77.9951  221.9556 H   0  0  0  0  0  0  0  0  0  0  0  0
  139.0213   77.3580  223.5862 H   0  0  0  0  0  0  0  0  0  0  0  0
  139.9350   76.4390  221.9470 N   0  0  0  0  0  0  0  0  0  0  0  0
  139.2400   75.1820  222.0790 C   0  0  0  0  0  0  0  0  0  0  0  0
  137.8830   75.1500  222.1230 N   0  0  0  0  0  0  0  0  0  0  0  0
  137.2240   73.9720  222.2560 C   0  0  0  0  0  0  0  0  0  0  0  0
  135.7150   73.9690  222.2620 C   0  0  2  0  0  0  0  0  0  0  0  0
  135.4258   74.6296  221.4313 H   0  0  0  0  0  0  0  0  0  0  0  0
  135.1790   74.4210  223.5720 C   0  0  0  0  0  0  0  0  0  0  0  0
  135.3120   75.6900  224.1430 C   0  0  0  0  0  0  0  0  0  0  0  0
  135.8509   76.4891  223.6128 H   0  0  0  0  0  0  0  0  0  0  0  0
  134.7450   75.9260  225.4060 C   0  0  0  0  0  0  0  0  0  0  0  0
  134.8352   76.9184  225.8719 H   0  0  0  0  0  0  0  0  0  0  0  0
  134.0620   74.8950  226.0760 C   0  0  0  0  0  0  0  0  0  0  0  0
  133.6228   75.0820  227.0670 H   0  0  0  0  0  0  0  0  0  0  0  0
  133.9390   73.6280  225.4840 C   0  0  0  0  0  0  0  0  0  0  0  0
  133.4078   72.8162  226.0025 H   0  0  0  0  0  0  0  0  0  0  0  0
  134.5040   73.4180  224.2240 C   0  0  0  0  0  0  0  0  0  0  0  0
  134.4900   72.1560  223.4480 C   0  0  0  0  0  0  0  0  0  0  0  0
  133.4597   71.8025  223.2945 H   0  0  0  0  0  0  0  0  0  0  0  0
  135.0184   71.3380  223.9594 H   0  0  0  0  0  0  0  0  0  0  0  0
  135.1440   72.5380  222.1060 C   0  0  0  0  0  0  0  0  0  0  0  0
  134.3932   72.5180  221.3023 H   0  0  0  0  0  0  0  0  0  0  0  0
  135.9418   71.8269  221.8456 H   0  0  0  0  0  0  0  0  0  0  0  0
  137.9290   72.8080  222.3440 N   0  0  0  0  0  0  0  0  0  0  0  0
  137.4000   71.9190  222.4660 H   0  0  0  0  0  0  0  0  0  0  0  0
  139.2940   72.8250  222.2780 C   0  0  0  0  0  0  0  0  0  0  0  0
  140.0070   71.7280  222.3200 N   0  0  0  0  0  0  0  0  0  0  0  0
  140.7110   71.5670  221.5640 H   0  0  0  0  0  0  0  0  0  0  0  0
  139.9160   70.6860  223.3480 C   0  0  0  0  0  0  0  0  0  0  0  0
  138.9905   70.1131  223.1891 H   0  0  0  0  0  0  0  0  0  0  0  0
  140.8067   70.0469  223.2572 H   0  0  0  0  0  0  0  0  0  0  0  0
  139.8990   71.2680  224.7760 C   0  0  0  0  0  0  0  0  0  0  0  0
  139.8009   72.3612  224.7033 H   0  0  0  0  0  0  0  0  0  0  0  0
  139.0520   70.8019  225.3007 H   0  0  0  0  0  0  0  0  0  0  0  0
  141.1750   70.9450  225.6030 C   0  0  0  0  0  0  0  0  0  0  0  0
  142.0163   71.0903  224.9093 H   0  0  0  0  0  0  0  0  0  0  0  0
  141.2200   69.4860  226.1100 C   0  0  0  0  0  0  0  0  0  0  0  0
  140.9223   68.8142  225.2914 H   0  0  0  0  0  0  0  0  0  0  0  0
  142.2456   69.2686  226.4429 H   0  0  0  0  0  0  0  0  0  0  0  0
  140.2720   69.2720  227.3010 C   0  0  0  0  0  0  0  0  0  0  0  0
  139.2355   69.4283  226.9674 H   0  0  0  0  0  0  0  0  0  0  0  0
  140.4081   68.2466  227.6752 H   0  0  0  0  0  0  0  0  0  0  0  0
  140.5600   70.1750  228.3520 O   0  0  0  0  0  0  0  0  0  0  0  0
  140.3310   71.5040  227.9250 C   0  0  0  0  0  0  0  0  0  0  0  0
  139.3021   71.5888  227.5452 H   0  0  0  0  0  0  0  0  0  0  0  0
  140.4799   72.1801  228.7798 H   0  0  0  0  0  0  0  0  0  0  0  0
  141.3120   71.8940  226.8120 C   0  0  0  0  0  0  0  0  0  0  0  0
  141.0992   72.9235  226.4882 H   0  0  0  0  0  0  0  0  0  0  0  0
  142.3372   71.8198  227.2038 H   0  0  0  0  0  0  0  0  0  0  0  0
  139.9340   74.0180  222.1540 N   0  0  0  0  0  0  0  0  0  0  0  0
  141.2250   76.4720  221.2360 C   0  0  0  0  0  0  0  0  0  0  0  0
  141.1772   75.7811  220.3814 H   0  0  0  0  0  0  0  0  0  0  0  0
  142.0114   76.1741  221.9451 H   0  0  0  0  0  0  0  0  0  0  0  0
  141.5600   77.8740  220.7200 C   0  0  0  0  0  0  0  0  0  0  0  0
  140.8689   78.1364  219.9054 H   0  0  0  0  0  0  0  0  0  0  0  0
  142.5959   77.8830  220.3502 H   0  0  0  0  0  0  0  0  0  0  0  0
  1  2  1  0
  2  3  2  0
  3  4  1  0
  3  5  1  0
  5  6  1  0
  5  7  2  0
  7  8  1  0
  8  9  2  0
  9 10  1  0
  8 11  1  0
 11 12  1  0
 11 13  1  0
 11 14  1  0
 14 15  1  0
 15 16  1  0
 16 17  2  0
 17 18  1  0
 18 19  1  6
 18 20  1  0
 20 21  2  0
 21 22  1  0
 21 23  1  0
 23 24  1  0
 23 25  2  0
 25 26  1  0
 25 27  1  0
 27 28  1  0
 27 29  2  0
 29 30  1  0
 30 31  1  0
 30 32  1  0
 30 33  1  0
 33 34  1  0
 33 35  1  0
 17 36  1  0
 36 37  1  0
 36 38  1  0
 38 39  2  0
 39 40  1  0
 39 41  1  0
 41 42  1  0
 41 43  1  0
 41 44  1  0
 44 45  1  0
 44 46  1  0
 44 47  1  0
 47 48  1  0
 47 49  1  0
 49 50  1  0
 49 51  1  0
 49 52  1  0
 52 53  1  0
 52 54  1  0
 52 55  1  0
 55 56  1  0
 56 57  1  0
 56 58  1  0
 56 59  1  0
 59 60  1  0
 59 61  1  0
 38 62  1  0
 14 63  1  0
 63 64  1  0
 63 65  1  0
 63 66  1  0
 66 67  1  0
 66 68  1  0
  9  2  1  0
 62 15  2  0
 66  7  1  0
 33 18  1  0
 59 47  1  0
 29 20  1  0
M  CHG  1  39   1
M  END
>  <UniqueID>  (38) 
495

>  <SMILES>  (38) 
c1ccc2c(c1)CCN(c1nc([C@H]3CCc4ccccc43)[nH]/c(=[NH+]\CCC3CCOCC3)n1)C2

>  <Energy>  (38) 
83.47530777218503

>  <Genealogy>  (38) 
c1ccc2c(c1)CCN(c1nc([NH2+]CCC3CCOCC3)nc(C3CCc4ccccc43)n1)C2 (protonated)
c1ccc2c(c1)CCN(c1nc(C3CCc4ccccc43)[nH]c(=[NH+]CCC3CCOCC3)n1)C2 (tautomer)
c1ccc2c(c1)CCN(c1nc([C@H]3CCc4ccccc43)[nH]c(=[NH+]CCC3CCOCC3)n1)C2 (chirality)
c1ccc2c(c1)CCN(c1nc([C@H]3CCc4ccccc43)[nH]/c(=[NH+]\CCC3CCOCC3)n1)C2 (cis-trans isomerization)
c1ccc2c(c1)CCN(c1nc([C@H]3CCc4ccccc43)[nH]/c(=[NH+]\CCC3CCOCC3)n1)C2 (3D coordinates assigned)
c1ccc2c(c1)CCN(c1nc([C@H]3CCc4ccccc43)[nH]/c(=[NH+]\CCC3CCOCC3)n1)C2 (nonaromatic ring conformer: 83.47530777218503 kcal/mol)

>  <smiles>  (38) 
c1ccc2c(c1)CCN(c1nc(NCCC3CCOCC3)nc(C3CCc4ccccc43)n1)C2

>  <score_type>  (38) 
oracle

>  <origin>  (38) 
autodockgpu

>  <m_score__min__energy>  (38) 
-10.66

>  <m_primary>  (38) 
energy

>  <meeko>  (38) 
{"free_energy": -9.47, "intermolecular_energy": -11.26, "internal_energy": -0.87, "cluster_size": 3, "cluster_id": 3, "rank_in_cluster": 3}

>  <energy>  (38) 
-9.29

>  <cluster_rmsd>  (38) 
0.87

>  <rmsd>  (38) 
270.04

>  <cluster>  (38) 
4

$$$$
AOEMPDNDYKTPOZ-RFWLWHBWNA-O
     RDKit          3D

 68 73  0  0  0  0  0  0  0  0999 V2000
  142.0369   80.9317  224.7390 H   0  0  0  0  0  0  0  0  0  0  0  0
  141.9050   80.3690  223.8030 C   0  0  0  0  0  0  0  0  0  0  0  0
  142.1970   80.9740  222.5770 C   0  0  0  0  0  0  0  0  0  0  0  0
  142.5598   82.0121  222.5486 H   0  0  0  0  0  0  0  0  0  0  0  0
  142.0280   80.2600  221.3870 C   0  0  0  0  0  0  0  0  0  0  0  0
  142.2443   80.7424  220.4224 H   0  0  0  0  0  0  0  0  0  0  0  0
  141.5830   78.9290  221.4200 C   0  0  0  0  0  0  0  0  0  0  0  0
  141.2920   78.3180  222.6520 C   0  0  0  0  0  0  0  0  0  0  0  0
  141.4450   79.0480  223.8400 C   0  0  0  0  0  0  0  0  0  0  0  0
  141.2022   78.5798  224.8053 H   0  0  0  0  0  0  0  0  0  0  0  0
  140.7590   76.9070  222.6900 C   0  0  0  0  0  0  0  0  0  0  0  0
  139.6597   76.9466  222.6913 H   0  0  0  0  0  0  0  0  0  0  0  0
  141.1516   76.4295  223.5998 H   0  0  0  0  0  0  0  0  0  0  0  0
  141.2000   76.0970  221.5380 N   0  0  0  0  0  0  0  0  0  0  0  0
  141.0990   74.6610  221.6190 C   0  0  0  0  0  0  0  0  0  0  0  0
  142.0380   73.8740  221.0340 N   0  0  0  0  0  0  0  0  0  0  0  0
  141.9440   72.5220  221.0970 C   0  0  0  0  0  0  0  0  0  0  0  0
  143.0250   71.6780  220.4700 C   0  0  2  0  0  0  0  0  0  0  0  0
  143.0582   70.7618  221.0778 H   0  0  0  0  0  0  0  0  0  0  0  0
  144.3250   72.3990  220.4400 C   0  0  0  0  0  0  0  0  0  0  0  0
  145.0900   72.8000  221.5390 C   0  0  0  0  0  0  0  0  0  0  0  0
  144.7561   72.5804  222.5638 H   0  0  0  0  0  0  0  0  0  0  0  0
  146.2920   73.4880  221.3110 C   0  0  0  0  0  0  0  0  0  0  0  0
  146.9103   73.8102  222.1618 H   0  0  0  0  0  0  0  0  0  0  0  0
  146.7070   73.7660  219.9960 C   0  0  0  0  0  0  0  0  0  0  0  0
  147.6477   74.3086  219.8210 H   0  0  0  0  0  0  0  0  0  0  0  0
  145.9240   73.3530  218.9060 C   0  0  0  0  0  0  0  0  0  0  0  0
  146.2404   73.5689  217.8749 H   0  0  0  0  0  0  0  0  0  0  0  0
  144.7360   72.6630  219.1560 C   0  0  0  0  0  0  0  0  0  0  0  0
  143.7760   72.1610  218.1470 C   0  0  0  0  0  0  0  0  0  0  0  0
  144.2764   71.4950  217.4287 H   0  0  0  0  0  0  0  0  0  0  0  0
  143.3273   72.9692  217.5508 H   0  0  0  0  0  0  0  0  0  0  0  0
  142.7330   71.3870  218.9770 C   0  0  0  0  0  0  0  0  0  0  0  0
  142.8200   70.3084  218.7797 H   0  0  0  0  0  0  0  0  0  0  0  0
  141.7128   71.7009  218.7112 H   0  0  0  0  0  0  0  0  0  0  0  0
  140.8990   71.9480  221.7580 N   0  0  0  0  0  0  0  0  0  0  0  0
  140.8380   70.9070  221.7760 H   0  0  0  0  0  0  0  0  0  0  0  0
  139.9600   72.7290  222.3710 C   0  0  0  0  0  0  0  0  0  0  0  0
  138.9620   72.2180  223.0470 N   0  0  0  0  0  0  0  0  0  0  0  0
  138.2040   72.8610  223.3710 H   0  0  0  0  0  0  0  0  0  0  0  0
  138.7980   70.8030  223.3960 C   0  0  0  0  0  0  0  0  0  0  0  0
  137.7706   70.4956  223.1510 H   0  0  0  0  0  0  0  0  0  0  0  0
  139.5389   70.2279  222.8212 H   0  0  0  0  0  0  0  0  0  0  0  0
  139.0520   70.5330  224.8930 C   0  0  0  0  0  0  0  0  0  0  0  0
  138.6895   71.3982  225.4675 H   0  0  0  0  0  0  0  0  0  0  0  0
  138.5179   69.6051  225.1455 H   0  0  0  0  0  0  0  0  0  0  0  0
  140.5490   70.3030  225.2460 C   0  0  0  0  0  0  0  0  0  0  0  0
  141.0485   70.1116  224.2848 H   0  0  0  0  0  0  0  0  0  0  0  0
  140.7790   69.0770  226.1580 C   0  0  0  0  0  0  0  0  0  0  0  0
  140.1775   68.2356  225.7835 H   0  0  0  0  0  0  0  0  0  0  0  0
  141.8512   68.8317  226.1409 H   0  0  0  0  0  0  0  0  0  0  0  0
  140.3760   69.3700  227.6120 C   0  0  0  0  0  0  0  0  0  0  0  0
  139.2934   69.5604  227.6531 H   0  0  0  0  0  0  0  0  0  0  0  0
  140.6395   68.4987  228.2295 H   0  0  0  0  0  0  0  0  0  0  0  0
  141.0630   70.5000  228.1140 O   0  0  0  0  0  0  0  0  0  0  0  0
  140.6940   71.6540  227.3840 C   0  0  0  0  0  0  0  0  0  0  0  0
  139.5994   71.7605  227.4062 H   0  0  0  0  0  0  0  0  0  0  0  0
  141.1724   72.5312  227.8440 H   0  0  0  0  0  0  0  0  0  0  0  0
  141.1600   71.5460  225.9260 C   0  0  0  0  0  0  0  0  0  0  0  0
  140.8457   72.4473  225.3792 H   0  0  0  0  0  0  0  0  0  0  0  0
  142.2559   71.4524  225.9122 H   0  0  0  0  0  0  0  0  0  0  0  0
  140.0690   74.0810  222.2850 N   0  0  0  0  0  0  0  0  0  0  0  0
  141.7910   76.7060  220.3330 C   0  0  0  0  0  0  0  0  0  0  0  0
  141.4736   76.1295  219.4516 H   0  0  0  0  0  0  0  0  0  0  0  0
  142.8851   76.6901  220.4459 H   0  0  0  0  0  0  0  0  0  0  0  0
  141.3550   78.1630  220.1540 C   0  0  0  0  0  0  0  0  0  0  0  0
  140.2856   78.1937  219.8981 H   0  0  0  0  0  0  0  0  0  0  0  0
  141.9470   78.6187  219.3466 H   0  0  0  0  0  0  0  0  0  0  0  0
  1  2  1  0
  2  3  2  0
  3  4  1  0
  3  5  1  0
  5  6  1  0
  5  7  2  0
  7  8  1  0
  8  9  2  0
  9 10  1  0
  8 11  1  0
 11 12  1  0
 11 13  1  0
 11 14  1  0
 14 15  1  0
 15 16  1  0
 16 17  2  0
 17 18  1  0
 18 19  1  1
 18 20  1  0
 20 21  2  0
 21 22  1  0
 21 23  1  0
 23 24  1  0
 23 25  2  0
 25 26  1  0
 25 27  1  0
 27 28  1  0
 27 29  2  0
 29 30  1  0
 30 31  1  0
 30 32  1  0
 30 33  1  0
 33 34  1  0
 33 35  1  0
 17 36  1  0
 36 37  1  0
 36 38  1  0
 38 39  2  0
 39 40  1  0
 39 41  1  0
 41 42  1  0
 41 43  1  0
 41 44  1  0
 44 45  1  0
 44 46  1  0
 44 47  1  0
 47 48  1  0
 47 49  1  0
 49 50  1  0
 49 51  1  0
 49 52  1  0
 52 53  1  0
 52 54  1  0
 52 55  1  0
 55 56  1  0
 56 57  1  0
 56 58  1  0
 56 59  1  0
 59 60  1  0
 59 61  1  0
 38 62  1  0
 14 63  1  0
 63 64  1  0
 63 65  1  0
 63 66  1  0
 66 67  1  0
 66 68  1  0
  9  2  1  0
 62 15  2  0
 66  7  1  0
 33 18  1  0
 59 47  1  0
 29 20  1  0
M  CHG  1  39   1
M  END
>  <UniqueID>  (39) 
495

>  <SMILES>  (39) 
c1ccc2c(c1)CCN(c1nc([C@H]3CCc4ccccc43)[nH]/c(=[NH+]\CCC3CCOCC3)n1)C2

>  <Energy>  (39) 
83.47530777218503

>  <Genealogy>  (39) 
c1ccc2c(c1)CCN(c1nc([NH2+]CCC3CCOCC3)nc(C3CCc4ccccc43)n1)C2 (protonated)
c1ccc2c(c1)CCN(c1nc(C3CCc4ccccc43)[nH]c(=[NH+]CCC3CCOCC3)n1)C2 (tautomer)
c1ccc2c(c1)CCN(c1nc([C@H]3CCc4ccccc43)[nH]c(=[NH+]CCC3CCOCC3)n1)C2 (chirality)
c1ccc2c(c1)CCN(c1nc([C@H]3CCc4ccccc43)[nH]/c(=[NH+]\CCC3CCOCC3)n1)C2 (cis-trans isomerization)
c1ccc2c(c1)CCN(c1nc([C@H]3CCc4ccccc43)[nH]/c(=[NH+]\CCC3CCOCC3)n1)C2 (3D coordinates assigned)
c1ccc2c(c1)CCN(c1nc([C@H]3CCc4ccccc43)[nH]/c(=[NH+]\CCC3CCOCC3)n1)C2 (nonaromatic ring conformer: 83.47530777218503 kcal/mol)

>  <smiles>  (39) 
c1ccc2c(c1)CCN(c1nc(NCCC3CCOCC3)nc(C3CCc4ccccc43)n1)C2

>  <score_type>  (39) 
oracle

>  <origin>  (39) 
autodockgpu

>  <m_score__min__energy>  (39) 
-10.66

>  <m_primary>  (39) 
energy

>  <meeko>  (39) 
{"free_energy": -10.6, "intermolecular_energy": -12.39, "internal_energy": -1.0, "cluster_size": 7, "cluster_id": 1, "rank_in_cluster": 6}

>  <energy>  (39) 
-9.29

>  <cluster_rmsd>  (39) 
0.92

>  <rmsd>  (39) 
270.08

>  <cluster>  (39) 
4

$$$$
AOEMPDNDYKTPOZ-RFWLWHBWNA-O
     RDKit          3D

 68 73  0  0  0  0  0  0  0  0999 V2000
  142.0376   80.9044  224.7537 H   0  0  0  0  0  0  0  0  0  0  0  0
  141.9030   80.3470  223.8150 C   0  0  0  0  0  0  0  0  0  0  0  0
  142.1870   80.9610  222.5920 C   0  0  0  0  0  0  0  0  0  0  0  0
  142.5459   82.0006  222.5688 H   0  0  0  0  0  0  0  0  0  0  0  0
  142.0150   80.2540  221.3980 C   0  0  0  0  0  0  0  0  0  0  0  0
  142.2249   80.7432  220.4354 H   0  0  0  0  0  0  0  0  0  0  0  0
  141.5750   78.9210  221.4250 C   0  0  0  0  0  0  0  0  0  0  0  0
  141.2920   78.3010  222.6540 C   0  0  0  0  0  0  0  0  0  0  0  0
  141.4480   79.0250  223.8470 C   0  0  0  0  0  0  0  0  0  0  0  0
  141.2113   78.5504  224.8107 H   0  0  0  0  0  0  0  0  0  0  0  0
  140.7640   76.8890  222.6870 C   0  0  0  0  0  0  0  0  0  0  0  0
  139.6646   76.9249  222.6937 H   0  0  0  0  0  0  0  0  0  0  0  0
  141.1619   76.4075  223.5924 H   0  0  0  0  0  0  0  0  0  0  0  0
  141.2030   76.0870  221.5270 N   0  0  0  0  0  0  0  0  0  0  0  0
  141.1080   74.6500  221.6000 C   0  0  0  0  0  0  0  0  0  0  0  0
  142.0440   73.8700  221.0030 N   0  0  0  0  0  0  0  0  0  0  0  0
  141.9560   72.5180  221.0580 C   0  0  0  0  0  0  0  0  0  0  0  0
  143.0350   71.6810  220.4170 C   0  0  2  0  0  0  0  0  0  0  0  0
  143.0678   70.7559  221.0112 H   0  0  0  0  0  0  0  0  0  0  0  0
  144.3360   72.4000  220.3960 C   0  0  0  0  0  0  0  0  0  0  0  0
  145.1020   72.7850  221.5000 C   0  0  0  0  0  0  0  0  0  0  0  0
  144.7690   72.5520  222.5222 H   0  0  0  0  0  0  0  0  0  0  0  0
  146.3050   73.4750  221.2790 C   0  0  0  0  0  0  0  0  0  0  0  0
  146.9253   73.7844  222.1331 H   0  0  0  0  0  0  0  0  0  0  0  0
  146.7180   73.7710  219.9680 C   0  0  0  0  0  0  0  0  0  0  0  0
  147.6591   74.3150  219.7995 H   0  0  0  0  0  0  0  0  0  0  0  0
  145.9340   73.3750  218.8740 C   0  0  0  0  0  0  0  0  0  0  0  0
  146.2498   73.6052  217.8458 H   0  0  0  0  0  0  0  0  0  0  0  0
  144.7450   72.6830  219.1150 C   0  0  0  0  0  0  0  0  0  0  0  0
  143.7820   72.1960  218.1000 C   0  0  0  0  0  0  0  0  0  0  0  0
  144.2803   71.5395  217.3715 H   0  0  0  0  0  0  0  0  0  0  0  0
  143.3333   73.0129  217.5158 H   0  0  0  0  0  0  0  0  0  0  0  0
  142.7400   71.4120  218.9210 C   0  0  0  0  0  0  0  0  0  0  0  0
  142.8251   70.3362  218.7081 H   0  0  0  0  0  0  0  0  0  0  0  0
  141.7198   71.7313  218.6618 H   0  0  0  0  0  0  0  0  0  0  0  0
  140.9170   71.9350  221.7230 N   0  0  0  0  0  0  0  0  0  0  0  0
  140.8610   70.8950  221.7350 H   0  0  0  0  0  0  0  0  0  0  0  0
  139.9810   72.7100  222.3480 C   0  0  0  0  0  0  0  0  0  0  0  0
  138.9900   72.1910  223.0290 N   0  0  0  0  0  0  0  0  0  0  0  0
  138.1840   72.8090  223.2780 H   0  0  0  0  0  0  0  0  0  0  0  0
  138.8960   70.7980  223.4800 C   0  0  0  0  0  0  0  0  0  0  0  0
  137.8784   70.4303  223.2819 H   0  0  0  0  0  0  0  0  0  0  0  0
  139.6491   70.2153  222.9292 H   0  0  0  0  0  0  0  0  0  0  0  0
  139.1930   70.6470  224.9860 C   0  0  0  0  0  0  0  0  0  0  0  0
  138.7648   71.5130  225.5120 H   0  0  0  0  0  0  0  0  0  0  0  0
  138.7448   69.6948  225.3061 H   0  0  0  0  0  0  0  0  0  0  0  0
  140.7080   70.5690  225.3240 C   0  0  0  0  0  0  0  0  0  0  0  0
  141.2194   70.5062  224.3521 H   0  0  0  0  0  0  0  0  0  0  0  0
  141.0860   69.3160  226.1470 C   0  0  0  0  0  0  0  0  0  0  0  0
  140.5845   68.4387  225.7124 H   0  0  0  0  0  0  0  0  0  0  0  0
  142.1793   69.1996  226.1142 H   0  0  0  0  0  0  0  0  0  0  0  0
  140.6610   69.4560  227.6180 C   0  0  0  0  0  0  0  0  0  0  0  0
  139.5639   69.5157  227.6709 H   0  0  0  0  0  0  0  0  0  0  0  0
  141.0276   68.5796  228.1726 H   0  0  0  0  0  0  0  0  0  0  0  0
  141.2160   70.6210  228.2000 O   0  0  0  0  0  0  0  0  0  0  0  0
  140.7100   71.7730  227.5530 C   0  0  0  0  0  0  0  0  0  0  0  0
  139.6106   71.7495  227.5814 H   0  0  0  0  0  0  0  0  0  0  0  0
  141.0864   72.6654  228.0745 H   0  0  0  0  0  0  0  0  0  0  0  0
  141.1750   71.8230  226.0920 C   0  0  0  0  0  0  0  0  0  0  0  0
  140.7545   72.7181  225.6103 H   0  0  0  0  0  0  0  0  0  0  0  0
  142.2743   71.8582  226.0734 H   0  0  0  0  0  0  0  0  0  0  0  0
  140.0850   74.0620  222.2710 N   0  0  0  0  0  0  0  0  0  0  0  0
  141.7860   76.7060  220.3230 C   0  0  0  0  0  0  0  0  0  0  0  0
  141.4666   76.1338  219.4395 H   0  0  0  0  0  0  0  0  0  0  0  0
  142.8806   76.6937  220.4309 H   0  0  0  0  0  0  0  0  0  0  0  0
  141.3440   78.1620  220.1550 C   0  0  0  0  0  0  0  0  0  0  0  0
  140.2734   78.1903  219.9041 H   0  0  0  0  0  0  0  0  0  0  0  0
  141.9306   78.6249  219.3478 H   0  0  0  0  0  0  0  0  0  0  0  0
  1  2  1  0
  2  3  2  0
  3  4  1  0
  3  5  1  0
  5  6  1  0
  5  7  2  0
  7  8  1  0
  8  9  2  0
  9 10  1  0
  8 11  1  0
 11 12  1  0
 11 13  1  0
 11 14  1  0
 14 15  1  0
 15 16  1  0
 16 17  2  0
 17 18  1  0
 18 19  1  1
 18 20  1  0
 20 21  2  0
 21 22  1  0
 21 23  1  0
 23 24  1  0
 23 25  2  0
 25 26  1  0
 25 27  1  0
 27 28  1  0
 27 29  2  0
 29 30  1  0
 30 31  1  0
 30 32  1  0
 30 33  1  0
 33 34  1  0
 33 35  1  0
 17 36  1  0
 36 37  1  0
 36 38  1  0
 38 39  2  0
 39 40  1  0
 39 41  1  0
 41 42  1  0
 41 43  1  0
 41 44  1  0
 44 45  1  0
 44 46  1  0
 44 47  1  0
 47 48  1  0
 47 49  1  0
 49 50  1  0
 49 51  1  0
 49 52  1  0
 52 53  1  0
 52 54  1  0
 52 55  1  0
 55 56  1  0
 56 57  1  0
 56 58  1  0
 56 59  1  0
 59 60  1  0
 59 61  1  0
 38 62  1  0
 14 63  1  0
 63 64  1  0
 63 65  1  0
 63 66  1  0
 66 67  1  0
 66 68  1  0
  9  2  1  0
 62 15  2  0
 66  7  1  0
 33 18  1  0
 59 47  1  0
 29 20  1  0
M  CHG  1  39   1
M  END
>  <UniqueID>  (40) 
495

>  <SMILES>  (40) 
c1ccc2c(c1)CCN(c1nc([C@H]3CCc4ccccc43)[nH]/c(=[NH+]\CCC3CCOCC3)n1)C2

>  <Energy>  (40) 
83.47530777218503

>  <Genealogy>  (40) 
c1ccc2c(c1)CCN(c1nc([NH2+]CCC3CCOCC3)nc(C3CCc4ccccc43)n1)C2 (protonated)
c1ccc2c(c1)CCN(c1nc(C3CCc4ccccc43)[nH]c(=[NH+]CCC3CCOCC3)n1)C2 (tautomer)
c1ccc2c(c1)CCN(c1nc([C@H]3CCc4ccccc43)[nH]c(=[NH+]CCC3CCOCC3)n1)C2 (chirality)
c1ccc2c(c1)CCN(c1nc([C@H]3CCc4ccccc43)[nH]/c(=[NH+]\CCC3CCOCC3)n1)C2 (cis-trans isomerization)
c1ccc2c(c1)CCN(c1nc([C@H]3CCc4ccccc43)[nH]/c(=[NH+]\CCC3CCOCC3)n1)C2 (3D coordinates assigned)
c1ccc2c(c1)CCN(c1nc([C@H]3CCc4ccccc43)[nH]/c(=[NH+]\CCC3CCOCC3)n1)C2 (nonaromatic ring conformer: 83.47530777218503 kcal/mol)

>  <smiles>  (40) 
c1ccc2c(c1)CCN(c1nc(NCCC3CCOCC3)nc(C3CCc4ccccc43)n1)C2

>  <score_type>  (40) 
oracle

>  <origin>  (40) 
autodockgpu

>  <m_score__min__energy>  (40) 
-10.66

>  <m_primary>  (40) 
energy

>  <meeko>  (40) 
{"free_energy": -10.64, "intermolecular_energy": -12.43, "internal_energy": -1.01, "cluster_size": 7, "cluster_id": 1, "rank_in_cluster": 3}

>  <energy>  (40) 
-9.15

>  <cluster_rmsd>  (40) 
0.0

>  <rmsd>  (40) 
270.23

>  <cluster>  (40) 
5

$$$$
AOEMPDNDYKTPOZ-MVXFCSEMNA-N
     RDKit          3D

 67 72  0  0  0  0  0  0  0  0999 V2000
  142.1760   81.3380  222.6150 C   0  0  0  0  0  0  0  0  0  0  0  0
  142.0660   80.6620  223.8310 C   0  0  0  0  0  0  0  0  0  0  0  0
  141.6220   79.3380  223.8570 C   0  0  0  0  0  0  0  0  0  0  0  0
  141.2950   78.6740  222.6640 C   0  0  0  0  0  0  0  0  0  0  0  0
  141.3870   79.3650  221.4310 C   0  0  0  0  0  0  0  0  0  0  0  0
  141.8440   80.6930  221.4200 C   0  0  0  0  0  0  0  0  0  0  0  0
  141.1110   78.6740  220.1130 C   0  0  0  0  0  0  0  0  0  0  0  0
  140.2730   77.4050  220.2860 C   0  0  0  0  0  0  0  0  0  0  0  0
  140.8040   76.6270  221.4070 N   0  0  0  0  0  0  0  0  0  0  0  0
  141.3840   75.3220  221.2150 C   0  0  0  0  0  0  0  0  0  0  0  0
  140.7640   74.2230  221.7110 N   0  0  0  0  0  0  0  0  0  0  0  0
  141.2970   72.9870  221.5380 C   0  0  0  0  0  0  0  0  0  0  0  0
  140.6400   71.8340  222.0800 N   0  0  0  0  0  0  0  0  0  0  0  0
  139.9280   71.8760  223.3560 C   0  0  0  0  0  0  0  0  0  0  0  0
  140.5810   70.9220  224.3680 C   0  0  0  0  0  0  0  0  0  0  0  0
  140.0600   71.1360  225.8080 C   0  0  0  0  0  0  0  0  0  0  0  0
  141.1000   71.8840  226.6800 C   0  0  0  0  0  0  0  0  0  0  0  0
  140.9970   71.4490  228.1490 C   0  0  0  0  0  0  0  0  0  0  0  0
  141.2750   70.0680  228.3500 O   0  0  0  0  0  0  0  0  0  0  0  0
  140.8320   69.2210  227.2920 C   0  0  0  0  0  0  0  0  0  0  0  0
  139.6670   69.7900  226.4610 C   0  0  0  0  0  0  0  0  0  0  0  0
  142.4560   72.8490  220.8470 N   0  0  0  0  0  0  0  0  0  0  0  0
  143.0900   73.9450  220.3480 C   0  0  0  0  0  0  0  0  0  0  0  0
  144.3820   73.8030  219.5920 C   0  0  1  0  0  0  0  0  0  0  0  0
  145.6160   74.0280  220.4980 C   0  0  0  0  0  0  0  0  0  0  0  0
  146.3360   72.6740  220.6410 C   0  0  0  0  0  0  0  0  0  0  0  0
  145.6450   71.7970  219.6670 C   0  0  0  0  0  0  0  0  0  0  0  0
  145.9850   70.4820  219.3400 C   0  0  0  0  0  0  0  0  0  0  0  0
  145.2010   69.7960  218.4030 C   0  0  0  0  0  0  0  0  0  0  0  0
  144.0920   70.4270  217.8100 C   0  0  0  0  0  0  0  0  0  0  0  0
  143.7620   71.7450  218.1610 C   0  0  0  0  0  0  0  0  0  0  0  0
  144.5580   72.4130  219.0960 C   0  0  0  0  0  0  0  0  0  0  0  0
  142.5520   75.1780  220.5390 N   0  0  0  0  0  0  0  0  0  0  0  0
  140.7700   77.2620  222.7310 C   0  0  0  0  0  0  0  0  0  0  0  0
  142.5248   82.3811  222.5968 H   0  0  0  0  0  0  0  0  0  0  0  0
  142.3291   81.1722  224.7694 H   0  0  0  0  0  0  0  0  0  0  0  0
  141.5279   78.8120  224.8185 H   0  0  0  0  0  0  0  0  0  0  0  0
  141.9414   81.2293  220.4645 H   0  0  0  0  0  0  0  0  0  0  0  0
  140.5681   79.3694  219.4560 H   0  0  0  0  0  0  0  0  0  0  0  0
  142.0780   78.3816  219.6777 H   0  0  0  0  0  0  0  0  0  0  0  0
  139.2277   77.6794  220.4909 H   0  0  0  0  0  0  0  0  0  0  0  0
  140.3170   76.8045  219.3654 H   0  0  0  0  0  0  0  0  0  0  0  0
  140.6170   70.9520  221.5160 H   0  0  0  0  0  0  0  0  0  0  0  0
  139.9577   72.9012  223.7536 H   0  0  0  0  0  0  0  0  0  0  0  0
  138.8862   71.5628  223.1927 H   0  0  0  0  0  0  0  0  0  0  0  0
  140.3658   69.8865  224.0657 H   0  0  0  0  0  0  0  0  0  0  0  0
  141.6616   71.1275  224.3705 H   0  0  0  0  0  0  0  0  0  0  0  0
  139.1593   71.7642  225.7440 H   0  0  0  0  0  0  0  0  0  0  0  0
  142.1104   71.6593  226.3078 H   0  0  0  0  0  0  0  0  0  0  0  0
  140.8993   72.9638  226.6181 H   0  0  0  0  0  0  0  0  0  0  0  0
  141.7146   72.0386  228.7384 H   0  0  0  0  0  0  0  0  0  0  0  0
  139.9579   71.6208  228.4666 H   0  0  0  0  0  0  0  0  0  0  0  0
  141.6813   69.0436  226.6159 H   0  0  0  0  0  0  0  0  0  0  0  0
  140.4578   68.3010  227.7648 H   0  0  0  0  0  0  0  0  0  0  0  0
  139.4025   69.0706  225.6720 H   0  0  0  0  0  0  0  0  0  0  0  0
  138.8097   69.9606  227.1288 H   0  0  0  0  0  0  0  0  0  0  0  0
  144.3213   74.5473  218.7843 H   0  0  0  0  0  0  0  0  0  0  0  0
  146.2903   74.7656  220.0384 H   0  0  0  0  0  0  0  0  0  0  0  0
  145.3099   74.4108  221.4828 H   0  0  0  0  0  0  0  0  0  0  0  0
  147.4032   72.7703  220.3923 H   0  0  0  0  0  0  0  0  0  0  0  0
  146.2978   72.2801  221.6674 H   0  0  0  0  0  0  0  0  0  0  0  0
  146.8521   69.9943  219.8094 H   0  0  0  0  0  0  0  0  0  0  0  0
  145.4534   68.7607  218.1301 H   0  0  0  0  0  0  0  0  0  0  0  0
  143.4830   69.8866  217.0704 H   0  0  0  0  0  0  0  0  0  0  0  0
  142.8923   72.2437  217.7084 H   0  0  0  0  0  0  0  0  0  0  0  0
  139.7322   77.2805  223.0951 H   0  0  0  0  0  0  0  0  0  0  0  0
  141.4068   76.6823  223.4154 H   0  0  0  0  0  0  0  0  0  0  0  0
  1  2  2  0
  2  3  1  0
  3  4  2  0
  4  5  1  0
  5  6  2  0
  5  7  1  0
  7  8  1  0
  8  9  1  0
  9 10  1  0
 10 11  2  0
 11 12  1  0
 12 13  1  0
 13 14  1  0
 14 15  1  0
 15 16  1  0
 16 17  1  0
 17 18  1  0
 18 19  1  0
 19 20  1  0
 20 21  1  0
 12 22  2  0
 22 23  1  0
 23 24  1  0
 24 25  1  0
 25 26  1  0
 26 27  1  0
 27 28  2  0
 28 29  1  0
 29 30  2  0
 30 31  1  0
 31 32  2  0
 23 33  2  0
  9 34  1  0
  6  1  1  0
 33 10  1  0
 34  4  1  0
 21 16  1  0
 32 24  1  0
 32 27  1  0
  1 35  1  0
  2 36  1  0
  3 37  1  0
  6 38  1  0
  7 39  1  0
  7 40  1  0
  8 41  1  0
  8 42  1  0
 13 43  1  0
 14 44  1  0
 14 45  1  0
 15 46  1  0
 15 47  1  0
 16 48  1  0
 17 49  1  0
 17 50  1  0
 18 51  1  0
 18 52  1  0
 20 53  1  0
 20 54  1  0
 21 55  1  0
 21 56  1  0
 24 57  1  6
 25 58  1  0
 25 59  1  0
 26 60  1  0
 26 61  1  0
 28 62  1  0
 29 63  1  0
 30 64  1  0
 31 65  1  0
 34 66  1  0
 34 67  1  0
M  END
>  <UniqueID>  (41) 
496

>  <SMILES>  (41) 
c1ccc2c(c1)CCN(c1nc(NCCC3CCOCC3)nc([C@H]3CCc4ccccc43)n1)C2

>  <Energy>  (41) 
85.0895374977814

>  <Genealogy>  (41) 
c1ccc2c(c1)CCN(c1nc(NCCC3CCOCC3)nc([C@H]3CCc4ccccc43)n1)C2 (chirality)
c1ccc2c(c1)CCN(c1nc(NCCC3CCOCC3)nc([C@H]3CCc4ccccc43)n1)C2 (3D coordinates assigned)
c1ccc2c(c1)CCN(c1nc(NCCC3CCOCC3)nc([C@H]3CCc4ccccc43)n1)C2 (nonaromatic ring conformer: 85.0895374977814 kcal/mol)

>  <smiles>  (41) 
c1ccc2c(c1)CCN(c1nc(NCCC3CCOCC3)nc(C3CCc4ccccc43)n1)C2

>  <score_type>  (41) 
oracle

>  <origin>  (41) 
autodockgpu

>  <m_score__min__energy>  (41) 
-10.26

>  <m_primary>  (41) 
energy

>  <meeko>  (41) 
{"free_energy": -9.95, "intermolecular_energy": -11.74, "internal_energy": -1.09, "cluster_size": 7, "cluster_id": 1, "rank_in_cluster": 3}

>  <energy>  (41) 
-10.26

>  <cluster_rmsd>  (41) 
0.0

>  <rmsd>  (41) 
271.6

>  <cluster>  (41) 
1

$$$$
AOEMPDNDYKTPOZ-MVXFCSEMNA-N
     RDKit          3D

 67 72  0  0  0  0  0  0  0  0999 V2000
  145.6600   67.3890  219.3600 C   0  0  0  0  0  0  0  0  0  0  0  0
  146.3170   68.6190  219.2900 C   0  0  0  0  0  0  0  0  0  0  0  0
  145.5810   69.8050  219.2820 C   0  0  0  0  0  0  0  0  0  0  0  0
  144.1790   69.7730  219.3560 C   0  0  0  0  0  0  0  0  0  0  0  0
  143.5100   68.5260  219.4070 C   0  0  0  0  0  0  0  0  0  0  0  0
  144.2640   67.3420  219.4240 C   0  0  0  0  0  0  0  0  0  0  0  0
  142.0060   68.4400  219.5550 C   0  0  0  0  0  0  0  0  0  0  0  0
  141.3050   69.7350  219.1380 C   0  0  0  0  0  0  0  0  0  0  0  0
  142.0190   70.8750  219.7150 N   0  0  0  0  0  0  0  0  0  0  0  0
  141.4040   71.7350  220.6940 C   0  0  0  0  0  0  0  0  0  0  0  0
  141.6490   73.0690  220.6770 N   0  0  0  0  0  0  0  0  0  0  0  0
  141.0770   73.8930  221.5910 C   0  0  0  0  0  0  0  0  0  0  0  0
  141.3550   75.2980  221.5720 N   0  0  0  0  0  0  0  0  0  0  0  0
  140.3210   76.2880  221.2750 C   0  0  0  0  0  0  0  0  0  0  0  0
  140.2440   77.3370  222.3950 C   0  0  0  0  0  0  0  0  0  0  0  0
  141.4530   78.3020  222.3900 C   0  0  0  0  0  0  0  0  0  0  0  0
  141.8000   78.7810  223.8230 C   0  0  0  0  0  0  0  0  0  0  0  0
  142.3850   80.2000  223.7980 C   0  0  0  0  0  0  0  0  0  0  0  0
  141.4800   81.1760  223.2950 O   0  0  0  0  0  0  0  0  0  0  0  0
  140.6320   80.7040  222.2510 C   0  0  0  0  0  0  0  0  0  0  0  0
  141.1940   79.5090  221.4590 C   0  0  0  0  0  0  0  0  0  0  0  0
  140.2390   73.3770  222.5250 N   0  0  0  0  0  0  0  0  0  0  0  0
  139.9890   72.0390  222.5550 C   0  0  0  0  0  0  0  0  0  0  0  0
  139.0700   71.4570  223.5940 C   0  0  1  0  0  0  0  0  0  0  0  0
  138.3750   70.1650  223.0990 C   0  0  0  0  0  0  0  0  0  0  0  0
  138.9430   68.9930  223.9210 C   0  0  0  0  0  0  0  0  0  0  0  0
  139.7510   69.6520  224.9740 C   0  0  0  0  0  0  0  0  0  0  0  0
  140.4010   69.0270  226.0410 C   0  0  0  0  0  0  0  0  0  0  0  0
  141.1390   69.8140  226.9350 C   0  0  0  0  0  0  0  0  0  0  0  0
  141.2180   71.2070  226.7530 C   0  0  0  0  0  0  0  0  0  0  0  0
  140.5650   71.8130  225.6690 C   0  0  0  0  0  0  0  0  0  0  0  0
  139.8330   71.0100  224.7880 C   0  0  0  0  0  0  0  0  0  0  0  0
  140.5770   71.2240  221.6410 N   0  0  0  0  0  0  0  0  0  0  0  0
  143.4120   71.0700  219.2930 C   0  0  0  0  0  0  0  0  0  0  0  0
  146.2416   66.4553  219.3648 H   0  0  0  0  0  0  0  0  0  0  0  0
  147.4154   68.6534  219.2411 H   0  0  0  0  0  0  0  0  0  0  0  0
  146.1027   70.7712  219.2173 H   0  0  0  0  0  0  0  0  0  0  0  0
  143.7528   66.3701  219.4881 H   0  0  0  0  0  0  0  0  0  0  0  0
  141.6352   67.6185  218.9245 H   0  0  0  0  0  0  0  0  0  0  0  0
  141.7825   68.2642  220.6176 H   0  0  0  0  0  0  0  0  0  0  0  0
  141.3057   69.8172  218.0411 H   0  0  0  0  0  0  0  0  0  0  0  0
  140.2665   69.7269  219.5007 H   0  0  0  0  0  0  0  0  0  0  0  0
  142.3120   75.6300  221.8390 H   0  0  0  0  0  0  0  0  0  0  0  0
  140.5612   76.7889  220.3256 H   0  0  0  0  0  0  0  0  0  0  0  0
  139.3500   75.7768  221.1985 H   0  0  0  0  0  0  0  0  0  0  0  0
  139.3234   77.9248  222.2645 H   0  0  0  0  0  0  0  0  0  0  0  0
  140.2499   76.8004  223.3552 H   0  0  0  0  0  0  0  0  0  0  0  0
  142.3189   77.7459  222.0014 H   0  0  0  0  0  0  0  0  0  0  0  0
  140.8860   78.7787  224.4350 H   0  0  0  0  0  0  0  0  0  0  0  0
  142.5495   78.0987  224.2505 H   0  0  0  0  0  0  0  0  0  0  0  0
  142.6645   80.4799  224.8244 H   0  0  0  0  0  0  0  0  0  0  0  0
  143.2518   80.1818  223.1211 H   0  0  0  0  0  0  0  0  0  0  0  0
  139.6744   80.3992  222.6983 H   0  0  0  0  0  0  0  0  0  0  0  0
  140.5295   81.5322  221.5344 H   0  0  0  0  0  0  0  0  0  0  0  0
  140.4692   79.2174  220.6847 H   0  0  0  0  0  0  0  0  0  0  0  0
  142.1474   79.8092  220.9997 H   0  0  0  0  0  0  0  0  0  0  0  0
  138.3480   72.2569  223.8150 H   0  0  0  0  0  0  0  0  0  0  0  0
  137.2883   70.2401  223.2524 H   0  0  0  0  0  0  0  0  0  0  0  0
  138.5590   70.0117  222.0254 H   0  0  0  0  0  0  0  0  0  0  0  0
  138.1317   68.3979  224.3657 H   0  0  0  0  0  0  0  0  0  0  0  0
  139.5330   68.2940  223.3100 H   0  0  0  0  0  0  0  0  0  0  0  0
  140.3347   67.9374  226.1768 H   0  0  0  0  0  0  0  0  0  0  0  0
  141.6583   69.3414  227.7818 H   0  0  0  0  0  0  0  0  0  0  0  0
  141.7925   71.8218  227.4615 H   0  0  0  0  0  0  0  0  0  0  0  0
  140.6276   72.9003  225.5147 H   0  0  0  0  0  0  0  0  0  0  0  0
  143.4261   71.4471  218.2598 H   0  0  0  0  0  0  0  0  0  0  0  0
  143.8874   71.7932  219.9719 H   0  0  0  0  0  0  0  0  0  0  0  0
  1  2  2  0
  2  3  1  0
  3  4  2  0
  4  5  1  0
  5  6  2  0
  5  7  1  0
  7  8  1  0
  8  9  1  0
  9 10  1  0
 10 11  2  0
 11 12  1  0
 12 13  1  0
 13 14  1  0
 14 15  1  0
 15 16  1  0
 16 17  1  0
 17 18  1  0
 18 19  1  0
 19 20  1  0
 20 21  1  0
 12 22  2  0
 22 23  1  0
 23 24  1  0
 24 25  1  0
 25 26  1  0
 26 27  1  0
 27 28  2  0
 28 29  1  0
 29 30  2  0
 30 31  1  0
 31 32  2  0
 23 33  2  0
  9 34  1  0
  6  1  1  0
 33 10  1  0
 34  4  1  0
 21 16  1  0
 32 24  1  0
 32 27  1  0
  1 35  1  0
  2 36  1  0
  3 37  1  0
  6 38  1  0
  7 39  1  0
  7 40  1  0
  8 41  1  0
  8 42  1  0
 13 43  1  0
 14 44  1  0
 14 45  1  0
 15 46  1  0
 15 47  1  0
 16 48  1  0
 17 49  1  0
 17 50  1  0
 18 51  1  0
 18 52  1  0
 20 53  1  0
 20 54  1  0
 21 55  1  0
 21 56  1  0
 24 57  1  1
 25 58  1  0
 25 59  1  0
 26 60  1  0
 26 61  1  0
 28 62  1  0
 29 63  1  0
 30 64  1  0
 31 65  1  0
 34 66  1  0
 34 67  1  0
M  END
>  <UniqueID>  (42) 
496

>  <SMILES>  (42) 
c1ccc2c(c1)CCN(c1nc(NCCC3CCOCC3)nc([C@H]3CCc4ccccc43)n1)C2

>  <Energy>  (42) 
85.0895374977814

>  <Genealogy>  (42) 
c1ccc2c(c1)CCN(c1nc(NCCC3CCOCC3)nc([C@H]3CCc4ccccc43)n1)C2 (chirality)
c1ccc2c(c1)CCN(c1nc(NCCC3CCOCC3)nc([C@H]3CCc4ccccc43)n1)C2 (3D coordinates assigned)
c1ccc2c(c1)CCN(c1nc(NCCC3CCOCC3)nc([C@H]3CCc4ccccc43)n1)C2 (nonaromatic ring conformer: 85.0895374977814 kcal/mol)

>  <smiles>  (42) 
c1ccc2c(c1)CCN(c1nc(NCCC3CCOCC3)nc(C3CCc4ccccc43)n1)C2

>  <score_type>  (42) 
oracle

>  <origin>  (42) 
autodockgpu

>  <m_score__min__energy>  (42) 
-10.26

>  <m_primary>  (42) 
energy

>  <meeko>  (42) 
{"free_energy": -9.86, "intermolecular_energy": -11.65, "internal_energy": -1.18, "cluster_size": 3, "cluster_id": 2, "rank_in_cluster": 2}

>  <energy>  (42) 
-10.2

>  <cluster_rmsd>  (42) 
0.14

>  <rmsd>  (42) 
271.6

>  <cluster>  (42) 
1

$$$$
AOEMPDNDYKTPOZ-MVXFCSEMNA-N
     RDKit          3D

 67 72  0  0  0  0  0  0  0  0999 V2000
  145.6370   67.3810  219.3630 C   0  0  0  0  0  0  0  0  0  0  0  0
  146.3070   68.6050  219.3270 C   0  0  0  0  0  0  0  0  0  0  0  0
  145.5830   69.7990  219.3240 C   0  0  0  0  0  0  0  0  0  0  0  0
  144.1790   69.7800  219.3680 C   0  0  0  0  0  0  0  0  0  0  0  0
  143.4970   68.5380  219.3840 C   0  0  0  0  0  0  0  0  0  0  0  0
  144.2400   67.3460  219.3970 C   0  0  0  0  0  0  0  0  0  0  0  0
  141.9900   68.4640  219.4990 C   0  0  0  0  0  0  0  0  0  0  0  0
  141.3100   69.7730  219.0890 C   0  0  0  0  0  0  0  0  0  0  0  0
  142.0220   70.8960  219.7000 N   0  0  0  0  0  0  0  0  0  0  0  0
  141.3950   71.7460  220.6800 C   0  0  0  0  0  0  0  0  0  0  0  0
  141.6300   73.0820  220.6720 N   0  0  0  0  0  0  0  0  0  0  0  0
  141.0470   73.8960  221.5870 C   0  0  0  0  0  0  0  0  0  0  0  0
  141.3150   75.3030  221.5790 N   0  0  0  0  0  0  0  0  0  0  0  0
  140.2660   76.2900  221.3270 C   0  0  0  0  0  0  0  0  0  0  0  0
  140.2370   77.3420  222.4460 C   0  0  0  0  0  0  0  0  0  0  0  0
  141.4780   78.2650  222.4260 C   0  0  0  0  0  0  0  0  0  0  0  0
  141.8000   78.8100  223.8400 C   0  0  0  0  0  0  0  0  0  0  0  0
  142.4330   80.2070  223.7570 C   0  0  0  0  0  0  0  0  0  0  0  0
  141.5770   81.1820  223.1750 O   0  0  0  0  0  0  0  0  0  0  0  0
  140.7440   80.6810  222.1320 C   0  0  0  0  0  0  0  0  0  0  0  0
  141.2880   79.4270  221.4230 C   0  0  0  0  0  0  0  0  0  0  0  0
  140.2060   73.3680  222.5120 N   0  0  0  0  0  0  0  0  0  0  0  0
  139.9660   72.0290  222.5330 C   0  0  0  0  0  0  0  0  0  0  0  0
  139.0450   71.4330  223.5630 C   0  0  1  0  0  0  0  0  0  0  0  0
  138.3520   70.1470  223.0510 C   0  0  0  0  0  0  0  0  0  0  0  0
  138.9190   68.9660  223.8610 C   0  0  0  0  0  0  0  0  0  0  0  0
  139.7220   69.6140  224.9240 C   0  0  0  0  0  0  0  0  0  0  0  0
  140.3700   68.9770  225.9850 C   0  0  0  0  0  0  0  0  0  0  0  0
  141.1040   69.7550  226.8910 C   0  0  0  0  0  0  0  0  0  0  0  0
  141.1830   71.1500  226.7250 C   0  0  0  0  0  0  0  0  0  0  0  0
  140.5320   71.7670  225.6460 C   0  0  0  0  0  0  0  0  0  0  0  0
  139.8040   70.9740  224.7540 C   0  0  0  0  0  0  0  0  0  0  0  0
  140.5650   71.2230  221.6190 N   0  0  0  0  0  0  0  0  0  0  0  0
  143.4260   71.0850  219.3100 C   0  0  0  0  0  0  0  0  0  0  0  0
  146.2096   66.4418  219.3646 H   0  0  0  0  0  0  0  0  0  0  0  0
  147.4064   68.6290  219.3009 H   0  0  0  0  0  0  0  0  0  0  0  0
  146.1155   70.7608  219.2870 H   0  0  0  0  0  0  0  0  0  0  0  0
  143.7188   66.3780  219.4342 H   0  0  0  0  0  0  0  0  0  0  0  0
  141.6249   67.6567  218.8471 H   0  0  0  0  0  0  0  0  0  0  0  0
  141.7424   68.2726  220.5535 H   0  0  0  0  0  0  0  0  0  0  0  0
  141.3349   69.8734  217.9939 H   0  0  0  0  0  0  0  0  0  0  0  0
  140.2640   69.7689  219.4294 H   0  0  0  0  0  0  0  0  0  0  0  0
  142.2770   75.6380  221.8200 H   0  0  0  0  0  0  0  0  0  0  0  0
  140.4615   76.7888  220.3663 H   0  0  0  0  0  0  0  0  0  0  0  0
  139.2939   75.7761  221.2966 H   0  0  0  0  0  0  0  0  0  0  0  0
  139.3356   77.9607  222.3248 H   0  0  0  0  0  0  0  0  0  0  0  0
  140.2350   76.8067  223.4070 H   0  0  0  0  0  0  0  0  0  0  0  0
  142.3350   77.6601  222.0948 H   0  0  0  0  0  0  0  0  0  0  0  0
  140.8694   78.8702  224.4235 H   0  0  0  0  0  0  0  0  0  0  0  0
  142.5140   78.1285  224.3255 H   0  0  0  0  0  0  0  0  0  0  0  0
  142.6916   80.5335  224.7751 H   0  0  0  0  0  0  0  0  0  0  0  0
  143.3180   80.1241  223.1090 H   0  0  0  0  0  0  0  0  0  0  0  0
  139.7641   80.4321  222.5653 H   0  0  0  0  0  0  0  0  0  0  0  0
  140.6905   81.4717  221.3691 H   0  0  0  0  0  0  0  0  0  0  0  0
  140.5768   79.1171  220.6432 H   0  0  0  0  0  0  0  0  0  0  0  0
  142.2640   79.6704  220.9779 H   0  0  0  0  0  0  0  0  0  0  0  0
  138.3216   72.2296  223.7914 H   0  0  0  0  0  0  0  0  0  0  0  0
  137.2649   70.2197  223.2025 H   0  0  0  0  0  0  0  0  0  0  0  0
  138.5384   70.0064  221.9761 H   0  0  0  0  0  0  0  0  0  0  0  0
  138.1072   68.3644  224.2959 H   0  0  0  0  0  0  0  0  0  0  0  0
  139.5120   68.2750  223.2439 H   0  0  0  0  0  0  0  0  0  0  0  0
  140.3055   67.8857  226.1072 H   0  0  0  0  0  0  0  0  0  0  0  0
  141.6200   69.2733  227.7346 H   0  0  0  0  0  0  0  0  0  0  0  0
  141.7555   71.7573  227.4416 H   0  0  0  0  0  0  0  0  0  0  0  0
  140.5934   72.8561  225.5043 H   0  0  0  0  0  0  0  0  0  0  0  0
  143.4652   71.4785  218.2835 H   0  0  0  0  0  0  0  0  0  0  0  0
  143.8938   71.7930  220.0100 H   0  0  0  0  0  0  0  0  0  0  0  0
  1  2  2  0
  2  3  1  0
  3  4  2  0
  4  5  1  0
  5  6  2  0
  5  7  1  0
  7  8  1  0
  8  9  1  0
  9 10  1  0
 10 11  2  0
 11 12  1  0
 12 13  1  0
 13 14  1  0
 14 15  1  0
 15 16  1  0
 16 17  1  0
 17 18  1  0
 18 19  1  0
 19 20  1  0
 20 21  1  0
 12 22  2  0
 22 23  1  0
 23 24  1  0
 24 25  1  0
 25 26  1  0
 26 27  1  0
 27 28  2  0
 28 29  1  0
 29 30  2  0
 30 31  1  0
 31 32  2  0
 23 33  2  0
  9 34  1  0
  6  1  1  0
 33 10  1  0
 34  4  1  0
 21 16  1  0
 32 24  1  0
 32 27  1  0
  1 35  1  0
  2 36  1  0
  3 37  1  0
  6 38  1  0
  7 39  1  0
  7 40  1  0
  8 41  1  0
  8 42  1  0
 13 43  1  0
 14 44  1  0
 14 45  1  0
 15 46  1  0
 15 47  1  0
 16 48  1  0
 17 49  1  0
 17 50  1  0
 18 51  1  0
 18 52  1  0
 20 53  1  0
 20 54  1  0
 21 55  1  0
 21 56  1  0
 24 57  1  1
 25 58  1  0
 25 59  1  0
 26 60  1  0
 26 61  1  0
 28 62  1  0
 29 63  1  0
 30 64  1  0
 31 65  1  0
 34 66  1  0
 34 67  1  0
M  END
>  <UniqueID>  (43) 
496

>  <SMILES>  (43) 
c1ccc2c(c1)CCN(c1nc(NCCC3CCOCC3)nc([C@H]3CCc4ccccc43)n1)C2

>  <Energy>  (43) 
85.0895374977814

>  <Genealogy>  (43) 
c1ccc2c(c1)CCN(c1nc(NCCC3CCOCC3)nc([C@H]3CCc4ccccc43)n1)C2 (chirality)
c1ccc2c(c1)CCN(c1nc(NCCC3CCOCC3)nc([C@H]3CCc4ccccc43)n1)C2 (3D coordinates assigned)
c1ccc2c(c1)CCN(c1nc(NCCC3CCOCC3)nc([C@H]3CCc4ccccc43)n1)C2 (nonaromatic ring conformer: 85.0895374977814 kcal/mol)

>  <smiles>  (43) 
c1ccc2c(c1)CCN(c1nc(NCCC3CCOCC3)nc(C3CCc4ccccc43)n1)C2

>  <score_type>  (43) 
oracle

>  <origin>  (43) 
autodockgpu

>  <m_score__min__energy>  (43) 
-10.26

>  <m_primary>  (43) 
energy

>  <meeko>  (43) 
{"free_energy": -9.85, "intermolecular_energy": -11.64, "internal_energy": -1.18, "cluster_size": 3, "cluster_id": 2, "rank_in_cluster": 3}

>  <energy>  (43) 
-9.95

>  <cluster_rmsd>  (43) 
1.81

>  <rmsd>  (43) 
271.56

>  <cluster>  (43) 
1

$$$$
AOEMPDNDYKTPOZ-MVXFCSEMNA-N
     RDKit          3D

 67 72  0  0  0  0  0  0  0  0999 V2000
  139.9560   68.6950  228.1460 C   0  0  0  0  0  0  0  0  0  0  0  0
  140.8150   69.7880  228.2770 C   0  0  0  0  0  0  0  0  0  0  0  0
  141.0840   70.6020  227.1750 C   0  0  0  0  0  0  0  0  0  0  0  0
  140.4850   70.3370  225.9320 C   0  0  0  0  0  0  0  0  0  0  0  0
  139.6300   69.2170  225.7920 C   0  0  0  0  0  0  0  0  0  0  0  0
  139.3610   68.4130  226.9120 C   0  0  0  0  0  0  0  0  0  0  0  0
  138.9090   68.9280  224.4930 C   0  0  0  0  0  0  0  0  0  0  0  0
  139.5700   69.6140  223.2960 C   0  0  0  0  0  0  0  0  0  0  0  0
  139.8860   70.9990  223.6490 N   0  0  0  0  0  0  0  0  0  0  0  0
  139.2530   72.1120  222.9870 C   0  0  0  0  0  0  0  0  0  0  0  0
  140.0070   73.0490  222.3600 N   0  0  0  0  0  0  0  0  0  0  0  0
  139.4250   74.1010  221.7320 C   0  0  0  0  0  0  0  0  0  0  0  0
  140.2330   75.0930  221.0850 N   0  0  0  0  0  0  0  0  0  0  0  0
  141.6920   75.0860  221.1810 C   0  0  0  0  0  0  0  0  0  0  0  0
  142.2870   74.0130  220.2560 C   0  0  0  0  0  0  0  0  0  0  0  0
  143.5790   73.3860  220.8280 C   0  0  0  0  0  0  0  0  0  0  0  0
  144.8060   74.3020  220.5860 C   0  0  0  0  0  0  0  0  0  0  0  0
  146.0850   73.4690  220.4130 C   0  0  0  0  0  0  0  0  0  0  0  0
  146.0460   72.6020  219.2850 O   0  0  0  0  0  0  0  0  0  0  0  0
  144.7600   72.0520  219.0130 C   0  0  0  0  0  0  0  0  0  0  0  0
  143.8230   71.9790  220.2330 C   0  0  0  0  0  0  0  0  0  0  0  0
  138.0730   74.2100  221.7190 N   0  0  0  0  0  0  0  0  0  0  0  0
  137.3060   73.2780  222.3480 C   0  0  0  0  0  0  0  0  0  0  0  0
  135.8070   73.3970  222.3490 C   0  0  1  0  0  0  0  0  0  0  0  0
  135.1130   72.0140  222.2920 C   0  0  0  0  0  0  0  0  0  0  0  0
  134.4190   71.7910  223.6490 C   0  0  0  0  0  0  0  0  0  0  0  0
  134.5440   73.0990  224.3340 C   0  0  0  0  0  0  0  0  0  0  0  0
  133.9880   73.4520  225.5660 C   0  0  0  0  0  0  0  0  0  0  0  0
  134.2280   74.7380  226.0700 C   0  0  0  0  0  0  0  0  0  0  0  0
  135.0160   75.6480  225.3420 C   0  0  0  0  0  0  0  0  0  0  0  0
  135.5720   75.2690  224.1110 C   0  0  0  0  0  0  0  0  0  0  0  0
  135.3200   73.9830  223.6250 C   0  0  0  0  0  0  0  0  0  0  0  0
  137.9000   72.2350  222.9840 N   0  0  0  0  0  0  0  0  0  0  0  0
  140.8370   71.2040  224.7500 C   0  0  0  0  0  0  0  0  0  0  0  0
  139.7467   68.0543  229.0153 H   0  0  0  0  0  0  0  0  0  0  0  0
  141.2802   70.0079  229.2492 H   0  0  0  0  0  0  0  0  0  0  0  0
  141.7691   71.4561  227.2806 H   0  0  0  0  0  0  0  0  0  0  0  0
  138.6779   67.5560  226.8180 H   0  0  0  0  0  0  0  0  0  0  0  0
  138.9096   67.8413  224.3224 H   0  0  0  0  0  0  0  0  0  0  0  0
  137.8853   69.3205  224.5822 H   0  0  0  0  0  0  0  0  0  0  0  0
  140.4955   69.0814  223.0317 H   0  0  0  0  0  0  0  0  0  0  0  0
  138.8839   69.5991  222.4363 H   0  0  0  0  0  0  0  0  0  0  0  0
  139.7690   75.8070  220.4770 H   0  0  0  0  0  0  0  0  0  0  0  0
  142.0789   76.0727  220.8866 H   0  0  0  0  0  0  0  0  0  0  0  0
  141.9792   74.8602  222.2186 H   0  0  0  0  0  0  0  0  0  0  0  0
  141.5414   73.2167  220.1147 H   0  0  0  0  0  0  0  0  0  0  0  0
  142.5457   74.4996  219.3040 H   0  0  0  0  0  0  0  0  0  0  0  0
  143.4436   73.2822  221.9147 H   0  0  0  0  0  0  0  0  0  0  0  0
  144.6377   74.8970  219.6762 H   0  0  0  0  0  0  0  0  0  0  0  0
  144.9305   74.9610  221.4579 H   0  0  0  0  0  0  0  0  0  0  0  0
  146.9357   74.1564  220.2953 H   0  0  0  0  0  0  0  0  0  0  0  0
  146.1835   72.8353  221.3067 H   0  0  0  0  0  0  0  0  0  0  0  0
  144.2762   72.6740  218.2455 H   0  0  0  0  0  0  0  0  0  0  0  0
  144.9271   71.0152  218.6857 H   0  0  0  0  0  0  0  0  0  0  0  0
  142.8600   71.5478  219.9220 H   0  0  0  0  0  0  0  0  0  0  0  0
  144.2959   71.3500  221.0016 H   0  0  0  0  0  0  0  0  0  0  0  0
  135.5706   74.0154  221.4705 H   0  0  0  0  0  0  0  0  0  0  0  0
  134.3687   71.9998  221.4822 H   0  0  0  0  0  0  0  0  0  0  0  0
  135.8471   71.2187  222.0957 H   0  0  0  0  0  0  0  0  0  0  0  0
  133.3616   71.5228  223.5081 H   0  0  0  0  0  0  0  0  0  0  0  0
  134.8673   70.9672  224.2238 H   0  0  0  0  0  0  0  0  0  0  0  0
  133.3736   72.7346  226.1298 H   0  0  0  0  0  0  0  0  0  0  0  0
  133.7988   75.0364  227.0378 H   0  0  0  0  0  0  0  0  0  0  0  0
  135.1965   76.6581  225.7385 H   0  0  0  0  0  0  0  0  0  0  0  0
  136.1953   75.9716  223.5384 H   0  0  0  0  0  0  0  0  0  0  0  0
  141.8493   70.9480  224.4041 H   0  0  0  0  0  0  0  0  0  0  0  0
  140.7930   72.2581  225.0613 H   0  0  0  0  0  0  0  0  0  0  0  0
  1  2  2  0
  2  3  1  0
  3  4  2  0
  4  5  1  0
  5  6  2  0
  5  7  1  0
  7  8  1  0
  8  9  1  0
  9 10  1  0
 10 11  2  0
 11 12  1  0
 12 13  1  0
 13 14  1  0
 14 15  1  0
 15 16  1  0
 16 17  1  0
 17 18  1  0
 18 19  1  0
 19 20  1  0
 20 21  1  0
 12 22  2  0
 22 23  1  0
 23 24  1  0
 24 25  1  0
 25 26  1  0
 26 27  1  0
 27 28  2  0
 28 29  1  0
 29 30  2  0
 30 31  1  0
 31 32  2  0
 23 33  2  0
  9 34  1  0
  6  1  1  0
 33 10  1  0
 34  4  1  0
 21 16  1  0
 32 24  1  0
 32 27  1  0
  1 35  1  0
  2 36  1  0
  3 37  1  0
  6 38  1  0
  7 39  1  0
  7 40  1  0
  8 41  1  0
  8 42  1  0
 13 43  1  0
 14 44  1  0
 14 45  1  0
 15 46  1  0
 15 47  1  0
 16 48  1  0
 17 49  1  0
 17 50  1  0
 18 51  1  0
 18 52  1  0
 20 53  1  0
 20 54  1  0
 21 55  1  0
 21 56  1  0
 24 57  1  6
 25 58  1  0
 25 59  1  0
 26 60  1  0
 26 61  1  0
 28 62  1  0
 29 63  1  0
 30 64  1  0
 31 65  1  0
 34 66  1  0
 34 67  1  0
M  END
>  <UniqueID>  (44) 
496

>  <SMILES>  (44) 
c1ccc2c(c1)CCN(c1nc(NCCC3CCOCC3)nc([C@H]3CCc4ccccc43)n1)C2

>  <Energy>  (44) 
85.0895374977814

>  <Genealogy>  (44) 
c1ccc2c(c1)CCN(c1nc(NCCC3CCOCC3)nc([C@H]3CCc4ccccc43)n1)C2 (chirality)
c1ccc2c(c1)CCN(c1nc(NCCC3CCOCC3)nc([C@H]3CCc4ccccc43)n1)C2 (3D coordinates assigned)
c1ccc2c(c1)CCN(c1nc(NCCC3CCOCC3)nc([C@H]3CCc4ccccc43)n1)C2 (nonaromatic ring conformer: 85.0895374977814 kcal/mol)

>  <smiles>  (44) 
c1ccc2c(c1)CCN(c1nc(NCCC3CCOCC3)nc(C3CCc4ccccc43)n1)C2

>  <score_type>  (44) 
oracle

>  <origin>  (44) 
autodockgpu

>  <m_score__min__energy>  (44) 
-10.26

>  <m_primary>  (44) 
energy

>  <meeko>  (44) 
{"free_energy": -9.0, "intermolecular_energy": -10.79, "internal_energy": -1.38, "cluster_size": 2, "cluster_id": 5, "rank_in_cluster": 1}

>  <energy>  (44) 
-9.95

>  <cluster_rmsd>  (44) 
1.92

>  <rmsd>  (44) 
271.22

>  <cluster>  (44) 
1

$$$$
AOEMPDNDYKTPOZ-MVXFCSEMNA-N
     RDKit          3D

 67 72  0  0  0  0  0  0  0  0999 V2000
  141.7640   80.3900  222.8810 C   0  0  0  0  0  0  0  0  0  0  0  0
  140.6570   79.9930  223.6320 C   0  0  0  0  0  0  0  0  0  0  0  0
  140.0120   78.7890  223.3450 C   0  0  0  0  0  0  0  0  0  0  0  0
  140.4770   77.9620  222.3100 C   0  0  0  0  0  0  0  0  0  0  0  0
  141.5890   78.3720  221.5340 C   0  0  0  0  0  0  0  0  0  0  0  0
  142.2330   79.5820  221.8400 C   0  0  0  0  0  0  0  0  0  0  0  0
  142.1690   77.4870  220.4520 C   0  0  0  0  0  0  0  0  0  0  0  0
  141.1750   76.4270  219.9720 C   0  0  0  0  0  0  0  0  0  0  0  0
  140.5300   75.8120  221.1330 N   0  0  0  0  0  0  0  0  0  0  0  0
  140.7170   74.4200  221.4540 C   0  0  0  0  0  0  0  0  0  0  0  0
  139.9130   73.8170  222.3640 N   0  0  0  0  0  0  0  0  0  0  0  0
  140.0760   72.5070  222.6760 C   0  0  0  0  0  0  0  0  0  0  0  0
  139.2300   71.8850  223.6510 N   0  0  0  0  0  0  0  0  0  0  0  0
  139.7410   70.9020  224.6050 C   0  0  0  0  0  0  0  0  0  0  0  0
  140.8800   71.5060  225.4410 C   0  0  0  0  0  0  0  0  0  0  0  0
  141.3900   70.5400  226.5360 C   0  0  0  0  0  0  0  0  0  0  0  0
  140.9490   69.0810  226.2530 C   0  0  0  0  0  0  0  0  0  0  0  0
  140.7420   68.3080  227.5640 C   0  0  0  0  0  0  0  0  0  0  0  0
  139.7130   68.8510  228.3830 O   0  0  0  0  0  0  0  0  0  0  0  0
  139.6150   70.2720  228.3360 C   0  0  0  0  0  0  0  0  0  0  0  0
  140.9160   70.9920  227.9380 C   0  0  0  0  0  0  0  0  0  0  0  0
  141.0450   71.7870  222.0580 N   0  0  0  0  0  0  0  0  0  0  0  0
  141.8620   72.3810  221.1440 C   0  0  0  0  0  0  0  0  0  0  0  0
  142.9470   71.5950  220.4620 C   0  0  1  0  0  0  0  0  0  0  0  0
  142.6440   71.3630  218.9620 C   0  0  0  0  0  0  0  0  0  0  0  0
  143.6660   72.1840  218.1540 C   0  0  0  0  0  0  0  0  0  0  0  0
  144.6270   72.6640  219.1750 C   0  0  0  0  0  0  0  0  0  0  0  0
  145.8040   73.3790  218.9410 C   0  0  0  0  0  0  0  0  0  0  0  0
  146.5860   73.7670  220.0390 C   0  0  0  0  0  0  0  0  0  0  0  0
  146.1810   73.4420  221.3460 C   0  0  0  0  0  0  0  0  0  0  0  0
  144.9890   72.7310  221.5580 C   0  0  0  0  0  0  0  0  0  0  0  0
  144.2260   72.3520  220.4500 C   0  0  0  0  0  0  0  0  0  0  0  0
  141.6960   73.6970  220.8500 N   0  0  0  0  0  0  0  0  0  0  0  0
  139.7270   76.6930  221.9920 C   0  0  0  0  0  0  0  0  0  0  0  0
  142.2690   81.3405  223.1081 H   0  0  0  0  0  0  0  0  0  0  0  0
  140.2922   80.6298  224.4514 H   0  0  0  0  0  0  0  0  0  0  0  0
  139.1335   78.4860  223.9336 H   0  0  0  0  0  0  0  0  0  0  0  0
  143.1116   79.8962  221.2574 H   0  0  0  0  0  0  0  0  0  0  0  0
  142.4554   78.1162  219.5964 H   0  0  0  0  0  0  0  0  0  0  0  0
  143.0390   76.9642  220.8761 H   0  0  0  0  0  0  0  0  0  0  0  0
  140.4128   76.8991  219.3347 H   0  0  0  0  0  0  0  0  0  0  0  0
  141.7062   75.6571  219.3931 H   0  0  0  0  0  0  0  0  0  0  0  0
  138.2300   72.1880  223.7230 H   0  0  0  0  0  0  0  0  0  0  0  0
  138.9262   70.5900  225.2749 H   0  0  0  0  0  0  0  0  0  0  0  0
  140.1280   70.0349  224.0498 H   0  0  0  0  0  0  0  0  0  0  0  0
  141.7167   71.7523  224.7708 H   0  0  0  0  0  0  0  0  0  0  0  0
  140.4860   72.4016  225.9436 H   0  0  0  0  0  0  0  0  0  0  0  0
  142.4895   70.5693  226.5175 H   0  0  0  0  0  0  0  0  0  0  0  0
  140.0048   69.0930  225.6888 H   0  0  0  0  0  0  0  0  0  0  0  0
  141.7375   68.5817  225.6709 H   0  0  0  0  0  0  0  0  0  0  0  0
  140.4801   67.2683  227.3182 H   0  0  0  0  0  0  0  0  0  0  0  0
  141.6807   68.3765  228.1334 H   0  0  0  0  0  0  0  0  0  0  0  0
  138.8381   70.5382  227.6042 H   0  0  0  0  0  0  0  0  0  0  0  0
  139.3768   70.6017  229.3580 H   0  0  0  0  0  0  0  0  0  0  0  0
  140.7377   72.0774  227.9254 H   0  0  0  0  0  0  0  0  0  0  0  0
  141.6961   70.7395  228.6713 H   0  0  0  0  0  0  0  0  0  0  0  0
  143.0080   70.6505  221.0225 H   0  0  0  0  0  0  0  0  0  0  0  0
  142.7434   70.2948  218.7191 H   0  0  0  0  0  0  0  0  0  0  0  0
  141.6171   71.6745  218.7203 H   0  0  0  0  0  0  0  0  0  0  0  0
  144.1711   71.5538  217.4072 H   0  0  0  0  0  0  0  0  0  0  0  0
  143.1993   73.0063  217.5919 H   0  0  0  0  0  0  0  0  0  0  0  0
  146.1116   73.6328  217.9158 H   0  0  0  0  0  0  0  0  0  0  0  0
  147.5188   74.3271  219.8773 H   0  0  0  0  0  0  0  0  0  0  0  0
  146.7992   73.7454  222.2037 H   0  0  0  0  0  0  0  0  0  0  0  0
  144.6618   72.4770  222.5770 H   0  0  0  0  0  0  0  0  0  0  0  0
  138.7915   76.9479  221.4725 H   0  0  0  0  0  0  0  0  0  0  0  0
  139.5118   76.1661  222.9333 H   0  0  0  0  0  0  0  0  0  0  0  0
  1  2  2  0
  2  3  1  0
  3  4  2  0
  4  5  1  0
  5  6  2  0
  5  7  1  0
  7  8  1  0
  8  9  1  0
  9 10  1  0
 10 11  2  0
 11 12  1  0
 12 13  1  0
 13 14  1  0
 14 15  1  0
 15 16  1  0
 16 17  1  0
 17 18  1  0
 18 19  1  0
 19 20  1  0
 20 21  1  0
 12 22  2  0
 22 23  1  0
 23 24  1  0
 24 25  1  0
 25 26  1  0
 26 27  1  0
 27 28  2  0
 28 29  1  0
 29 30  2  0
 30 31  1  0
 31 32  2  0
 23 33  2  0
  9 34  1  0
  6  1  1  0
 33 10  1  0
 34  4  1  0
 21 16  1  0
 32 24  1  0
 32 27  1  0
  1 35  1  0
  2 36  1  0
  3 37  1  0
  6 38  1  0
  7 39  1  0
  7 40  1  0
  8 41  1  0
  8 42  1  0
 13 43  1  0
 14 44  1  0
 14 45  1  0
 15 46  1  0
 15 47  1  0
 16 48  1  0
 17 49  1  0
 17 50  1  0
 18 51  1  0
 18 52  1  0
 20 53  1  0
 20 54  1  0
 21 55  1  0
 21 56  1  0
 24 57  1  1
 25 58  1  0
 25 59  1  0
 26 60  1  0
 26 61  1  0
 28 62  1  0
 29 63  1  0
 30 64  1  0
 31 65  1  0
 34 66  1  0
 34 67  1  0
M  END
>  <UniqueID>  (45) 
496

>  <SMILES>  (45) 
c1ccc2c(c1)CCN(c1nc(NCCC3CCOCC3)nc([C@H]3CCc4ccccc43)n1)C2

>  <Energy>  (45) 
85.0895374977814

>  <Genealogy>  (45) 
c1ccc2c(c1)CCN(c1nc(NCCC3CCOCC3)nc([C@H]3CCc4ccccc43)n1)C2 (chirality)
c1ccc2c(c1)CCN(c1nc(NCCC3CCOCC3)nc([C@H]3CCc4ccccc43)n1)C2 (3D coordinates assigned)
c1ccc2c(c1)CCN(c1nc(NCCC3CCOCC3)nc([C@H]3CCc4ccccc43)n1)C2 (nonaromatic ring conformer: 85.0895374977814 kcal/mol)

>  <smiles>  (45) 
c1ccc2c(c1)CCN(c1nc(NCCC3CCOCC3)nc(C3CCc4ccccc43)n1)C2

>  <score_type>  (45) 
oracle

>  <origin>  (45) 
autodockgpu

>  <m_score__min__energy>  (45) 
-10.26

>  <m_primary>  (45) 
energy

>  <meeko>  (45) 
{"free_energy": -10.26, "intermolecular_energy": -12.05, "internal_energy": -1.41, "cluster_size": 7, "cluster_id": 1, "rank_in_cluster": 1}

>  <energy>  (45) 
-9.77

>  <cluster_rmsd>  (45) 
1.77

>  <rmsd>  (45) 
271.07

>  <cluster>  (45) 
1

$$$$
AOEMPDNDYKTPOZ-MVXFCSEMNA-N
     RDKit          3D

 67 72  0  0  0  0  0  0  0  0999 V2000
  142.6600   80.9920  223.0800 C   0  0  0  0  0  0  0  0  0  0  0  0
  142.0160   80.4250  224.1800 C   0  0  0  0  0  0  0  0  0  0  0  0
  141.2700   79.2540  224.0270 C   0  0  0  0  0  0  0  0  0  0  0  0
  141.1720   78.6330  222.7720 C   0  0  0  0  0  0  0  0  0  0  0  0
  141.8080   79.2180  221.6500 C   0  0  0  0  0  0  0  0  0  0  0  0
  142.5620   80.3900  221.8210 C   0  0  0  0  0  0  0  0  0  0  0  0
  141.7870   78.5520  220.2910 C   0  0  0  0  0  0  0  0  0  0  0  0
  140.6480   77.5390  220.1560 C   0  0  0  0  0  0  0  0  0  0  0  0
  140.5960   76.7110  221.3630 N   0  0  0  0  0  0  0  0  0  0  0  0
  140.8620   75.2960  221.3200 C   0  0  0  0  0  0  0  0  0  0  0  0
  140.2540   74.4620  222.2010 N   0  0  0  0  0  0  0  0  0  0  0  0
  140.4940   73.1270  222.1740 C   0  0  0  0  0  0  0  0  0  0  0  0
  139.8570   72.2590  223.1200 N   0  0  0  0  0  0  0  0  0  0  0  0
  140.5550   71.1220  223.7180 C   0  0  0  0  0  0  0  0  0  0  0  0
  140.7260   71.3320  225.2310 C   0  0  0  0  0  0  0  0  0  0  0  0
  139.9610   70.2800  226.0670 C   0  0  0  0  0  0  0  0  0  0  0  0
  140.8880   69.1140  226.4940 C   0  0  0  0  0  0  0  0  0  0  0  0
  140.1000   67.8000  226.6030 C   0  0  0  0  0  0  0  0  0  0  0  0
  139.5270   67.3810  225.3700 O   0  0  0  0  0  0  0  0  0  0  0  0
  139.0790   68.4490  224.5400 C   0  0  0  0  0  0  0  0  0  0  0  0
  138.7320   69.7460  225.2940 C   0  0  0  0  0  0  0  0  0  0  0  0
  141.3390   72.6180  221.2440 N   0  0  0  0  0  0  0  0  0  0  0  0
  141.9590   73.4440  220.3560 C   0  0  0  0  0  0  0  0  0  0  0  0
  142.9070   72.8900  219.3290 C   0  0  1  0  0  0  0  0  0  0  0  0
  144.3780   73.2620  219.6340 C   0  0  0  0  0  0  0  0  0  0  0  0
  145.1100   71.9630  220.0220 C   0  0  0  0  0  0  0  0  0  0  0  0
  144.1280   70.8950  219.7220 C   0  0  0  0  0  0  0  0  0  0  0  0
  144.3400   69.5170  219.8110 C   0  0  0  0  0  0  0  0  0  0  0  0
  143.2820   68.6510  219.5020 C   0  0  0  0  0  0  0  0  0  0  0  0
  142.0330   69.1690  219.1150 C   0  0  0  0  0  0  0  0  0  0  0  0
  141.8390   70.5570  219.0420 C   0  0  0  0  0  0  0  0  0  0  0  0
  142.9070   71.4040  219.3520 C   0  0  0  0  0  0  0  0  0  0  0  0
  141.7200   74.7800  220.4020 N   0  0  0  0  0  0  0  0  0  0  0  0
  140.3160   77.3990  222.6300 C   0  0  0  0  0  0  0  0  0  0  0  0
  143.2462   81.9146  223.2029 H   0  0  0  0  0  0  0  0  0  0  0  0
  142.0958   80.9005  225.1687 H   0  0  0  0  0  0  0  0  0  0  0  0
  140.7562   78.8158  224.8953 H   0  0  0  0  0  0  0  0  0  0  0  0
  143.0790   80.8377  220.9595 H   0  0  0  0  0  0  0  0  0  0  0  0
  141.6642   79.3266  219.5197 H   0  0  0  0  0  0  0  0  0  0  0  0
  142.7356   78.0087  220.1688 H   0  0  0  0  0  0  0  0  0  0  0  0
  139.6936   78.0722  220.0339 H   0  0  0  0  0  0  0  0  0  0  0  0
  140.8222   76.9012  219.2769 H   0  0  0  0  0  0  0  0  0  0  0  0
  138.8850   72.4810  223.4380 H   0  0  0  0  0  0  0  0  0  0  0  0
  139.9715   70.2061  223.5431 H   0  0  0  0  0  0  0  0  0  0  0  0
  141.5493   71.0315  223.2563 H   0  0  0  0  0  0  0  0  0  0  0  0
  141.7962   71.2673  225.4770 H   0  0  0  0  0  0  0  0  0  0  0  0
  140.3120   72.3204  225.4793 H   0  0  0  0  0  0  0  0  0  0  0  0
  139.6044   70.7784  226.9805 H   0  0  0  0  0  0  0  0  0  0  0  0
  141.6853   68.9950  225.7456 H   0  0  0  0  0  0  0  0  0  0  0  0
  141.3180   69.3490  227.4788 H   0  0  0  0  0  0  0  0  0  0  0  0
  140.7822   67.0126  226.9559 H   0  0  0  0  0  0  0  0  0  0  0  0
  139.2704   67.9760  227.3035 H   0  0  0  0  0  0  0  0  0  0  0  0
  139.8741   68.6763  223.8146 H   0  0  0  0  0  0  0  0  0  0  0  0
  138.1475   68.1055  224.0664 H   0  0  0  0  0  0  0  0  0  0  0  0
  138.4032   70.5065  224.5704 H   0  0  0  0  0  0  0  0  0  0  0  0
  137.9297   69.5299  226.0149 H   0  0  0  0  0  0  0  0  0  0  0  0
  142.5648   73.3083  218.3709 H   0  0  0  0  0  0  0  0  0  0  0  0
  144.8462   73.7058  218.7430 H   0  0  0  0  0  0  0  0  0  0  0  0
  144.4318   73.9972  220.4505 H   0  0  0  0  0  0  0  0  0  0  0  0
  146.0230   71.8345  219.4220 H   0  0  0  0  0  0  0  0  0  0  0  0
  145.4338   71.9573  221.0732 H   0  0  0  0  0  0  0  0  0  0  0  0
  145.3186   69.1192  220.1177 H   0  0  0  0  0  0  0  0  0  0  0  0
  143.4291   67.5626  219.5624 H   0  0  0  0  0  0  0  0  0  0  0  0
  141.2071   68.4853  218.8692 H   0  0  0  0  0  0  0  0  0  0  0  0
  140.8638   70.9711  218.7461 H   0  0  0  0  0  0  0  0  0  0  0  0
  139.2558   77.6911  222.6548 H   0  0  0  0  0  0  0  0  0  0  0  0
  140.5449   76.7145  223.4601 H   0  0  0  0  0  0  0  0  0  0  0  0
  1  2  2  0
  2  3  1  0
  3  4  2  0
  4  5  1  0
  5  6  2  0
  5  7  1  0
  7  8  1  0
  8  9  1  0
  9 10  1  0
 10 11  2  0
 11 12  1  0
 12 13  1  0
 13 14  1  0
 14 15  1  0
 15 16  1  0
 16 17  1  0
 17 18  1  0
 18 19  1  0
 19 20  1  0
 20 21  1  0
 12 22  2  0
 22 23  1  0
 23 24  1  0
 24 25  1  0
 25 26  1  0
 26 27  1  0
 27 28  2  0
 28 29  1  0
 29 30  2  0
 30 31  1  0
 31 32  2  0
 23 33  2  0
  9 34  1  0
  6  1  1  0
 33 10  1  0
 34  4  1  0
 21 16  1  0
 32 24  1  0
 32 27  1  0
  1 35  1  0
  2 36  1  0
  3 37  1  0
  6 38  1  0
  7 39  1  0
  7 40  1  0
  8 41  1  0
  8 42  1  0
 13 43  1  0
 14 44  1  0
 14 45  1  0
 15 46  1  0
 15 47  1  0
 16 48  1  0
 17 49  1  0
 17 50  1  0
 18 51  1  0
 18 52  1  0
 20 53  1  0
 20 54  1  0
 21 55  1  0
 21 56  1  0
 24 57  1  6
 25 58  1  0
 25 59  1  0
 26 60  1  0
 26 61  1  0
 28 62  1  0
 29 63  1  0
 30 64  1  0
 31 65  1  0
 34 66  1  0
 34 67  1  0
M  END
>  <UniqueID>  (46) 
496

>  <SMILES>  (46) 
c1ccc2c(c1)CCN(c1nc(NCCC3CCOCC3)nc([C@H]3CCc4ccccc43)n1)C2

>  <Energy>  (46) 
85.0895374977814

>  <Genealogy>  (46) 
c1ccc2c(c1)CCN(c1nc(NCCC3CCOCC3)nc([C@H]3CCc4ccccc43)n1)C2 (chirality)
c1ccc2c(c1)CCN(c1nc(NCCC3CCOCC3)nc([C@H]3CCc4ccccc43)n1)C2 (3D coordinates assigned)
c1ccc2c(c1)CCN(c1nc(NCCC3CCOCC3)nc([C@H]3CCc4ccccc43)n1)C2 (nonaromatic ring conformer: 85.0895374977814 kcal/mol)

>  <smiles>  (46) 
c1ccc2c(c1)CCN(c1nc(NCCC3CCOCC3)nc(C3CCc4ccccc43)n1)C2

>  <score_type>  (46) 
oracle

>  <origin>  (46) 
autodockgpu

>  <m_score__min__energy>  (46) 
-10.26

>  <m_primary>  (46) 
energy

>  <meeko>  (46) 
{"free_energy": -9.77, "intermolecular_energy": -11.56, "internal_energy": -1.2, "cluster_size": 7, "cluster_id": 1, "rank_in_cluster": 5}

>  <energy>  (46) 
-9.7

>  <cluster_rmsd>  (46) 
0.35

>  <rmsd>  (46) 
271.61

>  <cluster>  (46) 
1

$$$$
AOEMPDNDYKTPOZ-MVXFCSEMNA-N
     RDKit          3D

 67 72  0  0  0  0  0  0  0  0999 V2000
  142.1710   81.3790  222.4020 C   0  0  0  0  0  0  0  0  0  0  0  0
  142.4070   80.7610  223.6310 C   0  0  0  0  0  0  0  0  0  0  0  0
  142.0460   79.4260  223.8240 C   0  0  0  0  0  0  0  0  0  0  0  0
  141.4550   78.6920  222.7830 C   0  0  0  0  0  0  0  0  0  0  0  0
  141.1960   79.3220  221.5420 C   0  0  0  0  0  0  0  0  0  0  0  0
  141.5740   80.6630  221.3600 C   0  0  0  0  0  0  0  0  0  0  0  0
  140.6230   78.5570  220.3680 C   0  0  0  0  0  0  0  0  0  0  0  0
  139.9160   77.2710  220.8020 C   0  0  0  0  0  0  0  0  0  0  0  0
  140.7520   76.5690  221.7780 N   0  0  0  0  0  0  0  0  0  0  0  0
  141.3230   75.2770  221.4950 C   0  0  0  0  0  0  0  0  0  0  0  0
  140.7270   74.1520  221.9640 N   0  0  0  0  0  0  0  0  0  0  0  0
  141.2510   72.9280  221.7060 C   0  0  0  0  0  0  0  0  0  0  0  0
  140.6210   71.7480  222.2200 N   0  0  0  0  0  0  0  0  0  0  0  0
  139.8360   71.7640  223.4530 C   0  0  0  0  0  0  0  0  0  0  0  0
  140.6900   71.2940  224.6410 C   0  0  0  0  0  0  0  0  0  0  0  0
  139.8970   70.4050  225.6270 C   0  0  0  0  0  0  0  0  0  0  0  0
  140.7680   69.2430  226.1670 C   0  0  0  0  0  0  0  0  0  0  0  0
  139.9070   68.0070  226.4660 C   0  0  0  0  0  0  0  0  0  0  0  0
  139.2600   67.4770  225.3150 O   0  0  0  0  0  0  0  0  0  0  0  0
  138.8440   68.4610  224.3720 C   0  0  0  0  0  0  0  0  0  0  0  0
  138.6070   69.8610  224.9680 C   0  0  0  0  0  0  0  0  0  0  0  0
  142.3770   72.8270  220.9560 N   0  0  0  0  0  0  0  0  0  0  0  0
  142.9870   73.9480  220.4820 C   0  0  0  0  0  0  0  0  0  0  0  0
  144.2420   73.8460  219.6600 C   0  0  1  0  0  0  0  0  0  0  0  0
  145.5130   74.1220  220.5000 C   0  0  0  0  0  0  0  0  0  0  0  0
  146.2870   72.7950  220.6120 C   0  0  0  0  0  0  0  0  0  0  0  0
  145.5780   71.8870  219.6800 C   0  0  0  0  0  0  0  0  0  0  0  0
  145.9480   70.5830  219.3430 C   0  0  0  0  0  0  0  0  0  0  0  0
  145.1410   69.8620  218.4510 C   0  0  0  0  0  0  0  0  0  0  0  0
  143.9810   70.4500  217.9140 C   0  0  0  0  0  0  0  0  0  0  0  0
  143.6230   71.7580  218.2750 C   0  0  0  0  0  0  0  0  0  0  0  0
  144.4420   72.4600  219.1640 C   0  0  0  0  0  0  0  0  0  0  0  0
  142.4580   75.1680  220.7580 N   0  0  0  0  0  0  0  0  0  0  0  0
  141.0300   77.2680  223.0400 C   0  0  0  0  0  0  0  0  0  0  0  0
  142.4552   82.4311  222.2529 H   0  0  0  0  0  0  0  0  0  0  0  0
  142.8780   81.3264  224.4486 H   0  0  0  0  0  0  0  0  0  0  0  0
  142.2257   78.9464  224.7975 H   0  0  0  0  0  0  0  0  0  0  0  0
  141.3990   81.1530  220.3908 H   0  0  0  0  0  0  0  0  0  0  0  0
  139.8988   79.2000  219.8463 H   0  0  0  0  0  0  0  0  0  0  0  0
  141.4582   78.2760  219.7096 H   0  0  0  0  0  0  0  0  0  0  0  0
  138.9469   77.5200  221.2589 H   0  0  0  0  0  0  0  0  0  0  0  0
  139.7494   76.6267  219.9262 H   0  0  0  0  0  0  0  0  0  0  0  0
  140.6730   70.8620  221.6640 H   0  0  0  0  0  0  0  0  0  0  0  0
  139.4827   72.7881  223.6439 H   0  0  0  0  0  0  0  0  0  0  0  0
  138.9801   71.0826  223.3386 H   0  0  0  0  0  0  0  0  0  0  0  0
  141.5439   70.7177  224.2552 H   0  0  0  0  0  0  0  0  0  0  0  0
  141.0198   72.1886  225.1895 H   0  0  0  0  0  0  0  0  0  0  0  0
  139.6086   71.0346  226.4817 H   0  0  0  0  0  0  0  0  0  0  0  0
  141.5258   68.9807  225.4140 H   0  0  0  0  0  0  0  0  0  0  0  0
  141.2509   69.5694  227.0999 H   0  0  0  0  0  0  0  0  0  0  0  0
  140.5539   67.2264  226.8928 H   0  0  0  0  0  0  0  0  0  0  0  0
  139.1186   68.3220  227.1654 H   0  0  0  0  0  0  0  0  0  0  0  0
  139.6213   68.5447  223.5982 H   0  0  0  0  0  0  0  0  0  0  0  0
  137.8751   68.1229  223.9759 H   0  0  0  0  0  0  0  0  0  0  0  0
  138.2956   70.5462  224.1658 H   0  0  0  0  0  0  0  0  0  0  0  0
  137.8231   69.7883  225.7362 H   0  0  0  0  0  0  0  0  0  0  0  0
  144.1126   74.5809  218.8518 H   0  0  0  0  0  0  0  0  0  0  0  0
  146.1357   74.8798  220.0021 H   0  0  0  0  0  0  0  0  0  0  0  0
  145.2452   74.5013  221.4972 H   0  0  0  0  0  0  0  0  0  0  0  0
  147.3357   72.9270  220.3073 H   0  0  0  0  0  0  0  0  0  0  0  0
  146.3160   72.4072  221.6410 H   0  0  0  0  0  0  0  0  0  0  0  0
  146.8553   70.1301  219.7692 H   0  0  0  0  0  0  0  0  0  0  0  0
  145.4155   68.8344  218.1705 H   0  0  0  0  0  0  0  0  0  0  0  0
  143.3537   69.8835  217.2101 H   0  0  0  0  0  0  0  0  0  0  0  0
  142.7139   72.2227  217.8656 H   0  0  0  0  0  0  0  0  0  0  0  0
  140.1207   77.2695  223.6590 H   0  0  0  0  0  0  0  0  0  0  0  0
  141.8468   76.7453  223.5592 H   0  0  0  0  0  0  0  0  0  0  0  0
  1  2  2  0
  2  3  1  0
  3  4  2  0
  4  5  1  0
  5  6  2  0
  5  7  1  0
  7  8  1  0
  8  9  1  0
  9 10  1  0
 10 11  2  0
 11 12  1  0
 12 13  1  0
 13 14  1  0
 14 15  1  0
 15 16  1  0
 16 17  1  0
 17 18  1  0
 18 19  1  0
 19 20  1  0
 20 21  1  0
 12 22  2  0
 22 23  1  0
 23 24  1  0
 24 25  1  0
 25 26  1  0
 26 27  1  0
 27 28  2  0
 28 29  1  0
 29 30  2  0
 30 31  1  0
 31 32  2  0
 23 33  2  0
  9 34  1  0
  6  1  1  0
 33 10  1  0
 34  4  1  0
 21 16  1  0
 32 24  1  0
 32 27  1  0
  1 35  1  0
  2 36  1  0
  3 37  1  0
  6 38  1  0
  7 39  1  0
  7 40  1  0
  8 41  1  0
  8 42  1  0
 13 43  1  0
 14 44  1  0
 14 45  1  0
 15 46  1  0
 15 47  1  0
 16 48  1  0
 17 49  1  0
 17 50  1  0
 18 51  1  0
 18 52  1  0
 20 53  1  0
 20 54  1  0
 21 55  1  0
 21 56  1  0
 24 57  1  6
 25 58  1  0
 25 59  1  0
 26 60  1  0
 26 61  1  0
 28 62  1  0
 29 63  1  0
 30 64  1  0
 31 65  1  0
 34 66  1  0
 34 67  1  0
M  END
>  <UniqueID>  (47) 
496

>  <SMILES>  (47) 
c1ccc2c(c1)CCN(c1nc(NCCC3CCOCC3)nc([C@H]3CCc4ccccc43)n1)C2

>  <Energy>  (47) 
85.0895374977814

>  <Genealogy>  (47) 
c1ccc2c(c1)CCN(c1nc(NCCC3CCOCC3)nc([C@H]3CCc4ccccc43)n1)C2 (chirality)
c1ccc2c(c1)CCN(c1nc(NCCC3CCOCC3)nc([C@H]3CCc4ccccc43)n1)C2 (3D coordinates assigned)
c1ccc2c(c1)CCN(c1nc(NCCC3CCOCC3)nc([C@H]3CCc4ccccc43)n1)C2 (nonaromatic ring conformer: 85.0895374977814 kcal/mol)

>  <smiles>  (47) 
c1ccc2c(c1)CCN(c1nc(NCCC3CCOCC3)nc(C3CCc4ccccc43)n1)C2

>  <score_type>  (47) 
oracle

>  <origin>  (47) 
autodockgpu

>  <m_score__min__energy>  (47) 
-10.26

>  <m_primary>  (47) 
energy

>  <meeko>  (47) 
{"free_energy": -9.95, "intermolecular_energy": -11.74, "internal_energy": -1.14, "cluster_size": 7, "cluster_id": 1, "rank_in_cluster": 4}

>  <energy>  (47) 
-9.61

>  <cluster_rmsd>  (47) 
0.66

>  <rmsd>  (47) 
271.51

>  <cluster>  (47) 
1

$$$$
AOEMPDNDYKTPOZ-MVXFCSEMNA-N
     RDKit          3D

 67 72  0  0  0  0  0  0  0  0999 V2000
  141.8160   80.0020  222.8930 C   0  0  0  0  0  0  0  0  0  0  0  0
  140.7400   79.6240  223.6980 C   0  0  0  0  0  0  0  0  0  0  0  0
  140.0230   78.4610  223.4070 C   0  0  0  0  0  0  0  0  0  0  0  0
  140.3840   77.6580  222.3130 C   0  0  0  0  0  0  0  0  0  0  0  0
  141.4630   78.0500  221.4830 C   0  0  0  0  0  0  0  0  0  0  0  0
  142.1800   79.2170  221.7940 C   0  0  0  0  0  0  0  0  0  0  0  0
  141.9330   77.1850  220.3340 C   0  0  0  0  0  0  0  0  0  0  0  0
  140.8630   76.1900  219.8780 C   0  0  0  0  0  0  0  0  0  0  0  0
  140.2640   75.5570  221.0550 N   0  0  0  0  0  0  0  0  0  0  0  0
  140.4060   74.1460  221.3090 C   0  0  0  0  0  0  0  0  0  0  0  0
  141.2710   73.4060  220.5730 N   0  0  0  0  0  0  0  0  0  0  0  0
  141.4170   72.0760  220.8010 C   0  0  0  0  0  0  0  0  0  0  0  0
  142.3230   71.3020  220.0070 N   0  0  0  0  0  0  0  0  0  0  0  0
  143.6470   70.9190  220.4940 C   0  0  0  0  0  0  0  0  0  0  0  0
  144.6890   71.0390  219.3700 C   0  0  0  0  0  0  0  0  0  0  0  0
  145.4610   72.3770  219.4160 C   0  0  0  0  0  0  0  0  0  0  0  0
  145.5310   72.9410  220.8580 C   0  0  0  0  0  0  0  0  0  0  0  0
  145.5580   74.4770  220.8440 C   0  0  0  0  0  0  0  0  0  0  0  0
  144.3890   75.0570  220.2790 O   0  0  0  0  0  0  0  0  0  0  0  0
  143.8300   74.3150  219.1980 C   0  0  0  0  0  0  0  0  0  0  0  0
  144.8320   73.4130  218.4540 C   0  0  0  0  0  0  0  0  0  0  0  0
  140.6980   71.4840  221.7870 N   0  0  0  0  0  0  0  0  0  0  0  0
  139.8230   72.2150  222.5300 C   0  0  0  0  0  0  0  0  0  0  0  0
  139.0130   71.5640  223.6170 C   0  0  1  0  0  0  0  0  0  0  0  0
  138.2970   70.2840  223.1240 C   0  0  0  0  0  0  0  0  0  0  0  0
  138.9570   69.0850  223.8310 C   0  0  0  0  0  0  0  0  0  0  0  0
  139.8470   69.7100  224.8380 C   0  0  0  0  0  0  0  0  0  0  0  0
  140.6020   69.0470  225.8090 C   0  0  0  0  0  0  0  0  0  0  0  0
  141.4060   69.8060  226.6710 C   0  0  0  0  0  0  0  0  0  0  0  0
  141.4450   71.2070  226.5520 C   0  0  0  0  0  0  0  0  0  0  0  0
  140.6850   71.8510  225.5630 C   0  0  0  0  0  0  0  0  0  0  0  0
  139.8890   71.0760  224.7140 C   0  0  0  0  0  0  0  0  0  0  0  0
  139.6780   73.5430  222.2840 N   0  0  0  0  0  0  0  0  0  0  0  0
  139.5580   76.4370  221.9960 C   0  0  0  0  0  0  0  0  0  0  0  0
  142.3786   80.9188  223.1233 H   0  0  0  0  0  0  0  0  0  0  0  0
  140.4565   80.2425  224.5623 H   0  0  0  0  0  0  0  0  0  0  0  0
  139.1701   78.1723  224.0389 H   0  0  0  0  0  0  0  0  0  0  0  0
  143.0342   79.5159  221.1686 H   0  0  0  0  0  0  0  0  0  0  0  0
  142.1951   77.8352  219.4864 H   0  0  0  0  0  0  0  0  0  0  0  0
  142.8020   76.6074  220.6822 H   0  0  0  0  0  0  0  0  0  0  0  0
  140.0852   76.7206  219.3093 H   0  0  0  0  0  0  0  0  0  0  0  0
  141.3204   75.4221  219.2369 H   0  0  0  0  0  0  0  0  0  0  0  0
  142.0050   70.9460  219.0740 H   0  0  0  0  0  0  0  0  0  0  0  0
  143.9327   71.5810  221.3248 H   0  0  0  0  0  0  0  0  0  0  0  0
  143.6118   69.8744  220.8367 H   0  0  0  0  0  0  0  0  0  0  0  0
  145.4091   70.2132  219.4675 H   0  0  0  0  0  0  0  0  0  0  0  0
  144.1513   70.9973  218.4113 H   0  0  0  0  0  0  0  0  0  0  0  0
  146.4900   72.1766  219.0827 H   0  0  0  0  0  0  0  0  0  0  0  0
  144.6492   72.6012  221.4210 H   0  0  0  0  0  0  0  0  0  0  0  0
  146.4536   72.5771  221.3338 H   0  0  0  0  0  0  0  0  0  0  0  0
  145.6585   74.8335  221.8798 H   0  0  0  0  0  0  0  0  0  0  0  0
  146.4079   74.7812  220.2154 H   0  0  0  0  0  0  0  0  0  0  0  0
  143.0267   73.6787  219.5977 H   0  0  0  0  0  0  0  0  0  0  0  0
  143.4715   75.0532  218.4655 H   0  0  0  0  0  0  0  0  0  0  0  0
  144.3077   72.8822  217.6457 H   0  0  0  0  0  0  0  0  0  0  0  0
  145.6341   74.0431  218.0422 H   0  0  0  0  0  0  0  0  0  0  0  0
  138.3012   72.3373  223.9416 H   0  0  0  0  0  0  0  0  0  0  0  0
  137.2280   70.3292  223.3795 H   0  0  0  0  0  0  0  0  0  0  0  0
  138.3842   70.1867  222.0318 H   0  0  0  0  0  0  0  0  0  0  0  0
  138.1999   68.4521  224.3170 H   0  0  0  0  0  0  0  0  0  0  0  0
  139.4996   68.4285  223.1349 H   0  0  0  0  0  0  0  0  0  0  0  0
  140.5662   67.9510  225.8954 H   0  0  0  0  0  0  0  0  0  0  0  0
  142.0082   69.3043  227.4428 H   0  0  0  0  0  0  0  0  0  0  0  0
  142.0720   71.7989  227.2350 H   0  0  0  0  0  0  0  0  0  0  0  0
  140.7151   72.9455  225.4578 H   0  0  0  0  0  0  0  0  0  0  0  0
  138.6048   76.7534  221.5474 H   0  0  0  0  0  0  0  0  0  0  0  0
  139.3779   75.8823  222.9287 H   0  0  0  0  0  0  0  0  0  0  0  0
  1  2  2  0
  2  3  1  0
  3  4  2  0
  4  5  1  0
  5  6  2  0
  5  7  1  0
  7  8  1  0
  8  9  1  0
  9 10  1  0
 10 11  2  0
 11 12  1  0
 12 13  1  0
 13 14  1  0
 14 15  1  0
 15 16  1  0
 16 17  1  0
 17 18  1  0
 18 19  1  0
 19 20  1  0
 20 21  1  0
 12 22  2  0
 22 23  1  0
 23 24  1  0
 24 25  1  0
 25 26  1  0
 26 27  1  0
 27 28  2  0
 28 29  1  0
 29 30  2  0
 30 31  1  0
 31 32  2  0
 23 33  2  0
  9 34  1  0
  6  1  1  0
 33 10  1  0
 34  4  1  0
 21 16  1  0
 32 24  1  0
 32 27  1  0
  1 35  1  0
  2 36  1  0
  3 37  1  0
  6 38  1  0
  7 39  1  0
  7 40  1  0
  8 41  1  0
  8 42  1  0
 13 43  1  0
 14 44  1  0
 14 45  1  0
 15 46  1  0
 15 47  1  0
 16 48  1  0
 17 49  1  0
 17 50  1  0
 18 51  1  0
 18 52  1  0
 20 53  1  0
 20 54  1  0
 21 55  1  0
 21 56  1  0
 24 57  1  1
 25 58  1  0
 25 59  1  0
 26 60  1  0
 26 61  1  0
 28 62  1  0
 29 63  1  0
 30 64  1  0
 31 65  1  0
 34 66  1  0
 34 67  1  0
M  END
>  <UniqueID>  (48) 
496

>  <SMILES>  (48) 
c1ccc2c(c1)CCN(c1nc(NCCC3CCOCC3)nc([C@H]3CCc4ccccc43)n1)C2

>  <Energy>  (48) 
85.0895374977814

>  <Genealogy>  (48) 
c1ccc2c(c1)CCN(c1nc(NCCC3CCOCC3)nc([C@H]3CCc4ccccc43)n1)C2 (chirality)
c1ccc2c(c1)CCN(c1nc(NCCC3CCOCC3)nc([C@H]3CCc4ccccc43)n1)C2 (3D coordinates assigned)
c1ccc2c(c1)CCN(c1nc(NCCC3CCOCC3)nc([C@H]3CCc4ccccc43)n1)C2 (nonaromatic ring conformer: 85.0895374977814 kcal/mol)

>  <smiles>  (48) 
c1ccc2c(c1)CCN(c1nc(NCCC3CCOCC3)nc(C3CCc4ccccc43)n1)C2

>  <score_type>  (48) 
oracle

>  <origin>  (48) 
autodockgpu

>  <m_score__min__energy>  (48) 
-10.26

>  <m_primary>  (48) 
energy

>  <meeko>  (48) 
{"free_energy": -8.73, "intermolecular_energy": -10.51, "internal_energy": -1.88, "cluster_size": 3, "cluster_id": 3, "rank_in_cluster": 3}

>  <energy>  (48) 
-9.86

>  <cluster_rmsd>  (48) 
0.0

>  <rmsd>  (48) 
270.89

>  <cluster>  (48) 
2

$$$$
AOEMPDNDYKTPOZ-MVXFCSEMNA-N
     RDKit          3D

 67 72  0  0  0  0  0  0  0  0999 V2000
  145.6180   67.3110  219.3050 C   0  0  0  0  0  0  0  0  0  0  0  0
  146.2780   68.5410  219.2760 C   0  0  0  0  0  0  0  0  0  0  0  0
  145.5450   69.7290  219.3020 C   0  0  0  0  0  0  0  0  0  0  0  0
  144.1420   69.6980  219.3690 C   0  0  0  0  0  0  0  0  0  0  0  0
  143.4700   68.4510  219.3770 C   0  0  0  0  0  0  0  0  0  0  0  0
  144.2220   67.2640  219.3610 C   0  0  0  0  0  0  0  0  0  0  0  0
  141.9660   68.3630  219.5160 C   0  0  0  0  0  0  0  0  0  0  0  0
  141.2690   69.6720  219.1370 C   0  0  0  0  0  0  0  0  0  0  0  0
  141.9820   70.7920  219.7530 N   0  0  0  0  0  0  0  0  0  0  0  0
  141.3650   71.6230  220.7550 C   0  0  0  0  0  0  0  0  0  0  0  0
  141.6190   72.9550  220.7860 N   0  0  0  0  0  0  0  0  0  0  0  0
  141.0450   73.7500  221.7230 C   0  0  0  0  0  0  0  0  0  0  0  0
  141.3330   75.1530  221.7550 N   0  0  0  0  0  0  0  0  0  0  0  0
  140.2890   76.1620  221.5790 C   0  0  0  0  0  0  0  0  0  0  0  0
  140.9040   77.5700  221.5330 C   0  0  0  0  0  0  0  0  0  0  0  0
  140.5680   78.4060  222.7890 C   0  0  0  0  0  0  0  0  0  0  0  0
  139.9100   79.7570  222.4090 C   0  0  0  0  0  0  0  0  0  0  0  0
  140.2660   80.8460  223.4320 C   0  0  0  0  0  0  0  0  0  0  0  0
  141.6590   81.1230  223.5000 O   0  0  0  0  0  0  0  0  0  0  0  0
  142.4930   79.9830  223.3090 C   0  0  0  0  0  0  0  0  0  0  0  0
  141.8290   78.6380  223.6550 C   0  0  0  0  0  0  0  0  0  0  0  0
  140.1950   73.2080  222.6310 N   0  0  0  0  0  0  0  0  0  0  0  0
  139.9360   71.8720  222.6130 C   0  0  0  0  0  0  0  0  0  0  0  0
  139.0040   71.2610  223.6240 C   0  0  1  0  0  0  0  0  0  0  0  0
  138.3130   69.9860  223.0830 C   0  0  0  0  0  0  0  0  0  0  0  0
  138.8700   68.7890  223.8770 C   0  0  0  0  0  0  0  0  0  0  0  0
  139.6650   69.4160  224.9580 C   0  0  0  0  0  0  0  0  0  0  0  0
  140.3020   68.7590  226.0140 C   0  0  0  0  0  0  0  0  0  0  0  0
  141.0300   69.5190  226.9400 C   0  0  0  0  0  0  0  0  0  0  0  0
  141.1130   70.9160  226.7990 C   0  0  0  0  0  0  0  0  0  0  0  0
  140.4730   71.5540  225.7260 C   0  0  0  0  0  0  0  0  0  0  0  0
  139.7520   70.7790  224.8140 C   0  0  0  0  0  0  0  0  0  0  0  0
  140.5260   71.0850  221.6770 N   0  0  0  0  0  0  0  0  0  0  0  0
  143.3780   70.9970  219.3430 C   0  0  0  0  0  0  0  0  0  0  0  0
  146.1980   66.3766  219.2837 H   0  0  0  0  0  0  0  0  0  0  0  0
  147.3766   68.5741  219.2326 H   0  0  0  0  0  0  0  0  0  0  0  0
  146.0693   70.6955  219.2698 H   0  0  0  0  0  0  0  0  0  0  0  0
  143.7088   66.2916  219.3927 H   0  0  0  0  0  0  0  0  0  0  0  0
  141.5964   67.5624  218.8584 H   0  0  0  0  0  0  0  0  0  0  0  0
  141.7377   68.1541  220.5716 H   0  0  0  0  0  0  0  0  0  0  0  0
  141.2750   69.7888  218.0432 H   0  0  0  0  0  0  0  0  0  0  0  0
  140.2289   69.6542  219.4945 H   0  0  0  0  0  0  0  0  0  0  0  0
  142.3080   75.4660  221.9710 H   0  0  0  0  0  0  0  0  0  0  0  0
  139.7545   75.9694  220.6371 H   0  0  0  0  0  0  0  0  0  0  0  0
  139.5924   76.1054  222.4285 H   0  0  0  0  0  0  0  0  0  0  0  0
  141.9971   77.4747  221.4551 H   0  0  0  0  0  0  0  0  0  0  0  0
  140.4794   78.0910  220.6622 H   0  0  0  0  0  0  0  0  0  0  0  0
  139.8421   77.8320  223.3837 H   0  0  0  0  0  0  0  0  0  0  0  0
  140.2678   80.0652  221.4155 H   0  0  0  0  0  0  0  0  0  0  0  0
  138.8178   79.6262  222.4001 H   0  0  0  0  0  0  0  0  0  0  0  0
  139.7397   81.7710  223.1540 H   0  0  0  0  0  0  0  0  0  0  0  0
  139.9600   80.4749  224.4212 H   0  0  0  0  0  0  0  0  0  0  0  0
  142.7972   79.9536  222.2523 H   0  0  0  0  0  0  0  0  0  0  0  0
  143.3416   80.0984  223.9993 H   0  0  0  0  0  0  0  0  0  0  0  0
  142.5464   77.8245  223.4718 H   0  0  0  0  0  0  0  0  0  0  0  0
  141.5301   78.6555  224.7135 H   0  0  0  0  0  0  0  0  0  0  0  0
  138.2802   72.0550  223.8600 H   0  0  0  0  0  0  0  0  0  0  0  0
  137.2247   70.0585  223.2259 H   0  0  0  0  0  0  0  0  0  0  0  0
  138.5091   69.8642  222.0075 H   0  0  0  0  0  0  0  0  0  0  0  0
  138.0529   68.1820  224.2940 H   0  0  0  0  0  0  0  0  0  0  0  0
  139.4666   68.1073  223.2530 H   0  0  0  0  0  0  0  0  0  0  0  0
  140.2335   67.6660  226.1167 H   0  0  0  0  0  0  0  0  0  0  0  0
  141.5378   69.0214  227.7794 H   0  0  0  0  0  0  0  0  0  0  0  0
  141.6806   71.5091  227.5312 H   0  0  0  0  0  0  0  0  0  0  0  0
  140.5377   72.6454  225.6047 H   0  0  0  0  0  0  0  0  0  0  0  0
  143.3973   71.4059  218.3220 H   0  0  0  0  0  0  0  0  0  0  0  0
  143.8518   71.6977  220.0462 H   0  0  0  0  0  0  0  0  0  0  0  0
  1  2  2  0
  2  3  1  0
  3  4  2  0
  4  5  1  0
  5  6  2  0
  5  7  1  0
  7  8  1  0
  8  9  1  0
  9 10  1  0
 10 11  2  0
 11 12  1  0
 12 13  1  0
 13 14  1  0
 14 15  1  0
 15 16  1  0
 16 17  1  0
 17 18  1  0
 18 19  1  0
 19 20  1  0
 20 21  1  0
 12 22  2  0
 22 23  1  0
 23 24  1  0
 24 25  1  0
 25 26  1  0
 26 27  1  0
 27 28  2  0
 28 29  1  0
 29 30  2  0
 30 31  1  0
 31 32  2  0
 23 33  2  0
  9 34  1  0
  6  1  1  0
 33 10  1  0
 34  4  1  0
 21 16  1  0
 32 24  1  0
 32 27  1  0
  1 35  1  0
  2 36  1  0
  3 37  1  0
  6 38  1  0
  7 39  1  0
  7 40  1  0
  8 41  1  0
  8 42  1  0
 13 43  1  0
 14 44  1  0
 14 45  1  0
 15 46  1  0
 15 47  1  0
 16 48  1  0
 17 49  1  0
 17 50  1  0
 18 51  1  0
 18 52  1  0
 20 53  1  0
 20 54  1  0
 21 55  1  0
 21 56  1  0
 24 57  1  1
 25 58  1  0
 25 59  1  0
 26 60  1  0
 26 61  1  0
 28 62  1  0
 29 63  1  0
 30 64  1  0
 31 65  1  0
 34 66  1  0
 34 67  1  0
M  END
>  <UniqueID>  (49) 
496

>  <SMILES>  (49) 
c1ccc2c(c1)CCN(c1nc(NCCC3CCOCC3)nc([C@H]3CCc4ccccc43)n1)C2

>  <Energy>  (49) 
85.0895374977814

>  <Genealogy>  (49) 
c1ccc2c(c1)CCN(c1nc(NCCC3CCOCC3)nc([C@H]3CCc4ccccc43)n1)C2 (chirality)
c1ccc2c(c1)CCN(c1nc(NCCC3CCOCC3)nc([C@H]3CCc4ccccc43)n1)C2 (3D coordinates assigned)
c1ccc2c(c1)CCN(c1nc(NCCC3CCOCC3)nc([C@H]3CCc4ccccc43)n1)C2 (nonaromatic ring conformer: 85.0895374977814 kcal/mol)

>  <smiles>  (49) 
c1ccc2c(c1)CCN(c1nc(NCCC3CCOCC3)nc(C3CCc4ccccc43)n1)C2

>  <score_type>  (49) 
oracle

>  <origin>  (49) 
autodockgpu

>  <m_score__min__energy>  (49) 
-10.26

>  <m_primary>  (49) 
energy

>  <meeko>  (49) 
{"free_energy": -9.86, "intermolecular_energy": -11.65, "internal_energy": -1.13, "cluster_size": 3, "cluster_id": 2, "rank_in_cluster": 1}

>  <energy>  (49) 
-9.86

>  <cluster_rmsd>  (49) 
0.47

>  <rmsd>  (49) 
270.91

>  <cluster>  (49) 
2

$$$$
AOEMPDNDYKTPOZ-MVXFCSEMNA-N
     RDKit          3D

 67 72  0  0  0  0  0  0  0  0999 V2000
  141.9850   80.3400  223.0020 C   0  0  0  0  0  0  0  0  0  0  0  0
  140.8980   79.9630  223.7930 C   0  0  0  0  0  0  0  0  0  0  0  0
  140.2000   78.7880  223.5070 C   0  0  0  0  0  0  0  0  0  0  0  0
  140.5910   77.9710  222.4350 C   0  0  0  0  0  0  0  0  0  0  0  0
  141.6810   78.3610  221.6190 C   0  0  0  0  0  0  0  0  0  0  0  0
  142.3800   79.5410  221.9240 C   0  0  0  0  0  0  0  0  0  0  0  0
  142.1830   77.4830  220.4940 C   0  0  0  0  0  0  0  0  0  0  0  0
  141.1330   76.4680  220.0340 C   0  0  0  0  0  0  0  0  0  0  0  0
  140.5170   75.8490  221.2090 N   0  0  0  0  0  0  0  0  0  0  0  0
  140.6690   74.4440  221.4900 C   0  0  0  0  0  0  0  0  0  0  0  0
  139.8310   73.8300  222.3620 N   0  0  0  0  0  0  0  0  0  0  0  0
  139.9600   72.5070  222.6360 C   0  0  0  0  0  0  0  0  0  0  0  0
  139.0790   71.8730  223.5710 N   0  0  0  0  0  0  0  0  0  0  0  0
  139.5580   70.8950  224.5460 C   0  0  0  0  0  0  0  0  0  0  0  0
  140.6940   71.4910  225.3920 C   0  0  0  0  0  0  0  0  0  0  0  0
  141.2370   70.4940  226.4420 C   0  0  0  0  0  0  0  0  0  0  0  0
  140.7120   69.0590  226.1850 C   0  0  0  0  0  0  0  0  0  0  0  0
  140.5660   68.2850  227.5040 C   0  0  0  0  0  0  0  0  0  0  0  0
  139.6230   68.8660  228.3970 O   0  0  0  0  0  0  0  0  0  0  0  0
  139.5850   70.2900  228.3640 C   0  0  0  0  0  0  0  0  0  0  0  0
  140.8850   70.9550  227.8770 C   0  0  0  0  0  0  0  0  0  0  0  0
  140.9300   71.7870  222.0190 N   0  0  0  0  0  0  0  0  0  0  0  0
  141.7800   72.3930  221.1450 C   0  0  0  0  0  0  0  0  0  0  0  0
  142.8660   71.6060  220.4650 C   0  0  1  0  0  0  0  0  0  0  0  0
  142.5690   71.3790  218.9630 C   0  0  0  0  0  0  0  0  0  0  0  0
  143.5970   72.2000  218.1610 C   0  0  0  0  0  0  0  0  0  0  0  0
  144.5540   72.6750  219.1870 C   0  0  0  0  0  0  0  0  0  0  0  0
  145.7340   73.3870  218.9610 C   0  0  0  0  0  0  0  0  0  0  0  0
  146.5120   73.7710  220.0620 C   0  0  0  0  0  0  0  0  0  0  0  0
  146.1020   73.4420  221.3670 C   0  0  0  0  0  0  0  0  0  0  0  0
  144.9070   72.7340  221.5720 C   0  0  0  0  0  0  0  0  0  0  0  0
  144.1470   72.3600  220.4600 C   0  0  0  0  0  0  0  0  0  0  0  0
  141.6480   73.7200  220.8880 N   0  0  0  0  0  0  0  0  0  0  0  0
  139.7840   76.7360  222.1220 C   0  0  0  0  0  0  0  0  0  0  0  0
  142.5320   81.2674  223.2271 H   0  0  0  0  0  0  0  0  0  0  0  0
  140.5914   80.5919  224.6418 H   0  0  0  0  0  0  0  0  0  0  0  0
  139.3375   78.5007  224.1263 H   0  0  0  0  0  0  0  0  0  0  0  0
  143.2436   79.8385  221.3110 H   0  0  0  0  0  0  0  0  0  0  0  0
  142.4542   78.1222  219.6409 H   0  0  0  0  0  0  0  0  0  0  0  0
  143.0516   76.9214  220.8684 H   0  0  0  0  0  0  0  0  0  0  0  0
  140.3613   76.9799  219.4403 H   0  0  0  0  0  0  0  0  0  0  0  0
  141.6118   75.6942  219.4160 H   0  0  0  0  0  0  0  0  0  0  0  0
  138.0730   72.1630  223.5970 H   0  0  0  0  0  0  0  0  0  0  0  0
  138.7276   70.6061  225.2070 H   0  0  0  0  0  0  0  0  0  0  0  0
  139.9389   70.0140  224.0087 H   0  0  0  0  0  0  0  0  0  0  0  0
  141.5172   71.7814  224.7226 H   0  0  0  0  0  0  0  0  0  0  0  0
  140.2877   72.3580  225.9335 H   0  0  0  0  0  0  0  0  0  0  0  0
  142.3324   70.4744  226.3438 H   0  0  0  0  0  0  0  0  0  0  0  0
  139.7309   69.1174  225.6910 H   0  0  0  0  0  0  0  0  0  0  0  0
  141.4333   68.5300  225.5447 H   0  0  0  0  0  0  0  0  0  0  0  0
  140.2418   67.2596  227.2728 H   0  0  0  0  0  0  0  0  0  0  0  0
  141.5451   68.3077  228.0047 H   0  0  0  0  0  0  0  0  0  0  0  0
  138.7703   70.5959  227.6912 H   0  0  0  0  0  0  0  0  0  0  0  0
  139.4352   70.6218  229.4020 H   0  0  0  0  0  0  0  0  0  0  0  0
  140.7549   72.0473  227.8827 H   0  0  0  0  0  0  0  0  0  0  0  0
  141.7035   70.6622  228.5510 H   0  0  0  0  0  0  0  0  0  0  0  0
  142.9220   70.6598  221.0232 H   0  0  0  0  0  0  0  0  0  0  0  0
  142.6668   70.3112  218.7176 H   0  0  0  0  0  0  0  0  0  0  0  0
  141.5440   71.6939  218.7178 H   0  0  0  0  0  0  0  0  0  0  0  0
  144.1040   71.5704  217.4149 H   0  0  0  0  0  0  0  0  0  0  0  0
  143.1347   73.0247  217.5987 H   0  0  0  0  0  0  0  0  0  0  0  0
  146.0472   73.6418  217.9378 H   0  0  0  0  0  0  0  0  0  0  0  0
  147.4456   74.3311  219.9052 H   0  0  0  0  0  0  0  0  0  0  0  0
  146.7185   73.7399  222.2279 H   0  0  0  0  0  0  0  0  0  0  0  0
  144.5749   72.4783  222.5890 H   0  0  0  0  0  0  0  0  0  0  0  0
  138.8363   77.0349  221.6503 H   0  0  0  0  0  0  0  0  0  0  0  0
  139.5920   76.1943  223.0599 H   0  0  0  0  0  0  0  0  0  0  0  0
  1  2  2  0
  2  3  1  0
  3  4  2  0
  4  5  1  0
  5  6  2  0
  5  7  1  0
  7  8  1  0
  8  9  1  0
  9 10  1  0
 10 11  2  0
 11 12  1  0
 12 13  1  0
 13 14  1  0
 14 15  1  0
 15 16  1  0
 16 17  1  0
 17 18  1  0
 18 19  1  0
 19 20  1  0
 20 21  1  0
 12 22  2  0
 22 23  1  0
 23 24  1  0
 24 25  1  0
 25 26  1  0
 26 27  1  0
 27 28  2  0
 28 29  1  0
 29 30  2  0
 30 31  1  0
 31 32  2  0
 23 33  2  0
  9 34  1  0
  6  1  1  0
 33 10  1  0
 34  4  1  0
 21 16  1  0
 32 24  1  0
 32 27  1  0
  1 35  1  0
  2 36  1  0
  3 37  1  0
  6 38  1  0
  7 39  1  0
  7 40  1  0
  8 41  1  0
  8 42  1  0
 13 43  1  0
 14 44  1  0
 14 45  1  0
 15 46  1  0
 15 47  1  0
 16 48  1  0
 17 49  1  0
 17 50  1  0
 18 51  1  0
 18 52  1  0
 20 53  1  0
 20 54  1  0
 21 55  1  0
 21 56  1  0
 24 57  1  1
 25 58  1  0
 25 59  1  0
 26 60  1  0
 26 61  1  0
 28 62  1  0
 29 63  1  0
 30 64  1  0
 31 65  1  0
 34 66  1  0
 34 67  1  0
M  END
>  <UniqueID>  (50) 
496

>  <SMILES>  (50) 
c1ccc2c(c1)CCN(c1nc(NCCC3CCOCC3)nc([C@H]3CCc4ccccc43)n1)C2

>  <Energy>  (50) 
85.0895374977814

>  <Genealogy>  (50) 
c1ccc2c(c1)CCN(c1nc(NCCC3CCOCC3)nc([C@H]3CCc4ccccc43)n1)C2 (chirality)
c1ccc2c(c1)CCN(c1nc(NCCC3CCOCC3)nc([C@H]3CCc4ccccc43)n1)C2 (3D coordinates assigned)
c1ccc2c(c1)CCN(c1nc(NCCC3CCOCC3)nc([C@H]3CCc4ccccc43)n1)C2 (nonaromatic ring conformer: 85.0895374977814 kcal/mol)

>  <smiles>  (50) 
c1ccc2c(c1)CCN(c1nc(NCCC3CCOCC3)nc(C3CCc4ccccc43)n1)C2

>  <score_type>  (50) 
oracle

>  <origin>  (50) 
autodockgpu

>  <m_score__min__energy>  (50) 
-10.26

>  <m_primary>  (50) 
energy

>  <meeko>  (50) 
{"free_energy": -10.2, "intermolecular_energy": -11.99, "internal_energy": -1.42, "cluster_size": 7, "cluster_id": 1, "rank_in_cluster": 2}

>  <energy>  (50) 
-9.85

>  <cluster_rmsd>  (50) 
0.49

>  <rmsd>  (50) 
270.89

>  <cluster>  (50) 
2

$$$$
AOEMPDNDYKTPOZ-MVXFCSEMNA-N
     RDKit          3D

 67 72  0  0  0  0  0  0  0  0999 V2000
  139.5730   68.2650  226.8020 C   0  0  0  0  0  0  0  0  0  0  0  0
  140.5470   69.1820  227.2000 C   0  0  0  0  0  0  0  0  0  0  0  0
  140.9720   70.1780  226.3180 C   0  0  0  0  0  0  0  0  0  0  0  0
  140.4170   70.2740  225.0320 C   0  0  0  0  0  0  0  0  0  0  0  0
  139.4420   69.3330  224.6190 C   0  0  0  0  0  0  0  0  0  0  0  0
  139.0170   68.3430  225.5200 C   0  0  0  0  0  0  0  0  0  0  0  0
  138.7650   69.4340  223.2690 C   0  0  0  0  0  0  0  0  0  0  0  0
  139.5700   70.2760  222.2760 C   0  0  0  0  0  0  0  0  0  0  0  0
  140.0290   71.4960  222.9420 N   0  0  0  0  0  0  0  0  0  0  0  0
  139.5720   72.7990  222.5320 C   0  0  0  0  0  0  0  0  0  0  0  0
  140.4650   73.7970  222.3180 N   0  0  0  0  0  0  0  0  0  0  0  0
  140.0500   75.0290  221.9310 C   0  0  0  0  0  0  0  0  0  0  0  0
  141.0020   76.0800  221.7220 N   0  0  0  0  0  0  0  0  0  0  0  0
  140.5910   77.4670  221.5100 C   0  0  0  0  0  0  0  0  0  0  0  0
  139.6950   77.9450  222.6630 C   0  0  0  0  0  0  0  0  0  0  0  0
  140.3430   79.0840  223.4850 C   0  0  0  0  0  0  0  0  0  0  0  0
  140.2280   80.4450  222.7530 C   0  0  0  0  0  0  0  0  0  0  0  0
  141.4250   81.3480  223.0840 C   0  0  0  0  0  0  0  0  0  0  0  0
  142.6720   80.8100  222.6630 O   0  0  0  0  0  0  0  0  0  0  0  0
  142.7620   79.3910  222.7650 C   0  0  0  0  0  0  0  0  0  0  0  0
  141.8210   78.7620  223.8090 C   0  0  0  0  0  0  0  0  0  0  0  0
  138.7270   75.2620  221.7420 N   0  0  0  0  0  0  0  0  0  0  0  0
  137.8200   74.2700  221.9580 C   0  0  0  0  0  0  0  0  0  0  0  0
  136.3510   74.5210  221.7620 C   0  0  1  0  0  0  0  0  0  0  0  0
  135.6420   73.3300  221.0730 C   0  0  0  0  0  0  0  0  0  0  0  0
  134.7030   72.6890  222.1120 C   0  0  0  0  0  0  0  0  0  0  0  0
  134.7350   73.6330  223.2540 C   0  0  0  0  0  0  0  0  0  0  0  0
  133.9710   73.5570  224.4210 C   0  0  0  0  0  0  0  0  0  0  0  0
  134.1480   74.5370  225.4080 C   0  0  0  0  0  0  0  0  0  0  0  0
  135.0820   75.5720  225.2170 C   0  0  0  0  0  0  0  0  0  0  0  0
  135.8450   75.6240  224.0410 C   0  0  0  0  0  0  0  0  0  0  0  0
  135.6520   74.6380  223.0690 C   0  0  0  0  0  0  0  0  0  0  0  0
  138.2470   73.0440  222.3560 N   0  0  0  0  0  0  0  0  0  0  0  0
  140.9350   71.3280  224.0860 C   0  0  0  0  0  0  0  0  0  0  0  0
  139.2417   67.4795  227.4972 H   0  0  0  0  0  0  0  0  0  0  0  0
  140.9803   69.1202  228.2092 H   0  0  0  0  0  0  0  0  0  0  0  0
  141.7470   70.8922  226.6331 H   0  0  0  0  0  0  0  0  0  0  0  0
  138.2419   67.6241  225.2160 H   0  0  0  0  0  0  0  0  0  0  0  0
  138.6443   68.4211  222.8573 H   0  0  0  0  0  0  0  0  0  0  0  0
  137.7926   69.9266  223.4166 H   0  0  0  0  0  0  0  0  0  0  0  0
  140.4384   69.6998  221.9240 H   0  0  0  0  0  0  0  0  0  0  0  0
  138.9368   70.5398  221.4161 H   0  0  0  0  0  0  0  0  0  0  0  0
  142.0230   75.8590  221.7840 H   0  0  0  0  0  0  0  0  0  0  0  0
  141.4852   78.1056  221.4578 H   0  0  0  0  0  0  0  0  0  0  0  0
  140.0243   77.5303  220.5693 H   0  0  0  0  0  0  0  0  0  0  0  0
  138.7453   78.3089  222.2440 H   0  0  0  0  0  0  0  0  0  0  0  0
  139.5386   77.0921  223.3399 H   0  0  0  0  0  0  0  0  0  0  0  0
  139.7911   79.1630  224.4332 H   0  0  0  0  0  0  0  0  0  0  0  0
  140.1990   80.2688  221.6676 H   0  0  0  0  0  0  0  0  0  0  0  0
  139.3070   80.9462  223.0856 H   0  0  0  0  0  0  0  0  0  0  0  0
  141.2780   82.3180  222.5865 H   0  0  0  0  0  0  0  0  0  0  0  0
  141.4661   81.4441  224.1790 H   0  0  0  0  0  0  0  0  0  0  0  0
  142.5205   78.9604  221.7820 H   0  0  0  0  0  0  0  0  0  0  0  0
  143.7873   79.1667  223.0944 H   0  0  0  0  0  0  0  0  0  0  0  0
  141.9604   77.6709  223.8084 H   0  0  0  0  0  0  0  0  0  0  0  0
  142.0632   79.1797  224.7974 H   0  0  0  0  0  0  0  0  0  0  0  0
  136.2984   75.4389  221.1581 H   0  0  0  0  0  0  0  0  0  0  0  0
  135.0604   73.6868  220.2102 H   0  0  0  0  0  0  0  0  0  0  0  0
  136.3778   72.5972  220.7103 H   0  0  0  0  0  0  0  0  0  0  0  0
  133.6829   72.5942  221.7114 H   0  0  0  0  0  0  0  0  0  0  0  0
  135.0143   71.6723  222.3940 H   0  0  0  0  0  0  0  0  0  0  0  0
  133.2442   72.7436  224.5630 H   0  0  0  0  0  0  0  0  0  0  0  0
  133.5553   74.4967  226.3338 H   0  0  0  0  0  0  0  0  0  0  0  0
  135.2141   76.3419  225.9915 H   0  0  0  0  0  0  0  0  0  0  0  0
  136.5818   76.4260  223.8865 H   0  0  0  0  0  0  0  0  0  0  0  0
  141.9269   71.0262  223.7186 H   0  0  0  0  0  0  0  0  0  0  0  0
  141.0001   72.2840  224.6263 H   0  0  0  0  0  0  0  0  0  0  0  0
  1  2  2  0
  2  3  1  0
  3  4  2  0
  4  5  1  0
  5  6  2  0
  5  7  1  0
  7  8  1  0
  8  9  1  0
  9 10  1  0
 10 11  2  0
 11 12  1  0
 12 13  1  0
 13 14  1  0
 14 15  1  0
 15 16  1  0
 16 17  1  0
 17 18  1  0
 18 19  1  0
 19 20  1  0
 20 21  1  0
 12 22  2  0
 22 23  1  0
 23 24  1  0
 24 25  1  0
 25 26  1  0
 26 27  1  0
 27 28  2  0
 28 29  1  0
 29 30  2  0
 30 31  1  0
 31 32  2  0
 23 33  2  0
  9 34  1  0
  6  1  1  0
 33 10  1  0
 34  4  1  0
 21 16  1  0
 32 24  1  0
 32 27  1  0
  1 35  1  0
  2 36  1  0
  3 37  1  0
  6 38  1  0
  7 39  1  0
  7 40  1  0
  8 41  1  0
  8 42  1  0
 13 43  1  0
 14 44  1  0
 14 45  1  0
 15 46  1  0
 15 47  1  0
 16 48  1  0
 17 49  1  0
 17 50  1  0
 18 51  1  0
 18 52  1  0
 20 53  1  0
 20 54  1  0
 21 55  1  0
 21 56  1  0
 24 57  1  6
 25 58  1  0
 25 59  1  0
 26 60  1  0
 26 61  1  0
 28 62  1  0
 29 63  1  0
 30 64  1  0
 31 65  1  0
 34 66  1  0
 34 67  1  0
M  END
>  <UniqueID>  (51) 
496

>  <SMILES>  (51) 
c1ccc2c(c1)CCN(c1nc(NCCC3CCOCC3)nc([C@H]3CCc4ccccc43)n1)C2

>  <Energy>  (51) 
85.0895374977814

>  <Genealogy>  (51) 
c1ccc2c(c1)CCN(c1nc(NCCC3CCOCC3)nc([C@H]3CCc4ccccc43)n1)C2 (chirality)
c1ccc2c(c1)CCN(c1nc(NCCC3CCOCC3)nc([C@H]3CCc4ccccc43)n1)C2 (3D coordinates assigned)
c1ccc2c(c1)CCN(c1nc(NCCC3CCOCC3)nc([C@H]3CCc4ccccc43)n1)C2 (nonaromatic ring conformer: 85.0895374977814 kcal/mol)

>  <smiles>  (51) 
c1ccc2c(c1)CCN(c1nc(NCCC3CCOCC3)nc(C3CCc4ccccc43)n1)C2

>  <score_type>  (51) 
oracle

>  <origin>  (51) 
autodockgpu

>  <m_score__min__energy>  (51) 
-10.26

>  <m_primary>  (51) 
energy

>  <meeko>  (51) 
{"free_energy": -8.96, "intermolecular_energy": -10.75, "internal_energy": -1.37, "cluster_size": 1, "cluster_id": 6, "rank_in_cluster": 1}

>  <energy>  (51) 
-9.3

>  <cluster_rmsd>  (51) 
0.0

>  <rmsd>  (51) 
271.24

>  <cluster>  (51) 
3

$$$$
AOEMPDNDYKTPOZ-MVXFCSEMNA-N
     RDKit          3D

 67 72  0  0  0  0  0  0  0  0999 V2000
  145.5860   66.8080  219.1430 C   0  0  0  0  0  0  0  0  0  0  0  0
  146.2420   68.0210  218.9290 C   0  0  0  0  0  0  0  0  0  0  0  0
  145.5170   69.2140  218.9070 C   0  0  0  0  0  0  0  0  0  0  0  0
  144.1280   69.2060  219.1120 C   0  0  0  0  0  0  0  0  0  0  0  0
  143.4570   67.9750  219.3100 C   0  0  0  0  0  0  0  0  0  0  0  0
  144.2010   66.7840  219.3390 C   0  0  0  0  0  0  0  0  0  0  0  0
  141.9730   67.9190  219.6020 C   0  0  0  0  0  0  0  0  0  0  0  0
  141.2450   69.1920  219.1640 C   0  0  0  0  0  0  0  0  0  0  0  0
  142.0180   70.3590  219.5930 N   0  0  0  0  0  0  0  0  0  0  0  0
  141.5040   71.2920  220.5630 C   0  0  0  0  0  0  0  0  0  0  0  0
  141.8880   72.5920  220.5270 N   0  0  0  0  0  0  0  0  0  0  0  0
  141.4120   73.4820  221.4330 C   0  0  0  0  0  0  0  0  0  0  0  0
  141.8370   74.8500  221.3950 N   0  0  0  0  0  0  0  0  0  0  0  0
  141.7980   75.6390  220.1640 C   0  0  0  0  0  0  0  0  0  0  0  0
  142.2460   74.7890  218.9660 C   0  0  0  0  0  0  0  0  0  0  0  0
  143.7720   74.8590  218.7250 C   0  0  0  0  0  0  0  0  0  0  0  0
  144.2100   73.8970  217.5920 C   0  0  0  0  0  0  0  0  0  0  0  0
  145.6340   73.3760  217.8370 C   0  0  0  0  0  0  0  0  0  0  0  0
  145.7590   72.6150  219.0330 O   0  0  0  0  0  0  0  0  0  0  0  0
  144.9410   73.0730  220.1060 C   0  0  0  0  0  0  0  0  0  0  0  0
  144.5520   74.5610  220.0270 C   0  0  0  0  0  0  0  0  0  0  0  0
  140.5290   73.0700  222.3770 N   0  0  0  0  0  0  0  0  0  0  0  0
  140.1390   71.7670  222.4260 C   0  0  0  0  0  0  0  0  0  0  0  0
  139.1690   71.2980  223.4760 C   0  0  1  0  0  0  0  0  0  0  0  0
  138.3970   70.0310  223.0330 C   0  0  0  0  0  0  0  0  0  0  0  0
  138.8760   68.8670  223.9210 C   0  0  0  0  0  0  0  0  0  0  0  0
  139.7100   69.5240  224.9540 C   0  0  0  0  0  0  0  0  0  0  0  0
  140.3030   68.9120  226.0610 C   0  0  0  0  0  0  0  0  0  0  0  0
  141.0780   69.6930  226.9290 C   0  0  0  0  0  0  0  0  0  0  0  0
  141.2520   71.0670  226.6790 C   0  0  0  0  0  0  0  0  0  0  0  0
  140.6550   71.6590  225.5560 C   0  0  0  0  0  0  0  0  0  0  0  0
  139.8850   70.8630  224.7040 C   0  0  0  0  0  0  0  0  0  0  0  0
  140.6320   70.8830  221.5210 N   0  0  0  0  0  0  0  0  0  0  0  0
  143.3670   70.5060  219.0310 C   0  0  0  0  0  0  0  0  0  0  0  0
  146.1589   65.8691  219.1576 H   0  0  0  0  0  0  0  0  0  0  0  0
  147.3314   68.0372  218.7775 H   0  0  0  0  0  0  0  0  0  0  0  0
  146.0374   70.1664  218.7279 H   0  0  0  0  0  0  0  0  0  0  0  0
  143.6911   65.8257  219.5171 H   0  0  0  0  0  0  0  0  0  0  0  0
  141.5394   67.0617  219.0662 H   0  0  0  0  0  0  0  0  0  0  0  0
  141.8484   67.8183  220.6903 H   0  0  0  0  0  0  0  0  0  0  0  0
  141.1438   69.1998  218.0687 H   0  0  0  0  0  0  0  0  0  0  0  0
  140.2449   69.2222  219.6210 H   0  0  0  0  0  0  0  0  0  0  0  0
  142.1260   75.3170  222.2860 H   0  0  0  0  0  0  0  0  0  0  0  0
  140.7705   75.9925  219.9930 H   0  0  0  0  0  0  0  0  0  0  0  0
  142.4810   76.4949  220.2682 H   0  0  0  0  0  0  0  0  0  0  0  0
  141.9665   73.7417  219.1529 H   0  0  0  0  0  0  0  0  0  0  0  0
  141.7484   75.1878  218.0697 H   0  0  0  0  0  0  0  0  0  0  0  0
  144.0106   75.8846  218.4069 H   0  0  0  0  0  0  0  0  0  0  0  0
  143.5158   73.0445  217.5546 H   0  0  0  0  0  0  0  0  0  0  0  0
  144.1952   74.4459  216.6388 H   0  0  0  0  0  0  0  0  0  0  0  0
  145.9238   72.7404  216.9873 H   0  0  0  0  0  0  0  0  0  0  0  0
  146.2879   74.2544  217.9410 H   0  0  0  0  0  0  0  0  0  0  0  0
  144.0166   72.4767  220.1112 H   0  0  0  0  0  0  0  0  0  0  0  0
  145.5363   72.9551  221.0235 H   0  0  0  0  0  0  0  0  0  0  0  0
  143.9205   74.8146  220.8912 H   0  0  0  0  0  0  0  0  0  0  0  0
  145.4711   75.1654  220.0323 H   0  0  0  0  0  0  0  0  0  0  0  0
  138.4975   72.1527  223.6449 H   0  0  0  0  0  0  0  0  0  0  0  0
  137.3157   70.1842  223.1645 H   0  0  0  0  0  0  0  0  0  0  0  0
  138.5845   69.8128  221.9713 H   0  0  0  0  0  0  0  0  0  0  0  0
  138.0216   68.3482  224.3801 H   0  0  0  0  0  0  0  0  0  0  0  0
  139.4277   68.1020  223.3550 H   0  0  0  0  0  0  0  0  0  0  0  0
  140.1642   67.8369  226.2479 H   0  0  0  0  0  0  0  0  0  0  0  0
  141.5515   69.2310  227.8078 H   0  0  0  0  0  0  0  0  0  0  0  0
  141.8571   71.6777  227.3652 H   0  0  0  0  0  0  0  0  0  0  0  0
  140.7907   72.7309  225.3498 H   0  0  0  0  0  0  0  0  0  0  0  0
  143.2870   70.8115  217.9773 H   0  0  0  0  0  0  0  0  0  0  0  0
  143.9087   71.2673  219.6115 H   0  0  0  0  0  0  0  0  0  0  0  0
  1  2  2  0
  2  3  1  0
  3  4  2  0
  4  5  1  0
  5  6  2  0
  5  7  1  0
  7  8  1  0
  8  9  1  0
  9 10  1  0
 10 11  2  0
 11 12  1  0
 12 13  1  0
 13 14  1  0
 14 15  1  0
 15 16  1  0
 16 17  1  0
 17 18  1  0
 18 19  1  0
 19 20  1  0
 20 21  1  0
 12 22  2  0
 22 23  1  0
 23 24  1  0
 24 25  1  0
 25 26  1  0
 26 27  1  0
 27 28  2  0
 28 29  1  0
 29 30  2  0
 30 31  1  0
 31 32  2  0
 23 33  2  0
  9 34  1  0
  6  1  1  0
 33 10  1  0
 34  4  1  0
 21 16  1  0
 32 24  1  0
 32 27  1  0
  1 35  1  0
  2 36  1  0
  3 37  1  0
  6 38  1  0
  7 39  1  0
  7 40  1  0
  8 41  1  0
  8 42  1  0
 13 43  1  0
 14 44  1  0
 14 45  1  0
 15 46  1  0
 15 47  1  0
 16 48  1  0
 17 49  1  0
 17 50  1  0
 18 51  1  0
 18 52  1  0
 20 53  1  0
 20 54  1  0
 21 55  1  0
 21 56  1  0
 24 57  1  1
 25 58  1  0
 25 59  1  0
 26 60  1  0
 26 61  1  0
 28 62  1  0
 29 63  1  0
 30 64  1  0
 31 65  1  0
 34 66  1  0
 34 67  1  0
M  END
>  <UniqueID>  (52) 
496

>  <SMILES>  (52) 
c1ccc2c(c1)CCN(c1nc(NCCC3CCOCC3)nc([C@H]3CCc4ccccc43)n1)C2

>  <Energy>  (52) 
85.0895374977814

>  <Genealogy>  (52) 
c1ccc2c(c1)CCN(c1nc(NCCC3CCOCC3)nc([C@H]3CCc4ccccc43)n1)C2 (chirality)
c1ccc2c(c1)CCN(c1nc(NCCC3CCOCC3)nc([C@H]3CCc4ccccc43)n1)C2 (3D coordinates assigned)
c1ccc2c(c1)CCN(c1nc(NCCC3CCOCC3)nc([C@H]3CCc4ccccc43)n1)C2 (nonaromatic ring conformer: 85.0895374977814 kcal/mol)

>  <smiles>  (52) 
c1ccc2c(c1)CCN(c1nc(NCCC3CCOCC3)nc(C3CCc4ccccc43)n1)C2

>  <score_type>  (52) 
oracle

>  <origin>  (52) 
autodockgpu

>  <m_score__min__energy>  (52) 
-10.26

>  <m_primary>  (52) 
energy

>  <meeko>  (52) 
{"free_energy": -9.03, "intermolecular_energy": -10.82, "internal_energy": -1.89, "cluster_size": 3, "cluster_id": 4, "rank_in_cluster": 3}

>  <energy>  (52) 
-9.16

>  <cluster_rmsd>  (52) 
0.2

>  <rmsd>  (52) 
271.22

>  <cluster>  (52) 
3

$$$$
AOEMPDNDYKTPOZ-MVXFCSEMNA-N
     RDKit          3D

 67 72  0  0  0  0  0  0  0  0999 V2000
  141.8260   80.1100  222.5920 C   0  0  0  0  0  0  0  0  0  0  0  0
  140.7940   79.7660  223.4670 C   0  0  0  0  0  0  0  0  0  0  0  0
  140.1210   78.5530  223.3120 C   0  0  0  0  0  0  0  0  0  0  0  0
  140.4820   77.6650  222.2860 C   0  0  0  0  0  0  0  0  0  0  0  0
  141.5150   78.0210  221.3850 C   0  0  0  0  0  0  0  0  0  0  0  0
  142.1900   79.2400  221.5590 C   0  0  0  0  0  0  0  0  0  0  0  0
  141.9860   77.0710  220.3050 C   0  0  0  0  0  0  0  0  0  0  0  0
  140.9470   75.9940  219.9830 C   0  0  0  0  0  0  0  0  0  0  0  0
  140.4150   75.4520  221.2340 N   0  0  0  0  0  0  0  0  0  0  0  0
  140.6270   74.0780  221.6140 C   0  0  0  0  0  0  0  0  0  0  0  0
  141.6760   73.3850  221.1040 N   0  0  0  0  0  0  0  0  0  0  0  0
  141.8890   72.0920  221.4520 C   0  0  0  0  0  0  0  0  0  0  0  0
  142.9920   71.3660  220.8950 N   0  0  0  0  0  0  0  0  0  0  0  0
  143.0350   70.9860  219.4840 C   0  0  0  0  0  0  0  0  0  0  0  0
  142.9740   72.2340  218.5890 C   0  0  0  0  0  0  0  0  0  0  0  0
  144.3030   73.0250  218.5820 C   0  0  0  0  0  0  0  0  0  0  0  0
  145.3520   72.3770  219.5200 C   0  0  0  0  0  0  0  0  0  0  0  0
  146.2850   73.4410  220.1170 C   0  0  0  0  0  0  0  0  0  0  0  0
  145.6080   74.3940  220.9270 O   0  0  0  0  0  0  0  0  0  0  0  0
  144.2980   74.7260  220.4720 C   0  0  0  0  0  0  0  0  0  0  0  0
  144.0680   74.5060  218.9660 C   0  0  0  0  0  0  0  0  0  0  0  0
  141.0520   71.4880  222.3330 N   0  0  0  0  0  0  0  0  0  0  0  0
  139.9930   72.1720  222.8490 C   0  0  0  0  0  0  0  0  0  0  0  0
  139.0530   71.5080  223.8170 C   0  0  1  0  0  0  0  0  0  0  0  0
  138.4400   70.2100  223.2360 C   0  0  0  0  0  0  0  0  0  0  0  0
  139.0200   69.0290  224.0370 C   0  0  0  0  0  0  0  0  0  0  0  0
  139.7460   69.6760  225.1550 C   0  0  0  0  0  0  0  0  0  0  0  0
  140.3720   69.0340  226.2260 C   0  0  0  0  0  0  0  0  0  0  0  0
  141.0310   69.8140  227.1870 C   0  0  0  0  0  0  0  0  0  0  0  0
  141.0570   71.2150  227.0650 C   0  0  0  0  0  0  0  0  0  0  0  0
  140.4300   71.8380  225.9750 C   0  0  0  0  0  0  0  0  0  0  0  0
  139.7770   71.0430  225.0280 C   0  0  0  0  0  0  0  0  0  0  0  0
  139.7840   73.4630  222.4830 N   0  0  0  0  0  0  0  0  0  0  0  0
  139.7010   76.3870  222.1140 C   0  0  0  0  0  0  0  0  0  0  0  0
  142.3539   81.0671  222.7152 H   0  0  0  0  0  0  0  0  0  0  0  0
  140.5110   80.4515  224.2794 H   0  0  0  0  0  0  0  0  0  0  0  0
  139.3023   78.2910  223.9983 H   0  0  0  0  0  0  0  0  0  0  0  0
  143.0103   79.5124  220.8786 H   0  0  0  0  0  0  0  0  0  0  0  0
  142.1914   77.6483  219.3915 H   0  0  0  0  0  0  0  0  0  0  0  0
  142.8907   76.5654  220.6736 H   0  0  0  0  0  0  0  0  0  0  0  0
  140.1286   76.4357  219.3955 H   0  0  0  0  0  0  0  0  0  0  0  0
  141.4173   75.1881  219.4005 H   0  0  0  0  0  0  0  0  0  0  0  0
  143.8180   71.1540  221.5020 H   0  0  0  0  0  0  0  0  0  0  0  0
  143.9700   70.4422  219.2838 H   0  0  0  0  0  0  0  0  0  0  0  0
  142.1689   70.3454  219.2612 H   0  0  0  0  0  0  0  0  0  0  0  0
  142.7458   71.9191  217.5601 H   0  0  0  0  0  0  0  0  0  0  0  0
  142.1938   72.8961  218.9925 H   0  0  0  0  0  0  0  0  0  0  0  0
  144.7018   72.9927  217.5574 H   0  0  0  0  0  0  0  0  0  0  0  0
  144.8314   71.8554  220.3367 H   0  0  0  0  0  0  0  0  0  0  0  0
  145.9563   71.6681  218.9349 H   0  0  0  0  0  0  0  0  0  0  0  0
  147.0425   72.9346  220.7333 H   0  0  0  0  0  0  0  0  0  0  0  0
  146.7334   73.9895  219.2755 H   0  0  0  0  0  0  0  0  0  0  0  0
  143.5758   74.1061  221.0236 H   0  0  0  0  0  0  0  0  0  0  0  0
  144.1687   75.8033  220.6531 H   0  0  0  0  0  0  0  0  0  0  0  0
  143.0334   74.7833  218.7154 H   0  0  0  0  0  0  0  0  0  0  0  0
  144.7795   75.1313  218.4067 H   0  0  0  0  0  0  0  0  0  0  0  0
  138.2869   72.2667  224.0348 H   0  0  0  0  0  0  0  0  0  0  0  0
  137.3450   70.2324  223.3386 H   0  0  0  0  0  0  0  0  0  0  0  0
  138.6812   70.1107  222.1674 H   0  0  0  0  0  0  0  0  0  0  0  0
  138.2158   68.3812  224.4160 H   0  0  0  0  0  0  0  0  0  0  0  0
  139.6695   68.3829  223.4281 H   0  0  0  0  0  0  0  0  0  0  0  0
  140.3484   67.9378  226.3138 H   0  0  0  0  0  0  0  0  0  0  0  0
  141.5293   69.3286  228.0391 H   0  0  0  0  0  0  0  0  0  0  0  0
  141.5695   71.8231  227.8250 H   0  0  0  0  0  0  0  0  0  0  0  0
  140.4518   72.9325  225.8675 H   0  0  0  0  0  0  0  0  0  0  0  0
  138.7209   76.6203  221.6725 H   0  0  0  0  0  0  0  0  0  0  0  0
  139.5753   75.9159  223.1001 H   0  0  0  0  0  0  0  0  0  0  0  0
  1  2  2  0
  2  3  1  0
  3  4  2  0
  4  5  1  0
  5  6  2  0
  5  7  1  0
  7  8  1  0
  8  9  1  0
  9 10  1  0
 10 11  2  0
 11 12  1  0
 12 13  1  0
 13 14  1  0
 14 15  1  0
 15 16  1  0
 16 17  1  0
 17 18  1  0
 18 19  1  0
 19 20  1  0
 20 21  1  0
 12 22  2  0
 22 23  1  0
 23 24  1  0
 24 25  1  0
 25 26  1  0
 26 27  1  0
 27 28  2  0
 28 29  1  0
 29 30  2  0
 30 31  1  0
 31 32  2  0
 23 33  2  0
  9 34  1  0
  6  1  1  0
 33 10  1  0
 34  4  1  0
 21 16  1  0
 32 24  1  0
 32 27  1  0
  1 35  1  0
  2 36  1  0
  3 37  1  0
  6 38  1  0
  7 39  1  0
  7 40  1  0
  8 41  1  0
  8 42  1  0
 13 43  1  0
 14 44  1  0
 14 45  1  0
 15 46  1  0
 15 47  1  0
 16 48  1  0
 17 49  1  0
 17 50  1  0
 18 51  1  0
 18 52  1  0
 20 53  1  0
 20 54  1  0
 21 55  1  0
 21 56  1  0
 24 57  1  1
 25 58  1  0
 25 59  1  0
 26 60  1  0
 26 61  1  0
 28 62  1  0
 29 63  1  0
 30 64  1  0
 31 65  1  0
 34 66  1  0
 34 67  1  0
M  END
>  <UniqueID>  (53) 
496

>  <SMILES>  (53) 
c1ccc2c(c1)CCN(c1nc(NCCC3CCOCC3)nc([C@H]3CCc4ccccc43)n1)C2

>  <Energy>  (53) 
85.0895374977814

>  <Genealogy>  (53) 
c1ccc2c(c1)CCN(c1nc(NCCC3CCOCC3)nc([C@H]3CCc4ccccc43)n1)C2 (chirality)
c1ccc2c(c1)CCN(c1nc(NCCC3CCOCC3)nc([C@H]3CCc4ccccc43)n1)C2 (3D coordinates assigned)
c1ccc2c(c1)CCN(c1nc(NCCC3CCOCC3)nc([C@H]3CCc4ccccc43)n1)C2 (nonaromatic ring conformer: 85.0895374977814 kcal/mol)

>  <smiles>  (53) 
c1ccc2c(c1)CCN(c1nc(NCCC3CCOCC3)nc(C3CCc4ccccc43)n1)C2

>  <score_type>  (53) 
oracle

>  <origin>  (53) 
autodockgpu

>  <m_score__min__energy>  (53) 
-10.26

>  <m_primary>  (53) 
energy

>  <meeko>  (53) 
{"free_energy": -9.16, "intermolecular_energy": -10.95, "internal_energy": -1.82, "cluster_size": 3, "cluster_id": 3, "rank_in_cluster": 2}

>  <energy>  (53) 
-8.73

>  <cluster_rmsd>  (53) 
0.87

>  <rmsd>  (53) 
271.05

>  <cluster>  (53) 
3

$$$$
AOEMPDNDYKTPOZ-MVXFCSEMNA-N
     RDKit          3D

 67 72  0  0  0  0  0  0  0  0999 V2000
  141.8480   80.1870  222.5980 C   0  0  0  0  0  0  0  0  0  0  0  0
  140.8700   79.8420  223.5310 C   0  0  0  0  0  0  0  0  0  0  0  0
  140.1940   78.6260  223.4190 C   0  0  0  0  0  0  0  0  0  0  0  0
  140.4990   77.7360  222.3760 C   0  0  0  0  0  0  0  0  0  0  0  0
  141.4770   78.0930  221.4160 C   0  0  0  0  0  0  0  0  0  0  0  0
  142.1560   79.3160  221.5480 C   0  0  0  0  0  0  0  0  0  0  0  0
  141.8890   77.1420  220.3130 C   0  0  0  0  0  0  0  0  0  0  0  0
  140.8370   76.0610  220.0540 C   0  0  0  0  0  0  0  0  0  0  0  0
  140.3800   75.5200  221.3360 N   0  0  0  0  0  0  0  0  0  0  0  0
  140.6190   74.1480  221.7060 C   0  0  0  0  0  0  0  0  0  0  0  0
  141.7100   73.4960  221.2330 N   0  0  0  0  0  0  0  0  0  0  0  0
  141.9490   72.2040  221.5730 C   0  0  0  0  0  0  0  0  0  0  0  0
  143.0970   71.5210  221.0560 N   0  0  0  0  0  0  0  0  0  0  0  0
  143.1030   70.9160  219.7250 C   0  0  0  0  0  0  0  0  0  0  0  0
  143.0790   72.0030  218.6390 C   0  0  0  0  0  0  0  0  0  0  0  0
  144.3740   72.8480  218.6160 C   0  0  0  0  0  0  0  0  0  0  0  0
  145.4460   72.2660  219.5720 C   0  0  0  0  0  0  0  0  0  0  0  0
  146.3320   73.3820  220.1460 C   0  0  0  0  0  0  0  0  0  0  0  0
  145.6130   74.3250  220.9320 O   0  0  0  0  0  0  0  0  0  0  0  0
  144.2920   74.5900  220.4660 C   0  0  0  0  0  0  0  0  0  0  0  0
  144.0770   74.3260  218.9650 C   0  0  0  0  0  0  0  0  0  0  0  0
  141.0940   71.5630  222.4090 N   0  0  0  0  0  0  0  0  0  0  0  0
  139.9930   72.2050  222.8870 C   0  0  0  0  0  0  0  0  0  0  0  0
  139.0340   71.4980  223.8040 C   0  0  1  0  0  0  0  0  0  0  0  0
  138.3670   70.2790  223.1220 C   0  0  0  0  0  0  0  0  0  0  0  0
  138.9040   69.0130  223.8150 C   0  0  0  0  0  0  0  0  0  0  0  0
  139.6620   69.5350  224.9760 C   0  0  0  0  0  0  0  0  0  0  0  0
  140.2690   68.7800  225.9830 C   0  0  0  0  0  0  0  0  0  0  0  0
  140.9640   69.4500  227.0010 C   0  0  0  0  0  0  0  0  0  0  0  0
  141.0450   70.8540  226.9970 C   0  0  0  0  0  0  0  0  0  0  0  0
  140.4360   71.5910  225.9690 C   0  0  0  0  0  0  0  0  0  0  0  0
  139.7470   70.9050  224.9650 C   0  0  0  0  0  0  0  0  0  0  0  0
  139.7590   73.4940  222.5290 N   0  0  0  0  0  0  0  0  0  0  0  0
  139.7140   76.4540  222.2520 C   0  0  0  0  0  0  0  0  0  0  0  0
  142.3783   81.1465  222.6884 H   0  0  0  0  0  0  0  0  0  0  0  0
  140.6312   80.5292  224.3561 H   0  0  0  0  0  0  0  0  0  0  0  0
  139.4174   78.3630  224.1523 H   0  0  0  0  0  0  0  0  0  0  0  0
  142.9347   79.5901  220.8210 H   0  0  0  0  0  0  0  0  0  0  0  0
  142.0397   77.7176  219.3878 H   0  0  0  0  0  0  0  0  0  0  0  0
  142.8153   76.6405  220.6301 H   0  0  0  0  0  0  0  0  0  0  0  0
  139.9844   76.4986  219.5139 H   0  0  0  0  0  0  0  0  0  0  0  0
  141.2754   75.2552  219.4469 H   0  0  0  0  0  0  0  0  0  0  0  0
  143.9780   71.5080  221.6220 H   0  0  0  0  0  0  0  0  0  0  0  0
  144.0120   70.3076  219.6081 H   0  0  0  0  0  0  0  0  0  0  0  0
  142.2080   70.2857  219.6170 H   0  0  0  0  0  0  0  0  0  0  0  0
  142.9563   71.5192  217.6587 H   0  0  0  0  0  0  0  0  0  0  0  0
  142.2424   72.6808  218.8639 H   0  0  0  0  0  0  0  0  0  0  0  0
  144.7768   72.8084  217.5932 H   0  0  0  0  0  0  0  0  0  0  0  0
  144.9447   71.7426  220.3995 H   0  0  0  0  0  0  0  0  0  0  0  0
  146.0812   71.5691  219.0055 H   0  0  0  0  0  0  0  0  0  0  0  0
  147.1079   72.9223  220.7758 H   0  0  0  0  0  0  0  0  0  0  0  0
  146.7598   73.9288  219.2928 H   0  0  0  0  0  0  0  0  0  0  0  0
  143.5950   73.9525  221.0298 H   0  0  0  0  0  0  0  0  0  0  0  0
  144.1162   75.6646  220.6218 H   0  0  0  0  0  0  0  0  0  0  0  0
  143.0329   74.5546  218.7051 H   0  0  0  0  0  0  0  0  0  0  0  0
  144.7644   74.9669  218.3935 H   0  0  0  0  0  0  0  0  0  0  0  0
  138.2993   72.2643  224.0920 H   0  0  0  0  0  0  0  0  0  0  0  0
  137.2744   70.3355  223.2362 H   0  0  0  0  0  0  0  0  0  0  0  0
  138.5980   70.2609  222.0467 H   0  0  0  0  0  0  0  0  0  0  0  0
  138.0770   68.3676  224.1460 H   0  0  0  0  0  0  0  0  0  0  0  0
  139.5231   68.3951  223.1480 H   0  0  0  0  0  0  0  0  0  0  0  0
  140.2032   67.6820  225.9777 H   0  0  0  0  0  0  0  0  0  0  0  0
  141.4471   68.8753  227.8049 H   0  0  0  0  0  0  0  0  0  0  0  0
  141.5862   71.3753  227.8003 H   0  0  0  0  0  0  0  0  0  0  0  0
  140.5000   72.6890  225.9540 H   0  0  0  0  0  0  0  0  0  0  0  0
  138.7095   76.6824  221.8663 H   0  0  0  0  0  0  0  0  0  0  0  0
  139.6463   75.9853  223.2448 H   0  0  0  0  0  0  0  0  0  0  0  0
  1  2  2  0
  2  3  1  0
  3  4  2  0
  4  5  1  0
  5  6  2  0
  5  7  1  0
  7  8  1  0
  8  9  1  0
  9 10  1  0
 10 11  2  0
 11 12  1  0
 12 13  1  0
 13 14  1  0
 14 15  1  0
 15 16  1  0
 16 17  1  0
 17 18  1  0
 18 19  1  0
 19 20  1  0
 20 21  1  0
 12 22  2  0
 22 23  1  0
 23 24  1  0
 24 25  1  0
 25 26  1  0
 26 27  1  0
 27 28  2  0
 28 29  1  0
 29 30  2  0
 30 31  1  0
 31 32  2  0
 23 33  2  0
  9 34  1  0
  6  1  1  0
 33 10  1  0
 34  4  1  0
 21 16  1  0
 32 24  1  0
 32 27  1  0
  1 35  1  0
  2 36  1  0
  3 37  1  0
  6 38  1  0
  7 39  1  0
  7 40  1  0
  8 41  1  0
  8 42  1  0
 13 43  1  0
 14 44  1  0
 14 45  1  0
 15 46  1  0
 15 47  1  0
 16 48  1  0
 17 49  1  0
 17 50  1  0
 18 51  1  0
 18 52  1  0
 20 53  1  0
 20 54  1  0
 21 55  1  0
 21 56  1  0
 24 57  1  1
 25 58  1  0
 25 59  1  0
 26 60  1  0
 26 61  1  0
 28 62  1  0
 29 63  1  0
 30 64  1  0
 31 65  1  0
 34 66  1  0
 34 67  1  0
M  END
>  <UniqueID>  (54) 
496

>  <SMILES>  (54) 
c1ccc2c(c1)CCN(c1nc(NCCC3CCOCC3)nc([C@H]3CCc4ccccc43)n1)C2

>  <Energy>  (54) 
85.0895374977814

>  <Genealogy>  (54) 
c1ccc2c(c1)CCN(c1nc(NCCC3CCOCC3)nc([C@H]3CCc4ccccc43)n1)C2 (chirality)
c1ccc2c(c1)CCN(c1nc(NCCC3CCOCC3)nc([C@H]3CCc4ccccc43)n1)C2 (3D coordinates assigned)
c1ccc2c(c1)CCN(c1nc(NCCC3CCOCC3)nc([C@H]3CCc4ccccc43)n1)C2 (nonaromatic ring conformer: 85.0895374977814 kcal/mol)

>  <smiles>  (54) 
c1ccc2c(c1)CCN(c1nc(NCCC3CCOCC3)nc(C3CCc4ccccc43)n1)C2

>  <score_type>  (54) 
oracle

>  <origin>  (54) 
autodockgpu

>  <m_score__min__energy>  (54) 
-10.26

>  <m_primary>  (54) 
energy

>  <meeko>  (54) 
{"free_energy": -9.3, "intermolecular_energy": -11.09, "internal_energy": -1.77, "cluster_size": 3, "cluster_id": 3, "rank_in_cluster": 1}

>  <energy>  (54) 
-9.06

>  <cluster_rmsd>  (54) 
0.0

>  <rmsd>  (54) 
270.19

>  <cluster>  (54) 
4

$$$$
AOEMPDNDYKTPOZ-MVXFCSEMNA-N
     RDKit          3D

 67 72  0  0  0  0  0  0  0  0999 V2000
  141.9650   80.3060  223.0420 C   0  0  0  0  0  0  0  0  0  0  0  0
  140.8570   79.9210  223.7990 C   0  0  0  0  0  0  0  0  0  0  0  0
  140.1620   78.7530  223.4780 C   0  0  0  0  0  0  0  0  0  0  0  0
  140.5760   77.9520  222.4020 C   0  0  0  0  0  0  0  0  0  0  0  0
  141.6880   78.3510  221.6200 C   0  0  0  0  0  0  0  0  0  0  0  0
  142.3830   79.5220  221.9610 C   0  0  0  0  0  0  0  0  0  0  0  0
  142.2150   77.4880  220.4940 C   0  0  0  0  0  0  0  0  0  0  0  0
  141.1730   76.4850  219.9920 C   0  0  0  0  0  0  0  0  0  0  0  0
  140.5260   75.8490  221.1420 N   0  0  0  0  0  0  0  0  0  0  0  0
  140.6660   74.4400  221.4040 C   0  0  0  0  0  0  0  0  0  0  0  0
  139.8040   73.8150  222.2440 N   0  0  0  0  0  0  0  0  0  0  0  0
  139.9220   72.4880  222.5000 C   0  0  0  0  0  0  0  0  0  0  0  0
  139.0140   71.8420  223.4010 N   0  0  0  0  0  0  0  0  0  0  0  0
  139.4820   71.0920  224.5660 C   0  0  0  0  0  0  0  0  0  0  0  0
  140.7200   71.7660  225.1780 C   0  0  0  0  0  0  0  0  0  0  0  0
  141.3650   70.9170  226.2980 C   0  0  0  0  0  0  0  0  0  0  0  0
  140.7730   69.4860  226.3360 C   0  0  0  0  0  0  0  0  0  0  0  0
  140.7740   68.9300  227.7670 C   0  0  0  0  0  0  0  0  0  0  0  0
  139.9700   69.6840  228.6670 O   0  0  0  0  0  0  0  0  0  0  0  0
  139.9670   71.0870  228.4150 C   0  0  0  0  0  0  0  0  0  0  0  0
  141.2130   71.6080  227.6740 C   0  0  0  0  0  0  0  0  0  0  0  0
  140.9050   71.7740  221.8970 N   0  0  0  0  0  0  0  0  0  0  0  0
  141.7790   72.3910  221.0550 C   0  0  0  0  0  0  0  0  0  0  0  0
  142.8800   71.6100  220.3900 C   0  0  1  0  0  0  0  0  0  0  0  0
  142.6190   71.4070  218.8780 C   0  0  0  0  0  0  0  0  0  0  0  0
  143.6690   72.2360  218.1150 C   0  0  0  0  0  0  0  0  0  0  0  0
  144.6020   72.6930  219.1710 C   0  0  0  0  0  0  0  0  0  0  0  0
  145.7890   73.4060  218.9850 C   0  0  0  0  0  0  0  0  0  0  0  0
  146.5400   73.7710  220.1110 C   0  0  0  0  0  0  0  0  0  0  0  0
  146.0960   73.4240  221.4000 C   0  0  0  0  0  0  0  0  0  0  0  0
  144.8960   72.7160  221.5640 C   0  0  0  0  0  0  0  0  0  0  0  0
  144.1620   72.3600  220.4290 C   0  0  0  0  0  0  0  0  0  0  0  0
  141.6580   73.7220  220.8160 N   0  0  0  0  0  0  0  0  0  0  0  0
  139.7730   76.7250  222.0490 C   0  0  0  0  0  0  0  0  0  0  0  0
  142.5102   81.2270  223.2957 H   0  0  0  0  0  0  0  0  0  0  0  0
  140.5311   80.5383  224.6491 H   0  0  0  0  0  0  0  0  0  0  0  0
  139.2844   78.4587  224.0722 H   0  0  0  0  0  0  0  0  0  0  0  0
  143.2625   79.8255  221.3742 H   0  0  0  0  0  0  0  0  0  0  0  0
  142.5102   78.1392  219.6580 H   0  0  0  0  0  0  0  0  0  0  0  0
  143.0716   76.9168  220.8813 H   0  0  0  0  0  0  0  0  0  0  0  0
  140.4178   77.0096  219.3883 H   0  0  0  0  0  0  0  0  0  0  0  0
  141.6640   75.7195  219.3732 H   0  0  0  0  0  0  0  0  0  0  0  0
  137.9840   71.9610  223.2560 H   0  0  0  0  0  0  0  0  0  0  0  0
  138.6806   71.0551  225.3186 H   0  0  0  0  0  0  0  0  0  0  0  0
  139.7514   70.0737  224.2489 H   0  0  0  0  0  0  0  0  0  0  0  0
  141.4639   71.9250  224.3834 H   0  0  0  0  0  0  0  0  0  0  0  0
  140.3954   72.7172  225.6251 H   0  0  0  0  0  0  0  0  0  0  0  0
  142.4380   70.8311  226.0714 H   0  0  0  0  0  0  0  0  0  0  0  0
  139.7391   69.5140  225.9613 H   0  0  0  0  0  0  0  0  0  0  0  0
  141.3931   68.8325  225.7048 H   0  0  0  0  0  0  0  0  0  0  0  0
  140.3937   67.8982  227.7404 H   0  0  0  0  0  0  0  0  0  0  0  0
  141.8094   68.9822  228.1349 H   0  0  0  0  0  0  0  0  0  0  0  0
  139.0818   71.3245  227.8067 H   0  0  0  0  0  0  0  0  0  0  0  0
  139.9599   71.5804  229.3981 H   0  0  0  0  0  0  0  0  0  0  0  0
  141.1151   72.6932  227.5234 H   0  0  0  0  0  0  0  0  0  0  0  0
  142.1027   71.3835  228.2807 H   0  0  0  0  0  0  0  0  0  0  0  0
  142.9201   70.6550  220.9343 H   0  0  0  0  0  0  0  0  0  0  0  0
  142.7190   70.3427  218.6186 H   0  0  0  0  0  0  0  0  0  0  0  0
  141.6013   71.7292  218.6124 H   0  0  0  0  0  0  0  0  0  0  0  0
  144.1925   71.6158  217.3725 H   0  0  0  0  0  0  0  0  0  0  0  0
  143.2231   73.0706  217.5541 H   0  0  0  0  0  0  0  0  0  0  0  0
  146.1279   73.6759  217.9739 H   0  0  0  0  0  0  0  0  0  0  0  0
  147.4790   74.3302  219.9863 H   0  0  0  0  0  0  0  0  0  0  0  0
  146.6906   73.7083  222.2807 H   0  0  0  0  0  0  0  0  0  0  0  0
  144.5388   72.4457  222.5687 H   0  0  0  0  0  0  0  0  0  0  0  0
  138.8390   77.0349  221.5575 H   0  0  0  0  0  0  0  0  0  0  0  0
  139.5548   76.1698  222.9732 H   0  0  0  0  0  0  0  0  0  0  0  0
  1  2  2  0
  2  3  1  0
  3  4  2  0
  4  5  1  0
  5  6  2  0
  5  7  1  0
  7  8  1  0
  8  9  1  0
  9 10  1  0
 10 11  2  0
 11 12  1  0
 12 13  1  0
 13 14  1  0
 14 15  1  0
 15 16  1  0
 16 17  1  0
 17 18  1  0
 18 19  1  0
 19 20  1  0
 20 21  1  0
 12 22  2  0
 22 23  1  0
 23 24  1  0
 24 25  1  0
 25 26  1  0
 26 27  1  0
 27 28  2  0
 28 29  1  0
 29 30  2  0
 30 31  1  0
 31 32  2  0
 23 33  2  0
  9 34  1  0
  6  1  1  0
 33 10  1  0
 34  4  1  0
 21 16  1  0
 32 24  1  0
 32 27  1  0
  1 35  1  0
  2 36  1  0
  3 37  1  0
  6 38  1  0
  7 39  1  0
  7 40  1  0
  8 41  1  0
  8 42  1  0
 13 43  1  0
 14 44  1  0
 14 45  1  0
 15 46  1  0
 15 47  1  0
 16 48  1  0
 17 49  1  0
 17 50  1  0
 18 51  1  0
 18 52  1  0
 20 53  1  0
 20 54  1  0
 21 55  1  0
 21 56  1  0
 24 57  1  1
 25 58  1  0
 25 59  1  0
 26 60  1  0
 26 61  1  0
 28 62  1  0
 29 63  1  0
 30 64  1  0
 31 65  1  0
 34 66  1  0
 34 67  1  0
M  END
>  <UniqueID>  (55) 
496

>  <SMILES>  (55) 
c1ccc2c(c1)CCN(c1nc(NCCC3CCOCC3)nc([C@H]3CCc4ccccc43)n1)C2

>  <Energy>  (55) 
85.0895374977814

>  <Genealogy>  (55) 
c1ccc2c(c1)CCN(c1nc(NCCC3CCOCC3)nc([C@H]3CCc4ccccc43)n1)C2 (chirality)
c1ccc2c(c1)CCN(c1nc(NCCC3CCOCC3)nc([C@H]3CCc4ccccc43)n1)C2 (3D coordinates assigned)
c1ccc2c(c1)CCN(c1nc(NCCC3CCOCC3)nc([C@H]3CCc4ccccc43)n1)C2 (nonaromatic ring conformer: 85.0895374977814 kcal/mol)

>  <smiles>  (55) 
c1ccc2c(c1)CCN(c1nc(NCCC3CCOCC3)nc(C3CCc4ccccc43)n1)C2

>  <score_type>  (55) 
oracle

>  <origin>  (55) 
autodockgpu

>  <m_score__min__energy>  (55) 
-10.26

>  <m_primary>  (55) 
energy

>  <meeko>  (55) 
{"free_energy": -9.7, "intermolecular_energy": -11.49, "internal_energy": -1.46, "cluster_size": 7, "cluster_id": 1, "rank_in_cluster": 6}

>  <energy>  (55) 
-9.05

>  <cluster_rmsd>  (55) 
0.16

>  <rmsd>  (55) 
270.24

>  <cluster>  (55) 
4

$$$$
AOEMPDNDYKTPOZ-MVXFCSEMNA-N
     RDKit          3D

 67 72  0  0  0  0  0  0  0  0999 V2000
  139.8040   69.3550  226.6460 C   0  0  0  0  0  0  0  0  0  0  0  0
  141.0850   69.8830  226.4760 C   0  0  0  0  0  0  0  0  0  0  0  0
  141.3620   70.7110  225.3870 C   0  0  0  0  0  0  0  0  0  0  0  0
  140.3540   71.0290  224.4620 C   0  0  0  0  0  0  0  0  0  0  0  0
  139.0590   70.4790  224.6210 C   0  0  0  0  0  0  0  0  0  0  0  0
  138.7930   69.6550  225.7270 C   0  0  0  0  0  0  0  0  0  0  0  0
  137.9230   70.8440  223.6910 C   0  0  0  0  0  0  0  0  0  0  0  0
  138.4210   71.4050  222.3560 C   0  0  0  0  0  0  0  0  0  0  0  0
  139.4820   72.3810  222.6120 N   0  0  0  0  0  0  0  0  0  0  0  0
  139.3220   73.7760  222.2870 C   0  0  0  0  0  0  0  0  0  0  0  0
  138.0900   74.3430  222.3130 N   0  0  0  0  0  0  0  0  0  0  0  0
  137.9230   75.6550  222.0100 C   0  0  0  0  0  0  0  0  0  0  0  0
  136.6150   76.2400  222.0260 N   0  0  0  0  0  0  0  0  0  0  0  0
  135.4450   75.5350  221.5050 C   0  0  0  0  0  0  0  0  0  0  0  0
  134.4520   75.2300  222.6370 C   0  0  0  0  0  0  0  0  0  0  0  0
  135.0800   74.3800  223.7650 C   0  0  0  0  0  0  0  0  0  0  0  0
  134.1640   73.1920  224.1550 C   0  0  0  0  0  0  0  0  0  0  0  0
  134.3250   72.8420  225.6420 C   0  0  0  0  0  0  0  0  0  0  0  0
  133.9460   73.8990  226.5150 O   0  0  0  0  0  0  0  0  0  0  0  0
  134.2470   75.2020  226.0230 C   0  0  0  0  0  0  0  0  0  0  0  0
  135.4000   75.2520  225.0030 C   0  0  0  0  0  0  0  0  0  0  0  0
  139.0030   76.4110  221.6910 N   0  0  0  0  0  0  0  0  0  0  0  0
  140.2440   75.8520  221.6570 C   0  0  0  0  0  0  0  0  0  0  0  0
  141.4450   76.6800  221.2930 C   0  0  1  0  0  0  0  0  0  0  0  0
  141.4500   77.0750  219.7960 C   0  0  0  0  0  0  0  0  0  0  0  0
  141.2230   78.5970  219.7220 C   0  0  0  0  0  0  0  0  0  0  0  0
  141.3160   79.0430  221.1320 C   0  0  0  0  0  0  0  0  0  0  0  0
  141.2760   80.3600  221.5940 C   0  0  0  0  0  0  0  0  0  0  0  0
  141.3620   80.5930  222.9740 C   0  0  0  0  0  0  0  0  0  0  0  0
  141.4830   79.5130  223.8680 C   0  0  0  0  0  0  0  0  0  0  0  0
  141.5110   78.1970  223.3810 C   0  0  0  0  0  0  0  0  0  0  0  0
  141.4260   77.9860  222.0020 C   0  0  0  0  0  0  0  0  0  0  0  0
  140.3960   74.5350  221.9510 N   0  0  0  0  0  0  0  0  0  0  0  0
  140.6980   71.8840  223.2680 C   0  0  0  0  0  0  0  0  0  0  0  0
  139.5891   68.7016  227.5045 H   0  0  0  0  0  0  0  0  0  0  0  0
  141.8773   69.6462  227.2014 H   0  0  0  0  0  0  0  0  0  0  0  0
  142.3755   71.1168  225.2524 H   0  0  0  0  0  0  0  0  0  0  0  0
  137.7833   69.2430  225.8714 H   0  0  0  0  0  0  0  0  0  0  0  0
  137.3236   69.9428  223.4943 H   0  0  0  0  0  0  0  0  0  0  0  0
  137.3247   71.6257  224.1819 H   0  0  0  0  0  0  0  0  0  0  0  0
  138.8156   70.5861  221.7366 H   0  0  0  0  0  0  0  0  0  0  0  0
  137.5895   71.8922  221.8257 H   0  0  0  0  0  0  0  0  0  0  0  0
  136.4820   77.1740  222.4800 H   0  0  0  0  0  0  0  0  0  0  0  0
  134.9507   76.1632  220.7494 H   0  0  0  0  0  0  0  0  0  0  0  0
  135.7728   74.5866  221.0543 H   0  0  0  0  0  0  0  0  0  0  0  0
  134.1028   76.1812  223.0652 H   0  0  0  0  0  0  0  0  0  0  0  0
  133.6223   74.6507  222.2056 H   0  0  0  0  0  0  0  0  0  0  0  0
  136.0239   73.9658  223.3808 H   0  0  0  0  0  0  0  0  0  0  0  0
  133.1165   73.4658  223.9607 H   0  0  0  0  0  0  0  0  0  0  0  0
  134.4494   72.3157  223.5544 H   0  0  0  0  0  0  0  0  0  0  0  0
  133.6989   71.9652  225.8637 H   0  0  0  0  0  0  0  0  0  0  0  0
  135.3931   72.6445  225.8155 H   0  0  0  0  0  0  0  0  0  0  0  0
  133.3439   75.6033  225.5399 H   0  0  0  0  0  0  0  0  0  0  0  0
  134.5723   75.7952  226.8904 H   0  0  0  0  0  0  0  0  0  0  0  0
  135.5512   76.2929  224.6811 H   0  0  0  0  0  0  0  0  0  0  0  0
  136.3102   74.8620  225.4819 H   0  0  0  0  0  0  0  0  0  0  0  0
  142.3108   76.0554  221.5583 H   0  0  0  0  0  0  0  0  0  0  0  0
  142.4179   76.8164  219.3419 H   0  0  0  0  0  0  0  0  0  0  0  0
  140.6617   76.5370  219.2491 H   0  0  0  0  0  0  0  0  0  0  0  0
  141.9983   79.0784  219.1078 H   0  0  0  0  0  0  0  0  0  0  0  0
  140.2608   78.8592  219.2579 H   0  0  0  0  0  0  0  0  0  0  0  0
  141.1789   81.1987  220.8889 H   0  0  0  0  0  0  0  0  0  0  0  0
  141.3348   81.6231  223.3589 H   0  0  0  0  0  0  0  0  0  0  0  0
  141.5557   79.7004  224.9495 H   0  0  0  0  0  0  0  0  0  0  0  0
  141.5984   77.3462  224.0728 H   0  0  0  0  0  0  0  0  0  0  0  0
  141.2752   71.2837  222.5494 H   0  0  0  0  0  0  0  0  0  0  0  0
  141.2895   72.7456  223.6113 H   0  0  0  0  0  0  0  0  0  0  0  0
  1  2  2  0
  2  3  1  0
  3  4  2  0
  4  5  1  0
  5  6  2  0
  5  7  1  0
  7  8  1  0
  8  9  1  0
  9 10  1  0
 10 11  2  0
 11 12  1  0
 12 13  1  0
 13 14  1  0
 14 15  1  0
 15 16  1  0
 16 17  1  0
 17 18  1  0
 18 19  1  0
 19 20  1  0
 20 21  1  0
 12 22  2  0
 22 23  1  0
 23 24  1  0
 24 25  1  0
 25 26  1  0
 26 27  1  0
 27 28  2  0
 28 29  1  0
 29 30  2  0
 30 31  1  0
 31 32  2  0
 23 33  2  0
  9 34  1  0
  6  1  1  0
 33 10  1  0
 34  4  1  0
 21 16  1  0
 32 24  1  0
 32 27  1  0
  1 35  1  0
  2 36  1  0
  3 37  1  0
  6 38  1  0
  7 39  1  0
  7 40  1  0
  8 41  1  0
  8 42  1  0
 13 43  1  0
 14 44  1  0
 14 45  1  0
 15 46  1  0
 15 47  1  0
 16 48  1  0
 17 49  1  0
 17 50  1  0
 18 51  1  0
 18 52  1  0
 20 53  1  0
 20 54  1  0
 21 55  1  0
 21 56  1  0
 24 57  1  1
 25 58  1  0
 25 59  1  0
 26 60  1  0
 26 61  1  0
 28 62  1  0
 29 63  1  0
 30 64  1  0
 31 65  1  0
 34 66  1  0
 34 67  1  0
M  END
>  <UniqueID>  (56) 
496

>  <SMILES>  (56) 
c1ccc2c(c1)CCN(c1nc(NCCC3CCOCC3)nc([C@H]3CCc4ccccc43)n1)C2

>  <Energy>  (56) 
85.0895374977814

>  <Genealogy>  (56) 
c1ccc2c(c1)CCN(c1nc(NCCC3CCOCC3)nc([C@H]3CCc4ccccc43)n1)C2 (chirality)
c1ccc2c(c1)CCN(c1nc(NCCC3CCOCC3)nc([C@H]3CCc4ccccc43)n1)C2 (3D coordinates assigned)
c1ccc2c(c1)CCN(c1nc(NCCC3CCOCC3)nc([C@H]3CCc4ccccc43)n1)C2 (nonaromatic ring conformer: 85.0895374977814 kcal/mol)

>  <smiles>  (56) 
c1ccc2c(c1)CCN(c1nc(NCCC3CCOCC3)nc(C3CCc4ccccc43)n1)C2

>  <score_type>  (56) 
oracle

>  <origin>  (56) 
autodockgpu

>  <m_score__min__energy>  (56) 
-10.26

>  <m_primary>  (56) 
energy

>  <meeko>  (56) 
{"free_energy": -8.81, "intermolecular_energy": -10.6, "internal_energy": -1.6, "cluster_size": 1, "cluster_id": 7, "rank_in_cluster": 1}

>  <energy>  (56) 
-9.03

>  <cluster_rmsd>  (56) 
0.08

>  <rmsd>  (56) 
270.19

>  <cluster>  (56) 
4

$$$$
AOEMPDNDYKTPOZ-MVXFCSEMNA-N
     RDKit          3D

 67 72  0  0  0  0  0  0  0  0999 V2000
  139.5690   69.1480  227.7670 C   0  0  0  0  0  0  0  0  0  0  0  0
  140.7200   69.9320  227.8650 C   0  0  0  0  0  0  0  0  0  0  0  0
  141.1890   70.6280  226.7500 C   0  0  0  0  0  0  0  0  0  0  0  0
  140.5030   70.5570  225.5270 C   0  0  0  0  0  0  0  0  0  0  0  0
  139.3470   69.7470  225.4190 C   0  0  0  0  0  0  0  0  0  0  0  0
  138.8810   69.0590  226.5520 C   0  0  0  0  0  0  0  0  0  0  0  0
  138.5350   69.6900  224.1430 C   0  0  0  0  0  0  0  0  0  0  0  0
  139.3380   70.1460  222.9220 C   0  0  0  0  0  0  0  0  0  0  0  0
  140.0650   71.3720  223.2560 N   0  0  0  0  0  0  0  0  0  0  0  0
  139.7780   72.6230  222.6040 C   0  0  0  0  0  0  0  0  0  0  0  0
  140.7900   73.4440  222.2290 N   0  0  0  0  0  0  0  0  0  0  0  0
  140.5360   74.6260  221.6130 C   0  0  0  0  0  0  0  0  0  0  0  0
  141.6130   75.4910  221.2360 N   0  0  0  0  0  0  0  0  0  0  0  0
  142.4450   75.2270  220.0630 C   0  0  0  0  0  0  0  0  0  0  0  0
  142.3600   73.7450  219.6660 C   0  0  0  0  0  0  0  0  0  0  0  0
  143.4930   72.8970  220.2900 C   0  0  0  0  0  0  0  0  0  0  0  0
  144.6770   73.7860  220.7470 C   0  0  0  0  0  0  0  0  0  0  0  0
  146.0080   73.0280  220.6290 C   0  0  0  0  0  0  0  0  0  0  0  0
  146.3260   72.6510  219.2950 O   0  0  0  0  0  0  0  0  0  0  0  0
  145.1970   72.2970  218.5010 C   0  0  0  0  0  0  0  0  0  0  0  0
  143.9770   71.8080  219.3030 C   0  0  0  0  0  0  0  0  0  0  0  0
  139.2530   74.9840  221.3560 N   0  0  0  0  0  0  0  0  0  0  0  0
  138.2270   74.1710  221.7300 C   0  0  0  0  0  0  0  0  0  0  0  0
  136.8010   74.5640  221.4600 C   0  0  1  0  0  0  0  0  0  0  0  0
  136.0420   73.4850  220.6500 C   0  0  0  0  0  0  0  0  0  0  0  0
  134.9830   72.8700  221.5840 C   0  0  0  0  0  0  0  0  0  0  0  0
  135.0170   73.7370  222.7850 C   0  0  0  0  0  0  0  0  0  0  0  0
  134.1710   73.6600  223.8940 C   0  0  0  0  0  0  0  0  0  0  0  0
  134.3640   74.5590  224.9520 C   0  0  0  0  0  0  0  0  0  0  0  0
  135.3930   75.5160  224.8900 C   0  0  0  0  0  0  0  0  0  0  0  0
  136.2370   75.5690  223.7700 C   0  0  0  0  0  0  0  0  0  0  0  0
  136.0280   74.6650  222.7240 C   0  0  0  0  0  0  0  0  0  0  0  0
  138.4950   72.9960  222.3570 N   0  0  0  0  0  0  0  0  0  0  0  0
  141.0650   71.2800  224.3280 C   0  0  0  0  0  0  0  0  0  0  0  0
  139.2023   68.5991  228.6469 H   0  0  0  0  0  0  0  0  0  0  0  0
  141.2578   70.0012  228.8221 H   0  0  0  0  0  0  0  0  0  0  0  0
  142.1021   71.2362  226.8298 H   0  0  0  0  0  0  0  0  0  0  0  0
  137.9697   68.4467  226.4833 H   0  0  0  0  0  0  0  0  0  0  0  0
  138.2030   68.6539  223.9811 H   0  0  0  0  0  0  0  0  0  0  0  0
  137.6802   70.3728  224.2575 H   0  0  0  0  0  0  0  0  0  0  0  0
  140.0529   69.3601  222.6371 H   0  0  0  0  0  0  0  0  0  0  0  0
  138.6556   70.3379  222.0809 H   0  0  0  0  0  0  0  0  0  0  0  0
  141.7710   76.3720  221.7800 H   0  0  0  0  0  0  0  0  0  0  0  0
  142.0957   75.8471  219.2243 H   0  0  0  0  0  0  0  0  0  0  0  0
  143.4898   75.4712  220.3054 H   0  0  0  0  0  0  0  0  0  0  0  0
  141.3929   73.3445  220.0041 H   0  0  0  0  0  0  0  0  0  0  0  0
  142.4630   73.6863  218.5724 H   0  0  0  0  0  0  0  0  0  0  0  0
  143.0823   72.3982  221.1802 H   0  0  0  0  0  0  0  0  0  0  0  0
  144.7173   74.6853  220.1149 H   0  0  0  0  0  0  0  0  0  0  0  0
  144.5224   74.0637  221.8001 H   0  0  0  0  0  0  0  0  0  0  0  0
  146.8125   73.6742  221.0101 H   0  0  0  0  0  0  0  0  0  0  0  0
  145.9075   72.1016  221.2135 H   0  0  0  0  0  0  0  0  0  0  0  0
  144.8944   73.1815  217.9213 H   0  0  0  0  0  0  0  0  0  0  0  0
  145.5126   71.4539  217.8688 H   0  0  0  0  0  0  0  0  0  0  0  0
  143.1614   71.5654  218.6059 H   0  0  0  0  0  0  0  0  0  0  0  0
  144.2685   70.9167  219.8780 H   0  0  0  0  0  0  0  0  0  0  0  0
  136.8679   75.5179  220.9163 H   0  0  0  0  0  0  0  0  0  0  0  0
  135.5534   73.9437  219.7777 H   0  0  0  0  0  0  0  0  0  0  0  0
  136.7354   72.7125  220.2861 H   0  0  0  0  0  0  0  0  0  0  0  0
  133.9884   72.8910  221.1147 H   0  0  0  0  0  0  0  0  0  0  0  0
  135.1867   71.8146  221.8180 H   0  0  0  0  0  0  0  0  0  0  0  0
  133.3689   72.9084  223.9362 H   0  0  0  0  0  0  0  0  0  0  0  0
  133.7082   74.5159  225.8341 H   0  0  0  0  0  0  0  0  0  0  0  0
  135.5363   76.2234  225.7201 H   0  0  0  0  0  0  0  0  0  0  0  0
  137.0490   76.3090  223.7160 H   0  0  0  0  0  0  0  0  0  0  0  0
  141.9430   70.7318  223.9556 H   0  0  0  0  0  0  0  0  0  0  0  0
  141.3489   72.2982  224.6325 H   0  0  0  0  0  0  0  0  0  0  0  0
  1  2  2  0
  2  3  1  0
  3  4  2  0
  4  5  1  0
  5  6  2  0
  5  7  1  0
  7  8  1  0
  8  9  1  0
  9 10  1  0
 10 11  2  0
 11 12  1  0
 12 13  1  0
 13 14  1  0
 14 15  1  0
 15 16  1  0
 16 17  1  0
 17 18  1  0
 18 19  1  0
 19 20  1  0
 20 21  1  0
 12 22  2  0
 22 23  1  0
 23 24  1  0
 24 25  1  0
 25 26  1  0
 26 27  1  0
 27 28  2  0
 28 29  1  0
 29 30  2  0
 30 31  1  0
 31 32  2  0
 23 33  2  0
  9 34  1  0
  6  1  1  0
 33 10  1  0
 34  4  1  0
 21 16  1  0
 32 24  1  0
 32 27  1  0
  1 35  1  0
  2 36  1  0
  3 37  1  0
  6 38  1  0
  7 39  1  0
  7 40  1  0
  8 41  1  0
  8 42  1  0
 13 43  1  0
 14 44  1  0
 14 45  1  0
 15 46  1  0
 15 47  1  0
 16 48  1  0
 17 49  1  0
 17 50  1  0
 18 51  1  0
 18 52  1  0
 20 53  1  0
 20 54  1  0
 21 55  1  0
 21 56  1  0
 24 57  1  6
 25 58  1  0
 25 59  1  0
 26 60  1  0
 26 61  1  0
 28 62  1  0
 29 63  1  0
 30 64  1  0
 31 65  1  0
 34 66  1  0
 34 67  1  0
M  END
>  <UniqueID>  (57) 
496

>  <SMILES>  (57) 
c1ccc2c(c1)CCN(c1nc(NCCC3CCOCC3)nc([C@H]3CCc4ccccc43)n1)C2

>  <Energy>  (57) 
85.0895374977814

>  <Genealogy>  (57) 
c1ccc2c(c1)CCN(c1nc(NCCC3CCOCC3)nc([C@H]3CCc4ccccc43)n1)C2 (chirality)
c1ccc2c(c1)CCN(c1nc(NCCC3CCOCC3)nc([C@H]3CCc4ccccc43)n1)C2 (3D coordinates assigned)
c1ccc2c(c1)CCN(c1nc(NCCC3CCOCC3)nc([C@H]3CCc4ccccc43)n1)C2 (nonaromatic ring conformer: 85.0895374977814 kcal/mol)

>  <smiles>  (57) 
c1ccc2c(c1)CCN(c1nc(NCCC3CCOCC3)nc(C3CCc4ccccc43)n1)C2

>  <score_type>  (57) 
oracle

>  <origin>  (57) 
autodockgpu

>  <m_score__min__energy>  (57) 
-10.26

>  <m_primary>  (57) 
energy

>  <meeko>  (57) 
{"free_energy": -8.81, "intermolecular_energy": -10.6, "internal_energy": -1.56, "cluster_size": 2, "cluster_id": 5, "rank_in_cluster": 2}

>  <energy>  (57) 
-9.0

>  <cluster_rmsd>  (57) 
0.0

>  <rmsd>  (57) 
270.66

>  <cluster>  (57) 
5

$$$$
AOEMPDNDYKTPOZ-MVXFCSEMNA-N
     RDKit          3D

 67 72  0  0  0  0  0  0  0  0999 V2000
  145.6060   66.9840  219.1800 C   0  0  0  0  0  0  0  0  0  0  0  0
  146.2430   68.2110  218.9900 C   0  0  0  0  0  0  0  0  0  0  0  0
  145.4970   69.3920  218.9800 C   0  0  0  0  0  0  0  0  0  0  0  0
  144.1070   69.3570  219.1730 C   0  0  0  0  0  0  0  0  0  0  0  0
  143.4560   68.1110  219.3460 C   0  0  0  0  0  0  0  0  0  0  0  0
  144.2200   66.9330  219.3630 C   0  0  0  0  0  0  0  0  0  0  0  0
  141.9710   68.0250  219.6240 C   0  0  0  0  0  0  0  0  0  0  0  0
  141.2250   69.2920  219.1980 C   0  0  0  0  0  0  0  0  0  0  0  0
  141.9730   70.4650  219.6520 N   0  0  0  0  0  0  0  0  0  0  0  0
  141.4340   71.3740  220.6320 C   0  0  0  0  0  0  0  0  0  0  0  0
  141.7840   72.6840  220.6100 N   0  0  0  0  0  0  0  0  0  0  0  0
  141.2840   73.5520  221.5250 C   0  0  0  0  0  0  0  0  0  0  0  0
  141.6730   74.9310  221.5010 N   0  0  0  0  0  0  0  0  0  0  0  0
  141.7480   75.6930  220.2560 C   0  0  0  0  0  0  0  0  0  0  0  0
  142.1890   74.7860  219.0960 C   0  0  0  0  0  0  0  0  0  0  0  0
  143.7070   74.8720  218.8180 C   0  0  0  0  0  0  0  0  0  0  0  0
  144.1350   73.8870  217.7010 C   0  0  0  0  0  0  0  0  0  0  0  0
  145.5710   73.3930  217.9270 C   0  0  0  0  0  0  0  0  0  0  0  0
  145.7350   72.6670  219.1390 O   0  0  0  0  0  0  0  0  0  0  0  0
  144.9350   73.1420  220.2190 C   0  0  0  0  0  0  0  0  0  0  0  0
  144.5220   74.6210  220.1090 C   0  0  0  0  0  0  0  0  0  0  0  0
  140.4130   73.1070  222.4640 N   0  0  0  0  0  0  0  0  0  0  0  0
  140.0570   71.7930  222.4990 C   0  0  0  0  0  0  0  0  0  0  0  0
  139.1000   71.2880  223.5440 C   0  0  1  0  0  0  0  0  0  0  0  0
  138.3690   70.0010  223.0910 C   0  0  0  0  0  0  0  0  0  0  0  0
  138.8810   68.8460  223.9730 C   0  0  0  0  0  0  0  0  0  0  0  0
  139.6930   69.5220  225.0120 C   0  0  0  0  0  0  0  0  0  0  0  0
  140.3020   68.9210  226.1170 C   0  0  0  0  0  0  0  0  0  0  0  0
  141.0510   69.7210  226.9910 C   0  0  0  0  0  0  0  0  0  0  0  0
  141.1820   71.1010  226.7510 C   0  0  0  0  0  0  0  0  0  0  0  0
  140.5700   71.6820  225.6300 C   0  0  0  0  0  0  0  0  0  0  0  0
  139.8260   70.8670  224.7710 C   0  0  0  0  0  0  0  0  0  0  0  0
  140.5730   70.9320  221.5850 N   0  0  0  0  0  0  0  0  0  0  0  0
  143.3240   70.6440  219.1050 C   0  0  0  0  0  0  0  0  0  0  0  0
  146.1949   66.0550  219.1859 H   0  0  0  0  0  0  0  0  0  0  0  0
  147.3332   68.2482  218.8480 H   0  0  0  0  0  0  0  0  0  0  0  0
  146.0022   70.3559  218.8198 H   0  0  0  0  0  0  0  0  0  0  0  0
  143.7253   65.9634  219.5213 H   0  0  0  0  0  0  0  0  0  0  0  0
  141.5569   67.1684  219.0719 H   0  0  0  0  0  0  0  0  0  0  0  0
  141.8386   67.9059  220.7095 H   0  0  0  0  0  0  0  0  0  0  0  0
  141.1342   69.3148  218.1020 H   0  0  0  0  0  0  0  0  0  0  0  0
  140.2201   69.2979  219.6454 H   0  0  0  0  0  0  0  0  0  0  0  0
  141.8480   75.4250  222.4080 H   0  0  0  0  0  0  0  0  0  0  0  0
  140.7577   76.1148  220.0295 H   0  0  0  0  0  0  0  0  0  0  0  0
  142.4853   76.5004  220.3767 H   0  0  0  0  0  0  0  0  0  0  0  0
  141.9351   73.7454  219.3463 H   0  0  0  0  0  0  0  0  0  0  0  0
  141.6648   75.1250  218.1903 H   0  0  0  0  0  0  0  0  0  0  0  0
  143.9212   75.8923  218.4672 H   0  0  0  0  0  0  0  0  0  0  0  0
  143.4530   73.0239  217.7011 H   0  0  0  0  0  0  0  0  0  0  0  0
  144.0915   74.4109  216.7347 H   0  0  0  0  0  0  0  0  0  0  0  0
  145.8506   72.7386  217.0882 H   0  0  0  0  0  0  0  0  0  0  0  0
  146.2138   74.2832  217.9925 H   0  0  0  0  0  0  0  0  0  0  0  0
  144.0202   72.5327  220.2621 H   0  0  0  0  0  0  0  0  0  0  0  0
  145.5529   73.0576  221.1251 H   0  0  0  0  0  0  0  0  0  0  0  0
  143.9072   74.8891  220.9809 H   0  0  0  0  0  0  0  0  0  0  0  0
  145.4318   75.2385  220.0760 H   0  0  0  0  0  0  0  0  0  0  0  0
  138.4026   72.1208  223.7172 H   0  0  0  0  0  0  0  0  0  0  0  0
  137.2831   70.1200  223.2203 H   0  0  0  0  0  0  0  0  0  0  0  0
  138.5665   69.7955  222.0286 H   0  0  0  0  0  0  0  0  0  0  0  0
  138.0416   68.2989  224.4271 H   0  0  0  0  0  0  0  0  0  0  0  0
  139.4564   68.1012  223.4037 H   0  0  0  0  0  0  0  0  0  0  0  0
  140.1956   67.8411  226.2974 H   0  0  0  0  0  0  0  0  0  0  0  0
  141.5379   69.2683  227.8673 H   0  0  0  0  0  0  0  0  0  0  0  0
  141.7653   71.7257  227.4435 H   0  0  0  0  0  0  0  0  0  0  0  0
  140.6735   72.7588  225.4305 H   0  0  0  0  0  0  0  0  0  0  0  0
  143.2481   70.9643  218.0554 H   0  0  0  0  0  0  0  0  0  0  0  0
  143.8469   71.4055  219.7022 H   0  0  0  0  0  0  0  0  0  0  0  0
  1  2  2  0
  2  3  1  0
  3  4  2  0
  4  5  1  0
  5  6  2  0
  5  7  1  0
  7  8  1  0
  8  9  1  0
  9 10  1  0
 10 11  2  0
 11 12  1  0
 12 13  1  0
 13 14  1  0
 14 15  1  0
 15 16  1  0
 16 17  1  0
 17 18  1  0
 18 19  1  0
 19 20  1  0
 20 21  1  0
 12 22  2  0
 22 23  1  0
 23 24  1  0
 24 25  1  0
 25 26  1  0
 26 27  1  0
 27 28  2  0
 28 29  1  0
 29 30  2  0
 30 31  1  0
 31 32  2  0
 23 33  2  0
  9 34  1  0
  6  1  1  0
 33 10  1  0
 34  4  1  0
 21 16  1  0
 32 24  1  0
 32 27  1  0
  1 35  1  0
  2 36  1  0
  3 37  1  0
  6 38  1  0
  7 39  1  0
  7 40  1  0
  8 41  1  0
  8 42  1  0
 13 43  1  0
 14 44  1  0
 14 45  1  0
 15 46  1  0
 15 47  1  0
 16 48  1  0
 17 49  1  0
 17 50  1  0
 18 51  1  0
 18 52  1  0
 20 53  1  0
 20 54  1  0
 21 55  1  0
 21 56  1  0
 24 57  1  1
 25 58  1  0
 25 59  1  0
 26 60  1  0
 26 61  1  0
 28 62  1  0
 29 63  1  0
 30 64  1  0
 31 65  1  0
 34 66  1  0
 34 67  1  0
M  END
>  <UniqueID>  (58) 
496

>  <SMILES>  (58) 
c1ccc2c(c1)CCN(c1nc(NCCC3CCOCC3)nc([C@H]3CCc4ccccc43)n1)C2

>  <Energy>  (58) 
85.0895374977814

>  <Genealogy>  (58) 
c1ccc2c(c1)CCN(c1nc(NCCC3CCOCC3)nc([C@H]3CCc4ccccc43)n1)C2 (chirality)
c1ccc2c(c1)CCN(c1nc(NCCC3CCOCC3)nc([C@H]3CCc4ccccc43)n1)C2 (3D coordinates assigned)
c1ccc2c(c1)CCN(c1nc(NCCC3CCOCC3)nc([C@H]3CCc4ccccc43)n1)C2 (nonaromatic ring conformer: 85.0895374977814 kcal/mol)

>  <smiles>  (58) 
c1ccc2c(c1)CCN(c1nc(NCCC3CCOCC3)nc(C3CCc4ccccc43)n1)C2

>  <score_type>  (58) 
oracle

>  <origin>  (58) 
autodockgpu

>  <m_score__min__energy>  (58) 
-10.26

>  <m_primary>  (58) 
energy

>  <meeko>  (58) 
{"free_energy": -9.05, "intermolecular_energy": -10.83, "internal_energy": -1.79, "cluster_size": 3, "cluster_id": 4, "rank_in_cluster": 2}

>  <energy>  (58) 
-8.81

>  <cluster_rmsd>  (58) 
1.04

>  <rmsd>  (58) 
270.52

>  <cluster>  (58) 
5

$$$$
AOEMPDNDYKTPOZ-MVXFCSEMNA-N
     RDKit          3D

 67 72  0  0  0  0  0  0  0  0999 V2000
  145.5120   66.7110  219.2130 C   0  0  0  0  0  0  0  0  0  0  0  0
  146.2070   67.9100  219.0430 C   0  0  0  0  0  0  0  0  0  0  0  0
  145.5160   69.1230  219.0230 C   0  0  0  0  0  0  0  0  0  0  0  0
  144.1210   69.1490  219.1850 C   0  0  0  0  0  0  0  0  0  0  0  0
  143.4110   67.9330  219.3380 C   0  0  0  0  0  0  0  0  0  0  0  0
  144.1220   66.7210  219.3660 C   0  0  0  0  0  0  0  0  0  0  0  0
  141.9180   67.9120  219.5830 C   0  0  0  0  0  0  0  0  0  0  0  0
  141.2390   69.2130  219.1480 C   0  0  0  0  0  0  0  0  0  0  0  0
  142.0290   70.3500  219.6240 N   0  0  0  0  0  0  0  0  0  0  0  0
  141.5100   71.2780  220.5960 C   0  0  0  0  0  0  0  0  0  0  0  0
  141.8970   72.5780  220.5700 N   0  0  0  0  0  0  0  0  0  0  0  0
  141.4160   73.4640  221.4780 C   0  0  0  0  0  0  0  0  0  0  0  0
  141.8440   74.8310  221.4510 N   0  0  0  0  0  0  0  0  0  0  0  0
  141.7650   75.6430  220.2380 C   0  0  0  0  0  0  0  0  0  0  0  0
  142.1870   74.8190  219.0110 C   0  0  0  0  0  0  0  0  0  0  0  0
  143.7100   74.8860  218.7460 C   0  0  0  0  0  0  0  0  0  0  0  0
  144.1300   73.9130  217.6150 C   0  0  0  0  0  0  0  0  0  0  0  0
  145.5560   73.3920  217.8430 C   0  0  0  0  0  0  0  0  0  0  0  0
  145.6980   72.6410  219.0440 O   0  0  0  0  0  0  0  0  0  0  0  0
  144.8970   73.1100  220.1260 C   0  0  0  0  0  0  0  0  0  0  0  0
  144.5090   74.5980  220.0390 C   0  0  0  0  0  0  0  0  0  0  0  0
  140.5260   73.0480  222.4130 N   0  0  0  0  0  0  0  0  0  0  0  0
  140.1330   71.7450  222.4520 C   0  0  0  0  0  0  0  0  0  0  0  0
  139.1560   71.2720  223.4930 C   0  0  1  0  0  0  0  0  0  0  0  0
  138.3790   70.0130  223.0340 C   0  0  0  0  0  0  0  0  0  0  0  0
  138.8470   68.8380  223.9140 C   0  0  0  0  0  0  0  0  0  0  0  0
  139.6790   69.4820  224.9580 C   0  0  0  0  0  0  0  0  0  0  0  0
  140.2630   68.8560  226.0620 C   0  0  0  0  0  0  0  0  0  0  0  0
  141.0370   69.6260  226.9410 C   0  0  0  0  0  0  0  0  0  0  0  0
  141.2200   71.0010  226.7050 C   0  0  0  0  0  0  0  0  0  0  0  0
  140.6320   71.6060  225.5840 C   0  0  0  0  0  0  0  0  0  0  0  0
  139.8620   70.8220  224.7200 C   0  0  0  0  0  0  0  0  0  0  0  0
  140.6300   70.8650  221.5450 N   0  0  0  0  0  0  0  0  0  0  0  0
  143.3990   70.4700  219.1070 C   0  0  0  0  0  0  0  0  0  0  0  0
  146.0589   65.7567  219.2266 H   0  0  0  0  0  0  0  0  0  0  0  0
  147.3006   67.8989  218.9247 H   0  0  0  0  0  0  0  0  0  0  0  0
  146.0674   70.0640  218.8795 H   0  0  0  0  0  0  0  0  0  0  0  0
  143.5814   65.7738  219.5092 H   0  0  0  0  0  0  0  0  0  0  0  0
  141.4785   67.0774  219.0171 H   0  0  0  0  0  0  0  0  0  0  0  0
  141.7564   67.7937  220.6646 H   0  0  0  0  0  0  0  0  0  0  0  0
  141.1729   69.2445  218.0504 H   0  0  0  0  0  0  0  0  0  0  0  0
  140.2261   69.2620  219.5742 H   0  0  0  0  0  0  0  0  0  0  0  0
  142.1650   75.2800  222.3400 H   0  0  0  0  0  0  0  0  0  0  0  0
  140.7304   75.9911  220.1020 H   0  0  0  0  0  0  0  0  0  0  0  0
  142.4437   76.5026  220.3402 H   0  0  0  0  0  0  0  0  0  0  0  0
  141.9039   73.7691  219.1771 H   0  0  0  0  0  0  0  0  0  0  0  0
  141.6766   75.2422  218.1333 H   0  0  0  0  0  0  0  0  0  0  0  0
  143.9448   75.9085  218.4152 H   0  0  0  0  0  0  0  0  0  0  0  0
  143.4341   73.0613  217.5955 H   0  0  0  0  0  0  0  0  0  0  0  0
  144.1019   74.4536  216.6574 H   0  0  0  0  0  0  0  0  0  0  0  0
  145.8320   72.7485  216.9946 H   0  0  0  0  0  0  0  0  0  0  0  0
  146.2128   74.2702  217.9294 H   0  0  0  0  0  0  0  0  0  0  0  0
  143.9720   72.5152  220.1510 H   0  0  0  0  0  0  0  0  0  0  0  0
  145.5060   72.9994  221.0353 H   0  0  0  0  0  0  0  0  0  0  0  0
  143.8909   74.8604  220.9102 H   0  0  0  0  0  0  0  0  0  0  0  0
  145.4291   75.2006  220.0249 H   0  0  0  0  0  0  0  0  0  0  0  0
  138.4891   72.1293  223.6668 H   0  0  0  0  0  0  0  0  0  0  0  0
  137.2979   70.1710  223.1612 H   0  0  0  0  0  0  0  0  0  0  0  0
  138.5709   69.8035  221.9713 H   0  0  0  0  0  0  0  0  0  0  0  0
  137.9874   68.3195  224.3636 H   0  0  0  0  0  0  0  0  0  0  0  0
  139.3977   68.0751  223.3442 H   0  0  0  0  0  0  0  0  0  0  0  0
  140.1182   67.7799  226.2380 H   0  0  0  0  0  0  0  0  0  0  0  0
  141.5030   69.1537  227.8184 H   0  0  0  0  0  0  0  0  0  0  0  0
  141.8246   71.6021  227.4000 H   0  0  0  0  0  0  0  0  0  0  0  0
  140.7745   72.6790  225.3883 H   0  0  0  0  0  0  0  0  0  0  0  0
  143.3605   70.7980  218.0577 H   0  0  0  0  0  0  0  0  0  0  0  0
  143.9427   71.2044  219.7194 H   0  0  0  0  0  0  0  0  0  0  0  0
  1  2  2  0
  2  3  1  0
  3  4  2  0
  4  5  1  0
  5  6  2  0
  5  7  1  0
  7  8  1  0
  8  9  1  0
  9 10  1  0
 10 11  2  0
 11 12  1  0
 12 13  1  0
 13 14  1  0
 14 15  1  0
 15 16  1  0
 16 17  1  0
 17 18  1  0
 18 19  1  0
 19 20  1  0
 20 21  1  0
 12 22  2  0
 22 23  1  0
 23 24  1  0
 24 25  1  0
 25 26  1  0
 26 27  1  0
 27 28  2  0
 28 29  1  0
 29 30  2  0
 30 31  1  0
 31 32  2  0
 23 33  2  0
  9 34  1  0
  6  1  1  0
 33 10  1  0
 34  4  1  0
 21 16  1  0
 32 24  1  0
 32 27  1  0
  1 35  1  0
  2 36  1  0
  3 37  1  0
  6 38  1  0
  7 39  1  0
  7 40  1  0
  8 41  1  0
  8 42  1  0
 13 43  1  0
 14 44  1  0
 14 45  1  0
 15 46  1  0
 15 47  1  0
 16 48  1  0
 17 49  1  0
 17 50  1  0
 18 51  1  0
 18 52  1  0
 20 53  1  0
 20 54  1  0
 21 55  1  0
 21 56  1  0
 24 57  1  1
 25 58  1  0
 25 59  1  0
 26 60  1  0
 26 61  1  0
 28 62  1  0
 29 63  1  0
 30 64  1  0
 31 65  1  0
 34 66  1  0
 34 67  1  0
M  END
>  <UniqueID>  (59) 
496

>  <SMILES>  (59) 
c1ccc2c(c1)CCN(c1nc(NCCC3CCOCC3)nc([C@H]3CCc4ccccc43)n1)C2

>  <Energy>  (59) 
85.0895374977814

>  <Genealogy>  (59) 
c1ccc2c(c1)CCN(c1nc(NCCC3CCOCC3)nc([C@H]3CCc4ccccc43)n1)C2 (chirality)
c1ccc2c(c1)CCN(c1nc(NCCC3CCOCC3)nc([C@H]3CCc4ccccc43)n1)C2 (3D coordinates assigned)
c1ccc2c(c1)CCN(c1nc(NCCC3CCOCC3)nc([C@H]3CCc4ccccc43)n1)C2 (nonaromatic ring conformer: 85.0895374977814 kcal/mol)

>  <smiles>  (59) 
c1ccc2c(c1)CCN(c1nc(NCCC3CCOCC3)nc(C3CCc4ccccc43)n1)C2

>  <score_type>  (59) 
oracle

>  <origin>  (59) 
autodockgpu

>  <m_score__min__energy>  (59) 
-10.26

>  <m_primary>  (59) 
energy

>  <meeko>  (59) 
{"free_energy": -9.06, "intermolecular_energy": -10.85, "internal_energy": -1.9, "cluster_size": 3, "cluster_id": 4, "rank_in_cluster": 1}

>  <energy>  (59) 
-8.96

>  <cluster_rmsd>  (59) 
0.0

>  <rmsd>  (59) 
270.96

>  <cluster>  (59) 
6

$$$$
AOEMPDNDYKTPOZ-MVXFCSEMNA-N
     RDKit          3D

 67 72  0  0  0  0  0  0  0  0999 V2000
  141.7550   80.3300  222.8250 C   0  0  0  0  0  0  0  0  0  0  0  0
  140.6700   79.9170  223.6010 C   0  0  0  0  0  0  0  0  0  0  0  0
  140.0440   78.6980  223.3340 C   0  0  0  0  0  0  0  0  0  0  0  0
  140.5050   77.8740  222.2940 C   0  0  0  0  0  0  0  0  0  0  0  0
  141.5920   78.3000  221.4940 C   0  0  0  0  0  0  0  0  0  0  0  0
  142.2190   79.5240  221.7810 C   0  0  0  0  0  0  0  0  0  0  0  0
  142.1690   77.4200  220.4060 C   0  0  0  0  0  0  0  0  0  0  0  0
  141.1870   76.3370  219.9520 C   0  0  0  0  0  0  0  0  0  0  0  0
  140.5770   75.7180  221.1300 N   0  0  0  0  0  0  0  0  0  0  0  0
  140.7970   74.3310  221.4550 C   0  0  0  0  0  0  0  0  0  0  0  0
  140.0150   73.7160  222.3760 N   0  0  0  0  0  0  0  0  0  0  0  0
  140.2090   72.4110  222.6920 C   0  0  0  0  0  0  0  0  0  0  0  0
  139.3860   71.7750  223.6780 N   0  0  0  0  0  0  0  0  0  0  0  0
  138.9410   70.3900  223.5390 C   0  0  0  0  0  0  0  0  0  0  0  0
  139.7050   69.4790  224.5130 C   0  0  0  0  0  0  0  0  0  0  0  0
  139.4580   69.8520  225.9930 C   0  0  0  0  0  0  0  0  0  0  0  0
  140.4350   70.9570  226.4690 C   0  0  0  0  0  0  0  0  0  0  0  0
  140.7520   70.8020  227.9630 C   0  0  0  0  0  0  0  0  0  0  0  0
  141.4030   69.5770  228.2780 O   0  0  0  0  0  0  0  0  0  0  0  0
  140.9770   68.4680  227.4900 C   0  0  0  0  0  0  0  0  0  0  0  0
  139.5610   68.6050  226.9030 C   0  0  0  0  0  0  0  0  0  0  0  0
  141.1880   71.7090  222.0680 N   0  0  0  0  0  0  0  0  0  0  0  0
  141.9830   72.3170  221.1450 C   0  0  0  0  0  0  0  0  0  0  0  0
  143.0790   71.5510  220.4560 C   0  0  1  0  0  0  0  0  0  0  0  0
  142.7830   71.3350  218.9520 C   0  0  0  0  0  0  0  0  0  0  0  0
  143.8000   72.1780  218.1580 C   0  0  0  0  0  0  0  0  0  0  0  0
  144.7520   72.6550  219.1890 C   0  0  0  0  0  0  0  0  0  0  0  0
  145.9220   73.3850  218.9690 C   0  0  0  0  0  0  0  0  0  0  0  0
  146.6960   73.7670  220.0740 C   0  0  0  0  0  0  0  0  0  0  0  0
  146.2900   73.4200  221.3760 C   0  0  0  0  0  0  0  0  0  0  0  0
  145.1050   72.6950  221.5740 C   0  0  0  0  0  0  0  0  0  0  0  0
  144.3490   72.3210  220.4590 C   0  0  0  0  0  0  0  0  0  0  0  0
  141.7860   73.6270  220.8460 N   0  0  0  0  0  0  0  0  0  0  0  0
  139.7740   76.5880  221.9990 C   0  0  0  0  0  0  0  0  0  0  0  0
  142.2458   81.2917  223.0356 H   0  0  0  0  0  0  0  0  0  0  0  0
  140.3084   80.5523  224.4229 H   0  0  0  0  0  0  0  0  0  0  0  0
  139.1840   78.3807  223.9421 H   0  0  0  0  0  0  0  0  0  0  0  0
  143.0808   79.8504  221.1803 H   0  0  0  0  0  0  0  0  0  0  0  0
  142.4259   78.0494  219.5412 H   0  0  0  0  0  0  0  0  0  0  0  0
  143.0577   76.9177  220.8158 H   0  0  0  0  0  0  0  0  0  0  0  0
  140.4034   76.7893  219.3264 H   0  0  0  0  0  0  0  0  0  0  0  0
  141.7218   75.5737  219.3678 H   0  0  0  0  0  0  0  0  0  0  0  0
  139.1470   72.2980  224.5530 H   0  0  0  0  0  0  0  0  0  0  0  0
  137.8645   70.3319  223.7578 H   0  0  0  0  0  0  0  0  0  0  0  0
  139.1373   70.0547  222.5099 H   0  0  0  0  0  0  0  0  0  0  0  0
  139.3802   68.4404  224.3524 H   0  0  0  0  0  0  0  0  0  0  0  0
  140.7794   69.6034  224.3127 H   0  0  0  0  0  0  0  0  0  0  0  0
  138.4356   70.2509  226.0669 H   0  0  0  0  0  0  0  0  0  0  0  0
  141.3694   70.8839  225.8932 H   0  0  0  0  0  0  0  0  0  0  0  0
  139.9613   71.9370  226.3102 H   0  0  0  0  0  0  0  0  0  0  0  0
  141.4050   71.6327  228.2690 H   0  0  0  0  0  0  0  0  0  0  0  0
  139.7925   70.8077  228.5010 H   0  0  0  0  0  0  0  0  0  0  0  0
  141.6840   68.3482  226.6559 H   0  0  0  0  0  0  0  0  0  0  0  0
  140.9524   67.5985  228.1633 H   0  0  0  0  0  0  0  0  0  0  0  0
  139.3282   67.7074  226.3114 H   0  0  0  0  0  0  0  0  0  0  0  0
  138.8464   68.7153  227.7320 H   0  0  0  0  0  0  0  0  0  0  0  0
  143.1483   70.5997  221.0039 H   0  0  0  0  0  0  0  0  0  0  0  0
  142.8945   70.2711  218.6956 H   0  0  0  0  0  0  0  0  0  0  0  0
  141.7536   71.6383  218.7106 H   0  0  0  0  0  0  0  0  0  0  0  0
  144.3147   71.5630  217.4051 H   0  0  0  0  0  0  0  0  0  0  0  0
  143.3266   73.0025  217.6047 H   0  0  0  0  0  0  0  0  0  0  0  0
  146.2305   73.6552  217.9483 H   0  0  0  0  0  0  0  0  0  0  0  0
  147.6231   74.3394  219.9228 H   0  0  0  0  0  0  0  0  0  0  0  0
  146.9025   73.7176  222.2399 H   0  0  0  0  0  0  0  0  0  0  0  0
  144.7766   72.4256  222.5887 H   0  0  0  0  0  0  0  0  0  0  0  0
  138.8235   76.8208  221.4967 H   0  0  0  0  0  0  0  0  0  0  0  0
  139.5879   76.0631  222.9476 H   0  0  0  0  0  0  0  0  0  0  0  0
  1  2  2  0
  2  3  1  0
  3  4  2  0
  4  5  1  0
  5  6  2  0
  5  7  1  0
  7  8  1  0
  8  9  1  0
  9 10  1  0
 10 11  2  0
 11 12  1  0
 12 13  1  0
 13 14  1  0
 14 15  1  0
 15 16  1  0
 16 17  1  0
 17 18  1  0
 18 19  1  0
 19 20  1  0
 20 21  1  0
 12 22  2  0
 22 23  1  0
 23 24  1  0
 24 25  1  0
 25 26  1  0
 26 27  1  0
 27 28  2  0
 28 29  1  0
 29 30  2  0
 30 31  1  0
 31 32  2  0
 23 33  2  0
  9 34  1  0
  6  1  1  0
 33 10  1  0
 34  4  1  0
 21 16  1  0
 32 24  1  0
 32 27  1  0
  1 35  1  0
  2 36  1  0
  3 37  1  0
  6 38  1  0
  7 39  1  0
  7 40  1  0
  8 41  1  0
  8 42  1  0
 13 43  1  0
 14 44  1  0
 14 45  1  0
 15 46  1  0
 15 47  1  0
 16 48  1  0
 17 49  1  0
 17 50  1  0
 18 51  1  0
 18 52  1  0
 20 53  1  0
 20 54  1  0
 21 55  1  0
 21 56  1  0
 24 57  1  1
 25 58  1  0
 25 59  1  0
 26 60  1  0
 26 61  1  0
 28 62  1  0
 29 63  1  0
 30 64  1  0
 31 65  1  0
 34 66  1  0
 34 67  1  0
M  END
>  <UniqueID>  (60) 
496

>  <SMILES>  (60) 
c1ccc2c(c1)CCN(c1nc(NCCC3CCOCC3)nc([C@H]3CCc4ccccc43)n1)C2

>  <Energy>  (60) 
85.0895374977814

>  <Genealogy>  (60) 
c1ccc2c(c1)CCN(c1nc(NCCC3CCOCC3)nc([C@H]3CCc4ccccc43)n1)C2 (chirality)
c1ccc2c(c1)CCN(c1nc(NCCC3CCOCC3)nc([C@H]3CCc4ccccc43)n1)C2 (3D coordinates assigned)
c1ccc2c(c1)CCN(c1nc(NCCC3CCOCC3)nc([C@H]3CCc4ccccc43)n1)C2 (nonaromatic ring conformer: 85.0895374977814 kcal/mol)

>  <smiles>  (60) 
c1ccc2c(c1)CCN(c1nc(NCCC3CCOCC3)nc(C3CCc4ccccc43)n1)C2

>  <score_type>  (60) 
oracle

>  <origin>  (60) 
autodockgpu

>  <m_score__min__energy>  (60) 
-10.26

>  <m_primary>  (60) 
energy

>  <meeko>  (60) 
{"free_energy": -9.61, "intermolecular_energy": -11.4, "internal_energy": -1.33, "cluster_size": 7, "cluster_id": 1, "rank_in_cluster": 7}

>  <energy>  (60) 
-8.81

>  <cluster_rmsd>  (60) 
0.0

>  <rmsd>  (60) 
270.86

>  <cluster>  (60) 
7

$$$$
AOEMPDNDYKTPOZ-MVXFCSEMNA-N
     RDKit          3D

 67 72  0  0  0  0  0  0  0  0999 V2000
  142.1760   81.3380  222.6150 C   0  0  0  0  0  0  0  0  0  0  0  0
  142.0660   80.6620  223.8310 C   0  0  0  0  0  0  0  0  0  0  0  0
  141.6220   79.3380  223.8570 C   0  0  0  0  0  0  0  0  0  0  0  0
  141.2950   78.6740  222.6640 C   0  0  0  0  0  0  0  0  0  0  0  0
  141.3870   79.3650  221.4310 C   0  0  0  0  0  0  0  0  0  0  0  0
  141.8440   80.6930  221.4200 C   0  0  0  0  0  0  0  0  0  0  0  0
  141.1110   78.6740  220.1130 C   0  0  0  0  0  0  0  0  0  0  0  0
  140.2730   77.4050  220.2860 C   0  0  0  0  0  0  0  0  0  0  0  0
  140.8040   76.6270  221.4070 N   0  0  0  0  0  0  0  0  0  0  0  0
  141.3840   75.3220  221.2150 C   0  0  0  0  0  0  0  0  0  0  0  0
  140.7640   74.2230  221.7110 N   0  0  0  0  0  0  0  0  0  0  0  0
  141.2970   72.9870  221.5380 C   0  0  0  0  0  0  0  0  0  0  0  0
  140.6400   71.8340  222.0800 N   0  0  0  0  0  0  0  0  0  0  0  0
  139.9280   71.8760  223.3560 C   0  0  0  0  0  0  0  0  0  0  0  0
  140.5810   70.9220  224.3680 C   0  0  0  0  0  0  0  0  0  0  0  0
  140.0600   71.1360  225.8080 C   0  0  0  0  0  0  0  0  0  0  0  0
  141.1000   71.8840  226.6800 C   0  0  0  0  0  0  0  0  0  0  0  0
  140.9970   71.4490  228.1490 C   0  0  0  0  0  0  0  0  0  0  0  0
  141.2750   70.0680  228.3500 O   0  0  0  0  0  0  0  0  0  0  0  0
  140.8320   69.2210  227.2920 C   0  0  0  0  0  0  0  0  0  0  0  0
  139.6670   69.7900  226.4610 C   0  0  0  0  0  0  0  0  0  0  0  0
  142.4560   72.8490  220.8470 N   0  0  0  0  0  0  0  0  0  0  0  0
  143.0900   73.9450  220.3480 C   0  0  0  0  0  0  0  0  0  0  0  0
  144.3820   73.8030  219.5920 C   0  0  1  0  0  0  0  0  0  0  0  0
  145.6160   74.0280  220.4980 C   0  0  0  0  0  0  0  0  0  0  0  0
  146.3360   72.6740  220.6410 C   0  0  0  0  0  0  0  0  0  0  0  0
  145.6450   71.7970  219.6670 C   0  0  0  0  0  0  0  0  0  0  0  0
  145.9850   70.4820  219.3400 C   0  0  0  0  0  0  0  0  0  0  0  0
  145.2010   69.7960  218.4030 C   0  0  0  0  0  0  0  0  0  0  0  0
  144.0920   70.4270  217.8100 C   0  0  0  0  0  0  0  0  0  0  0  0
  143.7620   71.7450  218.1610 C   0  0  0  0  0  0  0  0  0  0  0  0
  144.5580   72.4130  219.0960 C   0  0  0  0  0  0  0  0  0  0  0  0
  142.5520   75.1780  220.5390 N   0  0  0  0  0  0  0  0  0  0  0  0
  140.7700   77.2620  222.7310 C   0  0  0  0  0  0  0  0  0  0  0  0
  142.5248   82.3811  222.5968 H   0  0  0  0  0  0  0  0  0  0  0  0
  142.3291   81.1722  224.7694 H   0  0  0  0  0  0  0  0  0  0  0  0
  141.5279   78.8120  224.8185 H   0  0  0  0  0  0  0  0  0  0  0  0
  141.9414   81.2293  220.4645 H   0  0  0  0  0  0  0  0  0  0  0  0
  140.5681   79.3694  219.4560 H   0  0  0  0  0  0  0  0  0  0  0  0
  142.0780   78.3816  219.6777 H   0  0  0  0  0  0  0  0  0  0  0  0
  139.2277   77.6794  220.4909 H   0  0  0  0  0  0  0  0  0  0  0  0
  140.3170   76.8045  219.3654 H   0  0  0  0  0  0  0  0  0  0  0  0
  140.6170   70.9520  221.5160 H   0  0  0  0  0  0  0  0  0  0  0  0
  139.9577   72.9012  223.7536 H   0  0  0  0  0  0  0  0  0  0  0  0
  138.8862   71.5628  223.1927 H   0  0  0  0  0  0  0  0  0  0  0  0
  140.3658   69.8865  224.0657 H   0  0  0  0  0  0  0  0  0  0  0  0
  141.6616   71.1275  224.3705 H   0  0  0  0  0  0  0  0  0  0  0  0
  139.1593   71.7642  225.7440 H   0  0  0  0  0  0  0  0  0  0  0  0
  142.1104   71.6593  226.3078 H   0  0  0  0  0  0  0  0  0  0  0  0
  140.8993   72.9638  226.6181 H   0  0  0  0  0  0  0  0  0  0  0  0
  141.7146   72.0386  228.7384 H   0  0  0  0  0  0  0  0  0  0  0  0
  139.9579   71.6208  228.4666 H   0  0  0  0  0  0  0  0  0  0  0  0
  141.6813   69.0436  226.6159 H   0  0  0  0  0  0  0  0  0  0  0  0
  140.4578   68.3010  227.7648 H   0  0  0  0  0  0  0  0  0  0  0  0
  139.4025   69.0706  225.6720 H   0  0  0  0  0  0  0  0  0  0  0  0
  138.8097   69.9606  227.1288 H   0  0  0  0  0  0  0  0  0  0  0  0
  144.3213   74.5473  218.7843 H   0  0  0  0  0  0  0  0  0  0  0  0
  146.2903   74.7656  220.0384 H   0  0  0  0  0  0  0  0  0  0  0  0
  145.3099   74.4108  221.4828 H   0  0  0  0  0  0  0  0  0  0  0  0
  147.4032   72.7703  220.3923 H   0  0  0  0  0  0  0  0  0  0  0  0
  146.2978   72.2801  221.6674 H   0  0  0  0  0  0  0  0  0  0  0  0
  146.8521   69.9943  219.8094 H   0  0  0  0  0  0  0  0  0  0  0  0
  145.4534   68.7607  218.1301 H   0  0  0  0  0  0  0  0  0  0  0  0
  143.4830   69.8866  217.0704 H   0  0  0  0  0  0  0  0  0  0  0  0
  142.8923   72.2437  217.7084 H   0  0  0  0  0  0  0  0  0  0  0  0
  139.7322   77.2805  223.0951 H   0  0  0  0  0  0  0  0  0  0  0  0
  141.4068   76.6823  223.4154 H   0  0  0  0  0  0  0  0  0  0  0  0
  1  2  2  0
  2  3  1  0
  3  4  2  0
  4  5  1  0
  5  6  2  0
  5  7  1  0
  7  8  1  0
  8  9  1  0
  9 10  1  0
 10 11  2  0
 11 12  1  0
 12 13  1  0
 13 14  1  0
 14 15  1  0
 15 16  1  0
 16 17  1  0
 17 18  1  0
 18 19  1  0
 19 20  1  0
 20 21  1  0
 12 22  2  0
 22 23  1  0
 23 24  1  0
 24 25  1  0
 25 26  1  0
 26 27  1  0
 27 28  2  0
 28 29  1  0
 29 30  2  0
 30 31  1  0
 31 32  2  0
 23 33  2  0
  9 34  1  0
  6  1  1  0
 33 10  1  0
 34  4  1  0
 21 16  1  0
 32 24  1  0
 32 27  1  0
  1 35  1  0
  2 36  1  0
  3 37  1  0
  6 38  1  0
  7 39  1  0
  7 40  1  0
  8 41  1  0
  8 42  1  0
 13 43  1  0
 14 44  1  0
 14 45  1  0
 15 46  1  0
 15 47  1  0
 16 48  1  0
 17 49  1  0
 17 50  1  0
 18 51  1  0
 18 52  1  0
 20 53  1  0
 20 54  1  0
 21 55  1  0
 21 56  1  0
 24 57  1  6
 25 58  1  0
 25 59  1  0
 26 60  1  0
 26 61  1  0
 28 62  1  0
 29 63  1  0
 30 64  1  0
 31 65  1  0
 34 66  1  0
 34 67  1  0
M  END
>  <UniqueID>  (61) 
497

>  <SMILES>  (61) 
c1ccc2c(c1)CCN(c1nc(NCCC3CCOCC3)nc([C@H]3CCc4ccccc43)n1)C2

>  <Energy>  (61) 
86.20486451495124

>  <Genealogy>  (61) 
c1ccc2c(c1)CCN(c1nc(NCCC3CCOCC3)nc([C@H]3CCc4ccccc43)n1)C2 (chirality)
c1ccc2c(c1)CCN(c1nc(NCCC3CCOCC3)nc([C@H]3CCc4ccccc43)n1)C2 (3D coordinates assigned)
c1ccc2c(c1)CCN(c1nc(NCCC3CCOCC3)nc([C@H]3CCc4ccccc43)n1)C2 (nonaromatic ring conformer: 86.20486451495124 kcal/mol)

>  <smiles>  (61) 
c1ccc2c(c1)CCN(c1nc(NCCC3CCOCC3)nc(C3CCc4ccccc43)n1)C2

>  <score_type>  (61) 
oracle

>  <origin>  (61) 
autodockgpu

>  <m_score__min__energy>  (61) 
-10.26

>  <m_primary>  (61) 
energy

>  <meeko>  (61) 
{"free_energy": -9.95, "intermolecular_energy": -11.74, "internal_energy": -1.09, "cluster_size": 7, "cluster_id": 1, "rank_in_cluster": 3}

>  <energy>  (61) 
-10.26

>  <cluster_rmsd>  (61) 
0.0

>  <rmsd>  (61) 
271.6

>  <cluster>  (61) 
1

$$$$
AOEMPDNDYKTPOZ-MVXFCSEMNA-N
     RDKit          3D

 67 72  0  0  0  0  0  0  0  0999 V2000
  145.6600   67.3890  219.3600 C   0  0  0  0  0  0  0  0  0  0  0  0
  146.3170   68.6190  219.2900 C   0  0  0  0  0  0  0  0  0  0  0  0
  145.5810   69.8050  219.2820 C   0  0  0  0  0  0  0  0  0  0  0  0
  144.1790   69.7730  219.3560 C   0  0  0  0  0  0  0  0  0  0  0  0
  143.5100   68.5260  219.4070 C   0  0  0  0  0  0  0  0  0  0  0  0
  144.2640   67.3420  219.4240 C   0  0  0  0  0  0  0  0  0  0  0  0
  142.0060   68.4400  219.5550 C   0  0  0  0  0  0  0  0  0  0  0  0
  141.3050   69.7350  219.1380 C   0  0  0  0  0  0  0  0  0  0  0  0
  142.0190   70.8750  219.7150 N   0  0  0  0  0  0  0  0  0  0  0  0
  141.4040   71.7350  220.6940 C   0  0  0  0  0  0  0  0  0  0  0  0
  141.6490   73.0690  220.6770 N   0  0  0  0  0  0  0  0  0  0  0  0
  141.0770   73.8930  221.5910 C   0  0  0  0  0  0  0  0  0  0  0  0
  141.3550   75.2980  221.5720 N   0  0  0  0  0  0  0  0  0  0  0  0
  140.3210   76.2880  221.2750 C   0  0  0  0  0  0  0  0  0  0  0  0
  140.2440   77.3370  222.3950 C   0  0  0  0  0  0  0  0  0  0  0  0
  141.4530   78.3020  222.3900 C   0  0  0  0  0  0  0  0  0  0  0  0
  141.8000   78.7810  223.8230 C   0  0  0  0  0  0  0  0  0  0  0  0
  142.3850   80.2000  223.7980 C   0  0  0  0  0  0  0  0  0  0  0  0
  141.4800   81.1760  223.2950 O   0  0  0  0  0  0  0  0  0  0  0  0
  140.6320   80.7040  222.2510 C   0  0  0  0  0  0  0  0  0  0  0  0
  141.1940   79.5090  221.4590 C   0  0  0  0  0  0  0  0  0  0  0  0
  140.2390   73.3770  222.5250 N   0  0  0  0  0  0  0  0  0  0  0  0
  139.9890   72.0390  222.5550 C   0  0  0  0  0  0  0  0  0  0  0  0
  139.0700   71.4570  223.5940 C   0  0  1  0  0  0  0  0  0  0  0  0
  138.3750   70.1650  223.0990 C   0  0  0  0  0  0  0  0  0  0  0  0
  138.9430   68.9930  223.9210 C   0  0  0  0  0  0  0  0  0  0  0  0
  139.7510   69.6520  224.9740 C   0  0  0  0  0  0  0  0  0  0  0  0
  140.4010   69.0270  226.0410 C   0  0  0  0  0  0  0  0  0  0  0  0
  141.1390   69.8140  226.9350 C   0  0  0  0  0  0  0  0  0  0  0  0
  141.2180   71.2070  226.7530 C   0  0  0  0  0  0  0  0  0  0  0  0
  140.5650   71.8130  225.6690 C   0  0  0  0  0  0  0  0  0  0  0  0
  139.8330   71.0100  224.7880 C   0  0  0  0  0  0  0  0  0  0  0  0
  140.5770   71.2240  221.6410 N   0  0  0  0  0  0  0  0  0  0  0  0
  143.4120   71.0700  219.2930 C   0  0  0  0  0  0  0  0  0  0  0  0
  146.2416   66.4553  219.3648 H   0  0  0  0  0  0  0  0  0  0  0  0
  147.4154   68.6534  219.2411 H   0  0  0  0  0  0  0  0  0  0  0  0
  146.1027   70.7712  219.2173 H   0  0  0  0  0  0  0  0  0  0  0  0
  143.7528   66.3701  219.4881 H   0  0  0  0  0  0  0  0  0  0  0  0
  141.6352   67.6185  218.9245 H   0  0  0  0  0  0  0  0  0  0  0  0
  141.7825   68.2642  220.6176 H   0  0  0  0  0  0  0  0  0  0  0  0
  141.3057   69.8172  218.0411 H   0  0  0  0  0  0  0  0  0  0  0  0
  140.2665   69.7269  219.5007 H   0  0  0  0  0  0  0  0  0  0  0  0
  142.3120   75.6300  221.8390 H   0  0  0  0  0  0  0  0  0  0  0  0
  140.5612   76.7889  220.3256 H   0  0  0  0  0  0  0  0  0  0  0  0
  139.3500   75.7768  221.1985 H   0  0  0  0  0  0  0  0  0  0  0  0
  139.3234   77.9248  222.2645 H   0  0  0  0  0  0  0  0  0  0  0  0
  140.2499   76.8004  223.3552 H   0  0  0  0  0  0  0  0  0  0  0  0
  142.3189   77.7459  222.0014 H   0  0  0  0  0  0  0  0  0  0  0  0
  140.8860   78.7787  224.4350 H   0  0  0  0  0  0  0  0  0  0  0  0
  142.5495   78.0987  224.2505 H   0  0  0  0  0  0  0  0  0  0  0  0
  142.6645   80.4799  224.8244 H   0  0  0  0  0  0  0  0  0  0  0  0
  143.2518   80.1818  223.1211 H   0  0  0  0  0  0  0  0  0  0  0  0
  139.6744   80.3992  222.6983 H   0  0  0  0  0  0  0  0  0  0  0  0
  140.5295   81.5322  221.5344 H   0  0  0  0  0  0  0  0  0  0  0  0
  140.4692   79.2174  220.6847 H   0  0  0  0  0  0  0  0  0  0  0  0
  142.1474   79.8092  220.9997 H   0  0  0  0  0  0  0  0  0  0  0  0
  138.3480   72.2569  223.8150 H   0  0  0  0  0  0  0  0  0  0  0  0
  137.2883   70.2401  223.2524 H   0  0  0  0  0  0  0  0  0  0  0  0
  138.5590   70.0117  222.0254 H   0  0  0  0  0  0  0  0  0  0  0  0
  138.1317   68.3979  224.3657 H   0  0  0  0  0  0  0  0  0  0  0  0
  139.5330   68.2940  223.3100 H   0  0  0  0  0  0  0  0  0  0  0  0
  140.3347   67.9374  226.1768 H   0  0  0  0  0  0  0  0  0  0  0  0
  141.6583   69.3414  227.7818 H   0  0  0  0  0  0  0  0  0  0  0  0
  141.7925   71.8218  227.4615 H   0  0  0  0  0  0  0  0  0  0  0  0
  140.6276   72.9003  225.5147 H   0  0  0  0  0  0  0  0  0  0  0  0
  143.4261   71.4471  218.2598 H   0  0  0  0  0  0  0  0  0  0  0  0
  143.8874   71.7932  219.9719 H   0  0  0  0  0  0  0  0  0  0  0  0
  1  2  2  0
  2  3  1  0
  3  4  2  0
  4  5  1  0
  5  6  2  0
  5  7  1  0
  7  8  1  0
  8  9  1  0
  9 10  1  0
 10 11  2  0
 11 12  1  0
 12 13  1  0
 13 14  1  0
 14 15  1  0
 15 16  1  0
 16 17  1  0
 17 18  1  0
 18 19  1  0
 19 20  1  0
 20 21  1  0
 12 22  2  0
 22 23  1  0
 23 24  1  0
 24 25  1  0
 25 26  1  0
 26 27  1  0
 27 28  2  0
 28 29  1  0
 29 30  2  0
 30 31  1  0
 31 32  2  0
 23 33  2  0
  9 34  1  0
  6  1  1  0
 33 10  1  0
 34  4  1  0
 21 16  1  0
 32 24  1  0
 32 27  1  0
  1 35  1  0
  2 36  1  0
  3 37  1  0
  6 38  1  0
  7 39  1  0
  7 40  1  0
  8 41  1  0
  8 42  1  0
 13 43  1  0
 14 44  1  0
 14 45  1  0
 15 46  1  0
 15 47  1  0
 16 48  1  0
 17 49  1  0
 17 50  1  0
 18 51  1  0
 18 52  1  0
 20 53  1  0
 20 54  1  0
 21 55  1  0
 21 56  1  0
 24 57  1  1
 25 58  1  0
 25 59  1  0
 26 60  1  0
 26 61  1  0
 28 62  1  0
 29 63  1  0
 30 64  1  0
 31 65  1  0
 34 66  1  0
 34 67  1  0
M  END
>  <UniqueID>  (62) 
497

>  <SMILES>  (62) 
c1ccc2c(c1)CCN(c1nc(NCCC3CCOCC3)nc([C@H]3CCc4ccccc43)n1)C2

>  <Energy>  (62) 
86.20486451495124

>  <Genealogy>  (62) 
c1ccc2c(c1)CCN(c1nc(NCCC3CCOCC3)nc([C@H]3CCc4ccccc43)n1)C2 (chirality)
c1ccc2c(c1)CCN(c1nc(NCCC3CCOCC3)nc([C@H]3CCc4ccccc43)n1)C2 (3D coordinates assigned)
c1ccc2c(c1)CCN(c1nc(NCCC3CCOCC3)nc([C@H]3CCc4ccccc43)n1)C2 (nonaromatic ring conformer: 86.20486451495124 kcal/mol)

>  <smiles>  (62) 
c1ccc2c(c1)CCN(c1nc(NCCC3CCOCC3)nc(C3CCc4ccccc43)n1)C2

>  <score_type>  (62) 
oracle

>  <origin>  (62) 
autodockgpu

>  <m_score__min__energy>  (62) 
-10.26

>  <m_primary>  (62) 
energy

>  <meeko>  (62) 
{"free_energy": -9.86, "intermolecular_energy": -11.65, "internal_energy": -1.18, "cluster_size": 3, "cluster_id": 2, "rank_in_cluster": 2}

>  <energy>  (62) 
-10.2

>  <cluster_rmsd>  (62) 
0.14

>  <rmsd>  (62) 
271.6

>  <cluster>  (62) 
1

$$$$
AOEMPDNDYKTPOZ-MVXFCSEMNA-N
     RDKit          3D

 67 72  0  0  0  0  0  0  0  0999 V2000
  145.6370   67.3810  219.3630 C   0  0  0  0  0  0  0  0  0  0  0  0
  146.3070   68.6050  219.3270 C   0  0  0  0  0  0  0  0  0  0  0  0
  145.5830   69.7990  219.3240 C   0  0  0  0  0  0  0  0  0  0  0  0
  144.1790   69.7800  219.3680 C   0  0  0  0  0  0  0  0  0  0  0  0
  143.4970   68.5380  219.3840 C   0  0  0  0  0  0  0  0  0  0  0  0
  144.2400   67.3460  219.3970 C   0  0  0  0  0  0  0  0  0  0  0  0
  141.9900   68.4640  219.4990 C   0  0  0  0  0  0  0  0  0  0  0  0
  141.3100   69.7730  219.0890 C   0  0  0  0  0  0  0  0  0  0  0  0
  142.0220   70.8960  219.7000 N   0  0  0  0  0  0  0  0  0  0  0  0
  141.3950   71.7460  220.6800 C   0  0  0  0  0  0  0  0  0  0  0  0
  141.6300   73.0820  220.6720 N   0  0  0  0  0  0  0  0  0  0  0  0
  141.0470   73.8960  221.5870 C   0  0  0  0  0  0  0  0  0  0  0  0
  141.3150   75.3030  221.5790 N   0  0  0  0  0  0  0  0  0  0  0  0
  140.2660   76.2900  221.3270 C   0  0  0  0  0  0  0  0  0  0  0  0
  140.2370   77.3420  222.4460 C   0  0  0  0  0  0  0  0  0  0  0  0
  141.4780   78.2650  222.4260 C   0  0  0  0  0  0  0  0  0  0  0  0
  141.8000   78.8100  223.8400 C   0  0  0  0  0  0  0  0  0  0  0  0
  142.4330   80.2070  223.7570 C   0  0  0  0  0  0  0  0  0  0  0  0
  141.5770   81.1820  223.1750 O   0  0  0  0  0  0  0  0  0  0  0  0
  140.7440   80.6810  222.1320 C   0  0  0  0  0  0  0  0  0  0  0  0
  141.2880   79.4270  221.4230 C   0  0  0  0  0  0  0  0  0  0  0  0
  140.2060   73.3680  222.5120 N   0  0  0  0  0  0  0  0  0  0  0  0
  139.9660   72.0290  222.5330 C   0  0  0  0  0  0  0  0  0  0  0  0
  139.0450   71.4330  223.5630 C   0  0  1  0  0  0  0  0  0  0  0  0
  138.3520   70.1470  223.0510 C   0  0  0  0  0  0  0  0  0  0  0  0
  138.9190   68.9660  223.8610 C   0  0  0  0  0  0  0  0  0  0  0  0
  139.7220   69.6140  224.9240 C   0  0  0  0  0  0  0  0  0  0  0  0
  140.3700   68.9770  225.9850 C   0  0  0  0  0  0  0  0  0  0  0  0
  141.1040   69.7550  226.8910 C   0  0  0  0  0  0  0  0  0  0  0  0
  141.1830   71.1500  226.7250 C   0  0  0  0  0  0  0  0  0  0  0  0
  140.5320   71.7670  225.6460 C   0  0  0  0  0  0  0  0  0  0  0  0
  139.8040   70.9740  224.7540 C   0  0  0  0  0  0  0  0  0  0  0  0
  140.5650   71.2230  221.6190 N   0  0  0  0  0  0  0  0  0  0  0  0
  143.4260   71.0850  219.3100 C   0  0  0  0  0  0  0  0  0  0  0  0
  146.2096   66.4418  219.3646 H   0  0  0  0  0  0  0  0  0  0  0  0
  147.4064   68.6290  219.3009 H   0  0  0  0  0  0  0  0  0  0  0  0
  146.1155   70.7608  219.2870 H   0  0  0  0  0  0  0  0  0  0  0  0
  143.7188   66.3780  219.4342 H   0  0  0  0  0  0  0  0  0  0  0  0
  141.6249   67.6567  218.8471 H   0  0  0  0  0  0  0  0  0  0  0  0
  141.7424   68.2726  220.5535 H   0  0  0  0  0  0  0  0  0  0  0  0
  141.3349   69.8734  217.9939 H   0  0  0  0  0  0  0  0  0  0  0  0
  140.2640   69.7689  219.4294 H   0  0  0  0  0  0  0  0  0  0  0  0
  142.2770   75.6380  221.8200 H   0  0  0  0  0  0  0  0  0  0  0  0
  140.4615   76.7888  220.3663 H   0  0  0  0  0  0  0  0  0  0  0  0
  139.2939   75.7761  221.2966 H   0  0  0  0  0  0  0  0  0  0  0  0
  139.3356   77.9607  222.3248 H   0  0  0  0  0  0  0  0  0  0  0  0
  140.2350   76.8067  223.4070 H   0  0  0  0  0  0  0  0  0  0  0  0
  142.3350   77.6601  222.0948 H   0  0  0  0  0  0  0  0  0  0  0  0
  140.8694   78.8702  224.4235 H   0  0  0  0  0  0  0  0  0  0  0  0
  142.5140   78.1285  224.3255 H   0  0  0  0  0  0  0  0  0  0  0  0
  142.6916   80.5335  224.7751 H   0  0  0  0  0  0  0  0  0  0  0  0
  143.3180   80.1241  223.1090 H   0  0  0  0  0  0  0  0  0  0  0  0
  139.7641   80.4321  222.5653 H   0  0  0  0  0  0  0  0  0  0  0  0
  140.6905   81.4717  221.3691 H   0  0  0  0  0  0  0  0  0  0  0  0
  140.5768   79.1171  220.6432 H   0  0  0  0  0  0  0  0  0  0  0  0
  142.2640   79.6704  220.9779 H   0  0  0  0  0  0  0  0  0  0  0  0
  138.3216   72.2296  223.7914 H   0  0  0  0  0  0  0  0  0  0  0  0
  137.2649   70.2197  223.2025 H   0  0  0  0  0  0  0  0  0  0  0  0
  138.5384   70.0064  221.9761 H   0  0  0  0  0  0  0  0  0  0  0  0
  138.1072   68.3644  224.2959 H   0  0  0  0  0  0  0  0  0  0  0  0
  139.5120   68.2750  223.2439 H   0  0  0  0  0  0  0  0  0  0  0  0
  140.3055   67.8857  226.1072 H   0  0  0  0  0  0  0  0  0  0  0  0
  141.6200   69.2733  227.7346 H   0  0  0  0  0  0  0  0  0  0  0  0
  141.7555   71.7573  227.4416 H   0  0  0  0  0  0  0  0  0  0  0  0
  140.5934   72.8561  225.5043 H   0  0  0  0  0  0  0  0  0  0  0  0
  143.4652   71.4785  218.2835 H   0  0  0  0  0  0  0  0  0  0  0  0
  143.8938   71.7930  220.0100 H   0  0  0  0  0  0  0  0  0  0  0  0
  1  2  2  0
  2  3  1  0
  3  4  2  0
  4  5  1  0
  5  6  2  0
  5  7  1  0
  7  8  1  0
  8  9  1  0
  9 10  1  0
 10 11  2  0
 11 12  1  0
 12 13  1  0
 13 14  1  0
 14 15  1  0
 15 16  1  0
 16 17  1  0
 17 18  1  0
 18 19  1  0
 19 20  1  0
 20 21  1  0
 12 22  2  0
 22 23  1  0
 23 24  1  0
 24 25  1  0
 25 26  1  0
 26 27  1  0
 27 28  2  0
 28 29  1  0
 29 30  2  0
 30 31  1  0
 31 32  2  0
 23 33  2  0
  9 34  1  0
  6  1  1  0
 33 10  1  0
 34  4  1  0
 21 16  1  0
 32 24  1  0
 32 27  1  0
  1 35  1  0
  2 36  1  0
  3 37  1  0
  6 38  1  0
  7 39  1  0
  7 40  1  0
  8 41  1  0
  8 42  1  0
 13 43  1  0
 14 44  1  0
 14 45  1  0
 15 46  1  0
 15 47  1  0
 16 48  1  0
 17 49  1  0
 17 50  1  0
 18 51  1  0
 18 52  1  0
 20 53  1  0
 20 54  1  0
 21 55  1  0
 21 56  1  0
 24 57  1  1
 25 58  1  0
 25 59  1  0
 26 60  1  0
 26 61  1  0
 28 62  1  0
 29 63  1  0
 30 64  1  0
 31 65  1  0
 34 66  1  0
 34 67  1  0
M  END
>  <UniqueID>  (63) 
497

>  <SMILES>  (63) 
c1ccc2c(c1)CCN(c1nc(NCCC3CCOCC3)nc([C@H]3CCc4ccccc43)n1)C2

>  <Energy>  (63) 
86.20486451495124

>  <Genealogy>  (63) 
c1ccc2c(c1)CCN(c1nc(NCCC3CCOCC3)nc([C@H]3CCc4ccccc43)n1)C2 (chirality)
c1ccc2c(c1)CCN(c1nc(NCCC3CCOCC3)nc([C@H]3CCc4ccccc43)n1)C2 (3D coordinates assigned)
c1ccc2c(c1)CCN(c1nc(NCCC3CCOCC3)nc([C@H]3CCc4ccccc43)n1)C2 (nonaromatic ring conformer: 86.20486451495124 kcal/mol)

>  <smiles>  (63) 
c1ccc2c(c1)CCN(c1nc(NCCC3CCOCC3)nc(C3CCc4ccccc43)n1)C2

>  <score_type>  (63) 
oracle

>  <origin>  (63) 
autodockgpu

>  <m_score__min__energy>  (63) 
-10.26

>  <m_primary>  (63) 
energy

>  <meeko>  (63) 
{"free_energy": -9.85, "intermolecular_energy": -11.64, "internal_energy": -1.18, "cluster_size": 3, "cluster_id": 2, "rank_in_cluster": 3}

>  <energy>  (63) 
-9.95

>  <cluster_rmsd>  (63) 
1.81

>  <rmsd>  (63) 
271.56

>  <cluster>  (63) 
1

$$$$
AOEMPDNDYKTPOZ-MVXFCSEMNA-N
     RDKit          3D

 67 72  0  0  0  0  0  0  0  0999 V2000
  139.9560   68.6950  228.1460 C   0  0  0  0  0  0  0  0  0  0  0  0
  140.8150   69.7880  228.2770 C   0  0  0  0  0  0  0  0  0  0  0  0
  141.0840   70.6020  227.1750 C   0  0  0  0  0  0  0  0  0  0  0  0
  140.4850   70.3370  225.9320 C   0  0  0  0  0  0  0  0  0  0  0  0
  139.6300   69.2170  225.7920 C   0  0  0  0  0  0  0  0  0  0  0  0
  139.3610   68.4130  226.9120 C   0  0  0  0  0  0  0  0  0  0  0  0
  138.9090   68.9280  224.4930 C   0  0  0  0  0  0  0  0  0  0  0  0
  139.5700   69.6140  223.2960 C   0  0  0  0  0  0  0  0  0  0  0  0
  139.8860   70.9990  223.6490 N   0  0  0  0  0  0  0  0  0  0  0  0
  139.2530   72.1120  222.9870 C   0  0  0  0  0  0  0  0  0  0  0  0
  140.0070   73.0490  222.3600 N   0  0  0  0  0  0  0  0  0  0  0  0
  139.4250   74.1010  221.7320 C   0  0  0  0  0  0  0  0  0  0  0  0
  140.2330   75.0930  221.0850 N   0  0  0  0  0  0  0  0  0  0  0  0
  141.6920   75.0860  221.1810 C   0  0  0  0  0  0  0  0  0  0  0  0
  142.2870   74.0130  220.2560 C   0  0  0  0  0  0  0  0  0  0  0  0
  143.5790   73.3860  220.8280 C   0  0  0  0  0  0  0  0  0  0  0  0
  144.8060   74.3020  220.5860 C   0  0  0  0  0  0  0  0  0  0  0  0
  146.0850   73.4690  220.4130 C   0  0  0  0  0  0  0  0  0  0  0  0
  146.0460   72.6020  219.2850 O   0  0  0  0  0  0  0  0  0  0  0  0
  144.7600   72.0520  219.0130 C   0  0  0  0  0  0  0  0  0  0  0  0
  143.8230   71.9790  220.2330 C   0  0  0  0  0  0  0  0  0  0  0  0
  138.0730   74.2100  221.7190 N   0  0  0  0  0  0  0  0  0  0  0  0
  137.3060   73.2780  222.3480 C   0  0  0  0  0  0  0  0  0  0  0  0
  135.8070   73.3970  222.3490 C   0  0  1  0  0  0  0  0  0  0  0  0
  135.1130   72.0140  222.2920 C   0  0  0  0  0  0  0  0  0  0  0  0
  134.4190   71.7910  223.6490 C   0  0  0  0  0  0  0  0  0  0  0  0
  134.5440   73.0990  224.3340 C   0  0  0  0  0  0  0  0  0  0  0  0
  133.9880   73.4520  225.5660 C   0  0  0  0  0  0  0  0  0  0  0  0
  134.2280   74.7380  226.0700 C   0  0  0  0  0  0  0  0  0  0  0  0
  135.0160   75.6480  225.3420 C   0  0  0  0  0  0  0  0  0  0  0  0
  135.5720   75.2690  224.1110 C   0  0  0  0  0  0  0  0  0  0  0  0
  135.3200   73.9830  223.6250 C   0  0  0  0  0  0  0  0  0  0  0  0
  137.9000   72.2350  222.9840 N   0  0  0  0  0  0  0  0  0  0  0  0
  140.8370   71.2040  224.7500 C   0  0  0  0  0  0  0  0  0  0  0  0
  139.7467   68.0543  229.0153 H   0  0  0  0  0  0  0  0  0  0  0  0
  141.2802   70.0079  229.2492 H   0  0  0  0  0  0  0  0  0  0  0  0
  141.7691   71.4561  227.2806 H   0  0  0  0  0  0  0  0  0  0  0  0
  138.6779   67.5560  226.8180 H   0  0  0  0  0  0  0  0  0  0  0  0
  138.9096   67.8413  224.3224 H   0  0  0  0  0  0  0  0  0  0  0  0
  137.8853   69.3205  224.5822 H   0  0  0  0  0  0  0  0  0  0  0  0
  140.4955   69.0814  223.0317 H   0  0  0  0  0  0  0  0  0  0  0  0
  138.8839   69.5991  222.4363 H   0  0  0  0  0  0  0  0  0  0  0  0
  139.7690   75.8070  220.4770 H   0  0  0  0  0  0  0  0  0  0  0  0
  142.0789   76.0727  220.8866 H   0  0  0  0  0  0  0  0  0  0  0  0
  141.9792   74.8602  222.2186 H   0  0  0  0  0  0  0  0  0  0  0  0
  141.5414   73.2167  220.1147 H   0  0  0  0  0  0  0  0  0  0  0  0
  142.5457   74.4996  219.3040 H   0  0  0  0  0  0  0  0  0  0  0  0
  143.4436   73.2822  221.9147 H   0  0  0  0  0  0  0  0  0  0  0  0
  144.6377   74.8970  219.6762 H   0  0  0  0  0  0  0  0  0  0  0  0
  144.9305   74.9610  221.4579 H   0  0  0  0  0  0  0  0  0  0  0  0
  146.9357   74.1564  220.2953 H   0  0  0  0  0  0  0  0  0  0  0  0
  146.1835   72.8353  221.3067 H   0  0  0  0  0  0  0  0  0  0  0  0
  144.2762   72.6740  218.2455 H   0  0  0  0  0  0  0  0  0  0  0  0
  144.9271   71.0152  218.6857 H   0  0  0  0  0  0  0  0  0  0  0  0
  142.8600   71.5478  219.9220 H   0  0  0  0  0  0  0  0  0  0  0  0
  144.2959   71.3500  221.0016 H   0  0  0  0  0  0  0  0  0  0  0  0
  135.5706   74.0154  221.4705 H   0  0  0  0  0  0  0  0  0  0  0  0
  134.3687   71.9998  221.4822 H   0  0  0  0  0  0  0  0  0  0  0  0
  135.8471   71.2187  222.0957 H   0  0  0  0  0  0  0  0  0  0  0  0
  133.3616   71.5228  223.5081 H   0  0  0  0  0  0  0  0  0  0  0  0
  134.8673   70.9672  224.2238 H   0  0  0  0  0  0  0  0  0  0  0  0
  133.3736   72.7346  226.1298 H   0  0  0  0  0  0  0  0  0  0  0  0
  133.7988   75.0364  227.0378 H   0  0  0  0  0  0  0  0  0  0  0  0
  135.1965   76.6581  225.7385 H   0  0  0  0  0  0  0  0  0  0  0  0
  136.1953   75.9716  223.5384 H   0  0  0  0  0  0  0  0  0  0  0  0
  141.8493   70.9480  224.4041 H   0  0  0  0  0  0  0  0  0  0  0  0
  140.7930   72.2581  225.0613 H   0  0  0  0  0  0  0  0  0  0  0  0
  1  2  2  0
  2  3  1  0
  3  4  2  0
  4  5  1  0
  5  6  2  0
  5  7  1  0
  7  8  1  0
  8  9  1  0
  9 10  1  0
 10 11  2  0
 11 12  1  0
 12 13  1  0
 13 14  1  0
 14 15  1  0
 15 16  1  0
 16 17  1  0
 17 18  1  0
 18 19  1  0
 19 20  1  0
 20 21  1  0
 12 22  2  0
 22 23  1  0
 23 24  1  0
 24 25  1  0
 25 26  1  0
 26 27  1  0
 27 28  2  0
 28 29  1  0
 29 30  2  0
 30 31  1  0
 31 32  2  0
 23 33  2  0
  9 34  1  0
  6  1  1  0
 33 10  1  0
 34  4  1  0
 21 16  1  0
 32 24  1  0
 32 27  1  0
  1 35  1  0
  2 36  1  0
  3 37  1  0
  6 38  1  0
  7 39  1  0
  7 40  1  0
  8 41  1  0
  8 42  1  0
 13 43  1  0
 14 44  1  0
 14 45  1  0
 15 46  1  0
 15 47  1  0
 16 48  1  0
 17 49  1  0
 17 50  1  0
 18 51  1  0
 18 52  1  0
 20 53  1  0
 20 54  1  0
 21 55  1  0
 21 56  1  0
 24 57  1  6
 25 58  1  0
 25 59  1  0
 26 60  1  0
 26 61  1  0
 28 62  1  0
 29 63  1  0
 30 64  1  0
 31 65  1  0
 34 66  1  0
 34 67  1  0
M  END
>  <UniqueID>  (64) 
497

>  <SMILES>  (64) 
c1ccc2c(c1)CCN(c1nc(NCCC3CCOCC3)nc([C@H]3CCc4ccccc43)n1)C2

>  <Energy>  (64) 
86.20486451495124

>  <Genealogy>  (64) 
c1ccc2c(c1)CCN(c1nc(NCCC3CCOCC3)nc([C@H]3CCc4ccccc43)n1)C2 (chirality)
c1ccc2c(c1)CCN(c1nc(NCCC3CCOCC3)nc([C@H]3CCc4ccccc43)n1)C2 (3D coordinates assigned)
c1ccc2c(c1)CCN(c1nc(NCCC3CCOCC3)nc([C@H]3CCc4ccccc43)n1)C2 (nonaromatic ring conformer: 86.20486451495124 kcal/mol)

>  <smiles>  (64) 
c1ccc2c(c1)CCN(c1nc(NCCC3CCOCC3)nc(C3CCc4ccccc43)n1)C2

>  <score_type>  (64) 
oracle

>  <origin>  (64) 
autodockgpu

>  <m_score__min__energy>  (64) 
-10.26

>  <m_primary>  (64) 
energy

>  <meeko>  (64) 
{"free_energy": -9.0, "intermolecular_energy": -10.79, "internal_energy": -1.38, "cluster_size": 2, "cluster_id": 5, "rank_in_cluster": 1}

>  <energy>  (64) 
-9.95

>  <cluster_rmsd>  (64) 
1.92

>  <rmsd>  (64) 
271.22

>  <cluster>  (64) 
1

$$$$
AOEMPDNDYKTPOZ-MVXFCSEMNA-N
     RDKit          3D

 67 72  0  0  0  0  0  0  0  0999 V2000
  141.7640   80.3900  222.8810 C   0  0  0  0  0  0  0  0  0  0  0  0
  140.6570   79.9930  223.6320 C   0  0  0  0  0  0  0  0  0  0  0  0
  140.0120   78.7890  223.3450 C   0  0  0  0  0  0  0  0  0  0  0  0
  140.4770   77.9620  222.3100 C   0  0  0  0  0  0  0  0  0  0  0  0
  141.5890   78.3720  221.5340 C   0  0  0  0  0  0  0  0  0  0  0  0
  142.2330   79.5820  221.8400 C   0  0  0  0  0  0  0  0  0  0  0  0
  142.1690   77.4870  220.4520 C   0  0  0  0  0  0  0  0  0  0  0  0
  141.1750   76.4270  219.9720 C   0  0  0  0  0  0  0  0  0  0  0  0
  140.5300   75.8120  221.1330 N   0  0  0  0  0  0  0  0  0  0  0  0
  140.7170   74.4200  221.4540 C   0  0  0  0  0  0  0  0  0  0  0  0
  139.9130   73.8170  222.3640 N   0  0  0  0  0  0  0  0  0  0  0  0
  140.0760   72.5070  222.6760 C   0  0  0  0  0  0  0  0  0  0  0  0
  139.2300   71.8850  223.6510 N   0  0  0  0  0  0  0  0  0  0  0  0
  139.7410   70.9020  224.6050 C   0  0  0  0  0  0  0  0  0  0  0  0
  140.8800   71.5060  225.4410 C   0  0  0  0  0  0  0  0  0  0  0  0
  141.3900   70.5400  226.5360 C   0  0  0  0  0  0  0  0  0  0  0  0
  140.9490   69.0810  226.2530 C   0  0  0  0  0  0  0  0  0  0  0  0
  140.7420   68.3080  227.5640 C   0  0  0  0  0  0  0  0  0  0  0  0
  139.7130   68.8510  228.3830 O   0  0  0  0  0  0  0  0  0  0  0  0
  139.6150   70.2720  228.3360 C   0  0  0  0  0  0  0  0  0  0  0  0
  140.9160   70.9920  227.9380 C   0  0  0  0  0  0  0  0  0  0  0  0
  141.0450   71.7870  222.0580 N   0  0  0  0  0  0  0  0  0  0  0  0
  141.8620   72.3810  221.1440 C   0  0  0  0  0  0  0  0  0  0  0  0
  142.9470   71.5950  220.4620 C   0  0  1  0  0  0  0  0  0  0  0  0
  142.6440   71.3630  218.9620 C   0  0  0  0  0  0  0  0  0  0  0  0
  143.6660   72.1840  218.1540 C   0  0  0  0  0  0  0  0  0  0  0  0
  144.6270   72.6640  219.1750 C   0  0  0  0  0  0  0  0  0  0  0  0
  145.8040   73.3790  218.9410 C   0  0  0  0  0  0  0  0  0  0  0  0
  146.5860   73.7670  220.0390 C   0  0  0  0  0  0  0  0  0  0  0  0
  146.1810   73.4420  221.3460 C   0  0  0  0  0  0  0  0  0  0  0  0
  144.9890   72.7310  221.5580 C   0  0  0  0  0  0  0  0  0  0  0  0
  144.2260   72.3520  220.4500 C   0  0  0  0  0  0  0  0  0  0  0  0
  141.6960   73.6970  220.8500 N   0  0  0  0  0  0  0  0  0  0  0  0
  139.7270   76.6930  221.9920 C   0  0  0  0  0  0  0  0  0  0  0  0
  142.2690   81.3405  223.1081 H   0  0  0  0  0  0  0  0  0  0  0  0
  140.2922   80.6298  224.4514 H   0  0  0  0  0  0  0  0  0  0  0  0
  139.1335   78.4860  223.9336 H   0  0  0  0  0  0  0  0  0  0  0  0
  143.1116   79.8962  221.2574 H   0  0  0  0  0  0  0  0  0  0  0  0
  142.4554   78.1162  219.5964 H   0  0  0  0  0  0  0  0  0  0  0  0
  143.0390   76.9642  220.8761 H   0  0  0  0  0  0  0  0  0  0  0  0
  140.4128   76.8991  219.3347 H   0  0  0  0  0  0  0  0  0  0  0  0
  141.7062   75.6571  219.3931 H   0  0  0  0  0  0  0  0  0  0  0  0
  138.2300   72.1880  223.7230 H   0  0  0  0  0  0  0  0  0  0  0  0
  138.9262   70.5900  225.2749 H   0  0  0  0  0  0  0  0  0  0  0  0
  140.1280   70.0349  224.0498 H   0  0  0  0  0  0  0  0  0  0  0  0
  141.7167   71.7523  224.7708 H   0  0  0  0  0  0  0  0  0  0  0  0
  140.4860   72.4016  225.9436 H   0  0  0  0  0  0  0  0  0  0  0  0
  142.4895   70.5693  226.5175 H   0  0  0  0  0  0  0  0  0  0  0  0
  140.0048   69.0930  225.6888 H   0  0  0  0  0  0  0  0  0  0  0  0
  141.7375   68.5817  225.6709 H   0  0  0  0  0  0  0  0  0  0  0  0
  140.4801   67.2683  227.3182 H   0  0  0  0  0  0  0  0  0  0  0  0
  141.6807   68.3765  228.1334 H   0  0  0  0  0  0  0  0  0  0  0  0
  138.8381   70.5382  227.6042 H   0  0  0  0  0  0  0  0  0  0  0  0
  139.3768   70.6017  229.3580 H   0  0  0  0  0  0  0  0  0  0  0  0
  140.7377   72.0774  227.9254 H   0  0  0  0  0  0  0  0  0  0  0  0
  141.6961   70.7395  228.6713 H   0  0  0  0  0  0  0  0  0  0  0  0
  143.0080   70.6505  221.0225 H   0  0  0  0  0  0  0  0  0  0  0  0
  142.7434   70.2948  218.7191 H   0  0  0  0  0  0  0  0  0  0  0  0
  141.6171   71.6745  218.7203 H   0  0  0  0  0  0  0  0  0  0  0  0
  144.1711   71.5538  217.4072 H   0  0  0  0  0  0  0  0  0  0  0  0
  143.1993   73.0063  217.5919 H   0  0  0  0  0  0  0  0  0  0  0  0
  146.1116   73.6328  217.9158 H   0  0  0  0  0  0  0  0  0  0  0  0
  147.5188   74.3271  219.8773 H   0  0  0  0  0  0  0  0  0  0  0  0
  146.7992   73.7454  222.2037 H   0  0  0  0  0  0  0  0  0  0  0  0
  144.6618   72.4770  222.5770 H   0  0  0  0  0  0  0  0  0  0  0  0
  138.7915   76.9479  221.4725 H   0  0  0  0  0  0  0  0  0  0  0  0
  139.5118   76.1661  222.9333 H   0  0  0  0  0  0  0  0  0  0  0  0
  1  2  2  0
  2  3  1  0
  3  4  2  0
  4  5  1  0
  5  6  2  0
  5  7  1  0
  7  8  1  0
  8  9  1  0
  9 10  1  0
 10 11  2  0
 11 12  1  0
 12 13  1  0
 13 14  1  0
 14 15  1  0
 15 16  1  0
 16 17  1  0
 17 18  1  0
 18 19  1  0
 19 20  1  0
 20 21  1  0
 12 22  2  0
 22 23  1  0
 23 24  1  0
 24 25  1  0
 25 26  1  0
 26 27  1  0
 27 28  2  0
 28 29  1  0
 29 30  2  0
 30 31  1  0
 31 32  2  0
 23 33  2  0
  9 34  1  0
  6  1  1  0
 33 10  1  0
 34  4  1  0
 21 16  1  0
 32 24  1  0
 32 27  1  0
  1 35  1  0
  2 36  1  0
  3 37  1  0
  6 38  1  0
  7 39  1  0
  7 40  1  0
  8 41  1  0
  8 42  1  0
 13 43  1  0
 14 44  1  0
 14 45  1  0
 15 46  1  0
 15 47  1  0
 16 48  1  0
 17 49  1  0
 17 50  1  0
 18 51  1  0
 18 52  1  0
 20 53  1  0
 20 54  1  0
 21 55  1  0
 21 56  1  0
 24 57  1  1
 25 58  1  0
 25 59  1  0
 26 60  1  0
 26 61  1  0
 28 62  1  0
 29 63  1  0
 30 64  1  0
 31 65  1  0
 34 66  1  0
 34 67  1  0
M  END
>  <UniqueID>  (65) 
497

>  <SMILES>  (65) 
c1ccc2c(c1)CCN(c1nc(NCCC3CCOCC3)nc([C@H]3CCc4ccccc43)n1)C2

>  <Energy>  (65) 
86.20486451495124

>  <Genealogy>  (65) 
c1ccc2c(c1)CCN(c1nc(NCCC3CCOCC3)nc([C@H]3CCc4ccccc43)n1)C2 (chirality)
c1ccc2c(c1)CCN(c1nc(NCCC3CCOCC3)nc([C@H]3CCc4ccccc43)n1)C2 (3D coordinates assigned)
c1ccc2c(c1)CCN(c1nc(NCCC3CCOCC3)nc([C@H]3CCc4ccccc43)n1)C2 (nonaromatic ring conformer: 86.20486451495124 kcal/mol)

>  <smiles>  (65) 
c1ccc2c(c1)CCN(c1nc(NCCC3CCOCC3)nc(C3CCc4ccccc43)n1)C2

>  <score_type>  (65) 
oracle

>  <origin>  (65) 
autodockgpu

>  <m_score__min__energy>  (65) 
-10.26

>  <m_primary>  (65) 
energy

>  <meeko>  (65) 
{"free_energy": -10.26, "intermolecular_energy": -12.05, "internal_energy": -1.41, "cluster_size": 7, "cluster_id": 1, "rank_in_cluster": 1}

>  <energy>  (65) 
-9.77

>  <cluster_rmsd>  (65) 
1.77

>  <rmsd>  (65) 
271.07

>  <cluster>  (65) 
1

$$$$
AOEMPDNDYKTPOZ-MVXFCSEMNA-N
     RDKit          3D

 67 72  0  0  0  0  0  0  0  0999 V2000
  142.6600   80.9920  223.0800 C   0  0  0  0  0  0  0  0  0  0  0  0
  142.0160   80.4250  224.1800 C   0  0  0  0  0  0  0  0  0  0  0  0
  141.2700   79.2540  224.0270 C   0  0  0  0  0  0  0  0  0  0  0  0
  141.1720   78.6330  222.7720 C   0  0  0  0  0  0  0  0  0  0  0  0
  141.8080   79.2180  221.6500 C   0  0  0  0  0  0  0  0  0  0  0  0
  142.5620   80.3900  221.8210 C   0  0  0  0  0  0  0  0  0  0  0  0
  141.7870   78.5520  220.2910 C   0  0  0  0  0  0  0  0  0  0  0  0
  140.6480   77.5390  220.1560 C   0  0  0  0  0  0  0  0  0  0  0  0
  140.5960   76.7110  221.3630 N   0  0  0  0  0  0  0  0  0  0  0  0
  140.8620   75.2960  221.3200 C   0  0  0  0  0  0  0  0  0  0  0  0
  140.2540   74.4620  222.2010 N   0  0  0  0  0  0  0  0  0  0  0  0
  140.4940   73.1270  222.1740 C   0  0  0  0  0  0  0  0  0  0  0  0
  139.8570   72.2590  223.1200 N   0  0  0  0  0  0  0  0  0  0  0  0
  140.5550   71.1220  223.7180 C   0  0  0  0  0  0  0  0  0  0  0  0
  140.7260   71.3320  225.2310 C   0  0  0  0  0  0  0  0  0  0  0  0
  139.9610   70.2800  226.0670 C   0  0  0  0  0  0  0  0  0  0  0  0
  140.8880   69.1140  226.4940 C   0  0  0  0  0  0  0  0  0  0  0  0
  140.1000   67.8000  226.6030 C   0  0  0  0  0  0  0  0  0  0  0  0
  139.5270   67.3810  225.3700 O   0  0  0  0  0  0  0  0  0  0  0  0
  139.0790   68.4490  224.5400 C   0  0  0  0  0  0  0  0  0  0  0  0
  138.7320   69.7460  225.2940 C   0  0  0  0  0  0  0  0  0  0  0  0
  141.3390   72.6180  221.2440 N   0  0  0  0  0  0  0  0  0  0  0  0
  141.9590   73.4440  220.3560 C   0  0  0  0  0  0  0  0  0  0  0  0
  142.9070   72.8900  219.3290 C   0  0  1  0  0  0  0  0  0  0  0  0
  144.3780   73.2620  219.6340 C   0  0  0  0  0  0  0  0  0  0  0  0
  145.1100   71.9630  220.0220 C   0  0  0  0  0  0  0  0  0  0  0  0
  144.1280   70.8950  219.7220 C   0  0  0  0  0  0  0  0  0  0  0  0
  144.3400   69.5170  219.8110 C   0  0  0  0  0  0  0  0  0  0  0  0
  143.2820   68.6510  219.5020 C   0  0  0  0  0  0  0  0  0  0  0  0
  142.0330   69.1690  219.1150 C   0  0  0  0  0  0  0  0  0  0  0  0
  141.8390   70.5570  219.0420 C   0  0  0  0  0  0  0  0  0  0  0  0
  142.9070   71.4040  219.3520 C   0  0  0  0  0  0  0  0  0  0  0  0
  141.7200   74.7800  220.4020 N   0  0  0  0  0  0  0  0  0  0  0  0
  140.3160   77.3990  222.6300 C   0  0  0  0  0  0  0  0  0  0  0  0
  143.2462   81.9146  223.2029 H   0  0  0  0  0  0  0  0  0  0  0  0
  142.0958   80.9005  225.1687 H   0  0  0  0  0  0  0  0  0  0  0  0
  140.7562   78.8158  224.8953 H   0  0  0  0  0  0  0  0  0  0  0  0
  143.0790   80.8377  220.9595 H   0  0  0  0  0  0  0  0  0  0  0  0
  141.6642   79.3266  219.5197 H   0  0  0  0  0  0  0  0  0  0  0  0
  142.7356   78.0087  220.1688 H   0  0  0  0  0  0  0  0  0  0  0  0
  139.6936   78.0722  220.0339 H   0  0  0  0  0  0  0  0  0  0  0  0
  140.8222   76.9012  219.2769 H   0  0  0  0  0  0  0  0  0  0  0  0
  138.8850   72.4810  223.4380 H   0  0  0  0  0  0  0  0  0  0  0  0
  139.9715   70.2061  223.5431 H   0  0  0  0  0  0  0  0  0  0  0  0
  141.5493   71.0315  223.2563 H   0  0  0  0  0  0  0  0  0  0  0  0
  141.7962   71.2673  225.4770 H   0  0  0  0  0  0  0  0  0  0  0  0
  140.3120   72.3204  225.4793 H   0  0  0  0  0  0  0  0  0  0  0  0
  139.6044   70.7784  226.9805 H   0  0  0  0  0  0  0  0  0  0  0  0
  141.6853   68.9950  225.7456 H   0  0  0  0  0  0  0  0  0  0  0  0
  141.3180   69.3490  227.4788 H   0  0  0  0  0  0  0  0  0  0  0  0
  140.7822   67.0126  226.9559 H   0  0  0  0  0  0  0  0  0  0  0  0
  139.2704   67.9760  227.3035 H   0  0  0  0  0  0  0  0  0  0  0  0
  139.8741   68.6763  223.8146 H   0  0  0  0  0  0  0  0  0  0  0  0
  138.1475   68.1055  224.0664 H   0  0  0  0  0  0  0  0  0  0  0  0
  138.4032   70.5065  224.5704 H   0  0  0  0  0  0  0  0  0  0  0  0
  137.9297   69.5299  226.0149 H   0  0  0  0  0  0  0  0  0  0  0  0
  142.5648   73.3083  218.3709 H   0  0  0  0  0  0  0  0  0  0  0  0
  144.8462   73.7058  218.7430 H   0  0  0  0  0  0  0  0  0  0  0  0
  144.4318   73.9972  220.4505 H   0  0  0  0  0  0  0  0  0  0  0  0
  146.0230   71.8345  219.4220 H   0  0  0  0  0  0  0  0  0  0  0  0
  145.4338   71.9573  221.0732 H   0  0  0  0  0  0  0  0  0  0  0  0
  145.3186   69.1192  220.1177 H   0  0  0  0  0  0  0  0  0  0  0  0
  143.4291   67.5626  219.5624 H   0  0  0  0  0  0  0  0  0  0  0  0
  141.2071   68.4853  218.8692 H   0  0  0  0  0  0  0  0  0  0  0  0
  140.8638   70.9711  218.7461 H   0  0  0  0  0  0  0  0  0  0  0  0
  139.2558   77.6911  222.6548 H   0  0  0  0  0  0  0  0  0  0  0  0
  140.5449   76.7145  223.4601 H   0  0  0  0  0  0  0  0  0  0  0  0
  1  2  2  0
  2  3  1  0
  3  4  2  0
  4  5  1  0
  5  6  2  0
  5  7  1  0
  7  8  1  0
  8  9  1  0
  9 10  1  0
 10 11  2  0
 11 12  1  0
 12 13  1  0
 13 14  1  0
 14 15  1  0
 15 16  1  0
 16 17  1  0
 17 18  1  0
 18 19  1  0
 19 20  1  0
 20 21  1  0
 12 22  2  0
 22 23  1  0
 23 24  1  0
 24 25  1  0
 25 26  1  0
 26 27  1  0
 27 28  2  0
 28 29  1  0
 29 30  2  0
 30 31  1  0
 31 32  2  0
 23 33  2  0
  9 34  1  0
  6  1  1  0
 33 10  1  0
 34  4  1  0
 21 16  1  0
 32 24  1  0
 32 27  1  0
  1 35  1  0
  2 36  1  0
  3 37  1  0
  6 38  1  0
  7 39  1  0
  7 40  1  0
  8 41  1  0
  8 42  1  0
 13 43  1  0
 14 44  1  0
 14 45  1  0
 15 46  1  0
 15 47  1  0
 16 48  1  0
 17 49  1  0
 17 50  1  0
 18 51  1  0
 18 52  1  0
 20 53  1  0
 20 54  1  0
 21 55  1  0
 21 56  1  0
 24 57  1  6
 25 58  1  0
 25 59  1  0
 26 60  1  0
 26 61  1  0
 28 62  1  0
 29 63  1  0
 30 64  1  0
 31 65  1  0
 34 66  1  0
 34 67  1  0
M  END
>  <UniqueID>  (66) 
497

>  <SMILES>  (66) 
c1ccc2c(c1)CCN(c1nc(NCCC3CCOCC3)nc([C@H]3CCc4ccccc43)n1)C2

>  <Energy>  (66) 
86.20486451495124

>  <Genealogy>  (66) 
c1ccc2c(c1)CCN(c1nc(NCCC3CCOCC3)nc([C@H]3CCc4ccccc43)n1)C2 (chirality)
c1ccc2c(c1)CCN(c1nc(NCCC3CCOCC3)nc([C@H]3CCc4ccccc43)n1)C2 (3D coordinates assigned)
c1ccc2c(c1)CCN(c1nc(NCCC3CCOCC3)nc([C@H]3CCc4ccccc43)n1)C2 (nonaromatic ring conformer: 86.20486451495124 kcal/mol)

>  <smiles>  (66) 
c1ccc2c(c1)CCN(c1nc(NCCC3CCOCC3)nc(C3CCc4ccccc43)n1)C2

>  <score_type>  (66) 
oracle

>  <origin>  (66) 
autodockgpu

>  <m_score__min__energy>  (66) 
-10.26

>  <m_primary>  (66) 
energy

>  <meeko>  (66) 
{"free_energy": -9.77, "intermolecular_energy": -11.56, "internal_energy": -1.2, "cluster_size": 7, "cluster_id": 1, "rank_in_cluster": 5}

>  <energy>  (66) 
-9.7

>  <cluster_rmsd>  (66) 
0.35

>  <rmsd>  (66) 
271.61

>  <cluster>  (66) 
1

$$$$
AOEMPDNDYKTPOZ-MVXFCSEMNA-N
     RDKit          3D

 67 72  0  0  0  0  0  0  0  0999 V2000
  142.1710   81.3790  222.4020 C   0  0  0  0  0  0  0  0  0  0  0  0
  142.4070   80.7610  223.6310 C   0  0  0  0  0  0  0  0  0  0  0  0
  142.0460   79.4260  223.8240 C   0  0  0  0  0  0  0  0  0  0  0  0
  141.4550   78.6920  222.7830 C   0  0  0  0  0  0  0  0  0  0  0  0
  141.1960   79.3220  221.5420 C   0  0  0  0  0  0  0  0  0  0  0  0
  141.5740   80.6630  221.3600 C   0  0  0  0  0  0  0  0  0  0  0  0
  140.6230   78.5570  220.3680 C   0  0  0  0  0  0  0  0  0  0  0  0
  139.9160   77.2710  220.8020 C   0  0  0  0  0  0  0  0  0  0  0  0
  140.7520   76.5690  221.7780 N   0  0  0  0  0  0  0  0  0  0  0  0
  141.3230   75.2770  221.4950 C   0  0  0  0  0  0  0  0  0  0  0  0
  140.7270   74.1520  221.9640 N   0  0  0  0  0  0  0  0  0  0  0  0
  141.2510   72.9280  221.7060 C   0  0  0  0  0  0  0  0  0  0  0  0
  140.6210   71.7480  222.2200 N   0  0  0  0  0  0  0  0  0  0  0  0
  139.8360   71.7640  223.4530 C   0  0  0  0  0  0  0  0  0  0  0  0
  140.6900   71.2940  224.6410 C   0  0  0  0  0  0  0  0  0  0  0  0
  139.8970   70.4050  225.6270 C   0  0  0  0  0  0  0  0  0  0  0  0
  140.7680   69.2430  226.1670 C   0  0  0  0  0  0  0  0  0  0  0  0
  139.9070   68.0070  226.4660 C   0  0  0  0  0  0  0  0  0  0  0  0
  139.2600   67.4770  225.3150 O   0  0  0  0  0  0  0  0  0  0  0  0
  138.8440   68.4610  224.3720 C   0  0  0  0  0  0  0  0  0  0  0  0
  138.6070   69.8610  224.9680 C   0  0  0  0  0  0  0  0  0  0  0  0
  142.3770   72.8270  220.9560 N   0  0  0  0  0  0  0  0  0  0  0  0
  142.9870   73.9480  220.4820 C   0  0  0  0  0  0  0  0  0  0  0  0
  144.2420   73.8460  219.6600 C   0  0  1  0  0  0  0  0  0  0  0  0
  145.5130   74.1220  220.5000 C   0  0  0  0  0  0  0  0  0  0  0  0
  146.2870   72.7950  220.6120 C   0  0  0  0  0  0  0  0  0  0  0  0
  145.5780   71.8870  219.6800 C   0  0  0  0  0  0  0  0  0  0  0  0
  145.9480   70.5830  219.3430 C   0  0  0  0  0  0  0  0  0  0  0  0
  145.1410   69.8620  218.4510 C   0  0  0  0  0  0  0  0  0  0  0  0
  143.9810   70.4500  217.9140 C   0  0  0  0  0  0  0  0  0  0  0  0
  143.6230   71.7580  218.2750 C   0  0  0  0  0  0  0  0  0  0  0  0
  144.4420   72.4600  219.1640 C   0  0  0  0  0  0  0  0  0  0  0  0
  142.4580   75.1680  220.7580 N   0  0  0  0  0  0  0  0  0  0  0  0
  141.0300   77.2680  223.0400 C   0  0  0  0  0  0  0  0  0  0  0  0
  142.4552   82.4311  222.2529 H   0  0  0  0  0  0  0  0  0  0  0  0
  142.8780   81.3264  224.4486 H   0  0  0  0  0  0  0  0  0  0  0  0
  142.2257   78.9464  224.7975 H   0  0  0  0  0  0  0  0  0  0  0  0
  141.3990   81.1530  220.3908 H   0  0  0  0  0  0  0  0  0  0  0  0
  139.8988   79.2000  219.8463 H   0  0  0  0  0  0  0  0  0  0  0  0
  141.4582   78.2760  219.7096 H   0  0  0  0  0  0  0  0  0  0  0  0
  138.9469   77.5200  221.2589 H   0  0  0  0  0  0  0  0  0  0  0  0
  139.7494   76.6267  219.9262 H   0  0  0  0  0  0  0  0  0  0  0  0
  140.6730   70.8620  221.6640 H   0  0  0  0  0  0  0  0  0  0  0  0
  139.4827   72.7881  223.6439 H   0  0  0  0  0  0  0  0  0  0  0  0
  138.9801   71.0826  223.3386 H   0  0  0  0  0  0  0  0  0  0  0  0
  141.5439   70.7177  224.2552 H   0  0  0  0  0  0  0  0  0  0  0  0
  141.0198   72.1886  225.1895 H   0  0  0  0  0  0  0  0  0  0  0  0
  139.6086   71.0346  226.4817 H   0  0  0  0  0  0  0  0  0  0  0  0
  141.5258   68.9807  225.4140 H   0  0  0  0  0  0  0  0  0  0  0  0
  141.2509   69.5694  227.0999 H   0  0  0  0  0  0  0  0  0  0  0  0
  140.5539   67.2264  226.8928 H   0  0  0  0  0  0  0  0  0  0  0  0
  139.1186   68.3220  227.1654 H   0  0  0  0  0  0  0  0  0  0  0  0
  139.6213   68.5447  223.5982 H   0  0  0  0  0  0  0  0  0  0  0  0
  137.8751   68.1229  223.9759 H   0  0  0  0  0  0  0  0  0  0  0  0
  138.2956   70.5462  224.1658 H   0  0  0  0  0  0  0  0  0  0  0  0
  137.8231   69.7883  225.7362 H   0  0  0  0  0  0  0  0  0  0  0  0
  144.1126   74.5809  218.8518 H   0  0  0  0  0  0  0  0  0  0  0  0
  146.1357   74.8798  220.0021 H   0  0  0  0  0  0  0  0  0  0  0  0
  145.2452   74.5013  221.4972 H   0  0  0  0  0  0  0  0  0  0  0  0
  147.3357   72.9270  220.3073 H   0  0  0  0  0  0  0  0  0  0  0  0
  146.3160   72.4072  221.6410 H   0  0  0  0  0  0  0  0  0  0  0  0
  146.8553   70.1301  219.7692 H   0  0  0  0  0  0  0  0  0  0  0  0
  145.4155   68.8344  218.1705 H   0  0  0  0  0  0  0  0  0  0  0  0
  143.3537   69.8835  217.2101 H   0  0  0  0  0  0  0  0  0  0  0  0
  142.7139   72.2227  217.8656 H   0  0  0  0  0  0  0  0  0  0  0  0
  140.1207   77.2695  223.6590 H   0  0  0  0  0  0  0  0  0  0  0  0
  141.8468   76.7453  223.5592 H   0  0  0  0  0  0  0  0  0  0  0  0
  1  2  2  0
  2  3  1  0
  3  4  2  0
  4  5  1  0
  5  6  2  0
  5  7  1  0
  7  8  1  0
  8  9  1  0
  9 10  1  0
 10 11  2  0
 11 12  1  0
 12 13  1  0
 13 14  1  0
 14 15  1  0
 15 16  1  0
 16 17  1  0
 17 18  1  0
 18 19  1  0
 19 20  1  0
 20 21  1  0
 12 22  2  0
 22 23  1  0
 23 24  1  0
 24 25  1  0
 25 26  1  0
 26 27  1  0
 27 28  2  0
 28 29  1  0
 29 30  2  0
 30 31  1  0
 31 32  2  0
 23 33  2  0
  9 34  1  0
  6  1  1  0
 33 10  1  0
 34  4  1  0
 21 16  1  0
 32 24  1  0
 32 27  1  0
  1 35  1  0
  2 36  1  0
  3 37  1  0
  6 38  1  0
  7 39  1  0
  7 40  1  0
  8 41  1  0
  8 42  1  0
 13 43  1  0
 14 44  1  0
 14 45  1  0
 15 46  1  0
 15 47  1  0
 16 48  1  0
 17 49  1  0
 17 50  1  0
 18 51  1  0
 18 52  1  0
 20 53  1  0
 20 54  1  0
 21 55  1  0
 21 56  1  0
 24 57  1  6
 25 58  1  0
 25 59  1  0
 26 60  1  0
 26 61  1  0
 28 62  1  0
 29 63  1  0
 30 64  1  0
 31 65  1  0
 34 66  1  0
 34 67  1  0
M  END
>  <UniqueID>  (67) 
497

>  <SMILES>  (67) 
c1ccc2c(c1)CCN(c1nc(NCCC3CCOCC3)nc([C@H]3CCc4ccccc43)n1)C2

>  <Energy>  (67) 
86.20486451495124

>  <Genealogy>  (67) 
c1ccc2c(c1)CCN(c1nc(NCCC3CCOCC3)nc([C@H]3CCc4ccccc43)n1)C2 (chirality)
c1ccc2c(c1)CCN(c1nc(NCCC3CCOCC3)nc([C@H]3CCc4ccccc43)n1)C2 (3D coordinates assigned)
c1ccc2c(c1)CCN(c1nc(NCCC3CCOCC3)nc([C@H]3CCc4ccccc43)n1)C2 (nonaromatic ring conformer: 86.20486451495124 kcal/mol)

>  <smiles>  (67) 
c1ccc2c(c1)CCN(c1nc(NCCC3CCOCC3)nc(C3CCc4ccccc43)n1)C2

>  <score_type>  (67) 
oracle

>  <origin>  (67) 
autodockgpu

>  <m_score__min__energy>  (67) 
-10.26

>  <m_primary>  (67) 
energy

>  <meeko>  (67) 
{"free_energy": -9.95, "intermolecular_energy": -11.74, "internal_energy": -1.14, "cluster_size": 7, "cluster_id": 1, "rank_in_cluster": 4}

>  <energy>  (67) 
-9.61

>  <cluster_rmsd>  (67) 
0.66

>  <rmsd>  (67) 
271.51

>  <cluster>  (67) 
1

$$$$
AOEMPDNDYKTPOZ-MVXFCSEMNA-N
     RDKit          3D

 67 72  0  0  0  0  0  0  0  0999 V2000
  141.8160   80.0020  222.8930 C   0  0  0  0  0  0  0  0  0  0  0  0
  140.7400   79.6240  223.6980 C   0  0  0  0  0  0  0  0  0  0  0  0
  140.0230   78.4610  223.4070 C   0  0  0  0  0  0  0  0  0  0  0  0
  140.3840   77.6580  222.3130 C   0  0  0  0  0  0  0  0  0  0  0  0
  141.4630   78.0500  221.4830 C   0  0  0  0  0  0  0  0  0  0  0  0
  142.1800   79.2170  221.7940 C   0  0  0  0  0  0  0  0  0  0  0  0
  141.9330   77.1850  220.3340 C   0  0  0  0  0  0  0  0  0  0  0  0
  140.8630   76.1900  219.8780 C   0  0  0  0  0  0  0  0  0  0  0  0
  140.2640   75.5570  221.0550 N   0  0  0  0  0  0  0  0  0  0  0  0
  140.4060   74.1460  221.3090 C   0  0  0  0  0  0  0  0  0  0  0  0
  141.2710   73.4060  220.5730 N   0  0  0  0  0  0  0  0  0  0  0  0
  141.4170   72.0760  220.8010 C   0  0  0  0  0  0  0  0  0  0  0  0
  142.3230   71.3020  220.0070 N   0  0  0  0  0  0  0  0  0  0  0  0
  143.6470   70.9190  220.4940 C   0  0  0  0  0  0  0  0  0  0  0  0
  144.6890   71.0390  219.3700 C   0  0  0  0  0  0  0  0  0  0  0  0
  145.4610   72.3770  219.4160 C   0  0  0  0  0  0  0  0  0  0  0  0
  145.5310   72.9410  220.8580 C   0  0  0  0  0  0  0  0  0  0  0  0
  145.5580   74.4770  220.8440 C   0  0  0  0  0  0  0  0  0  0  0  0
  144.3890   75.0570  220.2790 O   0  0  0  0  0  0  0  0  0  0  0  0
  143.8300   74.3150  219.1980 C   0  0  0  0  0  0  0  0  0  0  0  0
  144.8320   73.4130  218.4540 C   0  0  0  0  0  0  0  0  0  0  0  0
  140.6980   71.4840  221.7870 N   0  0  0  0  0  0  0  0  0  0  0  0
  139.8230   72.2150  222.5300 C   0  0  0  0  0  0  0  0  0  0  0  0
  139.0130   71.5640  223.6170 C   0  0  1  0  0  0  0  0  0  0  0  0
  138.2970   70.2840  223.1240 C   0  0  0  0  0  0  0  0  0  0  0  0
  138.9570   69.0850  223.8310 C   0  0  0  0  0  0  0  0  0  0  0  0
  139.8470   69.7100  224.8380 C   0  0  0  0  0  0  0  0  0  0  0  0
  140.6020   69.0470  225.8090 C   0  0  0  0  0  0  0  0  0  0  0  0
  141.4060   69.8060  226.6710 C   0  0  0  0  0  0  0  0  0  0  0  0
  141.4450   71.2070  226.5520 C   0  0  0  0  0  0  0  0  0  0  0  0
  140.6850   71.8510  225.5630 C   0  0  0  0  0  0  0  0  0  0  0  0
  139.8890   71.0760  224.7140 C   0  0  0  0  0  0  0  0  0  0  0  0
  139.6780   73.5430  222.2840 N   0  0  0  0  0  0  0  0  0  0  0  0
  139.5580   76.4370  221.9960 C   0  0  0  0  0  0  0  0  0  0  0  0
  142.3786   80.9188  223.1233 H   0  0  0  0  0  0  0  0  0  0  0  0
  140.4565   80.2425  224.5623 H   0  0  0  0  0  0  0  0  0  0  0  0
  139.1701   78.1723  224.0389 H   0  0  0  0  0  0  0  0  0  0  0  0
  143.0342   79.5159  221.1686 H   0  0  0  0  0  0  0  0  0  0  0  0
  142.1951   77.8352  219.4864 H   0  0  0  0  0  0  0  0  0  0  0  0
  142.8020   76.6074  220.6822 H   0  0  0  0  0  0  0  0  0  0  0  0
  140.0852   76.7206  219.3093 H   0  0  0  0  0  0  0  0  0  0  0  0
  141.3204   75.4221  219.2369 H   0  0  0  0  0  0  0  0  0  0  0  0
  142.0050   70.9460  219.0740 H   0  0  0  0  0  0  0  0  0  0  0  0
  143.9327   71.5810  221.3248 H   0  0  0  0  0  0  0  0  0  0  0  0
  143.6118   69.8744  220.8367 H   0  0  0  0  0  0  0  0  0  0  0  0
  145.4091   70.2132  219.4675 H   0  0  0  0  0  0  0  0  0  0  0  0
  144.1513   70.9973  218.4113 H   0  0  0  0  0  0  0  0  0  0  0  0
  146.4900   72.1766  219.0827 H   0  0  0  0  0  0  0  0  0  0  0  0
  144.6492   72.6012  221.4210 H   0  0  0  0  0  0  0  0  0  0  0  0
  146.4536   72.5771  221.3338 H   0  0  0  0  0  0  0  0  0  0  0  0
  145.6585   74.8335  221.8798 H   0  0  0  0  0  0  0  0  0  0  0  0
  146.4079   74.7812  220.2154 H   0  0  0  0  0  0  0  0  0  0  0  0
  143.0267   73.6787  219.5977 H   0  0  0  0  0  0  0  0  0  0  0  0
  143.4715   75.0532  218.4655 H   0  0  0  0  0  0  0  0  0  0  0  0
  144.3077   72.8822  217.6457 H   0  0  0  0  0  0  0  0  0  0  0  0
  145.6341   74.0431  218.0422 H   0  0  0  0  0  0  0  0  0  0  0  0
  138.3012   72.3373  223.9416 H   0  0  0  0  0  0  0  0  0  0  0  0
  137.2280   70.3292  223.3795 H   0  0  0  0  0  0  0  0  0  0  0  0
  138.3842   70.1867  222.0318 H   0  0  0  0  0  0  0  0  0  0  0  0
  138.1999   68.4521  224.3170 H   0  0  0  0  0  0  0  0  0  0  0  0
  139.4996   68.4285  223.1349 H   0  0  0  0  0  0  0  0  0  0  0  0
  140.5662   67.9510  225.8954 H   0  0  0  0  0  0  0  0  0  0  0  0
  142.0082   69.3043  227.4428 H   0  0  0  0  0  0  0  0  0  0  0  0
  142.0720   71.7989  227.2350 H   0  0  0  0  0  0  0  0  0  0  0  0
  140.7151   72.9455  225.4578 H   0  0  0  0  0  0  0  0  0  0  0  0
  138.6048   76.7534  221.5474 H   0  0  0  0  0  0  0  0  0  0  0  0
  139.3779   75.8823  222.9287 H   0  0  0  0  0  0  0  0  0  0  0  0
  1  2  2  0
  2  3  1  0
  3  4  2  0
  4  5  1  0
  5  6  2  0
  5  7  1  0
  7  8  1  0
  8  9  1  0
  9 10  1  0
 10 11  2  0
 11 12  1  0
 12 13  1  0
 13 14  1  0
 14 15  1  0
 15 16  1  0
 16 17  1  0
 17 18  1  0
 18 19  1  0
 19 20  1  0
 20 21  1  0
 12 22  2  0
 22 23  1  0
 23 24  1  0
 24 25  1  0
 25 26  1  0
 26 27  1  0
 27 28  2  0
 28 29  1  0
 29 30  2  0
 30 31  1  0
 31 32  2  0
 23 33  2  0
  9 34  1  0
  6  1  1  0
 33 10  1  0
 34  4  1  0
 21 16  1  0
 32 24  1  0
 32 27  1  0
  1 35  1  0
  2 36  1  0
  3 37  1  0
  6 38  1  0
  7 39  1  0
  7 40  1  0
  8 41  1  0
  8 42  1  0
 13 43  1  0
 14 44  1  0
 14 45  1  0
 15 46  1  0
 15 47  1  0
 16 48  1  0
 17 49  1  0
 17 50  1  0
 18 51  1  0
 18 52  1  0
 20 53  1  0
 20 54  1  0
 21 55  1  0
 21 56  1  0
 24 57  1  1
 25 58  1  0
 25 59  1  0
 26 60  1  0
 26 61  1  0
 28 62  1  0
 29 63  1  0
 30 64  1  0
 31 65  1  0
 34 66  1  0
 34 67  1  0
M  END
>  <UniqueID>  (68) 
497

>  <SMILES>  (68) 
c1ccc2c(c1)CCN(c1nc(NCCC3CCOCC3)nc([C@H]3CCc4ccccc43)n1)C2

>  <Energy>  (68) 
86.20486451495124

>  <Genealogy>  (68) 
c1ccc2c(c1)CCN(c1nc(NCCC3CCOCC3)nc([C@H]3CCc4ccccc43)n1)C2 (chirality)
c1ccc2c(c1)CCN(c1nc(NCCC3CCOCC3)nc([C@H]3CCc4ccccc43)n1)C2 (3D coordinates assigned)
c1ccc2c(c1)CCN(c1nc(NCCC3CCOCC3)nc([C@H]3CCc4ccccc43)n1)C2 (nonaromatic ring conformer: 86.20486451495124 kcal/mol)

>  <smiles>  (68) 
c1ccc2c(c1)CCN(c1nc(NCCC3CCOCC3)nc(C3CCc4ccccc43)n1)C2

>  <score_type>  (68) 
oracle

>  <origin>  (68) 
autodockgpu

>  <m_score__min__energy>  (68) 
-10.26

>  <m_primary>  (68) 
energy

>  <meeko>  (68) 
{"free_energy": -8.73, "intermolecular_energy": -10.51, "internal_energy": -1.88, "cluster_size": 3, "cluster_id": 3, "rank_in_cluster": 3}

>  <energy>  (68) 
-9.86

>  <cluster_rmsd>  (68) 
0.0

>  <rmsd>  (68) 
270.89

>  <cluster>  (68) 
2

$$$$
AOEMPDNDYKTPOZ-MVXFCSEMNA-N
     RDKit          3D

 67 72  0  0  0  0  0  0  0  0999 V2000
  145.6180   67.3110  219.3050 C   0  0  0  0  0  0  0  0  0  0  0  0
  146.2780   68.5410  219.2760 C   0  0  0  0  0  0  0  0  0  0  0  0
  145.5450   69.7290  219.3020 C   0  0  0  0  0  0  0  0  0  0  0  0
  144.1420   69.6980  219.3690 C   0  0  0  0  0  0  0  0  0  0  0  0
  143.4700   68.4510  219.3770 C   0  0  0  0  0  0  0  0  0  0  0  0
  144.2220   67.2640  219.3610 C   0  0  0  0  0  0  0  0  0  0  0  0
  141.9660   68.3630  219.5160 C   0  0  0  0  0  0  0  0  0  0  0  0
  141.2690   69.6720  219.1370 C   0  0  0  0  0  0  0  0  0  0  0  0
  141.9820   70.7920  219.7530 N   0  0  0  0  0  0  0  0  0  0  0  0
  141.3650   71.6230  220.7550 C   0  0  0  0  0  0  0  0  0  0  0  0
  141.6190   72.9550  220.7860 N   0  0  0  0  0  0  0  0  0  0  0  0
  141.0450   73.7500  221.7230 C   0  0  0  0  0  0  0  0  0  0  0  0
  141.3330   75.1530  221.7550 N   0  0  0  0  0  0  0  0  0  0  0  0
  140.2890   76.1620  221.5790 C   0  0  0  0  0  0  0  0  0  0  0  0
  140.9040   77.5700  221.5330 C   0  0  0  0  0  0  0  0  0  0  0  0
  140.5680   78.4060  222.7890 C   0  0  0  0  0  0  0  0  0  0  0  0
  139.9100   79.7570  222.4090 C   0  0  0  0  0  0  0  0  0  0  0  0
  140.2660   80.8460  223.4320 C   0  0  0  0  0  0  0  0  0  0  0  0
  141.6590   81.1230  223.5000 O   0  0  0  0  0  0  0  0  0  0  0  0
  142.4930   79.9830  223.3090 C   0  0  0  0  0  0  0  0  0  0  0  0
  141.8290   78.6380  223.6550 C   0  0  0  0  0  0  0  0  0  0  0  0
  140.1950   73.2080  222.6310 N   0  0  0  0  0  0  0  0  0  0  0  0
  139.9360   71.8720  222.6130 C   0  0  0  0  0  0  0  0  0  0  0  0
  139.0040   71.2610  223.6240 C   0  0  1  0  0  0  0  0  0  0  0  0
  138.3130   69.9860  223.0830 C   0  0  0  0  0  0  0  0  0  0  0  0
  138.8700   68.7890  223.8770 C   0  0  0  0  0  0  0  0  0  0  0  0
  139.6650   69.4160  224.9580 C   0  0  0  0  0  0  0  0  0  0  0  0
  140.3020   68.7590  226.0140 C   0  0  0  0  0  0  0  0  0  0  0  0
  141.0300   69.5190  226.9400 C   0  0  0  0  0  0  0  0  0  0  0  0
  141.1130   70.9160  226.7990 C   0  0  0  0  0  0  0  0  0  0  0  0
  140.4730   71.5540  225.7260 C   0  0  0  0  0  0  0  0  0  0  0  0
  139.7520   70.7790  224.8140 C   0  0  0  0  0  0  0  0  0  0  0  0
  140.5260   71.0850  221.6770 N   0  0  0  0  0  0  0  0  0  0  0  0
  143.3780   70.9970  219.3430 C   0  0  0  0  0  0  0  0  0  0  0  0
  146.1980   66.3766  219.2837 H   0  0  0  0  0  0  0  0  0  0  0  0
  147.3766   68.5741  219.2326 H   0  0  0  0  0  0  0  0  0  0  0  0
  146.0693   70.6955  219.2698 H   0  0  0  0  0  0  0  0  0  0  0  0
  143.7088   66.2916  219.3927 H   0  0  0  0  0  0  0  0  0  0  0  0
  141.5964   67.5624  218.8584 H   0  0  0  0  0  0  0  0  0  0  0  0
  141.7377   68.1541  220.5716 H   0  0  0  0  0  0  0  0  0  0  0  0
  141.2750   69.7888  218.0432 H   0  0  0  0  0  0  0  0  0  0  0  0
  140.2289   69.6542  219.4945 H   0  0  0  0  0  0  0  0  0  0  0  0
  142.3080   75.4660  221.9710 H   0  0  0  0  0  0  0  0  0  0  0  0
  139.7545   75.9694  220.6371 H   0  0  0  0  0  0  0  0  0  0  0  0
  139.5924   76.1054  222.4285 H   0  0  0  0  0  0  0  0  0  0  0  0
  141.9971   77.4747  221.4551 H   0  0  0  0  0  0  0  0  0  0  0  0
  140.4794   78.0910  220.6622 H   0  0  0  0  0  0  0  0  0  0  0  0
  139.8421   77.8320  223.3837 H   0  0  0  0  0  0  0  0  0  0  0  0
  140.2678   80.0652  221.4155 H   0  0  0  0  0  0  0  0  0  0  0  0
  138.8178   79.6262  222.4001 H   0  0  0  0  0  0  0  0  0  0  0  0
  139.7397   81.7710  223.1540 H   0  0  0  0  0  0  0  0  0  0  0  0
  139.9600   80.4749  224.4212 H   0  0  0  0  0  0  0  0  0  0  0  0
  142.7972   79.9536  222.2523 H   0  0  0  0  0  0  0  0  0  0  0  0
  143.3416   80.0984  223.9993 H   0  0  0  0  0  0  0  0  0  0  0  0
  142.5464   77.8245  223.4718 H   0  0  0  0  0  0  0  0  0  0  0  0
  141.5301   78.6555  224.7135 H   0  0  0  0  0  0  0  0  0  0  0  0
  138.2802   72.0550  223.8600 H   0  0  0  0  0  0  0  0  0  0  0  0
  137.2247   70.0585  223.2259 H   0  0  0  0  0  0  0  0  0  0  0  0
  138.5091   69.8642  222.0075 H   0  0  0  0  0  0  0  0  0  0  0  0
  138.0529   68.1820  224.2940 H   0  0  0  0  0  0  0  0  0  0  0  0
  139.4666   68.1073  223.2530 H   0  0  0  0  0  0  0  0  0  0  0  0
  140.2335   67.6660  226.1167 H   0  0  0  0  0  0  0  0  0  0  0  0
  141.5378   69.0214  227.7794 H   0  0  0  0  0  0  0  0  0  0  0  0
  141.6806   71.5091  227.5312 H   0  0  0  0  0  0  0  0  0  0  0  0
  140.5377   72.6454  225.6047 H   0  0  0  0  0  0  0  0  0  0  0  0
  143.3973   71.4059  218.3220 H   0  0  0  0  0  0  0  0  0  0  0  0
  143.8518   71.6977  220.0462 H   0  0  0  0  0  0  0  0  0  0  0  0
  1  2  2  0
  2  3  1  0
  3  4  2  0
  4  5  1  0
  5  6  2  0
  5  7  1  0
  7  8  1  0
  8  9  1  0
  9 10  1  0
 10 11  2  0
 11 12  1  0
 12 13  1  0
 13 14  1  0
 14 15  1  0
 15 16  1  0
 16 17  1  0
 17 18  1  0
 18 19  1  0
 19 20  1  0
 20 21  1  0
 12 22  2  0
 22 23  1  0
 23 24  1  0
 24 25  1  0
 25 26  1  0
 26 27  1  0
 27 28  2  0
 28 29  1  0
 29 30  2  0
 30 31  1  0
 31 32  2  0
 23 33  2  0
  9 34  1  0
  6  1  1  0
 33 10  1  0
 34  4  1  0
 21 16  1  0
 32 24  1  0
 32 27  1  0
  1 35  1  0
  2 36  1  0
  3 37  1  0
  6 38  1  0
  7 39  1  0
  7 40  1  0
  8 41  1  0
  8 42  1  0
 13 43  1  0
 14 44  1  0
 14 45  1  0
 15 46  1  0
 15 47  1  0
 16 48  1  0
 17 49  1  0
 17 50  1  0
 18 51  1  0
 18 52  1  0
 20 53  1  0
 20 54  1  0
 21 55  1  0
 21 56  1  0
 24 57  1  1
 25 58  1  0
 25 59  1  0
 26 60  1  0
 26 61  1  0
 28 62  1  0
 29 63  1  0
 30 64  1  0
 31 65  1  0
 34 66  1  0
 34 67  1  0
M  END
>  <UniqueID>  (69) 
497

>  <SMILES>  (69) 
c1ccc2c(c1)CCN(c1nc(NCCC3CCOCC3)nc([C@H]3CCc4ccccc43)n1)C2

>  <Energy>  (69) 
86.20486451495124

>  <Genealogy>  (69) 
c1ccc2c(c1)CCN(c1nc(NCCC3CCOCC3)nc([C@H]3CCc4ccccc43)n1)C2 (chirality)
c1ccc2c(c1)CCN(c1nc(NCCC3CCOCC3)nc([C@H]3CCc4ccccc43)n1)C2 (3D coordinates assigned)
c1ccc2c(c1)CCN(c1nc(NCCC3CCOCC3)nc([C@H]3CCc4ccccc43)n1)C2 (nonaromatic ring conformer: 86.20486451495124 kcal/mol)

>  <smiles>  (69) 
c1ccc2c(c1)CCN(c1nc(NCCC3CCOCC3)nc(C3CCc4ccccc43)n1)C2

>  <score_type>  (69) 
oracle

>  <origin>  (69) 
autodockgpu

>  <m_score__min__energy>  (69) 
-10.26

>  <m_primary>  (69) 
energy

>  <meeko>  (69) 
{"free_energy": -9.86, "intermolecular_energy": -11.65, "internal_energy": -1.13, "cluster_size": 3, "cluster_id": 2, "rank_in_cluster": 1}

>  <energy>  (69) 
-9.86

>  <cluster_rmsd>  (69) 
0.47

>  <rmsd>  (69) 
270.91

>  <cluster>  (69) 
2

$$$$
AOEMPDNDYKTPOZ-MVXFCSEMNA-N
     RDKit          3D

 67 72  0  0  0  0  0  0  0  0999 V2000
  141.9850   80.3400  223.0020 C   0  0  0  0  0  0  0  0  0  0  0  0
  140.8980   79.9630  223.7930 C   0  0  0  0  0  0  0  0  0  0  0  0
  140.2000   78.7880  223.5070 C   0  0  0  0  0  0  0  0  0  0  0  0
  140.5910   77.9710  222.4350 C   0  0  0  0  0  0  0  0  0  0  0  0
  141.6810   78.3610  221.6190 C   0  0  0  0  0  0  0  0  0  0  0  0
  142.3800   79.5410  221.9240 C   0  0  0  0  0  0  0  0  0  0  0  0
  142.1830   77.4830  220.4940 C   0  0  0  0  0  0  0  0  0  0  0  0
  141.1330   76.4680  220.0340 C   0  0  0  0  0  0  0  0  0  0  0  0
  140.5170   75.8490  221.2090 N   0  0  0  0  0  0  0  0  0  0  0  0
  140.6690   74.4440  221.4900 C   0  0  0  0  0  0  0  0  0  0  0  0
  139.8310   73.8300  222.3620 N   0  0  0  0  0  0  0  0  0  0  0  0
  139.9600   72.5070  222.6360 C   0  0  0  0  0  0  0  0  0  0  0  0
  139.0790   71.8730  223.5710 N   0  0  0  0  0  0  0  0  0  0  0  0
  139.5580   70.8950  224.5460 C   0  0  0  0  0  0  0  0  0  0  0  0
  140.6940   71.4910  225.3920 C   0  0  0  0  0  0  0  0  0  0  0  0
  141.2370   70.4940  226.4420 C   0  0  0  0  0  0  0  0  0  0  0  0
  140.7120   69.0590  226.1850 C   0  0  0  0  0  0  0  0  0  0  0  0
  140.5660   68.2850  227.5040 C   0  0  0  0  0  0  0  0  0  0  0  0
  139.6230   68.8660  228.3970 O   0  0  0  0  0  0  0  0  0  0  0  0
  139.5850   70.2900  228.3640 C   0  0  0  0  0  0  0  0  0  0  0  0
  140.8850   70.9550  227.8770 C   0  0  0  0  0  0  0  0  0  0  0  0
  140.9300   71.7870  222.0190 N   0  0  0  0  0  0  0  0  0  0  0  0
  141.7800   72.3930  221.1450 C   0  0  0  0  0  0  0  0  0  0  0  0
  142.8660   71.6060  220.4650 C   0  0  1  0  0  0  0  0  0  0  0  0
  142.5690   71.3790  218.9630 C   0  0  0  0  0  0  0  0  0  0  0  0
  143.5970   72.2000  218.1610 C   0  0  0  0  0  0  0  0  0  0  0  0
  144.5540   72.6750  219.1870 C   0  0  0  0  0  0  0  0  0  0  0  0
  145.7340   73.3870  218.9610 C   0  0  0  0  0  0  0  0  0  0  0  0
  146.5120   73.7710  220.0620 C   0  0  0  0  0  0  0  0  0  0  0  0
  146.1020   73.4420  221.3670 C   0  0  0  0  0  0  0  0  0  0  0  0
  144.9070   72.7340  221.5720 C   0  0  0  0  0  0  0  0  0  0  0  0
  144.1470   72.3600  220.4600 C   0  0  0  0  0  0  0  0  0  0  0  0
  141.6480   73.7200  220.8880 N   0  0  0  0  0  0  0  0  0  0  0  0
  139.7840   76.7360  222.1220 C   0  0  0  0  0  0  0  0  0  0  0  0
  142.5320   81.2674  223.2271 H   0  0  0  0  0  0  0  0  0  0  0  0
  140.5914   80.5919  224.6418 H   0  0  0  0  0  0  0  0  0  0  0  0
  139.3375   78.5007  224.1263 H   0  0  0  0  0  0  0  0  0  0  0  0
  143.2436   79.8385  221.3110 H   0  0  0  0  0  0  0  0  0  0  0  0
  142.4542   78.1222  219.6409 H   0  0  0  0  0  0  0  0  0  0  0  0
  143.0516   76.9214  220.8684 H   0  0  0  0  0  0  0  0  0  0  0  0
  140.3613   76.9799  219.4403 H   0  0  0  0  0  0  0  0  0  0  0  0
  141.6118   75.6942  219.4160 H   0  0  0  0  0  0  0  0  0  0  0  0
  138.0730   72.1630  223.5970 H   0  0  0  0  0  0  0  0  0  0  0  0
  138.7276   70.6061  225.2070 H   0  0  0  0  0  0  0  0  0  0  0  0
  139.9389   70.0140  224.0087 H   0  0  0  0  0  0  0  0  0  0  0  0
  141.5172   71.7814  224.7226 H   0  0  0  0  0  0  0  0  0  0  0  0
  140.2877   72.3580  225.9335 H   0  0  0  0  0  0  0  0  0  0  0  0
  142.3324   70.4744  226.3438 H   0  0  0  0  0  0  0  0  0  0  0  0
  139.7309   69.1174  225.6910 H   0  0  0  0  0  0  0  0  0  0  0  0
  141.4333   68.5300  225.5447 H   0  0  0  0  0  0  0  0  0  0  0  0
  140.2418   67.2596  227.2728 H   0  0  0  0  0  0  0  0  0  0  0  0
  141.5451   68.3077  228.0047 H   0  0  0  0  0  0  0  0  0  0  0  0
  138.7703   70.5959  227.6912 H   0  0  0  0  0  0  0  0  0  0  0  0
  139.4352   70.6218  229.4020 H   0  0  0  0  0  0  0  0  0  0  0  0
  140.7549   72.0473  227.8827 H   0  0  0  0  0  0  0  0  0  0  0  0
  141.7035   70.6622  228.5510 H   0  0  0  0  0  0  0  0  0  0  0  0
  142.9220   70.6598  221.0232 H   0  0  0  0  0  0  0  0  0  0  0  0
  142.6668   70.3112  218.7176 H   0  0  0  0  0  0  0  0  0  0  0  0
  141.5440   71.6939  218.7178 H   0  0  0  0  0  0  0  0  0  0  0  0
  144.1040   71.5704  217.4149 H   0  0  0  0  0  0  0  0  0  0  0  0
  143.1347   73.0247  217.5987 H   0  0  0  0  0  0  0  0  0  0  0  0
  146.0472   73.6418  217.9378 H   0  0  0  0  0  0  0  0  0  0  0  0
  147.4456   74.3311  219.9052 H   0  0  0  0  0  0  0  0  0  0  0  0
  146.7185   73.7399  222.2279 H   0  0  0  0  0  0  0  0  0  0  0  0
  144.5749   72.4783  222.5890 H   0  0  0  0  0  0  0  0  0  0  0  0
  138.8363   77.0349  221.6503 H   0  0  0  0  0  0  0  0  0  0  0  0
  139.5920   76.1943  223.0599 H   0  0  0  0  0  0  0  0  0  0  0  0
  1  2  2  0
  2  3  1  0
  3  4  2  0
  4  5  1  0
  5  6  2  0
  5  7  1  0
  7  8  1  0
  8  9  1  0
  9 10  1  0
 10 11  2  0
 11 12  1  0
 12 13  1  0
 13 14  1  0
 14 15  1  0
 15 16  1  0
 16 17  1  0
 17 18  1  0
 18 19  1  0
 19 20  1  0
 20 21  1  0
 12 22  2  0
 22 23  1  0
 23 24  1  0
 24 25  1  0
 25 26  1  0
 26 27  1  0
 27 28  2  0
 28 29  1  0
 29 30  2  0
 30 31  1  0
 31 32  2  0
 23 33  2  0
  9 34  1  0
  6  1  1  0
 33 10  1  0
 34  4  1  0
 21 16  1  0
 32 24  1  0
 32 27  1  0
  1 35  1  0
  2 36  1  0
  3 37  1  0
  6 38  1  0
  7 39  1  0
  7 40  1  0
  8 41  1  0
  8 42  1  0
 13 43  1  0
 14 44  1  0
 14 45  1  0
 15 46  1  0
 15 47  1  0
 16 48  1  0
 17 49  1  0
 17 50  1  0
 18 51  1  0
 18 52  1  0
 20 53  1  0
 20 54  1  0
 21 55  1  0
 21 56  1  0
 24 57  1  1
 25 58  1  0
 25 59  1  0
 26 60  1  0
 26 61  1  0
 28 62  1  0
 29 63  1  0
 30 64  1  0
 31 65  1  0
 34 66  1  0
 34 67  1  0
M  END
>  <UniqueID>  (70) 
497

>  <SMILES>  (70) 
c1ccc2c(c1)CCN(c1nc(NCCC3CCOCC3)nc([C@H]3CCc4ccccc43)n1)C2

>  <Energy>  (70) 
86.20486451495124

>  <Genealogy>  (70) 
c1ccc2c(c1)CCN(c1nc(NCCC3CCOCC3)nc([C@H]3CCc4ccccc43)n1)C2 (chirality)
c1ccc2c(c1)CCN(c1nc(NCCC3CCOCC3)nc([C@H]3CCc4ccccc43)n1)C2 (3D coordinates assigned)
c1ccc2c(c1)CCN(c1nc(NCCC3CCOCC3)nc([C@H]3CCc4ccccc43)n1)C2 (nonaromatic ring conformer: 86.20486451495124 kcal/mol)

>  <smiles>  (70) 
c1ccc2c(c1)CCN(c1nc(NCCC3CCOCC3)nc(C3CCc4ccccc43)n1)C2

>  <score_type>  (70) 
oracle

>  <origin>  (70) 
autodockgpu

>  <m_score__min__energy>  (70) 
-10.26

>  <m_primary>  (70) 
energy

>  <meeko>  (70) 
{"free_energy": -10.2, "intermolecular_energy": -11.99, "internal_energy": -1.42, "cluster_size": 7, "cluster_id": 1, "rank_in_cluster": 2}

>  <energy>  (70) 
-9.85

>  <cluster_rmsd>  (70) 
0.49

>  <rmsd>  (70) 
270.89

>  <cluster>  (70) 
2

$$$$
AOEMPDNDYKTPOZ-MVXFCSEMNA-N
     RDKit          3D

 67 72  0  0  0  0  0  0  0  0999 V2000
  139.5730   68.2650  226.8020 C   0  0  0  0  0  0  0  0  0  0  0  0
  140.5470   69.1820  227.2000 C   0  0  0  0  0  0  0  0  0  0  0  0
  140.9720   70.1780  226.3180 C   0  0  0  0  0  0  0  0  0  0  0  0
  140.4170   70.2740  225.0320 C   0  0  0  0  0  0  0  0  0  0  0  0
  139.4420   69.3330  224.6190 C   0  0  0  0  0  0  0  0  0  0  0  0
  139.0170   68.3430  225.5200 C   0  0  0  0  0  0  0  0  0  0  0  0
  138.7650   69.4340  223.2690 C   0  0  0  0  0  0  0  0  0  0  0  0
  139.5700   70.2760  222.2760 C   0  0  0  0  0  0  0  0  0  0  0  0
  140.0290   71.4960  222.9420 N   0  0  0  0  0  0  0  0  0  0  0  0
  139.5720   72.7990  222.5320 C   0  0  0  0  0  0  0  0  0  0  0  0
  140.4650   73.7970  222.3180 N   0  0  0  0  0  0  0  0  0  0  0  0
  140.0500   75.0290  221.9310 C   0  0  0  0  0  0  0  0  0  0  0  0
  141.0020   76.0800  221.7220 N   0  0  0  0  0  0  0  0  0  0  0  0
  140.5910   77.4670  221.5100 C   0  0  0  0  0  0  0  0  0  0  0  0
  139.6950   77.9450  222.6630 C   0  0  0  0  0  0  0  0  0  0  0  0
  140.3430   79.0840  223.4850 C   0  0  0  0  0  0  0  0  0  0  0  0
  140.2280   80.4450  222.7530 C   0  0  0  0  0  0  0  0  0  0  0  0
  141.4250   81.3480  223.0840 C   0  0  0  0  0  0  0  0  0  0  0  0
  142.6720   80.8100  222.6630 O   0  0  0  0  0  0  0  0  0  0  0  0
  142.7620   79.3910  222.7650 C   0  0  0  0  0  0  0  0  0  0  0  0
  141.8210   78.7620  223.8090 C   0  0  0  0  0  0  0  0  0  0  0  0
  138.7270   75.2620  221.7420 N   0  0  0  0  0  0  0  0  0  0  0  0
  137.8200   74.2700  221.9580 C   0  0  0  0  0  0  0  0  0  0  0  0
  136.3510   74.5210  221.7620 C   0  0  1  0  0  0  0  0  0  0  0  0
  135.6420   73.3300  221.0730 C   0  0  0  0  0  0  0  0  0  0  0  0
  134.7030   72.6890  222.1120 C   0  0  0  0  0  0  0  0  0  0  0  0
  134.7350   73.6330  223.2540 C   0  0  0  0  0  0  0  0  0  0  0  0
  133.9710   73.5570  224.4210 C   0  0  0  0  0  0  0  0  0  0  0  0
  134.1480   74.5370  225.4080 C   0  0  0  0  0  0  0  0  0  0  0  0
  135.0820   75.5720  225.2170 C   0  0  0  0  0  0  0  0  0  0  0  0
  135.8450   75.6240  224.0410 C   0  0  0  0  0  0  0  0  0  0  0  0
  135.6520   74.6380  223.0690 C   0  0  0  0  0  0  0  0  0  0  0  0
  138.2470   73.0440  222.3560 N   0  0  0  0  0  0  0  0  0  0  0  0
  140.9350   71.3280  224.0860 C   0  0  0  0  0  0  0  0  0  0  0  0
  139.2417   67.4795  227.4972 H   0  0  0  0  0  0  0  0  0  0  0  0
  140.9803   69.1202  228.2092 H   0  0  0  0  0  0  0  0  0  0  0  0
  141.7470   70.8922  226.6331 H   0  0  0  0  0  0  0  0  0  0  0  0
  138.2419   67.6241  225.2160 H   0  0  0  0  0  0  0  0  0  0  0  0
  138.6443   68.4211  222.8573 H   0  0  0  0  0  0  0  0  0  0  0  0
  137.7926   69.9266  223.4166 H   0  0  0  0  0  0  0  0  0  0  0  0
  140.4384   69.6998  221.9240 H   0  0  0  0  0  0  0  0  0  0  0  0
  138.9368   70.5398  221.4161 H   0  0  0  0  0  0  0  0  0  0  0  0
  142.0230   75.8590  221.7840 H   0  0  0  0  0  0  0  0  0  0  0  0
  141.4852   78.1056  221.4578 H   0  0  0  0  0  0  0  0  0  0  0  0
  140.0243   77.5303  220.5693 H   0  0  0  0  0  0  0  0  0  0  0  0
  138.7453   78.3089  222.2440 H   0  0  0  0  0  0  0  0  0  0  0  0
  139.5386   77.0921  223.3399 H   0  0  0  0  0  0  0  0  0  0  0  0
  139.7911   79.1630  224.4332 H   0  0  0  0  0  0  0  0  0  0  0  0
  140.1990   80.2688  221.6676 H   0  0  0  0  0  0  0  0  0  0  0  0
  139.3070   80.9462  223.0856 H   0  0  0  0  0  0  0  0  0  0  0  0
  141.2780   82.3180  222.5865 H   0  0  0  0  0  0  0  0  0  0  0  0
  141.4661   81.4441  224.1790 H   0  0  0  0  0  0  0  0  0  0  0  0
  142.5205   78.9604  221.7820 H   0  0  0  0  0  0  0  0  0  0  0  0
  143.7873   79.1667  223.0944 H   0  0  0  0  0  0  0  0  0  0  0  0
  141.9604   77.6709  223.8084 H   0  0  0  0  0  0  0  0  0  0  0  0
  142.0632   79.1797  224.7974 H   0  0  0  0  0  0  0  0  0  0  0  0
  136.2984   75.4389  221.1581 H   0  0  0  0  0  0  0  0  0  0  0  0
  135.0604   73.6868  220.2102 H   0  0  0  0  0  0  0  0  0  0  0  0
  136.3778   72.5972  220.7103 H   0  0  0  0  0  0  0  0  0  0  0  0
  133.6829   72.5942  221.7114 H   0  0  0  0  0  0  0  0  0  0  0  0
  135.0143   71.6723  222.3940 H   0  0  0  0  0  0  0  0  0  0  0  0
  133.2442   72.7436  224.5630 H   0  0  0  0  0  0  0  0  0  0  0  0
  133.5553   74.4967  226.3338 H   0  0  0  0  0  0  0  0  0  0  0  0
  135.2141   76.3419  225.9915 H   0  0  0  0  0  0  0  0  0  0  0  0
  136.5818   76.4260  223.8865 H   0  0  0  0  0  0  0  0  0  0  0  0
  141.9269   71.0262  223.7186 H   0  0  0  0  0  0  0  0  0  0  0  0
  141.0001   72.2840  224.6263 H   0  0  0  0  0  0  0  0  0  0  0  0
  1  2  2  0
  2  3  1  0
  3  4  2  0
  4  5  1  0
  5  6  2  0
  5  7  1  0
  7  8  1  0
  8  9  1  0
  9 10  1  0
 10 11  2  0
 11 12  1  0
 12 13  1  0
 13 14  1  0
 14 15  1  0
 15 16  1  0
 16 17  1  0
 17 18  1  0
 18 19  1  0
 19 20  1  0
 20 21  1  0
 12 22  2  0
 22 23  1  0
 23 24  1  0
 24 25  1  0
 25 26  1  0
 26 27  1  0
 27 28  2  0
 28 29  1  0
 29 30  2  0
 30 31  1  0
 31 32  2  0
 23 33  2  0
  9 34  1  0
  6  1  1  0
 33 10  1  0
 34  4  1  0
 21 16  1  0
 32 24  1  0
 32 27  1  0
  1 35  1  0
  2 36  1  0
  3 37  1  0
  6 38  1  0
  7 39  1  0
  7 40  1  0
  8 41  1  0
  8 42  1  0
 13 43  1  0
 14 44  1  0
 14 45  1  0
 15 46  1  0
 15 47  1  0
 16 48  1  0
 17 49  1  0
 17 50  1  0
 18 51  1  0
 18 52  1  0
 20 53  1  0
 20 54  1  0
 21 55  1  0
 21 56  1  0
 24 57  1  6
 25 58  1  0
 25 59  1  0
 26 60  1  0
 26 61  1  0
 28 62  1  0
 29 63  1  0
 30 64  1  0
 31 65  1  0
 34 66  1  0
 34 67  1  0
M  END
>  <UniqueID>  (71) 
497

>  <SMILES>  (71) 
c1ccc2c(c1)CCN(c1nc(NCCC3CCOCC3)nc([C@H]3CCc4ccccc43)n1)C2

>  <Energy>  (71) 
86.20486451495124

>  <Genealogy>  (71) 
c1ccc2c(c1)CCN(c1nc(NCCC3CCOCC3)nc([C@H]3CCc4ccccc43)n1)C2 (chirality)
c1ccc2c(c1)CCN(c1nc(NCCC3CCOCC3)nc([C@H]3CCc4ccccc43)n1)C2 (3D coordinates assigned)
c1ccc2c(c1)CCN(c1nc(NCCC3CCOCC3)nc([C@H]3CCc4ccccc43)n1)C2 (nonaromatic ring conformer: 86.20486451495124 kcal/mol)

>  <smiles>  (71) 
c1ccc2c(c1)CCN(c1nc(NCCC3CCOCC3)nc(C3CCc4ccccc43)n1)C2

>  <score_type>  (71) 
oracle

>  <origin>  (71) 
autodockgpu

>  <m_score__min__energy>  (71) 
-10.26

>  <m_primary>  (71) 
energy

>  <meeko>  (71) 
{"free_energy": -8.96, "intermolecular_energy": -10.75, "internal_energy": -1.37, "cluster_size": 1, "cluster_id": 6, "rank_in_cluster": 1}

>  <energy>  (71) 
-9.3

>  <cluster_rmsd>  (71) 
0.0

>  <rmsd>  (71) 
271.24

>  <cluster>  (71) 
3

$$$$
AOEMPDNDYKTPOZ-MVXFCSEMNA-N
     RDKit          3D

 67 72  0  0  0  0  0  0  0  0999 V2000
  145.5860   66.8080  219.1430 C   0  0  0  0  0  0  0  0  0  0  0  0
  146.2420   68.0210  218.9290 C   0  0  0  0  0  0  0  0  0  0  0  0
  145.5170   69.2140  218.9070 C   0  0  0  0  0  0  0  0  0  0  0  0
  144.1280   69.2060  219.1120 C   0  0  0  0  0  0  0  0  0  0  0  0
  143.4570   67.9750  219.3100 C   0  0  0  0  0  0  0  0  0  0  0  0
  144.2010   66.7840  219.3390 C   0  0  0  0  0  0  0  0  0  0  0  0
  141.9730   67.9190  219.6020 C   0  0  0  0  0  0  0  0  0  0  0  0
  141.2450   69.1920  219.1640 C   0  0  0  0  0  0  0  0  0  0  0  0
  142.0180   70.3590  219.5930 N   0  0  0  0  0  0  0  0  0  0  0  0
  141.5040   71.2920  220.5630 C   0  0  0  0  0  0  0  0  0  0  0  0
  141.8880   72.5920  220.5270 N   0  0  0  0  0  0  0  0  0  0  0  0
  141.4120   73.4820  221.4330 C   0  0  0  0  0  0  0  0  0  0  0  0
  141.8370   74.8500  221.3950 N   0  0  0  0  0  0  0  0  0  0  0  0
  141.7980   75.6390  220.1640 C   0  0  0  0  0  0  0  0  0  0  0  0
  142.2460   74.7890  218.9660 C   0  0  0  0  0  0  0  0  0  0  0  0
  143.7720   74.8590  218.7250 C   0  0  0  0  0  0  0  0  0  0  0  0
  144.2100   73.8970  217.5920 C   0  0  0  0  0  0  0  0  0  0  0  0
  145.6340   73.3760  217.8370 C   0  0  0  0  0  0  0  0  0  0  0  0
  145.7590   72.6150  219.0330 O   0  0  0  0  0  0  0  0  0  0  0  0
  144.9410   73.0730  220.1060 C   0  0  0  0  0  0  0  0  0  0  0  0
  144.5520   74.5610  220.0270 C   0  0  0  0  0  0  0  0  0  0  0  0
  140.5290   73.0700  222.3770 N   0  0  0  0  0  0  0  0  0  0  0  0
  140.1390   71.7670  222.4260 C   0  0  0  0  0  0  0  0  0  0  0  0
  139.1690   71.2980  223.4760 C   0  0  1  0  0  0  0  0  0  0  0  0
  138.3970   70.0310  223.0330 C   0  0  0  0  0  0  0  0  0  0  0  0
  138.8760   68.8670  223.9210 C   0  0  0  0  0  0  0  0  0  0  0  0
  139.7100   69.5240  224.9540 C   0  0  0  0  0  0  0  0  0  0  0  0
  140.3030   68.9120  226.0610 C   0  0  0  0  0  0  0  0  0  0  0  0
  141.0780   69.6930  226.9290 C   0  0  0  0  0  0  0  0  0  0  0  0
  141.2520   71.0670  226.6790 C   0  0  0  0  0  0  0  0  0  0  0  0
  140.6550   71.6590  225.5560 C   0  0  0  0  0  0  0  0  0  0  0  0
  139.8850   70.8630  224.7040 C   0  0  0  0  0  0  0  0  0  0  0  0
  140.6320   70.8830  221.5210 N   0  0  0  0  0  0  0  0  0  0  0  0
  143.3670   70.5060  219.0310 C   0  0  0  0  0  0  0  0  0  0  0  0
  146.1589   65.8691  219.1576 H   0  0  0  0  0  0  0  0  0  0  0  0
  147.3314   68.0372  218.7775 H   0  0  0  0  0  0  0  0  0  0  0  0
  146.0374   70.1664  218.7279 H   0  0  0  0  0  0  0  0  0  0  0  0
  143.6911   65.8257  219.5171 H   0  0  0  0  0  0  0  0  0  0  0  0
  141.5394   67.0617  219.0662 H   0  0  0  0  0  0  0  0  0  0  0  0
  141.8484   67.8183  220.6903 H   0  0  0  0  0  0  0  0  0  0  0  0
  141.1438   69.1998  218.0687 H   0  0  0  0  0  0  0  0  0  0  0  0
  140.2449   69.2222  219.6210 H   0  0  0  0  0  0  0  0  0  0  0  0
  142.1260   75.3170  222.2860 H   0  0  0  0  0  0  0  0  0  0  0  0
  140.7705   75.9925  219.9930 H   0  0  0  0  0  0  0  0  0  0  0  0
  142.4810   76.4949  220.2682 H   0  0  0  0  0  0  0  0  0  0  0  0
  141.9665   73.7417  219.1529 H   0  0  0  0  0  0  0  0  0  0  0  0
  141.7484   75.1878  218.0697 H   0  0  0  0  0  0  0  0  0  0  0  0
  144.0106   75.8846  218.4069 H   0  0  0  0  0  0  0  0  0  0  0  0
  143.5158   73.0445  217.5546 H   0  0  0  0  0  0  0  0  0  0  0  0
  144.1952   74.4459  216.6388 H   0  0  0  0  0  0  0  0  0  0  0  0
  145.9238   72.7404  216.9873 H   0  0  0  0  0  0  0  0  0  0  0  0
  146.2879   74.2544  217.9410 H   0  0  0  0  0  0  0  0  0  0  0  0
  144.0166   72.4767  220.1112 H   0  0  0  0  0  0  0  0  0  0  0  0
  145.5363   72.9551  221.0235 H   0  0  0  0  0  0  0  0  0  0  0  0
  143.9205   74.8146  220.8912 H   0  0  0  0  0  0  0  0  0  0  0  0
  145.4711   75.1654  220.0323 H   0  0  0  0  0  0  0  0  0  0  0  0
  138.4975   72.1527  223.6449 H   0  0  0  0  0  0  0  0  0  0  0  0
  137.3157   70.1842  223.1645 H   0  0  0  0  0  0  0  0  0  0  0  0
  138.5845   69.8128  221.9713 H   0  0  0  0  0  0  0  0  0  0  0  0
  138.0216   68.3482  224.3801 H   0  0  0  0  0  0  0  0  0  0  0  0
  139.4277   68.1020  223.3550 H   0  0  0  0  0  0  0  0  0  0  0  0
  140.1642   67.8369  226.2479 H   0  0  0  0  0  0  0  0  0  0  0  0
  141.5515   69.2310  227.8078 H   0  0  0  0  0  0  0  0  0  0  0  0
  141.8571   71.6777  227.3652 H   0  0  0  0  0  0  0  0  0  0  0  0
  140.7907   72.7309  225.3498 H   0  0  0  0  0  0  0  0  0  0  0  0
  143.2870   70.8115  217.9773 H   0  0  0  0  0  0  0  0  0  0  0  0
  143.9087   71.2673  219.6115 H   0  0  0  0  0  0  0  0  0  0  0  0
  1  2  2  0
  2  3  1  0
  3  4  2  0
  4  5  1  0
  5  6  2  0
  5  7  1  0
  7  8  1  0
  8  9  1  0
  9 10  1  0
 10 11  2  0
 11 12  1  0
 12 13  1  0
 13 14  1  0
 14 15  1  0
 15 16  1  0
 16 17  1  0
 17 18  1  0
 18 19  1  0
 19 20  1  0
 20 21  1  0
 12 22  2  0
 22 23  1  0
 23 24  1  0
 24 25  1  0
 25 26  1  0
 26 27  1  0
 27 28  2  0
 28 29  1  0
 29 30  2  0
 30 31  1  0
 31 32  2  0
 23 33  2  0
  9 34  1  0
  6  1  1  0
 33 10  1  0
 34  4  1  0
 21 16  1  0
 32 24  1  0
 32 27  1  0
  1 35  1  0
  2 36  1  0
  3 37  1  0
  6 38  1  0
  7 39  1  0
  7 40  1  0
  8 41  1  0
  8 42  1  0
 13 43  1  0
 14 44  1  0
 14 45  1  0
 15 46  1  0
 15 47  1  0
 16 48  1  0
 17 49  1  0
 17 50  1  0
 18 51  1  0
 18 52  1  0
 20 53  1  0
 20 54  1  0
 21 55  1  0
 21 56  1  0
 24 57  1  1
 25 58  1  0
 25 59  1  0
 26 60  1  0
 26 61  1  0
 28 62  1  0
 29 63  1  0
 30 64  1  0
 31 65  1  0
 34 66  1  0
 34 67  1  0
M  END
>  <UniqueID>  (72) 
497

>  <SMILES>  (72) 
c1ccc2c(c1)CCN(c1nc(NCCC3CCOCC3)nc([C@H]3CCc4ccccc43)n1)C2

>  <Energy>  (72) 
86.20486451495124

>  <Genealogy>  (72) 
c1ccc2c(c1)CCN(c1nc(NCCC3CCOCC3)nc([C@H]3CCc4ccccc43)n1)C2 (chirality)
c1ccc2c(c1)CCN(c1nc(NCCC3CCOCC3)nc([C@H]3CCc4ccccc43)n1)C2 (3D coordinates assigned)
c1ccc2c(c1)CCN(c1nc(NCCC3CCOCC3)nc([C@H]3CCc4ccccc43)n1)C2 (nonaromatic ring conformer: 86.20486451495124 kcal/mol)

>  <smiles>  (72) 
c1ccc2c(c1)CCN(c1nc(NCCC3CCOCC3)nc(C3CCc4ccccc43)n1)C2

>  <score_type>  (72) 
oracle

>  <origin>  (72) 
autodockgpu

>  <m_score__min__energy>  (72) 
-10.26

>  <m_primary>  (72) 
energy

>  <meeko>  (72) 
{"free_energy": -9.03, "intermolecular_energy": -10.82, "internal_energy": -1.89, "cluster_size": 3, "cluster_id": 4, "rank_in_cluster": 3}

>  <energy>  (72) 
-9.16

>  <cluster_rmsd>  (72) 
0.2

>  <rmsd>  (72) 
271.22

>  <cluster>  (72) 
3

$$$$
AOEMPDNDYKTPOZ-MVXFCSEMNA-N
     RDKit          3D

 67 72  0  0  0  0  0  0  0  0999 V2000
  141.8260   80.1100  222.5920 C   0  0  0  0  0  0  0  0  0  0  0  0
  140.7940   79.7660  223.4670 C   0  0  0  0  0  0  0  0  0  0  0  0
  140.1210   78.5530  223.3120 C   0  0  0  0  0  0  0  0  0  0  0  0
  140.4820   77.6650  222.2860 C   0  0  0  0  0  0  0  0  0  0  0  0
  141.5150   78.0210  221.3850 C   0  0  0  0  0  0  0  0  0  0  0  0
  142.1900   79.2400  221.5590 C   0  0  0  0  0  0  0  0  0  0  0  0
  141.9860   77.0710  220.3050 C   0  0  0  0  0  0  0  0  0  0  0  0
  140.9470   75.9940  219.9830 C   0  0  0  0  0  0  0  0  0  0  0  0
  140.4150   75.4520  221.2340 N   0  0  0  0  0  0  0  0  0  0  0  0
  140.6270   74.0780  221.6140 C   0  0  0  0  0  0  0  0  0  0  0  0
  141.6760   73.3850  221.1040 N   0  0  0  0  0  0  0  0  0  0  0  0
  141.8890   72.0920  221.4520 C   0  0  0  0  0  0  0  0  0  0  0  0
  142.9920   71.3660  220.8950 N   0  0  0  0  0  0  0  0  0  0  0  0
  143.0350   70.9860  219.4840 C   0  0  0  0  0  0  0  0  0  0  0  0
  142.9740   72.2340  218.5890 C   0  0  0  0  0  0  0  0  0  0  0  0
  144.3030   73.0250  218.5820 C   0  0  0  0  0  0  0  0  0  0  0  0
  145.3520   72.3770  219.5200 C   0  0  0  0  0  0  0  0  0  0  0  0
  146.2850   73.4410  220.1170 C   0  0  0  0  0  0  0  0  0  0  0  0
  145.6080   74.3940  220.9270 O   0  0  0  0  0  0  0  0  0  0  0  0
  144.2980   74.7260  220.4720 C   0  0  0  0  0  0  0  0  0  0  0  0
  144.0680   74.5060  218.9660 C   0  0  0  0  0  0  0  0  0  0  0  0
  141.0520   71.4880  222.3330 N   0  0  0  0  0  0  0  0  0  0  0  0
  139.9930   72.1720  222.8490 C   0  0  0  0  0  0  0  0  0  0  0  0
  139.0530   71.5080  223.8170 C   0  0  1  0  0  0  0  0  0  0  0  0
  138.4400   70.2100  223.2360 C   0  0  0  0  0  0  0  0  0  0  0  0
  139.0200   69.0290  224.0370 C   0  0  0  0  0  0  0  0  0  0  0  0
  139.7460   69.6760  225.1550 C   0  0  0  0  0  0  0  0  0  0  0  0
  140.3720   69.0340  226.2260 C   0  0  0  0  0  0  0  0  0  0  0  0
  141.0310   69.8140  227.1870 C   0  0  0  0  0  0  0  0  0  0  0  0
  141.0570   71.2150  227.0650 C   0  0  0  0  0  0  0  0  0  0  0  0
  140.4300   71.8380  225.9750 C   0  0  0  0  0  0  0  0  0  0  0  0
  139.7770   71.0430  225.0280 C   0  0  0  0  0  0  0  0  0  0  0  0
  139.7840   73.4630  222.4830 N   0  0  0  0  0  0  0  0  0  0  0  0
  139.7010   76.3870  222.1140 C   0  0  0  0  0  0  0  0  0  0  0  0
  142.3539   81.0671  222.7152 H   0  0  0  0  0  0  0  0  0  0  0  0
  140.5110   80.4515  224.2794 H   0  0  0  0  0  0  0  0  0  0  0  0
  139.3023   78.2910  223.9983 H   0  0  0  0  0  0  0  0  0  0  0  0
  143.0103   79.5124  220.8786 H   0  0  0  0  0  0  0  0  0  0  0  0
  142.1914   77.6483  219.3915 H   0  0  0  0  0  0  0  0  0  0  0  0
  142.8907   76.5654  220.6736 H   0  0  0  0  0  0  0  0  0  0  0  0
  140.1286   76.4357  219.3955 H   0  0  0  0  0  0  0  0  0  0  0  0
  141.4173   75.1881  219.4005 H   0  0  0  0  0  0  0  0  0  0  0  0
  143.8180   71.1540  221.5020 H   0  0  0  0  0  0  0  0  0  0  0  0
  143.9700   70.4422  219.2838 H   0  0  0  0  0  0  0  0  0  0  0  0
  142.1689   70.3454  219.2612 H   0  0  0  0  0  0  0  0  0  0  0  0
  142.7458   71.9191  217.5601 H   0  0  0  0  0  0  0  0  0  0  0  0
  142.1938   72.8961  218.9925 H   0  0  0  0  0  0  0  0  0  0  0  0
  144.7018   72.9927  217.5574 H   0  0  0  0  0  0  0  0  0  0  0  0
  144.8314   71.8554  220.3367 H   0  0  0  0  0  0  0  0  0  0  0  0
  145.9563   71.6681  218.9349 H   0  0  0  0  0  0  0  0  0  0  0  0
  147.0425   72.9346  220.7333 H   0  0  0  0  0  0  0  0  0  0  0  0
  146.7334   73.9895  219.2755 H   0  0  0  0  0  0  0  0  0  0  0  0
  143.5758   74.1061  221.0236 H   0  0  0  0  0  0  0  0  0  0  0  0
  144.1687   75.8033  220.6531 H   0  0  0  0  0  0  0  0  0  0  0  0
  143.0334   74.7833  218.7154 H   0  0  0  0  0  0  0  0  0  0  0  0
  144.7795   75.1313  218.4067 H   0  0  0  0  0  0  0  0  0  0  0  0
  138.2869   72.2667  224.0348 H   0  0  0  0  0  0  0  0  0  0  0  0
  137.3450   70.2324  223.3386 H   0  0  0  0  0  0  0  0  0  0  0  0
  138.6812   70.1107  222.1674 H   0  0  0  0  0  0  0  0  0  0  0  0
  138.2158   68.3812  224.4160 H   0  0  0  0  0  0  0  0  0  0  0  0
  139.6695   68.3829  223.4281 H   0  0  0  0  0  0  0  0  0  0  0  0
  140.3484   67.9378  226.3138 H   0  0  0  0  0  0  0  0  0  0  0  0
  141.5293   69.3286  228.0391 H   0  0  0  0  0  0  0  0  0  0  0  0
  141.5695   71.8231  227.8250 H   0  0  0  0  0  0  0  0  0  0  0  0
  140.4518   72.9325  225.8675 H   0  0  0  0  0  0  0  0  0  0  0  0
  138.7209   76.6203  221.6725 H   0  0  0  0  0  0  0  0  0  0  0  0
  139.5753   75.9159  223.1001 H   0  0  0  0  0  0  0  0  0  0  0  0
  1  2  2  0
  2  3  1  0
  3  4  2  0
  4  5  1  0
  5  6  2  0
  5  7  1  0
  7  8  1  0
  8  9  1  0
  9 10  1  0
 10 11  2  0
 11 12  1  0
 12 13  1  0
 13 14  1  0
 14 15  1  0
 15 16  1  0
 16 17  1  0
 17 18  1  0
 18 19  1  0
 19 20  1  0
 20 21  1  0
 12 22  2  0
 22 23  1  0
 23 24  1  0
 24 25  1  0
 25 26  1  0
 26 27  1  0
 27 28  2  0
 28 29  1  0
 29 30  2  0
 30 31  1  0
 31 32  2  0
 23 33  2  0
  9 34  1  0
  6  1  1  0
 33 10  1  0
 34  4  1  0
 21 16  1  0
 32 24  1  0
 32 27  1  0
  1 35  1  0
  2 36  1  0
  3 37  1  0
  6 38  1  0
  7 39  1  0
  7 40  1  0
  8 41  1  0
  8 42  1  0
 13 43  1  0
 14 44  1  0
 14 45  1  0
 15 46  1  0
 15 47  1  0
 16 48  1  0
 17 49  1  0
 17 50  1  0
 18 51  1  0
 18 52  1  0
 20 53  1  0
 20 54  1  0
 21 55  1  0
 21 56  1  0
 24 57  1  1
 25 58  1  0
 25 59  1  0
 26 60  1  0
 26 61  1  0
 28 62  1  0
 29 63  1  0
 30 64  1  0
 31 65  1  0
 34 66  1  0
 34 67  1  0
M  END
>  <UniqueID>  (73) 
497

>  <SMILES>  (73) 
c1ccc2c(c1)CCN(c1nc(NCCC3CCOCC3)nc([C@H]3CCc4ccccc43)n1)C2

>  <Energy>  (73) 
86.20486451495124

>  <Genealogy>  (73) 
c1ccc2c(c1)CCN(c1nc(NCCC3CCOCC3)nc([C@H]3CCc4ccccc43)n1)C2 (chirality)
c1ccc2c(c1)CCN(c1nc(NCCC3CCOCC3)nc([C@H]3CCc4ccccc43)n1)C2 (3D coordinates assigned)
c1ccc2c(c1)CCN(c1nc(NCCC3CCOCC3)nc([C@H]3CCc4ccccc43)n1)C2 (nonaromatic ring conformer: 86.20486451495124 kcal/mol)

>  <smiles>  (73) 
c1ccc2c(c1)CCN(c1nc(NCCC3CCOCC3)nc(C3CCc4ccccc43)n1)C2

>  <score_type>  (73) 
oracle

>  <origin>  (73) 
autodockgpu

>  <m_score__min__energy>  (73) 
-10.26

>  <m_primary>  (73) 
energy

>  <meeko>  (73) 
{"free_energy": -9.16, "intermolecular_energy": -10.95, "internal_energy": -1.82, "cluster_size": 3, "cluster_id": 3, "rank_in_cluster": 2}

>  <energy>  (73) 
-8.73

>  <cluster_rmsd>  (73) 
0.87

>  <rmsd>  (73) 
271.05

>  <cluster>  (73) 
3

$$$$
AOEMPDNDYKTPOZ-MVXFCSEMNA-N
     RDKit          3D

 67 72  0  0  0  0  0  0  0  0999 V2000
  141.8480   80.1870  222.5980 C   0  0  0  0  0  0  0  0  0  0  0  0
  140.8700   79.8420  223.5310 C   0  0  0  0  0  0  0  0  0  0  0  0
  140.1940   78.6260  223.4190 C   0  0  0  0  0  0  0  0  0  0  0  0
  140.4990   77.7360  222.3760 C   0  0  0  0  0  0  0  0  0  0  0  0
  141.4770   78.0930  221.4160 C   0  0  0  0  0  0  0  0  0  0  0  0
  142.1560   79.3160  221.5480 C   0  0  0  0  0  0  0  0  0  0  0  0
  141.8890   77.1420  220.3130 C   0  0  0  0  0  0  0  0  0  0  0  0
  140.8370   76.0610  220.0540 C   0  0  0  0  0  0  0  0  0  0  0  0
  140.3800   75.5200  221.3360 N   0  0  0  0  0  0  0  0  0  0  0  0
  140.6190   74.1480  221.7060 C   0  0  0  0  0  0  0  0  0  0  0  0
  141.7100   73.4960  221.2330 N   0  0  0  0  0  0  0  0  0  0  0  0
  141.9490   72.2040  221.5730 C   0  0  0  0  0  0  0  0  0  0  0  0
  143.0970   71.5210  221.0560 N   0  0  0  0  0  0  0  0  0  0  0  0
  143.1030   70.9160  219.7250 C   0  0  0  0  0  0  0  0  0  0  0  0
  143.0790   72.0030  218.6390 C   0  0  0  0  0  0  0  0  0  0  0  0
  144.3740   72.8480  218.6160 C   0  0  0  0  0  0  0  0  0  0  0  0
  145.4460   72.2660  219.5720 C   0  0  0  0  0  0  0  0  0  0  0  0
  146.3320   73.3820  220.1460 C   0  0  0  0  0  0  0  0  0  0  0  0
  145.6130   74.3250  220.9320 O   0  0  0  0  0  0  0  0  0  0  0  0
  144.2920   74.5900  220.4660 C   0  0  0  0  0  0  0  0  0  0  0  0
  144.0770   74.3260  218.9650 C   0  0  0  0  0  0  0  0  0  0  0  0
  141.0940   71.5630  222.4090 N   0  0  0  0  0  0  0  0  0  0  0  0
  139.9930   72.2050  222.8870 C   0  0  0  0  0  0  0  0  0  0  0  0
  139.0340   71.4980  223.8040 C   0  0  1  0  0  0  0  0  0  0  0  0
  138.3670   70.2790  223.1220 C   0  0  0  0  0  0  0  0  0  0  0  0
  138.9040   69.0130  223.8150 C   0  0  0  0  0  0  0  0  0  0  0  0
  139.6620   69.5350  224.9760 C   0  0  0  0  0  0  0  0  0  0  0  0
  140.2690   68.7800  225.9830 C   0  0  0  0  0  0  0  0  0  0  0  0
  140.9640   69.4500  227.0010 C   0  0  0  0  0  0  0  0  0  0  0  0
  141.0450   70.8540  226.9970 C   0  0  0  0  0  0  0  0  0  0  0  0
  140.4360   71.5910  225.9690 C   0  0  0  0  0  0  0  0  0  0  0  0
  139.7470   70.9050  224.9650 C   0  0  0  0  0  0  0  0  0  0  0  0
  139.7590   73.4940  222.5290 N   0  0  0  0  0  0  0  0  0  0  0  0
  139.7140   76.4540  222.2520 C   0  0  0  0  0  0  0  0  0  0  0  0
  142.3783   81.1465  222.6884 H   0  0  0  0  0  0  0  0  0  0  0  0
  140.6312   80.5292  224.3561 H   0  0  0  0  0  0  0  0  0  0  0  0
  139.4174   78.3630  224.1523 H   0  0  0  0  0  0  0  0  0  0  0  0
  142.9347   79.5901  220.8210 H   0  0  0  0  0  0  0  0  0  0  0  0
  142.0397   77.7176  219.3878 H   0  0  0  0  0  0  0  0  0  0  0  0
  142.8153   76.6405  220.6301 H   0  0  0  0  0  0  0  0  0  0  0  0
  139.9844   76.4986  219.5139 H   0  0  0  0  0  0  0  0  0  0  0  0
  141.2754   75.2552  219.4469 H   0  0  0  0  0  0  0  0  0  0  0  0
  143.9780   71.5080  221.6220 H   0  0  0  0  0  0  0  0  0  0  0  0
  144.0120   70.3076  219.6081 H   0  0  0  0  0  0  0  0  0  0  0  0
  142.2080   70.2857  219.6170 H   0  0  0  0  0  0  0  0  0  0  0  0
  142.9563   71.5192  217.6587 H   0  0  0  0  0  0  0  0  0  0  0  0
  142.2424   72.6808  218.8639 H   0  0  0  0  0  0  0  0  0  0  0  0
  144.7768   72.8084  217.5932 H   0  0  0  0  0  0  0  0  0  0  0  0
  144.9447   71.7426  220.3995 H   0  0  0  0  0  0  0  0  0  0  0  0
  146.0812   71.5691  219.0055 H   0  0  0  0  0  0  0  0  0  0  0  0
  147.1079   72.9223  220.7758 H   0  0  0  0  0  0  0  0  0  0  0  0
  146.7598   73.9288  219.2928 H   0  0  0  0  0  0  0  0  0  0  0  0
  143.5950   73.9525  221.0298 H   0  0  0  0  0  0  0  0  0  0  0  0
  144.1162   75.6646  220.6218 H   0  0  0  0  0  0  0  0  0  0  0  0
  143.0329   74.5546  218.7051 H   0  0  0  0  0  0  0  0  0  0  0  0
  144.7644   74.9669  218.3935 H   0  0  0  0  0  0  0  0  0  0  0  0
  138.2993   72.2643  224.0920 H   0  0  0  0  0  0  0  0  0  0  0  0
  137.2744   70.3355  223.2362 H   0  0  0  0  0  0  0  0  0  0  0  0
  138.5980   70.2609  222.0467 H   0  0  0  0  0  0  0  0  0  0  0  0
  138.0770   68.3676  224.1460 H   0  0  0  0  0  0  0  0  0  0  0  0
  139.5231   68.3951  223.1480 H   0  0  0  0  0  0  0  0  0  0  0  0
  140.2032   67.6820  225.9777 H   0  0  0  0  0  0  0  0  0  0  0  0
  141.4471   68.8753  227.8049 H   0  0  0  0  0  0  0  0  0  0  0  0
  141.5862   71.3753  227.8003 H   0  0  0  0  0  0  0  0  0  0  0  0
  140.5000   72.6890  225.9540 H   0  0  0  0  0  0  0  0  0  0  0  0
  138.7095   76.6824  221.8663 H   0  0  0  0  0  0  0  0  0  0  0  0
  139.6463   75.9853  223.2448 H   0  0  0  0  0  0  0  0  0  0  0  0
  1  2  2  0
  2  3  1  0
  3  4  2  0
  4  5  1  0
  5  6  2  0
  5  7  1  0
  7  8  1  0
  8  9  1  0
  9 10  1  0
 10 11  2  0
 11 12  1  0
 12 13  1  0
 13 14  1  0
 14 15  1  0
 15 16  1  0
 16 17  1  0
 17 18  1  0
 18 19  1  0
 19 20  1  0
 20 21  1  0
 12 22  2  0
 22 23  1  0
 23 24  1  0
 24 25  1  0
 25 26  1  0
 26 27  1  0
 27 28  2  0
 28 29  1  0
 29 30  2  0
 30 31  1  0
 31 32  2  0
 23 33  2  0
  9 34  1  0
  6  1  1  0
 33 10  1  0
 34  4  1  0
 21 16  1  0
 32 24  1  0
 32 27  1  0
  1 35  1  0
  2 36  1  0
  3 37  1  0
  6 38  1  0
  7 39  1  0
  7 40  1  0
  8 41  1  0
  8 42  1  0
 13 43  1  0
 14 44  1  0
 14 45  1  0
 15 46  1  0
 15 47  1  0
 16 48  1  0
 17 49  1  0
 17 50  1  0
 18 51  1  0
 18 52  1  0
 20 53  1  0
 20 54  1  0
 21 55  1  0
 21 56  1  0
 24 57  1  1
 25 58  1  0
 25 59  1  0
 26 60  1  0
 26 61  1  0
 28 62  1  0
 29 63  1  0
 30 64  1  0
 31 65  1  0
 34 66  1  0
 34 67  1  0
M  END
>  <UniqueID>  (74) 
497

>  <SMILES>  (74) 
c1ccc2c(c1)CCN(c1nc(NCCC3CCOCC3)nc([C@H]3CCc4ccccc43)n1)C2

>  <Energy>  (74) 
86.20486451495124

>  <Genealogy>  (74) 
c1ccc2c(c1)CCN(c1nc(NCCC3CCOCC3)nc([C@H]3CCc4ccccc43)n1)C2 (chirality)
c1ccc2c(c1)CCN(c1nc(NCCC3CCOCC3)nc([C@H]3CCc4ccccc43)n1)C2 (3D coordinates assigned)
c1ccc2c(c1)CCN(c1nc(NCCC3CCOCC3)nc([C@H]3CCc4ccccc43)n1)C2 (nonaromatic ring conformer: 86.20486451495124 kcal/mol)

>  <smiles>  (74) 
c1ccc2c(c1)CCN(c1nc(NCCC3CCOCC3)nc(C3CCc4ccccc43)n1)C2

>  <score_type>  (74) 
oracle

>  <origin>  (74) 
autodockgpu

>  <m_score__min__energy>  (74) 
-10.26

>  <m_primary>  (74) 
energy

>  <meeko>  (74) 
{"free_energy": -9.3, "intermolecular_energy": -11.09, "internal_energy": -1.77, "cluster_size": 3, "cluster_id": 3, "rank_in_cluster": 1}

>  <energy>  (74) 
-9.06

>  <cluster_rmsd>  (74) 
0.0

>  <rmsd>  (74) 
270.19

>  <cluster>  (74) 
4

$$$$
AOEMPDNDYKTPOZ-MVXFCSEMNA-N
     RDKit          3D

 67 72  0  0  0  0  0  0  0  0999 V2000
  141.9650   80.3060  223.0420 C   0  0  0  0  0  0  0  0  0  0  0  0
  140.8570   79.9210  223.7990 C   0  0  0  0  0  0  0  0  0  0  0  0
  140.1620   78.7530  223.4780 C   0  0  0  0  0  0  0  0  0  0  0  0
  140.5760   77.9520  222.4020 C   0  0  0  0  0  0  0  0  0  0  0  0
  141.6880   78.3510  221.6200 C   0  0  0  0  0  0  0  0  0  0  0  0
  142.3830   79.5220  221.9610 C   0  0  0  0  0  0  0  0  0  0  0  0
  142.2150   77.4880  220.4940 C   0  0  0  0  0  0  0  0  0  0  0  0
  141.1730   76.4850  219.9920 C   0  0  0  0  0  0  0  0  0  0  0  0
  140.5260   75.8490  221.1420 N   0  0  0  0  0  0  0  0  0  0  0  0
  140.6660   74.4400  221.4040 C   0  0  0  0  0  0  0  0  0  0  0  0
  139.8040   73.8150  222.2440 N   0  0  0  0  0  0  0  0  0  0  0  0
  139.9220   72.4880  222.5000 C   0  0  0  0  0  0  0  0  0  0  0  0
  139.0140   71.8420  223.4010 N   0  0  0  0  0  0  0  0  0  0  0  0
  139.4820   71.0920  224.5660 C   0  0  0  0  0  0  0  0  0  0  0  0
  140.7200   71.7660  225.1780 C   0  0  0  0  0  0  0  0  0  0  0  0
  141.3650   70.9170  226.2980 C   0  0  0  0  0  0  0  0  0  0  0  0
  140.7730   69.4860  226.3360 C   0  0  0  0  0  0  0  0  0  0  0  0
  140.7740   68.9300  227.7670 C   0  0  0  0  0  0  0  0  0  0  0  0
  139.9700   69.6840  228.6670 O   0  0  0  0  0  0  0  0  0  0  0  0
  139.9670   71.0870  228.4150 C   0  0  0  0  0  0  0  0  0  0  0  0
  141.2130   71.6080  227.6740 C   0  0  0  0  0  0  0  0  0  0  0  0
  140.9050   71.7740  221.8970 N   0  0  0  0  0  0  0  0  0  0  0  0
  141.7790   72.3910  221.0550 C   0  0  0  0  0  0  0  0  0  0  0  0
  142.8800   71.6100  220.3900 C   0  0  1  0  0  0  0  0  0  0  0  0
  142.6190   71.4070  218.8780 C   0  0  0  0  0  0  0  0  0  0  0  0
  143.6690   72.2360  218.1150 C   0  0  0  0  0  0  0  0  0  0  0  0
  144.6020   72.6930  219.1710 C   0  0  0  0  0  0  0  0  0  0  0  0
  145.7890   73.4060  218.9850 C   0  0  0  0  0  0  0  0  0  0  0  0
  146.5400   73.7710  220.1110 C   0  0  0  0  0  0  0  0  0  0  0  0
  146.0960   73.4240  221.4000 C   0  0  0  0  0  0  0  0  0  0  0  0
  144.8960   72.7160  221.5640 C   0  0  0  0  0  0  0  0  0  0  0  0
  144.1620   72.3600  220.4290 C   0  0  0  0  0  0  0  0  0  0  0  0
  141.6580   73.7220  220.8160 N   0  0  0  0  0  0  0  0  0  0  0  0
  139.7730   76.7250  222.0490 C   0  0  0  0  0  0  0  0  0  0  0  0
  142.5102   81.2270  223.2957 H   0  0  0  0  0  0  0  0  0  0  0  0
  140.5311   80.5383  224.6491 H   0  0  0  0  0  0  0  0  0  0  0  0
  139.2844   78.4587  224.0722 H   0  0  0  0  0  0  0  0  0  0  0  0
  143.2625   79.8255  221.3742 H   0  0  0  0  0  0  0  0  0  0  0  0
  142.5102   78.1392  219.6580 H   0  0  0  0  0  0  0  0  0  0  0  0
  143.0716   76.9168  220.8813 H   0  0  0  0  0  0  0  0  0  0  0  0
  140.4178   77.0096  219.3883 H   0  0  0  0  0  0  0  0  0  0  0  0
  141.6640   75.7195  219.3732 H   0  0  0  0  0  0  0  0  0  0  0  0
  137.9840   71.9610  223.2560 H   0  0  0  0  0  0  0  0  0  0  0  0
  138.6806   71.0551  225.3186 H   0  0  0  0  0  0  0  0  0  0  0  0
  139.7514   70.0737  224.2489 H   0  0  0  0  0  0  0  0  0  0  0  0
  141.4639   71.9250  224.3834 H   0  0  0  0  0  0  0  0  0  0  0  0
  140.3954   72.7172  225.6251 H   0  0  0  0  0  0  0  0  0  0  0  0
  142.4380   70.8311  226.0714 H   0  0  0  0  0  0  0  0  0  0  0  0
  139.7391   69.5140  225.9613 H   0  0  0  0  0  0  0  0  0  0  0  0
  141.3931   68.8325  225.7048 H   0  0  0  0  0  0  0  0  0  0  0  0
  140.3937   67.8982  227.7404 H   0  0  0  0  0  0  0  0  0  0  0  0
  141.8094   68.9822  228.1349 H   0  0  0  0  0  0  0  0  0  0  0  0
  139.0818   71.3245  227.8067 H   0  0  0  0  0  0  0  0  0  0  0  0
  139.9599   71.5804  229.3981 H   0  0  0  0  0  0  0  0  0  0  0  0
  141.1151   72.6932  227.5234 H   0  0  0  0  0  0  0  0  0  0  0  0
  142.1027   71.3835  228.2807 H   0  0  0  0  0  0  0  0  0  0  0  0
  142.9201   70.6550  220.9343 H   0  0  0  0  0  0  0  0  0  0  0  0
  142.7190   70.3427  218.6186 H   0  0  0  0  0  0  0  0  0  0  0  0
  141.6013   71.7292  218.6124 H   0  0  0  0  0  0  0  0  0  0  0  0
  144.1925   71.6158  217.3725 H   0  0  0  0  0  0  0  0  0  0  0  0
  143.2231   73.0706  217.5541 H   0  0  0  0  0  0  0  0  0  0  0  0
  146.1279   73.6759  217.9739 H   0  0  0  0  0  0  0  0  0  0  0  0
  147.4790   74.3302  219.9863 H   0  0  0  0  0  0  0  0  0  0  0  0
  146.6906   73.7083  222.2807 H   0  0  0  0  0  0  0  0  0  0  0  0
  144.5388   72.4457  222.5687 H   0  0  0  0  0  0  0  0  0  0  0  0
  138.8390   77.0349  221.5575 H   0  0  0  0  0  0  0  0  0  0  0  0
  139.5548   76.1698  222.9732 H   0  0  0  0  0  0  0  0  0  0  0  0
  1  2  2  0
  2  3  1  0
  3  4  2  0
  4  5  1  0
  5  6  2  0
  5  7  1  0
  7  8  1  0
  8  9  1  0
  9 10  1  0
 10 11  2  0
 11 12  1  0
 12 13  1  0
 13 14  1  0
 14 15  1  0
 15 16  1  0
 16 17  1  0
 17 18  1  0
 18 19  1  0
 19 20  1  0
 20 21  1  0
 12 22  2  0
 22 23  1  0
 23 24  1  0
 24 25  1  0
 25 26  1  0
 26 27  1  0
 27 28  2  0
 28 29  1  0
 29 30  2  0
 30 31  1  0
 31 32  2  0
 23 33  2  0
  9 34  1  0
  6  1  1  0
 33 10  1  0
 34  4  1  0
 21 16  1  0
 32 24  1  0
 32 27  1  0
  1 35  1  0
  2 36  1  0
  3 37  1  0
  6 38  1  0
  7 39  1  0
  7 40  1  0
  8 41  1  0
  8 42  1  0
 13 43  1  0
 14 44  1  0
 14 45  1  0
 15 46  1  0
 15 47  1  0
 16 48  1  0
 17 49  1  0
 17 50  1  0
 18 51  1  0
 18 52  1  0
 20 53  1  0
 20 54  1  0
 21 55  1  0
 21 56  1  0
 24 57  1  1
 25 58  1  0
 25 59  1  0
 26 60  1  0
 26 61  1  0
 28 62  1  0
 29 63  1  0
 30 64  1  0
 31 65  1  0
 34 66  1  0
 34 67  1  0
M  END
>  <UniqueID>  (75) 
497

>  <SMILES>  (75) 
c1ccc2c(c1)CCN(c1nc(NCCC3CCOCC3)nc([C@H]3CCc4ccccc43)n1)C2

>  <Energy>  (75) 
86.20486451495124

>  <Genealogy>  (75) 
c1ccc2c(c1)CCN(c1nc(NCCC3CCOCC3)nc([C@H]3CCc4ccccc43)n1)C2 (chirality)
c1ccc2c(c1)CCN(c1nc(NCCC3CCOCC3)nc([C@H]3CCc4ccccc43)n1)C2 (3D coordinates assigned)
c1ccc2c(c1)CCN(c1nc(NCCC3CCOCC3)nc([C@H]3CCc4ccccc43)n1)C2 (nonaromatic ring conformer: 86.20486451495124 kcal/mol)

>  <smiles>  (75) 
c1ccc2c(c1)CCN(c1nc(NCCC3CCOCC3)nc(C3CCc4ccccc43)n1)C2

>  <score_type>  (75) 
oracle

>  <origin>  (75) 
autodockgpu

>  <m_score__min__energy>  (75) 
-10.26

>  <m_primary>  (75) 
energy

>  <meeko>  (75) 
{"free_energy": -9.7, "intermolecular_energy": -11.49, "internal_energy": -1.46, "cluster_size": 7, "cluster_id": 1, "rank_in_cluster": 6}

>  <energy>  (75) 
-9.05

>  <cluster_rmsd>  (75) 
0.16

>  <rmsd>  (75) 
270.24

>  <cluster>  (75) 
4

$$$$
AOEMPDNDYKTPOZ-MVXFCSEMNA-N
     RDKit          3D

 67 72  0  0  0  0  0  0  0  0999 V2000
  139.8040   69.3550  226.6460 C   0  0  0  0  0  0  0  0  0  0  0  0
  141.0850   69.8830  226.4760 C   0  0  0  0  0  0  0  0  0  0  0  0
  141.3620   70.7110  225.3870 C   0  0  0  0  0  0  0  0  0  0  0  0
  140.3540   71.0290  224.4620 C   0  0  0  0  0  0  0  0  0  0  0  0
  139.0590   70.4790  224.6210 C   0  0  0  0  0  0  0  0  0  0  0  0
  138.7930   69.6550  225.7270 C   0  0  0  0  0  0  0  0  0  0  0  0
  137.9230   70.8440  223.6910 C   0  0  0  0  0  0  0  0  0  0  0  0
  138.4210   71.4050  222.3560 C   0  0  0  0  0  0  0  0  0  0  0  0
  139.4820   72.3810  222.6120 N   0  0  0  0  0  0  0  0  0  0  0  0
  139.3220   73.7760  222.2870 C   0  0  0  0  0  0  0  0  0  0  0  0
  138.0900   74.3430  222.3130 N   0  0  0  0  0  0  0  0  0  0  0  0
  137.9230   75.6550  222.0100 C   0  0  0  0  0  0  0  0  0  0  0  0
  136.6150   76.2400  222.0260 N   0  0  0  0  0  0  0  0  0  0  0  0
  135.4450   75.5350  221.5050 C   0  0  0  0  0  0  0  0  0  0  0  0
  134.4520   75.2300  222.6370 C   0  0  0  0  0  0  0  0  0  0  0  0
  135.0800   74.3800  223.7650 C   0  0  0  0  0  0  0  0  0  0  0  0
  134.1640   73.1920  224.1550 C   0  0  0  0  0  0  0  0  0  0  0  0
  134.3250   72.8420  225.6420 C   0  0  0  0  0  0  0  0  0  0  0  0
  133.9460   73.8990  226.5150 O   0  0  0  0  0  0  0  0  0  0  0  0
  134.2470   75.2020  226.0230 C   0  0  0  0  0  0  0  0  0  0  0  0
  135.4000   75.2520  225.0030 C   0  0  0  0  0  0  0  0  0  0  0  0
  139.0030   76.4110  221.6910 N   0  0  0  0  0  0  0  0  0  0  0  0
  140.2440   75.8520  221.6570 C   0  0  0  0  0  0  0  0  0  0  0  0
  141.4450   76.6800  221.2930 C   0  0  1  0  0  0  0  0  0  0  0  0
  141.4500   77.0750  219.7960 C   0  0  0  0  0  0  0  0  0  0  0  0
  141.2230   78.5970  219.7220 C   0  0  0  0  0  0  0  0  0  0  0  0
  141.3160   79.0430  221.1320 C   0  0  0  0  0  0  0  0  0  0  0  0
  141.2760   80.3600  221.5940 C   0  0  0  0  0  0  0  0  0  0  0  0
  141.3620   80.5930  222.9740 C   0  0  0  0  0  0  0  0  0  0  0  0
  141.4830   79.5130  223.8680 C   0  0  0  0  0  0  0  0  0  0  0  0
  141.5110   78.1970  223.3810 C   0  0  0  0  0  0  0  0  0  0  0  0
  141.4260   77.9860  222.0020 C   0  0  0  0  0  0  0  0  0  0  0  0
  140.3960   74.5350  221.9510 N   0  0  0  0  0  0  0  0  0  0  0  0
  140.6980   71.8840  223.2680 C   0  0  0  0  0  0  0  0  0  0  0  0
  139.5891   68.7016  227.5045 H   0  0  0  0  0  0  0  0  0  0  0  0
  141.8773   69.6462  227.2014 H   0  0  0  0  0  0  0  0  0  0  0  0
  142.3755   71.1168  225.2524 H   0  0  0  0  0  0  0  0  0  0  0  0
  137.7833   69.2430  225.8714 H   0  0  0  0  0  0  0  0  0  0  0  0
  137.3236   69.9428  223.4943 H   0  0  0  0  0  0  0  0  0  0  0  0
  137.3247   71.6257  224.1819 H   0  0  0  0  0  0  0  0  0  0  0  0
  138.8156   70.5861  221.7366 H   0  0  0  0  0  0  0  0  0  0  0  0
  137.5895   71.8922  221.8257 H   0  0  0  0  0  0  0  0  0  0  0  0
  136.4820   77.1740  222.4800 H   0  0  0  0  0  0  0  0  0  0  0  0
  134.9507   76.1632  220.7494 H   0  0  0  0  0  0  0  0  0  0  0  0
  135.7728   74.5866  221.0543 H   0  0  0  0  0  0  0  0  0  0  0  0
  134.1028   76.1812  223.0652 H   0  0  0  0  0  0  0  0  0  0  0  0
  133.6223   74.6507  222.2056 H   0  0  0  0  0  0  0  0  0  0  0  0
  136.0239   73.9658  223.3808 H   0  0  0  0  0  0  0  0  0  0  0  0
  133.1165   73.4658  223.9607 H   0  0  0  0  0  0  0  0  0  0  0  0
  134.4494   72.3157  223.5544 H   0  0  0  0  0  0  0  0  0  0  0  0
  133.6989   71.9652  225.8637 H   0  0  0  0  0  0  0  0  0  0  0  0
  135.3931   72.6445  225.8155 H   0  0  0  0  0  0  0  0  0  0  0  0
  133.3439   75.6033  225.5399 H   0  0  0  0  0  0  0  0  0  0  0  0
  134.5723   75.7952  226.8904 H   0  0  0  0  0  0  0  0  0  0  0  0
  135.5512   76.2929  224.6811 H   0  0  0  0  0  0  0  0  0  0  0  0
  136.3102   74.8620  225.4819 H   0  0  0  0  0  0  0  0  0  0  0  0
  142.3108   76.0554  221.5583 H   0  0  0  0  0  0  0  0  0  0  0  0
  142.4179   76.8164  219.3419 H   0  0  0  0  0  0  0  0  0  0  0  0
  140.6617   76.5370  219.2491 H   0  0  0  0  0  0  0  0  0  0  0  0
  141.9983   79.0784  219.1078 H   0  0  0  0  0  0  0  0  0  0  0  0
  140.2608   78.8592  219.2579 H   0  0  0  0  0  0  0  0  0  0  0  0
  141.1789   81.1987  220.8889 H   0  0  0  0  0  0  0  0  0  0  0  0
  141.3348   81.6231  223.3589 H   0  0  0  0  0  0  0  0  0  0  0  0
  141.5557   79.7004  224.9495 H   0  0  0  0  0  0  0  0  0  0  0  0
  141.5984   77.3462  224.0728 H   0  0  0  0  0  0  0  0  0  0  0  0
  141.2752   71.2837  222.5494 H   0  0  0  0  0  0  0  0  0  0  0  0
  141.2895   72.7456  223.6113 H   0  0  0  0  0  0  0  0  0  0  0  0
  1  2  2  0
  2  3  1  0
  3  4  2  0
  4  5  1  0
  5  6  2  0
  5  7  1  0
  7  8  1  0
  8  9  1  0
  9 10  1  0
 10 11  2  0
 11 12  1  0
 12 13  1  0
 13 14  1  0
 14 15  1  0
 15 16  1  0
 16 17  1  0
 17 18  1  0
 18 19  1  0
 19 20  1  0
 20 21  1  0
 12 22  2  0
 22 23  1  0
 23 24  1  0
 24 25  1  0
 25 26  1  0
 26 27  1  0
 27 28  2  0
 28 29  1  0
 29 30  2  0
 30 31  1  0
 31 32  2  0
 23 33  2  0
  9 34  1  0
  6  1  1  0
 33 10  1  0
 34  4  1  0
 21 16  1  0
 32 24  1  0
 32 27  1  0
  1 35  1  0
  2 36  1  0
  3 37  1  0
  6 38  1  0
  7 39  1  0
  7 40  1  0
  8 41  1  0
  8 42  1  0
 13 43  1  0
 14 44  1  0
 14 45  1  0
 15 46  1  0
 15 47  1  0
 16 48  1  0
 17 49  1  0
 17 50  1  0
 18 51  1  0
 18 52  1  0
 20 53  1  0
 20 54  1  0
 21 55  1  0
 21 56  1  0
 24 57  1  1
 25 58  1  0
 25 59  1  0
 26 60  1  0
 26 61  1  0
 28 62  1  0
 29 63  1  0
 30 64  1  0
 31 65  1  0
 34 66  1  0
 34 67  1  0
M  END
>  <UniqueID>  (76) 
497

>  <SMILES>  (76) 
c1ccc2c(c1)CCN(c1nc(NCCC3CCOCC3)nc([C@H]3CCc4ccccc43)n1)C2

>  <Energy>  (76) 
86.20486451495124

>  <Genealogy>  (76) 
c1ccc2c(c1)CCN(c1nc(NCCC3CCOCC3)nc([C@H]3CCc4ccccc43)n1)C2 (chirality)
c1ccc2c(c1)CCN(c1nc(NCCC3CCOCC3)nc([C@H]3CCc4ccccc43)n1)C2 (3D coordinates assigned)
c1ccc2c(c1)CCN(c1nc(NCCC3CCOCC3)nc([C@H]3CCc4ccccc43)n1)C2 (nonaromatic ring conformer: 86.20486451495124 kcal/mol)

>  <smiles>  (76) 
c1ccc2c(c1)CCN(c1nc(NCCC3CCOCC3)nc(C3CCc4ccccc43)n1)C2

>  <score_type>  (76) 
oracle

>  <origin>  (76) 
autodockgpu

>  <m_score__min__energy>  (76) 
-10.26

>  <m_primary>  (76) 
energy

>  <meeko>  (76) 
{"free_energy": -8.81, "intermolecular_energy": -10.6, "internal_energy": -1.6, "cluster_size": 1, "cluster_id": 7, "rank_in_cluster": 1}

>  <energy>  (76) 
-9.03

>  <cluster_rmsd>  (76) 
0.08

>  <rmsd>  (76) 
270.19

>  <cluster>  (76) 
4

$$$$
AOEMPDNDYKTPOZ-MVXFCSEMNA-N
     RDKit          3D

 67 72  0  0  0  0  0  0  0  0999 V2000
  139.5690   69.1480  227.7670 C   0  0  0  0  0  0  0  0  0  0  0  0
  140.7200   69.9320  227.8650 C   0  0  0  0  0  0  0  0  0  0  0  0
  141.1890   70.6280  226.7500 C   0  0  0  0  0  0  0  0  0  0  0  0
  140.5030   70.5570  225.5270 C   0  0  0  0  0  0  0  0  0  0  0  0
  139.3470   69.7470  225.4190 C   0  0  0  0  0  0  0  0  0  0  0  0
  138.8810   69.0590  226.5520 C   0  0  0  0  0  0  0  0  0  0  0  0
  138.5350   69.6900  224.1430 C   0  0  0  0  0  0  0  0  0  0  0  0
  139.3380   70.1460  222.9220 C   0  0  0  0  0  0  0  0  0  0  0  0
  140.0650   71.3720  223.2560 N   0  0  0  0  0  0  0  0  0  0  0  0
  139.7780   72.6230  222.6040 C   0  0  0  0  0  0  0  0  0  0  0  0
  140.7900   73.4440  222.2290 N   0  0  0  0  0  0  0  0  0  0  0  0
  140.5360   74.6260  221.6130 C   0  0  0  0  0  0  0  0  0  0  0  0
  141.6130   75.4910  221.2360 N   0  0  0  0  0  0  0  0  0  0  0  0
  142.4450   75.2270  220.0630 C   0  0  0  0  0  0  0  0  0  0  0  0
  142.3600   73.7450  219.6660 C   0  0  0  0  0  0  0  0  0  0  0  0
  143.4930   72.8970  220.2900 C   0  0  0  0  0  0  0  0  0  0  0  0
  144.6770   73.7860  220.7470 C   0  0  0  0  0  0  0  0  0  0  0  0
  146.0080   73.0280  220.6290 C   0  0  0  0  0  0  0  0  0  0  0  0
  146.3260   72.6510  219.2950 O   0  0  0  0  0  0  0  0  0  0  0  0
  145.1970   72.2970  218.5010 C   0  0  0  0  0  0  0  0  0  0  0  0
  143.9770   71.8080  219.3030 C   0  0  0  0  0  0  0  0  0  0  0  0
  139.2530   74.9840  221.3560 N   0  0  0  0  0  0  0  0  0  0  0  0
  138.2270   74.1710  221.7300 C   0  0  0  0  0  0  0  0  0  0  0  0
  136.8010   74.5640  221.4600 C   0  0  1  0  0  0  0  0  0  0  0  0
  136.0420   73.4850  220.6500 C   0  0  0  0  0  0  0  0  0  0  0  0
  134.9830   72.8700  221.5840 C   0  0  0  0  0  0  0  0  0  0  0  0
  135.0170   73.7370  222.7850 C   0  0  0  0  0  0  0  0  0  0  0  0
  134.1710   73.6600  223.8940 C   0  0  0  0  0  0  0  0  0  0  0  0
  134.3640   74.5590  224.9520 C   0  0  0  0  0  0  0  0  0  0  0  0
  135.3930   75.5160  224.8900 C   0  0  0  0  0  0  0  0  0  0  0  0
  136.2370   75.5690  223.7700 C   0  0  0  0  0  0  0  0  0  0  0  0
  136.0280   74.6650  222.7240 C   0  0  0  0  0  0  0  0  0  0  0  0
  138.4950   72.9960  222.3570 N   0  0  0  0  0  0  0  0  0  0  0  0
  141.0650   71.2800  224.3280 C   0  0  0  0  0  0  0  0  0  0  0  0
  139.2023   68.5991  228.6469 H   0  0  0  0  0  0  0  0  0  0  0  0
  141.2578   70.0012  228.8221 H   0  0  0  0  0  0  0  0  0  0  0  0
  142.1021   71.2362  226.8298 H   0  0  0  0  0  0  0  0  0  0  0  0
  137.9697   68.4467  226.4833 H   0  0  0  0  0  0  0  0  0  0  0  0
  138.2030   68.6539  223.9811 H   0  0  0  0  0  0  0  0  0  0  0  0
  137.6802   70.3728  224.2575 H   0  0  0  0  0  0  0  0  0  0  0  0
  140.0529   69.3601  222.6371 H   0  0  0  0  0  0  0  0  0  0  0  0
  138.6556   70.3379  222.0809 H   0  0  0  0  0  0  0  0  0  0  0  0
  141.7710   76.3720  221.7800 H   0  0  0  0  0  0  0  0  0  0  0  0
  142.0957   75.8471  219.2243 H   0  0  0  0  0  0  0  0  0  0  0  0
  143.4898   75.4712  220.3054 H   0  0  0  0  0  0  0  0  0  0  0  0
  141.3929   73.3445  220.0041 H   0  0  0  0  0  0  0  0  0  0  0  0
  142.4630   73.6863  218.5724 H   0  0  0  0  0  0  0  0  0  0  0  0
  143.0823   72.3982  221.1802 H   0  0  0  0  0  0  0  0  0  0  0  0
  144.7173   74.6853  220.1149 H   0  0  0  0  0  0  0  0  0  0  0  0
  144.5224   74.0637  221.8001 H   0  0  0  0  0  0  0  0  0  0  0  0
  146.8125   73.6742  221.0101 H   0  0  0  0  0  0  0  0  0  0  0  0
  145.9075   72.1016  221.2135 H   0  0  0  0  0  0  0  0  0  0  0  0
  144.8944   73.1815  217.9213 H   0  0  0  0  0  0  0  0  0  0  0  0
  145.5126   71.4539  217.8688 H   0  0  0  0  0  0  0  0  0  0  0  0
  143.1614   71.5654  218.6059 H   0  0  0  0  0  0  0  0  0  0  0  0
  144.2685   70.9167  219.8780 H   0  0  0  0  0  0  0  0  0  0  0  0
  136.8679   75.5179  220.9163 H   0  0  0  0  0  0  0  0  0  0  0  0
  135.5534   73.9437  219.7777 H   0  0  0  0  0  0  0  0  0  0  0  0
  136.7354   72.7125  220.2861 H   0  0  0  0  0  0  0  0  0  0  0  0
  133.9884   72.8910  221.1147 H   0  0  0  0  0  0  0  0  0  0  0  0
  135.1867   71.8146  221.8180 H   0  0  0  0  0  0  0  0  0  0  0  0
  133.3689   72.9084  223.9362 H   0  0  0  0  0  0  0  0  0  0  0  0
  133.7082   74.5159  225.8341 H   0  0  0  0  0  0  0  0  0  0  0  0
  135.5363   76.2234  225.7201 H   0  0  0  0  0  0  0  0  0  0  0  0
  137.0490   76.3090  223.7160 H   0  0  0  0  0  0  0  0  0  0  0  0
  141.9430   70.7318  223.9556 H   0  0  0  0  0  0  0  0  0  0  0  0
  141.3489   72.2982  224.6325 H   0  0  0  0  0  0  0  0  0  0  0  0
  1  2  2  0
  2  3  1  0
  3  4  2  0
  4  5  1  0
  5  6  2  0
  5  7  1  0
  7  8  1  0
  8  9  1  0
  9 10  1  0
 10 11  2  0
 11 12  1  0
 12 13  1  0
 13 14  1  0
 14 15  1  0
 15 16  1  0
 16 17  1  0
 17 18  1  0
 18 19  1  0
 19 20  1  0
 20 21  1  0
 12 22  2  0
 22 23  1  0
 23 24  1  0
 24 25  1  0
 25 26  1  0
 26 27  1  0
 27 28  2  0
 28 29  1  0
 29 30  2  0
 30 31  1  0
 31 32  2  0
 23 33  2  0
  9 34  1  0
  6  1  1  0
 33 10  1  0
 34  4  1  0
 21 16  1  0
 32 24  1  0
 32 27  1  0
  1 35  1  0
  2 36  1  0
  3 37  1  0
  6 38  1  0
  7 39  1  0
  7 40  1  0
  8 41  1  0
  8 42  1  0
 13 43  1  0
 14 44  1  0
 14 45  1  0
 15 46  1  0
 15 47  1  0
 16 48  1  0
 17 49  1  0
 17 50  1  0
 18 51  1  0
 18 52  1  0
 20 53  1  0
 20 54  1  0
 21 55  1  0
 21 56  1  0
 24 57  1  6
 25 58  1  0
 25 59  1  0
 26 60  1  0
 26 61  1  0
 28 62  1  0
 29 63  1  0
 30 64  1  0
 31 65  1  0
 34 66  1  0
 34 67  1  0
M  END
>  <UniqueID>  (77) 
497

>  <SMILES>  (77) 
c1ccc2c(c1)CCN(c1nc(NCCC3CCOCC3)nc([C@H]3CCc4ccccc43)n1)C2

>  <Energy>  (77) 
86.20486451495124

>  <Genealogy>  (77) 
c1ccc2c(c1)CCN(c1nc(NCCC3CCOCC3)nc([C@H]3CCc4ccccc43)n1)C2 (chirality)
c1ccc2c(c1)CCN(c1nc(NCCC3CCOCC3)nc([C@H]3CCc4ccccc43)n1)C2 (3D coordinates assigned)
c1ccc2c(c1)CCN(c1nc(NCCC3CCOCC3)nc([C@H]3CCc4ccccc43)n1)C2 (nonaromatic ring conformer: 86.20486451495124 kcal/mol)

>  <smiles>  (77) 
c1ccc2c(c1)CCN(c1nc(NCCC3CCOCC3)nc(C3CCc4ccccc43)n1)C2

>  <score_type>  (77) 
oracle

>  <origin>  (77) 
autodockgpu

>  <m_score__min__energy>  (77) 
-10.26

>  <m_primary>  (77) 
energy

>  <meeko>  (77) 
{"free_energy": -8.81, "intermolecular_energy": -10.6, "internal_energy": -1.56, "cluster_size": 2, "cluster_id": 5, "rank_in_cluster": 2}

>  <energy>  (77) 
-9.0

>  <cluster_rmsd>  (77) 
0.0

>  <rmsd>  (77) 
270.66

>  <cluster>  (77) 
5

$$$$
AOEMPDNDYKTPOZ-MVXFCSEMNA-N
     RDKit          3D

 67 72  0  0  0  0  0  0  0  0999 V2000
  145.6060   66.9840  219.1800 C   0  0  0  0  0  0  0  0  0  0  0  0
  146.2430   68.2110  218.9900 C   0  0  0  0  0  0  0  0  0  0  0  0
  145.4970   69.3920  218.9800 C   0  0  0  0  0  0  0  0  0  0  0  0
  144.1070   69.3570  219.1730 C   0  0  0  0  0  0  0  0  0  0  0  0
  143.4560   68.1110  219.3460 C   0  0  0  0  0  0  0  0  0  0  0  0
  144.2200   66.9330  219.3630 C   0  0  0  0  0  0  0  0  0  0  0  0
  141.9710   68.0250  219.6240 C   0  0  0  0  0  0  0  0  0  0  0  0
  141.2250   69.2920  219.1980 C   0  0  0  0  0  0  0  0  0  0  0  0
  141.9730   70.4650  219.6520 N   0  0  0  0  0  0  0  0  0  0  0  0
  141.4340   71.3740  220.6320 C   0  0  0  0  0  0  0  0  0  0  0  0
  141.7840   72.6840  220.6100 N   0  0  0  0  0  0  0  0  0  0  0  0
  141.2840   73.5520  221.5250 C   0  0  0  0  0  0  0  0  0  0  0  0
  141.6730   74.9310  221.5010 N   0  0  0  0  0  0  0  0  0  0  0  0
  141.7480   75.6930  220.2560 C   0  0  0  0  0  0  0  0  0  0  0  0
  142.1890   74.7860  219.0960 C   0  0  0  0  0  0  0  0  0  0  0  0
  143.7070   74.8720  218.8180 C   0  0  0  0  0  0  0  0  0  0  0  0
  144.1350   73.8870  217.7010 C   0  0  0  0  0  0  0  0  0  0  0  0
  145.5710   73.3930  217.9270 C   0  0  0  0  0  0  0  0  0  0  0  0
  145.7350   72.6670  219.1390 O   0  0  0  0  0  0  0  0  0  0  0  0
  144.9350   73.1420  220.2190 C   0  0  0  0  0  0  0  0  0  0  0  0
  144.5220   74.6210  220.1090 C   0  0  0  0  0  0  0  0  0  0  0  0
  140.4130   73.1070  222.4640 N   0  0  0  0  0  0  0  0  0  0  0  0
  140.0570   71.7930  222.4990 C   0  0  0  0  0  0  0  0  0  0  0  0
  139.1000   71.2880  223.5440 C   0  0  1  0  0  0  0  0  0  0  0  0
  138.3690   70.0010  223.0910 C   0  0  0  0  0  0  0  0  0  0  0  0
  138.8810   68.8460  223.9730 C   0  0  0  0  0  0  0  0  0  0  0  0
  139.6930   69.5220  225.0120 C   0  0  0  0  0  0  0  0  0  0  0  0
  140.3020   68.9210  226.1170 C   0  0  0  0  0  0  0  0  0  0  0  0
  141.0510   69.7210  226.9910 C   0  0  0  0  0  0  0  0  0  0  0  0
  141.1820   71.1010  226.7510 C   0  0  0  0  0  0  0  0  0  0  0  0
  140.5700   71.6820  225.6300 C   0  0  0  0  0  0  0  0  0  0  0  0
  139.8260   70.8670  224.7710 C   0  0  0  0  0  0  0  0  0  0  0  0
  140.5730   70.9320  221.5850 N   0  0  0  0  0  0  0  0  0  0  0  0
  143.3240   70.6440  219.1050 C   0  0  0  0  0  0  0  0  0  0  0  0
  146.1949   66.0550  219.1859 H   0  0  0  0  0  0  0  0  0  0  0  0
  147.3332   68.2482  218.8480 H   0  0  0  0  0  0  0  0  0  0  0  0
  146.0022   70.3559  218.8198 H   0  0  0  0  0  0  0  0  0  0  0  0
  143.7253   65.9634  219.5213 H   0  0  0  0  0  0  0  0  0  0  0  0
  141.5569   67.1684  219.0719 H   0  0  0  0  0  0  0  0  0  0  0  0
  141.8386   67.9059  220.7095 H   0  0  0  0  0  0  0  0  0  0  0  0
  141.1342   69.3148  218.1020 H   0  0  0  0  0  0  0  0  0  0  0  0
  140.2201   69.2979  219.6454 H   0  0  0  0  0  0  0  0  0  0  0  0
  141.8480   75.4250  222.4080 H   0  0  0  0  0  0  0  0  0  0  0  0
  140.7577   76.1148  220.0295 H   0  0  0  0  0  0  0  0  0  0  0  0
  142.4853   76.5004  220.3767 H   0  0  0  0  0  0  0  0  0  0  0  0
  141.9351   73.7454  219.3463 H   0  0  0  0  0  0  0  0  0  0  0  0
  141.6648   75.1250  218.1903 H   0  0  0  0  0  0  0  0  0  0  0  0
  143.9212   75.8923  218.4672 H   0  0  0  0  0  0  0  0  0  0  0  0
  143.4530   73.0239  217.7011 H   0  0  0  0  0  0  0  0  0  0  0  0
  144.0915   74.4109  216.7347 H   0  0  0  0  0  0  0  0  0  0  0  0
  145.8506   72.7386  217.0882 H   0  0  0  0  0  0  0  0  0  0  0  0
  146.2138   74.2832  217.9925 H   0  0  0  0  0  0  0  0  0  0  0  0
  144.0202   72.5327  220.2621 H   0  0  0  0  0  0  0  0  0  0  0  0
  145.5529   73.0576  221.1251 H   0  0  0  0  0  0  0  0  0  0  0  0
  143.9072   74.8891  220.9809 H   0  0  0  0  0  0  0  0  0  0  0  0
  145.4318   75.2385  220.0760 H   0  0  0  0  0  0  0  0  0  0  0  0
  138.4026   72.1208  223.7172 H   0  0  0  0  0  0  0  0  0  0  0  0
  137.2831   70.1200  223.2203 H   0  0  0  0  0  0  0  0  0  0  0  0
  138.5665   69.7955  222.0286 H   0  0  0  0  0  0  0  0  0  0  0  0
  138.0416   68.2989  224.4271 H   0  0  0  0  0  0  0  0  0  0  0  0
  139.4564   68.1012  223.4037 H   0  0  0  0  0  0  0  0  0  0  0  0
  140.1956   67.8411  226.2974 H   0  0  0  0  0  0  0  0  0  0  0  0
  141.5379   69.2683  227.8673 H   0  0  0  0  0  0  0  0  0  0  0  0
  141.7653   71.7257  227.4435 H   0  0  0  0  0  0  0  0  0  0  0  0
  140.6735   72.7588  225.4305 H   0  0  0  0  0  0  0  0  0  0  0  0
  143.2481   70.9643  218.0554 H   0  0  0  0  0  0  0  0  0  0  0  0
  143.8469   71.4055  219.7022 H   0  0  0  0  0  0  0  0  0  0  0  0
  1  2  2  0
  2  3  1  0
  3  4  2  0
  4  5  1  0
  5  6  2  0
  5  7  1  0
  7  8  1  0
  8  9  1  0
  9 10  1  0
 10 11  2  0
 11 12  1  0
 12 13  1  0
 13 14  1  0
 14 15  1  0
 15 16  1  0
 16 17  1  0
 17 18  1  0
 18 19  1  0
 19 20  1  0
 20 21  1  0
 12 22  2  0
 22 23  1  0
 23 24  1  0
 24 25  1  0
 25 26  1  0
 26 27  1  0
 27 28  2  0
 28 29  1  0
 29 30  2  0
 30 31  1  0
 31 32  2  0
 23 33  2  0
  9 34  1  0
  6  1  1  0
 33 10  1  0
 34  4  1  0
 21 16  1  0
 32 24  1  0
 32 27  1  0
  1 35  1  0
  2 36  1  0
  3 37  1  0
  6 38  1  0
  7 39  1  0
  7 40  1  0
  8 41  1  0
  8 42  1  0
 13 43  1  0
 14 44  1  0
 14 45  1  0
 15 46  1  0
 15 47  1  0
 16 48  1  0
 17 49  1  0
 17 50  1  0
 18 51  1  0
 18 52  1  0
 20 53  1  0
 20 54  1  0
 21 55  1  0
 21 56  1  0
 24 57  1  1
 25 58  1  0
 25 59  1  0
 26 60  1  0
 26 61  1  0
 28 62  1  0
 29 63  1  0
 30 64  1  0
 31 65  1  0
 34 66  1  0
 34 67  1  0
M  END
>  <UniqueID>  (78) 
497

>  <SMILES>  (78) 
c1ccc2c(c1)CCN(c1nc(NCCC3CCOCC3)nc([C@H]3CCc4ccccc43)n1)C2

>  <Energy>  (78) 
86.20486451495124

>  <Genealogy>  (78) 
c1ccc2c(c1)CCN(c1nc(NCCC3CCOCC3)nc([C@H]3CCc4ccccc43)n1)C2 (chirality)
c1ccc2c(c1)CCN(c1nc(NCCC3CCOCC3)nc([C@H]3CCc4ccccc43)n1)C2 (3D coordinates assigned)
c1ccc2c(c1)CCN(c1nc(NCCC3CCOCC3)nc([C@H]3CCc4ccccc43)n1)C2 (nonaromatic ring conformer: 86.20486451495124 kcal/mol)

>  <smiles>  (78) 
c1ccc2c(c1)CCN(c1nc(NCCC3CCOCC3)nc(C3CCc4ccccc43)n1)C2

>  <score_type>  (78) 
oracle

>  <origin>  (78) 
autodockgpu

>  <m_score__min__energy>  (78) 
-10.26

>  <m_primary>  (78) 
energy

>  <meeko>  (78) 
{"free_energy": -9.05, "intermolecular_energy": -10.83, "internal_energy": -1.79, "cluster_size": 3, "cluster_id": 4, "rank_in_cluster": 2}

>  <energy>  (78) 
-8.81

>  <cluster_rmsd>  (78) 
1.04

>  <rmsd>  (78) 
270.52

>  <cluster>  (78) 
5

$$$$
AOEMPDNDYKTPOZ-MVXFCSEMNA-N
     RDKit          3D

 67 72  0  0  0  0  0  0  0  0999 V2000
  145.5120   66.7110  219.2130 C   0  0  0  0  0  0  0  0  0  0  0  0
  146.2070   67.9100  219.0430 C   0  0  0  0  0  0  0  0  0  0  0  0
  145.5160   69.1230  219.0230 C   0  0  0  0  0  0  0  0  0  0  0  0
  144.1210   69.1490  219.1850 C   0  0  0  0  0  0  0  0  0  0  0  0
  143.4110   67.9330  219.3380 C   0  0  0  0  0  0  0  0  0  0  0  0
  144.1220   66.7210  219.3660 C   0  0  0  0  0  0  0  0  0  0  0  0
  141.9180   67.9120  219.5830 C   0  0  0  0  0  0  0  0  0  0  0  0
  141.2390   69.2130  219.1480 C   0  0  0  0  0  0  0  0  0  0  0  0
  142.0290   70.3500  219.6240 N   0  0  0  0  0  0  0  0  0  0  0  0
  141.5100   71.2780  220.5960 C   0  0  0  0  0  0  0  0  0  0  0  0
  141.8970   72.5780  220.5700 N   0  0  0  0  0  0  0  0  0  0  0  0
  141.4160   73.4640  221.4780 C   0  0  0  0  0  0  0  0  0  0  0  0
  141.8440   74.8310  221.4510 N   0  0  0  0  0  0  0  0  0  0  0  0
  141.7650   75.6430  220.2380 C   0  0  0  0  0  0  0  0  0  0  0  0
  142.1870   74.8190  219.0110 C   0  0  0  0  0  0  0  0  0  0  0  0
  143.7100   74.8860  218.7460 C   0  0  0  0  0  0  0  0  0  0  0  0
  144.1300   73.9130  217.6150 C   0  0  0  0  0  0  0  0  0  0  0  0
  145.5560   73.3920  217.8430 C   0  0  0  0  0  0  0  0  0  0  0  0
  145.6980   72.6410  219.0440 O   0  0  0  0  0  0  0  0  0  0  0  0
  144.8970   73.1100  220.1260 C   0  0  0  0  0  0  0  0  0  0  0  0
  144.5090   74.5980  220.0390 C   0  0  0  0  0  0  0  0  0  0  0  0
  140.5260   73.0480  222.4130 N   0  0  0  0  0  0  0  0  0  0  0  0
  140.1330   71.7450  222.4520 C   0  0  0  0  0  0  0  0  0  0  0  0
  139.1560   71.2720  223.4930 C   0  0  1  0  0  0  0  0  0  0  0  0
  138.3790   70.0130  223.0340 C   0  0  0  0  0  0  0  0  0  0  0  0
  138.8470   68.8380  223.9140 C   0  0  0  0  0  0  0  0  0  0  0  0
  139.6790   69.4820  224.9580 C   0  0  0  0  0  0  0  0  0  0  0  0
  140.2630   68.8560  226.0620 C   0  0  0  0  0  0  0  0  0  0  0  0
  141.0370   69.6260  226.9410 C   0  0  0  0  0  0  0  0  0  0  0  0
  141.2200   71.0010  226.7050 C   0  0  0  0  0  0  0  0  0  0  0  0
  140.6320   71.6060  225.5840 C   0  0  0  0  0  0  0  0  0  0  0  0
  139.8620   70.8220  224.7200 C   0  0  0  0  0  0  0  0  0  0  0  0
  140.6300   70.8650  221.5450 N   0  0  0  0  0  0  0  0  0  0  0  0
  143.3990   70.4700  219.1070 C   0  0  0  0  0  0  0  0  0  0  0  0
  146.0589   65.7567  219.2266 H   0  0  0  0  0  0  0  0  0  0  0  0
  147.3006   67.8989  218.9247 H   0  0  0  0  0  0  0  0  0  0  0  0
  146.0674   70.0640  218.8795 H   0  0  0  0  0  0  0  0  0  0  0  0
  143.5814   65.7738  219.5092 H   0  0  0  0  0  0  0  0  0  0  0  0
  141.4785   67.0774  219.0171 H   0  0  0  0  0  0  0  0  0  0  0  0
  141.7564   67.7937  220.6646 H   0  0  0  0  0  0  0  0  0  0  0  0
  141.1729   69.2445  218.0504 H   0  0  0  0  0  0  0  0  0  0  0  0
  140.2261   69.2620  219.5742 H   0  0  0  0  0  0  0  0  0  0  0  0
  142.1650   75.2800  222.3400 H   0  0  0  0  0  0  0  0  0  0  0  0
  140.7304   75.9911  220.1020 H   0  0  0  0  0  0  0  0  0  0  0  0
  142.4437   76.5026  220.3402 H   0  0  0  0  0  0  0  0  0  0  0  0
  141.9039   73.7691  219.1771 H   0  0  0  0  0  0  0  0  0  0  0  0
  141.6766   75.2422  218.1333 H   0  0  0  0  0  0  0  0  0  0  0  0
  143.9448   75.9085  218.4152 H   0  0  0  0  0  0  0  0  0  0  0  0
  143.4341   73.0613  217.5955 H   0  0  0  0  0  0  0  0  0  0  0  0
  144.1019   74.4536  216.6574 H   0  0  0  0  0  0  0  0  0  0  0  0
  145.8320   72.7485  216.9946 H   0  0  0  0  0  0  0  0  0  0  0  0
  146.2128   74.2702  217.9294 H   0  0  0  0  0  0  0  0  0  0  0  0
  143.9720   72.5152  220.1510 H   0  0  0  0  0  0  0  0  0  0  0  0
  145.5060   72.9994  221.0353 H   0  0  0  0  0  0  0  0  0  0  0  0
  143.8909   74.8604  220.9102 H   0  0  0  0  0  0  0  0  0  0  0  0
  145.4291   75.2006  220.0249 H   0  0  0  0  0  0  0  0  0  0  0  0
  138.4891   72.1293  223.6668 H   0  0  0  0  0  0  0  0  0  0  0  0
  137.2979   70.1710  223.1612 H   0  0  0  0  0  0  0  0  0  0  0  0
  138.5709   69.8035  221.9713 H   0  0  0  0  0  0  0  0  0  0  0  0
  137.9874   68.3195  224.3636 H   0  0  0  0  0  0  0  0  0  0  0  0
  139.3977   68.0751  223.3442 H   0  0  0  0  0  0  0  0  0  0  0  0
  140.1182   67.7799  226.2380 H   0  0  0  0  0  0  0  0  0  0  0  0
  141.5030   69.1537  227.8184 H   0  0  0  0  0  0  0  0  0  0  0  0
  141.8246   71.6021  227.4000 H   0  0  0  0  0  0  0  0  0  0  0  0
  140.7745   72.6790  225.3883 H   0  0  0  0  0  0  0  0  0  0  0  0
  143.3605   70.7980  218.0577 H   0  0  0  0  0  0  0  0  0  0  0  0
  143.9427   71.2044  219.7194 H   0  0  0  0  0  0  0  0  0  0  0  0
  1  2  2  0
  2  3  1  0
  3  4  2  0
  4  5  1  0
  5  6  2  0
  5  7  1  0
  7  8  1  0
  8  9  1  0
  9 10  1  0
 10 11  2  0
 11 12  1  0
 12 13  1  0
 13 14  1  0
 14 15  1  0
 15 16  1  0
 16 17  1  0
 17 18  1  0
 18 19  1  0
 19 20  1  0
 20 21  1  0
 12 22  2  0
 22 23  1  0
 23 24  1  0
 24 25  1  0
 25 26  1  0
 26 27  1  0
 27 28  2  0
 28 29  1  0
 29 30  2  0
 30 31  1  0
 31 32  2  0
 23 33  2  0
  9 34  1  0
  6  1  1  0
 33 10  1  0
 34  4  1  0
 21 16  1  0
 32 24  1  0
 32 27  1  0
  1 35  1  0
  2 36  1  0
  3 37  1  0
  6 38  1  0
  7 39  1  0
  7 40  1  0
  8 41  1  0
  8 42  1  0
 13 43  1  0
 14 44  1  0
 14 45  1  0
 15 46  1  0
 15 47  1  0
 16 48  1  0
 17 49  1  0
 17 50  1  0
 18 51  1  0
 18 52  1  0
 20 53  1  0
 20 54  1  0
 21 55  1  0
 21 56  1  0
 24 57  1  1
 25 58  1  0
 25 59  1  0
 26 60  1  0
 26 61  1  0
 28 62  1  0
 29 63  1  0
 30 64  1  0
 31 65  1  0
 34 66  1  0
 34 67  1  0
M  END
>  <UniqueID>  (79) 
497

>  <SMILES>  (79) 
c1ccc2c(c1)CCN(c1nc(NCCC3CCOCC3)nc([C@H]3CCc4ccccc43)n1)C2

>  <Energy>  (79) 
86.20486451495124

>  <Genealogy>  (79) 
c1ccc2c(c1)CCN(c1nc(NCCC3CCOCC3)nc([C@H]3CCc4ccccc43)n1)C2 (chirality)
c1ccc2c(c1)CCN(c1nc(NCCC3CCOCC3)nc([C@H]3CCc4ccccc43)n1)C2 (3D coordinates assigned)
c1ccc2c(c1)CCN(c1nc(NCCC3CCOCC3)nc([C@H]3CCc4ccccc43)n1)C2 (nonaromatic ring conformer: 86.20486451495124 kcal/mol)

>  <smiles>  (79) 
c1ccc2c(c1)CCN(c1nc(NCCC3CCOCC3)nc(C3CCc4ccccc43)n1)C2

>  <score_type>  (79) 
oracle

>  <origin>  (79) 
autodockgpu

>  <m_score__min__energy>  (79) 
-10.26

>  <m_primary>  (79) 
energy

>  <meeko>  (79) 
{"free_energy": -9.06, "intermolecular_energy": -10.85, "internal_energy": -1.9, "cluster_size": 3, "cluster_id": 4, "rank_in_cluster": 1}

>  <energy>  (79) 
-8.96

>  <cluster_rmsd>  (79) 
0.0

>  <rmsd>  (79) 
270.96

>  <cluster>  (79) 
6

$$$$
AOEMPDNDYKTPOZ-MVXFCSEMNA-N
     RDKit          3D

 67 72  0  0  0  0  0  0  0  0999 V2000
  141.7550   80.3300  222.8250 C   0  0  0  0  0  0  0  0  0  0  0  0
  140.6700   79.9170  223.6010 C   0  0  0  0  0  0  0  0  0  0  0  0
  140.0440   78.6980  223.3340 C   0  0  0  0  0  0  0  0  0  0  0  0
  140.5050   77.8740  222.2940 C   0  0  0  0  0  0  0  0  0  0  0  0
  141.5920   78.3000  221.4940 C   0  0  0  0  0  0  0  0  0  0  0  0
  142.2190   79.5240  221.7810 C   0  0  0  0  0  0  0  0  0  0  0  0
  142.1690   77.4200  220.4060 C   0  0  0  0  0  0  0  0  0  0  0  0
  141.1870   76.3370  219.9520 C   0  0  0  0  0  0  0  0  0  0  0  0
  140.5770   75.7180  221.1300 N   0  0  0  0  0  0  0  0  0  0  0  0
  140.7970   74.3310  221.4550 C   0  0  0  0  0  0  0  0  0  0  0  0
  140.0150   73.7160  222.3760 N   0  0  0  0  0  0  0  0  0  0  0  0
  140.2090   72.4110  222.6920 C   0  0  0  0  0  0  0  0  0  0  0  0
  139.3860   71.7750  223.6780 N   0  0  0  0  0  0  0  0  0  0  0  0
  138.9410   70.3900  223.5390 C   0  0  0  0  0  0  0  0  0  0  0  0
  139.7050   69.4790  224.5130 C   0  0  0  0  0  0  0  0  0  0  0  0
  139.4580   69.8520  225.9930 C   0  0  0  0  0  0  0  0  0  0  0  0
  140.4350   70.9570  226.4690 C   0  0  0  0  0  0  0  0  0  0  0  0
  140.7520   70.8020  227.9630 C   0  0  0  0  0  0  0  0  0  0  0  0
  141.4030   69.5770  228.2780 O   0  0  0  0  0  0  0  0  0  0  0  0
  140.9770   68.4680  227.4900 C   0  0  0  0  0  0  0  0  0  0  0  0
  139.5610   68.6050  226.9030 C   0  0  0  0  0  0  0  0  0  0  0  0
  141.1880   71.7090  222.0680 N   0  0  0  0  0  0  0  0  0  0  0  0
  141.9830   72.3170  221.1450 C   0  0  0  0  0  0  0  0  0  0  0  0
  143.0790   71.5510  220.4560 C   0  0  1  0  0  0  0  0  0  0  0  0
  142.7830   71.3350  218.9520 C   0  0  0  0  0  0  0  0  0  0  0  0
  143.8000   72.1780  218.1580 C   0  0  0  0  0  0  0  0  0  0  0  0
  144.7520   72.6550  219.1890 C   0  0  0  0  0  0  0  0  0  0  0  0
  145.9220   73.3850  218.9690 C   0  0  0  0  0  0  0  0  0  0  0  0
  146.6960   73.7670  220.0740 C   0  0  0  0  0  0  0  0  0  0  0  0
  146.2900   73.4200  221.3760 C   0  0  0  0  0  0  0  0  0  0  0  0
  145.1050   72.6950  221.5740 C   0  0  0  0  0  0  0  0  0  0  0  0
  144.3490   72.3210  220.4590 C   0  0  0  0  0  0  0  0  0  0  0  0
  141.7860   73.6270  220.8460 N   0  0  0  0  0  0  0  0  0  0  0  0
  139.7740   76.5880  221.9990 C   0  0  0  0  0  0  0  0  0  0  0  0
  142.2458   81.2917  223.0356 H   0  0  0  0  0  0  0  0  0  0  0  0
  140.3084   80.5523  224.4229 H   0  0  0  0  0  0  0  0  0  0  0  0
  139.1840   78.3807  223.9421 H   0  0  0  0  0  0  0  0  0  0  0  0
  143.0808   79.8504  221.1803 H   0  0  0  0  0  0  0  0  0  0  0  0
  142.4259   78.0494  219.5412 H   0  0  0  0  0  0  0  0  0  0  0  0
  143.0577   76.9177  220.8158 H   0  0  0  0  0  0  0  0  0  0  0  0
  140.4034   76.7893  219.3264 H   0  0  0  0  0  0  0  0  0  0  0  0
  141.7218   75.5737  219.3678 H   0  0  0  0  0  0  0  0  0  0  0  0
  139.1470   72.2980  224.5530 H   0  0  0  0  0  0  0  0  0  0  0  0
  137.8645   70.3319  223.7578 H   0  0  0  0  0  0  0  0  0  0  0  0
  139.1373   70.0547  222.5099 H   0  0  0  0  0  0  0  0  0  0  0  0
  139.3802   68.4404  224.3524 H   0  0  0  0  0  0  0  0  0  0  0  0
  140.7794   69.6034  224.3127 H   0  0  0  0  0  0  0  0  0  0  0  0
  138.4356   70.2509  226.0669 H   0  0  0  0  0  0  0  0  0  0  0  0
  141.3694   70.8839  225.8932 H   0  0  0  0  0  0  0  0  0  0  0  0
  139.9613   71.9370  226.3102 H   0  0  0  0  0  0  0  0  0  0  0  0
  141.4050   71.6327  228.2690 H   0  0  0  0  0  0  0  0  0  0  0  0
  139.7925   70.8077  228.5010 H   0  0  0  0  0  0  0  0  0  0  0  0
  141.6840   68.3482  226.6559 H   0  0  0  0  0  0  0  0  0  0  0  0
  140.9524   67.5985  228.1633 H   0  0  0  0  0  0  0  0  0  0  0  0
  139.3282   67.7074  226.3114 H   0  0  0  0  0  0  0  0  0  0  0  0
  138.8464   68.7153  227.7320 H   0  0  0  0  0  0  0  0  0  0  0  0
  143.1483   70.5997  221.0039 H   0  0  0  0  0  0  0  0  0  0  0  0
  142.8945   70.2711  218.6956 H   0  0  0  0  0  0  0  0  0  0  0  0
  141.7536   71.6383  218.7106 H   0  0  0  0  0  0  0  0  0  0  0  0
  144.3147   71.5630  217.4051 H   0  0  0  0  0  0  0  0  0  0  0  0
  143.3266   73.0025  217.6047 H   0  0  0  0  0  0  0  0  0  0  0  0
  146.2305   73.6552  217.9483 H   0  0  0  0  0  0  0  0  0  0  0  0
  147.6231   74.3394  219.9228 H   0  0  0  0  0  0  0  0  0  0  0  0
  146.9025   73.7176  222.2399 H   0  0  0  0  0  0  0  0  0  0  0  0
  144.7766   72.4256  222.5887 H   0  0  0  0  0  0  0  0  0  0  0  0
  138.8235   76.8208  221.4967 H   0  0  0  0  0  0  0  0  0  0  0  0
  139.5879   76.0631  222.9476 H   0  0  0  0  0  0  0  0  0  0  0  0
  1  2  2  0
  2  3  1  0
  3  4  2  0
  4  5  1  0
  5  6  2  0
  5  7  1  0
  7  8  1  0
  8  9  1  0
  9 10  1  0
 10 11  2  0
 11 12  1  0
 12 13  1  0
 13 14  1  0
 14 15  1  0
 15 16  1  0
 16 17  1  0
 17 18  1  0
 18 19  1  0
 19 20  1  0
 20 21  1  0
 12 22  2  0
 22 23  1  0
 23 24  1  0
 24 25  1  0
 25 26  1  0
 26 27  1  0
 27 28  2  0
 28 29  1  0
 29 30  2  0
 30 31  1  0
 31 32  2  0
 23 33  2  0
  9 34  1  0
  6  1  1  0
 33 10  1  0
 34  4  1  0
 21 16  1  0
 32 24  1  0
 32 27  1  0
  1 35  1  0
  2 36  1  0
  3 37  1  0
  6 38  1  0
  7 39  1  0
  7 40  1  0
  8 41  1  0
  8 42  1  0
 13 43  1  0
 14 44  1  0
 14 45  1  0
 15 46  1  0
 15 47  1  0
 16 48  1  0
 17 49  1  0
 17 50  1  0
 18 51  1  0
 18 52  1  0
 20 53  1  0
 20 54  1  0
 21 55  1  0
 21 56  1  0
 24 57  1  1
 25 58  1  0
 25 59  1  0
 26 60  1  0
 26 61  1  0
 28 62  1  0
 29 63  1  0
 30 64  1  0
 31 65  1  0
 34 66  1  0
 34 67  1  0
M  END
>  <UniqueID>  (80) 
497

>  <SMILES>  (80) 
c1ccc2c(c1)CCN(c1nc(NCCC3CCOCC3)nc([C@H]3CCc4ccccc43)n1)C2

>  <Energy>  (80) 
86.20486451495124

>  <Genealogy>  (80) 
c1ccc2c(c1)CCN(c1nc(NCCC3CCOCC3)nc([C@H]3CCc4ccccc43)n1)C2 (chirality)
c1ccc2c(c1)CCN(c1nc(NCCC3CCOCC3)nc([C@H]3CCc4ccccc43)n1)C2 (3D coordinates assigned)
c1ccc2c(c1)CCN(c1nc(NCCC3CCOCC3)nc([C@H]3CCc4ccccc43)n1)C2 (nonaromatic ring conformer: 86.20486451495124 kcal/mol)

>  <smiles>  (80) 
c1ccc2c(c1)CCN(c1nc(NCCC3CCOCC3)nc(C3CCc4ccccc43)n1)C2

>  <score_type>  (80) 
oracle

>  <origin>  (80) 
autodockgpu

>  <m_score__min__energy>  (80) 
-10.26

>  <m_primary>  (80) 
energy

>  <meeko>  (80) 
{"free_energy": -9.61, "intermolecular_energy": -11.4, "internal_energy": -1.33, "cluster_size": 7, "cluster_id": 1, "rank_in_cluster": 7}

>  <energy>  (80) 
-8.81

>  <cluster_rmsd>  (80) 
0.0

>  <rmsd>  (80) 
270.86

>  <cluster>  (80) 
7

$$$$
