DRTNTVLZUVPGHX-GNVQSUKONA-N
     RDKit          3D

 58 63  0  0  0  0  0  0  0  0999 V2000
  137.8630   74.4670  223.0880 H   0  0  0  0  0  0  0  0  0  0  0  0
  138.2570   73.8840  222.3230 N   0  0  0  0  0  0  0  0  0  0  0  0
  139.4940   73.8430  221.9120 C   0  0  0  0  0  0  0  0  0  0  0  0
  140.1640   75.0730  221.7180 C   0  0  0  0  0  0  0  0  0  0  0  0
  139.5360   76.3750  222.0650 C   0  0  0  0  0  0  0  0  0  0  0  0
  138.5700   76.4010  222.8760 O   0  0  0  0  0  0  0  0  0  0  0  0
  140.0310   77.6090  221.5100 N   0  0  0  0  0  0  0  0  0  0  0  0
  141.4600   77.9350  221.5620 C   0  0  0  0  0  0  0  0  0  0  0  0
  141.8217   78.1397  220.5435 H   0  0  0  0  0  0  0  0  0  0  0  0
  142.0035   77.0817  221.9938 H   0  0  0  0  0  0  0  0  0  0  0  0
  141.6950   79.1490  222.4250 C   0  0  0  0  0  0  0  0  0  0  0  0
  142.9980   79.4410  222.8580 C   0  0  0  0  0  0  0  0  0  0  0  0
  143.8245   78.7629  222.5990 H   0  0  0  0  0  0  0  0  0  0  0  0
  143.2520   80.5860  223.6150 C   0  0  0  0  0  0  0  0  0  0  0  0
  144.2750   80.8029  223.9562 H   0  0  0  0  0  0  0  0  0  0  0  0
  142.2090   81.4570  223.9400 C   0  0  0  0  0  0  0  0  0  0  0  0
  142.4115   82.3568  224.5395 H   0  0  0  0  0  0  0  0  0  0  0  0
  140.9100   81.1870  223.5050 C   0  0  0  0  0  0  0  0  0  0  0  0
  140.0919   81.8728  223.7703 H   0  0  0  0  0  0  0  0  0  0  0  0
  140.6400   80.0460  222.7310 C   0  0  0  0  0  0  0  0  0  0  0  0
  139.2100   79.7500  222.3350 C   0  0  0  0  0  0  0  0  0  0  0  0
  138.7368   80.6831  221.9952 H   0  0  0  0  0  0  0  0  0  0  0  0
  138.6964   79.3359  223.2152 H   0  0  0  0  0  0  0  0  0  0  0  0
  139.1200   78.7160  221.2120 C   0  0  0  0  0  0  0  0  0  0  0  0
  139.4057   79.1822  220.2575 H   0  0  0  0  0  0  0  0  0  0  0  0
  138.0894   78.3392  221.1351 H   0  0  0  0  0  0  0  0  0  0  0  0
  141.4560   75.0720  221.1920 C   0  0  0  0  0  0  0  0  0  0  0  0
  141.9846   76.0245  221.0396 H   0  0  0  0  0  0  0  0  0  0  0  0
  142.0820   73.8710  220.8580 C   0  0  0  0  0  0  0  0  0  0  0  0
  143.3780   73.8360  220.3030 C   0  0  0  0  0  0  0  0  0  0  0  0
  143.9970   74.9190  220.0960 O   0  0  0  0  0  0  0  0  0  0  0  0
  143.9600   72.6330  219.9870 N   0  0  0  0  0  0  0  0  0  0  0  0
  145.2210   72.5840  219.4420 C   0  0  0  0  0  0  0  0  0  0  0  0
  145.7709   73.5191  219.2598 H   0  0  0  0  0  0  0  0  0  0  0  0
  145.8120   71.3620  219.1170 C   0  0  0  0  0  0  0  0  0  0  0  0
  146.8219   71.3339  218.6820 H   0  0  0  0  0  0  0  0  0  0  0  0
  145.1150   70.1790  219.3470 C   0  0  0  0  0  0  0  0  0  0  0  0
  145.5712   69.2107  219.0934 H   0  0  0  0  0  0  0  0  0  0  0  0
  143.8390   70.2270  219.8990 C   0  0  0  0  0  0  0  0  0  0  0  0
  143.2810   69.2973  220.0842 H   0  0  0  0  0  0  0  0  0  0  0  0
  143.2700   71.4640  220.2170 C   0  0  0  0  0  0  0  0  0  0  0  0
  142.0270   71.4980  220.7560 N   0  0  0  0  0  0  0  0  0  0  0  0
  141.4060   72.6610  221.0860 C   0  0  0  0  0  0  0  0  0  0  0  0
  140.1370   72.6470  221.6280 N   0  0  0  0  0  0  0  0  0  0  0  0
  139.5120   71.3250  221.8780 C   0  0  0  0  0  0  0  0  0  0  0  0
  138.4347   71.3904  221.6653 H   0  0  0  0  0  0  0  0  0  0  0  0
  139.9897   70.5819  221.2226 H   0  0  0  0  0  0  0  0  0  0  0  0
  139.7070   70.8970  223.3130 C   0  0  0  0  0  0  0  0  0  0  0  0
  138.9040   69.8820  223.8630 C   0  0  0  0  0  0  0  0  0  0  0  0
  138.1408   69.3908  223.2416 H   0  0  0  0  0  0  0  0  0  0  0  0
  139.0710   69.4940  225.1960 C   0  0  0  0  0  0  0  0  0  0  0  0
  138.4392   68.6995  225.6197 H   0  0  0  0  0  0  0  0  0  0  0  0
  140.0380   70.1130  225.9900 C   0  0  0  0  0  0  0  0  0  0  0  0
  140.1662   69.8083  227.0392 H   0  0  0  0  0  0  0  0  0  0  0  0
  140.8430   71.1200  225.4510 C   0  0  0  0  0  0  0  0  0  0  0  0
  141.6068   71.6054  226.0763 H   0  0  0  0  0  0  0  0  0  0  0  0
  140.6800   71.5120  224.1190 C   0  0  0  0  0  0  0  0  0  0  0  0
  141.3163   72.3055  223.7000 H   0  0  0  0  0  0  0  0  0  0  0  0
  1  2  1  0
  2  3  2  0
  3  4  1  0
  4  5  1  0
  5  6  2  0
  5  7  1  0
  7  8  1  0
  8  9  1  0
  8 10  1  0
  8 11  1  0
 11 12  2  0
 12 13  1  0
 12 14  1  0
 14 15  1  0
 14 16  2  0
 16 17  1  0
 16 18  1  0
 18 19  1  0
 18 20  2  0
 20 21  1  0
 21 22  1  0
 21 23  1  0
 21 24  1  0
 24 25  1  0
 24 26  1  0
  4 27  2  0
 27 28  1  0
 27 29  1  0
 29 30  1  0
 30 31  2  0
 30 32  1  0
 32 33  1  0
 33 34  1  0
 33 35  2  0
 35 36  1  0
 35 37  1  0
 37 38  1  0
 37 39  2  0
 39 40  1  0
 39 41  1  0
 41 42  2  0
 42 43  1  0
 43 44  1  0
 44 45  1  0
 45 46  1  0
 45 47  1  0
 45 48  1  0
 48 49  2  0
 49 50  1  0
 49 51  1  0
 51 52  1  0
 51 53  2  0
 53 54  1  0
 53 55  1  0
 55 56  1  0
 55 57  2  0
 57 58  1  0
 44  3  1  0
 57 48  1  0
 24  7  1  0
 43 29  2  0
 20 11  1  0
 41 32  1  0
M  END
>  <UniqueID>  (1) 
125

>  <SMILES>  (1) 
[H]/N=c1/c(C(=O)N2CCc3ccccc3C2)cc2c(=O)n3ccccc3nc2n1Cc1ccccc1

>  <Energy>  (1) 
93.21232330012761

>  <Genealogy>  (1) 
[H]/N=c1/c(C(=O)N2CCc3ccccc3C2)cc2c(=O)n3ccccc3nc2n1Cc1ccccc1 (cis-trans isomerization)
[H]/N=c1/c(C(=O)N2CCc3ccccc3C2)cc2c(=O)n3ccccc3nc2n1Cc1ccccc1 (3D coordinates assigned)
[H]/N=c1/c(C(=O)N2CCc3ccccc3C2)cc2c(=O)n3ccccc3nc2n1Cc1ccccc1 (nonaromatic ring conformer: 93.21232330012761 kcal/mol)

>  <smiles>  (1) 
N=c1c(C(=O)N2CCc3ccccc3C2)cc2c(=O)n3ccccc3nc2n1Cc1ccccc1

>  <score_type>  (1) 
oracle

>  <origin>  (1) 
autodockgpu

>  <m_score__min__energy>  (1) 
-9.2699999999999996

>  <m_primary>  (1) 
energy

>  <meeko>  (1) 
{"free_energy": -9.27, "intermolecular_energy": -10.76, "internal_energy": -1.38, "cluster_size": 14, "cluster_id": 1, "rank_in_cluster": 4}

>  <energy>  (1) 
-9.27

>  <cluster_rmsd>  (1) 
0.0

>  <rmsd>  (1) 
269.73

>  <cluster>  (1) 
1

$$$$
DRTNTVLZUVPGHX-GNVQSUKONA-N
     RDKit          3D

 58 63  0  0  0  0  0  0  0  0999 V2000
  137.8510   74.4580  223.0960 H   0  0  0  0  0  0  0  0  0  0  0  0
  138.2480   73.8700  222.3360 N   0  0  0  0  0  0  0  0  0  0  0  0
  139.4850   73.8310  221.9260 C   0  0  0  0  0  0  0  0  0  0  0  0
  140.1550   75.0620  221.7390 C   0  0  0  0  0  0  0  0  0  0  0  0
  139.5270   76.3620  222.0920 C   0  0  0  0  0  0  0  0  0  0  0  0
  138.5660   76.3850  222.9090 O   0  0  0  0  0  0  0  0  0  0  0  0
  140.0160   77.5990  221.5370 N   0  0  0  0  0  0  0  0  0  0  0  0
  141.4430   77.9310  221.5890 C   0  0  0  0  0  0  0  0  0  0  0  0
  141.8036   78.1372  220.5704 H   0  0  0  0  0  0  0  0  0  0  0  0
  141.9897   77.0799  222.0211 H   0  0  0  0  0  0  0  0  0  0  0  0
  141.6740   79.1460  222.4520 C   0  0  0  0  0  0  0  0  0  0  0  0
  142.9760   79.4440  222.8840 C   0  0  0  0  0  0  0  0  0  0  0  0
  143.8058   78.7702  222.6243 H   0  0  0  0  0  0  0  0  0  0  0  0
  143.2240   80.5900  223.6410 C   0  0  0  0  0  0  0  0  0  0  0  0
  144.2459   80.8115  223.9824 H   0  0  0  0  0  0  0  0  0  0  0  0
  142.1780   81.4560  223.9660 C   0  0  0  0  0  0  0  0  0  0  0  0
  142.3769   82.3570  224.5649 H   0  0  0  0  0  0  0  0  0  0  0  0
  140.8800   81.1800  223.5320 C   0  0  0  0  0  0  0  0  0  0  0  0
  140.0588   81.8618  223.7981 H   0  0  0  0  0  0  0  0  0  0  0  0
  140.6150   80.0380  222.7580 C   0  0  0  0  0  0  0  0  0  0  0  0
  139.1860   79.7360  222.3630 C   0  0  0  0  0  0  0  0  0  0  0  0
  138.7087   80.6670  222.0232 H   0  0  0  0  0  0  0  0  0  0  0  0
  138.6744   79.3201  223.2435 H   0  0  0  0  0  0  0  0  0  0  0  0
  139.1000   78.7010  221.2400 C   0  0  0  0  0  0  0  0  0  0  0  0
  139.3826   79.1684  220.2852 H   0  0  0  0  0  0  0  0  0  0  0  0
  138.0712   78.3192  221.1643 H   0  0  0  0  0  0  0  0  0  0  0  0
  141.4480   75.0650  221.2140 C   0  0  0  0  0  0  0  0  0  0  0  0
  141.9766   76.0184  221.0674 H   0  0  0  0  0  0  0  0  0  0  0  0
  142.0740   73.8650  220.8740 C   0  0  0  0  0  0  0  0  0  0  0  0
  143.3700   73.8340  220.3200 C   0  0  0  0  0  0  0  0  0  0  0  0
  143.9900   74.9180  220.1190 O   0  0  0  0  0  0  0  0  0  0  0  0
  143.9530   72.6330  219.9970 N   0  0  0  0  0  0  0  0  0  0  0  0
  145.2140   72.5870  219.4530 C   0  0  0  0  0  0  0  0  0  0  0  0
  145.7638   73.5232  219.2762 H   0  0  0  0  0  0  0  0  0  0  0  0
  145.8060   71.3670  219.1220 C   0  0  0  0  0  0  0  0  0  0  0  0
  146.8164   71.3417  218.6879 H   0  0  0  0  0  0  0  0  0  0  0  0
  145.1090   70.1820  219.3450 C   0  0  0  0  0  0  0  0  0  0  0  0
  145.5658   69.2152  219.0868 H   0  0  0  0  0  0  0  0  0  0  0  0
  143.8320   70.2270  219.8960 C   0  0  0  0  0  0  0  0  0  0  0  0
  143.2737   69.2964  220.0755 H   0  0  0  0  0  0  0  0  0  0  0  0
  143.2630   71.4620  220.2200 C   0  0  0  0  0  0  0  0  0  0  0  0
  142.0190   71.4930  220.7590 N   0  0  0  0  0  0  0  0  0  0  0  0
  141.3980   72.6540  221.0950 C   0  0  0  0  0  0  0  0  0  0  0  0
  140.1290   72.6370  221.6360 N   0  0  0  0  0  0  0  0  0  0  0  0
  139.5040   71.3140  221.8790 C   0  0  0  0  0  0  0  0  0  0  0  0
  138.4341   71.3705  221.6297 H   0  0  0  0  0  0  0  0  0  0  0  0
  140.0081   70.5673  221.2479 H   0  0  0  0  0  0  0  0  0  0  0  0
  139.6530   70.9020  223.3230 C   0  0  0  0  0  0  0  0  0  0  0  0
  140.6410   71.4950  224.1300 C   0  0  0  0  0  0  0  0  0  0  0  0
  141.2982   72.2704  223.7094 H   0  0  0  0  0  0  0  0  0  0  0  0
  140.7920   71.1040  225.4640 C   0  0  0  0  0  0  0  0  0  0  0  0
  141.5660   71.5731  226.0891 H   0  0  0  0  0  0  0  0  0  0  0  0
  139.9630   70.1200  226.0040 C   0  0  0  0  0  0  0  0  0  0  0  0
  140.0855   69.8115  227.0527 H   0  0  0  0  0  0  0  0  0  0  0  0
  138.9770   69.5270  225.2110 C   0  0  0  0  0  0  0  0  0  0  0  0
  138.3217   68.7534  225.6378 H   0  0  0  0  0  0  0  0  0  0  0  0
  138.8210   69.9140  223.8770 C   0  0  0  0  0  0  0  0  0  0  0  0
  138.0433   69.4430  223.2578 H   0  0  0  0  0  0  0  0  0  0  0  0
  1  2  1  0
  2  3  2  0
  3  4  1  0
  4  5  1  0
  5  6  2  0
  5  7  1  0
  7  8  1  0
  8  9  1  0
  8 10  1  0
  8 11  1  0
 11 12  2  0
 12 13  1  0
 12 14  1  0
 14 15  1  0
 14 16  2  0
 16 17  1  0
 16 18  1  0
 18 19  1  0
 18 20  2  0
 20 21  1  0
 21 22  1  0
 21 23  1  0
 21 24  1  0
 24 25  1  0
 24 26  1  0
  4 27  2  0
 27 28  1  0
 27 29  1  0
 29 30  1  0
 30 31  2  0
 30 32  1  0
 32 33  1  0
 33 34  1  0
 33 35  2  0
 35 36  1  0
 35 37  1  0
 37 38  1  0
 37 39  2  0
 39 40  1  0
 39 41  1  0
 41 42  2  0
 42 43  1  0
 43 44  1  0
 44 45  1  0
 45 46  1  0
 45 47  1  0
 45 48  1  0
 48 49  2  0
 49 50  1  0
 49 51  1  0
 51 52  1  0
 51 53  2  0
 53 54  1  0
 53 55  1  0
 55 56  1  0
 55 57  2  0
 57 58  1  0
 44  3  1  0
 57 48  1  0
 24  7  1  0
 43 29  2  0
 20 11  1  0
 41 32  1  0
M  END
>  <UniqueID>  (2) 
125

>  <SMILES>  (2) 
[H]/N=c1/c(C(=O)N2CCc3ccccc3C2)cc2c(=O)n3ccccc3nc2n1Cc1ccccc1

>  <Energy>  (2) 
93.21232330012761

>  <Genealogy>  (2) 
[H]/N=c1/c(C(=O)N2CCc3ccccc3C2)cc2c(=O)n3ccccc3nc2n1Cc1ccccc1 (cis-trans isomerization)
[H]/N=c1/c(C(=O)N2CCc3ccccc3C2)cc2c(=O)n3ccccc3nc2n1Cc1ccccc1 (3D coordinates assigned)
[H]/N=c1/c(C(=O)N2CCc3ccccc3C2)cc2c(=O)n3ccccc3nc2n1Cc1ccccc1 (nonaromatic ring conformer: 93.21232330012761 kcal/mol)

>  <smiles>  (2) 
N=c1c(C(=O)N2CCc3ccccc3C2)cc2c(=O)n3ccccc3nc2n1Cc1ccccc1

>  <score_type>  (2) 
oracle

>  <origin>  (2) 
autodockgpu

>  <m_score__min__energy>  (2) 
-9.2699999999999996

>  <m_primary>  (2) 
energy

>  <meeko>  (2) 
{"free_energy": -9.27, "intermolecular_energy": -10.76, "internal_energy": -1.37, "cluster_size": 14, "cluster_id": 1, "rank_in_cluster": 1}

>  <energy>  (2) 
-9.27

>  <cluster_rmsd>  (2) 
0.03

>  <rmsd>  (2) 
269.72

>  <cluster>  (2) 
1

$$$$
DRTNTVLZUVPGHX-GNVQSUKONA-N
     RDKit          3D

 58 63  0  0  0  0  0  0  0  0999 V2000
  138.4140   72.6310  220.8070 H   0  0  0  0  0  0  0  0  0  0  0  0
  137.5920   72.2250  221.2970 N   0  0  0  0  0  0  0  0  0  0  0  0
  136.9580   72.7140  222.3260 C   0  0  0  0  0  0  0  0  0  0  0  0
  136.5990   71.8220  223.3620 C   0  0  0  0  0  0  0  0  0  0  0  0
  137.0130   70.3940  223.3510 C   0  0  0  0  0  0  0  0  0  0  0  0
  136.1810   69.5100  223.0090 O   0  0  0  0  0  0  0  0  0  0  0  0
  138.3580   70.0090  223.6980 N   0  0  0  0  0  0  0  0  0  0  0  0
  138.6270   69.2410  224.9170 C   0  0  0  0  0  0  0  0  0  0  0  0
  139.1730   68.3233  224.6531 H   0  0  0  0  0  0  0  0  0  0  0  0
  137.6695   68.9892  225.3963 H   0  0  0  0  0  0  0  0  0  0  0  0
  139.4560   70.0510  225.8820 C   0  0  0  0  0  0  0  0  0  0  0  0
  139.5610   69.6310  227.2170 C   0  0  0  0  0  0  0  0  0  0  0  0
  139.0090   68.7417  227.5551 H   0  0  0  0  0  0  0  0  0  0  0  0
  140.3620   70.3350  228.1190 C   0  0  0  0  0  0  0  0  0  0  0  0
  140.4322   70.0038  229.1656 H   0  0  0  0  0  0  0  0  0  0  0  0
  141.0740   71.4590  227.6940 C   0  0  0  0  0  0  0  0  0  0  0  0
  141.7019   72.0133  228.4071 H   0  0  0  0  0  0  0  0  0  0  0  0
  140.9900   71.8800  226.3660 C   0  0  0  0  0  0  0  0  0  0  0  0
  141.5477   72.7702  226.0395 H   0  0  0  0  0  0  0  0  0  0  0  0
  140.1990   71.1760  225.4430 C   0  0  0  0  0  0  0  0  0  0  0  0
  140.0790   71.7010  224.0290 C   0  0  0  0  0  0  0  0  0  0  0  0
  141.0776   71.9984  223.6763 H   0  0  0  0  0  0  0  0  0  0  0  0
  139.3872   72.5560  224.0454 H   0  0  0  0  0  0  0  0  0  0  0  0
  139.5090   70.6570  223.0680 C   0  0  0  0  0  0  0  0  0  0  0  0
  140.2785   69.9041  222.8424 H   0  0  0  0  0  0  0  0  0  0  0  0
  139.1959   71.1440  222.1327 H   0  0  0  0  0  0  0  0  0  0  0  0
  135.8400   72.2890  224.4350 C   0  0  0  0  0  0  0  0  0  0  0  0
  135.5590   71.6015  225.2464 H   0  0  0  0  0  0  0  0  0  0  0  0
  135.4350   73.6240  224.4850 C   0  0  0  0  0  0  0  0  0  0  0  0
  134.6480   74.1230  225.5430 C   0  0  0  0  0  0  0  0  0  0  0  0
  134.2910   73.3480  226.4760 O   0  0  0  0  0  0  0  0  0  0  0  0
  134.2690   75.4440  225.5560 N   0  0  0  0  0  0  0  0  0  0  0  0
  133.4990   75.9440  226.5780 C   0  0  0  0  0  0  0  0  0  0  0  0
  133.1851   75.2795  227.3965 H   0  0  0  0  0  0  0  0  0  0  0  0
  133.1100   77.2840  226.5910 C   0  0  0  0  0  0  0  0  0  0  0  0
  132.4939   77.6736  227.4148 H   0  0  0  0  0  0  0  0  0  0  0  0
  133.5070   78.1250  225.5540 C   0  0  0  0  0  0  0  0  0  0  0  0
  133.2053   79.1828  225.5536 H   0  0  0  0  0  0  0  0  0  0  0  0
  134.2870   77.6200  224.5190 C   0  0  0  0  0  0  0  0  0  0  0  0
  134.6056   78.2762  223.6957 H   0  0  0  0  0  0  0  0  0  0  0  0
  134.6640   76.2730  224.5310 C   0  0  0  0  0  0  0  0  0  0  0  0
  135.4260   75.7940  223.5180 N   0  0  0  0  0  0  0  0  0  0  0  0
  135.8280   74.4970  223.4570 C   0  0  0  0  0  0  0  0  0  0  0  0
  136.5990   74.0520  222.4030 N   0  0  0  0  0  0  0  0  0  0  0  0
  137.0070   75.0480  221.3830 C   0  0  0  0  0  0  0  0  0  0  0  0
  137.1227   74.5426  220.4129 H   0  0  0  0  0  0  0  0  0  0  0  0
  136.2312   75.8255  221.3225 H   0  0  0  0  0  0  0  0  0  0  0  0
  138.3150   75.7020  221.7580 C   0  0  0  0  0  0  0  0  0  0  0  0
  139.5280   75.0120  221.5830 C   0  0  0  0  0  0  0  0  0  0  0  0
  139.5234   73.9972  221.1586 H   0  0  0  0  0  0  0  0  0  0  0  0
  140.7390   75.6080  221.9450 C   0  0  0  0  0  0  0  0  0  0  0  0
  141.6834   75.0614  221.8058 H   0  0  0  0  0  0  0  0  0  0  0  0
  140.7520   76.8960  222.4830 C   0  0  0  0  0  0  0  0  0  0  0  0
  141.7058   77.3634  222.7690 H   0  0  0  0  0  0  0  0  0  0  0  0
  139.5530   77.5910  222.6580 C   0  0  0  0  0  0  0  0  0  0  0  0
  139.5642   78.6067  223.0802 H   0  0  0  0  0  0  0  0  0  0  0  0
  138.3390   76.9990  222.2980 C   0  0  0  0  0  0  0  0  0  0  0  0
  137.3980   77.5511  222.4381 H   0  0  0  0  0  0  0  0  0  0  0  0
  1  2  1  0
  2  3  2  0
  3  4  1  0
  4  5  1  0
  5  6  2  0
  5  7  1  0
  7  8  1  0
  8  9  1  0
  8 10  1  0
  8 11  1  0
 11 12  2  0
 12 13  1  0
 12 14  1  0
 14 15  1  0
 14 16  2  0
 16 17  1  0
 16 18  1  0
 18 19  1  0
 18 20  2  0
 20 21  1  0
 21 22  1  0
 21 23  1  0
 21 24  1  0
 24 25  1  0
 24 26  1  0
  4 27  2  0
 27 28  1  0
 27 29  1  0
 29 30  1  0
 30 31  2  0
 30 32  1  0
 32 33  1  0
 33 34  1  0
 33 35  2  0
 35 36  1  0
 35 37  1  0
 37 38  1  0
 37 39  2  0
 39 40  1  0
 39 41  1  0
 41 42  2  0
 42 43  1  0
 43 44  1  0
 44 45  1  0
 45 46  1  0
 45 47  1  0
 45 48  1  0
 48 49  2  0
 49 50  1  0
 49 51  1  0
 51 52  1  0
 51 53  2  0
 53 54  1  0
 53 55  1  0
 55 56  1  0
 55 57  2  0
 57 58  1  0
 44  3  1  0
 57 48  1  0
 24  7  1  0
 43 29  2  0
 20 11  1  0
 41 32  1  0
M  END
>  <UniqueID>  (3) 
125

>  <SMILES>  (3) 
[H]/N=c1/c(C(=O)N2CCc3ccccc3C2)cc2c(=O)n3ccccc3nc2n1Cc1ccccc1

>  <Energy>  (3) 
93.21232330012761

>  <Genealogy>  (3) 
[H]/N=c1/c(C(=O)N2CCc3ccccc3C2)cc2c(=O)n3ccccc3nc2n1Cc1ccccc1 (cis-trans isomerization)
[H]/N=c1/c(C(=O)N2CCc3ccccc3C2)cc2c(=O)n3ccccc3nc2n1Cc1ccccc1 (3D coordinates assigned)
[H]/N=c1/c(C(=O)N2CCc3ccccc3C2)cc2c(=O)n3ccccc3nc2n1Cc1ccccc1 (nonaromatic ring conformer: 93.21232330012761 kcal/mol)

>  <smiles>  (3) 
N=c1c(C(=O)N2CCc3ccccc3C2)cc2c(=O)n3ccccc3nc2n1Cc1ccccc1

>  <score_type>  (3) 
oracle

>  <origin>  (3) 
autodockgpu

>  <m_score__min__energy>  (3) 
-9.2699999999999996

>  <m_primary>  (3) 
energy

>  <meeko>  (3) 
{"free_energy": -8.52, "intermolecular_energy": -10.01, "internal_energy": -1.49, "cluster_size": 1, "cluster_id": 4, "rank_in_cluster": 1}

>  <energy>  (3) 
-9.27

>  <cluster_rmsd>  (3) 
0.05

>  <rmsd>  (3) 
269.73

>  <cluster>  (3) 
1

$$$$
DRTNTVLZUVPGHX-GNVQSUKONA-N
     RDKit          3D

 58 63  0  0  0  0  0  0  0  0999 V2000
  137.8530   74.4760  223.0950 H   0  0  0  0  0  0  0  0  0  0  0  0
  138.2430   73.9200  222.3080 N   0  0  0  0  0  0  0  0  0  0  0  0
  139.4810   73.8790  221.9010 C   0  0  0  0  0  0  0  0  0  0  0  0
  140.1540   75.1080  221.7150 C   0  0  0  0  0  0  0  0  0  0  0  0
  139.5270   76.4090  222.0680 C   0  0  0  0  0  0  0  0  0  0  0  0
  138.5610   76.4330  222.8780 O   0  0  0  0  0  0  0  0  0  0  0  0
  140.0250   77.6450  221.5200 N   0  0  0  0  0  0  0  0  0  0  0  0
  141.4510   77.9790  221.5940 C   0  0  0  0  0  0  0  0  0  0  0  0
  141.8272   78.1845  220.5810 H   0  0  0  0  0  0  0  0  0  0  0  0
  141.9919   77.1290  222.0356 H   0  0  0  0  0  0  0  0  0  0  0  0
  141.6670   79.1950  222.4590 C   0  0  0  0  0  0  0  0  0  0  0  0
  142.9610   79.4940  222.9120 C   0  0  0  0  0  0  0  0  0  0  0  0
  143.7950   78.8201  222.6666 H   0  0  0  0  0  0  0  0  0  0  0  0
  143.1970   80.6410  223.6720 C   0  0  0  0  0  0  0  0  0  0  0  0
  144.2132   80.8631  224.0297 H   0  0  0  0  0  0  0  0  0  0  0  0
  142.1450   81.5070  223.9790 C   0  0  0  0  0  0  0  0  0  0  0  0
  142.3337   82.4093  224.5793 H   0  0  0  0  0  0  0  0  0  0  0  0
  140.8540   81.2290  223.5250 C   0  0  0  0  0  0  0  0  0  0  0  0
  140.0278   81.9097  223.7780 H   0  0  0  0  0  0  0  0  0  0  0  0
  140.6030   80.0870  222.7480 C   0  0  0  0  0  0  0  0  0  0  0  0
  139.1810   79.7830  222.3300 C   0  0  0  0  0  0  0  0  0  0  0  0
  138.7083   80.7134  221.9821 H   0  0  0  0  0  0  0  0  0  0  0  0
  138.6564   79.3666  223.2025 H   0  0  0  0  0  0  0  0  0  0  0  0
  139.1130   78.7470  221.2060 C   0  0  0  0  0  0  0  0  0  0  0  0
  139.4112   79.2135  220.2555 H   0  0  0  0  0  0  0  0  0  0  0  0
  138.0856   78.3652  221.1130 H   0  0  0  0  0  0  0  0  0  0  0  0
  141.4470   75.1080  221.1930 C   0  0  0  0  0  0  0  0  0  0  0  0
  141.9776   76.0606  221.0476 H   0  0  0  0  0  0  0  0  0  0  0  0
  142.0720   73.9080  220.8540 C   0  0  0  0  0  0  0  0  0  0  0  0
  143.3690   73.8740  220.3030 C   0  0  0  0  0  0  0  0  0  0  0  0
  143.9920   74.9560  220.1040 O   0  0  0  0  0  0  0  0  0  0  0  0
  143.9510   72.6710  219.9820 N   0  0  0  0  0  0  0  0  0  0  0  0
  145.2130   72.6230  219.4410 C   0  0  0  0  0  0  0  0  0  0  0  0
  145.7654   73.5581  219.2664 H   0  0  0  0  0  0  0  0  0  0  0  0
  145.8030   71.4010  219.1100 C   0  0  0  0  0  0  0  0  0  0  0  0
  146.8138   71.3734  218.6769 H   0  0  0  0  0  0  0  0  0  0  0  0
  145.1030   70.2180  219.3320 C   0  0  0  0  0  0  0  0  0  0  0  0
  145.5582   69.2501  219.0753 H   0  0  0  0  0  0  0  0  0  0  0  0
  143.8250   70.2660  219.8800 C   0  0  0  0  0  0  0  0  0  0  0  0
  143.2641   69.3366  220.0580 H   0  0  0  0  0  0  0  0  0  0  0  0
  143.2580   71.5020  220.2030 C   0  0  0  0  0  0  0  0  0  0  0  0
  142.0130   71.5350  220.7390 N   0  0  0  0  0  0  0  0  0  0  0  0
  141.3940   72.6980  221.0740 C   0  0  0  0  0  0  0  0  0  0  0  0
  140.1230   72.6830  221.6120 N   0  0  0  0  0  0  0  0  0  0  0  0
  139.4950   71.3610  221.8530 C   0  0  0  0  0  0  0  0  0  0  0  0
  138.4204   71.4268  221.6272 H   0  0  0  0  0  0  0  0  0  0  0  0
  139.9810   70.6187  221.2028 H   0  0  0  0  0  0  0  0  0  0  0  0
  139.6720   70.9310  223.2890 C   0  0  0  0  0  0  0  0  0  0  0  0
  140.6780   71.5120  224.0820 C   0  0  0  0  0  0  0  0  0  0  0  0
  141.3287   72.2904  223.6569 H   0  0  0  0  0  0  0  0  0  0  0  0
  140.8550   71.1050  225.4080 C   0  0  0  0  0  0  0  0  0  0  0  0
  141.6433   71.5641  226.0227 H   0  0  0  0  0  0  0  0  0  0  0  0
  140.0330   70.1170  225.9530 C   0  0  0  0  0  0  0  0  0  0  0  0
  140.1757   69.7960  226.9954 H   0  0  0  0  0  0  0  0  0  0  0  0
  139.0290   69.5360  225.1740 C   0  0  0  0  0  0  0  0  0  0  0  0
  138.3804   68.7591  225.6050 H   0  0  0  0  0  0  0  0  0  0  0  0
  138.8470   69.9400  223.8480 C   0  0  0  0  0  0  0  0  0  0  0  0
  138.0544   69.4801  223.2394 H   0  0  0  0  0  0  0  0  0  0  0  0
  1  2  1  0
  2  3  2  0
  3  4  1  0
  4  5  1  0
  5  6  2  0
  5  7  1  0
  7  8  1  0
  8  9  1  0
  8 10  1  0
  8 11  1  0
 11 12  2  0
 12 13  1  0
 12 14  1  0
 14 15  1  0
 14 16  2  0
 16 17  1  0
 16 18  1  0
 18 19  1  0
 18 20  2  0
 20 21  1  0
 21 22  1  0
 21 23  1  0
 21 24  1  0
 24 25  1  0
 24 26  1  0
  4 27  2  0
 27 28  1  0
 27 29  1  0
 29 30  1  0
 30 31  2  0
 30 32  1  0
 32 33  1  0
 33 34  1  0
 33 35  2  0
 35 36  1  0
 35 37  1  0
 37 38  1  0
 37 39  2  0
 39 40  1  0
 39 41  1  0
 41 42  2  0
 42 43  1  0
 43 44  1  0
 44 45  1  0
 45 46  1  0
 45 47  1  0
 45 48  1  0
 48 49  2  0
 49 50  1  0
 49 51  1  0
 51 52  1  0
 51 53  2  0
 53 54  1  0
 53 55  1  0
 55 56  1  0
 55 57  2  0
 57 58  1  0
 44  3  1  0
 57 48  1  0
 24  7  1  0
 43 29  2  0
 20 11  1  0
 41 32  1  0
M  END
>  <UniqueID>  (4) 
125

>  <SMILES>  (4) 
[H]/N=c1/c(C(=O)N2CCc3ccccc3C2)cc2c(=O)n3ccccc3nc2n1Cc1ccccc1

>  <Energy>  (4) 
93.21232330012761

>  <Genealogy>  (4) 
[H]/N=c1/c(C(=O)N2CCc3ccccc3C2)cc2c(=O)n3ccccc3nc2n1Cc1ccccc1 (cis-trans isomerization)
[H]/N=c1/c(C(=O)N2CCc3ccccc3C2)cc2c(=O)n3ccccc3nc2n1Cc1ccccc1 (3D coordinates assigned)
[H]/N=c1/c(C(=O)N2CCc3ccccc3C2)cc2c(=O)n3ccccc3nc2n1Cc1ccccc1 (nonaromatic ring conformer: 93.21232330012761 kcal/mol)

>  <smiles>  (4) 
N=c1c(C(=O)N2CCc3ccccc3C2)cc2c(=O)n3ccccc3nc2n1Cc1ccccc1

>  <score_type>  (4) 
oracle

>  <origin>  (4) 
autodockgpu

>  <m_score__min__energy>  (4) 
-9.2699999999999996

>  <m_primary>  (4) 
energy

>  <meeko>  (4) 
{"free_energy": -9.26, "intermolecular_energy": -10.75, "internal_energy": -1.38, "cluster_size": 14, "cluster_id": 1, "rank_in_cluster": 11}

>  <energy>  (4) 
-9.27

>  <cluster_rmsd>  (4) 
0.04

>  <rmsd>  (4) 
269.72

>  <cluster>  (4) 
1

$$$$
DRTNTVLZUVPGHX-GNVQSUKONA-N
     RDKit          3D

 58 63  0  0  0  0  0  0  0  0999 V2000
  137.8520   74.4510  223.0800 H   0  0  0  0  0  0  0  0  0  0  0  0
  138.2510   73.8850  222.3040 N   0  0  0  0  0  0  0  0  0  0  0  0
  139.4910   73.8500  221.9030 C   0  0  0  0  0  0  0  0  0  0  0  0
  140.1590   75.0830  221.7220 C   0  0  0  0  0  0  0  0  0  0  0  0
  139.5250   76.3810  222.0740 C   0  0  0  0  0  0  0  0  0  0  0  0
  138.5590   76.4000  222.8840 O   0  0  0  0  0  0  0  0  0  0  0  0
  140.0160   77.6190  221.5240 N   0  0  0  0  0  0  0  0  0  0  0  0
  141.4410   77.9560  221.5890 C   0  0  0  0  0  0  0  0  0  0  0  0
  141.8100   78.1639  220.5738 H   0  0  0  0  0  0  0  0  0  0  0  0
  141.9868   77.1066  222.0257 H   0  0  0  0  0  0  0  0  0  0  0  0
  141.6600   79.1720  222.4550 C   0  0  0  0  0  0  0  0  0  0  0  0
  142.9560   79.4730  222.8990 C   0  0  0  0  0  0  0  0  0  0  0  0
  143.7900   78.8018  222.6464 H   0  0  0  0  0  0  0  0  0  0  0  0
  143.1940   80.6200  223.6600 C   0  0  0  0  0  0  0  0  0  0  0  0
  144.2121   80.8445  224.0109 H   0  0  0  0  0  0  0  0  0  0  0  0
  142.1420   81.4820  223.9760 C   0  0  0  0  0  0  0  0  0  0  0  0
  142.3323   82.3832  224.5773 H   0  0  0  0  0  0  0  0  0  0  0  0
  140.8490   81.2020  223.5300 C   0  0  0  0  0  0  0  0  0  0  0  0
  140.0231   81.8808  223.7891 H   0  0  0  0  0  0  0  0  0  0  0  0
  140.5950   80.0600  222.7530 C   0  0  0  0  0  0  0  0  0  0  0  0
  139.1710   79.7530  222.3440 C   0  0  0  0  0  0  0  0  0  0  0  0
  138.6935   80.6826  222.0008 H   0  0  0  0  0  0  0  0  0  0  0  0
  138.6529   79.3339  223.2192 H   0  0  0  0  0  0  0  0  0  0  0  0
  139.0990   78.7190  221.2190 C   0  0  0  0  0  0  0  0  0  0  0  0
  139.3894   79.1883  220.2674 H   0  0  0  0  0  0  0  0  0  0  0  0
  138.0721   78.3341  221.1328 H   0  0  0  0  0  0  0  0  0  0  0  0
  141.4550   75.0890  221.2070 C   0  0  0  0  0  0  0  0  0  0  0  0
  141.9827   76.0440  221.0671 H   0  0  0  0  0  0  0  0  0  0  0  0
  142.0870   73.8920  220.8680 C   0  0  0  0  0  0  0  0  0  0  0  0
  143.3870   73.8650  220.3230 C   0  0  0  0  0  0  0  0  0  0  0  0
  144.0050   74.9500  220.1290 O   0  0  0  0  0  0  0  0  0  0  0  0
  143.9750   72.6650  220.0030 N   0  0  0  0  0  0  0  0  0  0  0  0
  145.2400   72.6230  219.4680 C   0  0  0  0  0  0  0  0  0  0  0  0
  145.7891   73.5608  219.2976 H   0  0  0  0  0  0  0  0  0  0  0  0
  145.8370   71.4050  219.1380 C   0  0  0  0  0  0  0  0  0  0  0  0
  146.8499   71.3827  218.7096 H   0  0  0  0  0  0  0  0  0  0  0  0
  145.1410   70.2180  219.3550 C   0  0  0  0  0  0  0  0  0  0  0  0
  145.6020   69.2526  219.0990 H   0  0  0  0  0  0  0  0  0  0  0  0
  143.8600   70.2590  219.8970 C   0  0  0  0  0  0  0  0  0  0  0  0
  143.3025   69.3269  220.0711 H   0  0  0  0  0  0  0  0  0  0  0  0
  143.2860   71.4930  220.2190 C   0  0  0  0  0  0  0  0  0  0  0  0
  142.0380   71.5190  220.7490 N   0  0  0  0  0  0  0  0  0  0  0  0
  141.4130   72.6790  221.0830 C   0  0  0  0  0  0  0  0  0  0  0  0
  140.1400   72.6570  221.6150 N   0  0  0  0  0  0  0  0  0  0  0  0
  139.5160   71.3330  221.8510 C   0  0  0  0  0  0  0  0  0  0  0  0
  138.4420   71.3956  221.6218 H   0  0  0  0  0  0  0  0  0  0  0  0
  140.0064   70.5936  221.2008 H   0  0  0  0  0  0  0  0  0  0  0  0
  139.6900   70.9010  223.2870 C   0  0  0  0  0  0  0  0  0  0  0  0
  138.8770   69.8860  223.8240 C   0  0  0  0  0  0  0  0  0  0  0  0
  138.1214   69.3981  223.1907 H   0  0  0  0  0  0  0  0  0  0  0  0
  139.0240   69.4940  225.1580 C   0  0  0  0  0  0  0  0  0  0  0  0
  138.3850   68.6994  225.5707 H   0  0  0  0  0  0  0  0  0  0  0  0
  139.9810   70.1100  225.9670 C   0  0  0  0  0  0  0  0  0  0  0  0
  140.0945   69.8024  227.0170 H   0  0  0  0  0  0  0  0  0  0  0  0
  140.7940   71.1170  225.4420 C   0  0  0  0  0  0  0  0  0  0  0  0
  141.5485   71.6007  226.0798 H   0  0  0  0  0  0  0  0  0  0  0  0
  140.6520   71.5120  224.1090 C   0  0  0  0  0  0  0  0  0  0  0  0
  141.2963   72.3049  223.7014 H   0  0  0  0  0  0  0  0  0  0  0  0
  1  2  1  0
  2  3  2  0
  3  4  1  0
  4  5  1  0
  5  6  2  0
  5  7  1  0
  7  8  1  0
  8  9  1  0
  8 10  1  0
  8 11  1  0
 11 12  2  0
 12 13  1  0
 12 14  1  0
 14 15  1  0
 14 16  2  0
 16 17  1  0
 16 18  1  0
 18 19  1  0
 18 20  2  0
 20 21  1  0
 21 22  1  0
 21 23  1  0
 21 24  1  0
 24 25  1  0
 24 26  1  0
  4 27  2  0
 27 28  1  0
 27 29  1  0
 29 30  1  0
 30 31  2  0
 30 32  1  0
 32 33  1  0
 33 34  1  0
 33 35  2  0
 35 36  1  0
 35 37  1  0
 37 38  1  0
 37 39  2  0
 39 40  1  0
 39 41  1  0
 41 42  2  0
 42 43  1  0
 43 44  1  0
 44 45  1  0
 45 46  1  0
 45 47  1  0
 45 48  1  0
 48 49  2  0
 49 50  1  0
 49 51  1  0
 51 52  1  0
 51 53  2  0
 53 54  1  0
 53 55  1  0
 55 56  1  0
 55 57  2  0
 57 58  1  0
 44  3  1  0
 57 48  1  0
 24  7  1  0
 43 29  2  0
 20 11  1  0
 41 32  1  0
M  END
>  <UniqueID>  (5) 
125

>  <SMILES>  (5) 
[H]/N=c1/c(C(=O)N2CCc3ccccc3C2)cc2c(=O)n3ccccc3nc2n1Cc1ccccc1

>  <Energy>  (5) 
93.21232330012761

>  <Genealogy>  (5) 
[H]/N=c1/c(C(=O)N2CCc3ccccc3C2)cc2c(=O)n3ccccc3nc2n1Cc1ccccc1 (cis-trans isomerization)
[H]/N=c1/c(C(=O)N2CCc3ccccc3C2)cc2c(=O)n3ccccc3nc2n1Cc1ccccc1 (3D coordinates assigned)
[H]/N=c1/c(C(=O)N2CCc3ccccc3C2)cc2c(=O)n3ccccc3nc2n1Cc1ccccc1 (nonaromatic ring conformer: 93.21232330012761 kcal/mol)

>  <smiles>  (5) 
N=c1c(C(=O)N2CCc3ccccc3C2)cc2c(=O)n3ccccc3nc2n1Cc1ccccc1

>  <score_type>  (5) 
oracle

>  <origin>  (5) 
autodockgpu

>  <m_score__min__energy>  (5) 
-9.2699999999999996

>  <m_primary>  (5) 
energy

>  <meeko>  (5) 
{"free_energy": -9.26, "intermolecular_energy": -10.75, "internal_energy": -1.37, "cluster_size": 14, "cluster_id": 1, "rank_in_cluster": 9}

>  <energy>  (5) 
-9.27

>  <cluster_rmsd>  (5) 
0.04

>  <rmsd>  (5) 
269.72

>  <cluster>  (5) 
1

$$$$
DRTNTVLZUVPGHX-GNVQSUKONA-N
     RDKit          3D

 58 63  0  0  0  0  0  0  0  0999 V2000
  139.5420   74.6170  223.0410 H   0  0  0  0  0  0  0  0  0  0  0  0
  140.2590   74.3450  222.3390 N   0  0  0  0  0  0  0  0  0  0  0  0
  140.7700   75.0870  221.3970 C   0  0  0  0  0  0  0  0  0  0  0  0
  140.4550   76.4650  221.4010 C   0  0  0  0  0  0  0  0  0  0  0  0
  139.6590   77.0870  222.4910 C   0  0  0  0  0  0  0  0  0  0  0  0
  138.5780   76.5500  222.8540 O   0  0  0  0  0  0  0  0  0  0  0  0
  140.1180   78.2800  223.1570 N   0  0  0  0  0  0  0  0  0  0  0  0
  139.2700   79.4730  223.2300 C   0  0  0  0  0  0  0  0  0  0  0  0
  139.1498   79.7670  224.2831 H   0  0  0  0  0  0  0  0  0  0  0  0
  138.2912   79.2397  222.7856 H   0  0  0  0  0  0  0  0  0  0  0  0
  139.8910   80.6140  222.4650 C   0  0  0  0  0  0  0  0  0  0  0  0
  139.1080   81.7350  222.1480 C   0  0  0  0  0  0  0  0  0  0  0  0
  138.0433   81.7537  222.4238 H   0  0  0  0  0  0  0  0  0  0  0  0
  139.6720   82.8260  221.4850 C   0  0  0  0  0  0  0  0  0  0  0  0
  139.0493   83.6972  221.2335 H   0  0  0  0  0  0  0  0  0  0  0  0
  141.0260   82.8140  221.1400 C   0  0  0  0  0  0  0  0  0  0  0  0
  141.4667   83.6742  220.6147 H   0  0  0  0  0  0  0  0  0  0  0  0
  141.8200   81.7120  221.4610 C   0  0  0  0  0  0  0  0  0  0  0  0
  142.8836   81.7053  221.1804 H   0  0  0  0  0  0  0  0  0  0  0  0
  141.2710   80.6110  222.1400 C   0  0  0  0  0  0  0  0  0  0  0  0
  142.1460   79.4070  222.4110 C   0  0  0  0  0  0  0  0  0  0  0  0
  143.1244   79.7553  222.7735 H   0  0  0  0  0  0  0  0  0  0  0  0
  142.2427   78.8434  221.4713 H   0  0  0  0  0  0  0  0  0  0  0  0
  141.5390   78.4710  223.4570 C   0  0  0  0  0  0  0  0  0  0  0  0
  141.6485   78.9151  224.4574 H   0  0  0  0  0  0  0  0  0  0  0  0
  142.0578   77.5013  223.4344 H   0  0  0  0  0  0  0  0  0  0  0  0
  140.9090   77.2730  220.3580 C   0  0  0  0  0  0  0  0  0  0  0  0
  140.6709   78.3469  220.3556 H   0  0  0  0  0  0  0  0  0  0  0  0
  141.6630   76.7280  219.3180 C   0  0  0  0  0  0  0  0  0  0  0  0
  142.1160   77.5120  218.2380 C   0  0  0  0  0  0  0  0  0  0  0  0
  141.8350   78.7440  218.1990 O   0  0  0  0  0  0  0  0  0  0  0  0
  142.8560   76.9380  217.2330 N   0  0  0  0  0  0  0  0  0  0  0  0
  143.3020   77.6890  216.1720 C   0  0  0  0  0  0  0  0  0  0  0  0
  143.0660   78.7625  216.1290 H   0  0  0  0  0  0  0  0  0  0  0  0
  144.0510   77.1060  215.1480 C   0  0  0  0  0  0  0  0  0  0  0  0
  144.4033   77.7163  214.3034 H   0  0  0  0  0  0  0  0  0  0  0  0
  144.3490   75.7470  215.2030 C   0  0  0  0  0  0  0  0  0  0  0  0
  144.9376   75.2777  214.4010 H   0  0  0  0  0  0  0  0  0  0  0  0
  143.8990   74.9850  216.2770 C   0  0  0  0  0  0  0  0  0  0  0  0
  144.1292   73.9106  216.3289 H   0  0  0  0  0  0  0  0  0  0  0  0
  143.1520   75.5950  217.2900 C   0  0  0  0  0  0  0  0  0  0  0  0
  142.7200   74.8430  218.3320 N   0  0  0  0  0  0  0  0  0  0  0  0
  141.9860   75.3620  219.3520 C   0  0  0  0  0  0  0  0  0  0  0  0
  141.5640   74.5560  220.3900 N   0  0  0  0  0  0  0  0  0  0  0  0
  141.9850   73.1350  220.3710 C   0  0  0  0  0  0  0  0  0  0  0  0
  141.6175   72.6389  221.2814 H   0  0  0  0  0  0  0  0  0  0  0  0
  141.5636   72.6571  219.4743 H   0  0  0  0  0  0  0  0  0  0  0  0
  143.4890   73.0160  220.3170 C   0  0  0  0  0  0  0  0  0  0  0  0
  144.0900   71.8820  219.7420 C   0  0  0  0  0  0  0  0  0  0  0  0
  143.4607   71.0853  219.3187 H   0  0  0  0  0  0  0  0  0  0  0  0
  145.4820   71.7610  219.7050 C   0  0  0  0  0  0  0  0  0  0  0  0
  145.9443   70.8711  219.2529 H   0  0  0  0  0  0  0  0  0  0  0  0
  146.2860   72.7680  220.2410 C   0  0  0  0  0  0  0  0  0  0  0  0
  147.3813   72.6704  220.2131 H   0  0  0  0  0  0  0  0  0  0  0  0
  145.7000   73.9000  220.8130 C   0  0  0  0  0  0  0  0  0  0  0  0
  146.3350   74.6937  221.2335 H   0  0  0  0  0  0  0  0  0  0  0  0
  144.3080   74.0260  220.8520 C   0  0  0  0  0  0  0  0  0  0  0  0
  143.8515   74.9193  221.3033 H   0  0  0  0  0  0  0  0  0  0  0  0
  1  2  1  0
  2  3  2  0
  3  4  1  0
  4  5  1  0
  5  6  2  0
  5  7  1  0
  7  8  1  0
  8  9  1  0
  8 10  1  0
  8 11  1  0
 11 12  2  0
 12 13  1  0
 12 14  1  0
 14 15  1  0
 14 16  2  0
 16 17  1  0
 16 18  1  0
 18 19  1  0
 18 20  2  0
 20 21  1  0
 21 22  1  0
 21 23  1  0
 21 24  1  0
 24 25  1  0
 24 26  1  0
  4 27  2  0
 27 28  1  0
 27 29  1  0
 29 30  1  0
 30 31  2  0
 30 32  1  0
 32 33  1  0
 33 34  1  0
 33 35  2  0
 35 36  1  0
 35 37  1  0
 37 38  1  0
 37 39  2  0
 39 40  1  0
 39 41  1  0
 41 42  2  0
 42 43  1  0
 43 44  1  0
 44 45  1  0
 45 46  1  0
 45 47  1  0
 45 48  1  0
 48 49  2  0
 49 50  1  0
 49 51  1  0
 51 52  1  0
 51 53  2  0
 53 54  1  0
 53 55  1  0
 55 56  1  0
 55 57  2  0
 57 58  1  0
 44  3  1  0
 57 48  1  0
 24  7  1  0
 43 29  2  0
 20 11  1  0
 41 32  1  0
M  END
>  <UniqueID>  (6) 
125

>  <SMILES>  (6) 
[H]/N=c1/c(C(=O)N2CCc3ccccc3C2)cc2c(=O)n3ccccc3nc2n1Cc1ccccc1

>  <Energy>  (6) 
93.21232330012761

>  <Genealogy>  (6) 
[H]/N=c1/c(C(=O)N2CCc3ccccc3C2)cc2c(=O)n3ccccc3nc2n1Cc1ccccc1 (cis-trans isomerization)
[H]/N=c1/c(C(=O)N2CCc3ccccc3C2)cc2c(=O)n3ccccc3nc2n1Cc1ccccc1 (3D coordinates assigned)
[H]/N=c1/c(C(=O)N2CCc3ccccc3C2)cc2c(=O)n3ccccc3nc2n1Cc1ccccc1 (nonaromatic ring conformer: 93.21232330012761 kcal/mol)

>  <smiles>  (6) 
N=c1c(C(=O)N2CCc3ccccc3C2)cc2c(=O)n3ccccc3nc2n1Cc1ccccc1

>  <score_type>  (6) 
oracle

>  <origin>  (6) 
autodockgpu

>  <m_score__min__energy>  (6) 
-9.2699999999999996

>  <m_primary>  (6) 
energy

>  <meeko>  (6) 
{"free_energy": -8.53, "intermolecular_energy": -10.02, "internal_energy": -1.92, "cluster_size": 4, "cluster_id": 3, "rank_in_cluster": 1}

>  <energy>  (6) 
-9.27

>  <cluster_rmsd>  (6) 
0.03

>  <rmsd>  (6) 
269.72

>  <cluster>  (6) 
1

$$$$
DRTNTVLZUVPGHX-GNVQSUKONA-N
     RDKit          3D

 58 63  0  0  0  0  0  0  0  0999 V2000
  140.7550   70.9230  220.0270 H   0  0  0  0  0  0  0  0  0  0  0  0
  141.2660   71.8260  219.9540 N   0  0  0  0  0  0  0  0  0  0  0  0
  140.9590   72.9610  220.5180 C   0  0  0  0  0  0  0  0  0  0  0  0
  139.9780   72.9440  221.5370 C   0  0  0  0  0  0  0  0  0  0  0  0
  139.3830   71.6770  222.0370 C   0  0  0  0  0  0  0  0  0  0  0  0
  139.1870   70.7250  221.2330 O   0  0  0  0  0  0  0  0  0  0  0  0
  139.0530   71.5110  223.4290 N   0  0  0  0  0  0  0  0  0  0  0  0
  140.1010   71.5080  224.4540 C   0  0  0  0  0  0  0  0  0  0  0  0
  139.8726   72.2769  225.2067 H   0  0  0  0  0  0  0  0  0  0  0  0
  141.0673   71.7208  223.9735 H   0  0  0  0  0  0  0  0  0  0  0  0
  140.1800   70.1620  225.1290 C   0  0  0  0  0  0  0  0  0  0  0  0
  141.3040   69.8500  225.9080 C   0  0  0  0  0  0  0  0  0  0  0  0
  142.1314   70.5705  225.9870 H   0  0  0  0  0  0  0  0  0  0  0  0
  141.3790   68.6300  226.5840 C   0  0  0  0  0  0  0  0  0  0  0  0
  142.2677   68.3897  227.1860 H   0  0  0  0  0  0  0  0  0  0  0  0
  140.3280   67.7150  226.4970 C   0  0  0  0  0  0  0  0  0  0  0  0
  140.3911   66.7543  227.0290 H   0  0  0  0  0  0  0  0  0  0  0  0
  139.1970   68.0170  225.7360 C   0  0  0  0  0  0  0  0  0  0  0  0
  138.3759   67.2885  225.6646 H   0  0  0  0  0  0  0  0  0  0  0  0
  139.1010   69.2450  225.0610 C   0  0  0  0  0  0  0  0  0  0  0  0
  137.8900   69.5090  224.1920 C   0  0  0  0  0  0  0  0  0  0  0  0
  136.9887   69.1869  224.7341 H   0  0  0  0  0  0  0  0  0  0  0  0
  138.0185   68.9460  223.2558 H   0  0  0  0  0  0  0  0  0  0  0  0
  137.7450   70.9890  223.8320 C   0  0  0  0  0  0  0  0  0  0  0  0
  137.3783   71.5472  224.7061 H   0  0  0  0  0  0  0  0  0  0  0  0
  137.0283   71.1024  223.0053 H   0  0  0  0  0  0  0  0  0  0  0  0
  139.5570   74.1490  222.1000 C   0  0  0  0  0  0  0  0  0  0  0  0
  138.7969   74.1446  222.8951 H   0  0  0  0  0  0  0  0  0  0  0  0
  140.0940   75.3600  221.6610 C   0  0  0  0  0  0  0  0  0  0  0  0
  139.6740   76.5960  222.1920 C   0  0  0  0  0  0  0  0  0  0  0  0
  138.7830   76.6200  223.0890 O   0  0  0  0  0  0  0  0  0  0  0  0
  140.2270   77.7670  221.7340 N   0  0  0  0  0  0  0  0  0  0  0  0
  139.8250   78.9800  222.2400 C   0  0  0  0  0  0  0  0  0  0  0  0
  139.0538   79.0128  223.0237 H   0  0  0  0  0  0  0  0  0  0  0  0
  140.3830   80.1710  221.7720 C   0  0  0  0  0  0  0  0  0  0  0  0
  140.0532   81.1365  222.1832 H   0  0  0  0  0  0  0  0  0  0  0  0
  141.3600   80.1280  220.7810 C   0  0  0  0  0  0  0  0  0  0  0  0
  141.8067   81.0603  220.4051 H   0  0  0  0  0  0  0  0  0  0  0  0
  141.7690   78.9010  220.2680 C   0  0  0  0  0  0  0  0  0  0  0  0
  142.5397   78.8579  219.4844 H   0  0  0  0  0  0  0  0  0  0  0  0
  141.1940   77.7230  220.7550 C   0  0  0  0  0  0  0  0  0  0  0  0
  141.6020   76.5330  220.2490 N   0  0  0  0  0  0  0  0  0  0  0  0
  141.0870   75.3470  220.6680 C   0  0  0  0  0  0  0  0  0  0  0  0
  141.5300   74.1610  220.1200 N   0  0  0  0  0  0  0  0  0  0  0  0
  142.6120   74.2330  219.1090 C   0  0  0  0  0  0  0  0  0  0  0  0
  142.3150   73.6533  218.2226 H   0  0  0  0  0  0  0  0  0  0  0  0
  142.7735   75.2882  218.8435 H   0  0  0  0  0  0  0  0  0  0  0  0
  143.9030   73.6720  219.6560 C   0  0  0  0  0  0  0  0  0  0  0  0
  144.6860   74.4340  220.5410 C   0  0  0  0  0  0  0  0  0  0  0  0
  144.3498   75.4364  220.8448 H   0  0  0  0  0  0  0  0  0  0  0  0
  145.8900   73.9240  221.0370 C   0  0  0  0  0  0  0  0  0  0  0  0
  146.4975   74.5255  221.7293 H   0  0  0  0  0  0  0  0  0  0  0  0
  146.3220   72.6530  220.6550 C   0  0  0  0  0  0  0  0  0  0  0  0
  147.2705   72.2543  221.0440 H   0  0  0  0  0  0  0  0  0  0  0  0
  145.5490   71.8870  219.7780 C   0  0  0  0  0  0  0  0  0  0  0  0
  145.8891   70.8845  219.4792 H   0  0  0  0  0  0  0  0  0  0  0  0
  144.3450   72.3920  219.2800 C   0  0  0  0  0  0  0  0  0  0  0  0
  143.7403   71.7848  218.5904 H   0  0  0  0  0  0  0  0  0  0  0  0
  1  2  1  0
  2  3  2  0
  3  4  1  0
  4  5  1  0
  5  6  2  0
  5  7  1  0
  7  8  1  0
  8  9  1  0
  8 10  1  0
  8 11  1  0
 11 12  2  0
 12 13  1  0
 12 14  1  0
 14 15  1  0
 14 16  2  0
 16 17  1  0
 16 18  1  0
 18 19  1  0
 18 20  2  0
 20 21  1  0
 21 22  1  0
 21 23  1  0
 21 24  1  0
 24 25  1  0
 24 26  1  0
  4 27  2  0
 27 28  1  0
 27 29  1  0
 29 30  1  0
 30 31  2  0
 30 32  1  0
 32 33  1  0
 33 34  1  0
 33 35  2  0
 35 36  1  0
 35 37  1  0
 37 38  1  0
 37 39  2  0
 39 40  1  0
 39 41  1  0
 41 42  2  0
 42 43  1  0
 43 44  1  0
 44 45  1  0
 45 46  1  0
 45 47  1  0
 45 48  1  0
 48 49  2  0
 49 50  1  0
 49 51  1  0
 51 52  1  0
 51 53  2  0
 53 54  1  0
 53 55  1  0
 55 56  1  0
 55 57  2  0
 57 58  1  0
 44  3  1  0
 57 48  1  0
 24  7  1  0
 43 29  2  0
 20 11  1  0
 41 32  1  0
M  END
>  <UniqueID>  (7) 
125

>  <SMILES>  (7) 
[H]/N=c1/c(C(=O)N2CCc3ccccc3C2)cc2c(=O)n3ccccc3nc2n1Cc1ccccc1

>  <Energy>  (7) 
93.21232330012761

>  <Genealogy>  (7) 
[H]/N=c1/c(C(=O)N2CCc3ccccc3C2)cc2c(=O)n3ccccc3nc2n1Cc1ccccc1 (cis-trans isomerization)
[H]/N=c1/c(C(=O)N2CCc3ccccc3C2)cc2c(=O)n3ccccc3nc2n1Cc1ccccc1 (3D coordinates assigned)
[H]/N=c1/c(C(=O)N2CCc3ccccc3C2)cc2c(=O)n3ccccc3nc2n1Cc1ccccc1 (nonaromatic ring conformer: 93.21232330012761 kcal/mol)

>  <smiles>  (7) 
N=c1c(C(=O)N2CCc3ccccc3C2)cc2c(=O)n3ccccc3nc2n1Cc1ccccc1

>  <score_type>  (7) 
oracle

>  <origin>  (7) 
autodockgpu

>  <m_score__min__energy>  (7) 
-9.2699999999999996

>  <m_primary>  (7) 
energy

>  <meeko>  (7) 
{"free_energy": -8.62, "intermolecular_energy": -10.11, "internal_energy": -1.59, "cluster_size": 1, "cluster_id": 2, "rank_in_cluster": 1}

>  <energy>  (7) 
-9.27

>  <cluster_rmsd>  (7) 
0.04

>  <rmsd>  (7) 
269.72

>  <cluster>  (7) 
1

$$$$
DRTNTVLZUVPGHX-GNVQSUKONA-N
     RDKit          3D

 58 63  0  0  0  0  0  0  0  0999 V2000
  137.8570   74.4600  223.0810 H   0  0  0  0  0  0  0  0  0  0  0  0
  138.2560   73.8740  222.3210 N   0  0  0  0  0  0  0  0  0  0  0  0
  139.4930   73.8380  221.9120 C   0  0  0  0  0  0  0  0  0  0  0  0
  140.1610   75.0700  221.7250 C   0  0  0  0  0  0  0  0  0  0  0  0
  139.5300   76.3690  222.0780 C   0  0  0  0  0  0  0  0  0  0  0  0
  138.5720   76.3900  222.8980 O   0  0  0  0  0  0  0  0  0  0  0  0
  140.0130   77.6050  221.5170 N   0  0  0  0  0  0  0  0  0  0  0  0
  141.4400   77.9390  221.5540 C   0  0  0  0  0  0  0  0  0  0  0  0
  141.7897   78.1455  220.5317 H   0  0  0  0  0  0  0  0  0  0  0  0
  141.9925   77.0887  221.9804 H   0  0  0  0  0  0  0  0  0  0  0  0
  141.6780   79.1540  222.4140 C   0  0  0  0  0  0  0  0  0  0  0  0
  142.9840   79.4530  222.8330 C   0  0  0  0  0  0  0  0  0  0  0  0
  143.8115   78.7795  222.5656 H   0  0  0  0  0  0  0  0  0  0  0  0
  143.2390   80.6000  223.5870 C   0  0  0  0  0  0  0  0  0  0  0  0
  144.2640   80.8222  223.9187 H   0  0  0  0  0  0  0  0  0  0  0  0
  142.1950   81.4660  223.9210 C   0  0  0  0  0  0  0  0  0  0  0  0
  142.3991   82.3679  224.5168 H   0  0  0  0  0  0  0  0  0  0  0  0
  140.8930   81.1890  223.5000 C   0  0  0  0  0  0  0  0  0  0  0  0
  140.0739   81.8705  223.7732 H   0  0  0  0  0  0  0  0  0  0  0  0
  140.6220   80.0460  222.7300 C   0  0  0  0  0  0  0  0  0  0  0  0
  139.1900   79.7420  222.3490 C   0  0  0  0  0  0  0  0  0  0  0  0
  138.7083   80.6725  222.0141 H   0  0  0  0  0  0  0  0  0  0  0  0
  138.6883   79.3250  223.2347 H   0  0  0  0  0  0  0  0  0  0  0  0
  139.0930   78.7070  221.2270 C   0  0  0  0  0  0  0  0  0  0  0  0
  139.3665   79.1739  220.2693 H   0  0  0  0  0  0  0  0  0  0  0  0
  138.0636   78.3252  221.1603 H   0  0  0  0  0  0  0  0  0  0  0  0
  141.4540   75.0740  221.2020 C   0  0  0  0  0  0  0  0  0  0  0  0
  141.9812   76.0283  221.0559 H   0  0  0  0  0  0  0  0  0  0  0  0
  142.0830   73.8760  220.8630 C   0  0  0  0  0  0  0  0  0  0  0  0
  143.3800   73.8470  220.3100 C   0  0  0  0  0  0  0  0  0  0  0  0
  143.9980   74.9320  220.1100 O   0  0  0  0  0  0  0  0  0  0  0  0
  143.9660   72.6460  219.9890 N   0  0  0  0  0  0  0  0  0  0  0  0
  145.2270   72.6020  219.4470 C   0  0  0  0  0  0  0  0  0  0  0  0
  145.7752   73.5392  219.2706 H   0  0  0  0  0  0  0  0  0  0  0  0
  145.8220   71.3830  219.1170 C   0  0  0  0  0  0  0  0  0  0  0  0
  146.8328   71.3595  218.6838 H   0  0  0  0  0  0  0  0  0  0  0  0
  145.1270   70.1970  219.3400 C   0  0  0  0  0  0  0  0  0  0  0  0
  145.5860   69.2308  219.0834 H   0  0  0  0  0  0  0  0  0  0  0  0
  143.8490   70.2400  219.8890 C   0  0  0  0  0  0  0  0  0  0  0  0
  143.2916   69.3087  220.0677 H   0  0  0  0  0  0  0  0  0  0  0  0
  143.2780   71.4750  220.2120 C   0  0  0  0  0  0  0  0  0  0  0  0
  142.0330   71.5030  220.7490 N   0  0  0  0  0  0  0  0  0  0  0  0
  141.4100   72.6640  221.0840 C   0  0  0  0  0  0  0  0  0  0  0  0
  140.1400   72.6440  221.6230 N   0  0  0  0  0  0  0  0  0  0  0  0
  139.5170   71.3200  221.8660 C   0  0  0  0  0  0  0  0  0  0  0  0
  138.4426   71.3809  221.6381 H   0  0  0  0  0  0  0  0  0  0  0  0
  140.0074   70.5782  221.2184 H   0  0  0  0  0  0  0  0  0  0  0  0
  139.6930   70.8940  223.3030 C   0  0  0  0  0  0  0  0  0  0  0  0
  138.8800   69.8820  223.8460 C   0  0  0  0  0  0  0  0  0  0  0  0
  138.1225   69.3921  223.2166 H   0  0  0  0  0  0  0  0  0  0  0  0
  139.0300   69.4960  225.1810 C   0  0  0  0  0  0  0  0  0  0  0  0
  138.3912   68.7037  225.5983 H   0  0  0  0  0  0  0  0  0  0  0  0
  139.9890   70.1140  225.9860 C   0  0  0  0  0  0  0  0  0  0  0  0
  140.1041   69.8106  227.0370 H   0  0  0  0  0  0  0  0  0  0  0  0
  140.8020   71.1180  225.4550 C   0  0  0  0  0  0  0  0  0  0  0  0
  141.5587   71.6034  226.0889 H   0  0  0  0  0  0  0  0  0  0  0  0
  140.6570   71.5080  224.1200 C   0  0  0  0  0  0  0  0  0  0  0  0
  141.3006   72.2991  223.7077 H   0  0  0  0  0  0  0  0  0  0  0  0
  1  2  1  0
  2  3  2  0
  3  4  1  0
  4  5  1  0
  5  6  2  0
  5  7  1  0
  7  8  1  0
  8  9  1  0
  8 10  1  0
  8 11  1  0
 11 12  2  0
 12 13  1  0
 12 14  1  0
 14 15  1  0
 14 16  2  0
 16 17  1  0
 16 18  1  0
 18 19  1  0
 18 20  2  0
 20 21  1  0
 21 22  1  0
 21 23  1  0
 21 24  1  0
 24 25  1  0
 24 26  1  0
  4 27  2  0
 27 28  1  0
 27 29  1  0
 29 30  1  0
 30 31  2  0
 30 32  1  0
 32 33  1  0
 33 34  1  0
 33 35  2  0
 35 36  1  0
 35 37  1  0
 37 38  1  0
 37 39  2  0
 39 40  1  0
 39 41  1  0
 41 42  2  0
 42 43  1  0
 43 44  1  0
 44 45  1  0
 45 46  1  0
 45 47  1  0
 45 48  1  0
 48 49  2  0
 49 50  1  0
 49 51  1  0
 51 52  1  0
 51 53  2  0
 53 54  1  0
 53 55  1  0
 55 56  1  0
 55 57  2  0
 57 58  1  0
 44  3  1  0
 57 48  1  0
 24  7  1  0
 43 29  2  0
 20 11  1  0
 41 32  1  0
M  END
>  <UniqueID>  (8) 
125

>  <SMILES>  (8) 
[H]/N=c1/c(C(=O)N2CCc3ccccc3C2)cc2c(=O)n3ccccc3nc2n1Cc1ccccc1

>  <Energy>  (8) 
93.21232330012761

>  <Genealogy>  (8) 
[H]/N=c1/c(C(=O)N2CCc3ccccc3C2)cc2c(=O)n3ccccc3nc2n1Cc1ccccc1 (cis-trans isomerization)
[H]/N=c1/c(C(=O)N2CCc3ccccc3C2)cc2c(=O)n3ccccc3nc2n1Cc1ccccc1 (3D coordinates assigned)
[H]/N=c1/c(C(=O)N2CCc3ccccc3C2)cc2c(=O)n3ccccc3nc2n1Cc1ccccc1 (nonaromatic ring conformer: 93.21232330012761 kcal/mol)

>  <smiles>  (8) 
N=c1c(C(=O)N2CCc3ccccc3C2)cc2c(=O)n3ccccc3nc2n1Cc1ccccc1

>  <score_type>  (8) 
oracle

>  <origin>  (8) 
autodockgpu

>  <m_score__min__energy>  (8) 
-9.2699999999999996

>  <m_primary>  (8) 
energy

>  <meeko>  (8) 
{"free_energy": -9.27, "intermolecular_energy": -10.76, "internal_energy": -1.37, "cluster_size": 14, "cluster_id": 1, "rank_in_cluster": 2}

>  <energy>  (8) 
-9.26

>  <cluster_rmsd>  (8) 
0.04

>  <rmsd>  (8) 
269.73

>  <cluster>  (8) 
1

$$$$
DRTNTVLZUVPGHX-GNVQSUKONA-N
     RDKit          3D

 58 63  0  0  0  0  0  0  0  0999 V2000
  137.8540   74.4640  223.0880 H   0  0  0  0  0  0  0  0  0  0  0  0
  138.2530   73.8710  222.3330 N   0  0  0  0  0  0  0  0  0  0  0  0
  139.4900   73.8320  221.9230 C   0  0  0  0  0  0  0  0  0  0  0  0
  140.1600   75.0630  221.7360 C   0  0  0  0  0  0  0  0  0  0  0  0
  139.5310   76.3630  222.0900 C   0  0  0  0  0  0  0  0  0  0  0  0
  138.5730   76.3860  222.9100 O   0  0  0  0  0  0  0  0  0  0  0  0
  140.0180   77.5990  221.5320 N   0  0  0  0  0  0  0  0  0  0  0  0
  141.4430   77.9380  221.5870 C   0  0  0  0  0  0  0  0  0  0  0  0
  141.8057   78.1417  220.5687 H   0  0  0  0  0  0  0  0  0  0  0  0
  141.9922   77.0912  222.0244 H   0  0  0  0  0  0  0  0  0  0  0  0
  141.6660   79.1580  222.4460 C   0  0  0  0  0  0  0  0  0  0  0  0
  142.9650   79.4620  222.8810 C   0  0  0  0  0  0  0  0  0  0  0  0
  143.7981   78.7902  222.6269 H   0  0  0  0  0  0  0  0  0  0  0  0
  143.2060   80.6130  223.6350 C   0  0  0  0  0  0  0  0  0  0  0  0
  144.2258   80.8401  223.9790 H   0  0  0  0  0  0  0  0  0  0  0  0
  142.1550   81.4760  223.9530 C   0  0  0  0  0  0  0  0  0  0  0  0
  142.3477   82.3803  224.5489 H   0  0  0  0  0  0  0  0  0  0  0  0
  140.8590   81.1920  223.5150 C   0  0  0  0  0  0  0  0  0  0  0  0
  140.0337   81.8711  223.7752 H   0  0  0  0  0  0  0  0  0  0  0  0
  140.6020   80.0460  222.7450 C   0  0  0  0  0  0  0  0  0  0  0  0
  139.1760   79.7370  222.3460 C   0  0  0  0  0  0  0  0  0  0  0  0
  138.6965   80.6648  222.0005 H   0  0  0  0  0  0  0  0  0  0  0  0
  138.6627   79.3228  223.2263 H   0  0  0  0  0  0  0  0  0  0  0  0
  139.0980   78.6970  221.2270 C   0  0  0  0  0  0  0  0  0  0  0  0
  139.3821   79.1615  220.2712 H   0  0  0  0  0  0  0  0  0  0  0  0
  138.0710   78.3108  221.1493 H   0  0  0  0  0  0  0  0  0  0  0  0
  141.4520   75.0660  221.2110 C   0  0  0  0  0  0  0  0  0  0  0  0
  141.9802   76.0197  221.0648 H   0  0  0  0  0  0  0  0  0  0  0  0
  142.0790   73.8670  220.8700 C   0  0  0  0  0  0  0  0  0  0  0  0
  143.3750   73.8360  220.3160 C   0  0  0  0  0  0  0  0  0  0  0  0
  143.9940   74.9200  220.1160 O   0  0  0  0  0  0  0  0  0  0  0  0
  143.9580   72.6350  219.9930 N   0  0  0  0  0  0  0  0  0  0  0  0
  145.2190   72.5890  219.4490 C   0  0  0  0  0  0  0  0  0  0  0  0
  145.7688   73.5252  219.2722 H   0  0  0  0  0  0  0  0  0  0  0  0
  145.8110   71.3690  219.1180 C   0  0  0  0  0  0  0  0  0  0  0  0
  146.8217   71.3438  218.6845 H   0  0  0  0  0  0  0  0  0  0  0  0
  145.1140   70.1840  219.3400 C   0  0  0  0  0  0  0  0  0  0  0  0
  145.5702   69.2173  219.0802 H   0  0  0  0  0  0  0  0  0  0  0  0
  143.8380   70.2290  219.8920 C   0  0  0  0  0  0  0  0  0  0  0  0
  143.2801   69.2983  220.0725 H   0  0  0  0  0  0  0  0  0  0  0  0
  143.2690   71.4640  220.2160 C   0  0  0  0  0  0  0  0  0  0  0  0
  142.0240   71.4940  220.7550 N   0  0  0  0  0  0  0  0  0  0  0  0
  141.4040   72.6560  221.0910 C   0  0  0  0  0  0  0  0  0  0  0  0
  140.1340   72.6380  221.6320 N   0  0  0  0  0  0  0  0  0  0  0  0
  139.5090   71.3150  221.8750 C   0  0  0  0  0  0  0  0  0  0  0  0
  138.4343   71.3782  221.6493 H   0  0  0  0  0  0  0  0  0  0  0  0
  139.9968   70.5730  221.2257 H   0  0  0  0  0  0  0  0  0  0  0  0
  139.6870   70.8870  223.3110 C   0  0  0  0  0  0  0  0  0  0  0  0
  138.8660   69.8830  223.8570 C   0  0  0  0  0  0  0  0  0  0  0  0
  138.1016   69.4002  223.2304 H   0  0  0  0  0  0  0  0  0  0  0  0
  139.0170   69.4960  225.1920 C   0  0  0  0  0  0  0  0  0  0  0  0
  138.3719   68.7102  225.6121 H   0  0  0  0  0  0  0  0  0  0  0  0
  139.9850   70.1050  225.9930 C   0  0  0  0  0  0  0  0  0  0  0  0
  140.1005   69.8010  227.0438 H   0  0  0  0  0  0  0  0  0  0  0  0
  140.8070   71.1010  225.4590 C   0  0  0  0  0  0  0  0  0  0  0  0
  141.5714   71.5783  226.0898 H   0  0  0  0  0  0  0  0  0  0  0  0
  140.6600   71.4920  224.1250 C   0  0  0  0  0  0  0  0  0  0  0  0
  141.3092   72.2772  223.7102 H   0  0  0  0  0  0  0  0  0  0  0  0
  1  2  1  0
  2  3  2  0
  3  4  1  0
  4  5  1  0
  5  6  2  0
  5  7  1  0
  7  8  1  0
  8  9  1  0
  8 10  1  0
  8 11  1  0
 11 12  2  0
 12 13  1  0
 12 14  1  0
 14 15  1  0
 14 16  2  0
 16 17  1  0
 16 18  1  0
 18 19  1  0
 18 20  2  0
 20 21  1  0
 21 22  1  0
 21 23  1  0
 21 24  1  0
 24 25  1  0
 24 26  1  0
  4 27  2  0
 27 28  1  0
 27 29  1  0
 29 30  1  0
 30 31  2  0
 30 32  1  0
 32 33  1  0
 33 34  1  0
 33 35  2  0
 35 36  1  0
 35 37  1  0
 37 38  1  0
 37 39  2  0
 39 40  1  0
 39 41  1  0
 41 42  2  0
 42 43  1  0
 43 44  1  0
 44 45  1  0
 45 46  1  0
 45 47  1  0
 45 48  1  0
 48 49  2  0
 49 50  1  0
 49 51  1  0
 51 52  1  0
 51 53  2  0
 53 54  1  0
 53 55  1  0
 55 56  1  0
 55 57  2  0
 57 58  1  0
 44  3  1  0
 57 48  1  0
 24  7  1  0
 43 29  2  0
 20 11  1  0
 41 32  1  0
M  END
>  <UniqueID>  (9) 
125

>  <SMILES>  (9) 
[H]/N=c1/c(C(=O)N2CCc3ccccc3C2)cc2c(=O)n3ccccc3nc2n1Cc1ccccc1

>  <Energy>  (9) 
93.21232330012761

>  <Genealogy>  (9) 
[H]/N=c1/c(C(=O)N2CCc3ccccc3C2)cc2c(=O)n3ccccc3nc2n1Cc1ccccc1 (cis-trans isomerization)
[H]/N=c1/c(C(=O)N2CCc3ccccc3C2)cc2c(=O)n3ccccc3nc2n1Cc1ccccc1 (3D coordinates assigned)
[H]/N=c1/c(C(=O)N2CCc3ccccc3C2)cc2c(=O)n3ccccc3nc2n1Cc1ccccc1 (nonaromatic ring conformer: 93.21232330012761 kcal/mol)

>  <smiles>  (9) 
N=c1c(C(=O)N2CCc3ccccc3C2)cc2c(=O)n3ccccc3nc2n1Cc1ccccc1

>  <score_type>  (9) 
oracle

>  <origin>  (9) 
autodockgpu

>  <m_score__min__energy>  (9) 
-9.2699999999999996

>  <m_primary>  (9) 
energy

>  <meeko>  (9) 
{"free_energy": -9.26, "intermolecular_energy": -10.75, "internal_energy": -1.38, "cluster_size": 14, "cluster_id": 1, "rank_in_cluster": 10}

>  <energy>  (9) 
-9.26

>  <cluster_rmsd>  (9) 
0.04

>  <rmsd>  (9) 
269.73

>  <cluster>  (9) 
1

$$$$
DRTNTVLZUVPGHX-GNVQSUKONA-N
     RDKit          3D

 58 63  0  0  0  0  0  0  0  0999 V2000
  137.8310   74.3120  223.0680 H   0  0  0  0  0  0  0  0  0  0  0  0
  138.2330   73.8070  222.2530 N   0  0  0  0  0  0  0  0  0  0  0  0
  139.4800   73.7690  221.8770 C   0  0  0  0  0  0  0  0  0  0  0  0
  140.1650   74.9990  221.7440 C   0  0  0  0  0  0  0  0  0  0  0  0
  139.5370   76.2940  222.1180 C   0  0  0  0  0  0  0  0  0  0  0  0
  138.6110   76.3090  222.9740 O   0  0  0  0  0  0  0  0  0  0  0  0
  139.9890   77.5320  221.5370 N   0  0  0  0  0  0  0  0  0  0  0  0
  141.4110   77.8900  221.5450 C   0  0  0  0  0  0  0  0  0  0  0  0
  141.7388   78.0919  220.5146 H   0  0  0  0  0  0  0  0  0  0  0  0
  141.9852   77.0534  221.9697 H   0  0  0  0  0  0  0  0  0  0  0  0
  141.6440   79.1180  222.3890 C   0  0  0  0  0  0  0  0  0  0  0  0
  142.9520   79.4420  222.7810 C   0  0  0  0  0  0  0  0  0  0  0  0
  143.7854   78.7796  222.5044 H   0  0  0  0  0  0  0  0  0  0  0  0
  143.2020   80.6000  223.5200 C   0  0  0  0  0  0  0  0  0  0  0  0
  144.2291   80.8424  223.8302 H   0  0  0  0  0  0  0  0  0  0  0  0
  142.1500   81.4510  223.8660 C   0  0  0  0  0  0  0  0  0  0  0  0
  142.3498   82.3616  224.4499 H   0  0  0  0  0  0  0  0  0  0  0  0
  140.8450   81.1480  223.4720 C   0  0  0  0  0  0  0  0  0  0  0  0
  140.0196   81.8178  223.7550 H   0  0  0  0  0  0  0  0  0  0  0  0
  140.5790   79.9940  222.7170 C   0  0  0  0  0  0  0  0  0  0  0  0
  139.1450   79.6640  222.3660 C   0  0  0  0  0  0  0  0  0  0  0  0
  138.6424   80.5833  222.0308 H   0  0  0  0  0  0  0  0  0  0  0  0
  138.6657   79.2488  223.2648 H   0  0  0  0  0  0  0  0  0  0  0  0
  139.0450   78.6160  221.2560 C   0  0  0  0  0  0  0  0  0  0  0  0
  139.2917   79.0784  220.2889 H   0  0  0  0  0  0  0  0  0  0  0  0
  138.0213   78.2157  221.2141 H   0  0  0  0  0  0  0  0  0  0  0  0
  141.4720   75.0060  221.2570 C   0  0  0  0  0  0  0  0  0  0  0  0
  142.0124   75.9586  221.1545 H   0  0  0  0  0  0  0  0  0  0  0  0
  142.0980   73.8110  220.8990 C   0  0  0  0  0  0  0  0  0  0  0  0
  143.4090   73.7850  220.3810 C   0  0  0  0  0  0  0  0  0  0  0  0
  144.0430   74.8680  220.2300 O   0  0  0  0  0  0  0  0  0  0  0  0
  143.9920   72.5880  220.0400 N   0  0  0  0  0  0  0  0  0  0  0  0
  145.2670   72.5470  219.5310 C   0  0  0  0  0  0  0  0  0  0  0  0
  145.8288   73.4832  219.3974 H   0  0  0  0  0  0  0  0  0  0  0  0
  145.8590   71.3320  219.1810 C   0  0  0  0  0  0  0  0  0  0  0  0
  146.8809   71.3108  218.7745 H   0  0  0  0  0  0  0  0  0  0  0  0
  145.1470   70.1470  219.3500 C   0  0  0  0  0  0  0  0  0  0  0  0
  145.6036   69.1842  219.0770 H   0  0  0  0  0  0  0  0  0  0  0  0
  143.8550   70.1870  219.8660 C   0  0  0  0  0  0  0  0  0  0  0  0
  143.2843   69.2566  220.0024 H   0  0  0  0  0  0  0  0  0  0  0  0
  143.2870   71.4180  220.2100 C   0  0  0  0  0  0  0  0  0  0  0  0
  142.0280   71.4430  220.7130 N   0  0  0  0  0  0  0  0  0  0  0  0
  141.4070   72.6000  221.0660 C   0  0  0  0  0  0  0  0  0  0  0  0
  140.1230   72.5780  221.5700 N   0  0  0  0  0  0  0  0  0  0  0  0
  139.4810   71.2540  221.7560 C   0  0  0  0  0  0  0  0  0  0  0  0
  138.4114   71.3356  221.5126 H   0  0  0  0  0  0  0  0  0  0  0  0
  139.9736   70.5294  221.0910 H   0  0  0  0  0  0  0  0  0  0  0  0
  139.6280   70.7760  223.1810 C   0  0  0  0  0  0  0  0  0  0  0  0
  140.3760   71.5280  224.1050 C   0  0  0  0  0  0  0  0  0  0  0  0
  140.8436   72.4729  223.7909 H   0  0  0  0  0  0  0  0  0  0  0  0
  140.5280   71.0800  225.4210 C   0  0  0  0  0  0  0  0  0  0  0  0
  141.1144   71.6728  226.1384 H   0  0  0  0  0  0  0  0  0  0  0  0
  139.9370   69.8820  225.8260 C   0  0  0  0  0  0  0  0  0  0  0  0
  140.0594   69.5303  226.8611 H   0  0  0  0  0  0  0  0  0  0  0  0
  139.1900   69.1300  224.9160 C   0  0  0  0  0  0  0  0  0  0  0  0
  138.7227   68.1871  225.2364 H   0  0  0  0  0  0  0  0  0  0  0  0
  139.0350   69.5730  223.5990 C   0  0  0  0  0  0  0  0  0  0  0  0
  138.4459   68.9767  222.8867 H   0  0  0  0  0  0  0  0  0  0  0  0
  1  2  1  0
  2  3  2  0
  3  4  1  0
  4  5  1  0
  5  6  2  0
  5  7  1  0
  7  8  1  0
  8  9  1  0
  8 10  1  0
  8 11  1  0
 11 12  2  0
 12 13  1  0
 12 14  1  0
 14 15  1  0
 14 16  2  0
 16 17  1  0
 16 18  1  0
 18 19  1  0
 18 20  2  0
 20 21  1  0
 21 22  1  0
 21 23  1  0
 21 24  1  0
 24 25  1  0
 24 26  1  0
  4 27  2  0
 27 28  1  0
 27 29  1  0
 29 30  1  0
 30 31  2  0
 30 32  1  0
 32 33  1  0
 33 34  1  0
 33 35  2  0
 35 36  1  0
 35 37  1  0
 37 38  1  0
 37 39  2  0
 39 40  1  0
 39 41  1  0
 41 42  2  0
 42 43  1  0
 43 44  1  0
 44 45  1  0
 45 46  1  0
 45 47  1  0
 45 48  1  0
 48 49  2  0
 49 50  1  0
 49 51  1  0
 51 52  1  0
 51 53  2  0
 53 54  1  0
 53 55  1  0
 55 56  1  0
 55 57  2  0
 57 58  1  0
 44  3  1  0
 57 48  1  0
 24  7  1  0
 43 29  2  0
 20 11  1  0
 41 32  1  0
M  END
>  <UniqueID>  (10) 
125

>  <SMILES>  (10) 
[H]/N=c1/c(C(=O)N2CCc3ccccc3C2)cc2c(=O)n3ccccc3nc2n1Cc1ccccc1

>  <Energy>  (10) 
93.21232330012761

>  <Genealogy>  (10) 
[H]/N=c1/c(C(=O)N2CCc3ccccc3C2)cc2c(=O)n3ccccc3nc2n1Cc1ccccc1 (cis-trans isomerization)
[H]/N=c1/c(C(=O)N2CCc3ccccc3C2)cc2c(=O)n3ccccc3nc2n1Cc1ccccc1 (3D coordinates assigned)
[H]/N=c1/c(C(=O)N2CCc3ccccc3C2)cc2c(=O)n3ccccc3nc2n1Cc1ccccc1 (nonaromatic ring conformer: 93.21232330012761 kcal/mol)

>  <smiles>  (10) 
N=c1c(C(=O)N2CCc3ccccc3C2)cc2c(=O)n3ccccc3nc2n1Cc1ccccc1

>  <score_type>  (10) 
oracle

>  <origin>  (10) 
autodockgpu

>  <m_score__min__energy>  (10) 
-9.2699999999999996

>  <m_primary>  (10) 
energy

>  <meeko>  (10) 
{"free_energy": -9.22, "intermolecular_energy": -10.71, "internal_energy": -1.39, "cluster_size": 14, "cluster_id": 1, "rank_in_cluster": 14}

>  <energy>  (10) 
-9.26

>  <cluster_rmsd>  (10) 
0.02

>  <rmsd>  (10) 
269.72

>  <cluster>  (10) 
1

$$$$
DRTNTVLZUVPGHX-GNVQSUKONA-N
     RDKit          3D

 58 63  0  0  0  0  0  0  0  0999 V2000
  137.8530   74.4620  223.0880 H   0  0  0  0  0  0  0  0  0  0  0  0
  138.2490   73.8880  222.3170 N   0  0  0  0  0  0  0  0  0  0  0  0
  139.4870   73.8500  221.9090 C   0  0  0  0  0  0  0  0  0  0  0  0
  140.1560   75.0820  221.7230 C   0  0  0  0  0  0  0  0  0  0  0  0
  139.5250   76.3810  222.0760 C   0  0  0  0  0  0  0  0  0  0  0  0
  138.5630   76.4020  222.8910 O   0  0  0  0  0  0  0  0  0  0  0  0
  140.0140   77.6180  221.5210 N   0  0  0  0  0  0  0  0  0  0  0  0
  141.4390   77.9560  221.5810 C   0  0  0  0  0  0  0  0  0  0  0  0
  141.8046   78.1619  220.5642 H   0  0  0  0  0  0  0  0  0  0  0  0
  141.9861   77.1077  222.0182 H   0  0  0  0  0  0  0  0  0  0  0  0
  141.6610   79.1730  222.4430 C   0  0  0  0  0  0  0  0  0  0  0  0
  142.9590   79.4760  222.8820 C   0  0  0  0  0  0  0  0  0  0  0  0
  143.7924   78.8042  222.6290 H   0  0  0  0  0  0  0  0  0  0  0  0
  143.1990   80.6250  223.6380 C   0  0  0  0  0  0  0  0  0  0  0  0
  144.2182   80.8512  223.9846 H   0  0  0  0  0  0  0  0  0  0  0  0
  142.1470   81.4880  223.9550 C   0  0  0  0  0  0  0  0  0  0  0  0
  142.3388   82.3911  224.5530 H   0  0  0  0  0  0  0  0  0  0  0  0
  140.8530   81.2060  223.5140 C   0  0  0  0  0  0  0  0  0  0  0  0
  140.0276   81.8851  223.7740 H   0  0  0  0  0  0  0  0  0  0  0  0
  140.5970   80.0620  222.7410 C   0  0  0  0  0  0  0  0  0  0  0  0
  139.1710   79.7540  222.3380 C   0  0  0  0  0  0  0  0  0  0  0  0
  138.6922   80.6826  221.9940 H   0  0  0  0  0  0  0  0  0  0  0  0
  138.6556   79.3377  223.2161 H   0  0  0  0  0  0  0  0  0  0  0  0
  139.0960   78.7170  221.2160 C   0  0  0  0  0  0  0  0  0  0  0  0
  139.3835   79.1839  220.2624 H   0  0  0  0  0  0  0  0  0  0  0  0
  138.0690   78.3316  221.1340 H   0  0  0  0  0  0  0  0  0  0  0  0
  141.4490   75.0860  221.2010 C   0  0  0  0  0  0  0  0  0  0  0  0
  141.9768   76.0402  221.0562 H   0  0  0  0  0  0  0  0  0  0  0  0
  142.0780   73.8870  220.8610 C   0  0  0  0  0  0  0  0  0  0  0  0
  143.3750   73.8580  220.3100 C   0  0  0  0  0  0  0  0  0  0  0  0
  143.9930   74.9420  220.1100 O   0  0  0  0  0  0  0  0  0  0  0  0
  143.9600   72.6570  219.9880 N   0  0  0  0  0  0  0  0  0  0  0  0
  145.2220   72.6120  219.4460 C   0  0  0  0  0  0  0  0  0  0  0  0
  145.7710   73.5488  219.2700 H   0  0  0  0  0  0  0  0  0  0  0  0
  145.8160   71.3930  219.1160 C   0  0  0  0  0  0  0  0  0  0  0  0
  146.8271   71.3687  218.6835 H   0  0  0  0  0  0  0  0  0  0  0  0
  145.1200   70.2080  219.3380 C   0  0  0  0  0  0  0  0  0  0  0  0
  145.5786   69.2417  219.0812 H   0  0  0  0  0  0  0  0  0  0  0  0
  143.8420   70.2510  219.8860 C   0  0  0  0  0  0  0  0  0  0  0  0
  143.2841   69.3197  220.0633 H   0  0  0  0  0  0  0  0  0  0  0  0
  143.2710   71.4860  220.2100 C   0  0  0  0  0  0  0  0  0  0  0  0
  142.0260   71.5150  220.7460 N   0  0  0  0  0  0  0  0  0  0  0  0
  141.4030   72.6750  221.0810 C   0  0  0  0  0  0  0  0  0  0  0  0
  140.1330   72.6560  221.6200 N   0  0  0  0  0  0  0  0  0  0  0  0
  139.5090   71.3330  221.8610 C   0  0  0  0  0  0  0  0  0  0  0  0
  138.4361   71.3931  221.6259 H   0  0  0  0  0  0  0  0  0  0  0  0
  140.0034   70.5900  221.2179 H   0  0  0  0  0  0  0  0  0  0  0  0
  139.6760   70.9100  223.3010 C   0  0  0  0  0  0  0  0  0  0  0  0
  140.6550   71.5170  224.1080 C   0  0  0  0  0  0  0  0  0  0  0  0
  141.2921   72.3109  223.6911 H   0  0  0  0  0  0  0  0  0  0  0  0
  140.8230   71.1170  225.4370 C   0  0  0  0  0  0  0  0  0  0  0  0
  141.5907   71.5966  226.0620 H   0  0  0  0  0  0  0  0  0  0  0  0
  140.0180   70.1100  225.9720 C   0  0  0  0  0  0  0  0  0  0  0  0
  140.1526   69.7951  227.0173 H   0  0  0  0  0  0  0  0  0  0  0  0
  139.0410   69.5020  225.1790 C   0  0  0  0  0  0  0  0  0  0  0  0
  138.4061   68.7094  225.6016 H   0  0  0  0  0  0  0  0  0  0  0  0
  138.8690   69.8990  223.8500 C   0  0  0  0  0  0  0  0  0  0  0  0
  138.0979   69.4176  223.2306 H   0  0  0  0  0  0  0  0  0  0  0  0
  1  2  1  0
  2  3  2  0
  3  4  1  0
  4  5  1  0
  5  6  2  0
  5  7  1  0
  7  8  1  0
  8  9  1  0
  8 10  1  0
  8 11  1  0
 11 12  2  0
 12 13  1  0
 12 14  1  0
 14 15  1  0
 14 16  2  0
 16 17  1  0
 16 18  1  0
 18 19  1  0
 18 20  2  0
 20 21  1  0
 21 22  1  0
 21 23  1  0
 21 24  1  0
 24 25  1  0
 24 26  1  0
  4 27  2  0
 27 28  1  0
 27 29  1  0
 29 30  1  0
 30 31  2  0
 30 32  1  0
 32 33  1  0
 33 34  1  0
 33 35  2  0
 35 36  1  0
 35 37  1  0
 37 38  1  0
 37 39  2  0
 39 40  1  0
 39 41  1  0
 41 42  2  0
 42 43  1  0
 43 44  1  0
 44 45  1  0
 45 46  1  0
 45 47  1  0
 45 48  1  0
 48 49  2  0
 49 50  1  0
 49 51  1  0
 51 52  1  0
 51 53  2  0
 53 54  1  0
 53 55  1  0
 55 56  1  0
 55 57  2  0
 57 58  1  0
 44  3  1  0
 57 48  1  0
 24  7  1  0
 43 29  2  0
 20 11  1  0
 41 32  1  0
M  END
>  <UniqueID>  (11) 
125

>  <SMILES>  (11) 
[H]/N=c1/c(C(=O)N2CCc3ccccc3C2)cc2c(=O)n3ccccc3nc2n1Cc1ccccc1

>  <Energy>  (11) 
93.21232330012761

>  <Genealogy>  (11) 
[H]/N=c1/c(C(=O)N2CCc3ccccc3C2)cc2c(=O)n3ccccc3nc2n1Cc1ccccc1 (cis-trans isomerization)
[H]/N=c1/c(C(=O)N2CCc3ccccc3C2)cc2c(=O)n3ccccc3nc2n1Cc1ccccc1 (3D coordinates assigned)
[H]/N=c1/c(C(=O)N2CCc3ccccc3C2)cc2c(=O)n3ccccc3nc2n1Cc1ccccc1 (nonaromatic ring conformer: 93.21232330012761 kcal/mol)

>  <smiles>  (11) 
N=c1c(C(=O)N2CCc3ccccc3C2)cc2c(=O)n3ccccc3nc2n1Cc1ccccc1

>  <score_type>  (11) 
oracle

>  <origin>  (11) 
autodockgpu

>  <m_score__min__energy>  (11) 
-9.2699999999999996

>  <m_primary>  (11) 
energy

>  <meeko>  (11) 
{"free_energy": -9.27, "intermolecular_energy": -10.76, "internal_energy": -1.37, "cluster_size": 14, "cluster_id": 1, "rank_in_cluster": 6}

>  <energy>  (11) 
-9.26

>  <cluster_rmsd>  (11) 
0.05

>  <rmsd>  (11) 
269.72

>  <cluster>  (11) 
1

$$$$
DRTNTVLZUVPGHX-GNVQSUKONA-N
     RDKit          3D

 58 63  0  0  0  0  0  0  0  0999 V2000
  137.8580   74.4790  223.0770 H   0  0  0  0  0  0  0  0  0  0  0  0
  138.2610   73.8850  222.3240 N   0  0  0  0  0  0  0  0  0  0  0  0
  139.4990   73.8490  221.9160 C   0  0  0  0  0  0  0  0  0  0  0  0
  140.1660   75.0820  221.7310 C   0  0  0  0  0  0  0  0  0  0  0  0
  139.5340   76.3800  222.0860 C   0  0  0  0  0  0  0  0  0  0  0  0
  138.5750   76.4000  222.9050 O   0  0  0  0  0  0  0  0  0  0  0  0
  140.0180   77.6180  221.5290 N   0  0  0  0  0  0  0  0  0  0  0  0
  141.4420   77.9600  221.5840 C   0  0  0  0  0  0  0  0  0  0  0  0
  141.8040   78.1657  220.5658 H   0  0  0  0  0  0  0  0  0  0  0  0
  141.9934   77.1140  222.0201 H   0  0  0  0  0  0  0  0  0  0  0  0
  141.6620   79.1790  222.4440 C   0  0  0  0  0  0  0  0  0  0  0  0
  142.9600   79.4860  222.8800 C   0  0  0  0  0  0  0  0  0  0  0  0
  143.7947   78.8163  222.6253 H   0  0  0  0  0  0  0  0  0  0  0  0
  143.1990   80.6360  223.6350 C   0  0  0  0  0  0  0  0  0  0  0  0
  144.2182   80.8646  223.9799 H   0  0  0  0  0  0  0  0  0  0  0  0
  142.1450   81.4970  223.9530 C   0  0  0  0  0  0  0  0  0  0  0  0
  142.3356   82.4014  224.5494 H   0  0  0  0  0  0  0  0  0  0  0  0
  140.8510   81.2110  223.5150 C   0  0  0  0  0  0  0  0  0  0  0  0
  140.0242   81.8881  223.7756 H   0  0  0  0  0  0  0  0  0  0  0  0
  140.5970   80.0650  222.7440 C   0  0  0  0  0  0  0  0  0  0  0  0
  139.1710   79.7530  222.3440 C   0  0  0  0  0  0  0  0  0  0  0  0
  138.6895   80.6800  221.9993 H   0  0  0  0  0  0  0  0  0  0  0  0
  138.6583   79.3369  223.2237 H   0  0  0  0  0  0  0  0  0  0  0  0
  139.0960   78.7140  221.2240 C   0  0  0  0  0  0  0  0  0  0  0  0
  139.3799   79.1800  220.2689 H   0  0  0  0  0  0  0  0  0  0  0  0
  138.0698   78.3257  221.1449 H   0  0  0  0  0  0  0  0  0  0  0  0
  141.4590   75.0890  221.2090 C   0  0  0  0  0  0  0  0  0  0  0  0
  141.9855   76.0440  221.0651 H   0  0  0  0  0  0  0  0  0  0  0  0
  142.0890   73.8910  220.8680 C   0  0  0  0  0  0  0  0  0  0  0  0
  143.3860   73.8630  220.3160 C   0  0  0  0  0  0  0  0  0  0  0  0
  144.0030   74.9490  220.1180 O   0  0  0  0  0  0  0  0  0  0  0  0
  143.9730   72.6640  219.9940 N   0  0  0  0  0  0  0  0  0  0  0  0
  145.2350   72.6210  219.4520 C   0  0  0  0  0  0  0  0  0  0  0  0
  145.7833   73.5585  219.2776 H   0  0  0  0  0  0  0  0  0  0  0  0
  145.8300   71.4030  219.1200 C   0  0  0  0  0  0  0  0  0  0  0  0
  146.8407   71.3807  218.6865 H   0  0  0  0  0  0  0  0  0  0  0  0
  145.1360   70.2160  219.3410 C   0  0  0  0  0  0  0  0  0  0  0  0
  145.5956   69.2505  219.0830 H   0  0  0  0  0  0  0  0  0  0  0  0
  143.8580   70.2580  219.8900 C   0  0  0  0  0  0  0  0  0  0  0  0
  143.3016   69.3260  220.0681 H   0  0  0  0  0  0  0  0  0  0  0  0
  143.2850   71.4920  220.2140 C   0  0  0  0  0  0  0  0  0  0  0  0
  142.0400   71.5180  220.7510 N   0  0  0  0  0  0  0  0  0  0  0  0
  141.4160   72.6780  221.0870 C   0  0  0  0  0  0  0  0  0  0  0  0
  140.1460   72.6570  221.6260 N   0  0  0  0  0  0  0  0  0  0  0  0
  139.5230   71.3320  221.8660 C   0  0  0  0  0  0  0  0  0  0  0  0
  138.4515   71.3891  221.6240 H   0  0  0  0  0  0  0  0  0  0  0  0
  140.0230   70.5886  221.2277 H   0  0  0  0  0  0  0  0  0  0  0  0
  139.6820   70.9130  223.3080 C   0  0  0  0  0  0  0  0  0  0  0  0
  140.6650   71.5130  224.1150 C   0  0  0  0  0  0  0  0  0  0  0  0
  141.3109   72.2991  223.6968 H   0  0  0  0  0  0  0  0  0  0  0  0
  140.8260   71.1160  225.4460 C   0  0  0  0  0  0  0  0  0  0  0  0
  141.5965   71.5905  226.0715 H   0  0  0  0  0  0  0  0  0  0  0  0
  140.0100   70.1180  225.9820 C   0  0  0  0  0  0  0  0  0  0  0  0
  140.1395   69.8043  227.0283 H   0  0  0  0  0  0  0  0  0  0  0  0
  139.0290   69.5180  225.1890 C   0  0  0  0  0  0  0  0  0  0  0  0
  138.3848   68.7336  225.6129 H   0  0  0  0  0  0  0  0  0  0  0  0
  138.8640   69.9120  223.8580 C   0  0  0  0  0  0  0  0  0  0  0  0
  138.0899   69.4359  223.2382 H   0  0  0  0  0  0  0  0  0  0  0  0
  1  2  1  0
  2  3  2  0
  3  4  1  0
  4  5  1  0
  5  6  2  0
  5  7  1  0
  7  8  1  0
  8  9  1  0
  8 10  1  0
  8 11  1  0
 11 12  2  0
 12 13  1  0
 12 14  1  0
 14 15  1  0
 14 16  2  0
 16 17  1  0
 16 18  1  0
 18 19  1  0
 18 20  2  0
 20 21  1  0
 21 22  1  0
 21 23  1  0
 21 24  1  0
 24 25  1  0
 24 26  1  0
  4 27  2  0
 27 28  1  0
 27 29  1  0
 29 30  1  0
 30 31  2  0
 30 32  1  0
 32 33  1  0
 33 34  1  0
 33 35  2  0
 35 36  1  0
 35 37  1  0
 37 38  1  0
 37 39  2  0
 39 40  1  0
 39 41  1  0
 41 42  2  0
 42 43  1  0
 43 44  1  0
 44 45  1  0
 45 46  1  0
 45 47  1  0
 45 48  1  0
 48 49  2  0
 49 50  1  0
 49 51  1  0
 51 52  1  0
 51 53  2  0
 53 54  1  0
 53 55  1  0
 55 56  1  0
 55 57  2  0
 57 58  1  0
 44  3  1  0
 57 48  1  0
 24  7  1  0
 43 29  2  0
 20 11  1  0
 41 32  1  0
M  END
>  <UniqueID>  (12) 
125

>  <SMILES>  (12) 
[H]/N=c1/c(C(=O)N2CCc3ccccc3C2)cc2c(=O)n3ccccc3nc2n1Cc1ccccc1

>  <Energy>  (12) 
93.21232330012761

>  <Genealogy>  (12) 
[H]/N=c1/c(C(=O)N2CCc3ccccc3C2)cc2c(=O)n3ccccc3nc2n1Cc1ccccc1 (cis-trans isomerization)
[H]/N=c1/c(C(=O)N2CCc3ccccc3C2)cc2c(=O)n3ccccc3nc2n1Cc1ccccc1 (3D coordinates assigned)
[H]/N=c1/c(C(=O)N2CCc3ccccc3C2)cc2c(=O)n3ccccc3nc2n1Cc1ccccc1 (nonaromatic ring conformer: 93.21232330012761 kcal/mol)

>  <smiles>  (12) 
N=c1c(C(=O)N2CCc3ccccc3C2)cc2c(=O)n3ccccc3nc2n1Cc1ccccc1

>  <score_type>  (12) 
oracle

>  <origin>  (12) 
autodockgpu

>  <m_score__min__energy>  (12) 
-9.2699999999999996

>  <m_primary>  (12) 
energy

>  <meeko>  (12) 
{"free_energy": -9.26, "intermolecular_energy": -10.76, "internal_energy": -1.38, "cluster_size": 14, "cluster_id": 1, "rank_in_cluster": 8}

>  <energy>  (12) 
-9.26

>  <cluster_rmsd>  (12) 
0.04

>  <rmsd>  (12) 
269.71

>  <cluster>  (12) 
1

$$$$
DRTNTVLZUVPGHX-GNVQSUKONA-N
     RDKit          3D

 58 63  0  0  0  0  0  0  0  0999 V2000
  139.5210   74.5620  222.9770 H   0  0  0  0  0  0  0  0  0  0  0  0
  140.3010   74.3260  222.3320 N   0  0  0  0  0  0  0  0  0  0  0  0
  140.8050   75.0720  221.3880 C   0  0  0  0  0  0  0  0  0  0  0  0
  140.4820   76.4480  221.3950 C   0  0  0  0  0  0  0  0  0  0  0  0
  139.6870   77.0650  222.4890 C   0  0  0  0  0  0  0  0  0  0  0  0
  138.6230   76.5070  222.8730 O   0  0  0  0  0  0  0  0  0  0  0  0
  140.1270   78.2750  223.1360 N   0  0  0  0  0  0  0  0  0  0  0  0
  139.2740   79.4670  223.1590 C   0  0  0  0  0  0  0  0  0  0  0  0
  139.1278   79.7871  224.2012 H   0  0  0  0  0  0  0  0  0  0  0  0
  138.3062   79.2201  222.6981 H   0  0  0  0  0  0  0  0  0  0  0  0
  139.9120   80.5900  222.3800 C   0  0  0  0  0  0  0  0  0  0  0  0
  139.1340   81.7000  222.0170 C   0  0  0  0  0  0  0  0  0  0  0  0
  138.0631   81.7221  222.2671 H   0  0  0  0  0  0  0  0  0  0  0  0
  139.7110   82.7770  221.3400 C   0  0  0  0  0  0  0  0  0  0  0  0
  139.0923   83.6398  221.0521 H   0  0  0  0  0  0  0  0  0  0  0  0
  141.0730   82.7600  221.0280 C   0  0  0  0  0  0  0  0  0  0  0  0
  141.5243   83.6082  220.4924 H   0  0  0  0  0  0  0  0  0  0  0  0
  141.8620   81.6680  221.3950 C   0  0  0  0  0  0  0  0  0  0  0  0
  142.9319   81.6570  221.1398 H   0  0  0  0  0  0  0  0  0  0  0  0
  141.2990   80.5830  222.0880 C   0  0  0  0  0  0  0  0  0  0  0  0
  142.1700   79.3880  222.4100 C   0  0  0  0  0  0  0  0  0  0  0  0
  143.1387   79.7478  222.7871 H   0  0  0  0  0  0  0  0  0  0  0  0
  142.2904   78.8014  221.4873 H   0  0  0  0  0  0  0  0  0  0  0  0
  141.5400   78.4770  223.4640 C   0  0  0  0  0  0  0  0  0  0  0  0
  141.6251   78.9460  224.4554 H   0  0  0  0  0  0  0  0  0  0  0  0
  142.0608   77.5082  223.4772 H   0  0  0  0  0  0  0  0  0  0  0  0
  140.9260   77.2600  220.3520 C   0  0  0  0  0  0  0  0  0  0  0  0
  140.6806   78.3323  220.3518 H   0  0  0  0  0  0  0  0  0  0  0  0
  141.6800   76.7210  219.3080 C   0  0  0  0  0  0  0  0  0  0  0  0
  142.1240   77.5080  218.2270 C   0  0  0  0  0  0  0  0  0  0  0  0
  141.8350   78.7390  218.1900 O   0  0  0  0  0  0  0  0  0  0  0  0
  142.8640   76.9400  217.2180 N   0  0  0  0  0  0  0  0  0  0  0  0
  143.3010   77.6940  216.1560 C   0  0  0  0  0  0  0  0  0  0  0  0
  143.0584   78.7661  216.1151 H   0  0  0  0  0  0  0  0  0  0  0  0
  144.0490   77.1170  215.1280 C   0  0  0  0  0  0  0  0  0  0  0  0
  144.3940   77.7301  214.2824 H   0  0  0  0  0  0  0  0  0  0  0  0
  144.3550   75.7600  215.1810 C   0  0  0  0  0  0  0  0  0  0  0  0
  144.9430   75.2946  214.3763 H   0  0  0  0  0  0  0  0  0  0  0  0
  143.9140   74.9950  216.2560 C   0  0  0  0  0  0  0  0  0  0  0  0
  144.1517   73.9222  216.3062 H   0  0  0  0  0  0  0  0  0  0  0  0
  143.1670   75.5980  217.2720 C   0  0  0  0  0  0  0  0  0  0  0  0
  142.7440   74.8430  218.3160 N   0  0  0  0  0  0  0  0  0  0  0  0
  142.0110   75.3560  219.3380 C   0  0  0  0  0  0  0  0  0  0  0  0
  141.5980   74.5470  220.3770 N   0  0  0  0  0  0  0  0  0  0  0  0
  142.0280   73.1280  220.3550 C   0  0  0  0  0  0  0  0  0  0  0  0
  141.6623   72.6273  221.2636 H   0  0  0  0  0  0  0  0  0  0  0  0
  141.6109   72.6495  219.4566 H   0  0  0  0  0  0  0  0  0  0  0  0
  143.5320   73.0190  220.3030 C   0  0  0  0  0  0  0  0  0  0  0  0
  144.1400   71.8900  219.7230 C   0  0  0  0  0  0  0  0  0  0  0  0
  143.5159   71.0916  219.2951 H   0  0  0  0  0  0  0  0  0  0  0  0
  145.5330   71.7780  219.6880 C   0  0  0  0  0  0  0  0  0  0  0  0
  146.0012   70.8930  219.2325 H   0  0  0  0  0  0  0  0  0  0  0  0
  146.3310   72.7870  220.2300 C   0  0  0  0  0  0  0  0  0  0  0  0
  147.4269   72.6957  220.2037 H   0  0  0  0  0  0  0  0  0  0  0  0
  145.7370   73.9130  220.8060 C   0  0  0  0  0  0  0  0  0  0  0  0
  146.3663   74.7088  221.2311 H   0  0  0  0  0  0  0  0  0  0  0  0
  144.3440   74.0300  220.8430 C   0  0  0  0  0  0  0  0  0  0  0  0
  143.8816   74.9186  221.2975 H   0  0  0  0  0  0  0  0  0  0  0  0
  1  2  1  0
  2  3  2  0
  3  4  1  0
  4  5  1  0
  5  6  2  0
  5  7  1  0
  7  8  1  0
  8  9  1  0
  8 10  1  0
  8 11  1  0
 11 12  2  0
 12 13  1  0
 12 14  1  0
 14 15  1  0
 14 16  2  0
 16 17  1  0
 16 18  1  0
 18 19  1  0
 18 20  2  0
 20 21  1  0
 21 22  1  0
 21 23  1  0
 21 24  1  0
 24 25  1  0
 24 26  1  0
  4 27  2  0
 27 28  1  0
 27 29  1  0
 29 30  1  0
 30 31  2  0
 30 32  1  0
 32 33  1  0
 33 34  1  0
 33 35  2  0
 35 36  1  0
 35 37  1  0
 37 38  1  0
 37 39  2  0
 39 40  1  0
 39 41  1  0
 41 42  2  0
 42 43  1  0
 43 44  1  0
 44 45  1  0
 45 46  1  0
 45 47  1  0
 45 48  1  0
 48 49  2  0
 49 50  1  0
 49 51  1  0
 51 52  1  0
 51 53  2  0
 53 54  1  0
 53 55  1  0
 55 56  1  0
 55 57  2  0
 57 58  1  0
 44  3  1  0
 57 48  1  0
 24  7  1  0
 43 29  2  0
 20 11  1  0
 41 32  1  0
M  END
>  <UniqueID>  (13) 
125

>  <SMILES>  (13) 
[H]/N=c1/c(C(=O)N2CCc3ccccc3C2)cc2c(=O)n3ccccc3nc2n1Cc1ccccc1

>  <Energy>  (13) 
93.21232330012761

>  <Genealogy>  (13) 
[H]/N=c1/c(C(=O)N2CCc3ccccc3C2)cc2c(=O)n3ccccc3nc2n1Cc1ccccc1 (cis-trans isomerization)
[H]/N=c1/c(C(=O)N2CCc3ccccc3C2)cc2c(=O)n3ccccc3nc2n1Cc1ccccc1 (3D coordinates assigned)
[H]/N=c1/c(C(=O)N2CCc3ccccc3C2)cc2c(=O)n3ccccc3nc2n1Cc1ccccc1 (nonaromatic ring conformer: 93.21232330012761 kcal/mol)

>  <smiles>  (13) 
N=c1c(C(=O)N2CCc3ccccc3C2)cc2c(=O)n3ccccc3nc2n1Cc1ccccc1

>  <score_type>  (13) 
oracle

>  <origin>  (13) 
autodockgpu

>  <m_score__min__energy>  (13) 
-9.2699999999999996

>  <m_primary>  (13) 
energy

>  <meeko>  (13) 
{"free_energy": -8.48, "intermolecular_energy": -9.97, "internal_energy": -1.96, "cluster_size": 4, "cluster_id": 3, "rank_in_cluster": 3}

>  <energy>  (13) 
-9.25

>  <cluster_rmsd>  (13) 
0.05

>  <rmsd>  (13) 
269.71

>  <cluster>  (13) 
1

$$$$
DRTNTVLZUVPGHX-GNVQSUKONA-N
     RDKit          3D

 58 63  0  0  0  0  0  0  0  0999 V2000
  137.8380   74.4680  223.0700 H   0  0  0  0  0  0  0  0  0  0  0  0
  138.2360   73.8910  222.3020 N   0  0  0  0  0  0  0  0  0  0  0  0
  139.4750   73.8530  221.8970 C   0  0  0  0  0  0  0  0  0  0  0  0
  140.1450   75.0850  221.7130 C   0  0  0  0  0  0  0  0  0  0  0  0
  139.5140   76.3840  222.0640 C   0  0  0  0  0  0  0  0  0  0  0  0
  138.5490   76.4060  222.8760 O   0  0  0  0  0  0  0  0  0  0  0  0
  140.0060   77.6210  221.5130 N   0  0  0  0  0  0  0  0  0  0  0  0
  141.4320   77.9580  221.5790 C   0  0  0  0  0  0  0  0  0  0  0  0
  141.8022   78.1642  220.5639 H   0  0  0  0  0  0  0  0  0  0  0  0
  141.9773   77.1092  222.0175 H   0  0  0  0  0  0  0  0  0  0  0  0
  141.6500   79.1750  222.4430 C   0  0  0  0  0  0  0  0  0  0  0  0
  142.9460   79.4760  222.8880 C   0  0  0  0  0  0  0  0  0  0  0  0
  143.7797   78.8032  222.6385 H   0  0  0  0  0  0  0  0  0  0  0  0
  143.1840   80.6250  223.6460 C   0  0  0  0  0  0  0  0  0  0  0  0
  144.2019   80.8505  223.9969 H   0  0  0  0  0  0  0  0  0  0  0  0
  142.1310   81.4880  223.9590 C   0  0  0  0  0  0  0  0  0  0  0  0
  142.3204   82.3899  224.5596 H   0  0  0  0  0  0  0  0  0  0  0  0
  140.8390   81.2080  223.5110 C   0  0  0  0  0  0  0  0  0  0  0  0
  140.0130   81.8880  223.7667 H   0  0  0  0  0  0  0  0  0  0  0  0
  140.5860   80.0640  222.7360 C   0  0  0  0  0  0  0  0  0  0  0  0
  139.1620   79.7580  222.3260 C   0  0  0  0  0  0  0  0  0  0  0  0
  138.6862   80.6873  221.9794 H   0  0  0  0  0  0  0  0  0  0  0  0
  138.6417   79.3425  223.2016 H   0  0  0  0  0  0  0  0  0  0  0  0
  139.0910   78.7210  221.2040 C   0  0  0  0  0  0  0  0  0  0  0  0
  139.3834   79.1875  220.2517 H   0  0  0  0  0  0  0  0  0  0  0  0
  138.0639   78.3368  221.1175 H   0  0  0  0  0  0  0  0  0  0  0  0
  141.4400   75.0880  221.1940 C   0  0  0  0  0  0  0  0  0  0  0  0
  141.9688   76.0418  221.0503 H   0  0  0  0  0  0  0  0  0  0  0  0
  142.0690   73.8890  220.8560 C   0  0  0  0  0  0  0  0  0  0  0  0
  143.3670   73.8590  220.3080 C   0  0  0  0  0  0  0  0  0  0  0  0
  143.9870   74.9430  220.1100 O   0  0  0  0  0  0  0  0  0  0  0  0
  143.9520   72.6580  219.9880 N   0  0  0  0  0  0  0  0  0  0  0  0
  145.2160   72.6130  219.4500 C   0  0  0  0  0  0  0  0  0  0  0  0
  145.7663   73.5495  219.2765 H   0  0  0  0  0  0  0  0  0  0  0  0
  145.8100   71.3930  219.1210 C   0  0  0  0  0  0  0  0  0  0  0  0
  146.8221   71.3682  218.6908 H   0  0  0  0  0  0  0  0  0  0  0  0
  145.1130   70.2080  219.3410 C   0  0  0  0  0  0  0  0  0  0  0  0
  145.5716   69.2415  219.0850 H   0  0  0  0  0  0  0  0  0  0  0  0
  143.8340   70.2520  219.8860 C   0  0  0  0  0  0  0  0  0  0  0  0
  143.2757   69.3209  220.0627 H   0  0  0  0  0  0  0  0  0  0  0  0
  143.2620   71.4870  220.2080 C   0  0  0  0  0  0  0  0  0  0  0  0
  142.0160   71.5170  220.7410 N   0  0  0  0  0  0  0  0  0  0  0  0
  141.3930   72.6780  221.0750 C   0  0  0  0  0  0  0  0  0  0  0  0
  140.1210   72.6590  221.6100 N   0  0  0  0  0  0  0  0  0  0  0  0
  139.4960   71.3360  221.8500 C   0  0  0  0  0  0  0  0  0  0  0  0
  138.4221   71.3986  221.6203 H   0  0  0  0  0  0  0  0  0  0  0  0
  139.9864   70.5944  221.2023 H   0  0  0  0  0  0  0  0  0  0  0  0
  139.6690   70.9080  223.2870 C   0  0  0  0  0  0  0  0  0  0  0  0
  140.6420   71.5230  224.0960 C   0  0  0  0  0  0  0  0  0  0  0  0
  141.2689   72.3270  223.6829 H   0  0  0  0  0  0  0  0  0  0  0  0
  140.8160   71.1170  225.4230 C   0  0  0  0  0  0  0  0  0  0  0  0
  141.5780   71.6028  226.0502 H   0  0  0  0  0  0  0  0  0  0  0  0
  140.0250   70.0970  225.9530 C   0  0  0  0  0  0  0  0  0  0  0  0
  140.1652   69.7774  226.9962 H   0  0  0  0  0  0  0  0  0  0  0  0
  139.0550   69.4820  225.1580 C   0  0  0  0  0  0  0  0  0  0  0  0
  138.4304   68.6794  225.5771 H   0  0  0  0  0  0  0  0  0  0  0  0
  138.8760   69.8840  223.8310 C   0  0  0  0  0  0  0  0  0  0  0  0
  138.1105   69.3961  223.2098 H   0  0  0  0  0  0  0  0  0  0  0  0
  1  2  1  0
  2  3  2  0
  3  4  1  0
  4  5  1  0
  5  6  2  0
  5  7  1  0
  7  8  1  0
  8  9  1  0
  8 10  1  0
  8 11  1  0
 11 12  2  0
 12 13  1  0
 12 14  1  0
 14 15  1  0
 14 16  2  0
 16 17  1  0
 16 18  1  0
 18 19  1  0
 18 20  2  0
 20 21  1  0
 21 22  1  0
 21 23  1  0
 21 24  1  0
 24 25  1  0
 24 26  1  0
  4 27  2  0
 27 28  1  0
 27 29  1  0
 29 30  1  0
 30 31  2  0
 30 32  1  0
 32 33  1  0
 33 34  1  0
 33 35  2  0
 35 36  1  0
 35 37  1  0
 37 38  1  0
 37 39  2  0
 39 40  1  0
 39 41  1  0
 41 42  2  0
 42 43  1  0
 43 44  1  0
 44 45  1  0
 45 46  1  0
 45 47  1  0
 45 48  1  0
 48 49  2  0
 49 50  1  0
 49 51  1  0
 51 52  1  0
 51 53  2  0
 53 54  1  0
 53 55  1  0
 55 56  1  0
 55 57  2  0
 57 58  1  0
 44  3  1  0
 57 48  1  0
 24  7  1  0
 43 29  2  0
 20 11  1  0
 41 32  1  0
M  END
>  <UniqueID>  (14) 
125

>  <SMILES>  (14) 
[H]/N=c1/c(C(=O)N2CCc3ccccc3C2)cc2c(=O)n3ccccc3nc2n1Cc1ccccc1

>  <Energy>  (14) 
93.21232330012761

>  <Genealogy>  (14) 
[H]/N=c1/c(C(=O)N2CCc3ccccc3C2)cc2c(=O)n3ccccc3nc2n1Cc1ccccc1 (cis-trans isomerization)
[H]/N=c1/c(C(=O)N2CCc3ccccc3C2)cc2c(=O)n3ccccc3nc2n1Cc1ccccc1 (3D coordinates assigned)
[H]/N=c1/c(C(=O)N2CCc3ccccc3C2)cc2c(=O)n3ccccc3nc2n1Cc1ccccc1 (nonaromatic ring conformer: 93.21232330012761 kcal/mol)

>  <smiles>  (14) 
N=c1c(C(=O)N2CCc3ccccc3C2)cc2c(=O)n3ccccc3nc2n1Cc1ccccc1

>  <score_type>  (14) 
oracle

>  <origin>  (14) 
autodockgpu

>  <m_score__min__energy>  (14) 
-9.2699999999999996

>  <m_primary>  (14) 
energy

>  <meeko>  (14) 
{"free_energy": -9.26, "intermolecular_energy": -10.75, "internal_energy": -1.38, "cluster_size": 14, "cluster_id": 1, "rank_in_cluster": 12}

>  <energy>  (14) 
-9.22

>  <cluster_rmsd>  (14) 
0.17

>  <rmsd>  (14) 
269.67

>  <cluster>  (14) 
1

$$$$
DRTNTVLZUVPGHX-GNVQSUKONA-N
     RDKit          3D

 58 63  0  0  0  0  0  0  0  0999 V2000
  139.5290   74.5860  222.9680 H   0  0  0  0  0  0  0  0  0  0  0  0
  140.2840   74.3380  222.2970 N   0  0  0  0  0  0  0  0  0  0  0  0
  140.7850   75.0840  221.3530 C   0  0  0  0  0  0  0  0  0  0  0  0
  140.4560   76.4590  221.3580 C   0  0  0  0  0  0  0  0  0  0  0  0
  139.6570   77.0740  222.4510 C   0  0  0  0  0  0  0  0  0  0  0  0
  138.5680   76.5420  222.7970 O   0  0  0  0  0  0  0  0  0  0  0  0
  140.1220   78.2530  223.1370 N   0  0  0  0  0  0  0  0  0  0  0  0
  139.2740   79.4440  223.2420 C   0  0  0  0  0  0  0  0  0  0  0  0
  139.1632   79.7166  224.3019 H   0  0  0  0  0  0  0  0  0  0  0  0
  138.2910   79.2195  222.8022 H   0  0  0  0  0  0  0  0  0  0  0  0
  139.8890   80.6010  222.4940 C   0  0  0  0  0  0  0  0  0  0  0  0
  139.1030   81.7270  222.2070 C   0  0  0  0  0  0  0  0  0  0  0  0
  138.0406   81.7392  222.4920 H   0  0  0  0  0  0  0  0  0  0  0  0
  139.6610   82.8320  221.5620 C   0  0  0  0  0  0  0  0  0  0  0  0
  139.0358   83.7079  221.3342 H   0  0  0  0  0  0  0  0  0  0  0  0
  141.0120   82.8280  221.2050 C   0  0  0  0  0  0  0  0  0  0  0  0
  141.4480   83.6989  220.6937 H   0  0  0  0  0  0  0  0  0  0  0  0
  141.8090   81.7190  221.4970 C   0  0  0  0  0  0  0  0  0  0  0  0
  142.8703   81.7182  221.2077 H   0  0  0  0  0  0  0  0  0  0  0  0
  141.2660   80.6050  222.1570 C   0  0  0  0  0  0  0  0  0  0  0  0
  142.1430   79.3960  222.3960 C   0  0  0  0  0  0  0  0  0  0  0  0
  143.1244   79.7371  222.7573 H   0  0  0  0  0  0  0  0  0  0  0  0
  142.2315   78.8518  221.4442 H   0  0  0  0  0  0  0  0  0  0  0  0
  141.5450   78.4380  223.4280 C   0  0  0  0  0  0  0  0  0  0  0  0
  141.6634   78.8612  224.4364 H   0  0  0  0  0  0  0  0  0  0  0  0
  142.0635   77.4690  223.3804 H   0  0  0  0  0  0  0  0  0  0  0  0
  140.8980   77.2720  220.3140 C   0  0  0  0  0  0  0  0  0  0  0  0
  140.6493   78.3435  220.3127 H   0  0  0  0  0  0  0  0  0  0  0  0
  141.6540   76.7340  219.2710 C   0  0  0  0  0  0  0  0  0  0  0  0
  142.0960   77.5230  218.1900 C   0  0  0  0  0  0  0  0  0  0  0  0
  141.8020   78.7520  218.1510 O   0  0  0  0  0  0  0  0  0  0  0  0
  142.8390   76.9560  217.1820 N   0  0  0  0  0  0  0  0  0  0  0  0
  143.2740   77.7110  216.1190 C   0  0  0  0  0  0  0  0  0  0  0  0
  143.0273   78.7821  216.0763 H   0  0  0  0  0  0  0  0  0  0  0  0
  144.0250   77.1350  215.0930 C   0  0  0  0  0  0  0  0  0  0  0  0
  144.3681   77.7482  214.2466 H   0  0  0  0  0  0  0  0  0  0  0  0
  144.3370   75.7790  215.1480 C   0  0  0  0  0  0  0  0  0  0  0  0
  144.9281   75.3151  214.3446 H   0  0  0  0  0  0  0  0  0  0  0  0
  143.8980   75.0140  216.2230 C   0  0  0  0  0  0  0  0  0  0  0  0
  144.1390   73.9419  216.2742 H   0  0  0  0  0  0  0  0  0  0  0  0
  143.1480   75.6160  217.2390 C   0  0  0  0  0  0  0  0  0  0  0  0
  142.7280   74.8590  218.2830 N   0  0  0  0  0  0  0  0  0  0  0  0
  141.9910   75.3710  219.3040 C   0  0  0  0  0  0  0  0  0  0  0  0
  141.5810   74.5620  220.3440 N   0  0  0  0  0  0  0  0  0  0  0  0
  142.0170   73.1450  220.3240 C   0  0  0  0  0  0  0  0  0  0  0  0
  141.6404   72.6403  221.2259 H   0  0  0  0  0  0  0  0  0  0  0  0
  141.6147   72.6680  219.4181 H   0  0  0  0  0  0  0  0  0  0  0  0
  143.5220   73.0410  220.2930 C   0  0  0  0  0  0  0  0  0  0  0  0
  144.3130   74.0640  220.8470 C   0  0  0  0  0  0  0  0  0  0  0  0
  143.8313   74.9348  221.3158 H   0  0  0  0  0  0  0  0  0  0  0  0
  145.7080   73.9800  220.8050 C   0  0  0  0  0  0  0  0  0  0  0  0
  146.3200   74.7835  221.2407 H   0  0  0  0  0  0  0  0  0  0  0  0
  146.3250   72.8780  220.2110 C   0  0  0  0  0  0  0  0  0  0  0  0
  147.4226   72.8150  220.1760 H   0  0  0  0  0  0  0  0  0  0  0  0
  145.5490   71.8550  219.6610 C   0  0  0  0  0  0  0  0  0  0  0  0
  146.0364   70.9852  219.1965 H   0  0  0  0  0  0  0  0  0  0  0  0
  144.1530   71.9350  219.7000 C   0  0  0  0  0  0  0  0  0  0  0  0
  143.5463   71.1276  219.2640 H   0  0  0  0  0  0  0  0  0  0  0  0
  1  2  1  0
  2  3  2  0
  3  4  1  0
  4  5  1  0
  5  6  2  0
  5  7  1  0
  7  8  1  0
  8  9  1  0
  8 10  1  0
  8 11  1  0
 11 12  2  0
 12 13  1  0
 12 14  1  0
 14 15  1  0
 14 16  2  0
 16 17  1  0
 16 18  1  0
 18 19  1  0
 18 20  2  0
 20 21  1  0
 21 22  1  0
 21 23  1  0
 21 24  1  0
 24 25  1  0
 24 26  1  0
  4 27  2  0
 27 28  1  0
 27 29  1  0
 29 30  1  0
 30 31  2  0
 30 32  1  0
 32 33  1  0
 33 34  1  0
 33 35  2  0
 35 36  1  0
 35 37  1  0
 37 38  1  0
 37 39  2  0
 39 40  1  0
 39 41  1  0
 41 42  2  0
 42 43  1  0
 43 44  1  0
 44 45  1  0
 45 46  1  0
 45 47  1  0
 45 48  1  0
 48 49  2  0
 49 50  1  0
 49 51  1  0
 51 52  1  0
 51 53  2  0
 53 54  1  0
 53 55  1  0
 55 56  1  0
 55 57  2  0
 57 58  1  0
 44  3  1  0
 57 48  1  0
 24  7  1  0
 43 29  2  0
 20 11  1  0
 41 32  1  0
M  END
>  <UniqueID>  (15) 
125

>  <SMILES>  (15) 
[H]/N=c1/c(C(=O)N2CCc3ccccc3C2)cc2c(=O)n3ccccc3nc2n1Cc1ccccc1

>  <Energy>  (15) 
93.21232330012761

>  <Genealogy>  (15) 
[H]/N=c1/c(C(=O)N2CCc3ccccc3C2)cc2c(=O)n3ccccc3nc2n1Cc1ccccc1 (cis-trans isomerization)
[H]/N=c1/c(C(=O)N2CCc3ccccc3C2)cc2c(=O)n3ccccc3nc2n1Cc1ccccc1 (3D coordinates assigned)
[H]/N=c1/c(C(=O)N2CCc3ccccc3C2)cc2c(=O)n3ccccc3nc2n1Cc1ccccc1 (nonaromatic ring conformer: 93.21232330012761 kcal/mol)

>  <smiles>  (15) 
N=c1c(C(=O)N2CCc3ccccc3C2)cc2c(=O)n3ccccc3nc2n1Cc1ccccc1

>  <score_type>  (15) 
oracle

>  <origin>  (15) 
autodockgpu

>  <m_score__min__energy>  (15) 
-9.2699999999999996

>  <m_primary>  (15) 
energy

>  <meeko>  (15) 
{"free_energy": -8.51, "intermolecular_energy": -10.0, "internal_energy": -1.94, "cluster_size": 4, "cluster_id": 3, "rank_in_cluster": 2}

>  <energy>  (15) 
-8.62

>  <cluster_rmsd>  (15) 
0.0

>  <rmsd>  (15) 
269.33

>  <cluster>  (15) 
2

$$$$
DRTNTVLZUVPGHX-GNVQSUKONA-N
     RDKit          3D

 58 63  0  0  0  0  0  0  0  0999 V2000
  137.8470   74.4370  223.0890 H   0  0  0  0  0  0  0  0  0  0  0  0
  138.2420   73.8950  222.2940 N   0  0  0  0  0  0  0  0  0  0  0  0
  139.4830   73.8560  221.8960 C   0  0  0  0  0  0  0  0  0  0  0  0
  140.1550   75.0870  221.7210 C   0  0  0  0  0  0  0  0  0  0  0  0
  139.5250   76.3860  222.0740 C   0  0  0  0  0  0  0  0  0  0  0  0
  138.5680   76.4080  222.8940 O   0  0  0  0  0  0  0  0  0  0  0  0
  140.0080   77.6220  221.5130 N   0  0  0  0  0  0  0  0  0  0  0  0
  141.4330   77.9640  221.5660 C   0  0  0  0  0  0  0  0  0  0  0  0
  141.7940   78.1672  220.5470 H   0  0  0  0  0  0  0  0  0  0  0  0
  141.9842   77.1188  222.0038 H   0  0  0  0  0  0  0  0  0  0  0  0
  141.6550   79.1850  222.4230 C   0  0  0  0  0  0  0  0  0  0  0  0
  142.9530   79.4930  222.8560 C   0  0  0  0  0  0  0  0  0  0  0  0
  143.7871   78.8225  222.6015 H   0  0  0  0  0  0  0  0  0  0  0  0
  143.1940   80.6450  223.6080 C   0  0  0  0  0  0  0  0  0  0  0  0
  144.2138   80.8743  223.9508 H   0  0  0  0  0  0  0  0  0  0  0  0
  142.1410   81.5060  223.9250 C   0  0  0  0  0  0  0  0  0  0  0  0
  142.3328   82.4118  224.5190 H   0  0  0  0  0  0  0  0  0  0  0  0
  140.8460   81.2200  223.4900 C   0  0  0  0  0  0  0  0  0  0  0  0
  140.0201   81.8983  223.7504 H   0  0  0  0  0  0  0  0  0  0  0  0
  140.5900   80.0720  222.7220 C   0  0  0  0  0  0  0  0  0  0  0  0
  139.1640   79.7590  222.3250 C   0  0  0  0  0  0  0  0  0  0  0  0
  138.6817   80.6853  221.9795 H   0  0  0  0  0  0  0  0  0  0  0  0
  138.6530   79.3442  223.2064 H   0  0  0  0  0  0  0  0  0  0  0  0
  139.0870   78.7180  221.2070 C   0  0  0  0  0  0  0  0  0  0  0  0
  139.3704   79.1820  220.2507 H   0  0  0  0  0  0  0  0  0  0  0  0
  138.0604   78.3305  221.1296 H   0  0  0  0  0  0  0  0  0  0  0  0
  141.4530   75.0900  221.2090 C   0  0  0  0  0  0  0  0  0  0  0  0
  141.9839   76.0436  221.0718 H   0  0  0  0  0  0  0  0  0  0  0  0
  142.0820   73.8920  220.8700 C   0  0  0  0  0  0  0  0  0  0  0  0
  143.3830   73.8610  220.3290 C   0  0  0  0  0  0  0  0  0  0  0  0
  144.0060   74.9450  220.1390 O   0  0  0  0  0  0  0  0  0  0  0  0
  143.9680   72.6610  220.0070 N   0  0  0  0  0  0  0  0  0  0  0  0
  145.2350   72.6150  219.4760 C   0  0  0  0  0  0  0  0  0  0  0  0
  145.7881   73.5512  219.3097 H   0  0  0  0  0  0  0  0  0  0  0  0
  145.8290   71.3960  219.1450 C   0  0  0  0  0  0  0  0  0  0  0  0
  146.8435   71.3714  218.7205 H   0  0  0  0  0  0  0  0  0  0  0  0
  145.1280   70.2110  219.3560 C   0  0  0  0  0  0  0  0  0  0  0  0
  145.5859   69.2448  219.0977 H   0  0  0  0  0  0  0  0  0  0  0  0
  143.8460   70.2550  219.8950 C   0  0  0  0  0  0  0  0  0  0  0  0
  143.2852   69.3243  220.0660 H   0  0  0  0  0  0  0  0  0  0  0  0
  143.2750   71.4900  220.2180 C   0  0  0  0  0  0  0  0  0  0  0  0
  142.0260   71.5200  220.7440 N   0  0  0  0  0  0  0  0  0  0  0  0
  141.4030   72.6800  221.0790 C   0  0  0  0  0  0  0  0  0  0  0  0
  140.1280   72.6620  221.6070 N   0  0  0  0  0  0  0  0  0  0  0  0
  139.4990   71.3390  221.8380 C   0  0  0  0  0  0  0  0  0  0  0  0
  138.4238   71.4083  221.6161 H   0  0  0  0  0  0  0  0  0  0  0  0
  139.9818   70.6018  221.1796 H   0  0  0  0  0  0  0  0  0  0  0  0
  139.6800   70.8960  223.2700 C   0  0  0  0  0  0  0  0  0  0  0  0
  138.8790   69.8670  223.7990 C   0  0  0  0  0  0  0  0  0  0  0  0
  138.1278   69.3764  223.1626 H   0  0  0  0  0  0  0  0  0  0  0  0
  139.0330   69.4650  225.1290 C   0  0  0  0  0  0  0  0  0  0  0  0
  138.4037   68.6595  225.5355 H   0  0  0  0  0  0  0  0  0  0  0  0
  139.9840   70.0840  225.9420 C   0  0  0  0  0  0  0  0  0  0  0  0
  140.1021   69.7683  226.9891 H   0  0  0  0  0  0  0  0  0  0  0  0
  140.7860   71.1050  225.4250 C   0  0  0  0  0  0  0  0  0  0  0  0
  141.5368   71.5908  226.0655 H   0  0  0  0  0  0  0  0  0  0  0  0
  140.6360   71.5100  224.0960 C   0  0  0  0  0  0  0  0  0  0  0  0
  141.2701   72.3141  223.6944 H   0  0  0  0  0  0  0  0  0  0  0  0
  1  2  1  0
  2  3  2  0
  3  4  1  0
  4  5  1  0
  5  6  2  0
  5  7  1  0
  7  8  1  0
  8  9  1  0
  8 10  1  0
  8 11  1  0
 11 12  2  0
 12 13  1  0
 12 14  1  0
 14 15  1  0
 14 16  2  0
 16 17  1  0
 16 18  1  0
 18 19  1  0
 18 20  2  0
 20 21  1  0
 21 22  1  0
 21 23  1  0
 21 24  1  0
 24 25  1  0
 24 26  1  0
  4 27  2  0
 27 28  1  0
 27 29  1  0
 29 30  1  0
 30 31  2  0
 30 32  1  0
 32 33  1  0
 33 34  1  0
 33 35  2  0
 35 36  1  0
 35 37  1  0
 37 38  1  0
 37 39  2  0
 39 40  1  0
 39 41  1  0
 41 42  2  0
 42 43  1  0
 43 44  1  0
 44 45  1  0
 45 46  1  0
 45 47  1  0
 45 48  1  0
 48 49  2  0
 49 50  1  0
 49 51  1  0
 51 52  1  0
 51 53  2  0
 53 54  1  0
 53 55  1  0
 55 56  1  0
 55 57  2  0
 57 58  1  0
 44  3  1  0
 57 48  1  0
 24  7  1  0
 43 29  2  0
 20 11  1  0
 41 32  1  0
M  END
>  <UniqueID>  (16) 
125

>  <SMILES>  (16) 
[H]/N=c1/c(C(=O)N2CCc3ccccc3C2)cc2c(=O)n3ccccc3nc2n1Cc1ccccc1

>  <Energy>  (16) 
93.21232330012761

>  <Genealogy>  (16) 
[H]/N=c1/c(C(=O)N2CCc3ccccc3C2)cc2c(=O)n3ccccc3nc2n1Cc1ccccc1 (cis-trans isomerization)
[H]/N=c1/c(C(=O)N2CCc3ccccc3C2)cc2c(=O)n3ccccc3nc2n1Cc1ccccc1 (3D coordinates assigned)
[H]/N=c1/c(C(=O)N2CCc3ccccc3C2)cc2c(=O)n3ccccc3nc2n1Cc1ccccc1 (nonaromatic ring conformer: 93.21232330012761 kcal/mol)

>  <smiles>  (16) 
N=c1c(C(=O)N2CCc3ccccc3C2)cc2c(=O)n3ccccc3nc2n1Cc1ccccc1

>  <score_type>  (16) 
oracle

>  <origin>  (16) 
autodockgpu

>  <m_score__min__energy>  (16) 
-9.2699999999999996

>  <m_primary>  (16) 
energy

>  <meeko>  (16) 
{"free_energy": -9.25, "intermolecular_energy": -10.74, "internal_energy": -1.38, "cluster_size": 14, "cluster_id": 1, "rank_in_cluster": 13}

>  <energy>  (16) 
-8.53

>  <cluster_rmsd>  (16) 
0.0

>  <rmsd>  (16) 
269.27

>  <cluster>  (16) 
3

$$$$
DRTNTVLZUVPGHX-GNVQSUKONA-N
     RDKit          3D

 58 63  0  0  0  0  0  0  0  0999 V2000
  137.8540   74.4490  223.0860 H   0  0  0  0  0  0  0  0  0  0  0  0
  138.2570   73.8610  222.3300 N   0  0  0  0  0  0  0  0  0  0  0  0
  139.4960   73.8290  221.9230 C   0  0  0  0  0  0  0  0  0  0  0  0
  140.1610   75.0630  221.7430 C   0  0  0  0  0  0  0  0  0  0  0  0
  139.5260   76.3590  222.1010 C   0  0  0  0  0  0  0  0  0  0  0  0
  138.5760   76.3760  222.9300 O   0  0  0  0  0  0  0  0  0  0  0  0
  139.9980   77.5970  221.5350 N   0  0  0  0  0  0  0  0  0  0  0  0
  141.4220   77.9420  221.5650 C   0  0  0  0  0  0  0  0  0  0  0  0
  141.7658   78.1482  220.5407 H   0  0  0  0  0  0  0  0  0  0  0  0
  141.9829   77.0973  221.9914 H   0  0  0  0  0  0  0  0  0  0  0  0
  141.6540   79.1620  222.4210 C   0  0  0  0  0  0  0  0  0  0  0  0
  142.9590   79.4730  222.8340 C   0  0  0  0  0  0  0  0  0  0  0  0
  143.7909   78.8055  222.5650 H   0  0  0  0  0  0  0  0  0  0  0  0
  143.2080   80.6240  223.5840 C   0  0  0  0  0  0  0  0  0  0  0  0
  144.2325   80.8553  223.9108 H   0  0  0  0  0  0  0  0  0  0  0  0
  142.1590   81.4820  223.9200 C   0  0  0  0  0  0  0  0  0  0  0  0
  142.3581   82.3871  224.5126 H   0  0  0  0  0  0  0  0  0  0  0  0
  140.8580   81.1930  223.5050 C   0  0  0  0  0  0  0  0  0  0  0  0
  140.0347   81.8687  223.7799 H   0  0  0  0  0  0  0  0  0  0  0  0
  140.5920   80.0460  222.7390 C   0  0  0  0  0  0  0  0  0  0  0  0
  139.1610   79.7310  222.3640 C   0  0  0  0  0  0  0  0  0  0  0  0
  138.6718   80.6569  222.0271 H   0  0  0  0  0  0  0  0  0  0  0  0
  138.6647   79.3141  223.2528 H   0  0  0  0  0  0  0  0  0  0  0  0
  139.0680   78.6910  221.2460 C   0  0  0  0  0  0  0  0  0  0  0  0
  139.3335   79.1570  220.2856 H   0  0  0  0  0  0  0  0  0  0  0  0
  138.0414   78.3004  221.1857 H   0  0  0  0  0  0  0  0  0  0  0  0
  141.4550   75.0730  221.2230 C   0  0  0  0  0  0  0  0  0  0  0  0
  141.9802   76.0294  221.0831 H   0  0  0  0  0  0  0  0  0  0  0  0
  142.0880   73.8780  220.8790 C   0  0  0  0  0  0  0  0  0  0  0  0
  143.3850   73.8540  220.3290 C   0  0  0  0  0  0  0  0  0  0  0  0
  144.0010   74.9420  220.1350 O   0  0  0  0  0  0  0  0  0  0  0  0
  143.9750   72.6570  220.0030 N   0  0  0  0  0  0  0  0  0  0  0  0
  145.2370   72.6180  219.4630 C   0  0  0  0  0  0  0  0  0  0  0  0
  145.7835   73.5571  219.2915 H   0  0  0  0  0  0  0  0  0  0  0  0
  145.8350   71.4020  219.1290 C   0  0  0  0  0  0  0  0  0  0  0  0
  146.8468   71.3827  218.6978 H   0  0  0  0  0  0  0  0  0  0  0  0
  145.1430   70.2140  219.3450 C   0  0  0  0  0  0  0  0  0  0  0  0
  145.6049   69.2503  219.0846 H   0  0  0  0  0  0  0  0  0  0  0  0
  143.8640   70.2510  219.8920 C   0  0  0  0  0  0  0  0  0  0  0  0
  143.3088   69.3173  220.0653 H   0  0  0  0  0  0  0  0  0  0  0  0
  143.2890   71.4830  220.2200 C   0  0  0  0  0  0  0  0  0  0  0  0
  142.0430   71.5060  220.7540 N   0  0  0  0  0  0  0  0  0  0  0  0
  141.4160   72.6630  221.0940 C   0  0  0  0  0  0  0  0  0  0  0  0
  140.1450   72.6380  221.6300 N   0  0  0  0  0  0  0  0  0  0  0  0
  139.5250   71.3120  221.8660 C   0  0  0  0  0  0  0  0  0  0  0  0
  138.4541   71.3673  221.6209 H   0  0  0  0  0  0  0  0  0  0  0  0
  140.0296   70.5715  221.2280 H   0  0  0  0  0  0  0  0  0  0  0  0
  139.6800   70.8890  223.3070 C   0  0  0  0  0  0  0  0  0  0  0  0
  140.6440   71.5060  224.1250 C   0  0  0  0  0  0  0  0  0  0  0  0
  141.2772   72.3070  223.7159 H   0  0  0  0  0  0  0  0  0  0  0  0
  140.8010   71.1060  225.4550 C   0  0  0  0  0  0  0  0  0  0  0  0
  141.5565   71.5929  226.0892 H   0  0  0  0  0  0  0  0  0  0  0  0
  140.0010   70.0900  225.9800 C   0  0  0  0  0  0  0  0  0  0  0  0
  140.1277   69.7750  227.0263 H   0  0  0  0  0  0  0  0  0  0  0  0
  139.0390   69.4730  225.1760 C   0  0  0  0  0  0  0  0  0  0  0  0
  138.4077   68.6736  225.5912 H   0  0  0  0  0  0  0  0  0  0  0  0
  138.8770   69.8690  223.8460 C   0  0  0  0  0  0  0  0  0  0  0  0
  138.1176   69.3804  223.2178 H   0  0  0  0  0  0  0  0  0  0  0  0
  1  2  1  0
  2  3  2  0
  3  4  1  0
  4  5  1  0
  5  6  2  0
  5  7  1  0
  7  8  1  0
  8  9  1  0
  8 10  1  0
  8 11  1  0
 11 12  2  0
 12 13  1  0
 12 14  1  0
 14 15  1  0
 14 16  2  0
 16 17  1  0
 16 18  1  0
 18 19  1  0
 18 20  2  0
 20 21  1  0
 21 22  1  0
 21 23  1  0
 21 24  1  0
 24 25  1  0
 24 26  1  0
  4 27  2  0
 27 28  1  0
 27 29  1  0
 29 30  1  0
 30 31  2  0
 30 32  1  0
 32 33  1  0
 33 34  1  0
 33 35  2  0
 35 36  1  0
 35 37  1  0
 37 38  1  0
 37 39  2  0
 39 40  1  0
 39 41  1  0
 41 42  2  0
 42 43  1  0
 43 44  1  0
 44 45  1  0
 45 46  1  0
 45 47  1  0
 45 48  1  0
 48 49  2  0
 49 50  1  0
 49 51  1  0
 51 52  1  0
 51 53  2  0
 53 54  1  0
 53 55  1  0
 55 56  1  0
 55 57  2  0
 57 58  1  0
 44  3  1  0
 57 48  1  0
 24  7  1  0
 43 29  2  0
 20 11  1  0
 41 32  1  0
M  END
>  <UniqueID>  (17) 
125

>  <SMILES>  (17) 
[H]/N=c1/c(C(=O)N2CCc3ccccc3C2)cc2c(=O)n3ccccc3nc2n1Cc1ccccc1

>  <Energy>  (17) 
93.21232330012761

>  <Genealogy>  (17) 
[H]/N=c1/c(C(=O)N2CCc3ccccc3C2)cc2c(=O)n3ccccc3nc2n1Cc1ccccc1 (cis-trans isomerization)
[H]/N=c1/c(C(=O)N2CCc3ccccc3C2)cc2c(=O)n3ccccc3nc2n1Cc1ccccc1 (3D coordinates assigned)
[H]/N=c1/c(C(=O)N2CCc3ccccc3C2)cc2c(=O)n3ccccc3nc2n1Cc1ccccc1 (nonaromatic ring conformer: 93.21232330012761 kcal/mol)

>  <smiles>  (17) 
N=c1c(C(=O)N2CCc3ccccc3C2)cc2c(=O)n3ccccc3nc2n1Cc1ccccc1

>  <score_type>  (17) 
oracle

>  <origin>  (17) 
autodockgpu

>  <m_score__min__energy>  (17) 
-9.2699999999999996

>  <m_primary>  (17) 
energy

>  <meeko>  (17) 
{"free_energy": -9.27, "intermolecular_energy": -10.76, "internal_energy": -1.38, "cluster_size": 14, "cluster_id": 1, "rank_in_cluster": 5}

>  <energy>  (17) 
-8.51

>  <cluster_rmsd>  (17) 
0.06

>  <rmsd>  (17) 
269.25

>  <cluster>  (17) 
3

$$$$
DRTNTVLZUVPGHX-GNVQSUKONA-N
     RDKit          3D

 58 63  0  0  0  0  0  0  0  0999 V2000
  137.8410   74.4830  223.0820 H   0  0  0  0  0  0  0  0  0  0  0  0
  138.2360   73.8910  222.3250 N   0  0  0  0  0  0  0  0  0  0  0  0
  139.4730   73.8490  221.9130 C   0  0  0  0  0  0  0  0  0  0  0  0
  140.1430   75.0780  221.7170 C   0  0  0  0  0  0  0  0  0  0  0  0
  139.5160   76.3810  222.0620 C   0  0  0  0  0  0  0  0  0  0  0  0
  138.5440   76.4070  222.8650 O   0  0  0  0  0  0  0  0  0  0  0  0
  140.0200   77.6150  221.5160 N   0  0  0  0  0  0  0  0  0  0  0  0
  141.4470   77.9450  221.5960 C   0  0  0  0  0  0  0  0  0  0  0  0
  141.8281   78.1497  220.5846 H   0  0  0  0  0  0  0  0  0  0  0  0
  141.9840   77.0935  222.0394 H   0  0  0  0  0  0  0  0  0  0  0  0
  141.6620   79.1600  222.4620 C   0  0  0  0  0  0  0  0  0  0  0  0
  142.9550   79.4560  222.9200 C   0  0  0  0  0  0  0  0  0  0  0  0
  143.7883   78.7800  222.6780 H   0  0  0  0  0  0  0  0  0  0  0  0
  143.1910   80.6030  223.6810 C   0  0  0  0  0  0  0  0  0  0  0  0
  144.2062   80.8227  224.0431 H   0  0  0  0  0  0  0  0  0  0  0  0
  142.1390   81.4720  223.9830 C   0  0  0  0  0  0  0  0  0  0  0  0
  142.3269   82.3733  224.5849 H   0  0  0  0  0  0  0  0  0  0  0  0
  140.8500   81.1980  223.5220 C   0  0  0  0  0  0  0  0  0  0  0  0
  140.0249   81.8822  223.7691 H   0  0  0  0  0  0  0  0  0  0  0  0
  140.5990   80.0550  222.7450 C   0  0  0  0  0  0  0  0  0  0  0  0
  139.1780   79.7560  222.3210 C   0  0  0  0  0  0  0  0  0  0  0  0
  138.7102   80.6876  221.9697 H   0  0  0  0  0  0  0  0  0  0  0  0
  138.6470   79.3431  223.1914 H   0  0  0  0  0  0  0  0  0  0  0  0
  139.1130   78.7190  221.1980 C   0  0  0  0  0  0  0  0  0  0  0  0
  139.4167   79.1840  220.2485 H   0  0  0  0  0  0  0  0  0  0  0  0
  138.0851   78.3395  221.1015 H   0  0  0  0  0  0  0  0  0  0  0  0
  141.4350   75.0760  221.1900 C   0  0  0  0  0  0  0  0  0  0  0  0
  141.9640   76.0281  221.0362 H   0  0  0  0  0  0  0  0  0  0  0  0
  142.0600   73.8740  220.8570 C   0  0  0  0  0  0  0  0  0  0  0  0
  143.3550   73.8380  220.3010 C   0  0  0  0  0  0  0  0  0  0  0  0
  143.9750   74.9200  220.0920 O   0  0  0  0  0  0  0  0  0  0  0  0
  143.9370   72.6340  219.9860 N   0  0  0  0  0  0  0  0  0  0  0  0
  145.1970   72.5830  219.4410 C   0  0  0  0  0  0  0  0  0  0  0  0
  145.7474   73.5175  219.2575 H   0  0  0  0  0  0  0  0  0  0  0  0
  145.7880   71.3600  219.1170 C   0  0  0  0  0  0  0  0  0  0  0  0
  146.7977   71.3307  218.6816 H   0  0  0  0  0  0  0  0  0  0  0  0
  145.0900   70.1780  219.3490 C   0  0  0  0  0  0  0  0  0  0  0  0
  145.5454   69.2091  219.0962 H   0  0  0  0  0  0  0  0  0  0  0  0
  143.8140   70.2270  219.9020 C   0  0  0  0  0  0  0  0  0  0  0  0
  143.2554   69.2980  220.0891 H   0  0  0  0  0  0  0  0  0  0  0  0
  143.2470   71.4650  220.2180 C   0  0  0  0  0  0  0  0  0  0  0  0
  142.0030   71.5010  220.7580 N   0  0  0  0  0  0  0  0  0  0  0  0
  141.3840   72.6650  221.0880 C   0  0  0  0  0  0  0  0  0  0  0  0
  140.1150   72.6520  221.6300 N   0  0  0  0  0  0  0  0  0  0  0  0
  139.4900   71.3310  221.8830 C   0  0  0  0  0  0  0  0  0  0  0  0
  138.4114   71.3985  221.6781 H   0  0  0  0  0  0  0  0  0  0  0  0
  139.9625   70.5883  221.2234 H   0  0  0  0  0  0  0  0  0  0  0  0
  139.6940   70.9000  223.3150 C   0  0  0  0  0  0  0  0  0  0  0  0
  138.9030   69.8750  223.8650 C   0  0  0  0  0  0  0  0  0  0  0  0
  138.1421   69.3785  223.2449 H   0  0  0  0  0  0  0  0  0  0  0  0
  139.0790   69.4840  225.1960 C   0  0  0  0  0  0  0  0  0  0  0  0
  138.4573   68.6813  225.6193 H   0  0  0  0  0  0  0  0  0  0  0  0
  140.0430   70.1110  225.9890 C   0  0  0  0  0  0  0  0  0  0  0  0
  140.1784   69.8044  227.0367 H   0  0  0  0  0  0  0  0  0  0  0  0
  140.8350   71.1280  225.4500 C   0  0  0  0  0  0  0  0  0  0  0  0
  141.5958   71.6198  226.0739 H   0  0  0  0  0  0  0  0  0  0  0  0
  140.6630   71.5220  224.1200 C   0  0  0  0  0  0  0  0  0  0  0  0
  141.2896   72.3233  223.7014 H   0  0  0  0  0  0  0  0  0  0  0  0
  1  2  1  0
  2  3  2  0
  3  4  1  0
  4  5  1  0
  5  6  2  0
  5  7  1  0
  7  8  1  0
  8  9  1  0
  8 10  1  0
  8 11  1  0
 11 12  2  0
 12 13  1  0
 12 14  1  0
 14 15  1  0
 14 16  2  0
 16 17  1  0
 16 18  1  0
 18 19  1  0
 18 20  2  0
 20 21  1  0
 21 22  1  0
 21 23  1  0
 21 24  1  0
 24 25  1  0
 24 26  1  0
  4 27  2  0
 27 28  1  0
 27 29  1  0
 29 30  1  0
 30 31  2  0
 30 32  1  0
 32 33  1  0
 33 34  1  0
 33 35  2  0
 35 36  1  0
 35 37  1  0
 37 38  1  0
 37 39  2  0
 39 40  1  0
 39 41  1  0
 41 42  2  0
 42 43  1  0
 43 44  1  0
 44 45  1  0
 45 46  1  0
 45 47  1  0
 45 48  1  0
 48 49  2  0
 49 50  1  0
 49 51  1  0
 51 52  1  0
 51 53  2  0
 53 54  1  0
 53 55  1  0
 55 56  1  0
 55 57  2  0
 57 58  1  0
 44  3  1  0
 57 48  1  0
 24  7  1  0
 43 29  2  0
 20 11  1  0
 41 32  1  0
M  END
>  <UniqueID>  (18) 
125

>  <SMILES>  (18) 
[H]/N=c1/c(C(=O)N2CCc3ccccc3C2)cc2c(=O)n3ccccc3nc2n1Cc1ccccc1

>  <Energy>  (18) 
93.21232330012761

>  <Genealogy>  (18) 
[H]/N=c1/c(C(=O)N2CCc3ccccc3C2)cc2c(=O)n3ccccc3nc2n1Cc1ccccc1 (cis-trans isomerization)
[H]/N=c1/c(C(=O)N2CCc3ccccc3C2)cc2c(=O)n3ccccc3nc2n1Cc1ccccc1 (3D coordinates assigned)
[H]/N=c1/c(C(=O)N2CCc3ccccc3C2)cc2c(=O)n3ccccc3nc2n1Cc1ccccc1 (nonaromatic ring conformer: 93.21232330012761 kcal/mol)

>  <smiles>  (18) 
N=c1c(C(=O)N2CCc3ccccc3C2)cc2c(=O)n3ccccc3nc2n1Cc1ccccc1

>  <score_type>  (18) 
oracle

>  <origin>  (18) 
autodockgpu

>  <m_score__min__energy>  (18) 
-9.2699999999999996

>  <m_primary>  (18) 
energy

>  <meeko>  (18) 
{"free_energy": -9.27, "intermolecular_energy": -10.76, "internal_energy": -1.38, "cluster_size": 14, "cluster_id": 1, "rank_in_cluster": 7}

>  <energy>  (18) 
-8.48

>  <cluster_rmsd>  (18) 
0.06

>  <rmsd>  (18) 
269.25

>  <cluster>  (18) 
3

$$$$
DRTNTVLZUVPGHX-GNVQSUKONA-N
     RDKit          3D

 58 63  0  0  0  0  0  0  0  0999 V2000
  137.8650   74.4700  223.0750 H   0  0  0  0  0  0  0  0  0  0  0  0
  138.2670   73.8850  222.3160 N   0  0  0  0  0  0  0  0  0  0  0  0
  139.5060   73.8530  221.9090 C   0  0  0  0  0  0  0  0  0  0  0  0
  140.1690   75.0870  221.7240 C   0  0  0  0  0  0  0  0  0  0  0  0
  139.5320   76.3840  222.0750 C   0  0  0  0  0  0  0  0  0  0  0  0
  138.5680   76.4010  222.8880 O   0  0  0  0  0  0  0  0  0  0  0  0
  140.0180   77.6230  221.5240 N   0  0  0  0  0  0  0  0  0  0  0  0
  141.4430   77.9630  221.5810 C   0  0  0  0  0  0  0  0  0  0  0  0
  141.8056   78.1724  220.5638 H   0  0  0  0  0  0  0  0  0  0  0  0
  141.9928   77.1144  222.0140 H   0  0  0  0  0  0  0  0  0  0  0  0
  141.6650   79.1780  222.4460 C   0  0  0  0  0  0  0  0  0  0  0  0
  142.9630   79.4820  222.8830 C   0  0  0  0  0  0  0  0  0  0  0  0
  143.7970   78.8124  222.6260 H   0  0  0  0  0  0  0  0  0  0  0  0
  143.2030   80.6290  223.6420 C   0  0  0  0  0  0  0  0  0  0  0  0
  144.2226   80.8556  223.9870 H   0  0  0  0  0  0  0  0  0  0  0  0
  142.1510   81.4890  223.9640 C   0  0  0  0  0  0  0  0  0  0  0  0
  142.3427   82.3900  224.5652 H   0  0  0  0  0  0  0  0  0  0  0  0
  140.8560   81.2070  223.5240 C   0  0  0  0  0  0  0  0  0  0  0  0
  140.0302   81.8847  223.7862 H   0  0  0  0  0  0  0  0  0  0  0  0
  140.6010   80.0640  222.7490 C   0  0  0  0  0  0  0  0  0  0  0  0
  139.1750   79.7560  222.3480 C   0  0  0  0  0  0  0  0  0  0  0  0
  138.6949   80.6852  222.0072 H   0  0  0  0  0  0  0  0  0  0  0  0
  138.6618   79.3370  223.2261 H   0  0  0  0  0  0  0  0  0  0  0  0
  139.0980   78.7210  221.2230 C   0  0  0  0  0  0  0  0  0  0  0  0
  139.3826   79.1902  220.2697 H   0  0  0  0  0  0  0  0  0  0  0  0
  138.0712   78.3348  221.1420 H   0  0  0  0  0  0  0  0  0  0  0  0
  141.4630   75.0970  221.2030 C   0  0  0  0  0  0  0  0  0  0  0  0
  141.9868   76.0534  221.0585 H   0  0  0  0  0  0  0  0  0  0  0  0
  142.0970   73.9010  220.8640 C   0  0  0  0  0  0  0  0  0  0  0  0
  143.3950   73.8770  220.3140 C   0  0  0  0  0  0  0  0  0  0  0  0
  144.0090   74.9640  220.1150 O   0  0  0  0  0  0  0  0  0  0  0  0
  143.9860   72.6790  219.9940 N   0  0  0  0  0  0  0  0  0  0  0  0
  145.2480   72.6390  219.4530 C   0  0  0  0  0  0  0  0  0  0  0  0
  145.7929   73.5782  219.2768 H   0  0  0  0  0  0  0  0  0  0  0  0
  145.8480   71.4230  219.1240 C   0  0  0  0  0  0  0  0  0  0  0  0
  146.8599   71.4035  218.6930 H   0  0  0  0  0  0  0  0  0  0  0  0
  145.1570   70.2340  219.3450 C   0  0  0  0  0  0  0  0  0  0  0  0
  145.6196   69.2698  219.0875 H   0  0  0  0  0  0  0  0  0  0  0  0
  143.8790   70.2720  219.8930 C   0  0  0  0  0  0  0  0  0  0  0  0
  143.3256   69.3384  220.0720 H   0  0  0  0  0  0  0  0  0  0  0  0
  143.3020   71.5050  220.2150 C   0  0  0  0  0  0  0  0  0  0  0  0
  142.0560   71.5280  220.7500 N   0  0  0  0  0  0  0  0  0  0  0  0
  141.4280   72.6860  221.0840 C   0  0  0  0  0  0  0  0  0  0  0  0
  140.1570   72.6620  221.6220 N   0  0  0  0  0  0  0  0  0  0  0  0
  139.5390   71.3360  221.8630 C   0  0  0  0  0  0  0  0  0  0  0  0
  138.4642   71.3937  221.6363 H   0  0  0  0  0  0  0  0  0  0  0  0
  140.0311   70.5971  221.2135 H   0  0  0  0  0  0  0  0  0  0  0  0
  139.7180   70.9080  223.2990 C   0  0  0  0  0  0  0  0  0  0  0  0
  138.9070   69.8950  223.8420 C   0  0  0  0  0  0  0  0  0  0  0  0
  138.1490   69.4053  223.2130 H   0  0  0  0  0  0  0  0  0  0  0  0
  139.0590   69.5070  225.1770 C   0  0  0  0  0  0  0  0  0  0  0  0
  138.4213   68.7140  225.5947 H   0  0  0  0  0  0  0  0  0  0  0  0
  140.0190   70.1250  225.9800 C   0  0  0  0  0  0  0  0  0  0  0  0
  140.1356   69.8210  227.0307 H   0  0  0  0  0  0  0  0  0  0  0  0
  140.8320   71.1300  225.4490 C   0  0  0  0  0  0  0  0  0  0  0  0
  141.5900   71.6144  226.0821 H   0  0  0  0  0  0  0  0  0  0  0  0
  140.6840   71.5210  224.1150 C   0  0  0  0  0  0  0  0  0  0  0  0
  141.3268   72.3124  223.7021 H   0  0  0  0  0  0  0  0  0  0  0  0
  1  2  1  0
  2  3  2  0
  3  4  1  0
  4  5  1  0
  5  6  2  0
  5  7  1  0
  7  8  1  0
  8  9  1  0
  8 10  1  0
  8 11  1  0
 11 12  2  0
 12 13  1  0
 12 14  1  0
 14 15  1  0
 14 16  2  0
 16 17  1  0
 16 18  1  0
 18 19  1  0
 18 20  2  0
 20 21  1  0
 21 22  1  0
 21 23  1  0
 21 24  1  0
 24 25  1  0
 24 26  1  0
  4 27  2  0
 27 28  1  0
 27 29  1  0
 29 30  1  0
 30 31  2  0
 30 32  1  0
 32 33  1  0
 33 34  1  0
 33 35  2  0
 35 36  1  0
 35 37  1  0
 37 38  1  0
 37 39  2  0
 39 40  1  0
 39 41  1  0
 41 42  2  0
 42 43  1  0
 43 44  1  0
 44 45  1  0
 45 46  1  0
 45 47  1  0
 45 48  1  0
 48 49  2  0
 49 50  1  0
 49 51  1  0
 51 52  1  0
 51 53  2  0
 53 54  1  0
 53 55  1  0
 55 56  1  0
 55 57  2  0
 57 58  1  0
 44  3  1  0
 57 48  1  0
 24  7  1  0
 43 29  2  0
 20 11  1  0
 41 32  1  0
M  END
>  <UniqueID>  (19) 
125

>  <SMILES>  (19) 
[H]/N=c1/c(C(=O)N2CCc3ccccc3C2)cc2c(=O)n3ccccc3nc2n1Cc1ccccc1

>  <Energy>  (19) 
93.21232330012761

>  <Genealogy>  (19) 
[H]/N=c1/c(C(=O)N2CCc3ccccc3C2)cc2c(=O)n3ccccc3nc2n1Cc1ccccc1 (cis-trans isomerization)
[H]/N=c1/c(C(=O)N2CCc3ccccc3C2)cc2c(=O)n3ccccc3nc2n1Cc1ccccc1 (3D coordinates assigned)
[H]/N=c1/c(C(=O)N2CCc3ccccc3C2)cc2c(=O)n3ccccc3nc2n1Cc1ccccc1 (nonaromatic ring conformer: 93.21232330012761 kcal/mol)

>  <smiles>  (19) 
N=c1c(C(=O)N2CCc3ccccc3C2)cc2c(=O)n3ccccc3nc2n1Cc1ccccc1

>  <score_type>  (19) 
oracle

>  <origin>  (19) 
autodockgpu

>  <m_score__min__energy>  (19) 
-9.2699999999999996

>  <m_primary>  (19) 
energy

>  <meeko>  (19) 
{"free_energy": -9.27, "intermolecular_energy": -10.76, "internal_energy": -1.37, "cluster_size": 14, "cluster_id": 1, "rank_in_cluster": 3}

>  <energy>  (19) 
-8.24

>  <cluster_rmsd>  (19) 
0.26

>  <rmsd>  (19) 
269.18

>  <cluster>  (19) 
3

$$$$
DRTNTVLZUVPGHX-GNVQSUKONA-N
     RDKit          3D

 58 63  0  0  0  0  0  0  0  0999 V2000
  139.3700   74.3010  222.7620 H   0  0  0  0  0  0  0  0  0  0  0  0
  140.3120   74.2300  222.3270 N   0  0  0  0  0  0  0  0  0  0  0  0
  140.8190   74.9950  221.4010 C   0  0  0  0  0  0  0  0  0  0  0  0
  140.5110   76.3740  221.4450 C   0  0  0  0  0  0  0  0  0  0  0  0
  139.7270   76.9700  222.5590 C   0  0  0  0  0  0  0  0  0  0  0  0
  138.7640   76.3240  223.0550 O   0  0  0  0  0  0  0  0  0  0  0  0
  140.0690   78.2620  223.0980 N   0  0  0  0  0  0  0  0  0  0  0  0
  139.1750   79.4100  222.9190 C   0  0  0  0  0  0  0  0  0  0  0  0
  138.9305   79.8350  223.9037 H   0  0  0  0  0  0  0  0  0  0  0  0
  138.2589   79.0709  222.4132 H   0  0  0  0  0  0  0  0  0  0  0  0
  139.8350   80.4690  222.0720 C   0  0  0  0  0  0  0  0  0  0  0  0
  139.0510   81.4970  221.5260 C   0  0  0  0  0  0  0  0  0  0  0  0
  137.9628   81.4986  221.6866 H   0  0  0  0  0  0  0  0  0  0  0  0
  139.6440   82.5180  220.7800 C   0  0  0  0  0  0  0  0  0  0  0  0
  139.0213   83.3155  220.3484 H   0  0  0  0  0  0  0  0  0  0  0  0
  141.0270   82.5280  220.5810 C   0  0  0  0  0  0  0  0  0  0  0  0
  141.4910   83.3320  219.9909 H   0  0  0  0  0  0  0  0  0  0  0  0
  141.8210   81.5190  221.1300 C   0  0  0  0  0  0  0  0  0  0  0  0
  142.9083   81.5284  220.9638 H   0  0  0  0  0  0  0  0  0  0  0  0
  141.2410   80.4920  221.8930 C   0  0  0  0  0  0  0  0  0  0  0  0
  142.1240   79.3800  222.4150 C   0  0  0  0  0  0  0  0  0  0  0  0
  143.0445   79.8219  222.8241 H   0  0  0  0  0  0  0  0  0  0  0  0
  142.3416   78.7019  221.5767 H   0  0  0  0  0  0  0  0  0  0  0  0
  141.4410   78.5620  223.5130 C   0  0  0  0  0  0  0  0  0  0  0  0
  141.4256   79.1403  224.4486 H   0  0  0  0  0  0  0  0  0  0  0  0
  141.9935   77.6252  223.6777 H   0  0  0  0  0  0  0  0  0  0  0  0
  140.9590   77.2090  220.4210 C   0  0  0  0  0  0  0  0  0  0  0  0
  140.7253   78.2835  220.4500 H   0  0  0  0  0  0  0  0  0  0  0  0
  141.7020   76.6890  219.3600 C   0  0  0  0  0  0  0  0  0  0  0  0
  142.1500   77.5000  218.2980 C   0  0  0  0  0  0  0  0  0  0  0  0
  141.8740   78.7340  218.2950 O   0  0  0  0  0  0  0  0  0  0  0  0
  142.8780   76.9500  217.2710 N   0  0  0  0  0  0  0  0  0  0  0  0
  143.3190   77.7270  216.2270 C   0  0  0  0  0  0  0  0  0  0  0  0
  143.0883   78.8025  216.2154 H   0  0  0  0  0  0  0  0  0  0  0  0
  144.0560   77.1690  215.1810 C   0  0  0  0  0  0  0  0  0  0  0  0
  144.4038   77.8007  214.3503 H   0  0  0  0  0  0  0  0  0  0  0  0
  144.3480   75.8080  215.1960 C   0  0  0  0  0  0  0  0  0  0  0  0
  144.9275   75.3578  214.3765 H   0  0  0  0  0  0  0  0  0  0  0  0
  143.9030   75.0200  216.2530 C   0  0  0  0  0  0  0  0  0  0  0  0
  144.1283   73.9435  216.2734 H   0  0  0  0  0  0  0  0  0  0  0  0
  143.1680   75.6040  217.2890 C   0  0  0  0  0  0  0  0  0  0  0  0
  142.7410   74.8260  218.3140 N   0  0  0  0  0  0  0  0  0  0  0  0
  142.0180   75.3200  219.3530 C   0  0  0  0  0  0  0  0  0  0  0  0
  141.6010   74.4890  220.3730 N   0  0  0  0  0  0  0  0  0  0  0  0
  142.0160   73.0660  220.3110 C   0  0  0  0  0  0  0  0  0  0  0  0
  141.6291   72.5397  221.1961 H   0  0  0  0  0  0  0  0  0  0  0  0
  141.6095   72.6226  219.3901 H   0  0  0  0  0  0  0  0  0  0  0  0
  143.5200   72.9410  220.2810 C   0  0  0  0  0  0  0  0  0  0  0  0
  144.3250   73.9490  220.8420 C   0  0  0  0  0  0  0  0  0  0  0  0
  143.8558   74.8241  221.3153 H   0  0  0  0  0  0  0  0  0  0  0  0
  145.7180   73.8440  220.8010 C   0  0  0  0  0  0  0  0  0  0  0  0
  146.3413   74.6364  221.2410 H   0  0  0  0  0  0  0  0  0  0  0  0
  146.3200   72.7360  220.2030 C   0  0  0  0  0  0  0  0  0  0  0  0
  147.4166   72.6563  220.1702 H   0  0  0  0  0  0  0  0  0  0  0  0
  145.5290   71.7280  219.6460 C   0  0  0  0  0  0  0  0  0  0  0  0
  146.0040   70.8539  219.1766 H   0  0  0  0  0  0  0  0  0  0  0  0
  144.1350   71.8280  219.6840 C   0  0  0  0  0  0  0  0  0  0  0  0
  143.5169   71.0314  219.2443 H   0  0  0  0  0  0  0  0  0  0  0  0
  1  2  1  0
  2  3  2  0
  3  4  1  0
  4  5  1  0
  5  6  2  0
  5  7  1  0
  7  8  1  0
  8  9  1  0
  8 10  1  0
  8 11  1  0
 11 12  2  0
 12 13  1  0
 12 14  1  0
 14 15  1  0
 14 16  2  0
 16 17  1  0
 16 18  1  0
 18 19  1  0
 18 20  2  0
 20 21  1  0
 21 22  1  0
 21 23  1  0
 21 24  1  0
 24 25  1  0
 24 26  1  0
  4 27  2  0
 27 28  1  0
 27 29  1  0
 29 30  1  0
 30 31  2  0
 30 32  1  0
 32 33  1  0
 33 34  1  0
 33 35  2  0
 35 36  1  0
 35 37  1  0
 37 38  1  0
 37 39  2  0
 39 40  1  0
 39 41  1  0
 41 42  2  0
 42 43  1  0
 43 44  1  0
 44 45  1  0
 45 46  1  0
 45 47  1  0
 45 48  1  0
 48 49  2  0
 49 50  1  0
 49 51  1  0
 51 52  1  0
 51 53  2  0
 53 54  1  0
 53 55  1  0
 55 56  1  0
 55 57  2  0
 57 58  1  0
 44  3  1  0
 57 48  1  0
 24  7  1  0
 43 29  2  0
 20 11  1  0
 41 32  1  0
M  END
>  <UniqueID>  (20) 
125

>  <SMILES>  (20) 
[H]/N=c1/c(C(=O)N2CCc3ccccc3C2)cc2c(=O)n3ccccc3nc2n1Cc1ccccc1

>  <Energy>  (20) 
93.21232330012761

>  <Genealogy>  (20) 
[H]/N=c1/c(C(=O)N2CCc3ccccc3C2)cc2c(=O)n3ccccc3nc2n1Cc1ccccc1 (cis-trans isomerization)
[H]/N=c1/c(C(=O)N2CCc3ccccc3C2)cc2c(=O)n3ccccc3nc2n1Cc1ccccc1 (3D coordinates assigned)
[H]/N=c1/c(C(=O)N2CCc3ccccc3C2)cc2c(=O)n3ccccc3nc2n1Cc1ccccc1 (nonaromatic ring conformer: 93.21232330012761 kcal/mol)

>  <smiles>  (20) 
N=c1c(C(=O)N2CCc3ccccc3C2)cc2c(=O)n3ccccc3nc2n1Cc1ccccc1

>  <score_type>  (20) 
oracle

>  <origin>  (20) 
autodockgpu

>  <m_score__min__energy>  (20) 
-9.2699999999999996

>  <m_primary>  (20) 
energy

>  <meeko>  (20) 
{"free_energy": -8.24, "intermolecular_energy": -9.74, "internal_energy": -2.02, "cluster_size": 4, "cluster_id": 3, "rank_in_cluster": 4}

>  <energy>  (20) 
-8.52

>  <cluster_rmsd>  (20) 
0.0

>  <rmsd>  (20) 
269.18

>  <cluster>  (20) 
4

$$$$
DRTNTVLZUVPGHX-GNVQSUKONA-N
     RDKit          3D

 58 63  0  0  0  0  0  0  0  0999 V2000
  137.8630   74.4670  223.0880 H   0  0  0  0  0  0  0  0  0  0  0  0
  138.2570   73.8840  222.3230 N   0  0  0  0  0  0  0  0  0  0  0  0
  139.4940   73.8430  221.9120 C   0  0  0  0  0  0  0  0  0  0  0  0
  140.1640   75.0730  221.7180 C   0  0  0  0  0  0  0  0  0  0  0  0
  139.5360   76.3750  222.0650 C   0  0  0  0  0  0  0  0  0  0  0  0
  138.5700   76.4010  222.8760 O   0  0  0  0  0  0  0  0  0  0  0  0
  140.0310   77.6090  221.5100 N   0  0  0  0  0  0  0  0  0  0  0  0
  141.4600   77.9350  221.5620 C   0  0  0  0  0  0  0  0  0  0  0  0
  141.8217   78.1397  220.5435 H   0  0  0  0  0  0  0  0  0  0  0  0
  142.0035   77.0817  221.9938 H   0  0  0  0  0  0  0  0  0  0  0  0
  141.6950   79.1490  222.4250 C   0  0  0  0  0  0  0  0  0  0  0  0
  142.9980   79.4410  222.8580 C   0  0  0  0  0  0  0  0  0  0  0  0
  143.8245   78.7629  222.5990 H   0  0  0  0  0  0  0  0  0  0  0  0
  143.2520   80.5860  223.6150 C   0  0  0  0  0  0  0  0  0  0  0  0
  144.2750   80.8029  223.9562 H   0  0  0  0  0  0  0  0  0  0  0  0
  142.2090   81.4570  223.9400 C   0  0  0  0  0  0  0  0  0  0  0  0
  142.4115   82.3568  224.5395 H   0  0  0  0  0  0  0  0  0  0  0  0
  140.9100   81.1870  223.5050 C   0  0  0  0  0  0  0  0  0  0  0  0
  140.0919   81.8728  223.7703 H   0  0  0  0  0  0  0  0  0  0  0  0
  140.6400   80.0460  222.7310 C   0  0  0  0  0  0  0  0  0  0  0  0
  139.2100   79.7500  222.3350 C   0  0  0  0  0  0  0  0  0  0  0  0
  138.7368   80.6831  221.9952 H   0  0  0  0  0  0  0  0  0  0  0  0
  138.6964   79.3359  223.2152 H   0  0  0  0  0  0  0  0  0  0  0  0
  139.1200   78.7160  221.2120 C   0  0  0  0  0  0  0  0  0  0  0  0
  139.4057   79.1822  220.2575 H   0  0  0  0  0  0  0  0  0  0  0  0
  138.0894   78.3392  221.1351 H   0  0  0  0  0  0  0  0  0  0  0  0
  141.4560   75.0720  221.1920 C   0  0  0  0  0  0  0  0  0  0  0  0
  141.9846   76.0245  221.0396 H   0  0  0  0  0  0  0  0  0  0  0  0
  142.0820   73.8710  220.8580 C   0  0  0  0  0  0  0  0  0  0  0  0
  143.3780   73.8360  220.3030 C   0  0  0  0  0  0  0  0  0  0  0  0
  143.9970   74.9190  220.0960 O   0  0  0  0  0  0  0  0  0  0  0  0
  143.9600   72.6330  219.9870 N   0  0  0  0  0  0  0  0  0  0  0  0
  145.2210   72.5840  219.4420 C   0  0  0  0  0  0  0  0  0  0  0  0
  145.7709   73.5191  219.2598 H   0  0  0  0  0  0  0  0  0  0  0  0
  145.8120   71.3620  219.1170 C   0  0  0  0  0  0  0  0  0  0  0  0
  146.8219   71.3339  218.6820 H   0  0  0  0  0  0  0  0  0  0  0  0
  145.1150   70.1790  219.3470 C   0  0  0  0  0  0  0  0  0  0  0  0
  145.5712   69.2107  219.0934 H   0  0  0  0  0  0  0  0  0  0  0  0
  143.8390   70.2270  219.8990 C   0  0  0  0  0  0  0  0  0  0  0  0
  143.2810   69.2973  220.0842 H   0  0  0  0  0  0  0  0  0  0  0  0
  143.2700   71.4640  220.2170 C   0  0  0  0  0  0  0  0  0  0  0  0
  142.0270   71.4980  220.7560 N   0  0  0  0  0  0  0  0  0  0  0  0
  141.4060   72.6610  221.0860 C   0  0  0  0  0  0  0  0  0  0  0  0
  140.1370   72.6470  221.6280 N   0  0  0  0  0  0  0  0  0  0  0  0
  139.5120   71.3250  221.8780 C   0  0  0  0  0  0  0  0  0  0  0  0
  138.4347   71.3904  221.6653 H   0  0  0  0  0  0  0  0  0  0  0  0
  139.9897   70.5819  221.2226 H   0  0  0  0  0  0  0  0  0  0  0  0
  139.7070   70.8970  223.3130 C   0  0  0  0  0  0  0  0  0  0  0  0
  138.9040   69.8820  223.8630 C   0  0  0  0  0  0  0  0  0  0  0  0
  138.1408   69.3908  223.2416 H   0  0  0  0  0  0  0  0  0  0  0  0
  139.0710   69.4940  225.1960 C   0  0  0  0  0  0  0  0  0  0  0  0
  138.4392   68.6995  225.6197 H   0  0  0  0  0  0  0  0  0  0  0  0
  140.0380   70.1130  225.9900 C   0  0  0  0  0  0  0  0  0  0  0  0
  140.1662   69.8083  227.0392 H   0  0  0  0  0  0  0  0  0  0  0  0
  140.8430   71.1200  225.4510 C   0  0  0  0  0  0  0  0  0  0  0  0
  141.6068   71.6054  226.0763 H   0  0  0  0  0  0  0  0  0  0  0  0
  140.6800   71.5120  224.1190 C   0  0  0  0  0  0  0  0  0  0  0  0
  141.3163   72.3055  223.7000 H   0  0  0  0  0  0  0  0  0  0  0  0
  1  2  1  0
  2  3  2  0
  3  4  1  0
  4  5  1  0
  5  6  2  0
  5  7  1  0
  7  8  1  0
  8  9  1  0
  8 10  1  0
  8 11  1  0
 11 12  2  0
 12 13  1  0
 12 14  1  0
 14 15  1  0
 14 16  2  0
 16 17  1  0
 16 18  1  0
 18 19  1  0
 18 20  2  0
 20 21  1  0
 21 22  1  0
 21 23  1  0
 21 24  1  0
 24 25  1  0
 24 26  1  0
  4 27  2  0
 27 28  1  0
 27 29  1  0
 29 30  1  0
 30 31  2  0
 30 32  1  0
 32 33  1  0
 33 34  1  0
 33 35  2  0
 35 36  1  0
 35 37  1  0
 37 38  1  0
 37 39  2  0
 39 40  1  0
 39 41  1  0
 41 42  2  0
 42 43  1  0
 43 44  1  0
 44 45  1  0
 45 46  1  0
 45 47  1  0
 45 48  1  0
 48 49  2  0
 49 50  1  0
 49 51  1  0
 51 52  1  0
 51 53  2  0
 53 54  1  0
 53 55  1  0
 55 56  1  0
 55 57  2  0
 57 58  1  0
 44  3  1  0
 57 48  1  0
 24  7  1  0
 43 29  2  0
 20 11  1  0
 41 32  1  0
M  END
>  <UniqueID>  (21) 
126

>  <SMILES>  (21) 
[H]/N=c1/c(C(=O)N2CCc3ccccc3C2)cc2c(=O)n3ccccc3nc2n1Cc1ccccc1

>  <Energy>  (21) 
93.42352053555778

>  <Genealogy>  (21) 
[H]/N=c1/c(C(=O)N2CCc3ccccc3C2)cc2c(=O)n3ccccc3nc2n1Cc1ccccc1 (cis-trans isomerization)
[H]/N=c1/c(C(=O)N2CCc3ccccc3C2)cc2c(=O)n3ccccc3nc2n1Cc1ccccc1 (3D coordinates assigned)
[H]/N=c1/c(C(=O)N2CCc3ccccc3C2)cc2c(=O)n3ccccc3nc2n1Cc1ccccc1 (nonaromatic ring conformer: 93.42352053555778 kcal/mol)

>  <smiles>  (21) 
N=c1c(C(=O)N2CCc3ccccc3C2)cc2c(=O)n3ccccc3nc2n1Cc1ccccc1

>  <score_type>  (21) 
oracle

>  <origin>  (21) 
autodockgpu

>  <m_score__min__energy>  (21) 
-9.2699999999999996

>  <m_primary>  (21) 
energy

>  <meeko>  (21) 
{"free_energy": -9.27, "intermolecular_energy": -10.76, "internal_energy": -1.38, "cluster_size": 14, "cluster_id": 1, "rank_in_cluster": 4}

>  <energy>  (21) 
-9.27

>  <cluster_rmsd>  (21) 
0.0

>  <rmsd>  (21) 
269.73

>  <cluster>  (21) 
1

$$$$
DRTNTVLZUVPGHX-GNVQSUKONA-N
     RDKit          3D

 58 63  0  0  0  0  0  0  0  0999 V2000
  137.8510   74.4580  223.0960 H   0  0  0  0  0  0  0  0  0  0  0  0
  138.2480   73.8700  222.3360 N   0  0  0  0  0  0  0  0  0  0  0  0
  139.4850   73.8310  221.9260 C   0  0  0  0  0  0  0  0  0  0  0  0
  140.1550   75.0620  221.7390 C   0  0  0  0  0  0  0  0  0  0  0  0
  139.5270   76.3620  222.0920 C   0  0  0  0  0  0  0  0  0  0  0  0
  138.5660   76.3850  222.9090 O   0  0  0  0  0  0  0  0  0  0  0  0
  140.0160   77.5990  221.5370 N   0  0  0  0  0  0  0  0  0  0  0  0
  141.4430   77.9310  221.5890 C   0  0  0  0  0  0  0  0  0  0  0  0
  141.8036   78.1372  220.5704 H   0  0  0  0  0  0  0  0  0  0  0  0
  141.9897   77.0799  222.0211 H   0  0  0  0  0  0  0  0  0  0  0  0
  141.6740   79.1460  222.4520 C   0  0  0  0  0  0  0  0  0  0  0  0
  142.9760   79.4440  222.8840 C   0  0  0  0  0  0  0  0  0  0  0  0
  143.8058   78.7702  222.6243 H   0  0  0  0  0  0  0  0  0  0  0  0
  143.2240   80.5900  223.6410 C   0  0  0  0  0  0  0  0  0  0  0  0
  144.2459   80.8115  223.9824 H   0  0  0  0  0  0  0  0  0  0  0  0
  142.1780   81.4560  223.9660 C   0  0  0  0  0  0  0  0  0  0  0  0
  142.3769   82.3570  224.5649 H   0  0  0  0  0  0  0  0  0  0  0  0
  140.8800   81.1800  223.5320 C   0  0  0  0  0  0  0  0  0  0  0  0
  140.0588   81.8618  223.7981 H   0  0  0  0  0  0  0  0  0  0  0  0
  140.6150   80.0380  222.7580 C   0  0  0  0  0  0  0  0  0  0  0  0
  139.1860   79.7360  222.3630 C   0  0  0  0  0  0  0  0  0  0  0  0
  138.7087   80.6670  222.0232 H   0  0  0  0  0  0  0  0  0  0  0  0
  138.6744   79.3201  223.2435 H   0  0  0  0  0  0  0  0  0  0  0  0
  139.1000   78.7010  221.2400 C   0  0  0  0  0  0  0  0  0  0  0  0
  139.3826   79.1684  220.2852 H   0  0  0  0  0  0  0  0  0  0  0  0
  138.0712   78.3192  221.1643 H   0  0  0  0  0  0  0  0  0  0  0  0
  141.4480   75.0650  221.2140 C   0  0  0  0  0  0  0  0  0  0  0  0
  141.9766   76.0184  221.0674 H   0  0  0  0  0  0  0  0  0  0  0  0
  142.0740   73.8650  220.8740 C   0  0  0  0  0  0  0  0  0  0  0  0
  143.3700   73.8340  220.3200 C   0  0  0  0  0  0  0  0  0  0  0  0
  143.9900   74.9180  220.1190 O   0  0  0  0  0  0  0  0  0  0  0  0
  143.9530   72.6330  219.9970 N   0  0  0  0  0  0  0  0  0  0  0  0
  145.2140   72.5870  219.4530 C   0  0  0  0  0  0  0  0  0  0  0  0
  145.7638   73.5232  219.2762 H   0  0  0  0  0  0  0  0  0  0  0  0
  145.8060   71.3670  219.1220 C   0  0  0  0  0  0  0  0  0  0  0  0
  146.8164   71.3417  218.6879 H   0  0  0  0  0  0  0  0  0  0  0  0
  145.1090   70.1820  219.3450 C   0  0  0  0  0  0  0  0  0  0  0  0
  145.5658   69.2152  219.0868 H   0  0  0  0  0  0  0  0  0  0  0  0
  143.8320   70.2270  219.8960 C   0  0  0  0  0  0  0  0  0  0  0  0
  143.2737   69.2964  220.0755 H   0  0  0  0  0  0  0  0  0  0  0  0
  143.2630   71.4620  220.2200 C   0  0  0  0  0  0  0  0  0  0  0  0
  142.0190   71.4930  220.7590 N   0  0  0  0  0  0  0  0  0  0  0  0
  141.3980   72.6540  221.0950 C   0  0  0  0  0  0  0  0  0  0  0  0
  140.1290   72.6370  221.6360 N   0  0  0  0  0  0  0  0  0  0  0  0
  139.5040   71.3140  221.8790 C   0  0  0  0  0  0  0  0  0  0  0  0
  138.4341   71.3705  221.6297 H   0  0  0  0  0  0  0  0  0  0  0  0
  140.0081   70.5673  221.2479 H   0  0  0  0  0  0  0  0  0  0  0  0
  139.6530   70.9020  223.3230 C   0  0  0  0  0  0  0  0  0  0  0  0
  140.6410   71.4950  224.1300 C   0  0  0  0  0  0  0  0  0  0  0  0
  141.2982   72.2704  223.7094 H   0  0  0  0  0  0  0  0  0  0  0  0
  140.7920   71.1040  225.4640 C   0  0  0  0  0  0  0  0  0  0  0  0
  141.5660   71.5731  226.0891 H   0  0  0  0  0  0  0  0  0  0  0  0
  139.9630   70.1200  226.0040 C   0  0  0  0  0  0  0  0  0  0  0  0
  140.0855   69.8115  227.0527 H   0  0  0  0  0  0  0  0  0  0  0  0
  138.9770   69.5270  225.2110 C   0  0  0  0  0  0  0  0  0  0  0  0
  138.3217   68.7534  225.6378 H   0  0  0  0  0  0  0  0  0  0  0  0
  138.8210   69.9140  223.8770 C   0  0  0  0  0  0  0  0  0  0  0  0
  138.0433   69.4430  223.2578 H   0  0  0  0  0  0  0  0  0  0  0  0
  1  2  1  0
  2  3  2  0
  3  4  1  0
  4  5  1  0
  5  6  2  0
  5  7  1  0
  7  8  1  0
  8  9  1  0
  8 10  1  0
  8 11  1  0
 11 12  2  0
 12 13  1  0
 12 14  1  0
 14 15  1  0
 14 16  2  0
 16 17  1  0
 16 18  1  0
 18 19  1  0
 18 20  2  0
 20 21  1  0
 21 22  1  0
 21 23  1  0
 21 24  1  0
 24 25  1  0
 24 26  1  0
  4 27  2  0
 27 28  1  0
 27 29  1  0
 29 30  1  0
 30 31  2  0
 30 32  1  0
 32 33  1  0
 33 34  1  0
 33 35  2  0
 35 36  1  0
 35 37  1  0
 37 38  1  0
 37 39  2  0
 39 40  1  0
 39 41  1  0
 41 42  2  0
 42 43  1  0
 43 44  1  0
 44 45  1  0
 45 46  1  0
 45 47  1  0
 45 48  1  0
 48 49  2  0
 49 50  1  0
 49 51  1  0
 51 52  1  0
 51 53  2  0
 53 54  1  0
 53 55  1  0
 55 56  1  0
 55 57  2  0
 57 58  1  0
 44  3  1  0
 57 48  1  0
 24  7  1  0
 43 29  2  0
 20 11  1  0
 41 32  1  0
M  END
>  <UniqueID>  (22) 
126

>  <SMILES>  (22) 
[H]/N=c1/c(C(=O)N2CCc3ccccc3C2)cc2c(=O)n3ccccc3nc2n1Cc1ccccc1

>  <Energy>  (22) 
93.42352053555778

>  <Genealogy>  (22) 
[H]/N=c1/c(C(=O)N2CCc3ccccc3C2)cc2c(=O)n3ccccc3nc2n1Cc1ccccc1 (cis-trans isomerization)
[H]/N=c1/c(C(=O)N2CCc3ccccc3C2)cc2c(=O)n3ccccc3nc2n1Cc1ccccc1 (3D coordinates assigned)
[H]/N=c1/c(C(=O)N2CCc3ccccc3C2)cc2c(=O)n3ccccc3nc2n1Cc1ccccc1 (nonaromatic ring conformer: 93.42352053555778 kcal/mol)

>  <smiles>  (22) 
N=c1c(C(=O)N2CCc3ccccc3C2)cc2c(=O)n3ccccc3nc2n1Cc1ccccc1

>  <score_type>  (22) 
oracle

>  <origin>  (22) 
autodockgpu

>  <m_score__min__energy>  (22) 
-9.2699999999999996

>  <m_primary>  (22) 
energy

>  <meeko>  (22) 
{"free_energy": -9.27, "intermolecular_energy": -10.76, "internal_energy": -1.37, "cluster_size": 14, "cluster_id": 1, "rank_in_cluster": 1}

>  <energy>  (22) 
-9.27

>  <cluster_rmsd>  (22) 
0.03

>  <rmsd>  (22) 
269.72

>  <cluster>  (22) 
1

$$$$
DRTNTVLZUVPGHX-GNVQSUKONA-N
     RDKit          3D

 58 63  0  0  0  0  0  0  0  0999 V2000
  138.4140   72.6310  220.8070 H   0  0  0  0  0  0  0  0  0  0  0  0
  137.5920   72.2250  221.2970 N   0  0  0  0  0  0  0  0  0  0  0  0
  136.9580   72.7140  222.3260 C   0  0  0  0  0  0  0  0  0  0  0  0
  136.5990   71.8220  223.3620 C   0  0  0  0  0  0  0  0  0  0  0  0
  137.0130   70.3940  223.3510 C   0  0  0  0  0  0  0  0  0  0  0  0
  136.1810   69.5100  223.0090 O   0  0  0  0  0  0  0  0  0  0  0  0
  138.3580   70.0090  223.6980 N   0  0  0  0  0  0  0  0  0  0  0  0
  138.6270   69.2410  224.9170 C   0  0  0  0  0  0  0  0  0  0  0  0
  139.1730   68.3233  224.6531 H   0  0  0  0  0  0  0  0  0  0  0  0
  137.6695   68.9892  225.3963 H   0  0  0  0  0  0  0  0  0  0  0  0
  139.4560   70.0510  225.8820 C   0  0  0  0  0  0  0  0  0  0  0  0
  139.5610   69.6310  227.2170 C   0  0  0  0  0  0  0  0  0  0  0  0
  139.0090   68.7417  227.5551 H   0  0  0  0  0  0  0  0  0  0  0  0
  140.3620   70.3350  228.1190 C   0  0  0  0  0  0  0  0  0  0  0  0
  140.4322   70.0038  229.1656 H   0  0  0  0  0  0  0  0  0  0  0  0
  141.0740   71.4590  227.6940 C   0  0  0  0  0  0  0  0  0  0  0  0
  141.7019   72.0133  228.4071 H   0  0  0  0  0  0  0  0  0  0  0  0
  140.9900   71.8800  226.3660 C   0  0  0  0  0  0  0  0  0  0  0  0
  141.5477   72.7702  226.0395 H   0  0  0  0  0  0  0  0  0  0  0  0
  140.1990   71.1760  225.4430 C   0  0  0  0  0  0  0  0  0  0  0  0
  140.0790   71.7010  224.0290 C   0  0  0  0  0  0  0  0  0  0  0  0
  141.0776   71.9984  223.6763 H   0  0  0  0  0  0  0  0  0  0  0  0
  139.3872   72.5560  224.0454 H   0  0  0  0  0  0  0  0  0  0  0  0
  139.5090   70.6570  223.0680 C   0  0  0  0  0  0  0  0  0  0  0  0
  140.2785   69.9041  222.8424 H   0  0  0  0  0  0  0  0  0  0  0  0
  139.1959   71.1440  222.1327 H   0  0  0  0  0  0  0  0  0  0  0  0
  135.8400   72.2890  224.4350 C   0  0  0  0  0  0  0  0  0  0  0  0
  135.5590   71.6015  225.2464 H   0  0  0  0  0  0  0  0  0  0  0  0
  135.4350   73.6240  224.4850 C   0  0  0  0  0  0  0  0  0  0  0  0
  134.6480   74.1230  225.5430 C   0  0  0  0  0  0  0  0  0  0  0  0
  134.2910   73.3480  226.4760 O   0  0  0  0  0  0  0  0  0  0  0  0
  134.2690   75.4440  225.5560 N   0  0  0  0  0  0  0  0  0  0  0  0
  133.4990   75.9440  226.5780 C   0  0  0  0  0  0  0  0  0  0  0  0
  133.1851   75.2795  227.3965 H   0  0  0  0  0  0  0  0  0  0  0  0
  133.1100   77.2840  226.5910 C   0  0  0  0  0  0  0  0  0  0  0  0
  132.4939   77.6736  227.4148 H   0  0  0  0  0  0  0  0  0  0  0  0
  133.5070   78.1250  225.5540 C   0  0  0  0  0  0  0  0  0  0  0  0
  133.2053   79.1828  225.5536 H   0  0  0  0  0  0  0  0  0  0  0  0
  134.2870   77.6200  224.5190 C   0  0  0  0  0  0  0  0  0  0  0  0
  134.6056   78.2762  223.6957 H   0  0  0  0  0  0  0  0  0  0  0  0
  134.6640   76.2730  224.5310 C   0  0  0  0  0  0  0  0  0  0  0  0
  135.4260   75.7940  223.5180 N   0  0  0  0  0  0  0  0  0  0  0  0
  135.8280   74.4970  223.4570 C   0  0  0  0  0  0  0  0  0  0  0  0
  136.5990   74.0520  222.4030 N   0  0  0  0  0  0  0  0  0  0  0  0
  137.0070   75.0480  221.3830 C   0  0  0  0  0  0  0  0  0  0  0  0
  137.1227   74.5426  220.4129 H   0  0  0  0  0  0  0  0  0  0  0  0
  136.2312   75.8255  221.3225 H   0  0  0  0  0  0  0  0  0  0  0  0
  138.3150   75.7020  221.7580 C   0  0  0  0  0  0  0  0  0  0  0  0
  139.5280   75.0120  221.5830 C   0  0  0  0  0  0  0  0  0  0  0  0
  139.5234   73.9972  221.1586 H   0  0  0  0  0  0  0  0  0  0  0  0
  140.7390   75.6080  221.9450 C   0  0  0  0  0  0  0  0  0  0  0  0
  141.6834   75.0614  221.8058 H   0  0  0  0  0  0  0  0  0  0  0  0
  140.7520   76.8960  222.4830 C   0  0  0  0  0  0  0  0  0  0  0  0
  141.7058   77.3634  222.7690 H   0  0  0  0  0  0  0  0  0  0  0  0
  139.5530   77.5910  222.6580 C   0  0  0  0  0  0  0  0  0  0  0  0
  139.5642   78.6067  223.0802 H   0  0  0  0  0  0  0  0  0  0  0  0
  138.3390   76.9990  222.2980 C   0  0  0  0  0  0  0  0  0  0  0  0
  137.3980   77.5511  222.4381 H   0  0  0  0  0  0  0  0  0  0  0  0
  1  2  1  0
  2  3  2  0
  3  4  1  0
  4  5  1  0
  5  6  2  0
  5  7  1  0
  7  8  1  0
  8  9  1  0
  8 10  1  0
  8 11  1  0
 11 12  2  0
 12 13  1  0
 12 14  1  0
 14 15  1  0
 14 16  2  0
 16 17  1  0
 16 18  1  0
 18 19  1  0
 18 20  2  0
 20 21  1  0
 21 22  1  0
 21 23  1  0
 21 24  1  0
 24 25  1  0
 24 26  1  0
  4 27  2  0
 27 28  1  0
 27 29  1  0
 29 30  1  0
 30 31  2  0
 30 32  1  0
 32 33  1  0
 33 34  1  0
 33 35  2  0
 35 36  1  0
 35 37  1  0
 37 38  1  0
 37 39  2  0
 39 40  1  0
 39 41  1  0
 41 42  2  0
 42 43  1  0
 43 44  1  0
 44 45  1  0
 45 46  1  0
 45 47  1  0
 45 48  1  0
 48 49  2  0
 49 50  1  0
 49 51  1  0
 51 52  1  0
 51 53  2  0
 53 54  1  0
 53 55  1  0
 55 56  1  0
 55 57  2  0
 57 58  1  0
 44  3  1  0
 57 48  1  0
 24  7  1  0
 43 29  2  0
 20 11  1  0
 41 32  1  0
M  END
>  <UniqueID>  (23) 
126

>  <SMILES>  (23) 
[H]/N=c1/c(C(=O)N2CCc3ccccc3C2)cc2c(=O)n3ccccc3nc2n1Cc1ccccc1

>  <Energy>  (23) 
93.42352053555778

>  <Genealogy>  (23) 
[H]/N=c1/c(C(=O)N2CCc3ccccc3C2)cc2c(=O)n3ccccc3nc2n1Cc1ccccc1 (cis-trans isomerization)
[H]/N=c1/c(C(=O)N2CCc3ccccc3C2)cc2c(=O)n3ccccc3nc2n1Cc1ccccc1 (3D coordinates assigned)
[H]/N=c1/c(C(=O)N2CCc3ccccc3C2)cc2c(=O)n3ccccc3nc2n1Cc1ccccc1 (nonaromatic ring conformer: 93.42352053555778 kcal/mol)

>  <smiles>  (23) 
N=c1c(C(=O)N2CCc3ccccc3C2)cc2c(=O)n3ccccc3nc2n1Cc1ccccc1

>  <score_type>  (23) 
oracle

>  <origin>  (23) 
autodockgpu

>  <m_score__min__energy>  (23) 
-9.2699999999999996

>  <m_primary>  (23) 
energy

>  <meeko>  (23) 
{"free_energy": -8.52, "intermolecular_energy": -10.01, "internal_energy": -1.49, "cluster_size": 1, "cluster_id": 4, "rank_in_cluster": 1}

>  <energy>  (23) 
-9.27

>  <cluster_rmsd>  (23) 
0.05

>  <rmsd>  (23) 
269.73

>  <cluster>  (23) 
1

$$$$
DRTNTVLZUVPGHX-GNVQSUKONA-N
     RDKit          3D

 58 63  0  0  0  0  0  0  0  0999 V2000
  137.8530   74.4760  223.0950 H   0  0  0  0  0  0  0  0  0  0  0  0
  138.2430   73.9200  222.3080 N   0  0  0  0  0  0  0  0  0  0  0  0
  139.4810   73.8790  221.9010 C   0  0  0  0  0  0  0  0  0  0  0  0
  140.1540   75.1080  221.7150 C   0  0  0  0  0  0  0  0  0  0  0  0
  139.5270   76.4090  222.0680 C   0  0  0  0  0  0  0  0  0  0  0  0
  138.5610   76.4330  222.8780 O   0  0  0  0  0  0  0  0  0  0  0  0
  140.0250   77.6450  221.5200 N   0  0  0  0  0  0  0  0  0  0  0  0
  141.4510   77.9790  221.5940 C   0  0  0  0  0  0  0  0  0  0  0  0
  141.8272   78.1845  220.5810 H   0  0  0  0  0  0  0  0  0  0  0  0
  141.9919   77.1290  222.0356 H   0  0  0  0  0  0  0  0  0  0  0  0
  141.6670   79.1950  222.4590 C   0  0  0  0  0  0  0  0  0  0  0  0
  142.9610   79.4940  222.9120 C   0  0  0  0  0  0  0  0  0  0  0  0
  143.7950   78.8201  222.6666 H   0  0  0  0  0  0  0  0  0  0  0  0
  143.1970   80.6410  223.6720 C   0  0  0  0  0  0  0  0  0  0  0  0
  144.2132   80.8631  224.0297 H   0  0  0  0  0  0  0  0  0  0  0  0
  142.1450   81.5070  223.9790 C   0  0  0  0  0  0  0  0  0  0  0  0
  142.3337   82.4093  224.5793 H   0  0  0  0  0  0  0  0  0  0  0  0
  140.8540   81.2290  223.5250 C   0  0  0  0  0  0  0  0  0  0  0  0
  140.0278   81.9097  223.7780 H   0  0  0  0  0  0  0  0  0  0  0  0
  140.6030   80.0870  222.7480 C   0  0  0  0  0  0  0  0  0  0  0  0
  139.1810   79.7830  222.3300 C   0  0  0  0  0  0  0  0  0  0  0  0
  138.7083   80.7134  221.9821 H   0  0  0  0  0  0  0  0  0  0  0  0
  138.6564   79.3666  223.2025 H   0  0  0  0  0  0  0  0  0  0  0  0
  139.1130   78.7470  221.2060 C   0  0  0  0  0  0  0  0  0  0  0  0
  139.4112   79.2135  220.2555 H   0  0  0  0  0  0  0  0  0  0  0  0
  138.0856   78.3652  221.1130 H   0  0  0  0  0  0  0  0  0  0  0  0
  141.4470   75.1080  221.1930 C   0  0  0  0  0  0  0  0  0  0  0  0
  141.9776   76.0606  221.0476 H   0  0  0  0  0  0  0  0  0  0  0  0
  142.0720   73.9080  220.8540 C   0  0  0  0  0  0  0  0  0  0  0  0
  143.3690   73.8740  220.3030 C   0  0  0  0  0  0  0  0  0  0  0  0
  143.9920   74.9560  220.1040 O   0  0  0  0  0  0  0  0  0  0  0  0
  143.9510   72.6710  219.9820 N   0  0  0  0  0  0  0  0  0  0  0  0
  145.2130   72.6230  219.4410 C   0  0  0  0  0  0  0  0  0  0  0  0
  145.7654   73.5581  219.2664 H   0  0  0  0  0  0  0  0  0  0  0  0
  145.8030   71.4010  219.1100 C   0  0  0  0  0  0  0  0  0  0  0  0
  146.8138   71.3734  218.6769 H   0  0  0  0  0  0  0  0  0  0  0  0
  145.1030   70.2180  219.3320 C   0  0  0  0  0  0  0  0  0  0  0  0
  145.5582   69.2501  219.0753 H   0  0  0  0  0  0  0  0  0  0  0  0
  143.8250   70.2660  219.8800 C   0  0  0  0  0  0  0  0  0  0  0  0
  143.2641   69.3366  220.0580 H   0  0  0  0  0  0  0  0  0  0  0  0
  143.2580   71.5020  220.2030 C   0  0  0  0  0  0  0  0  0  0  0  0
  142.0130   71.5350  220.7390 N   0  0  0  0  0  0  0  0  0  0  0  0
  141.3940   72.6980  221.0740 C   0  0  0  0  0  0  0  0  0  0  0  0
  140.1230   72.6830  221.6120 N   0  0  0  0  0  0  0  0  0  0  0  0
  139.4950   71.3610  221.8530 C   0  0  0  0  0  0  0  0  0  0  0  0
  138.4204   71.4268  221.6272 H   0  0  0  0  0  0  0  0  0  0  0  0
  139.9810   70.6187  221.2028 H   0  0  0  0  0  0  0  0  0  0  0  0
  139.6720   70.9310  223.2890 C   0  0  0  0  0  0  0  0  0  0  0  0
  140.6780   71.5120  224.0820 C   0  0  0  0  0  0  0  0  0  0  0  0
  141.3287   72.2904  223.6569 H   0  0  0  0  0  0  0  0  0  0  0  0
  140.8550   71.1050  225.4080 C   0  0  0  0  0  0  0  0  0  0  0  0
  141.6433   71.5641  226.0227 H   0  0  0  0  0  0  0  0  0  0  0  0
  140.0330   70.1170  225.9530 C   0  0  0  0  0  0  0  0  0  0  0  0
  140.1757   69.7960  226.9954 H   0  0  0  0  0  0  0  0  0  0  0  0
  139.0290   69.5360  225.1740 C   0  0  0  0  0  0  0  0  0  0  0  0
  138.3804   68.7591  225.6050 H   0  0  0  0  0  0  0  0  0  0  0  0
  138.8470   69.9400  223.8480 C   0  0  0  0  0  0  0  0  0  0  0  0
  138.0544   69.4801  223.2394 H   0  0  0  0  0  0  0  0  0  0  0  0
  1  2  1  0
  2  3  2  0
  3  4  1  0
  4  5  1  0
  5  6  2  0
  5  7  1  0
  7  8  1  0
  8  9  1  0
  8 10  1  0
  8 11  1  0
 11 12  2  0
 12 13  1  0
 12 14  1  0
 14 15  1  0
 14 16  2  0
 16 17  1  0
 16 18  1  0
 18 19  1  0
 18 20  2  0
 20 21  1  0
 21 22  1  0
 21 23  1  0
 21 24  1  0
 24 25  1  0
 24 26  1  0
  4 27  2  0
 27 28  1  0
 27 29  1  0
 29 30  1  0
 30 31  2  0
 30 32  1  0
 32 33  1  0
 33 34  1  0
 33 35  2  0
 35 36  1  0
 35 37  1  0
 37 38  1  0
 37 39  2  0
 39 40  1  0
 39 41  1  0
 41 42  2  0
 42 43  1  0
 43 44  1  0
 44 45  1  0
 45 46  1  0
 45 47  1  0
 45 48  1  0
 48 49  2  0
 49 50  1  0
 49 51  1  0
 51 52  1  0
 51 53  2  0
 53 54  1  0
 53 55  1  0
 55 56  1  0
 55 57  2  0
 57 58  1  0
 44  3  1  0
 57 48  1  0
 24  7  1  0
 43 29  2  0
 20 11  1  0
 41 32  1  0
M  END
>  <UniqueID>  (24) 
126

>  <SMILES>  (24) 
[H]/N=c1/c(C(=O)N2CCc3ccccc3C2)cc2c(=O)n3ccccc3nc2n1Cc1ccccc1

>  <Energy>  (24) 
93.42352053555778

>  <Genealogy>  (24) 
[H]/N=c1/c(C(=O)N2CCc3ccccc3C2)cc2c(=O)n3ccccc3nc2n1Cc1ccccc1 (cis-trans isomerization)
[H]/N=c1/c(C(=O)N2CCc3ccccc3C2)cc2c(=O)n3ccccc3nc2n1Cc1ccccc1 (3D coordinates assigned)
[H]/N=c1/c(C(=O)N2CCc3ccccc3C2)cc2c(=O)n3ccccc3nc2n1Cc1ccccc1 (nonaromatic ring conformer: 93.42352053555778 kcal/mol)

>  <smiles>  (24) 
N=c1c(C(=O)N2CCc3ccccc3C2)cc2c(=O)n3ccccc3nc2n1Cc1ccccc1

>  <score_type>  (24) 
oracle

>  <origin>  (24) 
autodockgpu

>  <m_score__min__energy>  (24) 
-9.2699999999999996

>  <m_primary>  (24) 
energy

>  <meeko>  (24) 
{"free_energy": -9.26, "intermolecular_energy": -10.75, "internal_energy": -1.38, "cluster_size": 14, "cluster_id": 1, "rank_in_cluster": 11}

>  <energy>  (24) 
-9.27

>  <cluster_rmsd>  (24) 
0.04

>  <rmsd>  (24) 
269.72

>  <cluster>  (24) 
1

$$$$
DRTNTVLZUVPGHX-GNVQSUKONA-N
     RDKit          3D

 58 63  0  0  0  0  0  0  0  0999 V2000
  137.8520   74.4510  223.0800 H   0  0  0  0  0  0  0  0  0  0  0  0
  138.2510   73.8850  222.3040 N   0  0  0  0  0  0  0  0  0  0  0  0
  139.4910   73.8500  221.9030 C   0  0  0  0  0  0  0  0  0  0  0  0
  140.1590   75.0830  221.7220 C   0  0  0  0  0  0  0  0  0  0  0  0
  139.5250   76.3810  222.0740 C   0  0  0  0  0  0  0  0  0  0  0  0
  138.5590   76.4000  222.8840 O   0  0  0  0  0  0  0  0  0  0  0  0
  140.0160   77.6190  221.5240 N   0  0  0  0  0  0  0  0  0  0  0  0
  141.4410   77.9560  221.5890 C   0  0  0  0  0  0  0  0  0  0  0  0
  141.8100   78.1639  220.5738 H   0  0  0  0  0  0  0  0  0  0  0  0
  141.9868   77.1066  222.0257 H   0  0  0  0  0  0  0  0  0  0  0  0
  141.6600   79.1720  222.4550 C   0  0  0  0  0  0  0  0  0  0  0  0
  142.9560   79.4730  222.8990 C   0  0  0  0  0  0  0  0  0  0  0  0
  143.7900   78.8018  222.6464 H   0  0  0  0  0  0  0  0  0  0  0  0
  143.1940   80.6200  223.6600 C   0  0  0  0  0  0  0  0  0  0  0  0
  144.2121   80.8445  224.0109 H   0  0  0  0  0  0  0  0  0  0  0  0
  142.1420   81.4820  223.9760 C   0  0  0  0  0  0  0  0  0  0  0  0
  142.3323   82.3832  224.5773 H   0  0  0  0  0  0  0  0  0  0  0  0
  140.8490   81.2020  223.5300 C   0  0  0  0  0  0  0  0  0  0  0  0
  140.0231   81.8808  223.7891 H   0  0  0  0  0  0  0  0  0  0  0  0
  140.5950   80.0600  222.7530 C   0  0  0  0  0  0  0  0  0  0  0  0
  139.1710   79.7530  222.3440 C   0  0  0  0  0  0  0  0  0  0  0  0
  138.6935   80.6826  222.0008 H   0  0  0  0  0  0  0  0  0  0  0  0
  138.6529   79.3339  223.2192 H   0  0  0  0  0  0  0  0  0  0  0  0
  139.0990   78.7190  221.2190 C   0  0  0  0  0  0  0  0  0  0  0  0
  139.3894   79.1883  220.2674 H   0  0  0  0  0  0  0  0  0  0  0  0
  138.0721   78.3341  221.1328 H   0  0  0  0  0  0  0  0  0  0  0  0
  141.4550   75.0890  221.2070 C   0  0  0  0  0  0  0  0  0  0  0  0
  141.9827   76.0440  221.0671 H   0  0  0  0  0  0  0  0  0  0  0  0
  142.0870   73.8920  220.8680 C   0  0  0  0  0  0  0  0  0  0  0  0
  143.3870   73.8650  220.3230 C   0  0  0  0  0  0  0  0  0  0  0  0
  144.0050   74.9500  220.1290 O   0  0  0  0  0  0  0  0  0  0  0  0
  143.9750   72.6650  220.0030 N   0  0  0  0  0  0  0  0  0  0  0  0
  145.2400   72.6230  219.4680 C   0  0  0  0  0  0  0  0  0  0  0  0
  145.7891   73.5608  219.2976 H   0  0  0  0  0  0  0  0  0  0  0  0
  145.8370   71.4050  219.1380 C   0  0  0  0  0  0  0  0  0  0  0  0
  146.8499   71.3827  218.7096 H   0  0  0  0  0  0  0  0  0  0  0  0
  145.1410   70.2180  219.3550 C   0  0  0  0  0  0  0  0  0  0  0  0
  145.6020   69.2526  219.0990 H   0  0  0  0  0  0  0  0  0  0  0  0
  143.8600   70.2590  219.8970 C   0  0  0  0  0  0  0  0  0  0  0  0
  143.3025   69.3269  220.0711 H   0  0  0  0  0  0  0  0  0  0  0  0
  143.2860   71.4930  220.2190 C   0  0  0  0  0  0  0  0  0  0  0  0
  142.0380   71.5190  220.7490 N   0  0  0  0  0  0  0  0  0  0  0  0
  141.4130   72.6790  221.0830 C   0  0  0  0  0  0  0  0  0  0  0  0
  140.1400   72.6570  221.6150 N   0  0  0  0  0  0  0  0  0  0  0  0
  139.5160   71.3330  221.8510 C   0  0  0  0  0  0  0  0  0  0  0  0
  138.4420   71.3956  221.6218 H   0  0  0  0  0  0  0  0  0  0  0  0
  140.0064   70.5936  221.2008 H   0  0  0  0  0  0  0  0  0  0  0  0
  139.6900   70.9010  223.2870 C   0  0  0  0  0  0  0  0  0  0  0  0
  138.8770   69.8860  223.8240 C   0  0  0  0  0  0  0  0  0  0  0  0
  138.1214   69.3981  223.1907 H   0  0  0  0  0  0  0  0  0  0  0  0
  139.0240   69.4940  225.1580 C   0  0  0  0  0  0  0  0  0  0  0  0
  138.3850   68.6994  225.5707 H   0  0  0  0  0  0  0  0  0  0  0  0
  139.9810   70.1100  225.9670 C   0  0  0  0  0  0  0  0  0  0  0  0
  140.0945   69.8024  227.0170 H   0  0  0  0  0  0  0  0  0  0  0  0
  140.7940   71.1170  225.4420 C   0  0  0  0  0  0  0  0  0  0  0  0
  141.5485   71.6007  226.0798 H   0  0  0  0  0  0  0  0  0  0  0  0
  140.6520   71.5120  224.1090 C   0  0  0  0  0  0  0  0  0  0  0  0
  141.2963   72.3049  223.7014 H   0  0  0  0  0  0  0  0  0  0  0  0
  1  2  1  0
  2  3  2  0
  3  4  1  0
  4  5  1  0
  5  6  2  0
  5  7  1  0
  7  8  1  0
  8  9  1  0
  8 10  1  0
  8 11  1  0
 11 12  2  0
 12 13  1  0
 12 14  1  0
 14 15  1  0
 14 16  2  0
 16 17  1  0
 16 18  1  0
 18 19  1  0
 18 20  2  0
 20 21  1  0
 21 22  1  0
 21 23  1  0
 21 24  1  0
 24 25  1  0
 24 26  1  0
  4 27  2  0
 27 28  1  0
 27 29  1  0
 29 30  1  0
 30 31  2  0
 30 32  1  0
 32 33  1  0
 33 34  1  0
 33 35  2  0
 35 36  1  0
 35 37  1  0
 37 38  1  0
 37 39  2  0
 39 40  1  0
 39 41  1  0
 41 42  2  0
 42 43  1  0
 43 44  1  0
 44 45  1  0
 45 46  1  0
 45 47  1  0
 45 48  1  0
 48 49  2  0
 49 50  1  0
 49 51  1  0
 51 52  1  0
 51 53  2  0
 53 54  1  0
 53 55  1  0
 55 56  1  0
 55 57  2  0
 57 58  1  0
 44  3  1  0
 57 48  1  0
 24  7  1  0
 43 29  2  0
 20 11  1  0
 41 32  1  0
M  END
>  <UniqueID>  (25) 
126

>  <SMILES>  (25) 
[H]/N=c1/c(C(=O)N2CCc3ccccc3C2)cc2c(=O)n3ccccc3nc2n1Cc1ccccc1

>  <Energy>  (25) 
93.42352053555778

>  <Genealogy>  (25) 
[H]/N=c1/c(C(=O)N2CCc3ccccc3C2)cc2c(=O)n3ccccc3nc2n1Cc1ccccc1 (cis-trans isomerization)
[H]/N=c1/c(C(=O)N2CCc3ccccc3C2)cc2c(=O)n3ccccc3nc2n1Cc1ccccc1 (3D coordinates assigned)
[H]/N=c1/c(C(=O)N2CCc3ccccc3C2)cc2c(=O)n3ccccc3nc2n1Cc1ccccc1 (nonaromatic ring conformer: 93.42352053555778 kcal/mol)

>  <smiles>  (25) 
N=c1c(C(=O)N2CCc3ccccc3C2)cc2c(=O)n3ccccc3nc2n1Cc1ccccc1

>  <score_type>  (25) 
oracle

>  <origin>  (25) 
autodockgpu

>  <m_score__min__energy>  (25) 
-9.2699999999999996

>  <m_primary>  (25) 
energy

>  <meeko>  (25) 
{"free_energy": -9.26, "intermolecular_energy": -10.75, "internal_energy": -1.37, "cluster_size": 14, "cluster_id": 1, "rank_in_cluster": 9}

>  <energy>  (25) 
-9.27

>  <cluster_rmsd>  (25) 
0.04

>  <rmsd>  (25) 
269.72

>  <cluster>  (25) 
1

$$$$
DRTNTVLZUVPGHX-GNVQSUKONA-N
     RDKit          3D

 58 63  0  0  0  0  0  0  0  0999 V2000
  139.5420   74.6170  223.0410 H   0  0  0  0  0  0  0  0  0  0  0  0
  140.2590   74.3450  222.3390 N   0  0  0  0  0  0  0  0  0  0  0  0
  140.7700   75.0870  221.3970 C   0  0  0  0  0  0  0  0  0  0  0  0
  140.4550   76.4650  221.4010 C   0  0  0  0  0  0  0  0  0  0  0  0
  139.6590   77.0870  222.4910 C   0  0  0  0  0  0  0  0  0  0  0  0
  138.5780   76.5500  222.8540 O   0  0  0  0  0  0  0  0  0  0  0  0
  140.1180   78.2800  223.1570 N   0  0  0  0  0  0  0  0  0  0  0  0
  139.2700   79.4730  223.2300 C   0  0  0  0  0  0  0  0  0  0  0  0
  139.1498   79.7670  224.2831 H   0  0  0  0  0  0  0  0  0  0  0  0
  138.2912   79.2397  222.7856 H   0  0  0  0  0  0  0  0  0  0  0  0
  139.8910   80.6140  222.4650 C   0  0  0  0  0  0  0  0  0  0  0  0
  139.1080   81.7350  222.1480 C   0  0  0  0  0  0  0  0  0  0  0  0
  138.0433   81.7537  222.4238 H   0  0  0  0  0  0  0  0  0  0  0  0
  139.6720   82.8260  221.4850 C   0  0  0  0  0  0  0  0  0  0  0  0
  139.0493   83.6972  221.2335 H   0  0  0  0  0  0  0  0  0  0  0  0
  141.0260   82.8140  221.1400 C   0  0  0  0  0  0  0  0  0  0  0  0
  141.4667   83.6742  220.6147 H   0  0  0  0  0  0  0  0  0  0  0  0
  141.8200   81.7120  221.4610 C   0  0  0  0  0  0  0  0  0  0  0  0
  142.8836   81.7053  221.1804 H   0  0  0  0  0  0  0  0  0  0  0  0
  141.2710   80.6110  222.1400 C   0  0  0  0  0  0  0  0  0  0  0  0
  142.1460   79.4070  222.4110 C   0  0  0  0  0  0  0  0  0  0  0  0
  143.1244   79.7553  222.7735 H   0  0  0  0  0  0  0  0  0  0  0  0
  142.2427   78.8434  221.4713 H   0  0  0  0  0  0  0  0  0  0  0  0
  141.5390   78.4710  223.4570 C   0  0  0  0  0  0  0  0  0  0  0  0
  141.6485   78.9151  224.4574 H   0  0  0  0  0  0  0  0  0  0  0  0
  142.0578   77.5013  223.4344 H   0  0  0  0  0  0  0  0  0  0  0  0
  140.9090   77.2730  220.3580 C   0  0  0  0  0  0  0  0  0  0  0  0
  140.6709   78.3469  220.3556 H   0  0  0  0  0  0  0  0  0  0  0  0
  141.6630   76.7280  219.3180 C   0  0  0  0  0  0  0  0  0  0  0  0
  142.1160   77.5120  218.2380 C   0  0  0  0  0  0  0  0  0  0  0  0
  141.8350   78.7440  218.1990 O   0  0  0  0  0  0  0  0  0  0  0  0
  142.8560   76.9380  217.2330 N   0  0  0  0  0  0  0  0  0  0  0  0
  143.3020   77.6890  216.1720 C   0  0  0  0  0  0  0  0  0  0  0  0
  143.0660   78.7625  216.1290 H   0  0  0  0  0  0  0  0  0  0  0  0
  144.0510   77.1060  215.1480 C   0  0  0  0  0  0  0  0  0  0  0  0
  144.4033   77.7163  214.3034 H   0  0  0  0  0  0  0  0  0  0  0  0
  144.3490   75.7470  215.2030 C   0  0  0  0  0  0  0  0  0  0  0  0
  144.9376   75.2777  214.4010 H   0  0  0  0  0  0  0  0  0  0  0  0
  143.8990   74.9850  216.2770 C   0  0  0  0  0  0  0  0  0  0  0  0
  144.1292   73.9106  216.3289 H   0  0  0  0  0  0  0  0  0  0  0  0
  143.1520   75.5950  217.2900 C   0  0  0  0  0  0  0  0  0  0  0  0
  142.7200   74.8430  218.3320 N   0  0  0  0  0  0  0  0  0  0  0  0
  141.9860   75.3620  219.3520 C   0  0  0  0  0  0  0  0  0  0  0  0
  141.5640   74.5560  220.3900 N   0  0  0  0  0  0  0  0  0  0  0  0
  141.9850   73.1350  220.3710 C   0  0  0  0  0  0  0  0  0  0  0  0
  141.6175   72.6389  221.2814 H   0  0  0  0  0  0  0  0  0  0  0  0
  141.5636   72.6571  219.4743 H   0  0  0  0  0  0  0  0  0  0  0  0
  143.4890   73.0160  220.3170 C   0  0  0  0  0  0  0  0  0  0  0  0
  144.0900   71.8820  219.7420 C   0  0  0  0  0  0  0  0  0  0  0  0
  143.4607   71.0853  219.3187 H   0  0  0  0  0  0  0  0  0  0  0  0
  145.4820   71.7610  219.7050 C   0  0  0  0  0  0  0  0  0  0  0  0
  145.9443   70.8711  219.2529 H   0  0  0  0  0  0  0  0  0  0  0  0
  146.2860   72.7680  220.2410 C   0  0  0  0  0  0  0  0  0  0  0  0
  147.3813   72.6704  220.2131 H   0  0  0  0  0  0  0  0  0  0  0  0
  145.7000   73.9000  220.8130 C   0  0  0  0  0  0  0  0  0  0  0  0
  146.3350   74.6937  221.2335 H   0  0  0  0  0  0  0  0  0  0  0  0
  144.3080   74.0260  220.8520 C   0  0  0  0  0  0  0  0  0  0  0  0
  143.8515   74.9193  221.3033 H   0  0  0  0  0  0  0  0  0  0  0  0
  1  2  1  0
  2  3  2  0
  3  4  1  0
  4  5  1  0
  5  6  2  0
  5  7  1  0
  7  8  1  0
  8  9  1  0
  8 10  1  0
  8 11  1  0
 11 12  2  0
 12 13  1  0
 12 14  1  0
 14 15  1  0
 14 16  2  0
 16 17  1  0
 16 18  1  0
 18 19  1  0
 18 20  2  0
 20 21  1  0
 21 22  1  0
 21 23  1  0
 21 24  1  0
 24 25  1  0
 24 26  1  0
  4 27  2  0
 27 28  1  0
 27 29  1  0
 29 30  1  0
 30 31  2  0
 30 32  1  0
 32 33  1  0
 33 34  1  0
 33 35  2  0
 35 36  1  0
 35 37  1  0
 37 38  1  0
 37 39  2  0
 39 40  1  0
 39 41  1  0
 41 42  2  0
 42 43  1  0
 43 44  1  0
 44 45  1  0
 45 46  1  0
 45 47  1  0
 45 48  1  0
 48 49  2  0
 49 50  1  0
 49 51  1  0
 51 52  1  0
 51 53  2  0
 53 54  1  0
 53 55  1  0
 55 56  1  0
 55 57  2  0
 57 58  1  0
 44  3  1  0
 57 48  1  0
 24  7  1  0
 43 29  2  0
 20 11  1  0
 41 32  1  0
M  END
>  <UniqueID>  (26) 
126

>  <SMILES>  (26) 
[H]/N=c1/c(C(=O)N2CCc3ccccc3C2)cc2c(=O)n3ccccc3nc2n1Cc1ccccc1

>  <Energy>  (26) 
93.42352053555778

>  <Genealogy>  (26) 
[H]/N=c1/c(C(=O)N2CCc3ccccc3C2)cc2c(=O)n3ccccc3nc2n1Cc1ccccc1 (cis-trans isomerization)
[H]/N=c1/c(C(=O)N2CCc3ccccc3C2)cc2c(=O)n3ccccc3nc2n1Cc1ccccc1 (3D coordinates assigned)
[H]/N=c1/c(C(=O)N2CCc3ccccc3C2)cc2c(=O)n3ccccc3nc2n1Cc1ccccc1 (nonaromatic ring conformer: 93.42352053555778 kcal/mol)

>  <smiles>  (26) 
N=c1c(C(=O)N2CCc3ccccc3C2)cc2c(=O)n3ccccc3nc2n1Cc1ccccc1

>  <score_type>  (26) 
oracle

>  <origin>  (26) 
autodockgpu

>  <m_score__min__energy>  (26) 
-9.2699999999999996

>  <m_primary>  (26) 
energy

>  <meeko>  (26) 
{"free_energy": -8.53, "intermolecular_energy": -10.02, "internal_energy": -1.92, "cluster_size": 4, "cluster_id": 3, "rank_in_cluster": 1}

>  <energy>  (26) 
-9.27

>  <cluster_rmsd>  (26) 
0.03

>  <rmsd>  (26) 
269.72

>  <cluster>  (26) 
1

$$$$
DRTNTVLZUVPGHX-GNVQSUKONA-N
     RDKit          3D

 58 63  0  0  0  0  0  0  0  0999 V2000
  140.7550   70.9230  220.0270 H   0  0  0  0  0  0  0  0  0  0  0  0
  141.2660   71.8260  219.9540 N   0  0  0  0  0  0  0  0  0  0  0  0
  140.9590   72.9610  220.5180 C   0  0  0  0  0  0  0  0  0  0  0  0
  139.9780   72.9440  221.5370 C   0  0  0  0  0  0  0  0  0  0  0  0
  139.3830   71.6770  222.0370 C   0  0  0  0  0  0  0  0  0  0  0  0
  139.1870   70.7250  221.2330 O   0  0  0  0  0  0  0  0  0  0  0  0
  139.0530   71.5110  223.4290 N   0  0  0  0  0  0  0  0  0  0  0  0
  140.1010   71.5080  224.4540 C   0  0  0  0  0  0  0  0  0  0  0  0
  139.8726   72.2769  225.2067 H   0  0  0  0  0  0  0  0  0  0  0  0
  141.0673   71.7208  223.9735 H   0  0  0  0  0  0  0  0  0  0  0  0
  140.1800   70.1620  225.1290 C   0  0  0  0  0  0  0  0  0  0  0  0
  141.3040   69.8500  225.9080 C   0  0  0  0  0  0  0  0  0  0  0  0
  142.1314   70.5705  225.9870 H   0  0  0  0  0  0  0  0  0  0  0  0
  141.3790   68.6300  226.5840 C   0  0  0  0  0  0  0  0  0  0  0  0
  142.2677   68.3897  227.1860 H   0  0  0  0  0  0  0  0  0  0  0  0
  140.3280   67.7150  226.4970 C   0  0  0  0  0  0  0  0  0  0  0  0
  140.3911   66.7543  227.0290 H   0  0  0  0  0  0  0  0  0  0  0  0
  139.1970   68.0170  225.7360 C   0  0  0  0  0  0  0  0  0  0  0  0
  138.3759   67.2885  225.6646 H   0  0  0  0  0  0  0  0  0  0  0  0
  139.1010   69.2450  225.0610 C   0  0  0  0  0  0  0  0  0  0  0  0
  137.8900   69.5090  224.1920 C   0  0  0  0  0  0  0  0  0  0  0  0
  136.9887   69.1869  224.7341 H   0  0  0  0  0  0  0  0  0  0  0  0
  138.0185   68.9460  223.2558 H   0  0  0  0  0  0  0  0  0  0  0  0
  137.7450   70.9890  223.8320 C   0  0  0  0  0  0  0  0  0  0  0  0
  137.3783   71.5472  224.7061 H   0  0  0  0  0  0  0  0  0  0  0  0
  137.0283   71.1024  223.0053 H   0  0  0  0  0  0  0  0  0  0  0  0
  139.5570   74.1490  222.1000 C   0  0  0  0  0  0  0  0  0  0  0  0
  138.7969   74.1446  222.8951 H   0  0  0  0  0  0  0  0  0  0  0  0
  140.0940   75.3600  221.6610 C   0  0  0  0  0  0  0  0  0  0  0  0
  139.6740   76.5960  222.1920 C   0  0  0  0  0  0  0  0  0  0  0  0
  138.7830   76.6200  223.0890 O   0  0  0  0  0  0  0  0  0  0  0  0
  140.2270   77.7670  221.7340 N   0  0  0  0  0  0  0  0  0  0  0  0
  139.8250   78.9800  222.2400 C   0  0  0  0  0  0  0  0  0  0  0  0
  139.0538   79.0128  223.0237 H   0  0  0  0  0  0  0  0  0  0  0  0
  140.3830   80.1710  221.7720 C   0  0  0  0  0  0  0  0  0  0  0  0
  140.0532   81.1365  222.1832 H   0  0  0  0  0  0  0  0  0  0  0  0
  141.3600   80.1280  220.7810 C   0  0  0  0  0  0  0  0  0  0  0  0
  141.8067   81.0603  220.4051 H   0  0  0  0  0  0  0  0  0  0  0  0
  141.7690   78.9010  220.2680 C   0  0  0  0  0  0  0  0  0  0  0  0
  142.5397   78.8579  219.4844 H   0  0  0  0  0  0  0  0  0  0  0  0
  141.1940   77.7230  220.7550 C   0  0  0  0  0  0  0  0  0  0  0  0
  141.6020   76.5330  220.2490 N   0  0  0  0  0  0  0  0  0  0  0  0
  141.0870   75.3470  220.6680 C   0  0  0  0  0  0  0  0  0  0  0  0
  141.5300   74.1610  220.1200 N   0  0  0  0  0  0  0  0  0  0  0  0
  142.6120   74.2330  219.1090 C   0  0  0  0  0  0  0  0  0  0  0  0
  142.3150   73.6533  218.2226 H   0  0  0  0  0  0  0  0  0  0  0  0
  142.7735   75.2882  218.8435 H   0  0  0  0  0  0  0  0  0  0  0  0
  143.9030   73.6720  219.6560 C   0  0  0  0  0  0  0  0  0  0  0  0
  144.6860   74.4340  220.5410 C   0  0  0  0  0  0  0  0  0  0  0  0
  144.3498   75.4364  220.8448 H   0  0  0  0  0  0  0  0  0  0  0  0
  145.8900   73.9240  221.0370 C   0  0  0  0  0  0  0  0  0  0  0  0
  146.4975   74.5255  221.7293 H   0  0  0  0  0  0  0  0  0  0  0  0
  146.3220   72.6530  220.6550 C   0  0  0  0  0  0  0  0  0  0  0  0
  147.2705   72.2543  221.0440 H   0  0  0  0  0  0  0  0  0  0  0  0
  145.5490   71.8870  219.7780 C   0  0  0  0  0  0  0  0  0  0  0  0
  145.8891   70.8845  219.4792 H   0  0  0  0  0  0  0  0  0  0  0  0
  144.3450   72.3920  219.2800 C   0  0  0  0  0  0  0  0  0  0  0  0
  143.7403   71.7848  218.5904 H   0  0  0  0  0  0  0  0  0  0  0  0
  1  2  1  0
  2  3  2  0
  3  4  1  0
  4  5  1  0
  5  6  2  0
  5  7  1  0
  7  8  1  0
  8  9  1  0
  8 10  1  0
  8 11  1  0
 11 12  2  0
 12 13  1  0
 12 14  1  0
 14 15  1  0
 14 16  2  0
 16 17  1  0
 16 18  1  0
 18 19  1  0
 18 20  2  0
 20 21  1  0
 21 22  1  0
 21 23  1  0
 21 24  1  0
 24 25  1  0
 24 26  1  0
  4 27  2  0
 27 28  1  0
 27 29  1  0
 29 30  1  0
 30 31  2  0
 30 32  1  0
 32 33  1  0
 33 34  1  0
 33 35  2  0
 35 36  1  0
 35 37  1  0
 37 38  1  0
 37 39  2  0
 39 40  1  0
 39 41  1  0
 41 42  2  0
 42 43  1  0
 43 44  1  0
 44 45  1  0
 45 46  1  0
 45 47  1  0
 45 48  1  0
 48 49  2  0
 49 50  1  0
 49 51  1  0
 51 52  1  0
 51 53  2  0
 53 54  1  0
 53 55  1  0
 55 56  1  0
 55 57  2  0
 57 58  1  0
 44  3  1  0
 57 48  1  0
 24  7  1  0
 43 29  2  0
 20 11  1  0
 41 32  1  0
M  END
>  <UniqueID>  (27) 
126

>  <SMILES>  (27) 
[H]/N=c1/c(C(=O)N2CCc3ccccc3C2)cc2c(=O)n3ccccc3nc2n1Cc1ccccc1

>  <Energy>  (27) 
93.42352053555778

>  <Genealogy>  (27) 
[H]/N=c1/c(C(=O)N2CCc3ccccc3C2)cc2c(=O)n3ccccc3nc2n1Cc1ccccc1 (cis-trans isomerization)
[H]/N=c1/c(C(=O)N2CCc3ccccc3C2)cc2c(=O)n3ccccc3nc2n1Cc1ccccc1 (3D coordinates assigned)
[H]/N=c1/c(C(=O)N2CCc3ccccc3C2)cc2c(=O)n3ccccc3nc2n1Cc1ccccc1 (nonaromatic ring conformer: 93.42352053555778 kcal/mol)

>  <smiles>  (27) 
N=c1c(C(=O)N2CCc3ccccc3C2)cc2c(=O)n3ccccc3nc2n1Cc1ccccc1

>  <score_type>  (27) 
oracle

>  <origin>  (27) 
autodockgpu

>  <m_score__min__energy>  (27) 
-9.2699999999999996

>  <m_primary>  (27) 
energy

>  <meeko>  (27) 
{"free_energy": -8.62, "intermolecular_energy": -10.11, "internal_energy": -1.59, "cluster_size": 1, "cluster_id": 2, "rank_in_cluster": 1}

>  <energy>  (27) 
-9.27

>  <cluster_rmsd>  (27) 
0.04

>  <rmsd>  (27) 
269.72

>  <cluster>  (27) 
1

$$$$
DRTNTVLZUVPGHX-GNVQSUKONA-N
     RDKit          3D

 58 63  0  0  0  0  0  0  0  0999 V2000
  137.8570   74.4600  223.0810 H   0  0  0  0  0  0  0  0  0  0  0  0
  138.2560   73.8740  222.3210 N   0  0  0  0  0  0  0  0  0  0  0  0
  139.4930   73.8380  221.9120 C   0  0  0  0  0  0  0  0  0  0  0  0
  140.1610   75.0700  221.7250 C   0  0  0  0  0  0  0  0  0  0  0  0
  139.5300   76.3690  222.0780 C   0  0  0  0  0  0  0  0  0  0  0  0
  138.5720   76.3900  222.8980 O   0  0  0  0  0  0  0  0  0  0  0  0
  140.0130   77.6050  221.5170 N   0  0  0  0  0  0  0  0  0  0  0  0
  141.4400   77.9390  221.5540 C   0  0  0  0  0  0  0  0  0  0  0  0
  141.7897   78.1455  220.5317 H   0  0  0  0  0  0  0  0  0  0  0  0
  141.9925   77.0887  221.9804 H   0  0  0  0  0  0  0  0  0  0  0  0
  141.6780   79.1540  222.4140 C   0  0  0  0  0  0  0  0  0  0  0  0
  142.9840   79.4530  222.8330 C   0  0  0  0  0  0  0  0  0  0  0  0
  143.8115   78.7795  222.5656 H   0  0  0  0  0  0  0  0  0  0  0  0
  143.2390   80.6000  223.5870 C   0  0  0  0  0  0  0  0  0  0  0  0
  144.2640   80.8222  223.9187 H   0  0  0  0  0  0  0  0  0  0  0  0
  142.1950   81.4660  223.9210 C   0  0  0  0  0  0  0  0  0  0  0  0
  142.3991   82.3679  224.5168 H   0  0  0  0  0  0  0  0  0  0  0  0
  140.8930   81.1890  223.5000 C   0  0  0  0  0  0  0  0  0  0  0  0
  140.0739   81.8705  223.7732 H   0  0  0  0  0  0  0  0  0  0  0  0
  140.6220   80.0460  222.7300 C   0  0  0  0  0  0  0  0  0  0  0  0
  139.1900   79.7420  222.3490 C   0  0  0  0  0  0  0  0  0  0  0  0
  138.7083   80.6725  222.0141 H   0  0  0  0  0  0  0  0  0  0  0  0
  138.6883   79.3250  223.2347 H   0  0  0  0  0  0  0  0  0  0  0  0
  139.0930   78.7070  221.2270 C   0  0  0  0  0  0  0  0  0  0  0  0
  139.3665   79.1739  220.2693 H   0  0  0  0  0  0  0  0  0  0  0  0
  138.0636   78.3252  221.1603 H   0  0  0  0  0  0  0  0  0  0  0  0
  141.4540   75.0740  221.2020 C   0  0  0  0  0  0  0  0  0  0  0  0
  141.9812   76.0283  221.0559 H   0  0  0  0  0  0  0  0  0  0  0  0
  142.0830   73.8760  220.8630 C   0  0  0  0  0  0  0  0  0  0  0  0
  143.3800   73.8470  220.3100 C   0  0  0  0  0  0  0  0  0  0  0  0
  143.9980   74.9320  220.1100 O   0  0  0  0  0  0  0  0  0  0  0  0
  143.9660   72.6460  219.9890 N   0  0  0  0  0  0  0  0  0  0  0  0
  145.2270   72.6020  219.4470 C   0  0  0  0  0  0  0  0  0  0  0  0
  145.7752   73.5392  219.2706 H   0  0  0  0  0  0  0  0  0  0  0  0
  145.8220   71.3830  219.1170 C   0  0  0  0  0  0  0  0  0  0  0  0
  146.8328   71.3595  218.6838 H   0  0  0  0  0  0  0  0  0  0  0  0
  145.1270   70.1970  219.3400 C   0  0  0  0  0  0  0  0  0  0  0  0
  145.5860   69.2308  219.0834 H   0  0  0  0  0  0  0  0  0  0  0  0
  143.8490   70.2400  219.8890 C   0  0  0  0  0  0  0  0  0  0  0  0
  143.2916   69.3087  220.0677 H   0  0  0  0  0  0  0  0  0  0  0  0
  143.2780   71.4750  220.2120 C   0  0  0  0  0  0  0  0  0  0  0  0
  142.0330   71.5030  220.7490 N   0  0  0  0  0  0  0  0  0  0  0  0
  141.4100   72.6640  221.0840 C   0  0  0  0  0  0  0  0  0  0  0  0
  140.1400   72.6440  221.6230 N   0  0  0  0  0  0  0  0  0  0  0  0
  139.5170   71.3200  221.8660 C   0  0  0  0  0  0  0  0  0  0  0  0
  138.4426   71.3809  221.6381 H   0  0  0  0  0  0  0  0  0  0  0  0
  140.0074   70.5782  221.2184 H   0  0  0  0  0  0  0  0  0  0  0  0
  139.6930   70.8940  223.3030 C   0  0  0  0  0  0  0  0  0  0  0  0
  138.8800   69.8820  223.8460 C   0  0  0  0  0  0  0  0  0  0  0  0
  138.1225   69.3921  223.2166 H   0  0  0  0  0  0  0  0  0  0  0  0
  139.0300   69.4960  225.1810 C   0  0  0  0  0  0  0  0  0  0  0  0
  138.3912   68.7037  225.5983 H   0  0  0  0  0  0  0  0  0  0  0  0
  139.9890   70.1140  225.9860 C   0  0  0  0  0  0  0  0  0  0  0  0
  140.1041   69.8106  227.0370 H   0  0  0  0  0  0  0  0  0  0  0  0
  140.8020   71.1180  225.4550 C   0  0  0  0  0  0  0  0  0  0  0  0
  141.5587   71.6034  226.0889 H   0  0  0  0  0  0  0  0  0  0  0  0
  140.6570   71.5080  224.1200 C   0  0  0  0  0  0  0  0  0  0  0  0
  141.3006   72.2991  223.7077 H   0  0  0  0  0  0  0  0  0  0  0  0
  1  2  1  0
  2  3  2  0
  3  4  1  0
  4  5  1  0
  5  6  2  0
  5  7  1  0
  7  8  1  0
  8  9  1  0
  8 10  1  0
  8 11  1  0
 11 12  2  0
 12 13  1  0
 12 14  1  0
 14 15  1  0
 14 16  2  0
 16 17  1  0
 16 18  1  0
 18 19  1  0
 18 20  2  0
 20 21  1  0
 21 22  1  0
 21 23  1  0
 21 24  1  0
 24 25  1  0
 24 26  1  0
  4 27  2  0
 27 28  1  0
 27 29  1  0
 29 30  1  0
 30 31  2  0
 30 32  1  0
 32 33  1  0
 33 34  1  0
 33 35  2  0
 35 36  1  0
 35 37  1  0
 37 38  1  0
 37 39  2  0
 39 40  1  0
 39 41  1  0
 41 42  2  0
 42 43  1  0
 43 44  1  0
 44 45  1  0
 45 46  1  0
 45 47  1  0
 45 48  1  0
 48 49  2  0
 49 50  1  0
 49 51  1  0
 51 52  1  0
 51 53  2  0
 53 54  1  0
 53 55  1  0
 55 56  1  0
 55 57  2  0
 57 58  1  0
 44  3  1  0
 57 48  1  0
 24  7  1  0
 43 29  2  0
 20 11  1  0
 41 32  1  0
M  END
>  <UniqueID>  (28) 
126

>  <SMILES>  (28) 
[H]/N=c1/c(C(=O)N2CCc3ccccc3C2)cc2c(=O)n3ccccc3nc2n1Cc1ccccc1

>  <Energy>  (28) 
93.42352053555778

>  <Genealogy>  (28) 
[H]/N=c1/c(C(=O)N2CCc3ccccc3C2)cc2c(=O)n3ccccc3nc2n1Cc1ccccc1 (cis-trans isomerization)
[H]/N=c1/c(C(=O)N2CCc3ccccc3C2)cc2c(=O)n3ccccc3nc2n1Cc1ccccc1 (3D coordinates assigned)
[H]/N=c1/c(C(=O)N2CCc3ccccc3C2)cc2c(=O)n3ccccc3nc2n1Cc1ccccc1 (nonaromatic ring conformer: 93.42352053555778 kcal/mol)

>  <smiles>  (28) 
N=c1c(C(=O)N2CCc3ccccc3C2)cc2c(=O)n3ccccc3nc2n1Cc1ccccc1

>  <score_type>  (28) 
oracle

>  <origin>  (28) 
autodockgpu

>  <m_score__min__energy>  (28) 
-9.2699999999999996

>  <m_primary>  (28) 
energy

>  <meeko>  (28) 
{"free_energy": -9.27, "intermolecular_energy": -10.76, "internal_energy": -1.37, "cluster_size": 14, "cluster_id": 1, "rank_in_cluster": 2}

>  <energy>  (28) 
-9.26

>  <cluster_rmsd>  (28) 
0.04

>  <rmsd>  (28) 
269.73

>  <cluster>  (28) 
1

$$$$
DRTNTVLZUVPGHX-GNVQSUKONA-N
     RDKit          3D

 58 63  0  0  0  0  0  0  0  0999 V2000
  137.8540   74.4640  223.0880 H   0  0  0  0  0  0  0  0  0  0  0  0
  138.2530   73.8710  222.3330 N   0  0  0  0  0  0  0  0  0  0  0  0
  139.4900   73.8320  221.9230 C   0  0  0  0  0  0  0  0  0  0  0  0
  140.1600   75.0630  221.7360 C   0  0  0  0  0  0  0  0  0  0  0  0
  139.5310   76.3630  222.0900 C   0  0  0  0  0  0  0  0  0  0  0  0
  138.5730   76.3860  222.9100 O   0  0  0  0  0  0  0  0  0  0  0  0
  140.0180   77.5990  221.5320 N   0  0  0  0  0  0  0  0  0  0  0  0
  141.4430   77.9380  221.5870 C   0  0  0  0  0  0  0  0  0  0  0  0
  141.8057   78.1417  220.5687 H   0  0  0  0  0  0  0  0  0  0  0  0
  141.9922   77.0912  222.0244 H   0  0  0  0  0  0  0  0  0  0  0  0
  141.6660   79.1580  222.4460 C   0  0  0  0  0  0  0  0  0  0  0  0
  142.9650   79.4620  222.8810 C   0  0  0  0  0  0  0  0  0  0  0  0
  143.7981   78.7902  222.6269 H   0  0  0  0  0  0  0  0  0  0  0  0
  143.2060   80.6130  223.6350 C   0  0  0  0  0  0  0  0  0  0  0  0
  144.2258   80.8401  223.9790 H   0  0  0  0  0  0  0  0  0  0  0  0
  142.1550   81.4760  223.9530 C   0  0  0  0  0  0  0  0  0  0  0  0
  142.3477   82.3803  224.5489 H   0  0  0  0  0  0  0  0  0  0  0  0
  140.8590   81.1920  223.5150 C   0  0  0  0  0  0  0  0  0  0  0  0
  140.0337   81.8711  223.7752 H   0  0  0  0  0  0  0  0  0  0  0  0
  140.6020   80.0460  222.7450 C   0  0  0  0  0  0  0  0  0  0  0  0
  139.1760   79.7370  222.3460 C   0  0  0  0  0  0  0  0  0  0  0  0
  138.6965   80.6648  222.0005 H   0  0  0  0  0  0  0  0  0  0  0  0
  138.6627   79.3228  223.2263 H   0  0  0  0  0  0  0  0  0  0  0  0
  139.0980   78.6970  221.2270 C   0  0  0  0  0  0  0  0  0  0  0  0
  139.3821   79.1615  220.2712 H   0  0  0  0  0  0  0  0  0  0  0  0
  138.0710   78.3108  221.1493 H   0  0  0  0  0  0  0  0  0  0  0  0
  141.4520   75.0660  221.2110 C   0  0  0  0  0  0  0  0  0  0  0  0
  141.9802   76.0197  221.0648 H   0  0  0  0  0  0  0  0  0  0  0  0
  142.0790   73.8670  220.8700 C   0  0  0  0  0  0  0  0  0  0  0  0
  143.3750   73.8360  220.3160 C   0  0  0  0  0  0  0  0  0  0  0  0
  143.9940   74.9200  220.1160 O   0  0  0  0  0  0  0  0  0  0  0  0
  143.9580   72.6350  219.9930 N   0  0  0  0  0  0  0  0  0  0  0  0
  145.2190   72.5890  219.4490 C   0  0  0  0  0  0  0  0  0  0  0  0
  145.7688   73.5252  219.2722 H   0  0  0  0  0  0  0  0  0  0  0  0
  145.8110   71.3690  219.1180 C   0  0  0  0  0  0  0  0  0  0  0  0
  146.8217   71.3438  218.6845 H   0  0  0  0  0  0  0  0  0  0  0  0
  145.1140   70.1840  219.3400 C   0  0  0  0  0  0  0  0  0  0  0  0
  145.5702   69.2173  219.0802 H   0  0  0  0  0  0  0  0  0  0  0  0
  143.8380   70.2290  219.8920 C   0  0  0  0  0  0  0  0  0  0  0  0
  143.2801   69.2983  220.0725 H   0  0  0  0  0  0  0  0  0  0  0  0
  143.2690   71.4640  220.2160 C   0  0  0  0  0  0  0  0  0  0  0  0
  142.0240   71.4940  220.7550 N   0  0  0  0  0  0  0  0  0  0  0  0
  141.4040   72.6560  221.0910 C   0  0  0  0  0  0  0  0  0  0  0  0
  140.1340   72.6380  221.6320 N   0  0  0  0  0  0  0  0  0  0  0  0
  139.5090   71.3150  221.8750 C   0  0  0  0  0  0  0  0  0  0  0  0
  138.4343   71.3782  221.6493 H   0  0  0  0  0  0  0  0  0  0  0  0
  139.9968   70.5730  221.2257 H   0  0  0  0  0  0  0  0  0  0  0  0
  139.6870   70.8870  223.3110 C   0  0  0  0  0  0  0  0  0  0  0  0
  138.8660   69.8830  223.8570 C   0  0  0  0  0  0  0  0  0  0  0  0
  138.1016   69.4002  223.2304 H   0  0  0  0  0  0  0  0  0  0  0  0
  139.0170   69.4960  225.1920 C   0  0  0  0  0  0  0  0  0  0  0  0
  138.3719   68.7102  225.6121 H   0  0  0  0  0  0  0  0  0  0  0  0
  139.9850   70.1050  225.9930 C   0  0  0  0  0  0  0  0  0  0  0  0
  140.1005   69.8010  227.0438 H   0  0  0  0  0  0  0  0  0  0  0  0
  140.8070   71.1010  225.4590 C   0  0  0  0  0  0  0  0  0  0  0  0
  141.5714   71.5783  226.0898 H   0  0  0  0  0  0  0  0  0  0  0  0
  140.6600   71.4920  224.1250 C   0  0  0  0  0  0  0  0  0  0  0  0
  141.3092   72.2772  223.7102 H   0  0  0  0  0  0  0  0  0  0  0  0
  1  2  1  0
  2  3  2  0
  3  4  1  0
  4  5  1  0
  5  6  2  0
  5  7  1  0
  7  8  1  0
  8  9  1  0
  8 10  1  0
  8 11  1  0
 11 12  2  0
 12 13  1  0
 12 14  1  0
 14 15  1  0
 14 16  2  0
 16 17  1  0
 16 18  1  0
 18 19  1  0
 18 20  2  0
 20 21  1  0
 21 22  1  0
 21 23  1  0
 21 24  1  0
 24 25  1  0
 24 26  1  0
  4 27  2  0
 27 28  1  0
 27 29  1  0
 29 30  1  0
 30 31  2  0
 30 32  1  0
 32 33  1  0
 33 34  1  0
 33 35  2  0
 35 36  1  0
 35 37  1  0
 37 38  1  0
 37 39  2  0
 39 40  1  0
 39 41  1  0
 41 42  2  0
 42 43  1  0
 43 44  1  0
 44 45  1  0
 45 46  1  0
 45 47  1  0
 45 48  1  0
 48 49  2  0
 49 50  1  0
 49 51  1  0
 51 52  1  0
 51 53  2  0
 53 54  1  0
 53 55  1  0
 55 56  1  0
 55 57  2  0
 57 58  1  0
 44  3  1  0
 57 48  1  0
 24  7  1  0
 43 29  2  0
 20 11  1  0
 41 32  1  0
M  END
>  <UniqueID>  (29) 
126

>  <SMILES>  (29) 
[H]/N=c1/c(C(=O)N2CCc3ccccc3C2)cc2c(=O)n3ccccc3nc2n1Cc1ccccc1

>  <Energy>  (29) 
93.42352053555778

>  <Genealogy>  (29) 
[H]/N=c1/c(C(=O)N2CCc3ccccc3C2)cc2c(=O)n3ccccc3nc2n1Cc1ccccc1 (cis-trans isomerization)
[H]/N=c1/c(C(=O)N2CCc3ccccc3C2)cc2c(=O)n3ccccc3nc2n1Cc1ccccc1 (3D coordinates assigned)
[H]/N=c1/c(C(=O)N2CCc3ccccc3C2)cc2c(=O)n3ccccc3nc2n1Cc1ccccc1 (nonaromatic ring conformer: 93.42352053555778 kcal/mol)

>  <smiles>  (29) 
N=c1c(C(=O)N2CCc3ccccc3C2)cc2c(=O)n3ccccc3nc2n1Cc1ccccc1

>  <score_type>  (29) 
oracle

>  <origin>  (29) 
autodockgpu

>  <m_score__min__energy>  (29) 
-9.2699999999999996

>  <m_primary>  (29) 
energy

>  <meeko>  (29) 
{"free_energy": -9.26, "intermolecular_energy": -10.75, "internal_energy": -1.38, "cluster_size": 14, "cluster_id": 1, "rank_in_cluster": 10}

>  <energy>  (29) 
-9.26

>  <cluster_rmsd>  (29) 
0.04

>  <rmsd>  (29) 
269.73

>  <cluster>  (29) 
1

$$$$
DRTNTVLZUVPGHX-GNVQSUKONA-N
     RDKit          3D

 58 63  0  0  0  0  0  0  0  0999 V2000
  137.8310   74.3120  223.0680 H   0  0  0  0  0  0  0  0  0  0  0  0
  138.2330   73.8070  222.2530 N   0  0  0  0  0  0  0  0  0  0  0  0
  139.4800   73.7690  221.8770 C   0  0  0  0  0  0  0  0  0  0  0  0
  140.1650   74.9990  221.7440 C   0  0  0  0  0  0  0  0  0  0  0  0
  139.5370   76.2940  222.1180 C   0  0  0  0  0  0  0  0  0  0  0  0
  138.6110   76.3090  222.9740 O   0  0  0  0  0  0  0  0  0  0  0  0
  139.9890   77.5320  221.5370 N   0  0  0  0  0  0  0  0  0  0  0  0
  141.4110   77.8900  221.5450 C   0  0  0  0  0  0  0  0  0  0  0  0
  141.7388   78.0919  220.5146 H   0  0  0  0  0  0  0  0  0  0  0  0
  141.9852   77.0534  221.9697 H   0  0  0  0  0  0  0  0  0  0  0  0
  141.6440   79.1180  222.3890 C   0  0  0  0  0  0  0  0  0  0  0  0
  142.9520   79.4420  222.7810 C   0  0  0  0  0  0  0  0  0  0  0  0
  143.7854   78.7796  222.5044 H   0  0  0  0  0  0  0  0  0  0  0  0
  143.2020   80.6000  223.5200 C   0  0  0  0  0  0  0  0  0  0  0  0
  144.2291   80.8424  223.8302 H   0  0  0  0  0  0  0  0  0  0  0  0
  142.1500   81.4510  223.8660 C   0  0  0  0  0  0  0  0  0  0  0  0
  142.3498   82.3616  224.4499 H   0  0  0  0  0  0  0  0  0  0  0  0
  140.8450   81.1480  223.4720 C   0  0  0  0  0  0  0  0  0  0  0  0
  140.0196   81.8178  223.7550 H   0  0  0  0  0  0  0  0  0  0  0  0
  140.5790   79.9940  222.7170 C   0  0  0  0  0  0  0  0  0  0  0  0
  139.1450   79.6640  222.3660 C   0  0  0  0  0  0  0  0  0  0  0  0
  138.6424   80.5833  222.0308 H   0  0  0  0  0  0  0  0  0  0  0  0
  138.6657   79.2488  223.2648 H   0  0  0  0  0  0  0  0  0  0  0  0
  139.0450   78.6160  221.2560 C   0  0  0  0  0  0  0  0  0  0  0  0
  139.2917   79.0784  220.2889 H   0  0  0  0  0  0  0  0  0  0  0  0
  138.0213   78.2157  221.2141 H   0  0  0  0  0  0  0  0  0  0  0  0
  141.4720   75.0060  221.2570 C   0  0  0  0  0  0  0  0  0  0  0  0
  142.0124   75.9586  221.1545 H   0  0  0  0  0  0  0  0  0  0  0  0
  142.0980   73.8110  220.8990 C   0  0  0  0  0  0  0  0  0  0  0  0
  143.4090   73.7850  220.3810 C   0  0  0  0  0  0  0  0  0  0  0  0
  144.0430   74.8680  220.2300 O   0  0  0  0  0  0  0  0  0  0  0  0
  143.9920   72.5880  220.0400 N   0  0  0  0  0  0  0  0  0  0  0  0
  145.2670   72.5470  219.5310 C   0  0  0  0  0  0  0  0  0  0  0  0
  145.8288   73.4832  219.3974 H   0  0  0  0  0  0  0  0  0  0  0  0
  145.8590   71.3320  219.1810 C   0  0  0  0  0  0  0  0  0  0  0  0
  146.8809   71.3108  218.7745 H   0  0  0  0  0  0  0  0  0  0  0  0
  145.1470   70.1470  219.3500 C   0  0  0  0  0  0  0  0  0  0  0  0
  145.6036   69.1842  219.0770 H   0  0  0  0  0  0  0  0  0  0  0  0
  143.8550   70.1870  219.8660 C   0  0  0  0  0  0  0  0  0  0  0  0
  143.2843   69.2566  220.0024 H   0  0  0  0  0  0  0  0  0  0  0  0
  143.2870   71.4180  220.2100 C   0  0  0  0  0  0  0  0  0  0  0  0
  142.0280   71.4430  220.7130 N   0  0  0  0  0  0  0  0  0  0  0  0
  141.4070   72.6000  221.0660 C   0  0  0  0  0  0  0  0  0  0  0  0
  140.1230   72.5780  221.5700 N   0  0  0  0  0  0  0  0  0  0  0  0
  139.4810   71.2540  221.7560 C   0  0  0  0  0  0  0  0  0  0  0  0
  138.4114   71.3356  221.5126 H   0  0  0  0  0  0  0  0  0  0  0  0
  139.9736   70.5294  221.0910 H   0  0  0  0  0  0  0  0  0  0  0  0
  139.6280   70.7760  223.1810 C   0  0  0  0  0  0  0  0  0  0  0  0
  140.3760   71.5280  224.1050 C   0  0  0  0  0  0  0  0  0  0  0  0
  140.8436   72.4729  223.7909 H   0  0  0  0  0  0  0  0  0  0  0  0
  140.5280   71.0800  225.4210 C   0  0  0  0  0  0  0  0  0  0  0  0
  141.1144   71.6728  226.1384 H   0  0  0  0  0  0  0  0  0  0  0  0
  139.9370   69.8820  225.8260 C   0  0  0  0  0  0  0  0  0  0  0  0
  140.0594   69.5303  226.8611 H   0  0  0  0  0  0  0  0  0  0  0  0
  139.1900   69.1300  224.9160 C   0  0  0  0  0  0  0  0  0  0  0  0
  138.7227   68.1871  225.2364 H   0  0  0  0  0  0  0  0  0  0  0  0
  139.0350   69.5730  223.5990 C   0  0  0  0  0  0  0  0  0  0  0  0
  138.4459   68.9767  222.8867 H   0  0  0  0  0  0  0  0  0  0  0  0
  1  2  1  0
  2  3  2  0
  3  4  1  0
  4  5  1  0
  5  6  2  0
  5  7  1  0
  7  8  1  0
  8  9  1  0
  8 10  1  0
  8 11  1  0
 11 12  2  0
 12 13  1  0
 12 14  1  0
 14 15  1  0
 14 16  2  0
 16 17  1  0
 16 18  1  0
 18 19  1  0
 18 20  2  0
 20 21  1  0
 21 22  1  0
 21 23  1  0
 21 24  1  0
 24 25  1  0
 24 26  1  0
  4 27  2  0
 27 28  1  0
 27 29  1  0
 29 30  1  0
 30 31  2  0
 30 32  1  0
 32 33  1  0
 33 34  1  0
 33 35  2  0
 35 36  1  0
 35 37  1  0
 37 38  1  0
 37 39  2  0
 39 40  1  0
 39 41  1  0
 41 42  2  0
 42 43  1  0
 43 44  1  0
 44 45  1  0
 45 46  1  0
 45 47  1  0
 45 48  1  0
 48 49  2  0
 49 50  1  0
 49 51  1  0
 51 52  1  0
 51 53  2  0
 53 54  1  0
 53 55  1  0
 55 56  1  0
 55 57  2  0
 57 58  1  0
 44  3  1  0
 57 48  1  0
 24  7  1  0
 43 29  2  0
 20 11  1  0
 41 32  1  0
M  END
>  <UniqueID>  (30) 
126

>  <SMILES>  (30) 
[H]/N=c1/c(C(=O)N2CCc3ccccc3C2)cc2c(=O)n3ccccc3nc2n1Cc1ccccc1

>  <Energy>  (30) 
93.42352053555778

>  <Genealogy>  (30) 
[H]/N=c1/c(C(=O)N2CCc3ccccc3C2)cc2c(=O)n3ccccc3nc2n1Cc1ccccc1 (cis-trans isomerization)
[H]/N=c1/c(C(=O)N2CCc3ccccc3C2)cc2c(=O)n3ccccc3nc2n1Cc1ccccc1 (3D coordinates assigned)
[H]/N=c1/c(C(=O)N2CCc3ccccc3C2)cc2c(=O)n3ccccc3nc2n1Cc1ccccc1 (nonaromatic ring conformer: 93.42352053555778 kcal/mol)

>  <smiles>  (30) 
N=c1c(C(=O)N2CCc3ccccc3C2)cc2c(=O)n3ccccc3nc2n1Cc1ccccc1

>  <score_type>  (30) 
oracle

>  <origin>  (30) 
autodockgpu

>  <m_score__min__energy>  (30) 
-9.2699999999999996

>  <m_primary>  (30) 
energy

>  <meeko>  (30) 
{"free_energy": -9.22, "intermolecular_energy": -10.71, "internal_energy": -1.39, "cluster_size": 14, "cluster_id": 1, "rank_in_cluster": 14}

>  <energy>  (30) 
-9.26

>  <cluster_rmsd>  (30) 
0.02

>  <rmsd>  (30) 
269.72

>  <cluster>  (30) 
1

$$$$
DRTNTVLZUVPGHX-GNVQSUKONA-N
     RDKit          3D

 58 63  0  0  0  0  0  0  0  0999 V2000
  137.8530   74.4620  223.0880 H   0  0  0  0  0  0  0  0  0  0  0  0
  138.2490   73.8880  222.3170 N   0  0  0  0  0  0  0  0  0  0  0  0
  139.4870   73.8500  221.9090 C   0  0  0  0  0  0  0  0  0  0  0  0
  140.1560   75.0820  221.7230 C   0  0  0  0  0  0  0  0  0  0  0  0
  139.5250   76.3810  222.0760 C   0  0  0  0  0  0  0  0  0  0  0  0
  138.5630   76.4020  222.8910 O   0  0  0  0  0  0  0  0  0  0  0  0
  140.0140   77.6180  221.5210 N   0  0  0  0  0  0  0  0  0  0  0  0
  141.4390   77.9560  221.5810 C   0  0  0  0  0  0  0  0  0  0  0  0
  141.8046   78.1619  220.5642 H   0  0  0  0  0  0  0  0  0  0  0  0
  141.9861   77.1077  222.0182 H   0  0  0  0  0  0  0  0  0  0  0  0
  141.6610   79.1730  222.4430 C   0  0  0  0  0  0  0  0  0  0  0  0
  142.9590   79.4760  222.8820 C   0  0  0  0  0  0  0  0  0  0  0  0
  143.7924   78.8042  222.6290 H   0  0  0  0  0  0  0  0  0  0  0  0
  143.1990   80.6250  223.6380 C   0  0  0  0  0  0  0  0  0  0  0  0
  144.2182   80.8512  223.9846 H   0  0  0  0  0  0  0  0  0  0  0  0
  142.1470   81.4880  223.9550 C   0  0  0  0  0  0  0  0  0  0  0  0
  142.3388   82.3911  224.5530 H   0  0  0  0  0  0  0  0  0  0  0  0
  140.8530   81.2060  223.5140 C   0  0  0  0  0  0  0  0  0  0  0  0
  140.0276   81.8851  223.7740 H   0  0  0  0  0  0  0  0  0  0  0  0
  140.5970   80.0620  222.7410 C   0  0  0  0  0  0  0  0  0  0  0  0
  139.1710   79.7540  222.3380 C   0  0  0  0  0  0  0  0  0  0  0  0
  138.6922   80.6826  221.9940 H   0  0  0  0  0  0  0  0  0  0  0  0
  138.6556   79.3377  223.2161 H   0  0  0  0  0  0  0  0  0  0  0  0
  139.0960   78.7170  221.2160 C   0  0  0  0  0  0  0  0  0  0  0  0
  139.3835   79.1839  220.2624 H   0  0  0  0  0  0  0  0  0  0  0  0
  138.0690   78.3316  221.1340 H   0  0  0  0  0  0  0  0  0  0  0  0
  141.4490   75.0860  221.2010 C   0  0  0  0  0  0  0  0  0  0  0  0
  141.9768   76.0402  221.0562 H   0  0  0  0  0  0  0  0  0  0  0  0
  142.0780   73.8870  220.8610 C   0  0  0  0  0  0  0  0  0  0  0  0
  143.3750   73.8580  220.3100 C   0  0  0  0  0  0  0  0  0  0  0  0
  143.9930   74.9420  220.1100 O   0  0  0  0  0  0  0  0  0  0  0  0
  143.9600   72.6570  219.9880 N   0  0  0  0  0  0  0  0  0  0  0  0
  145.2220   72.6120  219.4460 C   0  0  0  0  0  0  0  0  0  0  0  0
  145.7710   73.5488  219.2700 H   0  0  0  0  0  0  0  0  0  0  0  0
  145.8160   71.3930  219.1160 C   0  0  0  0  0  0  0  0  0  0  0  0
  146.8271   71.3687  218.6835 H   0  0  0  0  0  0  0  0  0  0  0  0
  145.1200   70.2080  219.3380 C   0  0  0  0  0  0  0  0  0  0  0  0
  145.5786   69.2417  219.0812 H   0  0  0  0  0  0  0  0  0  0  0  0
  143.8420   70.2510  219.8860 C   0  0  0  0  0  0  0  0  0  0  0  0
  143.2841   69.3197  220.0633 H   0  0  0  0  0  0  0  0  0  0  0  0
  143.2710   71.4860  220.2100 C   0  0  0  0  0  0  0  0  0  0  0  0
  142.0260   71.5150  220.7460 N   0  0  0  0  0  0  0  0  0  0  0  0
  141.4030   72.6750  221.0810 C   0  0  0  0  0  0  0  0  0  0  0  0
  140.1330   72.6560  221.6200 N   0  0  0  0  0  0  0  0  0  0  0  0
  139.5090   71.3330  221.8610 C   0  0  0  0  0  0  0  0  0  0  0  0
  138.4361   71.3931  221.6259 H   0  0  0  0  0  0  0  0  0  0  0  0
  140.0034   70.5900  221.2179 H   0  0  0  0  0  0  0  0  0  0  0  0
  139.6760   70.9100  223.3010 C   0  0  0  0  0  0  0  0  0  0  0  0
  140.6550   71.5170  224.1080 C   0  0  0  0  0  0  0  0  0  0  0  0
  141.2921   72.3109  223.6911 H   0  0  0  0  0  0  0  0  0  0  0  0
  140.8230   71.1170  225.4370 C   0  0  0  0  0  0  0  0  0  0  0  0
  141.5907   71.5966  226.0620 H   0  0  0  0  0  0  0  0  0  0  0  0
  140.0180   70.1100  225.9720 C   0  0  0  0  0  0  0  0  0  0  0  0
  140.1526   69.7951  227.0173 H   0  0  0  0  0  0  0  0  0  0  0  0
  139.0410   69.5020  225.1790 C   0  0  0  0  0  0  0  0  0  0  0  0
  138.4061   68.7094  225.6016 H   0  0  0  0  0  0  0  0  0  0  0  0
  138.8690   69.8990  223.8500 C   0  0  0  0  0  0  0  0  0  0  0  0
  138.0979   69.4176  223.2306 H   0  0  0  0  0  0  0  0  0  0  0  0
  1  2  1  0
  2  3  2  0
  3  4  1  0
  4  5  1  0
  5  6  2  0
  5  7  1  0
  7  8  1  0
  8  9  1  0
  8 10  1  0
  8 11  1  0
 11 12  2  0
 12 13  1  0
 12 14  1  0
 14 15  1  0
 14 16  2  0
 16 17  1  0
 16 18  1  0
 18 19  1  0
 18 20  2  0
 20 21  1  0
 21 22  1  0
 21 23  1  0
 21 24  1  0
 24 25  1  0
 24 26  1  0
  4 27  2  0
 27 28  1  0
 27 29  1  0
 29 30  1  0
 30 31  2  0
 30 32  1  0
 32 33  1  0
 33 34  1  0
 33 35  2  0
 35 36  1  0
 35 37  1  0
 37 38  1  0
 37 39  2  0
 39 40  1  0
 39 41  1  0
 41 42  2  0
 42 43  1  0
 43 44  1  0
 44 45  1  0
 45 46  1  0
 45 47  1  0
 45 48  1  0
 48 49  2  0
 49 50  1  0
 49 51  1  0
 51 52  1  0
 51 53  2  0
 53 54  1  0
 53 55  1  0
 55 56  1  0
 55 57  2  0
 57 58  1  0
 44  3  1  0
 57 48  1  0
 24  7  1  0
 43 29  2  0
 20 11  1  0
 41 32  1  0
M  END
>  <UniqueID>  (31) 
126

>  <SMILES>  (31) 
[H]/N=c1/c(C(=O)N2CCc3ccccc3C2)cc2c(=O)n3ccccc3nc2n1Cc1ccccc1

>  <Energy>  (31) 
93.42352053555778

>  <Genealogy>  (31) 
[H]/N=c1/c(C(=O)N2CCc3ccccc3C2)cc2c(=O)n3ccccc3nc2n1Cc1ccccc1 (cis-trans isomerization)
[H]/N=c1/c(C(=O)N2CCc3ccccc3C2)cc2c(=O)n3ccccc3nc2n1Cc1ccccc1 (3D coordinates assigned)
[H]/N=c1/c(C(=O)N2CCc3ccccc3C2)cc2c(=O)n3ccccc3nc2n1Cc1ccccc1 (nonaromatic ring conformer: 93.42352053555778 kcal/mol)

>  <smiles>  (31) 
N=c1c(C(=O)N2CCc3ccccc3C2)cc2c(=O)n3ccccc3nc2n1Cc1ccccc1

>  <score_type>  (31) 
oracle

>  <origin>  (31) 
autodockgpu

>  <m_score__min__energy>  (31) 
-9.2699999999999996

>  <m_primary>  (31) 
energy

>  <meeko>  (31) 
{"free_energy": -9.27, "intermolecular_energy": -10.76, "internal_energy": -1.37, "cluster_size": 14, "cluster_id": 1, "rank_in_cluster": 6}

>  <energy>  (31) 
-9.26

>  <cluster_rmsd>  (31) 
0.05

>  <rmsd>  (31) 
269.72

>  <cluster>  (31) 
1

$$$$
DRTNTVLZUVPGHX-GNVQSUKONA-N
     RDKit          3D

 58 63  0  0  0  0  0  0  0  0999 V2000
  137.8580   74.4790  223.0770 H   0  0  0  0  0  0  0  0  0  0  0  0
  138.2610   73.8850  222.3240 N   0  0  0  0  0  0  0  0  0  0  0  0
  139.4990   73.8490  221.9160 C   0  0  0  0  0  0  0  0  0  0  0  0
  140.1660   75.0820  221.7310 C   0  0  0  0  0  0  0  0  0  0  0  0
  139.5340   76.3800  222.0860 C   0  0  0  0  0  0  0  0  0  0  0  0
  138.5750   76.4000  222.9050 O   0  0  0  0  0  0  0  0  0  0  0  0
  140.0180   77.6180  221.5290 N   0  0  0  0  0  0  0  0  0  0  0  0
  141.4420   77.9600  221.5840 C   0  0  0  0  0  0  0  0  0  0  0  0
  141.8040   78.1657  220.5658 H   0  0  0  0  0  0  0  0  0  0  0  0
  141.9934   77.1140  222.0201 H   0  0  0  0  0  0  0  0  0  0  0  0
  141.6620   79.1790  222.4440 C   0  0  0  0  0  0  0  0  0  0  0  0
  142.9600   79.4860  222.8800 C   0  0  0  0  0  0  0  0  0  0  0  0
  143.7947   78.8163  222.6253 H   0  0  0  0  0  0  0  0  0  0  0  0
  143.1990   80.6360  223.6350 C   0  0  0  0  0  0  0  0  0  0  0  0
  144.2182   80.8646  223.9799 H   0  0  0  0  0  0  0  0  0  0  0  0
  142.1450   81.4970  223.9530 C   0  0  0  0  0  0  0  0  0  0  0  0
  142.3356   82.4014  224.5494 H   0  0  0  0  0  0  0  0  0  0  0  0
  140.8510   81.2110  223.5150 C   0  0  0  0  0  0  0  0  0  0  0  0
  140.0242   81.8881  223.7756 H   0  0  0  0  0  0  0  0  0  0  0  0
  140.5970   80.0650  222.7440 C   0  0  0  0  0  0  0  0  0  0  0  0
  139.1710   79.7530  222.3440 C   0  0  0  0  0  0  0  0  0  0  0  0
  138.6895   80.6800  221.9993 H   0  0  0  0  0  0  0  0  0  0  0  0
  138.6583   79.3369  223.2237 H   0  0  0  0  0  0  0  0  0  0  0  0
  139.0960   78.7140  221.2240 C   0  0  0  0  0  0  0  0  0  0  0  0
  139.3799   79.1800  220.2689 H   0  0  0  0  0  0  0  0  0  0  0  0
  138.0698   78.3257  221.1449 H   0  0  0  0  0  0  0  0  0  0  0  0
  141.4590   75.0890  221.2090 C   0  0  0  0  0  0  0  0  0  0  0  0
  141.9855   76.0440  221.0651 H   0  0  0  0  0  0  0  0  0  0  0  0
  142.0890   73.8910  220.8680 C   0  0  0  0  0  0  0  0  0  0  0  0
  143.3860   73.8630  220.3160 C   0  0  0  0  0  0  0  0  0  0  0  0
  144.0030   74.9490  220.1180 O   0  0  0  0  0  0  0  0  0  0  0  0
  143.9730   72.6640  219.9940 N   0  0  0  0  0  0  0  0  0  0  0  0
  145.2350   72.6210  219.4520 C   0  0  0  0  0  0  0  0  0  0  0  0
  145.7833   73.5585  219.2776 H   0  0  0  0  0  0  0  0  0  0  0  0
  145.8300   71.4030  219.1200 C   0  0  0  0  0  0  0  0  0  0  0  0
  146.8407   71.3807  218.6865 H   0  0  0  0  0  0  0  0  0  0  0  0
  145.1360   70.2160  219.3410 C   0  0  0  0  0  0  0  0  0  0  0  0
  145.5956   69.2505  219.0830 H   0  0  0  0  0  0  0  0  0  0  0  0
  143.8580   70.2580  219.8900 C   0  0  0  0  0  0  0  0  0  0  0  0
  143.3016   69.3260  220.0681 H   0  0  0  0  0  0  0  0  0  0  0  0
  143.2850   71.4920  220.2140 C   0  0  0  0  0  0  0  0  0  0  0  0
  142.0400   71.5180  220.7510 N   0  0  0  0  0  0  0  0  0  0  0  0
  141.4160   72.6780  221.0870 C   0  0  0  0  0  0  0  0  0  0  0  0
  140.1460   72.6570  221.6260 N   0  0  0  0  0  0  0  0  0  0  0  0
  139.5230   71.3320  221.8660 C   0  0  0  0  0  0  0  0  0  0  0  0
  138.4515   71.3891  221.6240 H   0  0  0  0  0  0  0  0  0  0  0  0
  140.0230   70.5886  221.2277 H   0  0  0  0  0  0  0  0  0  0  0  0
  139.6820   70.9130  223.3080 C   0  0  0  0  0  0  0  0  0  0  0  0
  140.6650   71.5130  224.1150 C   0  0  0  0  0  0  0  0  0  0  0  0
  141.3109   72.2991  223.6968 H   0  0  0  0  0  0  0  0  0  0  0  0
  140.8260   71.1160  225.4460 C   0  0  0  0  0  0  0  0  0  0  0  0
  141.5965   71.5905  226.0715 H   0  0  0  0  0  0  0  0  0  0  0  0
  140.0100   70.1180  225.9820 C   0  0  0  0  0  0  0  0  0  0  0  0
  140.1395   69.8043  227.0283 H   0  0  0  0  0  0  0  0  0  0  0  0
  139.0290   69.5180  225.1890 C   0  0  0  0  0  0  0  0  0  0  0  0
  138.3848   68.7336  225.6129 H   0  0  0  0  0  0  0  0  0  0  0  0
  138.8640   69.9120  223.8580 C   0  0  0  0  0  0  0  0  0  0  0  0
  138.0899   69.4359  223.2382 H   0  0  0  0  0  0  0  0  0  0  0  0
  1  2  1  0
  2  3  2  0
  3  4  1  0
  4  5  1  0
  5  6  2  0
  5  7  1  0
  7  8  1  0
  8  9  1  0
  8 10  1  0
  8 11  1  0
 11 12  2  0
 12 13  1  0
 12 14  1  0
 14 15  1  0
 14 16  2  0
 16 17  1  0
 16 18  1  0
 18 19  1  0
 18 20  2  0
 20 21  1  0
 21 22  1  0
 21 23  1  0
 21 24  1  0
 24 25  1  0
 24 26  1  0
  4 27  2  0
 27 28  1  0
 27 29  1  0
 29 30  1  0
 30 31  2  0
 30 32  1  0
 32 33  1  0
 33 34  1  0
 33 35  2  0
 35 36  1  0
 35 37  1  0
 37 38  1  0
 37 39  2  0
 39 40  1  0
 39 41  1  0
 41 42  2  0
 42 43  1  0
 43 44  1  0
 44 45  1  0
 45 46  1  0
 45 47  1  0
 45 48  1  0
 48 49  2  0
 49 50  1  0
 49 51  1  0
 51 52  1  0
 51 53  2  0
 53 54  1  0
 53 55  1  0
 55 56  1  0
 55 57  2  0
 57 58  1  0
 44  3  1  0
 57 48  1  0
 24  7  1  0
 43 29  2  0
 20 11  1  0
 41 32  1  0
M  END
>  <UniqueID>  (32) 
126

>  <SMILES>  (32) 
[H]/N=c1/c(C(=O)N2CCc3ccccc3C2)cc2c(=O)n3ccccc3nc2n1Cc1ccccc1

>  <Energy>  (32) 
93.42352053555778

>  <Genealogy>  (32) 
[H]/N=c1/c(C(=O)N2CCc3ccccc3C2)cc2c(=O)n3ccccc3nc2n1Cc1ccccc1 (cis-trans isomerization)
[H]/N=c1/c(C(=O)N2CCc3ccccc3C2)cc2c(=O)n3ccccc3nc2n1Cc1ccccc1 (3D coordinates assigned)
[H]/N=c1/c(C(=O)N2CCc3ccccc3C2)cc2c(=O)n3ccccc3nc2n1Cc1ccccc1 (nonaromatic ring conformer: 93.42352053555778 kcal/mol)

>  <smiles>  (32) 
N=c1c(C(=O)N2CCc3ccccc3C2)cc2c(=O)n3ccccc3nc2n1Cc1ccccc1

>  <score_type>  (32) 
oracle

>  <origin>  (32) 
autodockgpu

>  <m_score__min__energy>  (32) 
-9.2699999999999996

>  <m_primary>  (32) 
energy

>  <meeko>  (32) 
{"free_energy": -9.26, "intermolecular_energy": -10.76, "internal_energy": -1.38, "cluster_size": 14, "cluster_id": 1, "rank_in_cluster": 8}

>  <energy>  (32) 
-9.26

>  <cluster_rmsd>  (32) 
0.04

>  <rmsd>  (32) 
269.71

>  <cluster>  (32) 
1

$$$$
DRTNTVLZUVPGHX-GNVQSUKONA-N
     RDKit          3D

 58 63  0  0  0  0  0  0  0  0999 V2000
  139.5210   74.5620  222.9770 H   0  0  0  0  0  0  0  0  0  0  0  0
  140.3010   74.3260  222.3320 N   0  0  0  0  0  0  0  0  0  0  0  0
  140.8050   75.0720  221.3880 C   0  0  0  0  0  0  0  0  0  0  0  0
  140.4820   76.4480  221.3950 C   0  0  0  0  0  0  0  0  0  0  0  0
  139.6870   77.0650  222.4890 C   0  0  0  0  0  0  0  0  0  0  0  0
  138.6230   76.5070  222.8730 O   0  0  0  0  0  0  0  0  0  0  0  0
  140.1270   78.2750  223.1360 N   0  0  0  0  0  0  0  0  0  0  0  0
  139.2740   79.4670  223.1590 C   0  0  0  0  0  0  0  0  0  0  0  0
  139.1278   79.7871  224.2012 H   0  0  0  0  0  0  0  0  0  0  0  0
  138.3062   79.2201  222.6981 H   0  0  0  0  0  0  0  0  0  0  0  0
  139.9120   80.5900  222.3800 C   0  0  0  0  0  0  0  0  0  0  0  0
  139.1340   81.7000  222.0170 C   0  0  0  0  0  0  0  0  0  0  0  0
  138.0631   81.7221  222.2671 H   0  0  0  0  0  0  0  0  0  0  0  0
  139.7110   82.7770  221.3400 C   0  0  0  0  0  0  0  0  0  0  0  0
  139.0923   83.6398  221.0521 H   0  0  0  0  0  0  0  0  0  0  0  0
  141.0730   82.7600  221.0280 C   0  0  0  0  0  0  0  0  0  0  0  0
  141.5243   83.6082  220.4924 H   0  0  0  0  0  0  0  0  0  0  0  0
  141.8620   81.6680  221.3950 C   0  0  0  0  0  0  0  0  0  0  0  0
  142.9319   81.6570  221.1398 H   0  0  0  0  0  0  0  0  0  0  0  0
  141.2990   80.5830  222.0880 C   0  0  0  0  0  0  0  0  0  0  0  0
  142.1700   79.3880  222.4100 C   0  0  0  0  0  0  0  0  0  0  0  0
  143.1387   79.7478  222.7871 H   0  0  0  0  0  0  0  0  0  0  0  0
  142.2904   78.8014  221.4873 H   0  0  0  0  0  0  0  0  0  0  0  0
  141.5400   78.4770  223.4640 C   0  0  0  0  0  0  0  0  0  0  0  0
  141.6251   78.9460  224.4554 H   0  0  0  0  0  0  0  0  0  0  0  0
  142.0608   77.5082  223.4772 H   0  0  0  0  0  0  0  0  0  0  0  0
  140.9260   77.2600  220.3520 C   0  0  0  0  0  0  0  0  0  0  0  0
  140.6806   78.3323  220.3518 H   0  0  0  0  0  0  0  0  0  0  0  0
  141.6800   76.7210  219.3080 C   0  0  0  0  0  0  0  0  0  0  0  0
  142.1240   77.5080  218.2270 C   0  0  0  0  0  0  0  0  0  0  0  0
  141.8350   78.7390  218.1900 O   0  0  0  0  0  0  0  0  0  0  0  0
  142.8640   76.9400  217.2180 N   0  0  0  0  0  0  0  0  0  0  0  0
  143.3010   77.6940  216.1560 C   0  0  0  0  0  0  0  0  0  0  0  0
  143.0584   78.7661  216.1151 H   0  0  0  0  0  0  0  0  0  0  0  0
  144.0490   77.1170  215.1280 C   0  0  0  0  0  0  0  0  0  0  0  0
  144.3940   77.7301  214.2824 H   0  0  0  0  0  0  0  0  0  0  0  0
  144.3550   75.7600  215.1810 C   0  0  0  0  0  0  0  0  0  0  0  0
  144.9430   75.2946  214.3763 H   0  0  0  0  0  0  0  0  0  0  0  0
  143.9140   74.9950  216.2560 C   0  0  0  0  0  0  0  0  0  0  0  0
  144.1517   73.9222  216.3062 H   0  0  0  0  0  0  0  0  0  0  0  0
  143.1670   75.5980  217.2720 C   0  0  0  0  0  0  0  0  0  0  0  0
  142.7440   74.8430  218.3160 N   0  0  0  0  0  0  0  0  0  0  0  0
  142.0110   75.3560  219.3380 C   0  0  0  0  0  0  0  0  0  0  0  0
  141.5980   74.5470  220.3770 N   0  0  0  0  0  0  0  0  0  0  0  0
  142.0280   73.1280  220.3550 C   0  0  0  0  0  0  0  0  0  0  0  0
  141.6623   72.6273  221.2636 H   0  0  0  0  0  0  0  0  0  0  0  0
  141.6109   72.6495  219.4566 H   0  0  0  0  0  0  0  0  0  0  0  0
  143.5320   73.0190  220.3030 C   0  0  0  0  0  0  0  0  0  0  0  0
  144.1400   71.8900  219.7230 C   0  0  0  0  0  0  0  0  0  0  0  0
  143.5159   71.0916  219.2951 H   0  0  0  0  0  0  0  0  0  0  0  0
  145.5330   71.7780  219.6880 C   0  0  0  0  0  0  0  0  0  0  0  0
  146.0012   70.8930  219.2325 H   0  0  0  0  0  0  0  0  0  0  0  0
  146.3310   72.7870  220.2300 C   0  0  0  0  0  0  0  0  0  0  0  0
  147.4269   72.6957  220.2037 H   0  0  0  0  0  0  0  0  0  0  0  0
  145.7370   73.9130  220.8060 C   0  0  0  0  0  0  0  0  0  0  0  0
  146.3663   74.7088  221.2311 H   0  0  0  0  0  0  0  0  0  0  0  0
  144.3440   74.0300  220.8430 C   0  0  0  0  0  0  0  0  0  0  0  0
  143.8816   74.9186  221.2975 H   0  0  0  0  0  0  0  0  0  0  0  0
  1  2  1  0
  2  3  2  0
  3  4  1  0
  4  5  1  0
  5  6  2  0
  5  7  1  0
  7  8  1  0
  8  9  1  0
  8 10  1  0
  8 11  1  0
 11 12  2  0
 12 13  1  0
 12 14  1  0
 14 15  1  0
 14 16  2  0
 16 17  1  0
 16 18  1  0
 18 19  1  0
 18 20  2  0
 20 21  1  0
 21 22  1  0
 21 23  1  0
 21 24  1  0
 24 25  1  0
 24 26  1  0
  4 27  2  0
 27 28  1  0
 27 29  1  0
 29 30  1  0
 30 31  2  0
 30 32  1  0
 32 33  1  0
 33 34  1  0
 33 35  2  0
 35 36  1  0
 35 37  1  0
 37 38  1  0
 37 39  2  0
 39 40  1  0
 39 41  1  0
 41 42  2  0
 42 43  1  0
 43 44  1  0
 44 45  1  0
 45 46  1  0
 45 47  1  0
 45 48  1  0
 48 49  2  0
 49 50  1  0
 49 51  1  0
 51 52  1  0
 51 53  2  0
 53 54  1  0
 53 55  1  0
 55 56  1  0
 55 57  2  0
 57 58  1  0
 44  3  1  0
 57 48  1  0
 24  7  1  0
 43 29  2  0
 20 11  1  0
 41 32  1  0
M  END
>  <UniqueID>  (33) 
126

>  <SMILES>  (33) 
[H]/N=c1/c(C(=O)N2CCc3ccccc3C2)cc2c(=O)n3ccccc3nc2n1Cc1ccccc1

>  <Energy>  (33) 
93.42352053555778

>  <Genealogy>  (33) 
[H]/N=c1/c(C(=O)N2CCc3ccccc3C2)cc2c(=O)n3ccccc3nc2n1Cc1ccccc1 (cis-trans isomerization)
[H]/N=c1/c(C(=O)N2CCc3ccccc3C2)cc2c(=O)n3ccccc3nc2n1Cc1ccccc1 (3D coordinates assigned)
[H]/N=c1/c(C(=O)N2CCc3ccccc3C2)cc2c(=O)n3ccccc3nc2n1Cc1ccccc1 (nonaromatic ring conformer: 93.42352053555778 kcal/mol)

>  <smiles>  (33) 
N=c1c(C(=O)N2CCc3ccccc3C2)cc2c(=O)n3ccccc3nc2n1Cc1ccccc1

>  <score_type>  (33) 
oracle

>  <origin>  (33) 
autodockgpu

>  <m_score__min__energy>  (33) 
-9.2699999999999996

>  <m_primary>  (33) 
energy

>  <meeko>  (33) 
{"free_energy": -8.48, "intermolecular_energy": -9.97, "internal_energy": -1.96, "cluster_size": 4, "cluster_id": 3, "rank_in_cluster": 3}

>  <energy>  (33) 
-9.25

>  <cluster_rmsd>  (33) 
0.05

>  <rmsd>  (33) 
269.71

>  <cluster>  (33) 
1

$$$$
DRTNTVLZUVPGHX-GNVQSUKONA-N
     RDKit          3D

 58 63  0  0  0  0  0  0  0  0999 V2000
  137.8380   74.4680  223.0700 H   0  0  0  0  0  0  0  0  0  0  0  0
  138.2360   73.8910  222.3020 N   0  0  0  0  0  0  0  0  0  0  0  0
  139.4750   73.8530  221.8970 C   0  0  0  0  0  0  0  0  0  0  0  0
  140.1450   75.0850  221.7130 C   0  0  0  0  0  0  0  0  0  0  0  0
  139.5140   76.3840  222.0640 C   0  0  0  0  0  0  0  0  0  0  0  0
  138.5490   76.4060  222.8760 O   0  0  0  0  0  0  0  0  0  0  0  0
  140.0060   77.6210  221.5130 N   0  0  0  0  0  0  0  0  0  0  0  0
  141.4320   77.9580  221.5790 C   0  0  0  0  0  0  0  0  0  0  0  0
  141.8022   78.1642  220.5639 H   0  0  0  0  0  0  0  0  0  0  0  0
  141.9773   77.1092  222.0175 H   0  0  0  0  0  0  0  0  0  0  0  0
  141.6500   79.1750  222.4430 C   0  0  0  0  0  0  0  0  0  0  0  0
  142.9460   79.4760  222.8880 C   0  0  0  0  0  0  0  0  0  0  0  0
  143.7797   78.8032  222.6385 H   0  0  0  0  0  0  0  0  0  0  0  0
  143.1840   80.6250  223.6460 C   0  0  0  0  0  0  0  0  0  0  0  0
  144.2019   80.8505  223.9969 H   0  0  0  0  0  0  0  0  0  0  0  0
  142.1310   81.4880  223.9590 C   0  0  0  0  0  0  0  0  0  0  0  0
  142.3204   82.3899  224.5596 H   0  0  0  0  0  0  0  0  0  0  0  0
  140.8390   81.2080  223.5110 C   0  0  0  0  0  0  0  0  0  0  0  0
  140.0130   81.8880  223.7667 H   0  0  0  0  0  0  0  0  0  0  0  0
  140.5860   80.0640  222.7360 C   0  0  0  0  0  0  0  0  0  0  0  0
  139.1620   79.7580  222.3260 C   0  0  0  0  0  0  0  0  0  0  0  0
  138.6862   80.6873  221.9794 H   0  0  0  0  0  0  0  0  0  0  0  0
  138.6417   79.3425  223.2016 H   0  0  0  0  0  0  0  0  0  0  0  0
  139.0910   78.7210  221.2040 C   0  0  0  0  0  0  0  0  0  0  0  0
  139.3834   79.1875  220.2517 H   0  0  0  0  0  0  0  0  0  0  0  0
  138.0639   78.3368  221.1175 H   0  0  0  0  0  0  0  0  0  0  0  0
  141.4400   75.0880  221.1940 C   0  0  0  0  0  0  0  0  0  0  0  0
  141.9688   76.0418  221.0503 H   0  0  0  0  0  0  0  0  0  0  0  0
  142.0690   73.8890  220.8560 C   0  0  0  0  0  0  0  0  0  0  0  0
  143.3670   73.8590  220.3080 C   0  0  0  0  0  0  0  0  0  0  0  0
  143.9870   74.9430  220.1100 O   0  0  0  0  0  0  0  0  0  0  0  0
  143.9520   72.6580  219.9880 N   0  0  0  0  0  0  0  0  0  0  0  0
  145.2160   72.6130  219.4500 C   0  0  0  0  0  0  0  0  0  0  0  0
  145.7663   73.5495  219.2765 H   0  0  0  0  0  0  0  0  0  0  0  0
  145.8100   71.3930  219.1210 C   0  0  0  0  0  0  0  0  0  0  0  0
  146.8221   71.3682  218.6908 H   0  0  0  0  0  0  0  0  0  0  0  0
  145.1130   70.2080  219.3410 C   0  0  0  0  0  0  0  0  0  0  0  0
  145.5716   69.2415  219.0850 H   0  0  0  0  0  0  0  0  0  0  0  0
  143.8340   70.2520  219.8860 C   0  0  0  0  0  0  0  0  0  0  0  0
  143.2757   69.3209  220.0627 H   0  0  0  0  0  0  0  0  0  0  0  0
  143.2620   71.4870  220.2080 C   0  0  0  0  0  0  0  0  0  0  0  0
  142.0160   71.5170  220.7410 N   0  0  0  0  0  0  0  0  0  0  0  0
  141.3930   72.6780  221.0750 C   0  0  0  0  0  0  0  0  0  0  0  0
  140.1210   72.6590  221.6100 N   0  0  0  0  0  0  0  0  0  0  0  0
  139.4960   71.3360  221.8500 C   0  0  0  0  0  0  0  0  0  0  0  0
  138.4221   71.3986  221.6203 H   0  0  0  0  0  0  0  0  0  0  0  0
  139.9864   70.5944  221.2023 H   0  0  0  0  0  0  0  0  0  0  0  0
  139.6690   70.9080  223.2870 C   0  0  0  0  0  0  0  0  0  0  0  0
  140.6420   71.5230  224.0960 C   0  0  0  0  0  0  0  0  0  0  0  0
  141.2689   72.3270  223.6829 H   0  0  0  0  0  0  0  0  0  0  0  0
  140.8160   71.1170  225.4230 C   0  0  0  0  0  0  0  0  0  0  0  0
  141.5780   71.6028  226.0502 H   0  0  0  0  0  0  0  0  0  0  0  0
  140.0250   70.0970  225.9530 C   0  0  0  0  0  0  0  0  0  0  0  0
  140.1652   69.7774  226.9962 H   0  0  0  0  0  0  0  0  0  0  0  0
  139.0550   69.4820  225.1580 C   0  0  0  0  0  0  0  0  0  0  0  0
  138.4304   68.6794  225.5771 H   0  0  0  0  0  0  0  0  0  0  0  0
  138.8760   69.8840  223.8310 C   0  0  0  0  0  0  0  0  0  0  0  0
  138.1105   69.3961  223.2098 H   0  0  0  0  0  0  0  0  0  0  0  0
  1  2  1  0
  2  3  2  0
  3  4  1  0
  4  5  1  0
  5  6  2  0
  5  7  1  0
  7  8  1  0
  8  9  1  0
  8 10  1  0
  8 11  1  0
 11 12  2  0
 12 13  1  0
 12 14  1  0
 14 15  1  0
 14 16  2  0
 16 17  1  0
 16 18  1  0
 18 19  1  0
 18 20  2  0
 20 21  1  0
 21 22  1  0
 21 23  1  0
 21 24  1  0
 24 25  1  0
 24 26  1  0
  4 27  2  0
 27 28  1  0
 27 29  1  0
 29 30  1  0
 30 31  2  0
 30 32  1  0
 32 33  1  0
 33 34  1  0
 33 35  2  0
 35 36  1  0
 35 37  1  0
 37 38  1  0
 37 39  2  0
 39 40  1  0
 39 41  1  0
 41 42  2  0
 42 43  1  0
 43 44  1  0
 44 45  1  0
 45 46  1  0
 45 47  1  0
 45 48  1  0
 48 49  2  0
 49 50  1  0
 49 51  1  0
 51 52  1  0
 51 53  2  0
 53 54  1  0
 53 55  1  0
 55 56  1  0
 55 57  2  0
 57 58  1  0
 44  3  1  0
 57 48  1  0
 24  7  1  0
 43 29  2  0
 20 11  1  0
 41 32  1  0
M  END
>  <UniqueID>  (34) 
126

>  <SMILES>  (34) 
[H]/N=c1/c(C(=O)N2CCc3ccccc3C2)cc2c(=O)n3ccccc3nc2n1Cc1ccccc1

>  <Energy>  (34) 
93.42352053555778

>  <Genealogy>  (34) 
[H]/N=c1/c(C(=O)N2CCc3ccccc3C2)cc2c(=O)n3ccccc3nc2n1Cc1ccccc1 (cis-trans isomerization)
[H]/N=c1/c(C(=O)N2CCc3ccccc3C2)cc2c(=O)n3ccccc3nc2n1Cc1ccccc1 (3D coordinates assigned)
[H]/N=c1/c(C(=O)N2CCc3ccccc3C2)cc2c(=O)n3ccccc3nc2n1Cc1ccccc1 (nonaromatic ring conformer: 93.42352053555778 kcal/mol)

>  <smiles>  (34) 
N=c1c(C(=O)N2CCc3ccccc3C2)cc2c(=O)n3ccccc3nc2n1Cc1ccccc1

>  <score_type>  (34) 
oracle

>  <origin>  (34) 
autodockgpu

>  <m_score__min__energy>  (34) 
-9.2699999999999996

>  <m_primary>  (34) 
energy

>  <meeko>  (34) 
{"free_energy": -9.26, "intermolecular_energy": -10.75, "internal_energy": -1.38, "cluster_size": 14, "cluster_id": 1, "rank_in_cluster": 12}

>  <energy>  (34) 
-9.22

>  <cluster_rmsd>  (34) 
0.17

>  <rmsd>  (34) 
269.67

>  <cluster>  (34) 
1

$$$$
DRTNTVLZUVPGHX-GNVQSUKONA-N
     RDKit          3D

 58 63  0  0  0  0  0  0  0  0999 V2000
  139.5290   74.5860  222.9680 H   0  0  0  0  0  0  0  0  0  0  0  0
  140.2840   74.3380  222.2970 N   0  0  0  0  0  0  0  0  0  0  0  0
  140.7850   75.0840  221.3530 C   0  0  0  0  0  0  0  0  0  0  0  0
  140.4560   76.4590  221.3580 C   0  0  0  0  0  0  0  0  0  0  0  0
  139.6570   77.0740  222.4510 C   0  0  0  0  0  0  0  0  0  0  0  0
  138.5680   76.5420  222.7970 O   0  0  0  0  0  0  0  0  0  0  0  0
  140.1220   78.2530  223.1370 N   0  0  0  0  0  0  0  0  0  0  0  0
  139.2740   79.4440  223.2420 C   0  0  0  0  0  0  0  0  0  0  0  0
  139.1632   79.7166  224.3019 H   0  0  0  0  0  0  0  0  0  0  0  0
  138.2910   79.2195  222.8022 H   0  0  0  0  0  0  0  0  0  0  0  0
  139.8890   80.6010  222.4940 C   0  0  0  0  0  0  0  0  0  0  0  0
  139.1030   81.7270  222.2070 C   0  0  0  0  0  0  0  0  0  0  0  0
  138.0406   81.7392  222.4920 H   0  0  0  0  0  0  0  0  0  0  0  0
  139.6610   82.8320  221.5620 C   0  0  0  0  0  0  0  0  0  0  0  0
  139.0358   83.7079  221.3342 H   0  0  0  0  0  0  0  0  0  0  0  0
  141.0120   82.8280  221.2050 C   0  0  0  0  0  0  0  0  0  0  0  0
  141.4480   83.6989  220.6937 H   0  0  0  0  0  0  0  0  0  0  0  0
  141.8090   81.7190  221.4970 C   0  0  0  0  0  0  0  0  0  0  0  0
  142.8703   81.7182  221.2077 H   0  0  0  0  0  0  0  0  0  0  0  0
  141.2660   80.6050  222.1570 C   0  0  0  0  0  0  0  0  0  0  0  0
  142.1430   79.3960  222.3960 C   0  0  0  0  0  0  0  0  0  0  0  0
  143.1244   79.7371  222.7573 H   0  0  0  0  0  0  0  0  0  0  0  0
  142.2315   78.8518  221.4442 H   0  0  0  0  0  0  0  0  0  0  0  0
  141.5450   78.4380  223.4280 C   0  0  0  0  0  0  0  0  0  0  0  0
  141.6634   78.8612  224.4364 H   0  0  0  0  0  0  0  0  0  0  0  0
  142.0635   77.4690  223.3804 H   0  0  0  0  0  0  0  0  0  0  0  0
  140.8980   77.2720  220.3140 C   0  0  0  0  0  0  0  0  0  0  0  0
  140.6493   78.3435  220.3127 H   0  0  0  0  0  0  0  0  0  0  0  0
  141.6540   76.7340  219.2710 C   0  0  0  0  0  0  0  0  0  0  0  0
  142.0960   77.5230  218.1900 C   0  0  0  0  0  0  0  0  0  0  0  0
  141.8020   78.7520  218.1510 O   0  0  0  0  0  0  0  0  0  0  0  0
  142.8390   76.9560  217.1820 N   0  0  0  0  0  0  0  0  0  0  0  0
  143.2740   77.7110  216.1190 C   0  0  0  0  0  0  0  0  0  0  0  0
  143.0273   78.7821  216.0763 H   0  0  0  0  0  0  0  0  0  0  0  0
  144.0250   77.1350  215.0930 C   0  0  0  0  0  0  0  0  0  0  0  0
  144.3681   77.7482  214.2466 H   0  0  0  0  0  0  0  0  0  0  0  0
  144.3370   75.7790  215.1480 C   0  0  0  0  0  0  0  0  0  0  0  0
  144.9281   75.3151  214.3446 H   0  0  0  0  0  0  0  0  0  0  0  0
  143.8980   75.0140  216.2230 C   0  0  0  0  0  0  0  0  0  0  0  0
  144.1390   73.9419  216.2742 H   0  0  0  0  0  0  0  0  0  0  0  0
  143.1480   75.6160  217.2390 C   0  0  0  0  0  0  0  0  0  0  0  0
  142.7280   74.8590  218.2830 N   0  0  0  0  0  0  0  0  0  0  0  0
  141.9910   75.3710  219.3040 C   0  0  0  0  0  0  0  0  0  0  0  0
  141.5810   74.5620  220.3440 N   0  0  0  0  0  0  0  0  0  0  0  0
  142.0170   73.1450  220.3240 C   0  0  0  0  0  0  0  0  0  0  0  0
  141.6404   72.6403  221.2259 H   0  0  0  0  0  0  0  0  0  0  0  0
  141.6147   72.6680  219.4181 H   0  0  0  0  0  0  0  0  0  0  0  0
  143.5220   73.0410  220.2930 C   0  0  0  0  0  0  0  0  0  0  0  0
  144.3130   74.0640  220.8470 C   0  0  0  0  0  0  0  0  0  0  0  0
  143.8313   74.9348  221.3158 H   0  0  0  0  0  0  0  0  0  0  0  0
  145.7080   73.9800  220.8050 C   0  0  0  0  0  0  0  0  0  0  0  0
  146.3200   74.7835  221.2407 H   0  0  0  0  0  0  0  0  0  0  0  0
  146.3250   72.8780  220.2110 C   0  0  0  0  0  0  0  0  0  0  0  0
  147.4226   72.8150  220.1760 H   0  0  0  0  0  0  0  0  0  0  0  0
  145.5490   71.8550  219.6610 C   0  0  0  0  0  0  0  0  0  0  0  0
  146.0364   70.9852  219.1965 H   0  0  0  0  0  0  0  0  0  0  0  0
  144.1530   71.9350  219.7000 C   0  0  0  0  0  0  0  0  0  0  0  0
  143.5463   71.1276  219.2640 H   0  0  0  0  0  0  0  0  0  0  0  0
  1  2  1  0
  2  3  2  0
  3  4  1  0
  4  5  1  0
  5  6  2  0
  5  7  1  0
  7  8  1  0
  8  9  1  0
  8 10  1  0
  8 11  1  0
 11 12  2  0
 12 13  1  0
 12 14  1  0
 14 15  1  0
 14 16  2  0
 16 17  1  0
 16 18  1  0
 18 19  1  0
 18 20  2  0
 20 21  1  0
 21 22  1  0
 21 23  1  0
 21 24  1  0
 24 25  1  0
 24 26  1  0
  4 27  2  0
 27 28  1  0
 27 29  1  0
 29 30  1  0
 30 31  2  0
 30 32  1  0
 32 33  1  0
 33 34  1  0
 33 35  2  0
 35 36  1  0
 35 37  1  0
 37 38  1  0
 37 39  2  0
 39 40  1  0
 39 41  1  0
 41 42  2  0
 42 43  1  0
 43 44  1  0
 44 45  1  0
 45 46  1  0
 45 47  1  0
 45 48  1  0
 48 49  2  0
 49 50  1  0
 49 51  1  0
 51 52  1  0
 51 53  2  0
 53 54  1  0
 53 55  1  0
 55 56  1  0
 55 57  2  0
 57 58  1  0
 44  3  1  0
 57 48  1  0
 24  7  1  0
 43 29  2  0
 20 11  1  0
 41 32  1  0
M  END
>  <UniqueID>  (35) 
126

>  <SMILES>  (35) 
[H]/N=c1/c(C(=O)N2CCc3ccccc3C2)cc2c(=O)n3ccccc3nc2n1Cc1ccccc1

>  <Energy>  (35) 
93.42352053555778

>  <Genealogy>  (35) 
[H]/N=c1/c(C(=O)N2CCc3ccccc3C2)cc2c(=O)n3ccccc3nc2n1Cc1ccccc1 (cis-trans isomerization)
[H]/N=c1/c(C(=O)N2CCc3ccccc3C2)cc2c(=O)n3ccccc3nc2n1Cc1ccccc1 (3D coordinates assigned)
[H]/N=c1/c(C(=O)N2CCc3ccccc3C2)cc2c(=O)n3ccccc3nc2n1Cc1ccccc1 (nonaromatic ring conformer: 93.42352053555778 kcal/mol)

>  <smiles>  (35) 
N=c1c(C(=O)N2CCc3ccccc3C2)cc2c(=O)n3ccccc3nc2n1Cc1ccccc1

>  <score_type>  (35) 
oracle

>  <origin>  (35) 
autodockgpu

>  <m_score__min__energy>  (35) 
-9.2699999999999996

>  <m_primary>  (35) 
energy

>  <meeko>  (35) 
{"free_energy": -8.51, "intermolecular_energy": -10.0, "internal_energy": -1.94, "cluster_size": 4, "cluster_id": 3, "rank_in_cluster": 2}

>  <energy>  (35) 
-8.62

>  <cluster_rmsd>  (35) 
0.0

>  <rmsd>  (35) 
269.33

>  <cluster>  (35) 
2

$$$$
DRTNTVLZUVPGHX-GNVQSUKONA-N
     RDKit          3D

 58 63  0  0  0  0  0  0  0  0999 V2000
  137.8470   74.4370  223.0890 H   0  0  0  0  0  0  0  0  0  0  0  0
  138.2420   73.8950  222.2940 N   0  0  0  0  0  0  0  0  0  0  0  0
  139.4830   73.8560  221.8960 C   0  0  0  0  0  0  0  0  0  0  0  0
  140.1550   75.0870  221.7210 C   0  0  0  0  0  0  0  0  0  0  0  0
  139.5250   76.3860  222.0740 C   0  0  0  0  0  0  0  0  0  0  0  0
  138.5680   76.4080  222.8940 O   0  0  0  0  0  0  0  0  0  0  0  0
  140.0080   77.6220  221.5130 N   0  0  0  0  0  0  0  0  0  0  0  0
  141.4330   77.9640  221.5660 C   0  0  0  0  0  0  0  0  0  0  0  0
  141.7940   78.1672  220.5470 H   0  0  0  0  0  0  0  0  0  0  0  0
  141.9842   77.1188  222.0038 H   0  0  0  0  0  0  0  0  0  0  0  0
  141.6550   79.1850  222.4230 C   0  0  0  0  0  0  0  0  0  0  0  0
  142.9530   79.4930  222.8560 C   0  0  0  0  0  0  0  0  0  0  0  0
  143.7871   78.8225  222.6015 H   0  0  0  0  0  0  0  0  0  0  0  0
  143.1940   80.6450  223.6080 C   0  0  0  0  0  0  0  0  0  0  0  0
  144.2138   80.8743  223.9508 H   0  0  0  0  0  0  0  0  0  0  0  0
  142.1410   81.5060  223.9250 C   0  0  0  0  0  0  0  0  0  0  0  0
  142.3328   82.4118  224.5190 H   0  0  0  0  0  0  0  0  0  0  0  0
  140.8460   81.2200  223.4900 C   0  0  0  0  0  0  0  0  0  0  0  0
  140.0201   81.8983  223.7504 H   0  0  0  0  0  0  0  0  0  0  0  0
  140.5900   80.0720  222.7220 C   0  0  0  0  0  0  0  0  0  0  0  0
  139.1640   79.7590  222.3250 C   0  0  0  0  0  0  0  0  0  0  0  0
  138.6817   80.6853  221.9795 H   0  0  0  0  0  0  0  0  0  0  0  0
  138.6530   79.3442  223.2064 H   0  0  0  0  0  0  0  0  0  0  0  0
  139.0870   78.7180  221.2070 C   0  0  0  0  0  0  0  0  0  0  0  0
  139.3704   79.1820  220.2507 H   0  0  0  0  0  0  0  0  0  0  0  0
  138.0604   78.3305  221.1296 H   0  0  0  0  0  0  0  0  0  0  0  0
  141.4530   75.0900  221.2090 C   0  0  0  0  0  0  0  0  0  0  0  0
  141.9839   76.0436  221.0718 H   0  0  0  0  0  0  0  0  0  0  0  0
  142.0820   73.8920  220.8700 C   0  0  0  0  0  0  0  0  0  0  0  0
  143.3830   73.8610  220.3290 C   0  0  0  0  0  0  0  0  0  0  0  0
  144.0060   74.9450  220.1390 O   0  0  0  0  0  0  0  0  0  0  0  0
  143.9680   72.6610  220.0070 N   0  0  0  0  0  0  0  0  0  0  0  0
  145.2350   72.6150  219.4760 C   0  0  0  0  0  0  0  0  0  0  0  0
  145.7881   73.5512  219.3097 H   0  0  0  0  0  0  0  0  0  0  0  0
  145.8290   71.3960  219.1450 C   0  0  0  0  0  0  0  0  0  0  0  0
  146.8435   71.3714  218.7205 H   0  0  0  0  0  0  0  0  0  0  0  0
  145.1280   70.2110  219.3560 C   0  0  0  0  0  0  0  0  0  0  0  0
  145.5859   69.2448  219.0977 H   0  0  0  0  0  0  0  0  0  0  0  0
  143.8460   70.2550  219.8950 C   0  0  0  0  0  0  0  0  0  0  0  0
  143.2852   69.3243  220.0660 H   0  0  0  0  0  0  0  0  0  0  0  0
  143.2750   71.4900  220.2180 C   0  0  0  0  0  0  0  0  0  0  0  0
  142.0260   71.5200  220.7440 N   0  0  0  0  0  0  0  0  0  0  0  0
  141.4030   72.6800  221.0790 C   0  0  0  0  0  0  0  0  0  0  0  0
  140.1280   72.6620  221.6070 N   0  0  0  0  0  0  0  0  0  0  0  0
  139.4990   71.3390  221.8380 C   0  0  0  0  0  0  0  0  0  0  0  0
  138.4238   71.4083  221.6161 H   0  0  0  0  0  0  0  0  0  0  0  0
  139.9818   70.6018  221.1796 H   0  0  0  0  0  0  0  0  0  0  0  0
  139.6800   70.8960  223.2700 C   0  0  0  0  0  0  0  0  0  0  0  0
  138.8790   69.8670  223.7990 C   0  0  0  0  0  0  0  0  0  0  0  0
  138.1278   69.3764  223.1626 H   0  0  0  0  0  0  0  0  0  0  0  0
  139.0330   69.4650  225.1290 C   0  0  0  0  0  0  0  0  0  0  0  0
  138.4037   68.6595  225.5355 H   0  0  0  0  0  0  0  0  0  0  0  0
  139.9840   70.0840  225.9420 C   0  0  0  0  0  0  0  0  0  0  0  0
  140.1021   69.7683  226.9891 H   0  0  0  0  0  0  0  0  0  0  0  0
  140.7860   71.1050  225.4250 C   0  0  0  0  0  0  0  0  0  0  0  0
  141.5368   71.5908  226.0655 H   0  0  0  0  0  0  0  0  0  0  0  0
  140.6360   71.5100  224.0960 C   0  0  0  0  0  0  0  0  0  0  0  0
  141.2701   72.3141  223.6944 H   0  0  0  0  0  0  0  0  0  0  0  0
  1  2  1  0
  2  3  2  0
  3  4  1  0
  4  5  1  0
  5  6  2  0
  5  7  1  0
  7  8  1  0
  8  9  1  0
  8 10  1  0
  8 11  1  0
 11 12  2  0
 12 13  1  0
 12 14  1  0
 14 15  1  0
 14 16  2  0
 16 17  1  0
 16 18  1  0
 18 19  1  0
 18 20  2  0
 20 21  1  0
 21 22  1  0
 21 23  1  0
 21 24  1  0
 24 25  1  0
 24 26  1  0
  4 27  2  0
 27 28  1  0
 27 29  1  0
 29 30  1  0
 30 31  2  0
 30 32  1  0
 32 33  1  0
 33 34  1  0
 33 35  2  0
 35 36  1  0
 35 37  1  0
 37 38  1  0
 37 39  2  0
 39 40  1  0
 39 41  1  0
 41 42  2  0
 42 43  1  0
 43 44  1  0
 44 45  1  0
 45 46  1  0
 45 47  1  0
 45 48  1  0
 48 49  2  0
 49 50  1  0
 49 51  1  0
 51 52  1  0
 51 53  2  0
 53 54  1  0
 53 55  1  0
 55 56  1  0
 55 57  2  0
 57 58  1  0
 44  3  1  0
 57 48  1  0
 24  7  1  0
 43 29  2  0
 20 11  1  0
 41 32  1  0
M  END
>  <UniqueID>  (36) 
126

>  <SMILES>  (36) 
[H]/N=c1/c(C(=O)N2CCc3ccccc3C2)cc2c(=O)n3ccccc3nc2n1Cc1ccccc1

>  <Energy>  (36) 
93.42352053555778

>  <Genealogy>  (36) 
[H]/N=c1/c(C(=O)N2CCc3ccccc3C2)cc2c(=O)n3ccccc3nc2n1Cc1ccccc1 (cis-trans isomerization)
[H]/N=c1/c(C(=O)N2CCc3ccccc3C2)cc2c(=O)n3ccccc3nc2n1Cc1ccccc1 (3D coordinates assigned)
[H]/N=c1/c(C(=O)N2CCc3ccccc3C2)cc2c(=O)n3ccccc3nc2n1Cc1ccccc1 (nonaromatic ring conformer: 93.42352053555778 kcal/mol)

>  <smiles>  (36) 
N=c1c(C(=O)N2CCc3ccccc3C2)cc2c(=O)n3ccccc3nc2n1Cc1ccccc1

>  <score_type>  (36) 
oracle

>  <origin>  (36) 
autodockgpu

>  <m_score__min__energy>  (36) 
-9.2699999999999996

>  <m_primary>  (36) 
energy

>  <meeko>  (36) 
{"free_energy": -9.25, "intermolecular_energy": -10.74, "internal_energy": -1.38, "cluster_size": 14, "cluster_id": 1, "rank_in_cluster": 13}

>  <energy>  (36) 
-8.53

>  <cluster_rmsd>  (36) 
0.0

>  <rmsd>  (36) 
269.27

>  <cluster>  (36) 
3

$$$$
DRTNTVLZUVPGHX-GNVQSUKONA-N
     RDKit          3D

 58 63  0  0  0  0  0  0  0  0999 V2000
  137.8540   74.4490  223.0860 H   0  0  0  0  0  0  0  0  0  0  0  0
  138.2570   73.8610  222.3300 N   0  0  0  0  0  0  0  0  0  0  0  0
  139.4960   73.8290  221.9230 C   0  0  0  0  0  0  0  0  0  0  0  0
  140.1610   75.0630  221.7430 C   0  0  0  0  0  0  0  0  0  0  0  0
  139.5260   76.3590  222.1010 C   0  0  0  0  0  0  0  0  0  0  0  0
  138.5760   76.3760  222.9300 O   0  0  0  0  0  0  0  0  0  0  0  0
  139.9980   77.5970  221.5350 N   0  0  0  0  0  0  0  0  0  0  0  0
  141.4220   77.9420  221.5650 C   0  0  0  0  0  0  0  0  0  0  0  0
  141.7658   78.1482  220.5407 H   0  0  0  0  0  0  0  0  0  0  0  0
  141.9829   77.0973  221.9914 H   0  0  0  0  0  0  0  0  0  0  0  0
  141.6540   79.1620  222.4210 C   0  0  0  0  0  0  0  0  0  0  0  0
  142.9590   79.4730  222.8340 C   0  0  0  0  0  0  0  0  0  0  0  0
  143.7909   78.8055  222.5650 H   0  0  0  0  0  0  0  0  0  0  0  0
  143.2080   80.6240  223.5840 C   0  0  0  0  0  0  0  0  0  0  0  0
  144.2325   80.8553  223.9108 H   0  0  0  0  0  0  0  0  0  0  0  0
  142.1590   81.4820  223.9200 C   0  0  0  0  0  0  0  0  0  0  0  0
  142.3581   82.3871  224.5126 H   0  0  0  0  0  0  0  0  0  0  0  0
  140.8580   81.1930  223.5050 C   0  0  0  0  0  0  0  0  0  0  0  0
  140.0347   81.8687  223.7799 H   0  0  0  0  0  0  0  0  0  0  0  0
  140.5920   80.0460  222.7390 C   0  0  0  0  0  0  0  0  0  0  0  0
  139.1610   79.7310  222.3640 C   0  0  0  0  0  0  0  0  0  0  0  0
  138.6718   80.6569  222.0271 H   0  0  0  0  0  0  0  0  0  0  0  0
  138.6647   79.3141  223.2528 H   0  0  0  0  0  0  0  0  0  0  0  0
  139.0680   78.6910  221.2460 C   0  0  0  0  0  0  0  0  0  0  0  0
  139.3335   79.1570  220.2856 H   0  0  0  0  0  0  0  0  0  0  0  0
  138.0414   78.3004  221.1857 H   0  0  0  0  0  0  0  0  0  0  0  0
  141.4550   75.0730  221.2230 C   0  0  0  0  0  0  0  0  0  0  0  0
  141.9802   76.0294  221.0831 H   0  0  0  0  0  0  0  0  0  0  0  0
  142.0880   73.8780  220.8790 C   0  0  0  0  0  0  0  0  0  0  0  0
  143.3850   73.8540  220.3290 C   0  0  0  0  0  0  0  0  0  0  0  0
  144.0010   74.9420  220.1350 O   0  0  0  0  0  0  0  0  0  0  0  0
  143.9750   72.6570  220.0030 N   0  0  0  0  0  0  0  0  0  0  0  0
  145.2370   72.6180  219.4630 C   0  0  0  0  0  0  0  0  0  0  0  0
  145.7835   73.5571  219.2915 H   0  0  0  0  0  0  0  0  0  0  0  0
  145.8350   71.4020  219.1290 C   0  0  0  0  0  0  0  0  0  0  0  0
  146.8468   71.3827  218.6978 H   0  0  0  0  0  0  0  0  0  0  0  0
  145.1430   70.2140  219.3450 C   0  0  0  0  0  0  0  0  0  0  0  0
  145.6049   69.2503  219.0846 H   0  0  0  0  0  0  0  0  0  0  0  0
  143.8640   70.2510  219.8920 C   0  0  0  0  0  0  0  0  0  0  0  0
  143.3088   69.3173  220.0653 H   0  0  0  0  0  0  0  0  0  0  0  0
  143.2890   71.4830  220.2200 C   0  0  0  0  0  0  0  0  0  0  0  0
  142.0430   71.5060  220.7540 N   0  0  0  0  0  0  0  0  0  0  0  0
  141.4160   72.6630  221.0940 C   0  0  0  0  0  0  0  0  0  0  0  0
  140.1450   72.6380  221.6300 N   0  0  0  0  0  0  0  0  0  0  0  0
  139.5250   71.3120  221.8660 C   0  0  0  0  0  0  0  0  0  0  0  0
  138.4541   71.3673  221.6209 H   0  0  0  0  0  0  0  0  0  0  0  0
  140.0296   70.5715  221.2280 H   0  0  0  0  0  0  0  0  0  0  0  0
  139.6800   70.8890  223.3070 C   0  0  0  0  0  0  0  0  0  0  0  0
  140.6440   71.5060  224.1250 C   0  0  0  0  0  0  0  0  0  0  0  0
  141.2772   72.3070  223.7159 H   0  0  0  0  0  0  0  0  0  0  0  0
  140.8010   71.1060  225.4550 C   0  0  0  0  0  0  0  0  0  0  0  0
  141.5565   71.5929  226.0892 H   0  0  0  0  0  0  0  0  0  0  0  0
  140.0010   70.0900  225.9800 C   0  0  0  0  0  0  0  0  0  0  0  0
  140.1277   69.7750  227.0263 H   0  0  0  0  0  0  0  0  0  0  0  0
  139.0390   69.4730  225.1760 C   0  0  0  0  0  0  0  0  0  0  0  0
  138.4077   68.6736  225.5912 H   0  0  0  0  0  0  0  0  0  0  0  0
  138.8770   69.8690  223.8460 C   0  0  0  0  0  0  0  0  0  0  0  0
  138.1176   69.3804  223.2178 H   0  0  0  0  0  0  0  0  0  0  0  0
  1  2  1  0
  2  3  2  0
  3  4  1  0
  4  5  1  0
  5  6  2  0
  5  7  1  0
  7  8  1  0
  8  9  1  0
  8 10  1  0
  8 11  1  0
 11 12  2  0
 12 13  1  0
 12 14  1  0
 14 15  1  0
 14 16  2  0
 16 17  1  0
 16 18  1  0
 18 19  1  0
 18 20  2  0
 20 21  1  0
 21 22  1  0
 21 23  1  0
 21 24  1  0
 24 25  1  0
 24 26  1  0
  4 27  2  0
 27 28  1  0
 27 29  1  0
 29 30  1  0
 30 31  2  0
 30 32  1  0
 32 33  1  0
 33 34  1  0
 33 35  2  0
 35 36  1  0
 35 37  1  0
 37 38  1  0
 37 39  2  0
 39 40  1  0
 39 41  1  0
 41 42  2  0
 42 43  1  0
 43 44  1  0
 44 45  1  0
 45 46  1  0
 45 47  1  0
 45 48  1  0
 48 49  2  0
 49 50  1  0
 49 51  1  0
 51 52  1  0
 51 53  2  0
 53 54  1  0
 53 55  1  0
 55 56  1  0
 55 57  2  0
 57 58  1  0
 44  3  1  0
 57 48  1  0
 24  7  1  0
 43 29  2  0
 20 11  1  0
 41 32  1  0
M  END
>  <UniqueID>  (37) 
126

>  <SMILES>  (37) 
[H]/N=c1/c(C(=O)N2CCc3ccccc3C2)cc2c(=O)n3ccccc3nc2n1Cc1ccccc1

>  <Energy>  (37) 
93.42352053555778

>  <Genealogy>  (37) 
[H]/N=c1/c(C(=O)N2CCc3ccccc3C2)cc2c(=O)n3ccccc3nc2n1Cc1ccccc1 (cis-trans isomerization)
[H]/N=c1/c(C(=O)N2CCc3ccccc3C2)cc2c(=O)n3ccccc3nc2n1Cc1ccccc1 (3D coordinates assigned)
[H]/N=c1/c(C(=O)N2CCc3ccccc3C2)cc2c(=O)n3ccccc3nc2n1Cc1ccccc1 (nonaromatic ring conformer: 93.42352053555778 kcal/mol)

>  <smiles>  (37) 
N=c1c(C(=O)N2CCc3ccccc3C2)cc2c(=O)n3ccccc3nc2n1Cc1ccccc1

>  <score_type>  (37) 
oracle

>  <origin>  (37) 
autodockgpu

>  <m_score__min__energy>  (37) 
-9.2699999999999996

>  <m_primary>  (37) 
energy

>  <meeko>  (37) 
{"free_energy": -9.27, "intermolecular_energy": -10.76, "internal_energy": -1.38, "cluster_size": 14, "cluster_id": 1, "rank_in_cluster": 5}

>  <energy>  (37) 
-8.51

>  <cluster_rmsd>  (37) 
0.06

>  <rmsd>  (37) 
269.25

>  <cluster>  (37) 
3

$$$$
DRTNTVLZUVPGHX-GNVQSUKONA-N
     RDKit          3D

 58 63  0  0  0  0  0  0  0  0999 V2000
  137.8410   74.4830  223.0820 H   0  0  0  0  0  0  0  0  0  0  0  0
  138.2360   73.8910  222.3250 N   0  0  0  0  0  0  0  0  0  0  0  0
  139.4730   73.8490  221.9130 C   0  0  0  0  0  0  0  0  0  0  0  0
  140.1430   75.0780  221.7170 C   0  0  0  0  0  0  0  0  0  0  0  0
  139.5160   76.3810  222.0620 C   0  0  0  0  0  0  0  0  0  0  0  0
  138.5440   76.4070  222.8650 O   0  0  0  0  0  0  0  0  0  0  0  0
  140.0200   77.6150  221.5160 N   0  0  0  0  0  0  0  0  0  0  0  0
  141.4470   77.9450  221.5960 C   0  0  0  0  0  0  0  0  0  0  0  0
  141.8281   78.1497  220.5846 H   0  0  0  0  0  0  0  0  0  0  0  0
  141.9840   77.0935  222.0394 H   0  0  0  0  0  0  0  0  0  0  0  0
  141.6620   79.1600  222.4620 C   0  0  0  0  0  0  0  0  0  0  0  0
  142.9550   79.4560  222.9200 C   0  0  0  0  0  0  0  0  0  0  0  0
  143.7883   78.7800  222.6780 H   0  0  0  0  0  0  0  0  0  0  0  0
  143.1910   80.6030  223.6810 C   0  0  0  0  0  0  0  0  0  0  0  0
  144.2062   80.8227  224.0431 H   0  0  0  0  0  0  0  0  0  0  0  0
  142.1390   81.4720  223.9830 C   0  0  0  0  0  0  0  0  0  0  0  0
  142.3269   82.3733  224.5849 H   0  0  0  0  0  0  0  0  0  0  0  0
  140.8500   81.1980  223.5220 C   0  0  0  0  0  0  0  0  0  0  0  0
  140.0249   81.8822  223.7691 H   0  0  0  0  0  0  0  0  0  0  0  0
  140.5990   80.0550  222.7450 C   0  0  0  0  0  0  0  0  0  0  0  0
  139.1780   79.7560  222.3210 C   0  0  0  0  0  0  0  0  0  0  0  0
  138.7102   80.6876  221.9697 H   0  0  0  0  0  0  0  0  0  0  0  0
  138.6470   79.3431  223.1914 H   0  0  0  0  0  0  0  0  0  0  0  0
  139.1130   78.7190  221.1980 C   0  0  0  0  0  0  0  0  0  0  0  0
  139.4167   79.1840  220.2485 H   0  0  0  0  0  0  0  0  0  0  0  0
  138.0851   78.3395  221.1015 H   0  0  0  0  0  0  0  0  0  0  0  0
  141.4350   75.0760  221.1900 C   0  0  0  0  0  0  0  0  0  0  0  0
  141.9640   76.0281  221.0362 H   0  0  0  0  0  0  0  0  0  0  0  0
  142.0600   73.8740  220.8570 C   0  0  0  0  0  0  0  0  0  0  0  0
  143.3550   73.8380  220.3010 C   0  0  0  0  0  0  0  0  0  0  0  0
  143.9750   74.9200  220.0920 O   0  0  0  0  0  0  0  0  0  0  0  0
  143.9370   72.6340  219.9860 N   0  0  0  0  0  0  0  0  0  0  0  0
  145.1970   72.5830  219.4410 C   0  0  0  0  0  0  0  0  0  0  0  0
  145.7474   73.5175  219.2575 H   0  0  0  0  0  0  0  0  0  0  0  0
  145.7880   71.3600  219.1170 C   0  0  0  0  0  0  0  0  0  0  0  0
  146.7977   71.3307  218.6816 H   0  0  0  0  0  0  0  0  0  0  0  0
  145.0900   70.1780  219.3490 C   0  0  0  0  0  0  0  0  0  0  0  0
  145.5454   69.2091  219.0962 H   0  0  0  0  0  0  0  0  0  0  0  0
  143.8140   70.2270  219.9020 C   0  0  0  0  0  0  0  0  0  0  0  0
  143.2554   69.2980  220.0891 H   0  0  0  0  0  0  0  0  0  0  0  0
  143.2470   71.4650  220.2180 C   0  0  0  0  0  0  0  0  0  0  0  0
  142.0030   71.5010  220.7580 N   0  0  0  0  0  0  0  0  0  0  0  0
  141.3840   72.6650  221.0880 C   0  0  0  0  0  0  0  0  0  0  0  0
  140.1150   72.6520  221.6300 N   0  0  0  0  0  0  0  0  0  0  0  0
  139.4900   71.3310  221.8830 C   0  0  0  0  0  0  0  0  0  0  0  0
  138.4114   71.3985  221.6781 H   0  0  0  0  0  0  0  0  0  0  0  0
  139.9625   70.5883  221.2234 H   0  0  0  0  0  0  0  0  0  0  0  0
  139.6940   70.9000  223.3150 C   0  0  0  0  0  0  0  0  0  0  0  0
  138.9030   69.8750  223.8650 C   0  0  0  0  0  0  0  0  0  0  0  0
  138.1421   69.3785  223.2449 H   0  0  0  0  0  0  0  0  0  0  0  0
  139.0790   69.4840  225.1960 C   0  0  0  0  0  0  0  0  0  0  0  0
  138.4573   68.6813  225.6193 H   0  0  0  0  0  0  0  0  0  0  0  0
  140.0430   70.1110  225.9890 C   0  0  0  0  0  0  0  0  0  0  0  0
  140.1784   69.8044  227.0367 H   0  0  0  0  0  0  0  0  0  0  0  0
  140.8350   71.1280  225.4500 C   0  0  0  0  0  0  0  0  0  0  0  0
  141.5958   71.6198  226.0739 H   0  0  0  0  0  0  0  0  0  0  0  0
  140.6630   71.5220  224.1200 C   0  0  0  0  0  0  0  0  0  0  0  0
  141.2896   72.3233  223.7014 H   0  0  0  0  0  0  0  0  0  0  0  0
  1  2  1  0
  2  3  2  0
  3  4  1  0
  4  5  1  0
  5  6  2  0
  5  7  1  0
  7  8  1  0
  8  9  1  0
  8 10  1  0
  8 11  1  0
 11 12  2  0
 12 13  1  0
 12 14  1  0
 14 15  1  0
 14 16  2  0
 16 17  1  0
 16 18  1  0
 18 19  1  0
 18 20  2  0
 20 21  1  0
 21 22  1  0
 21 23  1  0
 21 24  1  0
 24 25  1  0
 24 26  1  0
  4 27  2  0
 27 28  1  0
 27 29  1  0
 29 30  1  0
 30 31  2  0
 30 32  1  0
 32 33  1  0
 33 34  1  0
 33 35  2  0
 35 36  1  0
 35 37  1  0
 37 38  1  0
 37 39  2  0
 39 40  1  0
 39 41  1  0
 41 42  2  0
 42 43  1  0
 43 44  1  0
 44 45  1  0
 45 46  1  0
 45 47  1  0
 45 48  1  0
 48 49  2  0
 49 50  1  0
 49 51  1  0
 51 52  1  0
 51 53  2  0
 53 54  1  0
 53 55  1  0
 55 56  1  0
 55 57  2  0
 57 58  1  0
 44  3  1  0
 57 48  1  0
 24  7  1  0
 43 29  2  0
 20 11  1  0
 41 32  1  0
M  END
>  <UniqueID>  (38) 
126

>  <SMILES>  (38) 
[H]/N=c1/c(C(=O)N2CCc3ccccc3C2)cc2c(=O)n3ccccc3nc2n1Cc1ccccc1

>  <Energy>  (38) 
93.42352053555778

>  <Genealogy>  (38) 
[H]/N=c1/c(C(=O)N2CCc3ccccc3C2)cc2c(=O)n3ccccc3nc2n1Cc1ccccc1 (cis-trans isomerization)
[H]/N=c1/c(C(=O)N2CCc3ccccc3C2)cc2c(=O)n3ccccc3nc2n1Cc1ccccc1 (3D coordinates assigned)
[H]/N=c1/c(C(=O)N2CCc3ccccc3C2)cc2c(=O)n3ccccc3nc2n1Cc1ccccc1 (nonaromatic ring conformer: 93.42352053555778 kcal/mol)

>  <smiles>  (38) 
N=c1c(C(=O)N2CCc3ccccc3C2)cc2c(=O)n3ccccc3nc2n1Cc1ccccc1

>  <score_type>  (38) 
oracle

>  <origin>  (38) 
autodockgpu

>  <m_score__min__energy>  (38) 
-9.2699999999999996

>  <m_primary>  (38) 
energy

>  <meeko>  (38) 
{"free_energy": -9.27, "intermolecular_energy": -10.76, "internal_energy": -1.38, "cluster_size": 14, "cluster_id": 1, "rank_in_cluster": 7}

>  <energy>  (38) 
-8.48

>  <cluster_rmsd>  (38) 
0.06

>  <rmsd>  (38) 
269.25

>  <cluster>  (38) 
3

$$$$
DRTNTVLZUVPGHX-GNVQSUKONA-N
     RDKit          3D

 58 63  0  0  0  0  0  0  0  0999 V2000
  137.8650   74.4700  223.0750 H   0  0  0  0  0  0  0  0  0  0  0  0
  138.2670   73.8850  222.3160 N   0  0  0  0  0  0  0  0  0  0  0  0
  139.5060   73.8530  221.9090 C   0  0  0  0  0  0  0  0  0  0  0  0
  140.1690   75.0870  221.7240 C   0  0  0  0  0  0  0  0  0  0  0  0
  139.5320   76.3840  222.0750 C   0  0  0  0  0  0  0  0  0  0  0  0
  138.5680   76.4010  222.8880 O   0  0  0  0  0  0  0  0  0  0  0  0
  140.0180   77.6230  221.5240 N   0  0  0  0  0  0  0  0  0  0  0  0
  141.4430   77.9630  221.5810 C   0  0  0  0  0  0  0  0  0  0  0  0
  141.8056   78.1724  220.5638 H   0  0  0  0  0  0  0  0  0  0  0  0
  141.9928   77.1144  222.0140 H   0  0  0  0  0  0  0  0  0  0  0  0
  141.6650   79.1780  222.4460 C   0  0  0  0  0  0  0  0  0  0  0  0
  142.9630   79.4820  222.8830 C   0  0  0  0  0  0  0  0  0  0  0  0
  143.7970   78.8124  222.6260 H   0  0  0  0  0  0  0  0  0  0  0  0
  143.2030   80.6290  223.6420 C   0  0  0  0  0  0  0  0  0  0  0  0
  144.2226   80.8556  223.9870 H   0  0  0  0  0  0  0  0  0  0  0  0
  142.1510   81.4890  223.9640 C   0  0  0  0  0  0  0  0  0  0  0  0
  142.3427   82.3900  224.5652 H   0  0  0  0  0  0  0  0  0  0  0  0
  140.8560   81.2070  223.5240 C   0  0  0  0  0  0  0  0  0  0  0  0
  140.0302   81.8847  223.7862 H   0  0  0  0  0  0  0  0  0  0  0  0
  140.6010   80.0640  222.7490 C   0  0  0  0  0  0  0  0  0  0  0  0
  139.1750   79.7560  222.3480 C   0  0  0  0  0  0  0  0  0  0  0  0
  138.6949   80.6852  222.0072 H   0  0  0  0  0  0  0  0  0  0  0  0
  138.6618   79.3370  223.2261 H   0  0  0  0  0  0  0  0  0  0  0  0
  139.0980   78.7210  221.2230 C   0  0  0  0  0  0  0  0  0  0  0  0
  139.3826   79.1902  220.2697 H   0  0  0  0  0  0  0  0  0  0  0  0
  138.0712   78.3348  221.1420 H   0  0  0  0  0  0  0  0  0  0  0  0
  141.4630   75.0970  221.2030 C   0  0  0  0  0  0  0  0  0  0  0  0
  141.9868   76.0534  221.0585 H   0  0  0  0  0  0  0  0  0  0  0  0
  142.0970   73.9010  220.8640 C   0  0  0  0  0  0  0  0  0  0  0  0
  143.3950   73.8770  220.3140 C   0  0  0  0  0  0  0  0  0  0  0  0
  144.0090   74.9640  220.1150 O   0  0  0  0  0  0  0  0  0  0  0  0
  143.9860   72.6790  219.9940 N   0  0  0  0  0  0  0  0  0  0  0  0
  145.2480   72.6390  219.4530 C   0  0  0  0  0  0  0  0  0  0  0  0
  145.7929   73.5782  219.2768 H   0  0  0  0  0  0  0  0  0  0  0  0
  145.8480   71.4230  219.1240 C   0  0  0  0  0  0  0  0  0  0  0  0
  146.8599   71.4035  218.6930 H   0  0  0  0  0  0  0  0  0  0  0  0
  145.1570   70.2340  219.3450 C   0  0  0  0  0  0  0  0  0  0  0  0
  145.6196   69.2698  219.0875 H   0  0  0  0  0  0  0  0  0  0  0  0
  143.8790   70.2720  219.8930 C   0  0  0  0  0  0  0  0  0  0  0  0
  143.3256   69.3384  220.0720 H   0  0  0  0  0  0  0  0  0  0  0  0
  143.3020   71.5050  220.2150 C   0  0  0  0  0  0  0  0  0  0  0  0
  142.0560   71.5280  220.7500 N   0  0  0  0  0  0  0  0  0  0  0  0
  141.4280   72.6860  221.0840 C   0  0  0  0  0  0  0  0  0  0  0  0
  140.1570   72.6620  221.6220 N   0  0  0  0  0  0  0  0  0  0  0  0
  139.5390   71.3360  221.8630 C   0  0  0  0  0  0  0  0  0  0  0  0
  138.4642   71.3937  221.6363 H   0  0  0  0  0  0  0  0  0  0  0  0
  140.0311   70.5971  221.2135 H   0  0  0  0  0  0  0  0  0  0  0  0
  139.7180   70.9080  223.2990 C   0  0  0  0  0  0  0  0  0  0  0  0
  138.9070   69.8950  223.8420 C   0  0  0  0  0  0  0  0  0  0  0  0
  138.1490   69.4053  223.2130 H   0  0  0  0  0  0  0  0  0  0  0  0
  139.0590   69.5070  225.1770 C   0  0  0  0  0  0  0  0  0  0  0  0
  138.4213   68.7140  225.5947 H   0  0  0  0  0  0  0  0  0  0  0  0
  140.0190   70.1250  225.9800 C   0  0  0  0  0  0  0  0  0  0  0  0
  140.1356   69.8210  227.0307 H   0  0  0  0  0  0  0  0  0  0  0  0
  140.8320   71.1300  225.4490 C   0  0  0  0  0  0  0  0  0  0  0  0
  141.5900   71.6144  226.0821 H   0  0  0  0  0  0  0  0  0  0  0  0
  140.6840   71.5210  224.1150 C   0  0  0  0  0  0  0  0  0  0  0  0
  141.3268   72.3124  223.7021 H   0  0  0  0  0  0  0  0  0  0  0  0
  1  2  1  0
  2  3  2  0
  3  4  1  0
  4  5  1  0
  5  6  2  0
  5  7  1  0
  7  8  1  0
  8  9  1  0
  8 10  1  0
  8 11  1  0
 11 12  2  0
 12 13  1  0
 12 14  1  0
 14 15  1  0
 14 16  2  0
 16 17  1  0
 16 18  1  0
 18 19  1  0
 18 20  2  0
 20 21  1  0
 21 22  1  0
 21 23  1  0
 21 24  1  0
 24 25  1  0
 24 26  1  0
  4 27  2  0
 27 28  1  0
 27 29  1  0
 29 30  1  0
 30 31  2  0
 30 32  1  0
 32 33  1  0
 33 34  1  0
 33 35  2  0
 35 36  1  0
 35 37  1  0
 37 38  1  0
 37 39  2  0
 39 40  1  0
 39 41  1  0
 41 42  2  0
 42 43  1  0
 43 44  1  0
 44 45  1  0
 45 46  1  0
 45 47  1  0
 45 48  1  0
 48 49  2  0
 49 50  1  0
 49 51  1  0
 51 52  1  0
 51 53  2  0
 53 54  1  0
 53 55  1  0
 55 56  1  0
 55 57  2  0
 57 58  1  0
 44  3  1  0
 57 48  1  0
 24  7  1  0
 43 29  2  0
 20 11  1  0
 41 32  1  0
M  END
>  <UniqueID>  (39) 
126

>  <SMILES>  (39) 
[H]/N=c1/c(C(=O)N2CCc3ccccc3C2)cc2c(=O)n3ccccc3nc2n1Cc1ccccc1

>  <Energy>  (39) 
93.42352053555778

>  <Genealogy>  (39) 
[H]/N=c1/c(C(=O)N2CCc3ccccc3C2)cc2c(=O)n3ccccc3nc2n1Cc1ccccc1 (cis-trans isomerization)
[H]/N=c1/c(C(=O)N2CCc3ccccc3C2)cc2c(=O)n3ccccc3nc2n1Cc1ccccc1 (3D coordinates assigned)
[H]/N=c1/c(C(=O)N2CCc3ccccc3C2)cc2c(=O)n3ccccc3nc2n1Cc1ccccc1 (nonaromatic ring conformer: 93.42352053555778 kcal/mol)

>  <smiles>  (39) 
N=c1c(C(=O)N2CCc3ccccc3C2)cc2c(=O)n3ccccc3nc2n1Cc1ccccc1

>  <score_type>  (39) 
oracle

>  <origin>  (39) 
autodockgpu

>  <m_score__min__energy>  (39) 
-9.2699999999999996

>  <m_primary>  (39) 
energy

>  <meeko>  (39) 
{"free_energy": -9.27, "intermolecular_energy": -10.76, "internal_energy": -1.37, "cluster_size": 14, "cluster_id": 1, "rank_in_cluster": 3}

>  <energy>  (39) 
-8.24

>  <cluster_rmsd>  (39) 
0.26

>  <rmsd>  (39) 
269.18

>  <cluster>  (39) 
3

$$$$
DRTNTVLZUVPGHX-GNVQSUKONA-N
     RDKit          3D

 58 63  0  0  0  0  0  0  0  0999 V2000
  139.3700   74.3010  222.7620 H   0  0  0  0  0  0  0  0  0  0  0  0
  140.3120   74.2300  222.3270 N   0  0  0  0  0  0  0  0  0  0  0  0
  140.8190   74.9950  221.4010 C   0  0  0  0  0  0  0  0  0  0  0  0
  140.5110   76.3740  221.4450 C   0  0  0  0  0  0  0  0  0  0  0  0
  139.7270   76.9700  222.5590 C   0  0  0  0  0  0  0  0  0  0  0  0
  138.7640   76.3240  223.0550 O   0  0  0  0  0  0  0  0  0  0  0  0
  140.0690   78.2620  223.0980 N   0  0  0  0  0  0  0  0  0  0  0  0
  139.1750   79.4100  222.9190 C   0  0  0  0  0  0  0  0  0  0  0  0
  138.9305   79.8350  223.9037 H   0  0  0  0  0  0  0  0  0  0  0  0
  138.2589   79.0709  222.4132 H   0  0  0  0  0  0  0  0  0  0  0  0
  139.8350   80.4690  222.0720 C   0  0  0  0  0  0  0  0  0  0  0  0
  139.0510   81.4970  221.5260 C   0  0  0  0  0  0  0  0  0  0  0  0
  137.9628   81.4986  221.6866 H   0  0  0  0  0  0  0  0  0  0  0  0
  139.6440   82.5180  220.7800 C   0  0  0  0  0  0  0  0  0  0  0  0
  139.0213   83.3155  220.3484 H   0  0  0  0  0  0  0  0  0  0  0  0
  141.0270   82.5280  220.5810 C   0  0  0  0  0  0  0  0  0  0  0  0
  141.4910   83.3320  219.9909 H   0  0  0  0  0  0  0  0  0  0  0  0
  141.8210   81.5190  221.1300 C   0  0  0  0  0  0  0  0  0  0  0  0
  142.9083   81.5284  220.9638 H   0  0  0  0  0  0  0  0  0  0  0  0
  141.2410   80.4920  221.8930 C   0  0  0  0  0  0  0  0  0  0  0  0
  142.1240   79.3800  222.4150 C   0  0  0  0  0  0  0  0  0  0  0  0
  143.0445   79.8219  222.8241 H   0  0  0  0  0  0  0  0  0  0  0  0
  142.3416   78.7019  221.5767 H   0  0  0  0  0  0  0  0  0  0  0  0
  141.4410   78.5620  223.5130 C   0  0  0  0  0  0  0  0  0  0  0  0
  141.4256   79.1403  224.4486 H   0  0  0  0  0  0  0  0  0  0  0  0
  141.9935   77.6252  223.6777 H   0  0  0  0  0  0  0  0  0  0  0  0
  140.9590   77.2090  220.4210 C   0  0  0  0  0  0  0  0  0  0  0  0
  140.7253   78.2835  220.4500 H   0  0  0  0  0  0  0  0  0  0  0  0
  141.7020   76.6890  219.3600 C   0  0  0  0  0  0  0  0  0  0  0  0
  142.1500   77.5000  218.2980 C   0  0  0  0  0  0  0  0  0  0  0  0
  141.8740   78.7340  218.2950 O   0  0  0  0  0  0  0  0  0  0  0  0
  142.8780   76.9500  217.2710 N   0  0  0  0  0  0  0  0  0  0  0  0
  143.3190   77.7270  216.2270 C   0  0  0  0  0  0  0  0  0  0  0  0
  143.0883   78.8025  216.2154 H   0  0  0  0  0  0  0  0  0  0  0  0
  144.0560   77.1690  215.1810 C   0  0  0  0  0  0  0  0  0  0  0  0
  144.4038   77.8007  214.3503 H   0  0  0  0  0  0  0  0  0  0  0  0
  144.3480   75.8080  215.1960 C   0  0  0  0  0  0  0  0  0  0  0  0
  144.9275   75.3578  214.3765 H   0  0  0  0  0  0  0  0  0  0  0  0
  143.9030   75.0200  216.2530 C   0  0  0  0  0  0  0  0  0  0  0  0
  144.1283   73.9435  216.2734 H   0  0  0  0  0  0  0  0  0  0  0  0
  143.1680   75.6040  217.2890 C   0  0  0  0  0  0  0  0  0  0  0  0
  142.7410   74.8260  218.3140 N   0  0  0  0  0  0  0  0  0  0  0  0
  142.0180   75.3200  219.3530 C   0  0  0  0  0  0  0  0  0  0  0  0
  141.6010   74.4890  220.3730 N   0  0  0  0  0  0  0  0  0  0  0  0
  142.0160   73.0660  220.3110 C   0  0  0  0  0  0  0  0  0  0  0  0
  141.6291   72.5397  221.1961 H   0  0  0  0  0  0  0  0  0  0  0  0
  141.6095   72.6226  219.3901 H   0  0  0  0  0  0  0  0  0  0  0  0
  143.5200   72.9410  220.2810 C   0  0  0  0  0  0  0  0  0  0  0  0
  144.3250   73.9490  220.8420 C   0  0  0  0  0  0  0  0  0  0  0  0
  143.8558   74.8241  221.3153 H   0  0  0  0  0  0  0  0  0  0  0  0
  145.7180   73.8440  220.8010 C   0  0  0  0  0  0  0  0  0  0  0  0
  146.3413   74.6364  221.2410 H   0  0  0  0  0  0  0  0  0  0  0  0
  146.3200   72.7360  220.2030 C   0  0  0  0  0  0  0  0  0  0  0  0
  147.4166   72.6563  220.1702 H   0  0  0  0  0  0  0  0  0  0  0  0
  145.5290   71.7280  219.6460 C   0  0  0  0  0  0  0  0  0  0  0  0
  146.0040   70.8539  219.1766 H   0  0  0  0  0  0  0  0  0  0  0  0
  144.1350   71.8280  219.6840 C   0  0  0  0  0  0  0  0  0  0  0  0
  143.5169   71.0314  219.2443 H   0  0  0  0  0  0  0  0  0  0  0  0
  1  2  1  0
  2  3  2  0
  3  4  1  0
  4  5  1  0
  5  6  2  0
  5  7  1  0
  7  8  1  0
  8  9  1  0
  8 10  1  0
  8 11  1  0
 11 12  2  0
 12 13  1  0
 12 14  1  0
 14 15  1  0
 14 16  2  0
 16 17  1  0
 16 18  1  0
 18 19  1  0
 18 20  2  0
 20 21  1  0
 21 22  1  0
 21 23  1  0
 21 24  1  0
 24 25  1  0
 24 26  1  0
  4 27  2  0
 27 28  1  0
 27 29  1  0
 29 30  1  0
 30 31  2  0
 30 32  1  0
 32 33  1  0
 33 34  1  0
 33 35  2  0
 35 36  1  0
 35 37  1  0
 37 38  1  0
 37 39  2  0
 39 40  1  0
 39 41  1  0
 41 42  2  0
 42 43  1  0
 43 44  1  0
 44 45  1  0
 45 46  1  0
 45 47  1  0
 45 48  1  0
 48 49  2  0
 49 50  1  0
 49 51  1  0
 51 52  1  0
 51 53  2  0
 53 54  1  0
 53 55  1  0
 55 56  1  0
 55 57  2  0
 57 58  1  0
 44  3  1  0
 57 48  1  0
 24  7  1  0
 43 29  2  0
 20 11  1  0
 41 32  1  0
M  END
>  <UniqueID>  (40) 
126

>  <SMILES>  (40) 
[H]/N=c1/c(C(=O)N2CCc3ccccc3C2)cc2c(=O)n3ccccc3nc2n1Cc1ccccc1

>  <Energy>  (40) 
93.42352053555778

>  <Genealogy>  (40) 
[H]/N=c1/c(C(=O)N2CCc3ccccc3C2)cc2c(=O)n3ccccc3nc2n1Cc1ccccc1 (cis-trans isomerization)
[H]/N=c1/c(C(=O)N2CCc3ccccc3C2)cc2c(=O)n3ccccc3nc2n1Cc1ccccc1 (3D coordinates assigned)
[H]/N=c1/c(C(=O)N2CCc3ccccc3C2)cc2c(=O)n3ccccc3nc2n1Cc1ccccc1 (nonaromatic ring conformer: 93.42352053555778 kcal/mol)

>  <smiles>  (40) 
N=c1c(C(=O)N2CCc3ccccc3C2)cc2c(=O)n3ccccc3nc2n1Cc1ccccc1

>  <score_type>  (40) 
oracle

>  <origin>  (40) 
autodockgpu

>  <m_score__min__energy>  (40) 
-9.2699999999999996

>  <m_primary>  (40) 
energy

>  <meeko>  (40) 
{"free_energy": -8.24, "intermolecular_energy": -9.74, "internal_energy": -2.02, "cluster_size": 4, "cluster_id": 3, "rank_in_cluster": 4}

>  <energy>  (40) 
-8.52

>  <cluster_rmsd>  (40) 
0.0

>  <rmsd>  (40) 
269.18

>  <cluster>  (40) 
4

$$$$
DRTNTVLZUVPGHX-GNVQSUKONA-N
     RDKit          3D

 58 63  0  0  0  0  0  0  0  0999 V2000
  137.8630   74.4670  223.0880 H   0  0  0  0  0  0  0  0  0  0  0  0
  138.2570   73.8840  222.3230 N   0  0  0  0  0  0  0  0  0  0  0  0
  139.4940   73.8430  221.9120 C   0  0  0  0  0  0  0  0  0  0  0  0
  140.1640   75.0730  221.7180 C   0  0  0  0  0  0  0  0  0  0  0  0
  139.5360   76.3750  222.0650 C   0  0  0  0  0  0  0  0  0  0  0  0
  138.5700   76.4010  222.8760 O   0  0  0  0  0  0  0  0  0  0  0  0
  140.0310   77.6090  221.5100 N   0  0  0  0  0  0  0  0  0  0  0  0
  141.4600   77.9350  221.5620 C   0  0  0  0  0  0  0  0  0  0  0  0
  141.8217   78.1397  220.5435 H   0  0  0  0  0  0  0  0  0  0  0  0
  142.0035   77.0817  221.9938 H   0  0  0  0  0  0  0  0  0  0  0  0
  141.6950   79.1490  222.4250 C   0  0  0  0  0  0  0  0  0  0  0  0
  142.9980   79.4410  222.8580 C   0  0  0  0  0  0  0  0  0  0  0  0
  143.8245   78.7629  222.5990 H   0  0  0  0  0  0  0  0  0  0  0  0
  143.2520   80.5860  223.6150 C   0  0  0  0  0  0  0  0  0  0  0  0
  144.2750   80.8029  223.9562 H   0  0  0  0  0  0  0  0  0  0  0  0
  142.2090   81.4570  223.9400 C   0  0  0  0  0  0  0  0  0  0  0  0
  142.4115   82.3568  224.5395 H   0  0  0  0  0  0  0  0  0  0  0  0
  140.9100   81.1870  223.5050 C   0  0  0  0  0  0  0  0  0  0  0  0
  140.0919   81.8728  223.7703 H   0  0  0  0  0  0  0  0  0  0  0  0
  140.6400   80.0460  222.7310 C   0  0  0  0  0  0  0  0  0  0  0  0
  139.2100   79.7500  222.3350 C   0  0  0  0  0  0  0  0  0  0  0  0
  138.7368   80.6831  221.9952 H   0  0  0  0  0  0  0  0  0  0  0  0
  138.6964   79.3359  223.2152 H   0  0  0  0  0  0  0  0  0  0  0  0
  139.1200   78.7160  221.2120 C   0  0  0  0  0  0  0  0  0  0  0  0
  139.4057   79.1822  220.2575 H   0  0  0  0  0  0  0  0  0  0  0  0
  138.0894   78.3392  221.1351 H   0  0  0  0  0  0  0  0  0  0  0  0
  141.4560   75.0720  221.1920 C   0  0  0  0  0  0  0  0  0  0  0  0
  141.9846   76.0245  221.0396 H   0  0  0  0  0  0  0  0  0  0  0  0
  142.0820   73.8710  220.8580 C   0  0  0  0  0  0  0  0  0  0  0  0
  143.3780   73.8360  220.3030 C   0  0  0  0  0  0  0  0  0  0  0  0
  143.9970   74.9190  220.0960 O   0  0  0  0  0  0  0  0  0  0  0  0
  143.9600   72.6330  219.9870 N   0  0  0  0  0  0  0  0  0  0  0  0
  145.2210   72.5840  219.4420 C   0  0  0  0  0  0  0  0  0  0  0  0
  145.7709   73.5191  219.2598 H   0  0  0  0  0  0  0  0  0  0  0  0
  145.8120   71.3620  219.1170 C   0  0  0  0  0  0  0  0  0  0  0  0
  146.8219   71.3339  218.6820 H   0  0  0  0  0  0  0  0  0  0  0  0
  145.1150   70.1790  219.3470 C   0  0  0  0  0  0  0  0  0  0  0  0
  145.5712   69.2107  219.0934 H   0  0  0  0  0  0  0  0  0  0  0  0
  143.8390   70.2270  219.8990 C   0  0  0  0  0  0  0  0  0  0  0  0
  143.2810   69.2973  220.0842 H   0  0  0  0  0  0  0  0  0  0  0  0
  143.2700   71.4640  220.2170 C   0  0  0  0  0  0  0  0  0  0  0  0
  142.0270   71.4980  220.7560 N   0  0  0  0  0  0  0  0  0  0  0  0
  141.4060   72.6610  221.0860 C   0  0  0  0  0  0  0  0  0  0  0  0
  140.1370   72.6470  221.6280 N   0  0  0  0  0  0  0  0  0  0  0  0
  139.5120   71.3250  221.8780 C   0  0  0  0  0  0  0  0  0  0  0  0
  138.4347   71.3904  221.6653 H   0  0  0  0  0  0  0  0  0  0  0  0
  139.9897   70.5819  221.2226 H   0  0  0  0  0  0  0  0  0  0  0  0
  139.7070   70.8970  223.3130 C   0  0  0  0  0  0  0  0  0  0  0  0
  138.9040   69.8820  223.8630 C   0  0  0  0  0  0  0  0  0  0  0  0
  138.1408   69.3908  223.2416 H   0  0  0  0  0  0  0  0  0  0  0  0
  139.0710   69.4940  225.1960 C   0  0  0  0  0  0  0  0  0  0  0  0
  138.4392   68.6995  225.6197 H   0  0  0  0  0  0  0  0  0  0  0  0
  140.0380   70.1130  225.9900 C   0  0  0  0  0  0  0  0  0  0  0  0
  140.1662   69.8083  227.0392 H   0  0  0  0  0  0  0  0  0  0  0  0
  140.8430   71.1200  225.4510 C   0  0  0  0  0  0  0  0  0  0  0  0
  141.6068   71.6054  226.0763 H   0  0  0  0  0  0  0  0  0  0  0  0
  140.6800   71.5120  224.1190 C   0  0  0  0  0  0  0  0  0  0  0  0
  141.3163   72.3055  223.7000 H   0  0  0  0  0  0  0  0  0  0  0  0
  1  2  1  0
  2  3  2  0
  3  4  1  0
  4  5  1  0
  5  6  2  0
  5  7  1  0
  7  8  1  0
  8  9  1  0
  8 10  1  0
  8 11  1  0
 11 12  2  0
 12 13  1  0
 12 14  1  0
 14 15  1  0
 14 16  2  0
 16 17  1  0
 16 18  1  0
 18 19  1  0
 18 20  2  0
 20 21  1  0
 21 22  1  0
 21 23  1  0
 21 24  1  0
 24 25  1  0
 24 26  1  0
  4 27  2  0
 27 28  1  0
 27 29  1  0
 29 30  1  0
 30 31  2  0
 30 32  1  0
 32 33  1  0
 33 34  1  0
 33 35  2  0
 35 36  1  0
 35 37  1  0
 37 38  1  0
 37 39  2  0
 39 40  1  0
 39 41  1  0
 41 42  2  0
 42 43  1  0
 43 44  1  0
 44 45  1  0
 45 46  1  0
 45 47  1  0
 45 48  1  0
 48 49  2  0
 49 50  1  0
 49 51  1  0
 51 52  1  0
 51 53  2  0
 53 54  1  0
 53 55  1  0
 55 56  1  0
 55 57  2  0
 57 58  1  0
 44  3  1  0
 57 48  1  0
 24  7  1  0
 43 29  2  0
 20 11  1  0
 41 32  1  0
M  END
>  <UniqueID>  (41) 
127

>  <SMILES>  (41) 
[H]/N=c1/c(C(=O)N2CCc3ccccc3C2)cc2c(=O)n3ccccc3nc2n1Cc1ccccc1

>  <Energy>  (41) 
93.86281617098605

>  <Genealogy>  (41) 
[H]/N=c1/c(C(=O)N2CCc3ccccc3C2)cc2c(=O)n3ccccc3nc2n1Cc1ccccc1 (cis-trans isomerization)
[H]/N=c1/c(C(=O)N2CCc3ccccc3C2)cc2c(=O)n3ccccc3nc2n1Cc1ccccc1 (3D coordinates assigned)
[H]/N=c1/c(C(=O)N2CCc3ccccc3C2)cc2c(=O)n3ccccc3nc2n1Cc1ccccc1 (nonaromatic ring conformer: 93.86281617098605 kcal/mol)

>  <smiles>  (41) 
N=c1c(C(=O)N2CCc3ccccc3C2)cc2c(=O)n3ccccc3nc2n1Cc1ccccc1

>  <score_type>  (41) 
oracle

>  <origin>  (41) 
autodockgpu

>  <m_score__min__energy>  (41) 
-9.2699999999999996

>  <m_primary>  (41) 
energy

>  <meeko>  (41) 
{"free_energy": -9.27, "intermolecular_energy": -10.76, "internal_energy": -1.38, "cluster_size": 14, "cluster_id": 1, "rank_in_cluster": 4}

>  <energy>  (41) 
-9.27

>  <cluster_rmsd>  (41) 
0.0

>  <rmsd>  (41) 
269.73

>  <cluster>  (41) 
1

$$$$
DRTNTVLZUVPGHX-GNVQSUKONA-N
     RDKit          3D

 58 63  0  0  0  0  0  0  0  0999 V2000
  137.8510   74.4580  223.0960 H   0  0  0  0  0  0  0  0  0  0  0  0
  138.2480   73.8700  222.3360 N   0  0  0  0  0  0  0  0  0  0  0  0
  139.4850   73.8310  221.9260 C   0  0  0  0  0  0  0  0  0  0  0  0
  140.1550   75.0620  221.7390 C   0  0  0  0  0  0  0  0  0  0  0  0
  139.5270   76.3620  222.0920 C   0  0  0  0  0  0  0  0  0  0  0  0
  138.5660   76.3850  222.9090 O   0  0  0  0  0  0  0  0  0  0  0  0
  140.0160   77.5990  221.5370 N   0  0  0  0  0  0  0  0  0  0  0  0
  141.4430   77.9310  221.5890 C   0  0  0  0  0  0  0  0  0  0  0  0
  141.8036   78.1372  220.5704 H   0  0  0  0  0  0  0  0  0  0  0  0
  141.9897   77.0799  222.0211 H   0  0  0  0  0  0  0  0  0  0  0  0
  141.6740   79.1460  222.4520 C   0  0  0  0  0  0  0  0  0  0  0  0
  142.9760   79.4440  222.8840 C   0  0  0  0  0  0  0  0  0  0  0  0
  143.8058   78.7702  222.6243 H   0  0  0  0  0  0  0  0  0  0  0  0
  143.2240   80.5900  223.6410 C   0  0  0  0  0  0  0  0  0  0  0  0
  144.2459   80.8115  223.9824 H   0  0  0  0  0  0  0  0  0  0  0  0
  142.1780   81.4560  223.9660 C   0  0  0  0  0  0  0  0  0  0  0  0
  142.3769   82.3570  224.5649 H   0  0  0  0  0  0  0  0  0  0  0  0
  140.8800   81.1800  223.5320 C   0  0  0  0  0  0  0  0  0  0  0  0
  140.0588   81.8618  223.7981 H   0  0  0  0  0  0  0  0  0  0  0  0
  140.6150   80.0380  222.7580 C   0  0  0  0  0  0  0  0  0  0  0  0
  139.1860   79.7360  222.3630 C   0  0  0  0  0  0  0  0  0  0  0  0
  138.7087   80.6670  222.0232 H   0  0  0  0  0  0  0  0  0  0  0  0
  138.6744   79.3201  223.2435 H   0  0  0  0  0  0  0  0  0  0  0  0
  139.1000   78.7010  221.2400 C   0  0  0  0  0  0  0  0  0  0  0  0
  139.3826   79.1684  220.2852 H   0  0  0  0  0  0  0  0  0  0  0  0
  138.0712   78.3192  221.1643 H   0  0  0  0  0  0  0  0  0  0  0  0
  141.4480   75.0650  221.2140 C   0  0  0  0  0  0  0  0  0  0  0  0
  141.9766   76.0184  221.0674 H   0  0  0  0  0  0  0  0  0  0  0  0
  142.0740   73.8650  220.8740 C   0  0  0  0  0  0  0  0  0  0  0  0
  143.3700   73.8340  220.3200 C   0  0  0  0  0  0  0  0  0  0  0  0
  143.9900   74.9180  220.1190 O   0  0  0  0  0  0  0  0  0  0  0  0
  143.9530   72.6330  219.9970 N   0  0  0  0  0  0  0  0  0  0  0  0
  145.2140   72.5870  219.4530 C   0  0  0  0  0  0  0  0  0  0  0  0
  145.7638   73.5232  219.2762 H   0  0  0  0  0  0  0  0  0  0  0  0
  145.8060   71.3670  219.1220 C   0  0  0  0  0  0  0  0  0  0  0  0
  146.8164   71.3417  218.6879 H   0  0  0  0  0  0  0  0  0  0  0  0
  145.1090   70.1820  219.3450 C   0  0  0  0  0  0  0  0  0  0  0  0
  145.5658   69.2152  219.0868 H   0  0  0  0  0  0  0  0  0  0  0  0
  143.8320   70.2270  219.8960 C   0  0  0  0  0  0  0  0  0  0  0  0
  143.2737   69.2964  220.0755 H   0  0  0  0  0  0  0  0  0  0  0  0
  143.2630   71.4620  220.2200 C   0  0  0  0  0  0  0  0  0  0  0  0
  142.0190   71.4930  220.7590 N   0  0  0  0  0  0  0  0  0  0  0  0
  141.3980   72.6540  221.0950 C   0  0  0  0  0  0  0  0  0  0  0  0
  140.1290   72.6370  221.6360 N   0  0  0  0  0  0  0  0  0  0  0  0
  139.5040   71.3140  221.8790 C   0  0  0  0  0  0  0  0  0  0  0  0
  138.4341   71.3705  221.6297 H   0  0  0  0  0  0  0  0  0  0  0  0
  140.0081   70.5673  221.2479 H   0  0  0  0  0  0  0  0  0  0  0  0
  139.6530   70.9020  223.3230 C   0  0  0  0  0  0  0  0  0  0  0  0
  140.6410   71.4950  224.1300 C   0  0  0  0  0  0  0  0  0  0  0  0
  141.2982   72.2704  223.7094 H   0  0  0  0  0  0  0  0  0  0  0  0
  140.7920   71.1040  225.4640 C   0  0  0  0  0  0  0  0  0  0  0  0
  141.5660   71.5731  226.0891 H   0  0  0  0  0  0  0  0  0  0  0  0
  139.9630   70.1200  226.0040 C   0  0  0  0  0  0  0  0  0  0  0  0
  140.0855   69.8115  227.0527 H   0  0  0  0  0  0  0  0  0  0  0  0
  138.9770   69.5270  225.2110 C   0  0  0  0  0  0  0  0  0  0  0  0
  138.3217   68.7534  225.6378 H   0  0  0  0  0  0  0  0  0  0  0  0
  138.8210   69.9140  223.8770 C   0  0  0  0  0  0  0  0  0  0  0  0
  138.0433   69.4430  223.2578 H   0  0  0  0  0  0  0  0  0  0  0  0
  1  2  1  0
  2  3  2  0
  3  4  1  0
  4  5  1  0
  5  6  2  0
  5  7  1  0
  7  8  1  0
  8  9  1  0
  8 10  1  0
  8 11  1  0
 11 12  2  0
 12 13  1  0
 12 14  1  0
 14 15  1  0
 14 16  2  0
 16 17  1  0
 16 18  1  0
 18 19  1  0
 18 20  2  0
 20 21  1  0
 21 22  1  0
 21 23  1  0
 21 24  1  0
 24 25  1  0
 24 26  1  0
  4 27  2  0
 27 28  1  0
 27 29  1  0
 29 30  1  0
 30 31  2  0
 30 32  1  0
 32 33  1  0
 33 34  1  0
 33 35  2  0
 35 36  1  0
 35 37  1  0
 37 38  1  0
 37 39  2  0
 39 40  1  0
 39 41  1  0
 41 42  2  0
 42 43  1  0
 43 44  1  0
 44 45  1  0
 45 46  1  0
 45 47  1  0
 45 48  1  0
 48 49  2  0
 49 50  1  0
 49 51  1  0
 51 52  1  0
 51 53  2  0
 53 54  1  0
 53 55  1  0
 55 56  1  0
 55 57  2  0
 57 58  1  0
 44  3  1  0
 57 48  1  0
 24  7  1  0
 43 29  2  0
 20 11  1  0
 41 32  1  0
M  END
>  <UniqueID>  (42) 
127

>  <SMILES>  (42) 
[H]/N=c1/c(C(=O)N2CCc3ccccc3C2)cc2c(=O)n3ccccc3nc2n1Cc1ccccc1

>  <Energy>  (42) 
93.86281617098605

>  <Genealogy>  (42) 
[H]/N=c1/c(C(=O)N2CCc3ccccc3C2)cc2c(=O)n3ccccc3nc2n1Cc1ccccc1 (cis-trans isomerization)
[H]/N=c1/c(C(=O)N2CCc3ccccc3C2)cc2c(=O)n3ccccc3nc2n1Cc1ccccc1 (3D coordinates assigned)
[H]/N=c1/c(C(=O)N2CCc3ccccc3C2)cc2c(=O)n3ccccc3nc2n1Cc1ccccc1 (nonaromatic ring conformer: 93.86281617098605 kcal/mol)

>  <smiles>  (42) 
N=c1c(C(=O)N2CCc3ccccc3C2)cc2c(=O)n3ccccc3nc2n1Cc1ccccc1

>  <score_type>  (42) 
oracle

>  <origin>  (42) 
autodockgpu

>  <m_score__min__energy>  (42) 
-9.2699999999999996

>  <m_primary>  (42) 
energy

>  <meeko>  (42) 
{"free_energy": -9.27, "intermolecular_energy": -10.76, "internal_energy": -1.37, "cluster_size": 14, "cluster_id": 1, "rank_in_cluster": 1}

>  <energy>  (42) 
-9.27

>  <cluster_rmsd>  (42) 
0.03

>  <rmsd>  (42) 
269.72

>  <cluster>  (42) 
1

$$$$
DRTNTVLZUVPGHX-GNVQSUKONA-N
     RDKit          3D

 58 63  0  0  0  0  0  0  0  0999 V2000
  138.4140   72.6310  220.8070 H   0  0  0  0  0  0  0  0  0  0  0  0
  137.5920   72.2250  221.2970 N   0  0  0  0  0  0  0  0  0  0  0  0
  136.9580   72.7140  222.3260 C   0  0  0  0  0  0  0  0  0  0  0  0
  136.5990   71.8220  223.3620 C   0  0  0  0  0  0  0  0  0  0  0  0
  137.0130   70.3940  223.3510 C   0  0  0  0  0  0  0  0  0  0  0  0
  136.1810   69.5100  223.0090 O   0  0  0  0  0  0  0  0  0  0  0  0
  138.3580   70.0090  223.6980 N   0  0  0  0  0  0  0  0  0  0  0  0
  138.6270   69.2410  224.9170 C   0  0  0  0  0  0  0  0  0  0  0  0
  139.1730   68.3233  224.6531 H   0  0  0  0  0  0  0  0  0  0  0  0
  137.6695   68.9892  225.3963 H   0  0  0  0  0  0  0  0  0  0  0  0
  139.4560   70.0510  225.8820 C   0  0  0  0  0  0  0  0  0  0  0  0
  139.5610   69.6310  227.2170 C   0  0  0  0  0  0  0  0  0  0  0  0
  139.0090   68.7417  227.5551 H   0  0  0  0  0  0  0  0  0  0  0  0
  140.3620   70.3350  228.1190 C   0  0  0  0  0  0  0  0  0  0  0  0
  140.4322   70.0038  229.1656 H   0  0  0  0  0  0  0  0  0  0  0  0
  141.0740   71.4590  227.6940 C   0  0  0  0  0  0  0  0  0  0  0  0
  141.7019   72.0133  228.4071 H   0  0  0  0  0  0  0  0  0  0  0  0
  140.9900   71.8800  226.3660 C   0  0  0  0  0  0  0  0  0  0  0  0
  141.5477   72.7702  226.0395 H   0  0  0  0  0  0  0  0  0  0  0  0
  140.1990   71.1760  225.4430 C   0  0  0  0  0  0  0  0  0  0  0  0
  140.0790   71.7010  224.0290 C   0  0  0  0  0  0  0  0  0  0  0  0
  141.0776   71.9984  223.6763 H   0  0  0  0  0  0  0  0  0  0  0  0
  139.3872   72.5560  224.0454 H   0  0  0  0  0  0  0  0  0  0  0  0
  139.5090   70.6570  223.0680 C   0  0  0  0  0  0  0  0  0  0  0  0
  140.2785   69.9041  222.8424 H   0  0  0  0  0  0  0  0  0  0  0  0
  139.1959   71.1440  222.1327 H   0  0  0  0  0  0  0  0  0  0  0  0
  135.8400   72.2890  224.4350 C   0  0  0  0  0  0  0  0  0  0  0  0
  135.5590   71.6015  225.2464 H   0  0  0  0  0  0  0  0  0  0  0  0
  135.4350   73.6240  224.4850 C   0  0  0  0  0  0  0  0  0  0  0  0
  134.6480   74.1230  225.5430 C   0  0  0  0  0  0  0  0  0  0  0  0
  134.2910   73.3480  226.4760 O   0  0  0  0  0  0  0  0  0  0  0  0
  134.2690   75.4440  225.5560 N   0  0  0  0  0  0  0  0  0  0  0  0
  133.4990   75.9440  226.5780 C   0  0  0  0  0  0  0  0  0  0  0  0
  133.1851   75.2795  227.3965 H   0  0  0  0  0  0  0  0  0  0  0  0
  133.1100   77.2840  226.5910 C   0  0  0  0  0  0  0  0  0  0  0  0
  132.4939   77.6736  227.4148 H   0  0  0  0  0  0  0  0  0  0  0  0
  133.5070   78.1250  225.5540 C   0  0  0  0  0  0  0  0  0  0  0  0
  133.2053   79.1828  225.5536 H   0  0  0  0  0  0  0  0  0  0  0  0
  134.2870   77.6200  224.5190 C   0  0  0  0  0  0  0  0  0  0  0  0
  134.6056   78.2762  223.6957 H   0  0  0  0  0  0  0  0  0  0  0  0
  134.6640   76.2730  224.5310 C   0  0  0  0  0  0  0  0  0  0  0  0
  135.4260   75.7940  223.5180 N   0  0  0  0  0  0  0  0  0  0  0  0
  135.8280   74.4970  223.4570 C   0  0  0  0  0  0  0  0  0  0  0  0
  136.5990   74.0520  222.4030 N   0  0  0  0  0  0  0  0  0  0  0  0
  137.0070   75.0480  221.3830 C   0  0  0  0  0  0  0  0  0  0  0  0
  137.1227   74.5426  220.4129 H   0  0  0  0  0  0  0  0  0  0  0  0
  136.2312   75.8255  221.3225 H   0  0  0  0  0  0  0  0  0  0  0  0
  138.3150   75.7020  221.7580 C   0  0  0  0  0  0  0  0  0  0  0  0
  139.5280   75.0120  221.5830 C   0  0  0  0  0  0  0  0  0  0  0  0
  139.5234   73.9972  221.1586 H   0  0  0  0  0  0  0  0  0  0  0  0
  140.7390   75.6080  221.9450 C   0  0  0  0  0  0  0  0  0  0  0  0
  141.6834   75.0614  221.8058 H   0  0  0  0  0  0  0  0  0  0  0  0
  140.7520   76.8960  222.4830 C   0  0  0  0  0  0  0  0  0  0  0  0
  141.7058   77.3634  222.7690 H   0  0  0  0  0  0  0  0  0  0  0  0
  139.5530   77.5910  222.6580 C   0  0  0  0  0  0  0  0  0  0  0  0
  139.5642   78.6067  223.0802 H   0  0  0  0  0  0  0  0  0  0  0  0
  138.3390   76.9990  222.2980 C   0  0  0  0  0  0  0  0  0  0  0  0
  137.3980   77.5511  222.4381 H   0  0  0  0  0  0  0  0  0  0  0  0
  1  2  1  0
  2  3  2  0
  3  4  1  0
  4  5  1  0
  5  6  2  0
  5  7  1  0
  7  8  1  0
  8  9  1  0
  8 10  1  0
  8 11  1  0
 11 12  2  0
 12 13  1  0
 12 14  1  0
 14 15  1  0
 14 16  2  0
 16 17  1  0
 16 18  1  0
 18 19  1  0
 18 20  2  0
 20 21  1  0
 21 22  1  0
 21 23  1  0
 21 24  1  0
 24 25  1  0
 24 26  1  0
  4 27  2  0
 27 28  1  0
 27 29  1  0
 29 30  1  0
 30 31  2  0
 30 32  1  0
 32 33  1  0
 33 34  1  0
 33 35  2  0
 35 36  1  0
 35 37  1  0
 37 38  1  0
 37 39  2  0
 39 40  1  0
 39 41  1  0
 41 42  2  0
 42 43  1  0
 43 44  1  0
 44 45  1  0
 45 46  1  0
 45 47  1  0
 45 48  1  0
 48 49  2  0
 49 50  1  0
 49 51  1  0
 51 52  1  0
 51 53  2  0
 53 54  1  0
 53 55  1  0
 55 56  1  0
 55 57  2  0
 57 58  1  0
 44  3  1  0
 57 48  1  0
 24  7  1  0
 43 29  2  0
 20 11  1  0
 41 32  1  0
M  END
>  <UniqueID>  (43) 
127

>  <SMILES>  (43) 
[H]/N=c1/c(C(=O)N2CCc3ccccc3C2)cc2c(=O)n3ccccc3nc2n1Cc1ccccc1

>  <Energy>  (43) 
93.86281617098605

>  <Genealogy>  (43) 
[H]/N=c1/c(C(=O)N2CCc3ccccc3C2)cc2c(=O)n3ccccc3nc2n1Cc1ccccc1 (cis-trans isomerization)
[H]/N=c1/c(C(=O)N2CCc3ccccc3C2)cc2c(=O)n3ccccc3nc2n1Cc1ccccc1 (3D coordinates assigned)
[H]/N=c1/c(C(=O)N2CCc3ccccc3C2)cc2c(=O)n3ccccc3nc2n1Cc1ccccc1 (nonaromatic ring conformer: 93.86281617098605 kcal/mol)

>  <smiles>  (43) 
N=c1c(C(=O)N2CCc3ccccc3C2)cc2c(=O)n3ccccc3nc2n1Cc1ccccc1

>  <score_type>  (43) 
oracle

>  <origin>  (43) 
autodockgpu

>  <m_score__min__energy>  (43) 
-9.2699999999999996

>  <m_primary>  (43) 
energy

>  <meeko>  (43) 
{"free_energy": -8.52, "intermolecular_energy": -10.01, "internal_energy": -1.49, "cluster_size": 1, "cluster_id": 4, "rank_in_cluster": 1}

>  <energy>  (43) 
-9.27

>  <cluster_rmsd>  (43) 
0.05

>  <rmsd>  (43) 
269.73

>  <cluster>  (43) 
1

$$$$
DRTNTVLZUVPGHX-GNVQSUKONA-N
     RDKit          3D

 58 63  0  0  0  0  0  0  0  0999 V2000
  137.8530   74.4760  223.0950 H   0  0  0  0  0  0  0  0  0  0  0  0
  138.2430   73.9200  222.3080 N   0  0  0  0  0  0  0  0  0  0  0  0
  139.4810   73.8790  221.9010 C   0  0  0  0  0  0  0  0  0  0  0  0
  140.1540   75.1080  221.7150 C   0  0  0  0  0  0  0  0  0  0  0  0
  139.5270   76.4090  222.0680 C   0  0  0  0  0  0  0  0  0  0  0  0
  138.5610   76.4330  222.8780 O   0  0  0  0  0  0  0  0  0  0  0  0
  140.0250   77.6450  221.5200 N   0  0  0  0  0  0  0  0  0  0  0  0
  141.4510   77.9790  221.5940 C   0  0  0  0  0  0  0  0  0  0  0  0
  141.8272   78.1845  220.5810 H   0  0  0  0  0  0  0  0  0  0  0  0
  141.9919   77.1290  222.0356 H   0  0  0  0  0  0  0  0  0  0  0  0
  141.6670   79.1950  222.4590 C   0  0  0  0  0  0  0  0  0  0  0  0
  142.9610   79.4940  222.9120 C   0  0  0  0  0  0  0  0  0  0  0  0
  143.7950   78.8201  222.6666 H   0  0  0  0  0  0  0  0  0  0  0  0
  143.1970   80.6410  223.6720 C   0  0  0  0  0  0  0  0  0  0  0  0
  144.2132   80.8631  224.0297 H   0  0  0  0  0  0  0  0  0  0  0  0
  142.1450   81.5070  223.9790 C   0  0  0  0  0  0  0  0  0  0  0  0
  142.3337   82.4093  224.5793 H   0  0  0  0  0  0  0  0  0  0  0  0
  140.8540   81.2290  223.5250 C   0  0  0  0  0  0  0  0  0  0  0  0
  140.0278   81.9097  223.7780 H   0  0  0  0  0  0  0  0  0  0  0  0
  140.6030   80.0870  222.7480 C   0  0  0  0  0  0  0  0  0  0  0  0
  139.1810   79.7830  222.3300 C   0  0  0  0  0  0  0  0  0  0  0  0
  138.7083   80.7134  221.9821 H   0  0  0  0  0  0  0  0  0  0  0  0
  138.6564   79.3666  223.2025 H   0  0  0  0  0  0  0  0  0  0  0  0
  139.1130   78.7470  221.2060 C   0  0  0  0  0  0  0  0  0  0  0  0
  139.4112   79.2135  220.2555 H   0  0  0  0  0  0  0  0  0  0  0  0
  138.0856   78.3652  221.1130 H   0  0  0  0  0  0  0  0  0  0  0  0
  141.4470   75.1080  221.1930 C   0  0  0  0  0  0  0  0  0  0  0  0
  141.9776   76.0606  221.0476 H   0  0  0  0  0  0  0  0  0  0  0  0
  142.0720   73.9080  220.8540 C   0  0  0  0  0  0  0  0  0  0  0  0
  143.3690   73.8740  220.3030 C   0  0  0  0  0  0  0  0  0  0  0  0
  143.9920   74.9560  220.1040 O   0  0  0  0  0  0  0  0  0  0  0  0
  143.9510   72.6710  219.9820 N   0  0  0  0  0  0  0  0  0  0  0  0
  145.2130   72.6230  219.4410 C   0  0  0  0  0  0  0  0  0  0  0  0
  145.7654   73.5581  219.2664 H   0  0  0  0  0  0  0  0  0  0  0  0
  145.8030   71.4010  219.1100 C   0  0  0  0  0  0  0  0  0  0  0  0
  146.8138   71.3734  218.6769 H   0  0  0  0  0  0  0  0  0  0  0  0
  145.1030   70.2180  219.3320 C   0  0  0  0  0  0  0  0  0  0  0  0
  145.5582   69.2501  219.0753 H   0  0  0  0  0  0  0  0  0  0  0  0
  143.8250   70.2660  219.8800 C   0  0  0  0  0  0  0  0  0  0  0  0
  143.2641   69.3366  220.0580 H   0  0  0  0  0  0  0  0  0  0  0  0
  143.2580   71.5020  220.2030 C   0  0  0  0  0  0  0  0  0  0  0  0
  142.0130   71.5350  220.7390 N   0  0  0  0  0  0  0  0  0  0  0  0
  141.3940   72.6980  221.0740 C   0  0  0  0  0  0  0  0  0  0  0  0
  140.1230   72.6830  221.6120 N   0  0  0  0  0  0  0  0  0  0  0  0
  139.4950   71.3610  221.8530 C   0  0  0  0  0  0  0  0  0  0  0  0
  138.4204   71.4268  221.6272 H   0  0  0  0  0  0  0  0  0  0  0  0
  139.9810   70.6187  221.2028 H   0  0  0  0  0  0  0  0  0  0  0  0
  139.6720   70.9310  223.2890 C   0  0  0  0  0  0  0  0  0  0  0  0
  140.6780   71.5120  224.0820 C   0  0  0  0  0  0  0  0  0  0  0  0
  141.3287   72.2904  223.6569 H   0  0  0  0  0  0  0  0  0  0  0  0
  140.8550   71.1050  225.4080 C   0  0  0  0  0  0  0  0  0  0  0  0
  141.6433   71.5641  226.0227 H   0  0  0  0  0  0  0  0  0  0  0  0
  140.0330   70.1170  225.9530 C   0  0  0  0  0  0  0  0  0  0  0  0
  140.1757   69.7960  226.9954 H   0  0  0  0  0  0  0  0  0  0  0  0
  139.0290   69.5360  225.1740 C   0  0  0  0  0  0  0  0  0  0  0  0
  138.3804   68.7591  225.6050 H   0  0  0  0  0  0  0  0  0  0  0  0
  138.8470   69.9400  223.8480 C   0  0  0  0  0  0  0  0  0  0  0  0
  138.0544   69.4801  223.2394 H   0  0  0  0  0  0  0  0  0  0  0  0
  1  2  1  0
  2  3  2  0
  3  4  1  0
  4  5  1  0
  5  6  2  0
  5  7  1  0
  7  8  1  0
  8  9  1  0
  8 10  1  0
  8 11  1  0
 11 12  2  0
 12 13  1  0
 12 14  1  0
 14 15  1  0
 14 16  2  0
 16 17  1  0
 16 18  1  0
 18 19  1  0
 18 20  2  0
 20 21  1  0
 21 22  1  0
 21 23  1  0
 21 24  1  0
 24 25  1  0
 24 26  1  0
  4 27  2  0
 27 28  1  0
 27 29  1  0
 29 30  1  0
 30 31  2  0
 30 32  1  0
 32 33  1  0
 33 34  1  0
 33 35  2  0
 35 36  1  0
 35 37  1  0
 37 38  1  0
 37 39  2  0
 39 40  1  0
 39 41  1  0
 41 42  2  0
 42 43  1  0
 43 44  1  0
 44 45  1  0
 45 46  1  0
 45 47  1  0
 45 48  1  0
 48 49  2  0
 49 50  1  0
 49 51  1  0
 51 52  1  0
 51 53  2  0
 53 54  1  0
 53 55  1  0
 55 56  1  0
 55 57  2  0
 57 58  1  0
 44  3  1  0
 57 48  1  0
 24  7  1  0
 43 29  2  0
 20 11  1  0
 41 32  1  0
M  END
>  <UniqueID>  (44) 
127

>  <SMILES>  (44) 
[H]/N=c1/c(C(=O)N2CCc3ccccc3C2)cc2c(=O)n3ccccc3nc2n1Cc1ccccc1

>  <Energy>  (44) 
93.86281617098605

>  <Genealogy>  (44) 
[H]/N=c1/c(C(=O)N2CCc3ccccc3C2)cc2c(=O)n3ccccc3nc2n1Cc1ccccc1 (cis-trans isomerization)
[H]/N=c1/c(C(=O)N2CCc3ccccc3C2)cc2c(=O)n3ccccc3nc2n1Cc1ccccc1 (3D coordinates assigned)
[H]/N=c1/c(C(=O)N2CCc3ccccc3C2)cc2c(=O)n3ccccc3nc2n1Cc1ccccc1 (nonaromatic ring conformer: 93.86281617098605 kcal/mol)

>  <smiles>  (44) 
N=c1c(C(=O)N2CCc3ccccc3C2)cc2c(=O)n3ccccc3nc2n1Cc1ccccc1

>  <score_type>  (44) 
oracle

>  <origin>  (44) 
autodockgpu

>  <m_score__min__energy>  (44) 
-9.2699999999999996

>  <m_primary>  (44) 
energy

>  <meeko>  (44) 
{"free_energy": -9.26, "intermolecular_energy": -10.75, "internal_energy": -1.38, "cluster_size": 14, "cluster_id": 1, "rank_in_cluster": 11}

>  <energy>  (44) 
-9.27

>  <cluster_rmsd>  (44) 
0.04

>  <rmsd>  (44) 
269.72

>  <cluster>  (44) 
1

$$$$
DRTNTVLZUVPGHX-GNVQSUKONA-N
     RDKit          3D

 58 63  0  0  0  0  0  0  0  0999 V2000
  137.8520   74.4510  223.0800 H   0  0  0  0  0  0  0  0  0  0  0  0
  138.2510   73.8850  222.3040 N   0  0  0  0  0  0  0  0  0  0  0  0
  139.4910   73.8500  221.9030 C   0  0  0  0  0  0  0  0  0  0  0  0
  140.1590   75.0830  221.7220 C   0  0  0  0  0  0  0  0  0  0  0  0
  139.5250   76.3810  222.0740 C   0  0  0  0  0  0  0  0  0  0  0  0
  138.5590   76.4000  222.8840 O   0  0  0  0  0  0  0  0  0  0  0  0
  140.0160   77.6190  221.5240 N   0  0  0  0  0  0  0  0  0  0  0  0
  141.4410   77.9560  221.5890 C   0  0  0  0  0  0  0  0  0  0  0  0
  141.8100   78.1639  220.5738 H   0  0  0  0  0  0  0  0  0  0  0  0
  141.9868   77.1066  222.0257 H   0  0  0  0  0  0  0  0  0  0  0  0
  141.6600   79.1720  222.4550 C   0  0  0  0  0  0  0  0  0  0  0  0
  142.9560   79.4730  222.8990 C   0  0  0  0  0  0  0  0  0  0  0  0
  143.7900   78.8018  222.6464 H   0  0  0  0  0  0  0  0  0  0  0  0
  143.1940   80.6200  223.6600 C   0  0  0  0  0  0  0  0  0  0  0  0
  144.2121   80.8445  224.0109 H   0  0  0  0  0  0  0  0  0  0  0  0
  142.1420   81.4820  223.9760 C   0  0  0  0  0  0  0  0  0  0  0  0
  142.3323   82.3832  224.5773 H   0  0  0  0  0  0  0  0  0  0  0  0
  140.8490   81.2020  223.5300 C   0  0  0  0  0  0  0  0  0  0  0  0
  140.0231   81.8808  223.7891 H   0  0  0  0  0  0  0  0  0  0  0  0
  140.5950   80.0600  222.7530 C   0  0  0  0  0  0  0  0  0  0  0  0
  139.1710   79.7530  222.3440 C   0  0  0  0  0  0  0  0  0  0  0  0
  138.6935   80.6826  222.0008 H   0  0  0  0  0  0  0  0  0  0  0  0
  138.6529   79.3339  223.2192 H   0  0  0  0  0  0  0  0  0  0  0  0
  139.0990   78.7190  221.2190 C   0  0  0  0  0  0  0  0  0  0  0  0
  139.3894   79.1883  220.2674 H   0  0  0  0  0  0  0  0  0  0  0  0
  138.0721   78.3341  221.1328 H   0  0  0  0  0  0  0  0  0  0  0  0
  141.4550   75.0890  221.2070 C   0  0  0  0  0  0  0  0  0  0  0  0
  141.9827   76.0440  221.0671 H   0  0  0  0  0  0  0  0  0  0  0  0
  142.0870   73.8920  220.8680 C   0  0  0  0  0  0  0  0  0  0  0  0
  143.3870   73.8650  220.3230 C   0  0  0  0  0  0  0  0  0  0  0  0
  144.0050   74.9500  220.1290 O   0  0  0  0  0  0  0  0  0  0  0  0
  143.9750   72.6650  220.0030 N   0  0  0  0  0  0  0  0  0  0  0  0
  145.2400   72.6230  219.4680 C   0  0  0  0  0  0  0  0  0  0  0  0
  145.7891   73.5608  219.2976 H   0  0  0  0  0  0  0  0  0  0  0  0
  145.8370   71.4050  219.1380 C   0  0  0  0  0  0  0  0  0  0  0  0
  146.8499   71.3827  218.7096 H   0  0  0  0  0  0  0  0  0  0  0  0
  145.1410   70.2180  219.3550 C   0  0  0  0  0  0  0  0  0  0  0  0
  145.6020   69.2526  219.0990 H   0  0  0  0  0  0  0  0  0  0  0  0
  143.8600   70.2590  219.8970 C   0  0  0  0  0  0  0  0  0  0  0  0
  143.3025   69.3269  220.0711 H   0  0  0  0  0  0  0  0  0  0  0  0
  143.2860   71.4930  220.2190 C   0  0  0  0  0  0  0  0  0  0  0  0
  142.0380   71.5190  220.7490 N   0  0  0  0  0  0  0  0  0  0  0  0
  141.4130   72.6790  221.0830 C   0  0  0  0  0  0  0  0  0  0  0  0
  140.1400   72.6570  221.6150 N   0  0  0  0  0  0  0  0  0  0  0  0
  139.5160   71.3330  221.8510 C   0  0  0  0  0  0  0  0  0  0  0  0
  138.4420   71.3956  221.6218 H   0  0  0  0  0  0  0  0  0  0  0  0
  140.0064   70.5936  221.2008 H   0  0  0  0  0  0  0  0  0  0  0  0
  139.6900   70.9010  223.2870 C   0  0  0  0  0  0  0  0  0  0  0  0
  138.8770   69.8860  223.8240 C   0  0  0  0  0  0  0  0  0  0  0  0
  138.1214   69.3981  223.1907 H   0  0  0  0  0  0  0  0  0  0  0  0
  139.0240   69.4940  225.1580 C   0  0  0  0  0  0  0  0  0  0  0  0
  138.3850   68.6994  225.5707 H   0  0  0  0  0  0  0  0  0  0  0  0
  139.9810   70.1100  225.9670 C   0  0  0  0  0  0  0  0  0  0  0  0
  140.0945   69.8024  227.0170 H   0  0  0  0  0  0  0  0  0  0  0  0
  140.7940   71.1170  225.4420 C   0  0  0  0  0  0  0  0  0  0  0  0
  141.5485   71.6007  226.0798 H   0  0  0  0  0  0  0  0  0  0  0  0
  140.6520   71.5120  224.1090 C   0  0  0  0  0  0  0  0  0  0  0  0
  141.2963   72.3049  223.7014 H   0  0  0  0  0  0  0  0  0  0  0  0
  1  2  1  0
  2  3  2  0
  3  4  1  0
  4  5  1  0
  5  6  2  0
  5  7  1  0
  7  8  1  0
  8  9  1  0
  8 10  1  0
  8 11  1  0
 11 12  2  0
 12 13  1  0
 12 14  1  0
 14 15  1  0
 14 16  2  0
 16 17  1  0
 16 18  1  0
 18 19  1  0
 18 20  2  0
 20 21  1  0
 21 22  1  0
 21 23  1  0
 21 24  1  0
 24 25  1  0
 24 26  1  0
  4 27  2  0
 27 28  1  0
 27 29  1  0
 29 30  1  0
 30 31  2  0
 30 32  1  0
 32 33  1  0
 33 34  1  0
 33 35  2  0
 35 36  1  0
 35 37  1  0
 37 38  1  0
 37 39  2  0
 39 40  1  0
 39 41  1  0
 41 42  2  0
 42 43  1  0
 43 44  1  0
 44 45  1  0
 45 46  1  0
 45 47  1  0
 45 48  1  0
 48 49  2  0
 49 50  1  0
 49 51  1  0
 51 52  1  0
 51 53  2  0
 53 54  1  0
 53 55  1  0
 55 56  1  0
 55 57  2  0
 57 58  1  0
 44  3  1  0
 57 48  1  0
 24  7  1  0
 43 29  2  0
 20 11  1  0
 41 32  1  0
M  END
>  <UniqueID>  (45) 
127

>  <SMILES>  (45) 
[H]/N=c1/c(C(=O)N2CCc3ccccc3C2)cc2c(=O)n3ccccc3nc2n1Cc1ccccc1

>  <Energy>  (45) 
93.86281617098605

>  <Genealogy>  (45) 
[H]/N=c1/c(C(=O)N2CCc3ccccc3C2)cc2c(=O)n3ccccc3nc2n1Cc1ccccc1 (cis-trans isomerization)
[H]/N=c1/c(C(=O)N2CCc3ccccc3C2)cc2c(=O)n3ccccc3nc2n1Cc1ccccc1 (3D coordinates assigned)
[H]/N=c1/c(C(=O)N2CCc3ccccc3C2)cc2c(=O)n3ccccc3nc2n1Cc1ccccc1 (nonaromatic ring conformer: 93.86281617098605 kcal/mol)

>  <smiles>  (45) 
N=c1c(C(=O)N2CCc3ccccc3C2)cc2c(=O)n3ccccc3nc2n1Cc1ccccc1

>  <score_type>  (45) 
oracle

>  <origin>  (45) 
autodockgpu

>  <m_score__min__energy>  (45) 
-9.2699999999999996

>  <m_primary>  (45) 
energy

>  <meeko>  (45) 
{"free_energy": -9.26, "intermolecular_energy": -10.75, "internal_energy": -1.37, "cluster_size": 14, "cluster_id": 1, "rank_in_cluster": 9}

>  <energy>  (45) 
-9.27

>  <cluster_rmsd>  (45) 
0.04

>  <rmsd>  (45) 
269.72

>  <cluster>  (45) 
1

$$$$
DRTNTVLZUVPGHX-GNVQSUKONA-N
     RDKit          3D

 58 63  0  0  0  0  0  0  0  0999 V2000
  139.5420   74.6170  223.0410 H   0  0  0  0  0  0  0  0  0  0  0  0
  140.2590   74.3450  222.3390 N   0  0  0  0  0  0  0  0  0  0  0  0
  140.7700   75.0870  221.3970 C   0  0  0  0  0  0  0  0  0  0  0  0
  140.4550   76.4650  221.4010 C   0  0  0  0  0  0  0  0  0  0  0  0
  139.6590   77.0870  222.4910 C   0  0  0  0  0  0  0  0  0  0  0  0
  138.5780   76.5500  222.8540 O   0  0  0  0  0  0  0  0  0  0  0  0
  140.1180   78.2800  223.1570 N   0  0  0  0  0  0  0  0  0  0  0  0
  139.2700   79.4730  223.2300 C   0  0  0  0  0  0  0  0  0  0  0  0
  139.1498   79.7670  224.2831 H   0  0  0  0  0  0  0  0  0  0  0  0
  138.2912   79.2397  222.7856 H   0  0  0  0  0  0  0  0  0  0  0  0
  139.8910   80.6140  222.4650 C   0  0  0  0  0  0  0  0  0  0  0  0
  139.1080   81.7350  222.1480 C   0  0  0  0  0  0  0  0  0  0  0  0
  138.0433   81.7537  222.4238 H   0  0  0  0  0  0  0  0  0  0  0  0
  139.6720   82.8260  221.4850 C   0  0  0  0  0  0  0  0  0  0  0  0
  139.0493   83.6972  221.2335 H   0  0  0  0  0  0  0  0  0  0  0  0
  141.0260   82.8140  221.1400 C   0  0  0  0  0  0  0  0  0  0  0  0
  141.4667   83.6742  220.6147 H   0  0  0  0  0  0  0  0  0  0  0  0
  141.8200   81.7120  221.4610 C   0  0  0  0  0  0  0  0  0  0  0  0
  142.8836   81.7053  221.1804 H   0  0  0  0  0  0  0  0  0  0  0  0
  141.2710   80.6110  222.1400 C   0  0  0  0  0  0  0  0  0  0  0  0
  142.1460   79.4070  222.4110 C   0  0  0  0  0  0  0  0  0  0  0  0
  143.1244   79.7553  222.7735 H   0  0  0  0  0  0  0  0  0  0  0  0
  142.2427   78.8434  221.4713 H   0  0  0  0  0  0  0  0  0  0  0  0
  141.5390   78.4710  223.4570 C   0  0  0  0  0  0  0  0  0  0  0  0
  141.6485   78.9151  224.4574 H   0  0  0  0  0  0  0  0  0  0  0  0
  142.0578   77.5013  223.4344 H   0  0  0  0  0  0  0  0  0  0  0  0
  140.9090   77.2730  220.3580 C   0  0  0  0  0  0  0  0  0  0  0  0
  140.6709   78.3469  220.3556 H   0  0  0  0  0  0  0  0  0  0  0  0
  141.6630   76.7280  219.3180 C   0  0  0  0  0  0  0  0  0  0  0  0
  142.1160   77.5120  218.2380 C   0  0  0  0  0  0  0  0  0  0  0  0
  141.8350   78.7440  218.1990 O   0  0  0  0  0  0  0  0  0  0  0  0
  142.8560   76.9380  217.2330 N   0  0  0  0  0  0  0  0  0  0  0  0
  143.3020   77.6890  216.1720 C   0  0  0  0  0  0  0  0  0  0  0  0
  143.0660   78.7625  216.1290 H   0  0  0  0  0  0  0  0  0  0  0  0
  144.0510   77.1060  215.1480 C   0  0  0  0  0  0  0  0  0  0  0  0
  144.4033   77.7163  214.3034 H   0  0  0  0  0  0  0  0  0  0  0  0
  144.3490   75.7470  215.2030 C   0  0  0  0  0  0  0  0  0  0  0  0
  144.9376   75.2777  214.4010 H   0  0  0  0  0  0  0  0  0  0  0  0
  143.8990   74.9850  216.2770 C   0  0  0  0  0  0  0  0  0  0  0  0
  144.1292   73.9106  216.3289 H   0  0  0  0  0  0  0  0  0  0  0  0
  143.1520   75.5950  217.2900 C   0  0  0  0  0  0  0  0  0  0  0  0
  142.7200   74.8430  218.3320 N   0  0  0  0  0  0  0  0  0  0  0  0
  141.9860   75.3620  219.3520 C   0  0  0  0  0  0  0  0  0  0  0  0
  141.5640   74.5560  220.3900 N   0  0  0  0  0  0  0  0  0  0  0  0
  141.9850   73.1350  220.3710 C   0  0  0  0  0  0  0  0  0  0  0  0
  141.6175   72.6389  221.2814 H   0  0  0  0  0  0  0  0  0  0  0  0
  141.5636   72.6571  219.4743 H   0  0  0  0  0  0  0  0  0  0  0  0
  143.4890   73.0160  220.3170 C   0  0  0  0  0  0  0  0  0  0  0  0
  144.0900   71.8820  219.7420 C   0  0  0  0  0  0  0  0  0  0  0  0
  143.4607   71.0853  219.3187 H   0  0  0  0  0  0  0  0  0  0  0  0
  145.4820   71.7610  219.7050 C   0  0  0  0  0  0  0  0  0  0  0  0
  145.9443   70.8711  219.2529 H   0  0  0  0  0  0  0  0  0  0  0  0
  146.2860   72.7680  220.2410 C   0  0  0  0  0  0  0  0  0  0  0  0
  147.3813   72.6704  220.2131 H   0  0  0  0  0  0  0  0  0  0  0  0
  145.7000   73.9000  220.8130 C   0  0  0  0  0  0  0  0  0  0  0  0
  146.3350   74.6937  221.2335 H   0  0  0  0  0  0  0  0  0  0  0  0
  144.3080   74.0260  220.8520 C   0  0  0  0  0  0  0  0  0  0  0  0
  143.8515   74.9193  221.3033 H   0  0  0  0  0  0  0  0  0  0  0  0
  1  2  1  0
  2  3  2  0
  3  4  1  0
  4  5  1  0
  5  6  2  0
  5  7  1  0
  7  8  1  0
  8  9  1  0
  8 10  1  0
  8 11  1  0
 11 12  2  0
 12 13  1  0
 12 14  1  0
 14 15  1  0
 14 16  2  0
 16 17  1  0
 16 18  1  0
 18 19  1  0
 18 20  2  0
 20 21  1  0
 21 22  1  0
 21 23  1  0
 21 24  1  0
 24 25  1  0
 24 26  1  0
  4 27  2  0
 27 28  1  0
 27 29  1  0
 29 30  1  0
 30 31  2  0
 30 32  1  0
 32 33  1  0
 33 34  1  0
 33 35  2  0
 35 36  1  0
 35 37  1  0
 37 38  1  0
 37 39  2  0
 39 40  1  0
 39 41  1  0
 41 42  2  0
 42 43  1  0
 43 44  1  0
 44 45  1  0
 45 46  1  0
 45 47  1  0
 45 48  1  0
 48 49  2  0
 49 50  1  0
 49 51  1  0
 51 52  1  0
 51 53  2  0
 53 54  1  0
 53 55  1  0
 55 56  1  0
 55 57  2  0
 57 58  1  0
 44  3  1  0
 57 48  1  0
 24  7  1  0
 43 29  2  0
 20 11  1  0
 41 32  1  0
M  END
>  <UniqueID>  (46) 
127

>  <SMILES>  (46) 
[H]/N=c1/c(C(=O)N2CCc3ccccc3C2)cc2c(=O)n3ccccc3nc2n1Cc1ccccc1

>  <Energy>  (46) 
93.86281617098605

>  <Genealogy>  (46) 
[H]/N=c1/c(C(=O)N2CCc3ccccc3C2)cc2c(=O)n3ccccc3nc2n1Cc1ccccc1 (cis-trans isomerization)
[H]/N=c1/c(C(=O)N2CCc3ccccc3C2)cc2c(=O)n3ccccc3nc2n1Cc1ccccc1 (3D coordinates assigned)
[H]/N=c1/c(C(=O)N2CCc3ccccc3C2)cc2c(=O)n3ccccc3nc2n1Cc1ccccc1 (nonaromatic ring conformer: 93.86281617098605 kcal/mol)

>  <smiles>  (46) 
N=c1c(C(=O)N2CCc3ccccc3C2)cc2c(=O)n3ccccc3nc2n1Cc1ccccc1

>  <score_type>  (46) 
oracle

>  <origin>  (46) 
autodockgpu

>  <m_score__min__energy>  (46) 
-9.2699999999999996

>  <m_primary>  (46) 
energy

>  <meeko>  (46) 
{"free_energy": -8.53, "intermolecular_energy": -10.02, "internal_energy": -1.92, "cluster_size": 4, "cluster_id": 3, "rank_in_cluster": 1}

>  <energy>  (46) 
-9.27

>  <cluster_rmsd>  (46) 
0.03

>  <rmsd>  (46) 
269.72

>  <cluster>  (46) 
1

$$$$
DRTNTVLZUVPGHX-GNVQSUKONA-N
     RDKit          3D

 58 63  0  0  0  0  0  0  0  0999 V2000
  140.7550   70.9230  220.0270 H   0  0  0  0  0  0  0  0  0  0  0  0
  141.2660   71.8260  219.9540 N   0  0  0  0  0  0  0  0  0  0  0  0
  140.9590   72.9610  220.5180 C   0  0  0  0  0  0  0  0  0  0  0  0
  139.9780   72.9440  221.5370 C   0  0  0  0  0  0  0  0  0  0  0  0
  139.3830   71.6770  222.0370 C   0  0  0  0  0  0  0  0  0  0  0  0
  139.1870   70.7250  221.2330 O   0  0  0  0  0  0  0  0  0  0  0  0
  139.0530   71.5110  223.4290 N   0  0  0  0  0  0  0  0  0  0  0  0
  140.1010   71.5080  224.4540 C   0  0  0  0  0  0  0  0  0  0  0  0
  139.8726   72.2769  225.2067 H   0  0  0  0  0  0  0  0  0  0  0  0
  141.0673   71.7208  223.9735 H   0  0  0  0  0  0  0  0  0  0  0  0
  140.1800   70.1620  225.1290 C   0  0  0  0  0  0  0  0  0  0  0  0
  141.3040   69.8500  225.9080 C   0  0  0  0  0  0  0  0  0  0  0  0
  142.1314   70.5705  225.9870 H   0  0  0  0  0  0  0  0  0  0  0  0
  141.3790   68.6300  226.5840 C   0  0  0  0  0  0  0  0  0  0  0  0
  142.2677   68.3897  227.1860 H   0  0  0  0  0  0  0  0  0  0  0  0
  140.3280   67.7150  226.4970 C   0  0  0  0  0  0  0  0  0  0  0  0
  140.3911   66.7543  227.0290 H   0  0  0  0  0  0  0  0  0  0  0  0
  139.1970   68.0170  225.7360 C   0  0  0  0  0  0  0  0  0  0  0  0
  138.3759   67.2885  225.6646 H   0  0  0  0  0  0  0  0  0  0  0  0
  139.1010   69.2450  225.0610 C   0  0  0  0  0  0  0  0  0  0  0  0
  137.8900   69.5090  224.1920 C   0  0  0  0  0  0  0  0  0  0  0  0
  136.9887   69.1869  224.7341 H   0  0  0  0  0  0  0  0  0  0  0  0
  138.0185   68.9460  223.2558 H   0  0  0  0  0  0  0  0  0  0  0  0
  137.7450   70.9890  223.8320 C   0  0  0  0  0  0  0  0  0  0  0  0
  137.3783   71.5472  224.7061 H   0  0  0  0  0  0  0  0  0  0  0  0
  137.0283   71.1024  223.0053 H   0  0  0  0  0  0  0  0  0  0  0  0
  139.5570   74.1490  222.1000 C   0  0  0  0  0  0  0  0  0  0  0  0
  138.7969   74.1446  222.8951 H   0  0  0  0  0  0  0  0  0  0  0  0
  140.0940   75.3600  221.6610 C   0  0  0  0  0  0  0  0  0  0  0  0
  139.6740   76.5960  222.1920 C   0  0  0  0  0  0  0  0  0  0  0  0
  138.7830   76.6200  223.0890 O   0  0  0  0  0  0  0  0  0  0  0  0
  140.2270   77.7670  221.7340 N   0  0  0  0  0  0  0  0  0  0  0  0
  139.8250   78.9800  222.2400 C   0  0  0  0  0  0  0  0  0  0  0  0
  139.0538   79.0128  223.0237 H   0  0  0  0  0  0  0  0  0  0  0  0
  140.3830   80.1710  221.7720 C   0  0  0  0  0  0  0  0  0  0  0  0
  140.0532   81.1365  222.1832 H   0  0  0  0  0  0  0  0  0  0  0  0
  141.3600   80.1280  220.7810 C   0  0  0  0  0  0  0  0  0  0  0  0
  141.8067   81.0603  220.4051 H   0  0  0  0  0  0  0  0  0  0  0  0
  141.7690   78.9010  220.2680 C   0  0  0  0  0  0  0  0  0  0  0  0
  142.5397   78.8579  219.4844 H   0  0  0  0  0  0  0  0  0  0  0  0
  141.1940   77.7230  220.7550 C   0  0  0  0  0  0  0  0  0  0  0  0
  141.6020   76.5330  220.2490 N   0  0  0  0  0  0  0  0  0  0  0  0
  141.0870   75.3470  220.6680 C   0  0  0  0  0  0  0  0  0  0  0  0
  141.5300   74.1610  220.1200 N   0  0  0  0  0  0  0  0  0  0  0  0
  142.6120   74.2330  219.1090 C   0  0  0  0  0  0  0  0  0  0  0  0
  142.3150   73.6533  218.2226 H   0  0  0  0  0  0  0  0  0  0  0  0
  142.7735   75.2882  218.8435 H   0  0  0  0  0  0  0  0  0  0  0  0
  143.9030   73.6720  219.6560 C   0  0  0  0  0  0  0  0  0  0  0  0
  144.6860   74.4340  220.5410 C   0  0  0  0  0  0  0  0  0  0  0  0
  144.3498   75.4364  220.8448 H   0  0  0  0  0  0  0  0  0  0  0  0
  145.8900   73.9240  221.0370 C   0  0  0  0  0  0  0  0  0  0  0  0
  146.4975   74.5255  221.7293 H   0  0  0  0  0  0  0  0  0  0  0  0
  146.3220   72.6530  220.6550 C   0  0  0  0  0  0  0  0  0  0  0  0
  147.2705   72.2543  221.0440 H   0  0  0  0  0  0  0  0  0  0  0  0
  145.5490   71.8870  219.7780 C   0  0  0  0  0  0  0  0  0  0  0  0
  145.8891   70.8845  219.4792 H   0  0  0  0  0  0  0  0  0  0  0  0
  144.3450   72.3920  219.2800 C   0  0  0  0  0  0  0  0  0  0  0  0
  143.7403   71.7848  218.5904 H   0  0  0  0  0  0  0  0  0  0  0  0
  1  2  1  0
  2  3  2  0
  3  4  1  0
  4  5  1  0
  5  6  2  0
  5  7  1  0
  7  8  1  0
  8  9  1  0
  8 10  1  0
  8 11  1  0
 11 12  2  0
 12 13  1  0
 12 14  1  0
 14 15  1  0
 14 16  2  0
 16 17  1  0
 16 18  1  0
 18 19  1  0
 18 20  2  0
 20 21  1  0
 21 22  1  0
 21 23  1  0
 21 24  1  0
 24 25  1  0
 24 26  1  0
  4 27  2  0
 27 28  1  0
 27 29  1  0
 29 30  1  0
 30 31  2  0
 30 32  1  0
 32 33  1  0
 33 34  1  0
 33 35  2  0
 35 36  1  0
 35 37  1  0
 37 38  1  0
 37 39  2  0
 39 40  1  0
 39 41  1  0
 41 42  2  0
 42 43  1  0
 43 44  1  0
 44 45  1  0
 45 46  1  0
 45 47  1  0
 45 48  1  0
 48 49  2  0
 49 50  1  0
 49 51  1  0
 51 52  1  0
 51 53  2  0
 53 54  1  0
 53 55  1  0
 55 56  1  0
 55 57  2  0
 57 58  1  0
 44  3  1  0
 57 48  1  0
 24  7  1  0
 43 29  2  0
 20 11  1  0
 41 32  1  0
M  END
>  <UniqueID>  (47) 
127

>  <SMILES>  (47) 
[H]/N=c1/c(C(=O)N2CCc3ccccc3C2)cc2c(=O)n3ccccc3nc2n1Cc1ccccc1

>  <Energy>  (47) 
93.86281617098605

>  <Genealogy>  (47) 
[H]/N=c1/c(C(=O)N2CCc3ccccc3C2)cc2c(=O)n3ccccc3nc2n1Cc1ccccc1 (cis-trans isomerization)
[H]/N=c1/c(C(=O)N2CCc3ccccc3C2)cc2c(=O)n3ccccc3nc2n1Cc1ccccc1 (3D coordinates assigned)
[H]/N=c1/c(C(=O)N2CCc3ccccc3C2)cc2c(=O)n3ccccc3nc2n1Cc1ccccc1 (nonaromatic ring conformer: 93.86281617098605 kcal/mol)

>  <smiles>  (47) 
N=c1c(C(=O)N2CCc3ccccc3C2)cc2c(=O)n3ccccc3nc2n1Cc1ccccc1

>  <score_type>  (47) 
oracle

>  <origin>  (47) 
autodockgpu

>  <m_score__min__energy>  (47) 
-9.2699999999999996

>  <m_primary>  (47) 
energy

>  <meeko>  (47) 
{"free_energy": -8.62, "intermolecular_energy": -10.11, "internal_energy": -1.59, "cluster_size": 1, "cluster_id": 2, "rank_in_cluster": 1}

>  <energy>  (47) 
-9.27

>  <cluster_rmsd>  (47) 
0.04

>  <rmsd>  (47) 
269.72

>  <cluster>  (47) 
1

$$$$
DRTNTVLZUVPGHX-GNVQSUKONA-N
     RDKit          3D

 58 63  0  0  0  0  0  0  0  0999 V2000
  137.8570   74.4600  223.0810 H   0  0  0  0  0  0  0  0  0  0  0  0
  138.2560   73.8740  222.3210 N   0  0  0  0  0  0  0  0  0  0  0  0
  139.4930   73.8380  221.9120 C   0  0  0  0  0  0  0  0  0  0  0  0
  140.1610   75.0700  221.7250 C   0  0  0  0  0  0  0  0  0  0  0  0
  139.5300   76.3690  222.0780 C   0  0  0  0  0  0  0  0  0  0  0  0
  138.5720   76.3900  222.8980 O   0  0  0  0  0  0  0  0  0  0  0  0
  140.0130   77.6050  221.5170 N   0  0  0  0  0  0  0  0  0  0  0  0
  141.4400   77.9390  221.5540 C   0  0  0  0  0  0  0  0  0  0  0  0
  141.7897   78.1455  220.5317 H   0  0  0  0  0  0  0  0  0  0  0  0
  141.9925   77.0887  221.9804 H   0  0  0  0  0  0  0  0  0  0  0  0
  141.6780   79.1540  222.4140 C   0  0  0  0  0  0  0  0  0  0  0  0
  142.9840   79.4530  222.8330 C   0  0  0  0  0  0  0  0  0  0  0  0
  143.8115   78.7795  222.5656 H   0  0  0  0  0  0  0  0  0  0  0  0
  143.2390   80.6000  223.5870 C   0  0  0  0  0  0  0  0  0  0  0  0
  144.2640   80.8222  223.9187 H   0  0  0  0  0  0  0  0  0  0  0  0
  142.1950   81.4660  223.9210 C   0  0  0  0  0  0  0  0  0  0  0  0
  142.3991   82.3679  224.5168 H   0  0  0  0  0  0  0  0  0  0  0  0
  140.8930   81.1890  223.5000 C   0  0  0  0  0  0  0  0  0  0  0  0
  140.0739   81.8705  223.7732 H   0  0  0  0  0  0  0  0  0  0  0  0
  140.6220   80.0460  222.7300 C   0  0  0  0  0  0  0  0  0  0  0  0
  139.1900   79.7420  222.3490 C   0  0  0  0  0  0  0  0  0  0  0  0
  138.7083   80.6725  222.0141 H   0  0  0  0  0  0  0  0  0  0  0  0
  138.6883   79.3250  223.2347 H   0  0  0  0  0  0  0  0  0  0  0  0
  139.0930   78.7070  221.2270 C   0  0  0  0  0  0  0  0  0  0  0  0
  139.3665   79.1739  220.2693 H   0  0  0  0  0  0  0  0  0  0  0  0
  138.0636   78.3252  221.1603 H   0  0  0  0  0  0  0  0  0  0  0  0
  141.4540   75.0740  221.2020 C   0  0  0  0  0  0  0  0  0  0  0  0
  141.9812   76.0283  221.0559 H   0  0  0  0  0  0  0  0  0  0  0  0
  142.0830   73.8760  220.8630 C   0  0  0  0  0  0  0  0  0  0  0  0
  143.3800   73.8470  220.3100 C   0  0  0  0  0  0  0  0  0  0  0  0
  143.9980   74.9320  220.1100 O   0  0  0  0  0  0  0  0  0  0  0  0
  143.9660   72.6460  219.9890 N   0  0  0  0  0  0  0  0  0  0  0  0
  145.2270   72.6020  219.4470 C   0  0  0  0  0  0  0  0  0  0  0  0
  145.7752   73.5392  219.2706 H   0  0  0  0  0  0  0  0  0  0  0  0
  145.8220   71.3830  219.1170 C   0  0  0  0  0  0  0  0  0  0  0  0
  146.8328   71.3595  218.6838 H   0  0  0  0  0  0  0  0  0  0  0  0
  145.1270   70.1970  219.3400 C   0  0  0  0  0  0  0  0  0  0  0  0
  145.5860   69.2308  219.0834 H   0  0  0  0  0  0  0  0  0  0  0  0
  143.8490   70.2400  219.8890 C   0  0  0  0  0  0  0  0  0  0  0  0
  143.2916   69.3087  220.0677 H   0  0  0  0  0  0  0  0  0  0  0  0
  143.2780   71.4750  220.2120 C   0  0  0  0  0  0  0  0  0  0  0  0
  142.0330   71.5030  220.7490 N   0  0  0  0  0  0  0  0  0  0  0  0
  141.4100   72.6640  221.0840 C   0  0  0  0  0  0  0  0  0  0  0  0
  140.1400   72.6440  221.6230 N   0  0  0  0  0  0  0  0  0  0  0  0
  139.5170   71.3200  221.8660 C   0  0  0  0  0  0  0  0  0  0  0  0
  138.4426   71.3809  221.6381 H   0  0  0  0  0  0  0  0  0  0  0  0
  140.0074   70.5782  221.2184 H   0  0  0  0  0  0  0  0  0  0  0  0
  139.6930   70.8940  223.3030 C   0  0  0  0  0  0  0  0  0  0  0  0
  138.8800   69.8820  223.8460 C   0  0  0  0  0  0  0  0  0  0  0  0
  138.1225   69.3921  223.2166 H   0  0  0  0  0  0  0  0  0  0  0  0
  139.0300   69.4960  225.1810 C   0  0  0  0  0  0  0  0  0  0  0  0
  138.3912   68.7037  225.5983 H   0  0  0  0  0  0  0  0  0  0  0  0
  139.9890   70.1140  225.9860 C   0  0  0  0  0  0  0  0  0  0  0  0
  140.1041   69.8106  227.0370 H   0  0  0  0  0  0  0  0  0  0  0  0
  140.8020   71.1180  225.4550 C   0  0  0  0  0  0  0  0  0  0  0  0
  141.5587   71.6034  226.0889 H   0  0  0  0  0  0  0  0  0  0  0  0
  140.6570   71.5080  224.1200 C   0  0  0  0  0  0  0  0  0  0  0  0
  141.3006   72.2991  223.7077 H   0  0  0  0  0  0  0  0  0  0  0  0
  1  2  1  0
  2  3  2  0
  3  4  1  0
  4  5  1  0
  5  6  2  0
  5  7  1  0
  7  8  1  0
  8  9  1  0
  8 10  1  0
  8 11  1  0
 11 12  2  0
 12 13  1  0
 12 14  1  0
 14 15  1  0
 14 16  2  0
 16 17  1  0
 16 18  1  0
 18 19  1  0
 18 20  2  0
 20 21  1  0
 21 22  1  0
 21 23  1  0
 21 24  1  0
 24 25  1  0
 24 26  1  0
  4 27  2  0
 27 28  1  0
 27 29  1  0
 29 30  1  0
 30 31  2  0
 30 32  1  0
 32 33  1  0
 33 34  1  0
 33 35  2  0
 35 36  1  0
 35 37  1  0
 37 38  1  0
 37 39  2  0
 39 40  1  0
 39 41  1  0
 41 42  2  0
 42 43  1  0
 43 44  1  0
 44 45  1  0
 45 46  1  0
 45 47  1  0
 45 48  1  0
 48 49  2  0
 49 50  1  0
 49 51  1  0
 51 52  1  0
 51 53  2  0
 53 54  1  0
 53 55  1  0
 55 56  1  0
 55 57  2  0
 57 58  1  0
 44  3  1  0
 57 48  1  0
 24  7  1  0
 43 29  2  0
 20 11  1  0
 41 32  1  0
M  END
>  <UniqueID>  (48) 
127

>  <SMILES>  (48) 
[H]/N=c1/c(C(=O)N2CCc3ccccc3C2)cc2c(=O)n3ccccc3nc2n1Cc1ccccc1

>  <Energy>  (48) 
93.86281617098605

>  <Genealogy>  (48) 
[H]/N=c1/c(C(=O)N2CCc3ccccc3C2)cc2c(=O)n3ccccc3nc2n1Cc1ccccc1 (cis-trans isomerization)
[H]/N=c1/c(C(=O)N2CCc3ccccc3C2)cc2c(=O)n3ccccc3nc2n1Cc1ccccc1 (3D coordinates assigned)
[H]/N=c1/c(C(=O)N2CCc3ccccc3C2)cc2c(=O)n3ccccc3nc2n1Cc1ccccc1 (nonaromatic ring conformer: 93.86281617098605 kcal/mol)

>  <smiles>  (48) 
N=c1c(C(=O)N2CCc3ccccc3C2)cc2c(=O)n3ccccc3nc2n1Cc1ccccc1

>  <score_type>  (48) 
oracle

>  <origin>  (48) 
autodockgpu

>  <m_score__min__energy>  (48) 
-9.2699999999999996

>  <m_primary>  (48) 
energy

>  <meeko>  (48) 
{"free_energy": -9.27, "intermolecular_energy": -10.76, "internal_energy": -1.37, "cluster_size": 14, "cluster_id": 1, "rank_in_cluster": 2}

>  <energy>  (48) 
-9.26

>  <cluster_rmsd>  (48) 
0.04

>  <rmsd>  (48) 
269.73

>  <cluster>  (48) 
1

$$$$
DRTNTVLZUVPGHX-GNVQSUKONA-N
     RDKit          3D

 58 63  0  0  0  0  0  0  0  0999 V2000
  137.8540   74.4640  223.0880 H   0  0  0  0  0  0  0  0  0  0  0  0
  138.2530   73.8710  222.3330 N   0  0  0  0  0  0  0  0  0  0  0  0
  139.4900   73.8320  221.9230 C   0  0  0  0  0  0  0  0  0  0  0  0
  140.1600   75.0630  221.7360 C   0  0  0  0  0  0  0  0  0  0  0  0
  139.5310   76.3630  222.0900 C   0  0  0  0  0  0  0  0  0  0  0  0
  138.5730   76.3860  222.9100 O   0  0  0  0  0  0  0  0  0  0  0  0
  140.0180   77.5990  221.5320 N   0  0  0  0  0  0  0  0  0  0  0  0
  141.4430   77.9380  221.5870 C   0  0  0  0  0  0  0  0  0  0  0  0
  141.8057   78.1417  220.5687 H   0  0  0  0  0  0  0  0  0  0  0  0
  141.9922   77.0912  222.0244 H   0  0  0  0  0  0  0  0  0  0  0  0
  141.6660   79.1580  222.4460 C   0  0  0  0  0  0  0  0  0  0  0  0
  142.9650   79.4620  222.8810 C   0  0  0  0  0  0  0  0  0  0  0  0
  143.7981   78.7902  222.6269 H   0  0  0  0  0  0  0  0  0  0  0  0
  143.2060   80.6130  223.6350 C   0  0  0  0  0  0  0  0  0  0  0  0
  144.2258   80.8401  223.9790 H   0  0  0  0  0  0  0  0  0  0  0  0
  142.1550   81.4760  223.9530 C   0  0  0  0  0  0  0  0  0  0  0  0
  142.3477   82.3803  224.5489 H   0  0  0  0  0  0  0  0  0  0  0  0
  140.8590   81.1920  223.5150 C   0  0  0  0  0  0  0  0  0  0  0  0
  140.0337   81.8711  223.7752 H   0  0  0  0  0  0  0  0  0  0  0  0
  140.6020   80.0460  222.7450 C   0  0  0  0  0  0  0  0  0  0  0  0
  139.1760   79.7370  222.3460 C   0  0  0  0  0  0  0  0  0  0  0  0
  138.6965   80.6648  222.0005 H   0  0  0  0  0  0  0  0  0  0  0  0
  138.6627   79.3228  223.2263 H   0  0  0  0  0  0  0  0  0  0  0  0
  139.0980   78.6970  221.2270 C   0  0  0  0  0  0  0  0  0  0  0  0
  139.3821   79.1615  220.2712 H   0  0  0  0  0  0  0  0  0  0  0  0
  138.0710   78.3108  221.1493 H   0  0  0  0  0  0  0  0  0  0  0  0
  141.4520   75.0660  221.2110 C   0  0  0  0  0  0  0  0  0  0  0  0
  141.9802   76.0197  221.0648 H   0  0  0  0  0  0  0  0  0  0  0  0
  142.0790   73.8670  220.8700 C   0  0  0  0  0  0  0  0  0  0  0  0
  143.3750   73.8360  220.3160 C   0  0  0  0  0  0  0  0  0  0  0  0
  143.9940   74.9200  220.1160 O   0  0  0  0  0  0  0  0  0  0  0  0
  143.9580   72.6350  219.9930 N   0  0  0  0  0  0  0  0  0  0  0  0
  145.2190   72.5890  219.4490 C   0  0  0  0  0  0  0  0  0  0  0  0
  145.7688   73.5252  219.2722 H   0  0  0  0  0  0  0  0  0  0  0  0
  145.8110   71.3690  219.1180 C   0  0  0  0  0  0  0  0  0  0  0  0
  146.8217   71.3438  218.6845 H   0  0  0  0  0  0  0  0  0  0  0  0
  145.1140   70.1840  219.3400 C   0  0  0  0  0  0  0  0  0  0  0  0
  145.5702   69.2173  219.0802 H   0  0  0  0  0  0  0  0  0  0  0  0
  143.8380   70.2290  219.8920 C   0  0  0  0  0  0  0  0  0  0  0  0
  143.2801   69.2983  220.0725 H   0  0  0  0  0  0  0  0  0  0  0  0
  143.2690   71.4640  220.2160 C   0  0  0  0  0  0  0  0  0  0  0  0
  142.0240   71.4940  220.7550 N   0  0  0  0  0  0  0  0  0  0  0  0
  141.4040   72.6560  221.0910 C   0  0  0  0  0  0  0  0  0  0  0  0
  140.1340   72.6380  221.6320 N   0  0  0  0  0  0  0  0  0  0  0  0
  139.5090   71.3150  221.8750 C   0  0  0  0  0  0  0  0  0  0  0  0
  138.4343   71.3782  221.6493 H   0  0  0  0  0  0  0  0  0  0  0  0
  139.9968   70.5730  221.2257 H   0  0  0  0  0  0  0  0  0  0  0  0
  139.6870   70.8870  223.3110 C   0  0  0  0  0  0  0  0  0  0  0  0
  138.8660   69.8830  223.8570 C   0  0  0  0  0  0  0  0  0  0  0  0
  138.1016   69.4002  223.2304 H   0  0  0  0  0  0  0  0  0  0  0  0
  139.0170   69.4960  225.1920 C   0  0  0  0  0  0  0  0  0  0  0  0
  138.3719   68.7102  225.6121 H   0  0  0  0  0  0  0  0  0  0  0  0
  139.9850   70.1050  225.9930 C   0  0  0  0  0  0  0  0  0  0  0  0
  140.1005   69.8010  227.0438 H   0  0  0  0  0  0  0  0  0  0  0  0
  140.8070   71.1010  225.4590 C   0  0  0  0  0  0  0  0  0  0  0  0
  141.5714   71.5783  226.0898 H   0  0  0  0  0  0  0  0  0  0  0  0
  140.6600   71.4920  224.1250 C   0  0  0  0  0  0  0  0  0  0  0  0
  141.3092   72.2772  223.7102 H   0  0  0  0  0  0  0  0  0  0  0  0
  1  2  1  0
  2  3  2  0
  3  4  1  0
  4  5  1  0
  5  6  2  0
  5  7  1  0
  7  8  1  0
  8  9  1  0
  8 10  1  0
  8 11  1  0
 11 12  2  0
 12 13  1  0
 12 14  1  0
 14 15  1  0
 14 16  2  0
 16 17  1  0
 16 18  1  0
 18 19  1  0
 18 20  2  0
 20 21  1  0
 21 22  1  0
 21 23  1  0
 21 24  1  0
 24 25  1  0
 24 26  1  0
  4 27  2  0
 27 28  1  0
 27 29  1  0
 29 30  1  0
 30 31  2  0
 30 32  1  0
 32 33  1  0
 33 34  1  0
 33 35  2  0
 35 36  1  0
 35 37  1  0
 37 38  1  0
 37 39  2  0
 39 40  1  0
 39 41  1  0
 41 42  2  0
 42 43  1  0
 43 44  1  0
 44 45  1  0
 45 46  1  0
 45 47  1  0
 45 48  1  0
 48 49  2  0
 49 50  1  0
 49 51  1  0
 51 52  1  0
 51 53  2  0
 53 54  1  0
 53 55  1  0
 55 56  1  0
 55 57  2  0
 57 58  1  0
 44  3  1  0
 57 48  1  0
 24  7  1  0
 43 29  2  0
 20 11  1  0
 41 32  1  0
M  END
>  <UniqueID>  (49) 
127

>  <SMILES>  (49) 
[H]/N=c1/c(C(=O)N2CCc3ccccc3C2)cc2c(=O)n3ccccc3nc2n1Cc1ccccc1

>  <Energy>  (49) 
93.86281617098605

>  <Genealogy>  (49) 
[H]/N=c1/c(C(=O)N2CCc3ccccc3C2)cc2c(=O)n3ccccc3nc2n1Cc1ccccc1 (cis-trans isomerization)
[H]/N=c1/c(C(=O)N2CCc3ccccc3C2)cc2c(=O)n3ccccc3nc2n1Cc1ccccc1 (3D coordinates assigned)
[H]/N=c1/c(C(=O)N2CCc3ccccc3C2)cc2c(=O)n3ccccc3nc2n1Cc1ccccc1 (nonaromatic ring conformer: 93.86281617098605 kcal/mol)

>  <smiles>  (49) 
N=c1c(C(=O)N2CCc3ccccc3C2)cc2c(=O)n3ccccc3nc2n1Cc1ccccc1

>  <score_type>  (49) 
oracle

>  <origin>  (49) 
autodockgpu

>  <m_score__min__energy>  (49) 
-9.2699999999999996

>  <m_primary>  (49) 
energy

>  <meeko>  (49) 
{"free_energy": -9.26, "intermolecular_energy": -10.75, "internal_energy": -1.38, "cluster_size": 14, "cluster_id": 1, "rank_in_cluster": 10}

>  <energy>  (49) 
-9.26

>  <cluster_rmsd>  (49) 
0.04

>  <rmsd>  (49) 
269.73

>  <cluster>  (49) 
1

$$$$
DRTNTVLZUVPGHX-GNVQSUKONA-N
     RDKit          3D

 58 63  0  0  0  0  0  0  0  0999 V2000
  137.8310   74.3120  223.0680 H   0  0  0  0  0  0  0  0  0  0  0  0
  138.2330   73.8070  222.2530 N   0  0  0  0  0  0  0  0  0  0  0  0
  139.4800   73.7690  221.8770 C   0  0  0  0  0  0  0  0  0  0  0  0
  140.1650   74.9990  221.7440 C   0  0  0  0  0  0  0  0  0  0  0  0
  139.5370   76.2940  222.1180 C   0  0  0  0  0  0  0  0  0  0  0  0
  138.6110   76.3090  222.9740 O   0  0  0  0  0  0  0  0  0  0  0  0
  139.9890   77.5320  221.5370 N   0  0  0  0  0  0  0  0  0  0  0  0
  141.4110   77.8900  221.5450 C   0  0  0  0  0  0  0  0  0  0  0  0
  141.7388   78.0919  220.5146 H   0  0  0  0  0  0  0  0  0  0  0  0
  141.9852   77.0534  221.9697 H   0  0  0  0  0  0  0  0  0  0  0  0
  141.6440   79.1180  222.3890 C   0  0  0  0  0  0  0  0  0  0  0  0
  142.9520   79.4420  222.7810 C   0  0  0  0  0  0  0  0  0  0  0  0
  143.7854   78.7796  222.5044 H   0  0  0  0  0  0  0  0  0  0  0  0
  143.2020   80.6000  223.5200 C   0  0  0  0  0  0  0  0  0  0  0  0
  144.2291   80.8424  223.8302 H   0  0  0  0  0  0  0  0  0  0  0  0
  142.1500   81.4510  223.8660 C   0  0  0  0  0  0  0  0  0  0  0  0
  142.3498   82.3616  224.4499 H   0  0  0  0  0  0  0  0  0  0  0  0
  140.8450   81.1480  223.4720 C   0  0  0  0  0  0  0  0  0  0  0  0
  140.0196   81.8178  223.7550 H   0  0  0  0  0  0  0  0  0  0  0  0
  140.5790   79.9940  222.7170 C   0  0  0  0  0  0  0  0  0  0  0  0
  139.1450   79.6640  222.3660 C   0  0  0  0  0  0  0  0  0  0  0  0
  138.6424   80.5833  222.0308 H   0  0  0  0  0  0  0  0  0  0  0  0
  138.6657   79.2488  223.2648 H   0  0  0  0  0  0  0  0  0  0  0  0
  139.0450   78.6160  221.2560 C   0  0  0  0  0  0  0  0  0  0  0  0
  139.2917   79.0784  220.2889 H   0  0  0  0  0  0  0  0  0  0  0  0
  138.0213   78.2157  221.2141 H   0  0  0  0  0  0  0  0  0  0  0  0
  141.4720   75.0060  221.2570 C   0  0  0  0  0  0  0  0  0  0  0  0
  142.0124   75.9586  221.1545 H   0  0  0  0  0  0  0  0  0  0  0  0
  142.0980   73.8110  220.8990 C   0  0  0  0  0  0  0  0  0  0  0  0
  143.4090   73.7850  220.3810 C   0  0  0  0  0  0  0  0  0  0  0  0
  144.0430   74.8680  220.2300 O   0  0  0  0  0  0  0  0  0  0  0  0
  143.9920   72.5880  220.0400 N   0  0  0  0  0  0  0  0  0  0  0  0
  145.2670   72.5470  219.5310 C   0  0  0  0  0  0  0  0  0  0  0  0
  145.8288   73.4832  219.3974 H   0  0  0  0  0  0  0  0  0  0  0  0
  145.8590   71.3320  219.1810 C   0  0  0  0  0  0  0  0  0  0  0  0
  146.8809   71.3108  218.7745 H   0  0  0  0  0  0  0  0  0  0  0  0
  145.1470   70.1470  219.3500 C   0  0  0  0  0  0  0  0  0  0  0  0
  145.6036   69.1842  219.0770 H   0  0  0  0  0  0  0  0  0  0  0  0
  143.8550   70.1870  219.8660 C   0  0  0  0  0  0  0  0  0  0  0  0
  143.2843   69.2566  220.0024 H   0  0  0  0  0  0  0  0  0  0  0  0
  143.2870   71.4180  220.2100 C   0  0  0  0  0  0  0  0  0  0  0  0
  142.0280   71.4430  220.7130 N   0  0  0  0  0  0  0  0  0  0  0  0
  141.4070   72.6000  221.0660 C   0  0  0  0  0  0  0  0  0  0  0  0
  140.1230   72.5780  221.5700 N   0  0  0  0  0  0  0  0  0  0  0  0
  139.4810   71.2540  221.7560 C   0  0  0  0  0  0  0  0  0  0  0  0
  138.4114   71.3356  221.5126 H   0  0  0  0  0  0  0  0  0  0  0  0
  139.9736   70.5294  221.0910 H   0  0  0  0  0  0  0  0  0  0  0  0
  139.6280   70.7760  223.1810 C   0  0  0  0  0  0  0  0  0  0  0  0
  140.3760   71.5280  224.1050 C   0  0  0  0  0  0  0  0  0  0  0  0
  140.8436   72.4729  223.7909 H   0  0  0  0  0  0  0  0  0  0  0  0
  140.5280   71.0800  225.4210 C   0  0  0  0  0  0  0  0  0  0  0  0
  141.1144   71.6728  226.1384 H   0  0  0  0  0  0  0  0  0  0  0  0
  139.9370   69.8820  225.8260 C   0  0  0  0  0  0  0  0  0  0  0  0
  140.0594   69.5303  226.8611 H   0  0  0  0  0  0  0  0  0  0  0  0
  139.1900   69.1300  224.9160 C   0  0  0  0  0  0  0  0  0  0  0  0
  138.7227   68.1871  225.2364 H   0  0  0  0  0  0  0  0  0  0  0  0
  139.0350   69.5730  223.5990 C   0  0  0  0  0  0  0  0  0  0  0  0
  138.4459   68.9767  222.8867 H   0  0  0  0  0  0  0  0  0  0  0  0
  1  2  1  0
  2  3  2  0
  3  4  1  0
  4  5  1  0
  5  6  2  0
  5  7  1  0
  7  8  1  0
  8  9  1  0
  8 10  1  0
  8 11  1  0
 11 12  2  0
 12 13  1  0
 12 14  1  0
 14 15  1  0
 14 16  2  0
 16 17  1  0
 16 18  1  0
 18 19  1  0
 18 20  2  0
 20 21  1  0
 21 22  1  0
 21 23  1  0
 21 24  1  0
 24 25  1  0
 24 26  1  0
  4 27  2  0
 27 28  1  0
 27 29  1  0
 29 30  1  0
 30 31  2  0
 30 32  1  0
 32 33  1  0
 33 34  1  0
 33 35  2  0
 35 36  1  0
 35 37  1  0
 37 38  1  0
 37 39  2  0
 39 40  1  0
 39 41  1  0
 41 42  2  0
 42 43  1  0
 43 44  1  0
 44 45  1  0
 45 46  1  0
 45 47  1  0
 45 48  1  0
 48 49  2  0
 49 50  1  0
 49 51  1  0
 51 52  1  0
 51 53  2  0
 53 54  1  0
 53 55  1  0
 55 56  1  0
 55 57  2  0
 57 58  1  0
 44  3  1  0
 57 48  1  0
 24  7  1  0
 43 29  2  0
 20 11  1  0
 41 32  1  0
M  END
>  <UniqueID>  (50) 
127

>  <SMILES>  (50) 
[H]/N=c1/c(C(=O)N2CCc3ccccc3C2)cc2c(=O)n3ccccc3nc2n1Cc1ccccc1

>  <Energy>  (50) 
93.86281617098605

>  <Genealogy>  (50) 
[H]/N=c1/c(C(=O)N2CCc3ccccc3C2)cc2c(=O)n3ccccc3nc2n1Cc1ccccc1 (cis-trans isomerization)
[H]/N=c1/c(C(=O)N2CCc3ccccc3C2)cc2c(=O)n3ccccc3nc2n1Cc1ccccc1 (3D coordinates assigned)
[H]/N=c1/c(C(=O)N2CCc3ccccc3C2)cc2c(=O)n3ccccc3nc2n1Cc1ccccc1 (nonaromatic ring conformer: 93.86281617098605 kcal/mol)

>  <smiles>  (50) 
N=c1c(C(=O)N2CCc3ccccc3C2)cc2c(=O)n3ccccc3nc2n1Cc1ccccc1

>  <score_type>  (50) 
oracle

>  <origin>  (50) 
autodockgpu

>  <m_score__min__energy>  (50) 
-9.2699999999999996

>  <m_primary>  (50) 
energy

>  <meeko>  (50) 
{"free_energy": -9.22, "intermolecular_energy": -10.71, "internal_energy": -1.39, "cluster_size": 14, "cluster_id": 1, "rank_in_cluster": 14}

>  <energy>  (50) 
-9.26

>  <cluster_rmsd>  (50) 
0.02

>  <rmsd>  (50) 
269.72

>  <cluster>  (50) 
1

$$$$
DRTNTVLZUVPGHX-GNVQSUKONA-N
     RDKit          3D

 58 63  0  0  0  0  0  0  0  0999 V2000
  137.8530   74.4620  223.0880 H   0  0  0  0  0  0  0  0  0  0  0  0
  138.2490   73.8880  222.3170 N   0  0  0  0  0  0  0  0  0  0  0  0
  139.4870   73.8500  221.9090 C   0  0  0  0  0  0  0  0  0  0  0  0
  140.1560   75.0820  221.7230 C   0  0  0  0  0  0  0  0  0  0  0  0
  139.5250   76.3810  222.0760 C   0  0  0  0  0  0  0  0  0  0  0  0
  138.5630   76.4020  222.8910 O   0  0  0  0  0  0  0  0  0  0  0  0
  140.0140   77.6180  221.5210 N   0  0  0  0  0  0  0  0  0  0  0  0
  141.4390   77.9560  221.5810 C   0  0  0  0  0  0  0  0  0  0  0  0
  141.8046   78.1619  220.5642 H   0  0  0  0  0  0  0  0  0  0  0  0
  141.9861   77.1077  222.0182 H   0  0  0  0  0  0  0  0  0  0  0  0
  141.6610   79.1730  222.4430 C   0  0  0  0  0  0  0  0  0  0  0  0
  142.9590   79.4760  222.8820 C   0  0  0  0  0  0  0  0  0  0  0  0
  143.7924   78.8042  222.6290 H   0  0  0  0  0  0  0  0  0  0  0  0
  143.1990   80.6250  223.6380 C   0  0  0  0  0  0  0  0  0  0  0  0
  144.2182   80.8512  223.9846 H   0  0  0  0  0  0  0  0  0  0  0  0
  142.1470   81.4880  223.9550 C   0  0  0  0  0  0  0  0  0  0  0  0
  142.3388   82.3911  224.5530 H   0  0  0  0  0  0  0  0  0  0  0  0
  140.8530   81.2060  223.5140 C   0  0  0  0  0  0  0  0  0  0  0  0
  140.0276   81.8851  223.7740 H   0  0  0  0  0  0  0  0  0  0  0  0
  140.5970   80.0620  222.7410 C   0  0  0  0  0  0  0  0  0  0  0  0
  139.1710   79.7540  222.3380 C   0  0  0  0  0  0  0  0  0  0  0  0
  138.6922   80.6826  221.9940 H   0  0  0  0  0  0  0  0  0  0  0  0
  138.6556   79.3377  223.2161 H   0  0  0  0  0  0  0  0  0  0  0  0
  139.0960   78.7170  221.2160 C   0  0  0  0  0  0  0  0  0  0  0  0
  139.3835   79.1839  220.2624 H   0  0  0  0  0  0  0  0  0  0  0  0
  138.0690   78.3316  221.1340 H   0  0  0  0  0  0  0  0  0  0  0  0
  141.4490   75.0860  221.2010 C   0  0  0  0  0  0  0  0  0  0  0  0
  141.9768   76.0402  221.0562 H   0  0  0  0  0  0  0  0  0  0  0  0
  142.0780   73.8870  220.8610 C   0  0  0  0  0  0  0  0  0  0  0  0
  143.3750   73.8580  220.3100 C   0  0  0  0  0  0  0  0  0  0  0  0
  143.9930   74.9420  220.1100 O   0  0  0  0  0  0  0  0  0  0  0  0
  143.9600   72.6570  219.9880 N   0  0  0  0  0  0  0  0  0  0  0  0
  145.2220   72.6120  219.4460 C   0  0  0  0  0  0  0  0  0  0  0  0
  145.7710   73.5488  219.2700 H   0  0  0  0  0  0  0  0  0  0  0  0
  145.8160   71.3930  219.1160 C   0  0  0  0  0  0  0  0  0  0  0  0
  146.8271   71.3687  218.6835 H   0  0  0  0  0  0  0  0  0  0  0  0
  145.1200   70.2080  219.3380 C   0  0  0  0  0  0  0  0  0  0  0  0
  145.5786   69.2417  219.0812 H   0  0  0  0  0  0  0  0  0  0  0  0
  143.8420   70.2510  219.8860 C   0  0  0  0  0  0  0  0  0  0  0  0
  143.2841   69.3197  220.0633 H   0  0  0  0  0  0  0  0  0  0  0  0
  143.2710   71.4860  220.2100 C   0  0  0  0  0  0  0  0  0  0  0  0
  142.0260   71.5150  220.7460 N   0  0  0  0  0  0  0  0  0  0  0  0
  141.4030   72.6750  221.0810 C   0  0  0  0  0  0  0  0  0  0  0  0
  140.1330   72.6560  221.6200 N   0  0  0  0  0  0  0  0  0  0  0  0
  139.5090   71.3330  221.8610 C   0  0  0  0  0  0  0  0  0  0  0  0
  138.4361   71.3931  221.6259 H   0  0  0  0  0  0  0  0  0  0  0  0
  140.0034   70.5900  221.2179 H   0  0  0  0  0  0  0  0  0  0  0  0
  139.6760   70.9100  223.3010 C   0  0  0  0  0  0  0  0  0  0  0  0
  140.6550   71.5170  224.1080 C   0  0  0  0  0  0  0  0  0  0  0  0
  141.2921   72.3109  223.6911 H   0  0  0  0  0  0  0  0  0  0  0  0
  140.8230   71.1170  225.4370 C   0  0  0  0  0  0  0  0  0  0  0  0
  141.5907   71.5966  226.0620 H   0  0  0  0  0  0  0  0  0  0  0  0
  140.0180   70.1100  225.9720 C   0  0  0  0  0  0  0  0  0  0  0  0
  140.1526   69.7951  227.0173 H   0  0  0  0  0  0  0  0  0  0  0  0
  139.0410   69.5020  225.1790 C   0  0  0  0  0  0  0  0  0  0  0  0
  138.4061   68.7094  225.6016 H   0  0  0  0  0  0  0  0  0  0  0  0
  138.8690   69.8990  223.8500 C   0  0  0  0  0  0  0  0  0  0  0  0
  138.0979   69.4176  223.2306 H   0  0  0  0  0  0  0  0  0  0  0  0
  1  2  1  0
  2  3  2  0
  3  4  1  0
  4  5  1  0
  5  6  2  0
  5  7  1  0
  7  8  1  0
  8  9  1  0
  8 10  1  0
  8 11  1  0
 11 12  2  0
 12 13  1  0
 12 14  1  0
 14 15  1  0
 14 16  2  0
 16 17  1  0
 16 18  1  0
 18 19  1  0
 18 20  2  0
 20 21  1  0
 21 22  1  0
 21 23  1  0
 21 24  1  0
 24 25  1  0
 24 26  1  0
  4 27  2  0
 27 28  1  0
 27 29  1  0
 29 30  1  0
 30 31  2  0
 30 32  1  0
 32 33  1  0
 33 34  1  0
 33 35  2  0
 35 36  1  0
 35 37  1  0
 37 38  1  0
 37 39  2  0
 39 40  1  0
 39 41  1  0
 41 42  2  0
 42 43  1  0
 43 44  1  0
 44 45  1  0
 45 46  1  0
 45 47  1  0
 45 48  1  0
 48 49  2  0
 49 50  1  0
 49 51  1  0
 51 52  1  0
 51 53  2  0
 53 54  1  0
 53 55  1  0
 55 56  1  0
 55 57  2  0
 57 58  1  0
 44  3  1  0
 57 48  1  0
 24  7  1  0
 43 29  2  0
 20 11  1  0
 41 32  1  0
M  END
>  <UniqueID>  (51) 
127

>  <SMILES>  (51) 
[H]/N=c1/c(C(=O)N2CCc3ccccc3C2)cc2c(=O)n3ccccc3nc2n1Cc1ccccc1

>  <Energy>  (51) 
93.86281617098605

>  <Genealogy>  (51) 
[H]/N=c1/c(C(=O)N2CCc3ccccc3C2)cc2c(=O)n3ccccc3nc2n1Cc1ccccc1 (cis-trans isomerization)
[H]/N=c1/c(C(=O)N2CCc3ccccc3C2)cc2c(=O)n3ccccc3nc2n1Cc1ccccc1 (3D coordinates assigned)
[H]/N=c1/c(C(=O)N2CCc3ccccc3C2)cc2c(=O)n3ccccc3nc2n1Cc1ccccc1 (nonaromatic ring conformer: 93.86281617098605 kcal/mol)

>  <smiles>  (51) 
N=c1c(C(=O)N2CCc3ccccc3C2)cc2c(=O)n3ccccc3nc2n1Cc1ccccc1

>  <score_type>  (51) 
oracle

>  <origin>  (51) 
autodockgpu

>  <m_score__min__energy>  (51) 
-9.2699999999999996

>  <m_primary>  (51) 
energy

>  <meeko>  (51) 
{"free_energy": -9.27, "intermolecular_energy": -10.76, "internal_energy": -1.37, "cluster_size": 14, "cluster_id": 1, "rank_in_cluster": 6}

>  <energy>  (51) 
-9.26

>  <cluster_rmsd>  (51) 
0.05

>  <rmsd>  (51) 
269.72

>  <cluster>  (51) 
1

$$$$
DRTNTVLZUVPGHX-GNVQSUKONA-N
     RDKit          3D

 58 63  0  0  0  0  0  0  0  0999 V2000
  137.8580   74.4790  223.0770 H   0  0  0  0  0  0  0  0  0  0  0  0
  138.2610   73.8850  222.3240 N   0  0  0  0  0  0  0  0  0  0  0  0
  139.4990   73.8490  221.9160 C   0  0  0  0  0  0  0  0  0  0  0  0
  140.1660   75.0820  221.7310 C   0  0  0  0  0  0  0  0  0  0  0  0
  139.5340   76.3800  222.0860 C   0  0  0  0  0  0  0  0  0  0  0  0
  138.5750   76.4000  222.9050 O   0  0  0  0  0  0  0  0  0  0  0  0
  140.0180   77.6180  221.5290 N   0  0  0  0  0  0  0  0  0  0  0  0
  141.4420   77.9600  221.5840 C   0  0  0  0  0  0  0  0  0  0  0  0
  141.8040   78.1657  220.5658 H   0  0  0  0  0  0  0  0  0  0  0  0
  141.9934   77.1140  222.0201 H   0  0  0  0  0  0  0  0  0  0  0  0
  141.6620   79.1790  222.4440 C   0  0  0  0  0  0  0  0  0  0  0  0
  142.9600   79.4860  222.8800 C   0  0  0  0  0  0  0  0  0  0  0  0
  143.7947   78.8163  222.6253 H   0  0  0  0  0  0  0  0  0  0  0  0
  143.1990   80.6360  223.6350 C   0  0  0  0  0  0  0  0  0  0  0  0
  144.2182   80.8646  223.9799 H   0  0  0  0  0  0  0  0  0  0  0  0
  142.1450   81.4970  223.9530 C   0  0  0  0  0  0  0  0  0  0  0  0
  142.3356   82.4014  224.5494 H   0  0  0  0  0  0  0  0  0  0  0  0
  140.8510   81.2110  223.5150 C   0  0  0  0  0  0  0  0  0  0  0  0
  140.0242   81.8881  223.7756 H   0  0  0  0  0  0  0  0  0  0  0  0
  140.5970   80.0650  222.7440 C   0  0  0  0  0  0  0  0  0  0  0  0
  139.1710   79.7530  222.3440 C   0  0  0  0  0  0  0  0  0  0  0  0
  138.6895   80.6800  221.9993 H   0  0  0  0  0  0  0  0  0  0  0  0
  138.6583   79.3369  223.2237 H   0  0  0  0  0  0  0  0  0  0  0  0
  139.0960   78.7140  221.2240 C   0  0  0  0  0  0  0  0  0  0  0  0
  139.3799   79.1800  220.2689 H   0  0  0  0  0  0  0  0  0  0  0  0
  138.0698   78.3257  221.1449 H   0  0  0  0  0  0  0  0  0  0  0  0
  141.4590   75.0890  221.2090 C   0  0  0  0  0  0  0  0  0  0  0  0
  141.9855   76.0440  221.0651 H   0  0  0  0  0  0  0  0  0  0  0  0
  142.0890   73.8910  220.8680 C   0  0  0  0  0  0  0  0  0  0  0  0
  143.3860   73.8630  220.3160 C   0  0  0  0  0  0  0  0  0  0  0  0
  144.0030   74.9490  220.1180 O   0  0  0  0  0  0  0  0  0  0  0  0
  143.9730   72.6640  219.9940 N   0  0  0  0  0  0  0  0  0  0  0  0
  145.2350   72.6210  219.4520 C   0  0  0  0  0  0  0  0  0  0  0  0
  145.7833   73.5585  219.2776 H   0  0  0  0  0  0  0  0  0  0  0  0
  145.8300   71.4030  219.1200 C   0  0  0  0  0  0  0  0  0  0  0  0
  146.8407   71.3807  218.6865 H   0  0  0  0  0  0  0  0  0  0  0  0
  145.1360   70.2160  219.3410 C   0  0  0  0  0  0  0  0  0  0  0  0
  145.5956   69.2505  219.0830 H   0  0  0  0  0  0  0  0  0  0  0  0
  143.8580   70.2580  219.8900 C   0  0  0  0  0  0  0  0  0  0  0  0
  143.3016   69.3260  220.0681 H   0  0  0  0  0  0  0  0  0  0  0  0
  143.2850   71.4920  220.2140 C   0  0  0  0  0  0  0  0  0  0  0  0
  142.0400   71.5180  220.7510 N   0  0  0  0  0  0  0  0  0  0  0  0
  141.4160   72.6780  221.0870 C   0  0  0  0  0  0  0  0  0  0  0  0
  140.1460   72.6570  221.6260 N   0  0  0  0  0  0  0  0  0  0  0  0
  139.5230   71.3320  221.8660 C   0  0  0  0  0  0  0  0  0  0  0  0
  138.4515   71.3891  221.6240 H   0  0  0  0  0  0  0  0  0  0  0  0
  140.0230   70.5886  221.2277 H   0  0  0  0  0  0  0  0  0  0  0  0
  139.6820   70.9130  223.3080 C   0  0  0  0  0  0  0  0  0  0  0  0
  140.6650   71.5130  224.1150 C   0  0  0  0  0  0  0  0  0  0  0  0
  141.3109   72.2991  223.6968 H   0  0  0  0  0  0  0  0  0  0  0  0
  140.8260   71.1160  225.4460 C   0  0  0  0  0  0  0  0  0  0  0  0
  141.5965   71.5905  226.0715 H   0  0  0  0  0  0  0  0  0  0  0  0
  140.0100   70.1180  225.9820 C   0  0  0  0  0  0  0  0  0  0  0  0
  140.1395   69.8043  227.0283 H   0  0  0  0  0  0  0  0  0  0  0  0
  139.0290   69.5180  225.1890 C   0  0  0  0  0  0  0  0  0  0  0  0
  138.3848   68.7336  225.6129 H   0  0  0  0  0  0  0  0  0  0  0  0
  138.8640   69.9120  223.8580 C   0  0  0  0  0  0  0  0  0  0  0  0
  138.0899   69.4359  223.2382 H   0  0  0  0  0  0  0  0  0  0  0  0
  1  2  1  0
  2  3  2  0
  3  4  1  0
  4  5  1  0
  5  6  2  0
  5  7  1  0
  7  8  1  0
  8  9  1  0
  8 10  1  0
  8 11  1  0
 11 12  2  0
 12 13  1  0
 12 14  1  0
 14 15  1  0
 14 16  2  0
 16 17  1  0
 16 18  1  0
 18 19  1  0
 18 20  2  0
 20 21  1  0
 21 22  1  0
 21 23  1  0
 21 24  1  0
 24 25  1  0
 24 26  1  0
  4 27  2  0
 27 28  1  0
 27 29  1  0
 29 30  1  0
 30 31  2  0
 30 32  1  0
 32 33  1  0
 33 34  1  0
 33 35  2  0
 35 36  1  0
 35 37  1  0
 37 38  1  0
 37 39  2  0
 39 40  1  0
 39 41  1  0
 41 42  2  0
 42 43  1  0
 43 44  1  0
 44 45  1  0
 45 46  1  0
 45 47  1  0
 45 48  1  0
 48 49  2  0
 49 50  1  0
 49 51  1  0
 51 52  1  0
 51 53  2  0
 53 54  1  0
 53 55  1  0
 55 56  1  0
 55 57  2  0
 57 58  1  0
 44  3  1  0
 57 48  1  0
 24  7  1  0
 43 29  2  0
 20 11  1  0
 41 32  1  0
M  END
>  <UniqueID>  (52) 
127

>  <SMILES>  (52) 
[H]/N=c1/c(C(=O)N2CCc3ccccc3C2)cc2c(=O)n3ccccc3nc2n1Cc1ccccc1

>  <Energy>  (52) 
93.86281617098605

>  <Genealogy>  (52) 
[H]/N=c1/c(C(=O)N2CCc3ccccc3C2)cc2c(=O)n3ccccc3nc2n1Cc1ccccc1 (cis-trans isomerization)
[H]/N=c1/c(C(=O)N2CCc3ccccc3C2)cc2c(=O)n3ccccc3nc2n1Cc1ccccc1 (3D coordinates assigned)
[H]/N=c1/c(C(=O)N2CCc3ccccc3C2)cc2c(=O)n3ccccc3nc2n1Cc1ccccc1 (nonaromatic ring conformer: 93.86281617098605 kcal/mol)

>  <smiles>  (52) 
N=c1c(C(=O)N2CCc3ccccc3C2)cc2c(=O)n3ccccc3nc2n1Cc1ccccc1

>  <score_type>  (52) 
oracle

>  <origin>  (52) 
autodockgpu

>  <m_score__min__energy>  (52) 
-9.2699999999999996

>  <m_primary>  (52) 
energy

>  <meeko>  (52) 
{"free_energy": -9.26, "intermolecular_energy": -10.76, "internal_energy": -1.38, "cluster_size": 14, "cluster_id": 1, "rank_in_cluster": 8}

>  <energy>  (52) 
-9.26

>  <cluster_rmsd>  (52) 
0.04

>  <rmsd>  (52) 
269.71

>  <cluster>  (52) 
1

$$$$
DRTNTVLZUVPGHX-GNVQSUKONA-N
     RDKit          3D

 58 63  0  0  0  0  0  0  0  0999 V2000
  139.5210   74.5620  222.9770 H   0  0  0  0  0  0  0  0  0  0  0  0
  140.3010   74.3260  222.3320 N   0  0  0  0  0  0  0  0  0  0  0  0
  140.8050   75.0720  221.3880 C   0  0  0  0  0  0  0  0  0  0  0  0
  140.4820   76.4480  221.3950 C   0  0  0  0  0  0  0  0  0  0  0  0
  139.6870   77.0650  222.4890 C   0  0  0  0  0  0  0  0  0  0  0  0
  138.6230   76.5070  222.8730 O   0  0  0  0  0  0  0  0  0  0  0  0
  140.1270   78.2750  223.1360 N   0  0  0  0  0  0  0  0  0  0  0  0
  139.2740   79.4670  223.1590 C   0  0  0  0  0  0  0  0  0  0  0  0
  139.1278   79.7871  224.2012 H   0  0  0  0  0  0  0  0  0  0  0  0
  138.3062   79.2201  222.6981 H   0  0  0  0  0  0  0  0  0  0  0  0
  139.9120   80.5900  222.3800 C   0  0  0  0  0  0  0  0  0  0  0  0
  139.1340   81.7000  222.0170 C   0  0  0  0  0  0  0  0  0  0  0  0
  138.0631   81.7221  222.2671 H   0  0  0  0  0  0  0  0  0  0  0  0
  139.7110   82.7770  221.3400 C   0  0  0  0  0  0  0  0  0  0  0  0
  139.0923   83.6398  221.0521 H   0  0  0  0  0  0  0  0  0  0  0  0
  141.0730   82.7600  221.0280 C   0  0  0  0  0  0  0  0  0  0  0  0
  141.5243   83.6082  220.4924 H   0  0  0  0  0  0  0  0  0  0  0  0
  141.8620   81.6680  221.3950 C   0  0  0  0  0  0  0  0  0  0  0  0
  142.9319   81.6570  221.1398 H   0  0  0  0  0  0  0  0  0  0  0  0
  141.2990   80.5830  222.0880 C   0  0  0  0  0  0  0  0  0  0  0  0
  142.1700   79.3880  222.4100 C   0  0  0  0  0  0  0  0  0  0  0  0
  143.1387   79.7478  222.7871 H   0  0  0  0  0  0  0  0  0  0  0  0
  142.2904   78.8014  221.4873 H   0  0  0  0  0  0  0  0  0  0  0  0
  141.5400   78.4770  223.4640 C   0  0  0  0  0  0  0  0  0  0  0  0
  141.6251   78.9460  224.4554 H   0  0  0  0  0  0  0  0  0  0  0  0
  142.0608   77.5082  223.4772 H   0  0  0  0  0  0  0  0  0  0  0  0
  140.9260   77.2600  220.3520 C   0  0  0  0  0  0  0  0  0  0  0  0
  140.6806   78.3323  220.3518 H   0  0  0  0  0  0  0  0  0  0  0  0
  141.6800   76.7210  219.3080 C   0  0  0  0  0  0  0  0  0  0  0  0
  142.1240   77.5080  218.2270 C   0  0  0  0  0  0  0  0  0  0  0  0
  141.8350   78.7390  218.1900 O   0  0  0  0  0  0  0  0  0  0  0  0
  142.8640   76.9400  217.2180 N   0  0  0  0  0  0  0  0  0  0  0  0
  143.3010   77.6940  216.1560 C   0  0  0  0  0  0  0  0  0  0  0  0
  143.0584   78.7661  216.1151 H   0  0  0  0  0  0  0  0  0  0  0  0
  144.0490   77.1170  215.1280 C   0  0  0  0  0  0  0  0  0  0  0  0
  144.3940   77.7301  214.2824 H   0  0  0  0  0  0  0  0  0  0  0  0
  144.3550   75.7600  215.1810 C   0  0  0  0  0  0  0  0  0  0  0  0
  144.9430   75.2946  214.3763 H   0  0  0  0  0  0  0  0  0  0  0  0
  143.9140   74.9950  216.2560 C   0  0  0  0  0  0  0  0  0  0  0  0
  144.1517   73.9222  216.3062 H   0  0  0  0  0  0  0  0  0  0  0  0
  143.1670   75.5980  217.2720 C   0  0  0  0  0  0  0  0  0  0  0  0
  142.7440   74.8430  218.3160 N   0  0  0  0  0  0  0  0  0  0  0  0
  142.0110   75.3560  219.3380 C   0  0  0  0  0  0  0  0  0  0  0  0
  141.5980   74.5470  220.3770 N   0  0  0  0  0  0  0  0  0  0  0  0
  142.0280   73.1280  220.3550 C   0  0  0  0  0  0  0  0  0  0  0  0
  141.6623   72.6273  221.2636 H   0  0  0  0  0  0  0  0  0  0  0  0
  141.6109   72.6495  219.4566 H   0  0  0  0  0  0  0  0  0  0  0  0
  143.5320   73.0190  220.3030 C   0  0  0  0  0  0  0  0  0  0  0  0
  144.1400   71.8900  219.7230 C   0  0  0  0  0  0  0  0  0  0  0  0
  143.5159   71.0916  219.2951 H   0  0  0  0  0  0  0  0  0  0  0  0
  145.5330   71.7780  219.6880 C   0  0  0  0  0  0  0  0  0  0  0  0
  146.0012   70.8930  219.2325 H   0  0  0  0  0  0  0  0  0  0  0  0
  146.3310   72.7870  220.2300 C   0  0  0  0  0  0  0  0  0  0  0  0
  147.4269   72.6957  220.2037 H   0  0  0  0  0  0  0  0  0  0  0  0
  145.7370   73.9130  220.8060 C   0  0  0  0  0  0  0  0  0  0  0  0
  146.3663   74.7088  221.2311 H   0  0  0  0  0  0  0  0  0  0  0  0
  144.3440   74.0300  220.8430 C   0  0  0  0  0  0  0  0  0  0  0  0
  143.8816   74.9186  221.2975 H   0  0  0  0  0  0  0  0  0  0  0  0
  1  2  1  0
  2  3  2  0
  3  4  1  0
  4  5  1  0
  5  6  2  0
  5  7  1  0
  7  8  1  0
  8  9  1  0
  8 10  1  0
  8 11  1  0
 11 12  2  0
 12 13  1  0
 12 14  1  0
 14 15  1  0
 14 16  2  0
 16 17  1  0
 16 18  1  0
 18 19  1  0
 18 20  2  0
 20 21  1  0
 21 22  1  0
 21 23  1  0
 21 24  1  0
 24 25  1  0
 24 26  1  0
  4 27  2  0
 27 28  1  0
 27 29  1  0
 29 30  1  0
 30 31  2  0
 30 32  1  0
 32 33  1  0
 33 34  1  0
 33 35  2  0
 35 36  1  0
 35 37  1  0
 37 38  1  0
 37 39  2  0
 39 40  1  0
 39 41  1  0
 41 42  2  0
 42 43  1  0
 43 44  1  0
 44 45  1  0
 45 46  1  0
 45 47  1  0
 45 48  1  0
 48 49  2  0
 49 50  1  0
 49 51  1  0
 51 52  1  0
 51 53  2  0
 53 54  1  0
 53 55  1  0
 55 56  1  0
 55 57  2  0
 57 58  1  0
 44  3  1  0
 57 48  1  0
 24  7  1  0
 43 29  2  0
 20 11  1  0
 41 32  1  0
M  END
>  <UniqueID>  (53) 
127

>  <SMILES>  (53) 
[H]/N=c1/c(C(=O)N2CCc3ccccc3C2)cc2c(=O)n3ccccc3nc2n1Cc1ccccc1

>  <Energy>  (53) 
93.86281617098605

>  <Genealogy>  (53) 
[H]/N=c1/c(C(=O)N2CCc3ccccc3C2)cc2c(=O)n3ccccc3nc2n1Cc1ccccc1 (cis-trans isomerization)
[H]/N=c1/c(C(=O)N2CCc3ccccc3C2)cc2c(=O)n3ccccc3nc2n1Cc1ccccc1 (3D coordinates assigned)
[H]/N=c1/c(C(=O)N2CCc3ccccc3C2)cc2c(=O)n3ccccc3nc2n1Cc1ccccc1 (nonaromatic ring conformer: 93.86281617098605 kcal/mol)

>  <smiles>  (53) 
N=c1c(C(=O)N2CCc3ccccc3C2)cc2c(=O)n3ccccc3nc2n1Cc1ccccc1

>  <score_type>  (53) 
oracle

>  <origin>  (53) 
autodockgpu

>  <m_score__min__energy>  (53) 
-9.2699999999999996

>  <m_primary>  (53) 
energy

>  <meeko>  (53) 
{"free_energy": -8.48, "intermolecular_energy": -9.97, "internal_energy": -1.96, "cluster_size": 4, "cluster_id": 3, "rank_in_cluster": 3}

>  <energy>  (53) 
-9.25

>  <cluster_rmsd>  (53) 
0.05

>  <rmsd>  (53) 
269.71

>  <cluster>  (53) 
1

$$$$
DRTNTVLZUVPGHX-GNVQSUKONA-N
     RDKit          3D

 58 63  0  0  0  0  0  0  0  0999 V2000
  137.8380   74.4680  223.0700 H   0  0  0  0  0  0  0  0  0  0  0  0
  138.2360   73.8910  222.3020 N   0  0  0  0  0  0  0  0  0  0  0  0
  139.4750   73.8530  221.8970 C   0  0  0  0  0  0  0  0  0  0  0  0
  140.1450   75.0850  221.7130 C   0  0  0  0  0  0  0  0  0  0  0  0
  139.5140   76.3840  222.0640 C   0  0  0  0  0  0  0  0  0  0  0  0
  138.5490   76.4060  222.8760 O   0  0  0  0  0  0  0  0  0  0  0  0
  140.0060   77.6210  221.5130 N   0  0  0  0  0  0  0  0  0  0  0  0
  141.4320   77.9580  221.5790 C   0  0  0  0  0  0  0  0  0  0  0  0
  141.8022   78.1642  220.5639 H   0  0  0  0  0  0  0  0  0  0  0  0
  141.9773   77.1092  222.0175 H   0  0  0  0  0  0  0  0  0  0  0  0
  141.6500   79.1750  222.4430 C   0  0  0  0  0  0  0  0  0  0  0  0
  142.9460   79.4760  222.8880 C   0  0  0  0  0  0  0  0  0  0  0  0
  143.7797   78.8032  222.6385 H   0  0  0  0  0  0  0  0  0  0  0  0
  143.1840   80.6250  223.6460 C   0  0  0  0  0  0  0  0  0  0  0  0
  144.2019   80.8505  223.9969 H   0  0  0  0  0  0  0  0  0  0  0  0
  142.1310   81.4880  223.9590 C   0  0  0  0  0  0  0  0  0  0  0  0
  142.3204   82.3899  224.5596 H   0  0  0  0  0  0  0  0  0  0  0  0
  140.8390   81.2080  223.5110 C   0  0  0  0  0  0  0  0  0  0  0  0
  140.0130   81.8880  223.7667 H   0  0  0  0  0  0  0  0  0  0  0  0
  140.5860   80.0640  222.7360 C   0  0  0  0  0  0  0  0  0  0  0  0
  139.1620   79.7580  222.3260 C   0  0  0  0  0  0  0  0  0  0  0  0
  138.6862   80.6873  221.9794 H   0  0  0  0  0  0  0  0  0  0  0  0
  138.6417   79.3425  223.2016 H   0  0  0  0  0  0  0  0  0  0  0  0
  139.0910   78.7210  221.2040 C   0  0  0  0  0  0  0  0  0  0  0  0
  139.3834   79.1875  220.2517 H   0  0  0  0  0  0  0  0  0  0  0  0
  138.0639   78.3368  221.1175 H   0  0  0  0  0  0  0  0  0  0  0  0
  141.4400   75.0880  221.1940 C   0  0  0  0  0  0  0  0  0  0  0  0
  141.9688   76.0418  221.0503 H   0  0  0  0  0  0  0  0  0  0  0  0
  142.0690   73.8890  220.8560 C   0  0  0  0  0  0  0  0  0  0  0  0
  143.3670   73.8590  220.3080 C   0  0  0  0  0  0  0  0  0  0  0  0
  143.9870   74.9430  220.1100 O   0  0  0  0  0  0  0  0  0  0  0  0
  143.9520   72.6580  219.9880 N   0  0  0  0  0  0  0  0  0  0  0  0
  145.2160   72.6130  219.4500 C   0  0  0  0  0  0  0  0  0  0  0  0
  145.7663   73.5495  219.2765 H   0  0  0  0  0  0  0  0  0  0  0  0
  145.8100   71.3930  219.1210 C   0  0  0  0  0  0  0  0  0  0  0  0
  146.8221   71.3682  218.6908 H   0  0  0  0  0  0  0  0  0  0  0  0
  145.1130   70.2080  219.3410 C   0  0  0  0  0  0  0  0  0  0  0  0
  145.5716   69.2415  219.0850 H   0  0  0  0  0  0  0  0  0  0  0  0
  143.8340   70.2520  219.8860 C   0  0  0  0  0  0  0  0  0  0  0  0
  143.2757   69.3209  220.0627 H   0  0  0  0  0  0  0  0  0  0  0  0
  143.2620   71.4870  220.2080 C   0  0  0  0  0  0  0  0  0  0  0  0
  142.0160   71.5170  220.7410 N   0  0  0  0  0  0  0  0  0  0  0  0
  141.3930   72.6780  221.0750 C   0  0  0  0  0  0  0  0  0  0  0  0
  140.1210   72.6590  221.6100 N   0  0  0  0  0  0  0  0  0  0  0  0
  139.4960   71.3360  221.8500 C   0  0  0  0  0  0  0  0  0  0  0  0
  138.4221   71.3986  221.6203 H   0  0  0  0  0  0  0  0  0  0  0  0
  139.9864   70.5944  221.2023 H   0  0  0  0  0  0  0  0  0  0  0  0
  139.6690   70.9080  223.2870 C   0  0  0  0  0  0  0  0  0  0  0  0
  140.6420   71.5230  224.0960 C   0  0  0  0  0  0  0  0  0  0  0  0
  141.2689   72.3270  223.6829 H   0  0  0  0  0  0  0  0  0  0  0  0
  140.8160   71.1170  225.4230 C   0  0  0  0  0  0  0  0  0  0  0  0
  141.5780   71.6028  226.0502 H   0  0  0  0  0  0  0  0  0  0  0  0
  140.0250   70.0970  225.9530 C   0  0  0  0  0  0  0  0  0  0  0  0
  140.1652   69.7774  226.9962 H   0  0  0  0  0  0  0  0  0  0  0  0
  139.0550   69.4820  225.1580 C   0  0  0  0  0  0  0  0  0  0  0  0
  138.4304   68.6794  225.5771 H   0  0  0  0  0  0  0  0  0  0  0  0
  138.8760   69.8840  223.8310 C   0  0  0  0  0  0  0  0  0  0  0  0
  138.1105   69.3961  223.2098 H   0  0  0  0  0  0  0  0  0  0  0  0
  1  2  1  0
  2  3  2  0
  3  4  1  0
  4  5  1  0
  5  6  2  0
  5  7  1  0
  7  8  1  0
  8  9  1  0
  8 10  1  0
  8 11  1  0
 11 12  2  0
 12 13  1  0
 12 14  1  0
 14 15  1  0
 14 16  2  0
 16 17  1  0
 16 18  1  0
 18 19  1  0
 18 20  2  0
 20 21  1  0
 21 22  1  0
 21 23  1  0
 21 24  1  0
 24 25  1  0
 24 26  1  0
  4 27  2  0
 27 28  1  0
 27 29  1  0
 29 30  1  0
 30 31  2  0
 30 32  1  0
 32 33  1  0
 33 34  1  0
 33 35  2  0
 35 36  1  0
 35 37  1  0
 37 38  1  0
 37 39  2  0
 39 40  1  0
 39 41  1  0
 41 42  2  0
 42 43  1  0
 43 44  1  0
 44 45  1  0
 45 46  1  0
 45 47  1  0
 45 48  1  0
 48 49  2  0
 49 50  1  0
 49 51  1  0
 51 52  1  0
 51 53  2  0
 53 54  1  0
 53 55  1  0
 55 56  1  0
 55 57  2  0
 57 58  1  0
 44  3  1  0
 57 48  1  0
 24  7  1  0
 43 29  2  0
 20 11  1  0
 41 32  1  0
M  END
>  <UniqueID>  (54) 
127

>  <SMILES>  (54) 
[H]/N=c1/c(C(=O)N2CCc3ccccc3C2)cc2c(=O)n3ccccc3nc2n1Cc1ccccc1

>  <Energy>  (54) 
93.86281617098605

>  <Genealogy>  (54) 
[H]/N=c1/c(C(=O)N2CCc3ccccc3C2)cc2c(=O)n3ccccc3nc2n1Cc1ccccc1 (cis-trans isomerization)
[H]/N=c1/c(C(=O)N2CCc3ccccc3C2)cc2c(=O)n3ccccc3nc2n1Cc1ccccc1 (3D coordinates assigned)
[H]/N=c1/c(C(=O)N2CCc3ccccc3C2)cc2c(=O)n3ccccc3nc2n1Cc1ccccc1 (nonaromatic ring conformer: 93.86281617098605 kcal/mol)

>  <smiles>  (54) 
N=c1c(C(=O)N2CCc3ccccc3C2)cc2c(=O)n3ccccc3nc2n1Cc1ccccc1

>  <score_type>  (54) 
oracle

>  <origin>  (54) 
autodockgpu

>  <m_score__min__energy>  (54) 
-9.2699999999999996

>  <m_primary>  (54) 
energy

>  <meeko>  (54) 
{"free_energy": -9.26, "intermolecular_energy": -10.75, "internal_energy": -1.38, "cluster_size": 14, "cluster_id": 1, "rank_in_cluster": 12}

>  <energy>  (54) 
-9.22

>  <cluster_rmsd>  (54) 
0.17

>  <rmsd>  (54) 
269.67

>  <cluster>  (54) 
1

$$$$
DRTNTVLZUVPGHX-GNVQSUKONA-N
     RDKit          3D

 58 63  0  0  0  0  0  0  0  0999 V2000
  139.5290   74.5860  222.9680 H   0  0  0  0  0  0  0  0  0  0  0  0
  140.2840   74.3380  222.2970 N   0  0  0  0  0  0  0  0  0  0  0  0
  140.7850   75.0840  221.3530 C   0  0  0  0  0  0  0  0  0  0  0  0
  140.4560   76.4590  221.3580 C   0  0  0  0  0  0  0  0  0  0  0  0
  139.6570   77.0740  222.4510 C   0  0  0  0  0  0  0  0  0  0  0  0
  138.5680   76.5420  222.7970 O   0  0  0  0  0  0  0  0  0  0  0  0
  140.1220   78.2530  223.1370 N   0  0  0  0  0  0  0  0  0  0  0  0
  139.2740   79.4440  223.2420 C   0  0  0  0  0  0  0  0  0  0  0  0
  139.1632   79.7166  224.3019 H   0  0  0  0  0  0  0  0  0  0  0  0
  138.2910   79.2195  222.8022 H   0  0  0  0  0  0  0  0  0  0  0  0
  139.8890   80.6010  222.4940 C   0  0  0  0  0  0  0  0  0  0  0  0
  139.1030   81.7270  222.2070 C   0  0  0  0  0  0  0  0  0  0  0  0
  138.0406   81.7392  222.4920 H   0  0  0  0  0  0  0  0  0  0  0  0
  139.6610   82.8320  221.5620 C   0  0  0  0  0  0  0  0  0  0  0  0
  139.0358   83.7079  221.3342 H   0  0  0  0  0  0  0  0  0  0  0  0
  141.0120   82.8280  221.2050 C   0  0  0  0  0  0  0  0  0  0  0  0
  141.4480   83.6989  220.6937 H   0  0  0  0  0  0  0  0  0  0  0  0
  141.8090   81.7190  221.4970 C   0  0  0  0  0  0  0  0  0  0  0  0
  142.8703   81.7182  221.2077 H   0  0  0  0  0  0  0  0  0  0  0  0
  141.2660   80.6050  222.1570 C   0  0  0  0  0  0  0  0  0  0  0  0
  142.1430   79.3960  222.3960 C   0  0  0  0  0  0  0  0  0  0  0  0
  143.1244   79.7371  222.7573 H   0  0  0  0  0  0  0  0  0  0  0  0
  142.2315   78.8518  221.4442 H   0  0  0  0  0  0  0  0  0  0  0  0
  141.5450   78.4380  223.4280 C   0  0  0  0  0  0  0  0  0  0  0  0
  141.6634   78.8612  224.4364 H   0  0  0  0  0  0  0  0  0  0  0  0
  142.0635   77.4690  223.3804 H   0  0  0  0  0  0  0  0  0  0  0  0
  140.8980   77.2720  220.3140 C   0  0  0  0  0  0  0  0  0  0  0  0
  140.6493   78.3435  220.3127 H   0  0  0  0  0  0  0  0  0  0  0  0
  141.6540   76.7340  219.2710 C   0  0  0  0  0  0  0  0  0  0  0  0
  142.0960   77.5230  218.1900 C   0  0  0  0  0  0  0  0  0  0  0  0
  141.8020   78.7520  218.1510 O   0  0  0  0  0  0  0  0  0  0  0  0
  142.8390   76.9560  217.1820 N   0  0  0  0  0  0  0  0  0  0  0  0
  143.2740   77.7110  216.1190 C   0  0  0  0  0  0  0  0  0  0  0  0
  143.0273   78.7821  216.0763 H   0  0  0  0  0  0  0  0  0  0  0  0
  144.0250   77.1350  215.0930 C   0  0  0  0  0  0  0  0  0  0  0  0
  144.3681   77.7482  214.2466 H   0  0  0  0  0  0  0  0  0  0  0  0
  144.3370   75.7790  215.1480 C   0  0  0  0  0  0  0  0  0  0  0  0
  144.9281   75.3151  214.3446 H   0  0  0  0  0  0  0  0  0  0  0  0
  143.8980   75.0140  216.2230 C   0  0  0  0  0  0  0  0  0  0  0  0
  144.1390   73.9419  216.2742 H   0  0  0  0  0  0  0  0  0  0  0  0
  143.1480   75.6160  217.2390 C   0  0  0  0  0  0  0  0  0  0  0  0
  142.7280   74.8590  218.2830 N   0  0  0  0  0  0  0  0  0  0  0  0
  141.9910   75.3710  219.3040 C   0  0  0  0  0  0  0  0  0  0  0  0
  141.5810   74.5620  220.3440 N   0  0  0  0  0  0  0  0  0  0  0  0
  142.0170   73.1450  220.3240 C   0  0  0  0  0  0  0  0  0  0  0  0
  141.6404   72.6403  221.2259 H   0  0  0  0  0  0  0  0  0  0  0  0
  141.6147   72.6680  219.4181 H   0  0  0  0  0  0  0  0  0  0  0  0
  143.5220   73.0410  220.2930 C   0  0  0  0  0  0  0  0  0  0  0  0
  144.3130   74.0640  220.8470 C   0  0  0  0  0  0  0  0  0  0  0  0
  143.8313   74.9348  221.3158 H   0  0  0  0  0  0  0  0  0  0  0  0
  145.7080   73.9800  220.8050 C   0  0  0  0  0  0  0  0  0  0  0  0
  146.3200   74.7835  221.2407 H   0  0  0  0  0  0  0  0  0  0  0  0
  146.3250   72.8780  220.2110 C   0  0  0  0  0  0  0  0  0  0  0  0
  147.4226   72.8150  220.1760 H   0  0  0  0  0  0  0  0  0  0  0  0
  145.5490   71.8550  219.6610 C   0  0  0  0  0  0  0  0  0  0  0  0
  146.0364   70.9852  219.1965 H   0  0  0  0  0  0  0  0  0  0  0  0
  144.1530   71.9350  219.7000 C   0  0  0  0  0  0  0  0  0  0  0  0
  143.5463   71.1276  219.2640 H   0  0  0  0  0  0  0  0  0  0  0  0
  1  2  1  0
  2  3  2  0
  3  4  1  0
  4  5  1  0
  5  6  2  0
  5  7  1  0
  7  8  1  0
  8  9  1  0
  8 10  1  0
  8 11  1  0
 11 12  2  0
 12 13  1  0
 12 14  1  0
 14 15  1  0
 14 16  2  0
 16 17  1  0
 16 18  1  0
 18 19  1  0
 18 20  2  0
 20 21  1  0
 21 22  1  0
 21 23  1  0
 21 24  1  0
 24 25  1  0
 24 26  1  0
  4 27  2  0
 27 28  1  0
 27 29  1  0
 29 30  1  0
 30 31  2  0
 30 32  1  0
 32 33  1  0
 33 34  1  0
 33 35  2  0
 35 36  1  0
 35 37  1  0
 37 38  1  0
 37 39  2  0
 39 40  1  0
 39 41  1  0
 41 42  2  0
 42 43  1  0
 43 44  1  0
 44 45  1  0
 45 46  1  0
 45 47  1  0
 45 48  1  0
 48 49  2  0
 49 50  1  0
 49 51  1  0
 51 52  1  0
 51 53  2  0
 53 54  1  0
 53 55  1  0
 55 56  1  0
 55 57  2  0
 57 58  1  0
 44  3  1  0
 57 48  1  0
 24  7  1  0
 43 29  2  0
 20 11  1  0
 41 32  1  0
M  END
>  <UniqueID>  (55) 
127

>  <SMILES>  (55) 
[H]/N=c1/c(C(=O)N2CCc3ccccc3C2)cc2c(=O)n3ccccc3nc2n1Cc1ccccc1

>  <Energy>  (55) 
93.86281617098605

>  <Genealogy>  (55) 
[H]/N=c1/c(C(=O)N2CCc3ccccc3C2)cc2c(=O)n3ccccc3nc2n1Cc1ccccc1 (cis-trans isomerization)
[H]/N=c1/c(C(=O)N2CCc3ccccc3C2)cc2c(=O)n3ccccc3nc2n1Cc1ccccc1 (3D coordinates assigned)
[H]/N=c1/c(C(=O)N2CCc3ccccc3C2)cc2c(=O)n3ccccc3nc2n1Cc1ccccc1 (nonaromatic ring conformer: 93.86281617098605 kcal/mol)

>  <smiles>  (55) 
N=c1c(C(=O)N2CCc3ccccc3C2)cc2c(=O)n3ccccc3nc2n1Cc1ccccc1

>  <score_type>  (55) 
oracle

>  <origin>  (55) 
autodockgpu

>  <m_score__min__energy>  (55) 
-9.2699999999999996

>  <m_primary>  (55) 
energy

>  <meeko>  (55) 
{"free_energy": -8.51, "intermolecular_energy": -10.0, "internal_energy": -1.94, "cluster_size": 4, "cluster_id": 3, "rank_in_cluster": 2}

>  <energy>  (55) 
-8.62

>  <cluster_rmsd>  (55) 
0.0

>  <rmsd>  (55) 
269.33

>  <cluster>  (55) 
2

$$$$
DRTNTVLZUVPGHX-GNVQSUKONA-N
     RDKit          3D

 58 63  0  0  0  0  0  0  0  0999 V2000
  137.8470   74.4370  223.0890 H   0  0  0  0  0  0  0  0  0  0  0  0
  138.2420   73.8950  222.2940 N   0  0  0  0  0  0  0  0  0  0  0  0
  139.4830   73.8560  221.8960 C   0  0  0  0  0  0  0  0  0  0  0  0
  140.1550   75.0870  221.7210 C   0  0  0  0  0  0  0  0  0  0  0  0
  139.5250   76.3860  222.0740 C   0  0  0  0  0  0  0  0  0  0  0  0
  138.5680   76.4080  222.8940 O   0  0  0  0  0  0  0  0  0  0  0  0
  140.0080   77.6220  221.5130 N   0  0  0  0  0  0  0  0  0  0  0  0
  141.4330   77.9640  221.5660 C   0  0  0  0  0  0  0  0  0  0  0  0
  141.7940   78.1672  220.5470 H   0  0  0  0  0  0  0  0  0  0  0  0
  141.9842   77.1188  222.0038 H   0  0  0  0  0  0  0  0  0  0  0  0
  141.6550   79.1850  222.4230 C   0  0  0  0  0  0  0  0  0  0  0  0
  142.9530   79.4930  222.8560 C   0  0  0  0  0  0  0  0  0  0  0  0
  143.7871   78.8225  222.6015 H   0  0  0  0  0  0  0  0  0  0  0  0
  143.1940   80.6450  223.6080 C   0  0  0  0  0  0  0  0  0  0  0  0
  144.2138   80.8743  223.9508 H   0  0  0  0  0  0  0  0  0  0  0  0
  142.1410   81.5060  223.9250 C   0  0  0  0  0  0  0  0  0  0  0  0
  142.3328   82.4118  224.5190 H   0  0  0  0  0  0  0  0  0  0  0  0
  140.8460   81.2200  223.4900 C   0  0  0  0  0  0  0  0  0  0  0  0
  140.0201   81.8983  223.7504 H   0  0  0  0  0  0  0  0  0  0  0  0
  140.5900   80.0720  222.7220 C   0  0  0  0  0  0  0  0  0  0  0  0
  139.1640   79.7590  222.3250 C   0  0  0  0  0  0  0  0  0  0  0  0
  138.6817   80.6853  221.9795 H   0  0  0  0  0  0  0  0  0  0  0  0
  138.6530   79.3442  223.2064 H   0  0  0  0  0  0  0  0  0  0  0  0
  139.0870   78.7180  221.2070 C   0  0  0  0  0  0  0  0  0  0  0  0
  139.3704   79.1820  220.2507 H   0  0  0  0  0  0  0  0  0  0  0  0
  138.0604   78.3305  221.1296 H   0  0  0  0  0  0  0  0  0  0  0  0
  141.4530   75.0900  221.2090 C   0  0  0  0  0  0  0  0  0  0  0  0
  141.9839   76.0436  221.0718 H   0  0  0  0  0  0  0  0  0  0  0  0
  142.0820   73.8920  220.8700 C   0  0  0  0  0  0  0  0  0  0  0  0
  143.3830   73.8610  220.3290 C   0  0  0  0  0  0  0  0  0  0  0  0
  144.0060   74.9450  220.1390 O   0  0  0  0  0  0  0  0  0  0  0  0
  143.9680   72.6610  220.0070 N   0  0  0  0  0  0  0  0  0  0  0  0
  145.2350   72.6150  219.4760 C   0  0  0  0  0  0  0  0  0  0  0  0
  145.7881   73.5512  219.3097 H   0  0  0  0  0  0  0  0  0  0  0  0
  145.8290   71.3960  219.1450 C   0  0  0  0  0  0  0  0  0  0  0  0
  146.8435   71.3714  218.7205 H   0  0  0  0  0  0  0  0  0  0  0  0
  145.1280   70.2110  219.3560 C   0  0  0  0  0  0  0  0  0  0  0  0
  145.5859   69.2448  219.0977 H   0  0  0  0  0  0  0  0  0  0  0  0
  143.8460   70.2550  219.8950 C   0  0  0  0  0  0  0  0  0  0  0  0
  143.2852   69.3243  220.0660 H   0  0  0  0  0  0  0  0  0  0  0  0
  143.2750   71.4900  220.2180 C   0  0  0  0  0  0  0  0  0  0  0  0
  142.0260   71.5200  220.7440 N   0  0  0  0  0  0  0  0  0  0  0  0
  141.4030   72.6800  221.0790 C   0  0  0  0  0  0  0  0  0  0  0  0
  140.1280   72.6620  221.6070 N   0  0  0  0  0  0  0  0  0  0  0  0
  139.4990   71.3390  221.8380 C   0  0  0  0  0  0  0  0  0  0  0  0
  138.4238   71.4083  221.6161 H   0  0  0  0  0  0  0  0  0  0  0  0
  139.9818   70.6018  221.1796 H   0  0  0  0  0  0  0  0  0  0  0  0
  139.6800   70.8960  223.2700 C   0  0  0  0  0  0  0  0  0  0  0  0
  138.8790   69.8670  223.7990 C   0  0  0  0  0  0  0  0  0  0  0  0
  138.1278   69.3764  223.1626 H   0  0  0  0  0  0  0  0  0  0  0  0
  139.0330   69.4650  225.1290 C   0  0  0  0  0  0  0  0  0  0  0  0
  138.4037   68.6595  225.5355 H   0  0  0  0  0  0  0  0  0  0  0  0
  139.9840   70.0840  225.9420 C   0  0  0  0  0  0  0  0  0  0  0  0
  140.1021   69.7683  226.9891 H   0  0  0  0  0  0  0  0  0  0  0  0
  140.7860   71.1050  225.4250 C   0  0  0  0  0  0  0  0  0  0  0  0
  141.5368   71.5908  226.0655 H   0  0  0  0  0  0  0  0  0  0  0  0
  140.6360   71.5100  224.0960 C   0  0  0  0  0  0  0  0  0  0  0  0
  141.2701   72.3141  223.6944 H   0  0  0  0  0  0  0  0  0  0  0  0
  1  2  1  0
  2  3  2  0
  3  4  1  0
  4  5  1  0
  5  6  2  0
  5  7  1  0
  7  8  1  0
  8  9  1  0
  8 10  1  0
  8 11  1  0
 11 12  2  0
 12 13  1  0
 12 14  1  0
 14 15  1  0
 14 16  2  0
 16 17  1  0
 16 18  1  0
 18 19  1  0
 18 20  2  0
 20 21  1  0
 21 22  1  0
 21 23  1  0
 21 24  1  0
 24 25  1  0
 24 26  1  0
  4 27  2  0
 27 28  1  0
 27 29  1  0
 29 30  1  0
 30 31  2  0
 30 32  1  0
 32 33  1  0
 33 34  1  0
 33 35  2  0
 35 36  1  0
 35 37  1  0
 37 38  1  0
 37 39  2  0
 39 40  1  0
 39 41  1  0
 41 42  2  0
 42 43  1  0
 43 44  1  0
 44 45  1  0
 45 46  1  0
 45 47  1  0
 45 48  1  0
 48 49  2  0
 49 50  1  0
 49 51  1  0
 51 52  1  0
 51 53  2  0
 53 54  1  0
 53 55  1  0
 55 56  1  0
 55 57  2  0
 57 58  1  0
 44  3  1  0
 57 48  1  0
 24  7  1  0
 43 29  2  0
 20 11  1  0
 41 32  1  0
M  END
>  <UniqueID>  (56) 
127

>  <SMILES>  (56) 
[H]/N=c1/c(C(=O)N2CCc3ccccc3C2)cc2c(=O)n3ccccc3nc2n1Cc1ccccc1

>  <Energy>  (56) 
93.86281617098605

>  <Genealogy>  (56) 
[H]/N=c1/c(C(=O)N2CCc3ccccc3C2)cc2c(=O)n3ccccc3nc2n1Cc1ccccc1 (cis-trans isomerization)
[H]/N=c1/c(C(=O)N2CCc3ccccc3C2)cc2c(=O)n3ccccc3nc2n1Cc1ccccc1 (3D coordinates assigned)
[H]/N=c1/c(C(=O)N2CCc3ccccc3C2)cc2c(=O)n3ccccc3nc2n1Cc1ccccc1 (nonaromatic ring conformer: 93.86281617098605 kcal/mol)

>  <smiles>  (56) 
N=c1c(C(=O)N2CCc3ccccc3C2)cc2c(=O)n3ccccc3nc2n1Cc1ccccc1

>  <score_type>  (56) 
oracle

>  <origin>  (56) 
autodockgpu

>  <m_score__min__energy>  (56) 
-9.2699999999999996

>  <m_primary>  (56) 
energy

>  <meeko>  (56) 
{"free_energy": -9.25, "intermolecular_energy": -10.74, "internal_energy": -1.38, "cluster_size": 14, "cluster_id": 1, "rank_in_cluster": 13}

>  <energy>  (56) 
-8.53

>  <cluster_rmsd>  (56) 
0.0

>  <rmsd>  (56) 
269.27

>  <cluster>  (56) 
3

$$$$
DRTNTVLZUVPGHX-GNVQSUKONA-N
     RDKit          3D

 58 63  0  0  0  0  0  0  0  0999 V2000
  137.8540   74.4490  223.0860 H   0  0  0  0  0  0  0  0  0  0  0  0
  138.2570   73.8610  222.3300 N   0  0  0  0  0  0  0  0  0  0  0  0
  139.4960   73.8290  221.9230 C   0  0  0  0  0  0  0  0  0  0  0  0
  140.1610   75.0630  221.7430 C   0  0  0  0  0  0  0  0  0  0  0  0
  139.5260   76.3590  222.1010 C   0  0  0  0  0  0  0  0  0  0  0  0
  138.5760   76.3760  222.9300 O   0  0  0  0  0  0  0  0  0  0  0  0
  139.9980   77.5970  221.5350 N   0  0  0  0  0  0  0  0  0  0  0  0
  141.4220   77.9420  221.5650 C   0  0  0  0  0  0  0  0  0  0  0  0
  141.7658   78.1482  220.5407 H   0  0  0  0  0  0  0  0  0  0  0  0
  141.9829   77.0973  221.9914 H   0  0  0  0  0  0  0  0  0  0  0  0
  141.6540   79.1620  222.4210 C   0  0  0  0  0  0  0  0  0  0  0  0
  142.9590   79.4730  222.8340 C   0  0  0  0  0  0  0  0  0  0  0  0
  143.7909   78.8055  222.5650 H   0  0  0  0  0  0  0  0  0  0  0  0
  143.2080   80.6240  223.5840 C   0  0  0  0  0  0  0  0  0  0  0  0
  144.2325   80.8553  223.9108 H   0  0  0  0  0  0  0  0  0  0  0  0
  142.1590   81.4820  223.9200 C   0  0  0  0  0  0  0  0  0  0  0  0
  142.3581   82.3871  224.5126 H   0  0  0  0  0  0  0  0  0  0  0  0
  140.8580   81.1930  223.5050 C   0  0  0  0  0  0  0  0  0  0  0  0
  140.0347   81.8687  223.7799 H   0  0  0  0  0  0  0  0  0  0  0  0
  140.5920   80.0460  222.7390 C   0  0  0  0  0  0  0  0  0  0  0  0
  139.1610   79.7310  222.3640 C   0  0  0  0  0  0  0  0  0  0  0  0
  138.6718   80.6569  222.0271 H   0  0  0  0  0  0  0  0  0  0  0  0
  138.6647   79.3141  223.2528 H   0  0  0  0  0  0  0  0  0  0  0  0
  139.0680   78.6910  221.2460 C   0  0  0  0  0  0  0  0  0  0  0  0
  139.3335   79.1570  220.2856 H   0  0  0  0  0  0  0  0  0  0  0  0
  138.0414   78.3004  221.1857 H   0  0  0  0  0  0  0  0  0  0  0  0
  141.4550   75.0730  221.2230 C   0  0  0  0  0  0  0  0  0  0  0  0
  141.9802   76.0294  221.0831 H   0  0  0  0  0  0  0  0  0  0  0  0
  142.0880   73.8780  220.8790 C   0  0  0  0  0  0  0  0  0  0  0  0
  143.3850   73.8540  220.3290 C   0  0  0  0  0  0  0  0  0  0  0  0
  144.0010   74.9420  220.1350 O   0  0  0  0  0  0  0  0  0  0  0  0
  143.9750   72.6570  220.0030 N   0  0  0  0  0  0  0  0  0  0  0  0
  145.2370   72.6180  219.4630 C   0  0  0  0  0  0  0  0  0  0  0  0
  145.7835   73.5571  219.2915 H   0  0  0  0  0  0  0  0  0  0  0  0
  145.8350   71.4020  219.1290 C   0  0  0  0  0  0  0  0  0  0  0  0
  146.8468   71.3827  218.6978 H   0  0  0  0  0  0  0  0  0  0  0  0
  145.1430   70.2140  219.3450 C   0  0  0  0  0  0  0  0  0  0  0  0
  145.6049   69.2503  219.0846 H   0  0  0  0  0  0  0  0  0  0  0  0
  143.8640   70.2510  219.8920 C   0  0  0  0  0  0  0  0  0  0  0  0
  143.3088   69.3173  220.0653 H   0  0  0  0  0  0  0  0  0  0  0  0
  143.2890   71.4830  220.2200 C   0  0  0  0  0  0  0  0  0  0  0  0
  142.0430   71.5060  220.7540 N   0  0  0  0  0  0  0  0  0  0  0  0
  141.4160   72.6630  221.0940 C   0  0  0  0  0  0  0  0  0  0  0  0
  140.1450   72.6380  221.6300 N   0  0  0  0  0  0  0  0  0  0  0  0
  139.5250   71.3120  221.8660 C   0  0  0  0  0  0  0  0  0  0  0  0
  138.4541   71.3673  221.6209 H   0  0  0  0  0  0  0  0  0  0  0  0
  140.0296   70.5715  221.2280 H   0  0  0  0  0  0  0  0  0  0  0  0
  139.6800   70.8890  223.3070 C   0  0  0  0  0  0  0  0  0  0  0  0
  140.6440   71.5060  224.1250 C   0  0  0  0  0  0  0  0  0  0  0  0
  141.2772   72.3070  223.7159 H   0  0  0  0  0  0  0  0  0  0  0  0
  140.8010   71.1060  225.4550 C   0  0  0  0  0  0  0  0  0  0  0  0
  141.5565   71.5929  226.0892 H   0  0  0  0  0  0  0  0  0  0  0  0
  140.0010   70.0900  225.9800 C   0  0  0  0  0  0  0  0  0  0  0  0
  140.1277   69.7750  227.0263 H   0  0  0  0  0  0  0  0  0  0  0  0
  139.0390   69.4730  225.1760 C   0  0  0  0  0  0  0  0  0  0  0  0
  138.4077   68.6736  225.5912 H   0  0  0  0  0  0  0  0  0  0  0  0
  138.8770   69.8690  223.8460 C   0  0  0  0  0  0  0  0  0  0  0  0
  138.1176   69.3804  223.2178 H   0  0  0  0  0  0  0  0  0  0  0  0
  1  2  1  0
  2  3  2  0
  3  4  1  0
  4  5  1  0
  5  6  2  0
  5  7  1  0
  7  8  1  0
  8  9  1  0
  8 10  1  0
  8 11  1  0
 11 12  2  0
 12 13  1  0
 12 14  1  0
 14 15  1  0
 14 16  2  0
 16 17  1  0
 16 18  1  0
 18 19  1  0
 18 20  2  0
 20 21  1  0
 21 22  1  0
 21 23  1  0
 21 24  1  0
 24 25  1  0
 24 26  1  0
  4 27  2  0
 27 28  1  0
 27 29  1  0
 29 30  1  0
 30 31  2  0
 30 32  1  0
 32 33  1  0
 33 34  1  0
 33 35  2  0
 35 36  1  0
 35 37  1  0
 37 38  1  0
 37 39  2  0
 39 40  1  0
 39 41  1  0
 41 42  2  0
 42 43  1  0
 43 44  1  0
 44 45  1  0
 45 46  1  0
 45 47  1  0
 45 48  1  0
 48 49  2  0
 49 50  1  0
 49 51  1  0
 51 52  1  0
 51 53  2  0
 53 54  1  0
 53 55  1  0
 55 56  1  0
 55 57  2  0
 57 58  1  0
 44  3  1  0
 57 48  1  0
 24  7  1  0
 43 29  2  0
 20 11  1  0
 41 32  1  0
M  END
>  <UniqueID>  (57) 
127

>  <SMILES>  (57) 
[H]/N=c1/c(C(=O)N2CCc3ccccc3C2)cc2c(=O)n3ccccc3nc2n1Cc1ccccc1

>  <Energy>  (57) 
93.86281617098605

>  <Genealogy>  (57) 
[H]/N=c1/c(C(=O)N2CCc3ccccc3C2)cc2c(=O)n3ccccc3nc2n1Cc1ccccc1 (cis-trans isomerization)
[H]/N=c1/c(C(=O)N2CCc3ccccc3C2)cc2c(=O)n3ccccc3nc2n1Cc1ccccc1 (3D coordinates assigned)
[H]/N=c1/c(C(=O)N2CCc3ccccc3C2)cc2c(=O)n3ccccc3nc2n1Cc1ccccc1 (nonaromatic ring conformer: 93.86281617098605 kcal/mol)

>  <smiles>  (57) 
N=c1c(C(=O)N2CCc3ccccc3C2)cc2c(=O)n3ccccc3nc2n1Cc1ccccc1

>  <score_type>  (57) 
oracle

>  <origin>  (57) 
autodockgpu

>  <m_score__min__energy>  (57) 
-9.2699999999999996

>  <m_primary>  (57) 
energy

>  <meeko>  (57) 
{"free_energy": -9.27, "intermolecular_energy": -10.76, "internal_energy": -1.38, "cluster_size": 14, "cluster_id": 1, "rank_in_cluster": 5}

>  <energy>  (57) 
-8.51

>  <cluster_rmsd>  (57) 
0.06

>  <rmsd>  (57) 
269.25

>  <cluster>  (57) 
3

$$$$
DRTNTVLZUVPGHX-GNVQSUKONA-N
     RDKit          3D

 58 63  0  0  0  0  0  0  0  0999 V2000
  137.8410   74.4830  223.0820 H   0  0  0  0  0  0  0  0  0  0  0  0
  138.2360   73.8910  222.3250 N   0  0  0  0  0  0  0  0  0  0  0  0
  139.4730   73.8490  221.9130 C   0  0  0  0  0  0  0  0  0  0  0  0
  140.1430   75.0780  221.7170 C   0  0  0  0  0  0  0  0  0  0  0  0
  139.5160   76.3810  222.0620 C   0  0  0  0  0  0  0  0  0  0  0  0
  138.5440   76.4070  222.8650 O   0  0  0  0  0  0  0  0  0  0  0  0
  140.0200   77.6150  221.5160 N   0  0  0  0  0  0  0  0  0  0  0  0
  141.4470   77.9450  221.5960 C   0  0  0  0  0  0  0  0  0  0  0  0
  141.8281   78.1497  220.5846 H   0  0  0  0  0  0  0  0  0  0  0  0
  141.9840   77.0935  222.0394 H   0  0  0  0  0  0  0  0  0  0  0  0
  141.6620   79.1600  222.4620 C   0  0  0  0  0  0  0  0  0  0  0  0
  142.9550   79.4560  222.9200 C   0  0  0  0  0  0  0  0  0  0  0  0
  143.7883   78.7800  222.6780 H   0  0  0  0  0  0  0  0  0  0  0  0
  143.1910   80.6030  223.6810 C   0  0  0  0  0  0  0  0  0  0  0  0
  144.2062   80.8227  224.0431 H   0  0  0  0  0  0  0  0  0  0  0  0
  142.1390   81.4720  223.9830 C   0  0  0  0  0  0  0  0  0  0  0  0
  142.3269   82.3733  224.5849 H   0  0  0  0  0  0  0  0  0  0  0  0
  140.8500   81.1980  223.5220 C   0  0  0  0  0  0  0  0  0  0  0  0
  140.0249   81.8822  223.7691 H   0  0  0  0  0  0  0  0  0  0  0  0
  140.5990   80.0550  222.7450 C   0  0  0  0  0  0  0  0  0  0  0  0
  139.1780   79.7560  222.3210 C   0  0  0  0  0  0  0  0  0  0  0  0
  138.7102   80.6876  221.9697 H   0  0  0  0  0  0  0  0  0  0  0  0
  138.6470   79.3431  223.1914 H   0  0  0  0  0  0  0  0  0  0  0  0
  139.1130   78.7190  221.1980 C   0  0  0  0  0  0  0  0  0  0  0  0
  139.4167   79.1840  220.2485 H   0  0  0  0  0  0  0  0  0  0  0  0
  138.0851   78.3395  221.1015 H   0  0  0  0  0  0  0  0  0  0  0  0
  141.4350   75.0760  221.1900 C   0  0  0  0  0  0  0  0  0  0  0  0
  141.9640   76.0281  221.0362 H   0  0  0  0  0  0  0  0  0  0  0  0
  142.0600   73.8740  220.8570 C   0  0  0  0  0  0  0  0  0  0  0  0
  143.3550   73.8380  220.3010 C   0  0  0  0  0  0  0  0  0  0  0  0
  143.9750   74.9200  220.0920 O   0  0  0  0  0  0  0  0  0  0  0  0
  143.9370   72.6340  219.9860 N   0  0  0  0  0  0  0  0  0  0  0  0
  145.1970   72.5830  219.4410 C   0  0  0  0  0  0  0  0  0  0  0  0
  145.7474   73.5175  219.2575 H   0  0  0  0  0  0  0  0  0  0  0  0
  145.7880   71.3600  219.1170 C   0  0  0  0  0  0  0  0  0  0  0  0
  146.7977   71.3307  218.6816 H   0  0  0  0  0  0  0  0  0  0  0  0
  145.0900   70.1780  219.3490 C   0  0  0  0  0  0  0  0  0  0  0  0
  145.5454   69.2091  219.0962 H   0  0  0  0  0  0  0  0  0  0  0  0
  143.8140   70.2270  219.9020 C   0  0  0  0  0  0  0  0  0  0  0  0
  143.2554   69.2980  220.0891 H   0  0  0  0  0  0  0  0  0  0  0  0
  143.2470   71.4650  220.2180 C   0  0  0  0  0  0  0  0  0  0  0  0
  142.0030   71.5010  220.7580 N   0  0  0  0  0  0  0  0  0  0  0  0
  141.3840   72.6650  221.0880 C   0  0  0  0  0  0  0  0  0  0  0  0
  140.1150   72.6520  221.6300 N   0  0  0  0  0  0  0  0  0  0  0  0
  139.4900   71.3310  221.8830 C   0  0  0  0  0  0  0  0  0  0  0  0
  138.4114   71.3985  221.6781 H   0  0  0  0  0  0  0  0  0  0  0  0
  139.9625   70.5883  221.2234 H   0  0  0  0  0  0  0  0  0  0  0  0
  139.6940   70.9000  223.3150 C   0  0  0  0  0  0  0  0  0  0  0  0
  138.9030   69.8750  223.8650 C   0  0  0  0  0  0  0  0  0  0  0  0
  138.1421   69.3785  223.2449 H   0  0  0  0  0  0  0  0  0  0  0  0
  139.0790   69.4840  225.1960 C   0  0  0  0  0  0  0  0  0  0  0  0
  138.4573   68.6813  225.6193 H   0  0  0  0  0  0  0  0  0  0  0  0
  140.0430   70.1110  225.9890 C   0  0  0  0  0  0  0  0  0  0  0  0
  140.1784   69.8044  227.0367 H   0  0  0  0  0  0  0  0  0  0  0  0
  140.8350   71.1280  225.4500 C   0  0  0  0  0  0  0  0  0  0  0  0
  141.5958   71.6198  226.0739 H   0  0  0  0  0  0  0  0  0  0  0  0
  140.6630   71.5220  224.1200 C   0  0  0  0  0  0  0  0  0  0  0  0
  141.2896   72.3233  223.7014 H   0  0  0  0  0  0  0  0  0  0  0  0
  1  2  1  0
  2  3  2  0
  3  4  1  0
  4  5  1  0
  5  6  2  0
  5  7  1  0
  7  8  1  0
  8  9  1  0
  8 10  1  0
  8 11  1  0
 11 12  2  0
 12 13  1  0
 12 14  1  0
 14 15  1  0
 14 16  2  0
 16 17  1  0
 16 18  1  0
 18 19  1  0
 18 20  2  0
 20 21  1  0
 21 22  1  0
 21 23  1  0
 21 24  1  0
 24 25  1  0
 24 26  1  0
  4 27  2  0
 27 28  1  0
 27 29  1  0
 29 30  1  0
 30 31  2  0
 30 32  1  0
 32 33  1  0
 33 34  1  0
 33 35  2  0
 35 36  1  0
 35 37  1  0
 37 38  1  0
 37 39  2  0
 39 40  1  0
 39 41  1  0
 41 42  2  0
 42 43  1  0
 43 44  1  0
 44 45  1  0
 45 46  1  0
 45 47  1  0
 45 48  1  0
 48 49  2  0
 49 50  1  0
 49 51  1  0
 51 52  1  0
 51 53  2  0
 53 54  1  0
 53 55  1  0
 55 56  1  0
 55 57  2  0
 57 58  1  0
 44  3  1  0
 57 48  1  0
 24  7  1  0
 43 29  2  0
 20 11  1  0
 41 32  1  0
M  END
>  <UniqueID>  (58) 
127

>  <SMILES>  (58) 
[H]/N=c1/c(C(=O)N2CCc3ccccc3C2)cc2c(=O)n3ccccc3nc2n1Cc1ccccc1

>  <Energy>  (58) 
93.86281617098605

>  <Genealogy>  (58) 
[H]/N=c1/c(C(=O)N2CCc3ccccc3C2)cc2c(=O)n3ccccc3nc2n1Cc1ccccc1 (cis-trans isomerization)
[H]/N=c1/c(C(=O)N2CCc3ccccc3C2)cc2c(=O)n3ccccc3nc2n1Cc1ccccc1 (3D coordinates assigned)
[H]/N=c1/c(C(=O)N2CCc3ccccc3C2)cc2c(=O)n3ccccc3nc2n1Cc1ccccc1 (nonaromatic ring conformer: 93.86281617098605 kcal/mol)

>  <smiles>  (58) 
N=c1c(C(=O)N2CCc3ccccc3C2)cc2c(=O)n3ccccc3nc2n1Cc1ccccc1

>  <score_type>  (58) 
oracle

>  <origin>  (58) 
autodockgpu

>  <m_score__min__energy>  (58) 
-9.2699999999999996

>  <m_primary>  (58) 
energy

>  <meeko>  (58) 
{"free_energy": -9.27, "intermolecular_energy": -10.76, "internal_energy": -1.38, "cluster_size": 14, "cluster_id": 1, "rank_in_cluster": 7}

>  <energy>  (58) 
-8.48

>  <cluster_rmsd>  (58) 
0.06

>  <rmsd>  (58) 
269.25

>  <cluster>  (58) 
3

$$$$
DRTNTVLZUVPGHX-GNVQSUKONA-N
     RDKit          3D

 58 63  0  0  0  0  0  0  0  0999 V2000
  137.8650   74.4700  223.0750 H   0  0  0  0  0  0  0  0  0  0  0  0
  138.2670   73.8850  222.3160 N   0  0  0  0  0  0  0  0  0  0  0  0
  139.5060   73.8530  221.9090 C   0  0  0  0  0  0  0  0  0  0  0  0
  140.1690   75.0870  221.7240 C   0  0  0  0  0  0  0  0  0  0  0  0
  139.5320   76.3840  222.0750 C   0  0  0  0  0  0  0  0  0  0  0  0
  138.5680   76.4010  222.8880 O   0  0  0  0  0  0  0  0  0  0  0  0
  140.0180   77.6230  221.5240 N   0  0  0  0  0  0  0  0  0  0  0  0
  141.4430   77.9630  221.5810 C   0  0  0  0  0  0  0  0  0  0  0  0
  141.8056   78.1724  220.5638 H   0  0  0  0  0  0  0  0  0  0  0  0
  141.9928   77.1144  222.0140 H   0  0  0  0  0  0  0  0  0  0  0  0
  141.6650   79.1780  222.4460 C   0  0  0  0  0  0  0  0  0  0  0  0
  142.9630   79.4820  222.8830 C   0  0  0  0  0  0  0  0  0  0  0  0
  143.7970   78.8124  222.6260 H   0  0  0  0  0  0  0  0  0  0  0  0
  143.2030   80.6290  223.6420 C   0  0  0  0  0  0  0  0  0  0  0  0
  144.2226   80.8556  223.9870 H   0  0  0  0  0  0  0  0  0  0  0  0
  142.1510   81.4890  223.9640 C   0  0  0  0  0  0  0  0  0  0  0  0
  142.3427   82.3900  224.5652 H   0  0  0  0  0  0  0  0  0  0  0  0
  140.8560   81.2070  223.5240 C   0  0  0  0  0  0  0  0  0  0  0  0
  140.0302   81.8847  223.7862 H   0  0  0  0  0  0  0  0  0  0  0  0
  140.6010   80.0640  222.7490 C   0  0  0  0  0  0  0  0  0  0  0  0
  139.1750   79.7560  222.3480 C   0  0  0  0  0  0  0  0  0  0  0  0
  138.6949   80.6852  222.0072 H   0  0  0  0  0  0  0  0  0  0  0  0
  138.6618   79.3370  223.2261 H   0  0  0  0  0  0  0  0  0  0  0  0
  139.0980   78.7210  221.2230 C   0  0  0  0  0  0  0  0  0  0  0  0
  139.3826   79.1902  220.2697 H   0  0  0  0  0  0  0  0  0  0  0  0
  138.0712   78.3348  221.1420 H   0  0  0  0  0  0  0  0  0  0  0  0
  141.4630   75.0970  221.2030 C   0  0  0  0  0  0  0  0  0  0  0  0
  141.9868   76.0534  221.0585 H   0  0  0  0  0  0  0  0  0  0  0  0
  142.0970   73.9010  220.8640 C   0  0  0  0  0  0  0  0  0  0  0  0
  143.3950   73.8770  220.3140 C   0  0  0  0  0  0  0  0  0  0  0  0
  144.0090   74.9640  220.1150 O   0  0  0  0  0  0  0  0  0  0  0  0
  143.9860   72.6790  219.9940 N   0  0  0  0  0  0  0  0  0  0  0  0
  145.2480   72.6390  219.4530 C   0  0  0  0  0  0  0  0  0  0  0  0
  145.7929   73.5782  219.2768 H   0  0  0  0  0  0  0  0  0  0  0  0
  145.8480   71.4230  219.1240 C   0  0  0  0  0  0  0  0  0  0  0  0
  146.8599   71.4035  218.6930 H   0  0  0  0  0  0  0  0  0  0  0  0
  145.1570   70.2340  219.3450 C   0  0  0  0  0  0  0  0  0  0  0  0
  145.6196   69.2698  219.0875 H   0  0  0  0  0  0  0  0  0  0  0  0
  143.8790   70.2720  219.8930 C   0  0  0  0  0  0  0  0  0  0  0  0
  143.3256   69.3384  220.0720 H   0  0  0  0  0  0  0  0  0  0  0  0
  143.3020   71.5050  220.2150 C   0  0  0  0  0  0  0  0  0  0  0  0
  142.0560   71.5280  220.7500 N   0  0  0  0  0  0  0  0  0  0  0  0
  141.4280   72.6860  221.0840 C   0  0  0  0  0  0  0  0  0  0  0  0
  140.1570   72.6620  221.6220 N   0  0  0  0  0  0  0  0  0  0  0  0
  139.5390   71.3360  221.8630 C   0  0  0  0  0  0  0  0  0  0  0  0
  138.4642   71.3937  221.6363 H   0  0  0  0  0  0  0  0  0  0  0  0
  140.0311   70.5971  221.2135 H   0  0  0  0  0  0  0  0  0  0  0  0
  139.7180   70.9080  223.2990 C   0  0  0  0  0  0  0  0  0  0  0  0
  138.9070   69.8950  223.8420 C   0  0  0  0  0  0  0  0  0  0  0  0
  138.1490   69.4053  223.2130 H   0  0  0  0  0  0  0  0  0  0  0  0
  139.0590   69.5070  225.1770 C   0  0  0  0  0  0  0  0  0  0  0  0
  138.4213   68.7140  225.5947 H   0  0  0  0  0  0  0  0  0  0  0  0
  140.0190   70.1250  225.9800 C   0  0  0  0  0  0  0  0  0  0  0  0
  140.1356   69.8210  227.0307 H   0  0  0  0  0  0  0  0  0  0  0  0
  140.8320   71.1300  225.4490 C   0  0  0  0  0  0  0  0  0  0  0  0
  141.5900   71.6144  226.0821 H   0  0  0  0  0  0  0  0  0  0  0  0
  140.6840   71.5210  224.1150 C   0  0  0  0  0  0  0  0  0  0  0  0
  141.3268   72.3124  223.7021 H   0  0  0  0  0  0  0  0  0  0  0  0
  1  2  1  0
  2  3  2  0
  3  4  1  0
  4  5  1  0
  5  6  2  0
  5  7  1  0
  7  8  1  0
  8  9  1  0
  8 10  1  0
  8 11  1  0
 11 12  2  0
 12 13  1  0
 12 14  1  0
 14 15  1  0
 14 16  2  0
 16 17  1  0
 16 18  1  0
 18 19  1  0
 18 20  2  0
 20 21  1  0
 21 22  1  0
 21 23  1  0
 21 24  1  0
 24 25  1  0
 24 26  1  0
  4 27  2  0
 27 28  1  0
 27 29  1  0
 29 30  1  0
 30 31  2  0
 30 32  1  0
 32 33  1  0
 33 34  1  0
 33 35  2  0
 35 36  1  0
 35 37  1  0
 37 38  1  0
 37 39  2  0
 39 40  1  0
 39 41  1  0
 41 42  2  0
 42 43  1  0
 43 44  1  0
 44 45  1  0
 45 46  1  0
 45 47  1  0
 45 48  1  0
 48 49  2  0
 49 50  1  0
 49 51  1  0
 51 52  1  0
 51 53  2  0
 53 54  1  0
 53 55  1  0
 55 56  1  0
 55 57  2  0
 57 58  1  0
 44  3  1  0
 57 48  1  0
 24  7  1  0
 43 29  2  0
 20 11  1  0
 41 32  1  0
M  END
>  <UniqueID>  (59) 
127

>  <SMILES>  (59) 
[H]/N=c1/c(C(=O)N2CCc3ccccc3C2)cc2c(=O)n3ccccc3nc2n1Cc1ccccc1

>  <Energy>  (59) 
93.86281617098605

>  <Genealogy>  (59) 
[H]/N=c1/c(C(=O)N2CCc3ccccc3C2)cc2c(=O)n3ccccc3nc2n1Cc1ccccc1 (cis-trans isomerization)
[H]/N=c1/c(C(=O)N2CCc3ccccc3C2)cc2c(=O)n3ccccc3nc2n1Cc1ccccc1 (3D coordinates assigned)
[H]/N=c1/c(C(=O)N2CCc3ccccc3C2)cc2c(=O)n3ccccc3nc2n1Cc1ccccc1 (nonaromatic ring conformer: 93.86281617098605 kcal/mol)

>  <smiles>  (59) 
N=c1c(C(=O)N2CCc3ccccc3C2)cc2c(=O)n3ccccc3nc2n1Cc1ccccc1

>  <score_type>  (59) 
oracle

>  <origin>  (59) 
autodockgpu

>  <m_score__min__energy>  (59) 
-9.2699999999999996

>  <m_primary>  (59) 
energy

>  <meeko>  (59) 
{"free_energy": -9.27, "intermolecular_energy": -10.76, "internal_energy": -1.37, "cluster_size": 14, "cluster_id": 1, "rank_in_cluster": 3}

>  <energy>  (59) 
-8.24

>  <cluster_rmsd>  (59) 
0.26

>  <rmsd>  (59) 
269.18

>  <cluster>  (59) 
3

$$$$
DRTNTVLZUVPGHX-GNVQSUKONA-N
     RDKit          3D

 58 63  0  0  0  0  0  0  0  0999 V2000
  139.3700   74.3010  222.7620 H   0  0  0  0  0  0  0  0  0  0  0  0
  140.3120   74.2300  222.3270 N   0  0  0  0  0  0  0  0  0  0  0  0
  140.8190   74.9950  221.4010 C   0  0  0  0  0  0  0  0  0  0  0  0
  140.5110   76.3740  221.4450 C   0  0  0  0  0  0  0  0  0  0  0  0
  139.7270   76.9700  222.5590 C   0  0  0  0  0  0  0  0  0  0  0  0
  138.7640   76.3240  223.0550 O   0  0  0  0  0  0  0  0  0  0  0  0
  140.0690   78.2620  223.0980 N   0  0  0  0  0  0  0  0  0  0  0  0
  139.1750   79.4100  222.9190 C   0  0  0  0  0  0  0  0  0  0  0  0
  138.9305   79.8350  223.9037 H   0  0  0  0  0  0  0  0  0  0  0  0
  138.2589   79.0709  222.4132 H   0  0  0  0  0  0  0  0  0  0  0  0
  139.8350   80.4690  222.0720 C   0  0  0  0  0  0  0  0  0  0  0  0
  139.0510   81.4970  221.5260 C   0  0  0  0  0  0  0  0  0  0  0  0
  137.9628   81.4986  221.6866 H   0  0  0  0  0  0  0  0  0  0  0  0
  139.6440   82.5180  220.7800 C   0  0  0  0  0  0  0  0  0  0  0  0
  139.0213   83.3155  220.3484 H   0  0  0  0  0  0  0  0  0  0  0  0
  141.0270   82.5280  220.5810 C   0  0  0  0  0  0  0  0  0  0  0  0
  141.4910   83.3320  219.9909 H   0  0  0  0  0  0  0  0  0  0  0  0
  141.8210   81.5190  221.1300 C   0  0  0  0  0  0  0  0  0  0  0  0
  142.9083   81.5284  220.9638 H   0  0  0  0  0  0  0  0  0  0  0  0
  141.2410   80.4920  221.8930 C   0  0  0  0  0  0  0  0  0  0  0  0
  142.1240   79.3800  222.4150 C   0  0  0  0  0  0  0  0  0  0  0  0
  143.0445   79.8219  222.8241 H   0  0  0  0  0  0  0  0  0  0  0  0
  142.3416   78.7019  221.5767 H   0  0  0  0  0  0  0  0  0  0  0  0
  141.4410   78.5620  223.5130 C   0  0  0  0  0  0  0  0  0  0  0  0
  141.4256   79.1403  224.4486 H   0  0  0  0  0  0  0  0  0  0  0  0
  141.9935   77.6252  223.6777 H   0  0  0  0  0  0  0  0  0  0  0  0
  140.9590   77.2090  220.4210 C   0  0  0  0  0  0  0  0  0  0  0  0
  140.7253   78.2835  220.4500 H   0  0  0  0  0  0  0  0  0  0  0  0
  141.7020   76.6890  219.3600 C   0  0  0  0  0  0  0  0  0  0  0  0
  142.1500   77.5000  218.2980 C   0  0  0  0  0  0  0  0  0  0  0  0
  141.8740   78.7340  218.2950 O   0  0  0  0  0  0  0  0  0  0  0  0
  142.8780   76.9500  217.2710 N   0  0  0  0  0  0  0  0  0  0  0  0
  143.3190   77.7270  216.2270 C   0  0  0  0  0  0  0  0  0  0  0  0
  143.0883   78.8025  216.2154 H   0  0  0  0  0  0  0  0  0  0  0  0
  144.0560   77.1690  215.1810 C   0  0  0  0  0  0  0  0  0  0  0  0
  144.4038   77.8007  214.3503 H   0  0  0  0  0  0  0  0  0  0  0  0
  144.3480   75.8080  215.1960 C   0  0  0  0  0  0  0  0  0  0  0  0
  144.9275   75.3578  214.3765 H   0  0  0  0  0  0  0  0  0  0  0  0
  143.9030   75.0200  216.2530 C   0  0  0  0  0  0  0  0  0  0  0  0
  144.1283   73.9435  216.2734 H   0  0  0  0  0  0  0  0  0  0  0  0
  143.1680   75.6040  217.2890 C   0  0  0  0  0  0  0  0  0  0  0  0
  142.7410   74.8260  218.3140 N   0  0  0  0  0  0  0  0  0  0  0  0
  142.0180   75.3200  219.3530 C   0  0  0  0  0  0  0  0  0  0  0  0
  141.6010   74.4890  220.3730 N   0  0  0  0  0  0  0  0  0  0  0  0
  142.0160   73.0660  220.3110 C   0  0  0  0  0  0  0  0  0  0  0  0
  141.6291   72.5397  221.1961 H   0  0  0  0  0  0  0  0  0  0  0  0
  141.6095   72.6226  219.3901 H   0  0  0  0  0  0  0  0  0  0  0  0
  143.5200   72.9410  220.2810 C   0  0  0  0  0  0  0  0  0  0  0  0
  144.3250   73.9490  220.8420 C   0  0  0  0  0  0  0  0  0  0  0  0
  143.8558   74.8241  221.3153 H   0  0  0  0  0  0  0  0  0  0  0  0
  145.7180   73.8440  220.8010 C   0  0  0  0  0  0  0  0  0  0  0  0
  146.3413   74.6364  221.2410 H   0  0  0  0  0  0  0  0  0  0  0  0
  146.3200   72.7360  220.2030 C   0  0  0  0  0  0  0  0  0  0  0  0
  147.4166   72.6563  220.1702 H   0  0  0  0  0  0  0  0  0  0  0  0
  145.5290   71.7280  219.6460 C   0  0  0  0  0  0  0  0  0  0  0  0
  146.0040   70.8539  219.1766 H   0  0  0  0  0  0  0  0  0  0  0  0
  144.1350   71.8280  219.6840 C   0  0  0  0  0  0  0  0  0  0  0  0
  143.5169   71.0314  219.2443 H   0  0  0  0  0  0  0  0  0  0  0  0
  1  2  1  0
  2  3  2  0
  3  4  1  0
  4  5  1  0
  5  6  2  0
  5  7  1  0
  7  8  1  0
  8  9  1  0
  8 10  1  0
  8 11  1  0
 11 12  2  0
 12 13  1  0
 12 14  1  0
 14 15  1  0
 14 16  2  0
 16 17  1  0
 16 18  1  0
 18 19  1  0
 18 20  2  0
 20 21  1  0
 21 22  1  0
 21 23  1  0
 21 24  1  0
 24 25  1  0
 24 26  1  0
  4 27  2  0
 27 28  1  0
 27 29  1  0
 29 30  1  0
 30 31  2  0
 30 32  1  0
 32 33  1  0
 33 34  1  0
 33 35  2  0
 35 36  1  0
 35 37  1  0
 37 38  1  0
 37 39  2  0
 39 40  1  0
 39 41  1  0
 41 42  2  0
 42 43  1  0
 43 44  1  0
 44 45  1  0
 45 46  1  0
 45 47  1  0
 45 48  1  0
 48 49  2  0
 49 50  1  0
 49 51  1  0
 51 52  1  0
 51 53  2  0
 53 54  1  0
 53 55  1  0
 55 56  1  0
 55 57  2  0
 57 58  1  0
 44  3  1  0
 57 48  1  0
 24  7  1  0
 43 29  2  0
 20 11  1  0
 41 32  1  0
M  END
>  <UniqueID>  (60) 
127

>  <SMILES>  (60) 
[H]/N=c1/c(C(=O)N2CCc3ccccc3C2)cc2c(=O)n3ccccc3nc2n1Cc1ccccc1

>  <Energy>  (60) 
93.86281617098605

>  <Genealogy>  (60) 
[H]/N=c1/c(C(=O)N2CCc3ccccc3C2)cc2c(=O)n3ccccc3nc2n1Cc1ccccc1 (cis-trans isomerization)
[H]/N=c1/c(C(=O)N2CCc3ccccc3C2)cc2c(=O)n3ccccc3nc2n1Cc1ccccc1 (3D coordinates assigned)
[H]/N=c1/c(C(=O)N2CCc3ccccc3C2)cc2c(=O)n3ccccc3nc2n1Cc1ccccc1 (nonaromatic ring conformer: 93.86281617098605 kcal/mol)

>  <smiles>  (60) 
N=c1c(C(=O)N2CCc3ccccc3C2)cc2c(=O)n3ccccc3nc2n1Cc1ccccc1

>  <score_type>  (60) 
oracle

>  <origin>  (60) 
autodockgpu

>  <m_score__min__energy>  (60) 
-9.2699999999999996

>  <m_primary>  (60) 
energy

>  <meeko>  (60) 
{"free_energy": -8.24, "intermolecular_energy": -9.74, "internal_energy": -2.02, "cluster_size": 4, "cluster_id": 3, "rank_in_cluster": 4}

>  <energy>  (60) 
-8.52

>  <cluster_rmsd>  (60) 
0.0

>  <rmsd>  (60) 
269.18

>  <cluster>  (60) 
4

$$$$
DRTNTVLZUVPGHX-GNVQSUKONA-N
     RDKit          3D

 58 63  0  0  0  0  0  0  0  0999 V2000
  137.8630   74.4670  223.0880 H   0  0  0  0  0  0  0  0  0  0  0  0
  138.2570   73.8840  222.3230 N   0  0  0  0  0  0  0  0  0  0  0  0
  139.4940   73.8430  221.9120 C   0  0  0  0  0  0  0  0  0  0  0  0
  140.1640   75.0730  221.7180 C   0  0  0  0  0  0  0  0  0  0  0  0
  139.5360   76.3750  222.0650 C   0  0  0  0  0  0  0  0  0  0  0  0
  138.5700   76.4010  222.8760 O   0  0  0  0  0  0  0  0  0  0  0  0
  140.0310   77.6090  221.5100 N   0  0  0  0  0  0  0  0  0  0  0  0
  141.4600   77.9350  221.5620 C   0  0  0  0  0  0  0  0  0  0  0  0
  141.8217   78.1397  220.5435 H   0  0  0  0  0  0  0  0  0  0  0  0
  142.0035   77.0817  221.9938 H   0  0  0  0  0  0  0  0  0  0  0  0
  141.6950   79.1490  222.4250 C   0  0  0  0  0  0  0  0  0  0  0  0
  142.9980   79.4410  222.8580 C   0  0  0  0  0  0  0  0  0  0  0  0
  143.8245   78.7629  222.5990 H   0  0  0  0  0  0  0  0  0  0  0  0
  143.2520   80.5860  223.6150 C   0  0  0  0  0  0  0  0  0  0  0  0
  144.2750   80.8029  223.9562 H   0  0  0  0  0  0  0  0  0  0  0  0
  142.2090   81.4570  223.9400 C   0  0  0  0  0  0  0  0  0  0  0  0
  142.4115   82.3568  224.5395 H   0  0  0  0  0  0  0  0  0  0  0  0
  140.9100   81.1870  223.5050 C   0  0  0  0  0  0  0  0  0  0  0  0
  140.0919   81.8728  223.7703 H   0  0  0  0  0  0  0  0  0  0  0  0
  140.6400   80.0460  222.7310 C   0  0  0  0  0  0  0  0  0  0  0  0
  139.2100   79.7500  222.3350 C   0  0  0  0  0  0  0  0  0  0  0  0
  138.7368   80.6831  221.9952 H   0  0  0  0  0  0  0  0  0  0  0  0
  138.6964   79.3359  223.2152 H   0  0  0  0  0  0  0  0  0  0  0  0
  139.1200   78.7160  221.2120 C   0  0  0  0  0  0  0  0  0  0  0  0
  139.4057   79.1822  220.2575 H   0  0  0  0  0  0  0  0  0  0  0  0
  138.0894   78.3392  221.1351 H   0  0  0  0  0  0  0  0  0  0  0  0
  141.4560   75.0720  221.1920 C   0  0  0  0  0  0  0  0  0  0  0  0
  141.9846   76.0245  221.0396 H   0  0  0  0  0  0  0  0  0  0  0  0
  142.0820   73.8710  220.8580 C   0  0  0  0  0  0  0  0  0  0  0  0
  143.3780   73.8360  220.3030 C   0  0  0  0  0  0  0  0  0  0  0  0
  143.9970   74.9190  220.0960 O   0  0  0  0  0  0  0  0  0  0  0  0
  143.9600   72.6330  219.9870 N   0  0  0  0  0  0  0  0  0  0  0  0
  145.2210   72.5840  219.4420 C   0  0  0  0  0  0  0  0  0  0  0  0
  145.7709   73.5191  219.2598 H   0  0  0  0  0  0  0  0  0  0  0  0
  145.8120   71.3620  219.1170 C   0  0  0  0  0  0  0  0  0  0  0  0
  146.8219   71.3339  218.6820 H   0  0  0  0  0  0  0  0  0  0  0  0
  145.1150   70.1790  219.3470 C   0  0  0  0  0  0  0  0  0  0  0  0
  145.5712   69.2107  219.0934 H   0  0  0  0  0  0  0  0  0  0  0  0
  143.8390   70.2270  219.8990 C   0  0  0  0  0  0  0  0  0  0  0  0
  143.2810   69.2973  220.0842 H   0  0  0  0  0  0  0  0  0  0  0  0
  143.2700   71.4640  220.2170 C   0  0  0  0  0  0  0  0  0  0  0  0
  142.0270   71.4980  220.7560 N   0  0  0  0  0  0  0  0  0  0  0  0
  141.4060   72.6610  221.0860 C   0  0  0  0  0  0  0  0  0  0  0  0
  140.1370   72.6470  221.6280 N   0  0  0  0  0  0  0  0  0  0  0  0
  139.5120   71.3250  221.8780 C   0  0  0  0  0  0  0  0  0  0  0  0
  138.4347   71.3904  221.6653 H   0  0  0  0  0  0  0  0  0  0  0  0
  139.9897   70.5819  221.2226 H   0  0  0  0  0  0  0  0  0  0  0  0
  139.7070   70.8970  223.3130 C   0  0  0  0  0  0  0  0  0  0  0  0
  138.9040   69.8820  223.8630 C   0  0  0  0  0  0  0  0  0  0  0  0
  138.1408   69.3908  223.2416 H   0  0  0  0  0  0  0  0  0  0  0  0
  139.0710   69.4940  225.1960 C   0  0  0  0  0  0  0  0  0  0  0  0
  138.4392   68.6995  225.6197 H   0  0  0  0  0  0  0  0  0  0  0  0
  140.0380   70.1130  225.9900 C   0  0  0  0  0  0  0  0  0  0  0  0
  140.1662   69.8083  227.0392 H   0  0  0  0  0  0  0  0  0  0  0  0
  140.8430   71.1200  225.4510 C   0  0  0  0  0  0  0  0  0  0  0  0
  141.6068   71.6054  226.0763 H   0  0  0  0  0  0  0  0  0  0  0  0
  140.6800   71.5120  224.1190 C   0  0  0  0  0  0  0  0  0  0  0  0
  141.3163   72.3055  223.7000 H   0  0  0  0  0  0  0  0  0  0  0  0
  1  2  1  0
  2  3  2  0
  3  4  1  0
  4  5  1  0
  5  6  2  0
  5  7  1  0
  7  8  1  0
  8  9  1  0
  8 10  1  0
  8 11  1  0
 11 12  2  0
 12 13  1  0
 12 14  1  0
 14 15  1  0
 14 16  2  0
 16 17  1  0
 16 18  1  0
 18 19  1  0
 18 20  2  0
 20 21  1  0
 21 22  1  0
 21 23  1  0
 21 24  1  0
 24 25  1  0
 24 26  1  0
  4 27  2  0
 27 28  1  0
 27 29  1  0
 29 30  1  0
 30 31  2  0
 30 32  1  0
 32 33  1  0
 33 34  1  0
 33 35  2  0
 35 36  1  0
 35 37  1  0
 37 38  1  0
 37 39  2  0
 39 40  1  0
 39 41  1  0
 41 42  2  0
 42 43  1  0
 43 44  1  0
 44 45  1  0
 45 46  1  0
 45 47  1  0
 45 48  1  0
 48 49  2  0
 49 50  1  0
 49 51  1  0
 51 52  1  0
 51 53  2  0
 53 54  1  0
 53 55  1  0
 55 56  1  0
 55 57  2  0
 57 58  1  0
 44  3  1  0
 57 48  1  0
 24  7  1  0
 43 29  2  0
 20 11  1  0
 41 32  1  0
M  END
>  <UniqueID>  (61) 
128

>  <SMILES>  (61) 
[H]/N=c1/c(C(=O)N2CCc3ccccc3C2)cc2c(=O)n3ccccc3nc2n1Cc1ccccc1

>  <Energy>  (61) 
94.15441284030814

>  <Genealogy>  (61) 
[H]/N=c1/c(C(=O)N2CCc3ccccc3C2)cc2c(=O)n3ccccc3nc2n1Cc1ccccc1 (cis-trans isomerization)
[H]/N=c1/c(C(=O)N2CCc3ccccc3C2)cc2c(=O)n3ccccc3nc2n1Cc1ccccc1 (3D coordinates assigned)
[H]/N=c1/c(C(=O)N2CCc3ccccc3C2)cc2c(=O)n3ccccc3nc2n1Cc1ccccc1 (nonaromatic ring conformer: 94.15441284030814 kcal/mol)

>  <smiles>  (61) 
N=c1c(C(=O)N2CCc3ccccc3C2)cc2c(=O)n3ccccc3nc2n1Cc1ccccc1

>  <score_type>  (61) 
oracle

>  <origin>  (61) 
autodockgpu

>  <m_score__min__energy>  (61) 
-9.2699999999999996

>  <m_primary>  (61) 
energy

>  <meeko>  (61) 
{"free_energy": -9.27, "intermolecular_energy": -10.76, "internal_energy": -1.38, "cluster_size": 14, "cluster_id": 1, "rank_in_cluster": 4}

>  <energy>  (61) 
-9.27

>  <cluster_rmsd>  (61) 
0.0

>  <rmsd>  (61) 
269.73

>  <cluster>  (61) 
1

$$$$
DRTNTVLZUVPGHX-GNVQSUKONA-N
     RDKit          3D

 58 63  0  0  0  0  0  0  0  0999 V2000
  137.8510   74.4580  223.0960 H   0  0  0  0  0  0  0  0  0  0  0  0
  138.2480   73.8700  222.3360 N   0  0  0  0  0  0  0  0  0  0  0  0
  139.4850   73.8310  221.9260 C   0  0  0  0  0  0  0  0  0  0  0  0
  140.1550   75.0620  221.7390 C   0  0  0  0  0  0  0  0  0  0  0  0
  139.5270   76.3620  222.0920 C   0  0  0  0  0  0  0  0  0  0  0  0
  138.5660   76.3850  222.9090 O   0  0  0  0  0  0  0  0  0  0  0  0
  140.0160   77.5990  221.5370 N   0  0  0  0  0  0  0  0  0  0  0  0
  141.4430   77.9310  221.5890 C   0  0  0  0  0  0  0  0  0  0  0  0
  141.8036   78.1372  220.5704 H   0  0  0  0  0  0  0  0  0  0  0  0
  141.9897   77.0799  222.0211 H   0  0  0  0  0  0  0  0  0  0  0  0
  141.6740   79.1460  222.4520 C   0  0  0  0  0  0  0  0  0  0  0  0
  142.9760   79.4440  222.8840 C   0  0  0  0  0  0  0  0  0  0  0  0
  143.8058   78.7702  222.6243 H   0  0  0  0  0  0  0  0  0  0  0  0
  143.2240   80.5900  223.6410 C   0  0  0  0  0  0  0  0  0  0  0  0
  144.2459   80.8115  223.9824 H   0  0  0  0  0  0  0  0  0  0  0  0
  142.1780   81.4560  223.9660 C   0  0  0  0  0  0  0  0  0  0  0  0
  142.3769   82.3570  224.5649 H   0  0  0  0  0  0  0  0  0  0  0  0
  140.8800   81.1800  223.5320 C   0  0  0  0  0  0  0  0  0  0  0  0
  140.0588   81.8618  223.7981 H   0  0  0  0  0  0  0  0  0  0  0  0
  140.6150   80.0380  222.7580 C   0  0  0  0  0  0  0  0  0  0  0  0
  139.1860   79.7360  222.3630 C   0  0  0  0  0  0  0  0  0  0  0  0
  138.7087   80.6670  222.0232 H   0  0  0  0  0  0  0  0  0  0  0  0
  138.6744   79.3201  223.2435 H   0  0  0  0  0  0  0  0  0  0  0  0
  139.1000   78.7010  221.2400 C   0  0  0  0  0  0  0  0  0  0  0  0
  139.3826   79.1684  220.2852 H   0  0  0  0  0  0  0  0  0  0  0  0
  138.0712   78.3192  221.1643 H   0  0  0  0  0  0  0  0  0  0  0  0
  141.4480   75.0650  221.2140 C   0  0  0  0  0  0  0  0  0  0  0  0
  141.9766   76.0184  221.0674 H   0  0  0  0  0  0  0  0  0  0  0  0
  142.0740   73.8650  220.8740 C   0  0  0  0  0  0  0  0  0  0  0  0
  143.3700   73.8340  220.3200 C   0  0  0  0  0  0  0  0  0  0  0  0
  143.9900   74.9180  220.1190 O   0  0  0  0  0  0  0  0  0  0  0  0
  143.9530   72.6330  219.9970 N   0  0  0  0  0  0  0  0  0  0  0  0
  145.2140   72.5870  219.4530 C   0  0  0  0  0  0  0  0  0  0  0  0
  145.7638   73.5232  219.2762 H   0  0  0  0  0  0  0  0  0  0  0  0
  145.8060   71.3670  219.1220 C   0  0  0  0  0  0  0  0  0  0  0  0
  146.8164   71.3417  218.6879 H   0  0  0  0  0  0  0  0  0  0  0  0
  145.1090   70.1820  219.3450 C   0  0  0  0  0  0  0  0  0  0  0  0
  145.5658   69.2152  219.0868 H   0  0  0  0  0  0  0  0  0  0  0  0
  143.8320   70.2270  219.8960 C   0  0  0  0  0  0  0  0  0  0  0  0
  143.2737   69.2964  220.0755 H   0  0  0  0  0  0  0  0  0  0  0  0
  143.2630   71.4620  220.2200 C   0  0  0  0  0  0  0  0  0  0  0  0
  142.0190   71.4930  220.7590 N   0  0  0  0  0  0  0  0  0  0  0  0
  141.3980   72.6540  221.0950 C   0  0  0  0  0  0  0  0  0  0  0  0
  140.1290   72.6370  221.6360 N   0  0  0  0  0  0  0  0  0  0  0  0
  139.5040   71.3140  221.8790 C   0  0  0  0  0  0  0  0  0  0  0  0
  138.4341   71.3705  221.6297 H   0  0  0  0  0  0  0  0  0  0  0  0
  140.0081   70.5673  221.2479 H   0  0  0  0  0  0  0  0  0  0  0  0
  139.6530   70.9020  223.3230 C   0  0  0  0  0  0  0  0  0  0  0  0
  140.6410   71.4950  224.1300 C   0  0  0  0  0  0  0  0  0  0  0  0
  141.2982   72.2704  223.7094 H   0  0  0  0  0  0  0  0  0  0  0  0
  140.7920   71.1040  225.4640 C   0  0  0  0  0  0  0  0  0  0  0  0
  141.5660   71.5731  226.0891 H   0  0  0  0  0  0  0  0  0  0  0  0
  139.9630   70.1200  226.0040 C   0  0  0  0  0  0  0  0  0  0  0  0
  140.0855   69.8115  227.0527 H   0  0  0  0  0  0  0  0  0  0  0  0
  138.9770   69.5270  225.2110 C   0  0  0  0  0  0  0  0  0  0  0  0
  138.3217   68.7534  225.6378 H   0  0  0  0  0  0  0  0  0  0  0  0
  138.8210   69.9140  223.8770 C   0  0  0  0  0  0  0  0  0  0  0  0
  138.0433   69.4430  223.2578 H   0  0  0  0  0  0  0  0  0  0  0  0
  1  2  1  0
  2  3  2  0
  3  4  1  0
  4  5  1  0
  5  6  2  0
  5  7  1  0
  7  8  1  0
  8  9  1  0
  8 10  1  0
  8 11  1  0
 11 12  2  0
 12 13  1  0
 12 14  1  0
 14 15  1  0
 14 16  2  0
 16 17  1  0
 16 18  1  0
 18 19  1  0
 18 20  2  0
 20 21  1  0
 21 22  1  0
 21 23  1  0
 21 24  1  0
 24 25  1  0
 24 26  1  0
  4 27  2  0
 27 28  1  0
 27 29  1  0
 29 30  1  0
 30 31  2  0
 30 32  1  0
 32 33  1  0
 33 34  1  0
 33 35  2  0
 35 36  1  0
 35 37  1  0
 37 38  1  0
 37 39  2  0
 39 40  1  0
 39 41  1  0
 41 42  2  0
 42 43  1  0
 43 44  1  0
 44 45  1  0
 45 46  1  0
 45 47  1  0
 45 48  1  0
 48 49  2  0
 49 50  1  0
 49 51  1  0
 51 52  1  0
 51 53  2  0
 53 54  1  0
 53 55  1  0
 55 56  1  0
 55 57  2  0
 57 58  1  0
 44  3  1  0
 57 48  1  0
 24  7  1  0
 43 29  2  0
 20 11  1  0
 41 32  1  0
M  END
>  <UniqueID>  (62) 
128

>  <SMILES>  (62) 
[H]/N=c1/c(C(=O)N2CCc3ccccc3C2)cc2c(=O)n3ccccc3nc2n1Cc1ccccc1

>  <Energy>  (62) 
94.15441284030814

>  <Genealogy>  (62) 
[H]/N=c1/c(C(=O)N2CCc3ccccc3C2)cc2c(=O)n3ccccc3nc2n1Cc1ccccc1 (cis-trans isomerization)
[H]/N=c1/c(C(=O)N2CCc3ccccc3C2)cc2c(=O)n3ccccc3nc2n1Cc1ccccc1 (3D coordinates assigned)
[H]/N=c1/c(C(=O)N2CCc3ccccc3C2)cc2c(=O)n3ccccc3nc2n1Cc1ccccc1 (nonaromatic ring conformer: 94.15441284030814 kcal/mol)

>  <smiles>  (62) 
N=c1c(C(=O)N2CCc3ccccc3C2)cc2c(=O)n3ccccc3nc2n1Cc1ccccc1

>  <score_type>  (62) 
oracle

>  <origin>  (62) 
autodockgpu

>  <m_score__min__energy>  (62) 
-9.2699999999999996

>  <m_primary>  (62) 
energy

>  <meeko>  (62) 
{"free_energy": -9.27, "intermolecular_energy": -10.76, "internal_energy": -1.37, "cluster_size": 14, "cluster_id": 1, "rank_in_cluster": 1}

>  <energy>  (62) 
-9.27

>  <cluster_rmsd>  (62) 
0.03

>  <rmsd>  (62) 
269.72

>  <cluster>  (62) 
1

$$$$
DRTNTVLZUVPGHX-GNVQSUKONA-N
     RDKit          3D

 58 63  0  0  0  0  0  0  0  0999 V2000
  138.4140   72.6310  220.8070 H   0  0  0  0  0  0  0  0  0  0  0  0
  137.5920   72.2250  221.2970 N   0  0  0  0  0  0  0  0  0  0  0  0
  136.9580   72.7140  222.3260 C   0  0  0  0  0  0  0  0  0  0  0  0
  136.5990   71.8220  223.3620 C   0  0  0  0  0  0  0  0  0  0  0  0
  137.0130   70.3940  223.3510 C   0  0  0  0  0  0  0  0  0  0  0  0
  136.1810   69.5100  223.0090 O   0  0  0  0  0  0  0  0  0  0  0  0
  138.3580   70.0090  223.6980 N   0  0  0  0  0  0  0  0  0  0  0  0
  138.6270   69.2410  224.9170 C   0  0  0  0  0  0  0  0  0  0  0  0
  139.1730   68.3233  224.6531 H   0  0  0  0  0  0  0  0  0  0  0  0
  137.6695   68.9892  225.3963 H   0  0  0  0  0  0  0  0  0  0  0  0
  139.4560   70.0510  225.8820 C   0  0  0  0  0  0  0  0  0  0  0  0
  139.5610   69.6310  227.2170 C   0  0  0  0  0  0  0  0  0  0  0  0
  139.0090   68.7417  227.5551 H   0  0  0  0  0  0  0  0  0  0  0  0
  140.3620   70.3350  228.1190 C   0  0  0  0  0  0  0  0  0  0  0  0
  140.4322   70.0038  229.1656 H   0  0  0  0  0  0  0  0  0  0  0  0
  141.0740   71.4590  227.6940 C   0  0  0  0  0  0  0  0  0  0  0  0
  141.7019   72.0133  228.4071 H   0  0  0  0  0  0  0  0  0  0  0  0
  140.9900   71.8800  226.3660 C   0  0  0  0  0  0  0  0  0  0  0  0
  141.5477   72.7702  226.0395 H   0  0  0  0  0  0  0  0  0  0  0  0
  140.1990   71.1760  225.4430 C   0  0  0  0  0  0  0  0  0  0  0  0
  140.0790   71.7010  224.0290 C   0  0  0  0  0  0  0  0  0  0  0  0
  141.0776   71.9984  223.6763 H   0  0  0  0  0  0  0  0  0  0  0  0
  139.3872   72.5560  224.0454 H   0  0  0  0  0  0  0  0  0  0  0  0
  139.5090   70.6570  223.0680 C   0  0  0  0  0  0  0  0  0  0  0  0
  140.2785   69.9041  222.8424 H   0  0  0  0  0  0  0  0  0  0  0  0
  139.1959   71.1440  222.1327 H   0  0  0  0  0  0  0  0  0  0  0  0
  135.8400   72.2890  224.4350 C   0  0  0  0  0  0  0  0  0  0  0  0
  135.5590   71.6015  225.2464 H   0  0  0  0  0  0  0  0  0  0  0  0
  135.4350   73.6240  224.4850 C   0  0  0  0  0  0  0  0  0  0  0  0
  134.6480   74.1230  225.5430 C   0  0  0  0  0  0  0  0  0  0  0  0
  134.2910   73.3480  226.4760 O   0  0  0  0  0  0  0  0  0  0  0  0
  134.2690   75.4440  225.5560 N   0  0  0  0  0  0  0  0  0  0  0  0
  133.4990   75.9440  226.5780 C   0  0  0  0  0  0  0  0  0  0  0  0
  133.1851   75.2795  227.3965 H   0  0  0  0  0  0  0  0  0  0  0  0
  133.1100   77.2840  226.5910 C   0  0  0  0  0  0  0  0  0  0  0  0
  132.4939   77.6736  227.4148 H   0  0  0  0  0  0  0  0  0  0  0  0
  133.5070   78.1250  225.5540 C   0  0  0  0  0  0  0  0  0  0  0  0
  133.2053   79.1828  225.5536 H   0  0  0  0  0  0  0  0  0  0  0  0
  134.2870   77.6200  224.5190 C   0  0  0  0  0  0  0  0  0  0  0  0
  134.6056   78.2762  223.6957 H   0  0  0  0  0  0  0  0  0  0  0  0
  134.6640   76.2730  224.5310 C   0  0  0  0  0  0  0  0  0  0  0  0
  135.4260   75.7940  223.5180 N   0  0  0  0  0  0  0  0  0  0  0  0
  135.8280   74.4970  223.4570 C   0  0  0  0  0  0  0  0  0  0  0  0
  136.5990   74.0520  222.4030 N   0  0  0  0  0  0  0  0  0  0  0  0
  137.0070   75.0480  221.3830 C   0  0  0  0  0  0  0  0  0  0  0  0
  137.1227   74.5426  220.4129 H   0  0  0  0  0  0  0  0  0  0  0  0
  136.2312   75.8255  221.3225 H   0  0  0  0  0  0  0  0  0  0  0  0
  138.3150   75.7020  221.7580 C   0  0  0  0  0  0  0  0  0  0  0  0
  139.5280   75.0120  221.5830 C   0  0  0  0  0  0  0  0  0  0  0  0
  139.5234   73.9972  221.1586 H   0  0  0  0  0  0  0  0  0  0  0  0
  140.7390   75.6080  221.9450 C   0  0  0  0  0  0  0  0  0  0  0  0
  141.6834   75.0614  221.8058 H   0  0  0  0  0  0  0  0  0  0  0  0
  140.7520   76.8960  222.4830 C   0  0  0  0  0  0  0  0  0  0  0  0
  141.7058   77.3634  222.7690 H   0  0  0  0  0  0  0  0  0  0  0  0
  139.5530   77.5910  222.6580 C   0  0  0  0  0  0  0  0  0  0  0  0
  139.5642   78.6067  223.0802 H   0  0  0  0  0  0  0  0  0  0  0  0
  138.3390   76.9990  222.2980 C   0  0  0  0  0  0  0  0  0  0  0  0
  137.3980   77.5511  222.4381 H   0  0  0  0  0  0  0  0  0  0  0  0
  1  2  1  0
  2  3  2  0
  3  4  1  0
  4  5  1  0
  5  6  2  0
  5  7  1  0
  7  8  1  0
  8  9  1  0
  8 10  1  0
  8 11  1  0
 11 12  2  0
 12 13  1  0
 12 14  1  0
 14 15  1  0
 14 16  2  0
 16 17  1  0
 16 18  1  0
 18 19  1  0
 18 20  2  0
 20 21  1  0
 21 22  1  0
 21 23  1  0
 21 24  1  0
 24 25  1  0
 24 26  1  0
  4 27  2  0
 27 28  1  0
 27 29  1  0
 29 30  1  0
 30 31  2  0
 30 32  1  0
 32 33  1  0
 33 34  1  0
 33 35  2  0
 35 36  1  0
 35 37  1  0
 37 38  1  0
 37 39  2  0
 39 40  1  0
 39 41  1  0
 41 42  2  0
 42 43  1  0
 43 44  1  0
 44 45  1  0
 45 46  1  0
 45 47  1  0
 45 48  1  0
 48 49  2  0
 49 50  1  0
 49 51  1  0
 51 52  1  0
 51 53  2  0
 53 54  1  0
 53 55  1  0
 55 56  1  0
 55 57  2  0
 57 58  1  0
 44  3  1  0
 57 48  1  0
 24  7  1  0
 43 29  2  0
 20 11  1  0
 41 32  1  0
M  END
>  <UniqueID>  (63) 
128

>  <SMILES>  (63) 
[H]/N=c1/c(C(=O)N2CCc3ccccc3C2)cc2c(=O)n3ccccc3nc2n1Cc1ccccc1

>  <Energy>  (63) 
94.15441284030814

>  <Genealogy>  (63) 
[H]/N=c1/c(C(=O)N2CCc3ccccc3C2)cc2c(=O)n3ccccc3nc2n1Cc1ccccc1 (cis-trans isomerization)
[H]/N=c1/c(C(=O)N2CCc3ccccc3C2)cc2c(=O)n3ccccc3nc2n1Cc1ccccc1 (3D coordinates assigned)
[H]/N=c1/c(C(=O)N2CCc3ccccc3C2)cc2c(=O)n3ccccc3nc2n1Cc1ccccc1 (nonaromatic ring conformer: 94.15441284030814 kcal/mol)

>  <smiles>  (63) 
N=c1c(C(=O)N2CCc3ccccc3C2)cc2c(=O)n3ccccc3nc2n1Cc1ccccc1

>  <score_type>  (63) 
oracle

>  <origin>  (63) 
autodockgpu

>  <m_score__min__energy>  (63) 
-9.2699999999999996

>  <m_primary>  (63) 
energy

>  <meeko>  (63) 
{"free_energy": -8.52, "intermolecular_energy": -10.01, "internal_energy": -1.49, "cluster_size": 1, "cluster_id": 4, "rank_in_cluster": 1}

>  <energy>  (63) 
-9.27

>  <cluster_rmsd>  (63) 
0.05

>  <rmsd>  (63) 
269.73

>  <cluster>  (63) 
1

$$$$
DRTNTVLZUVPGHX-GNVQSUKONA-N
     RDKit          3D

 58 63  0  0  0  0  0  0  0  0999 V2000
  137.8530   74.4760  223.0950 H   0  0  0  0  0  0  0  0  0  0  0  0
  138.2430   73.9200  222.3080 N   0  0  0  0  0  0  0  0  0  0  0  0
  139.4810   73.8790  221.9010 C   0  0  0  0  0  0  0  0  0  0  0  0
  140.1540   75.1080  221.7150 C   0  0  0  0  0  0  0  0  0  0  0  0
  139.5270   76.4090  222.0680 C   0  0  0  0  0  0  0  0  0  0  0  0
  138.5610   76.4330  222.8780 O   0  0  0  0  0  0  0  0  0  0  0  0
  140.0250   77.6450  221.5200 N   0  0  0  0  0  0  0  0  0  0  0  0
  141.4510   77.9790  221.5940 C   0  0  0  0  0  0  0  0  0  0  0  0
  141.8272   78.1845  220.5810 H   0  0  0  0  0  0  0  0  0  0  0  0
  141.9919   77.1290  222.0356 H   0  0  0  0  0  0  0  0  0  0  0  0
  141.6670   79.1950  222.4590 C   0  0  0  0  0  0  0  0  0  0  0  0
  142.9610   79.4940  222.9120 C   0  0  0  0  0  0  0  0  0  0  0  0
  143.7950   78.8201  222.6666 H   0  0  0  0  0  0  0  0  0  0  0  0
  143.1970   80.6410  223.6720 C   0  0  0  0  0  0  0  0  0  0  0  0
  144.2132   80.8631  224.0297 H   0  0  0  0  0  0  0  0  0  0  0  0
  142.1450   81.5070  223.9790 C   0  0  0  0  0  0  0  0  0  0  0  0
  142.3337   82.4093  224.5793 H   0  0  0  0  0  0  0  0  0  0  0  0
  140.8540   81.2290  223.5250 C   0  0  0  0  0  0  0  0  0  0  0  0
  140.0278   81.9097  223.7780 H   0  0  0  0  0  0  0  0  0  0  0  0
  140.6030   80.0870  222.7480 C   0  0  0  0  0  0  0  0  0  0  0  0
  139.1810   79.7830  222.3300 C   0  0  0  0  0  0  0  0  0  0  0  0
  138.7083   80.7134  221.9821 H   0  0  0  0  0  0  0  0  0  0  0  0
  138.6564   79.3666  223.2025 H   0  0  0  0  0  0  0  0  0  0  0  0
  139.1130   78.7470  221.2060 C   0  0  0  0  0  0  0  0  0  0  0  0
  139.4112   79.2135  220.2555 H   0  0  0  0  0  0  0  0  0  0  0  0
  138.0856   78.3652  221.1130 H   0  0  0  0  0  0  0  0  0  0  0  0
  141.4470   75.1080  221.1930 C   0  0  0  0  0  0  0  0  0  0  0  0
  141.9776   76.0606  221.0476 H   0  0  0  0  0  0  0  0  0  0  0  0
  142.0720   73.9080  220.8540 C   0  0  0  0  0  0  0  0  0  0  0  0
  143.3690   73.8740  220.3030 C   0  0  0  0  0  0  0  0  0  0  0  0
  143.9920   74.9560  220.1040 O   0  0  0  0  0  0  0  0  0  0  0  0
  143.9510   72.6710  219.9820 N   0  0  0  0  0  0  0  0  0  0  0  0
  145.2130   72.6230  219.4410 C   0  0  0  0  0  0  0  0  0  0  0  0
  145.7654   73.5581  219.2664 H   0  0  0  0  0  0  0  0  0  0  0  0
  145.8030   71.4010  219.1100 C   0  0  0  0  0  0  0  0  0  0  0  0
  146.8138   71.3734  218.6769 H   0  0  0  0  0  0  0  0  0  0  0  0
  145.1030   70.2180  219.3320 C   0  0  0  0  0  0  0  0  0  0  0  0
  145.5582   69.2501  219.0753 H   0  0  0  0  0  0  0  0  0  0  0  0
  143.8250   70.2660  219.8800 C   0  0  0  0  0  0  0  0  0  0  0  0
  143.2641   69.3366  220.0580 H   0  0  0  0  0  0  0  0  0  0  0  0
  143.2580   71.5020  220.2030 C   0  0  0  0  0  0  0  0  0  0  0  0
  142.0130   71.5350  220.7390 N   0  0  0  0  0  0  0  0  0  0  0  0
  141.3940   72.6980  221.0740 C   0  0  0  0  0  0  0  0  0  0  0  0
  140.1230   72.6830  221.6120 N   0  0  0  0  0  0  0  0  0  0  0  0
  139.4950   71.3610  221.8530 C   0  0  0  0  0  0  0  0  0  0  0  0
  138.4204   71.4268  221.6272 H   0  0  0  0  0  0  0  0  0  0  0  0
  139.9810   70.6187  221.2028 H   0  0  0  0  0  0  0  0  0  0  0  0
  139.6720   70.9310  223.2890 C   0  0  0  0  0  0  0  0  0  0  0  0
  140.6780   71.5120  224.0820 C   0  0  0  0  0  0  0  0  0  0  0  0
  141.3287   72.2904  223.6569 H   0  0  0  0  0  0  0  0  0  0  0  0
  140.8550   71.1050  225.4080 C   0  0  0  0  0  0  0  0  0  0  0  0
  141.6433   71.5641  226.0227 H   0  0  0  0  0  0  0  0  0  0  0  0
  140.0330   70.1170  225.9530 C   0  0  0  0  0  0  0  0  0  0  0  0
  140.1757   69.7960  226.9954 H   0  0  0  0  0  0  0  0  0  0  0  0
  139.0290   69.5360  225.1740 C   0  0  0  0  0  0  0  0  0  0  0  0
  138.3804   68.7591  225.6050 H   0  0  0  0  0  0  0  0  0  0  0  0
  138.8470   69.9400  223.8480 C   0  0  0  0  0  0  0  0  0  0  0  0
  138.0544   69.4801  223.2394 H   0  0  0  0  0  0  0  0  0  0  0  0
  1  2  1  0
  2  3  2  0
  3  4  1  0
  4  5  1  0
  5  6  2  0
  5  7  1  0
  7  8  1  0
  8  9  1  0
  8 10  1  0
  8 11  1  0
 11 12  2  0
 12 13  1  0
 12 14  1  0
 14 15  1  0
 14 16  2  0
 16 17  1  0
 16 18  1  0
 18 19  1  0
 18 20  2  0
 20 21  1  0
 21 22  1  0
 21 23  1  0
 21 24  1  0
 24 25  1  0
 24 26  1  0
  4 27  2  0
 27 28  1  0
 27 29  1  0
 29 30  1  0
 30 31  2  0
 30 32  1  0
 32 33  1  0
 33 34  1  0
 33 35  2  0
 35 36  1  0
 35 37  1  0
 37 38  1  0
 37 39  2  0
 39 40  1  0
 39 41  1  0
 41 42  2  0
 42 43  1  0
 43 44  1  0
 44 45  1  0
 45 46  1  0
 45 47  1  0
 45 48  1  0
 48 49  2  0
 49 50  1  0
 49 51  1  0
 51 52  1  0
 51 53  2  0
 53 54  1  0
 53 55  1  0
 55 56  1  0
 55 57  2  0
 57 58  1  0
 44  3  1  0
 57 48  1  0
 24  7  1  0
 43 29  2  0
 20 11  1  0
 41 32  1  0
M  END
>  <UniqueID>  (64) 
128

>  <SMILES>  (64) 
[H]/N=c1/c(C(=O)N2CCc3ccccc3C2)cc2c(=O)n3ccccc3nc2n1Cc1ccccc1

>  <Energy>  (64) 
94.15441284030814

>  <Genealogy>  (64) 
[H]/N=c1/c(C(=O)N2CCc3ccccc3C2)cc2c(=O)n3ccccc3nc2n1Cc1ccccc1 (cis-trans isomerization)
[H]/N=c1/c(C(=O)N2CCc3ccccc3C2)cc2c(=O)n3ccccc3nc2n1Cc1ccccc1 (3D coordinates assigned)
[H]/N=c1/c(C(=O)N2CCc3ccccc3C2)cc2c(=O)n3ccccc3nc2n1Cc1ccccc1 (nonaromatic ring conformer: 94.15441284030814 kcal/mol)

>  <smiles>  (64) 
N=c1c(C(=O)N2CCc3ccccc3C2)cc2c(=O)n3ccccc3nc2n1Cc1ccccc1

>  <score_type>  (64) 
oracle

>  <origin>  (64) 
autodockgpu

>  <m_score__min__energy>  (64) 
-9.2699999999999996

>  <m_primary>  (64) 
energy

>  <meeko>  (64) 
{"free_energy": -9.26, "intermolecular_energy": -10.75, "internal_energy": -1.38, "cluster_size": 14, "cluster_id": 1, "rank_in_cluster": 11}

>  <energy>  (64) 
-9.27

>  <cluster_rmsd>  (64) 
0.04

>  <rmsd>  (64) 
269.72

>  <cluster>  (64) 
1

$$$$
DRTNTVLZUVPGHX-GNVQSUKONA-N
     RDKit          3D

 58 63  0  0  0  0  0  0  0  0999 V2000
  137.8520   74.4510  223.0800 H   0  0  0  0  0  0  0  0  0  0  0  0
  138.2510   73.8850  222.3040 N   0  0  0  0  0  0  0  0  0  0  0  0
  139.4910   73.8500  221.9030 C   0  0  0  0  0  0  0  0  0  0  0  0
  140.1590   75.0830  221.7220 C   0  0  0  0  0  0  0  0  0  0  0  0
  139.5250   76.3810  222.0740 C   0  0  0  0  0  0  0  0  0  0  0  0
  138.5590   76.4000  222.8840 O   0  0  0  0  0  0  0  0  0  0  0  0
  140.0160   77.6190  221.5240 N   0  0  0  0  0  0  0  0  0  0  0  0
  141.4410   77.9560  221.5890 C   0  0  0  0  0  0  0  0  0  0  0  0
  141.8100   78.1639  220.5738 H   0  0  0  0  0  0  0  0  0  0  0  0
  141.9868   77.1066  222.0257 H   0  0  0  0  0  0  0  0  0  0  0  0
  141.6600   79.1720  222.4550 C   0  0  0  0  0  0  0  0  0  0  0  0
  142.9560   79.4730  222.8990 C   0  0  0  0  0  0  0  0  0  0  0  0
  143.7900   78.8018  222.6464 H   0  0  0  0  0  0  0  0  0  0  0  0
  143.1940   80.6200  223.6600 C   0  0  0  0  0  0  0  0  0  0  0  0
  144.2121   80.8445  224.0109 H   0  0  0  0  0  0  0  0  0  0  0  0
  142.1420   81.4820  223.9760 C   0  0  0  0  0  0  0  0  0  0  0  0
  142.3323   82.3832  224.5773 H   0  0  0  0  0  0  0  0  0  0  0  0
  140.8490   81.2020  223.5300 C   0  0  0  0  0  0  0  0  0  0  0  0
  140.0231   81.8808  223.7891 H   0  0  0  0  0  0  0  0  0  0  0  0
  140.5950   80.0600  222.7530 C   0  0  0  0  0  0  0  0  0  0  0  0
  139.1710   79.7530  222.3440 C   0  0  0  0  0  0  0  0  0  0  0  0
  138.6935   80.6826  222.0008 H   0  0  0  0  0  0  0  0  0  0  0  0
  138.6529   79.3339  223.2192 H   0  0  0  0  0  0  0  0  0  0  0  0
  139.0990   78.7190  221.2190 C   0  0  0  0  0  0  0  0  0  0  0  0
  139.3894   79.1883  220.2674 H   0  0  0  0  0  0  0  0  0  0  0  0
  138.0721   78.3341  221.1328 H   0  0  0  0  0  0  0  0  0  0  0  0
  141.4550   75.0890  221.2070 C   0  0  0  0  0  0  0  0  0  0  0  0
  141.9827   76.0440  221.0671 H   0  0  0  0  0  0  0  0  0  0  0  0
  142.0870   73.8920  220.8680 C   0  0  0  0  0  0  0  0  0  0  0  0
  143.3870   73.8650  220.3230 C   0  0  0  0  0  0  0  0  0  0  0  0
  144.0050   74.9500  220.1290 O   0  0  0  0  0  0  0  0  0  0  0  0
  143.9750   72.6650  220.0030 N   0  0  0  0  0  0  0  0  0  0  0  0
  145.2400   72.6230  219.4680 C   0  0  0  0  0  0  0  0  0  0  0  0
  145.7891   73.5608  219.2976 H   0  0  0  0  0  0  0  0  0  0  0  0
  145.8370   71.4050  219.1380 C   0  0  0  0  0  0  0  0  0  0  0  0
  146.8499   71.3827  218.7096 H   0  0  0  0  0  0  0  0  0  0  0  0
  145.1410   70.2180  219.3550 C   0  0  0  0  0  0  0  0  0  0  0  0
  145.6020   69.2526  219.0990 H   0  0  0  0  0  0  0  0  0  0  0  0
  143.8600   70.2590  219.8970 C   0  0  0  0  0  0  0  0  0  0  0  0
  143.3025   69.3269  220.0711 H   0  0  0  0  0  0  0  0  0  0  0  0
  143.2860   71.4930  220.2190 C   0  0  0  0  0  0  0  0  0  0  0  0
  142.0380   71.5190  220.7490 N   0  0  0  0  0  0  0  0  0  0  0  0
  141.4130   72.6790  221.0830 C   0  0  0  0  0  0  0  0  0  0  0  0
  140.1400   72.6570  221.6150 N   0  0  0  0  0  0  0  0  0  0  0  0
  139.5160   71.3330  221.8510 C   0  0  0  0  0  0  0  0  0  0  0  0
  138.4420   71.3956  221.6218 H   0  0  0  0  0  0  0  0  0  0  0  0
  140.0064   70.5936  221.2008 H   0  0  0  0  0  0  0  0  0  0  0  0
  139.6900   70.9010  223.2870 C   0  0  0  0  0  0  0  0  0  0  0  0
  138.8770   69.8860  223.8240 C   0  0  0  0  0  0  0  0  0  0  0  0
  138.1214   69.3981  223.1907 H   0  0  0  0  0  0  0  0  0  0  0  0
  139.0240   69.4940  225.1580 C   0  0  0  0  0  0  0  0  0  0  0  0
  138.3850   68.6994  225.5707 H   0  0  0  0  0  0  0  0  0  0  0  0
  139.9810   70.1100  225.9670 C   0  0  0  0  0  0  0  0  0  0  0  0
  140.0945   69.8024  227.0170 H   0  0  0  0  0  0  0  0  0  0  0  0
  140.7940   71.1170  225.4420 C   0  0  0  0  0  0  0  0  0  0  0  0
  141.5485   71.6007  226.0798 H   0  0  0  0  0  0  0  0  0  0  0  0
  140.6520   71.5120  224.1090 C   0  0  0  0  0  0  0  0  0  0  0  0
  141.2963   72.3049  223.7014 H   0  0  0  0  0  0  0  0  0  0  0  0
  1  2  1  0
  2  3  2  0
  3  4  1  0
  4  5  1  0
  5  6  2  0
  5  7  1  0
  7  8  1  0
  8  9  1  0
  8 10  1  0
  8 11  1  0
 11 12  2  0
 12 13  1  0
 12 14  1  0
 14 15  1  0
 14 16  2  0
 16 17  1  0
 16 18  1  0
 18 19  1  0
 18 20  2  0
 20 21  1  0
 21 22  1  0
 21 23  1  0
 21 24  1  0
 24 25  1  0
 24 26  1  0
  4 27  2  0
 27 28  1  0
 27 29  1  0
 29 30  1  0
 30 31  2  0
 30 32  1  0
 32 33  1  0
 33 34  1  0
 33 35  2  0
 35 36  1  0
 35 37  1  0
 37 38  1  0
 37 39  2  0
 39 40  1  0
 39 41  1  0
 41 42  2  0
 42 43  1  0
 43 44  1  0
 44 45  1  0
 45 46  1  0
 45 47  1  0
 45 48  1  0
 48 49  2  0
 49 50  1  0
 49 51  1  0
 51 52  1  0
 51 53  2  0
 53 54  1  0
 53 55  1  0
 55 56  1  0
 55 57  2  0
 57 58  1  0
 44  3  1  0
 57 48  1  0
 24  7  1  0
 43 29  2  0
 20 11  1  0
 41 32  1  0
M  END
>  <UniqueID>  (65) 
128

>  <SMILES>  (65) 
[H]/N=c1/c(C(=O)N2CCc3ccccc3C2)cc2c(=O)n3ccccc3nc2n1Cc1ccccc1

>  <Energy>  (65) 
94.15441284030814

>  <Genealogy>  (65) 
[H]/N=c1/c(C(=O)N2CCc3ccccc3C2)cc2c(=O)n3ccccc3nc2n1Cc1ccccc1 (cis-trans isomerization)
[H]/N=c1/c(C(=O)N2CCc3ccccc3C2)cc2c(=O)n3ccccc3nc2n1Cc1ccccc1 (3D coordinates assigned)
[H]/N=c1/c(C(=O)N2CCc3ccccc3C2)cc2c(=O)n3ccccc3nc2n1Cc1ccccc1 (nonaromatic ring conformer: 94.15441284030814 kcal/mol)

>  <smiles>  (65) 
N=c1c(C(=O)N2CCc3ccccc3C2)cc2c(=O)n3ccccc3nc2n1Cc1ccccc1

>  <score_type>  (65) 
oracle

>  <origin>  (65) 
autodockgpu

>  <m_score__min__energy>  (65) 
-9.2699999999999996

>  <m_primary>  (65) 
energy

>  <meeko>  (65) 
{"free_energy": -9.26, "intermolecular_energy": -10.75, "internal_energy": -1.37, "cluster_size": 14, "cluster_id": 1, "rank_in_cluster": 9}

>  <energy>  (65) 
-9.27

>  <cluster_rmsd>  (65) 
0.04

>  <rmsd>  (65) 
269.72

>  <cluster>  (65) 
1

$$$$
DRTNTVLZUVPGHX-GNVQSUKONA-N
     RDKit          3D

 58 63  0  0  0  0  0  0  0  0999 V2000
  139.5420   74.6170  223.0410 H   0  0  0  0  0  0  0  0  0  0  0  0
  140.2590   74.3450  222.3390 N   0  0  0  0  0  0  0  0  0  0  0  0
  140.7700   75.0870  221.3970 C   0  0  0  0  0  0  0  0  0  0  0  0
  140.4550   76.4650  221.4010 C   0  0  0  0  0  0  0  0  0  0  0  0
  139.6590   77.0870  222.4910 C   0  0  0  0  0  0  0  0  0  0  0  0
  138.5780   76.5500  222.8540 O   0  0  0  0  0  0  0  0  0  0  0  0
  140.1180   78.2800  223.1570 N   0  0  0  0  0  0  0  0  0  0  0  0
  139.2700   79.4730  223.2300 C   0  0  0  0  0  0  0  0  0  0  0  0
  139.1498   79.7670  224.2831 H   0  0  0  0  0  0  0  0  0  0  0  0
  138.2912   79.2397  222.7856 H   0  0  0  0  0  0  0  0  0  0  0  0
  139.8910   80.6140  222.4650 C   0  0  0  0  0  0  0  0  0  0  0  0
  139.1080   81.7350  222.1480 C   0  0  0  0  0  0  0  0  0  0  0  0
  138.0433   81.7537  222.4238 H   0  0  0  0  0  0  0  0  0  0  0  0
  139.6720   82.8260  221.4850 C   0  0  0  0  0  0  0  0  0  0  0  0
  139.0493   83.6972  221.2335 H   0  0  0  0  0  0  0  0  0  0  0  0
  141.0260   82.8140  221.1400 C   0  0  0  0  0  0  0  0  0  0  0  0
  141.4667   83.6742  220.6147 H   0  0  0  0  0  0  0  0  0  0  0  0
  141.8200   81.7120  221.4610 C   0  0  0  0  0  0  0  0  0  0  0  0
  142.8836   81.7053  221.1804 H   0  0  0  0  0  0  0  0  0  0  0  0
  141.2710   80.6110  222.1400 C   0  0  0  0  0  0  0  0  0  0  0  0
  142.1460   79.4070  222.4110 C   0  0  0  0  0  0  0  0  0  0  0  0
  143.1244   79.7553  222.7735 H   0  0  0  0  0  0  0  0  0  0  0  0
  142.2427   78.8434  221.4713 H   0  0  0  0  0  0  0  0  0  0  0  0
  141.5390   78.4710  223.4570 C   0  0  0  0  0  0  0  0  0  0  0  0
  141.6485   78.9151  224.4574 H   0  0  0  0  0  0  0  0  0  0  0  0
  142.0578   77.5013  223.4344 H   0  0  0  0  0  0  0  0  0  0  0  0
  140.9090   77.2730  220.3580 C   0  0  0  0  0  0  0  0  0  0  0  0
  140.6709   78.3469  220.3556 H   0  0  0  0  0  0  0  0  0  0  0  0
  141.6630   76.7280  219.3180 C   0  0  0  0  0  0  0  0  0  0  0  0
  142.1160   77.5120  218.2380 C   0  0  0  0  0  0  0  0  0  0  0  0
  141.8350   78.7440  218.1990 O   0  0  0  0  0  0  0  0  0  0  0  0
  142.8560   76.9380  217.2330 N   0  0  0  0  0  0  0  0  0  0  0  0
  143.3020   77.6890  216.1720 C   0  0  0  0  0  0  0  0  0  0  0  0
  143.0660   78.7625  216.1290 H   0  0  0  0  0  0  0  0  0  0  0  0
  144.0510   77.1060  215.1480 C   0  0  0  0  0  0  0  0  0  0  0  0
  144.4033   77.7163  214.3034 H   0  0  0  0  0  0  0  0  0  0  0  0
  144.3490   75.7470  215.2030 C   0  0  0  0  0  0  0  0  0  0  0  0
  144.9376   75.2777  214.4010 H   0  0  0  0  0  0  0  0  0  0  0  0
  143.8990   74.9850  216.2770 C   0  0  0  0  0  0  0  0  0  0  0  0
  144.1292   73.9106  216.3289 H   0  0  0  0  0  0  0  0  0  0  0  0
  143.1520   75.5950  217.2900 C   0  0  0  0  0  0  0  0  0  0  0  0
  142.7200   74.8430  218.3320 N   0  0  0  0  0  0  0  0  0  0  0  0
  141.9860   75.3620  219.3520 C   0  0  0  0  0  0  0  0  0  0  0  0
  141.5640   74.5560  220.3900 N   0  0  0  0  0  0  0  0  0  0  0  0
  141.9850   73.1350  220.3710 C   0  0  0  0  0  0  0  0  0  0  0  0
  141.6175   72.6389  221.2814 H   0  0  0  0  0  0  0  0  0  0  0  0
  141.5636   72.6571  219.4743 H   0  0  0  0  0  0  0  0  0  0  0  0
  143.4890   73.0160  220.3170 C   0  0  0  0  0  0  0  0  0  0  0  0
  144.0900   71.8820  219.7420 C   0  0  0  0  0  0  0  0  0  0  0  0
  143.4607   71.0853  219.3187 H   0  0  0  0  0  0  0  0  0  0  0  0
  145.4820   71.7610  219.7050 C   0  0  0  0  0  0  0  0  0  0  0  0
  145.9443   70.8711  219.2529 H   0  0  0  0  0  0  0  0  0  0  0  0
  146.2860   72.7680  220.2410 C   0  0  0  0  0  0  0  0  0  0  0  0
  147.3813   72.6704  220.2131 H   0  0  0  0  0  0  0  0  0  0  0  0
  145.7000   73.9000  220.8130 C   0  0  0  0  0  0  0  0  0  0  0  0
  146.3350   74.6937  221.2335 H   0  0  0  0  0  0  0  0  0  0  0  0
  144.3080   74.0260  220.8520 C   0  0  0  0  0  0  0  0  0  0  0  0
  143.8515   74.9193  221.3033 H   0  0  0  0  0  0  0  0  0  0  0  0
  1  2  1  0
  2  3  2  0
  3  4  1  0
  4  5  1  0
  5  6  2  0
  5  7  1  0
  7  8  1  0
  8  9  1  0
  8 10  1  0
  8 11  1  0
 11 12  2  0
 12 13  1  0
 12 14  1  0
 14 15  1  0
 14 16  2  0
 16 17  1  0
 16 18  1  0
 18 19  1  0
 18 20  2  0
 20 21  1  0
 21 22  1  0
 21 23  1  0
 21 24  1  0
 24 25  1  0
 24 26  1  0
  4 27  2  0
 27 28  1  0
 27 29  1  0
 29 30  1  0
 30 31  2  0
 30 32  1  0
 32 33  1  0
 33 34  1  0
 33 35  2  0
 35 36  1  0
 35 37  1  0
 37 38  1  0
 37 39  2  0
 39 40  1  0
 39 41  1  0
 41 42  2  0
 42 43  1  0
 43 44  1  0
 44 45  1  0
 45 46  1  0
 45 47  1  0
 45 48  1  0
 48 49  2  0
 49 50  1  0
 49 51  1  0
 51 52  1  0
 51 53  2  0
 53 54  1  0
 53 55  1  0
 55 56  1  0
 55 57  2  0
 57 58  1  0
 44  3  1  0
 57 48  1  0
 24  7  1  0
 43 29  2  0
 20 11  1  0
 41 32  1  0
M  END
>  <UniqueID>  (66) 
128

>  <SMILES>  (66) 
[H]/N=c1/c(C(=O)N2CCc3ccccc3C2)cc2c(=O)n3ccccc3nc2n1Cc1ccccc1

>  <Energy>  (66) 
94.15441284030814

>  <Genealogy>  (66) 
[H]/N=c1/c(C(=O)N2CCc3ccccc3C2)cc2c(=O)n3ccccc3nc2n1Cc1ccccc1 (cis-trans isomerization)
[H]/N=c1/c(C(=O)N2CCc3ccccc3C2)cc2c(=O)n3ccccc3nc2n1Cc1ccccc1 (3D coordinates assigned)
[H]/N=c1/c(C(=O)N2CCc3ccccc3C2)cc2c(=O)n3ccccc3nc2n1Cc1ccccc1 (nonaromatic ring conformer: 94.15441284030814 kcal/mol)

>  <smiles>  (66) 
N=c1c(C(=O)N2CCc3ccccc3C2)cc2c(=O)n3ccccc3nc2n1Cc1ccccc1

>  <score_type>  (66) 
oracle

>  <origin>  (66) 
autodockgpu

>  <m_score__min__energy>  (66) 
-9.2699999999999996

>  <m_primary>  (66) 
energy

>  <meeko>  (66) 
{"free_energy": -8.53, "intermolecular_energy": -10.02, "internal_energy": -1.92, "cluster_size": 4, "cluster_id": 3, "rank_in_cluster": 1}

>  <energy>  (66) 
-9.27

>  <cluster_rmsd>  (66) 
0.03

>  <rmsd>  (66) 
269.72

>  <cluster>  (66) 
1

$$$$
DRTNTVLZUVPGHX-GNVQSUKONA-N
     RDKit          3D

 58 63  0  0  0  0  0  0  0  0999 V2000
  140.7550   70.9230  220.0270 H   0  0  0  0  0  0  0  0  0  0  0  0
  141.2660   71.8260  219.9540 N   0  0  0  0  0  0  0  0  0  0  0  0
  140.9590   72.9610  220.5180 C   0  0  0  0  0  0  0  0  0  0  0  0
  139.9780   72.9440  221.5370 C   0  0  0  0  0  0  0  0  0  0  0  0
  139.3830   71.6770  222.0370 C   0  0  0  0  0  0  0  0  0  0  0  0
  139.1870   70.7250  221.2330 O   0  0  0  0  0  0  0  0  0  0  0  0
  139.0530   71.5110  223.4290 N   0  0  0  0  0  0  0  0  0  0  0  0
  140.1010   71.5080  224.4540 C   0  0  0  0  0  0  0  0  0  0  0  0
  139.8726   72.2769  225.2067 H   0  0  0  0  0  0  0  0  0  0  0  0
  141.0673   71.7208  223.9735 H   0  0  0  0  0  0  0  0  0  0  0  0
  140.1800   70.1620  225.1290 C   0  0  0  0  0  0  0  0  0  0  0  0
  141.3040   69.8500  225.9080 C   0  0  0  0  0  0  0  0  0  0  0  0
  142.1314   70.5705  225.9870 H   0  0  0  0  0  0  0  0  0  0  0  0
  141.3790   68.6300  226.5840 C   0  0  0  0  0  0  0  0  0  0  0  0
  142.2677   68.3897  227.1860 H   0  0  0  0  0  0  0  0  0  0  0  0
  140.3280   67.7150  226.4970 C   0  0  0  0  0  0  0  0  0  0  0  0
  140.3911   66.7543  227.0290 H   0  0  0  0  0  0  0  0  0  0  0  0
  139.1970   68.0170  225.7360 C   0  0  0  0  0  0  0  0  0  0  0  0
  138.3759   67.2885  225.6646 H   0  0  0  0  0  0  0  0  0  0  0  0
  139.1010   69.2450  225.0610 C   0  0  0  0  0  0  0  0  0  0  0  0
  137.8900   69.5090  224.1920 C   0  0  0  0  0  0  0  0  0  0  0  0
  136.9887   69.1869  224.7341 H   0  0  0  0  0  0  0  0  0  0  0  0
  138.0185   68.9460  223.2558 H   0  0  0  0  0  0  0  0  0  0  0  0
  137.7450   70.9890  223.8320 C   0  0  0  0  0  0  0  0  0  0  0  0
  137.3783   71.5472  224.7061 H   0  0  0  0  0  0  0  0  0  0  0  0
  137.0283   71.1024  223.0053 H   0  0  0  0  0  0  0  0  0  0  0  0
  139.5570   74.1490  222.1000 C   0  0  0  0  0  0  0  0  0  0  0  0
  138.7969   74.1446  222.8951 H   0  0  0  0  0  0  0  0  0  0  0  0
  140.0940   75.3600  221.6610 C   0  0  0  0  0  0  0  0  0  0  0  0
  139.6740   76.5960  222.1920 C   0  0  0  0  0  0  0  0  0  0  0  0
  138.7830   76.6200  223.0890 O   0  0  0  0  0  0  0  0  0  0  0  0
  140.2270   77.7670  221.7340 N   0  0  0  0  0  0  0  0  0  0  0  0
  139.8250   78.9800  222.2400 C   0  0  0  0  0  0  0  0  0  0  0  0
  139.0538   79.0128  223.0237 H   0  0  0  0  0  0  0  0  0  0  0  0
  140.3830   80.1710  221.7720 C   0  0  0  0  0  0  0  0  0  0  0  0
  140.0532   81.1365  222.1832 H   0  0  0  0  0  0  0  0  0  0  0  0
  141.3600   80.1280  220.7810 C   0  0  0  0  0  0  0  0  0  0  0  0
  141.8067   81.0603  220.4051 H   0  0  0  0  0  0  0  0  0  0  0  0
  141.7690   78.9010  220.2680 C   0  0  0  0  0  0  0  0  0  0  0  0
  142.5397   78.8579  219.4844 H   0  0  0  0  0  0  0  0  0  0  0  0
  141.1940   77.7230  220.7550 C   0  0  0  0  0  0  0  0  0  0  0  0
  141.6020   76.5330  220.2490 N   0  0  0  0  0  0  0  0  0  0  0  0
  141.0870   75.3470  220.6680 C   0  0  0  0  0  0  0  0  0  0  0  0
  141.5300   74.1610  220.1200 N   0  0  0  0  0  0  0  0  0  0  0  0
  142.6120   74.2330  219.1090 C   0  0  0  0  0  0  0  0  0  0  0  0
  142.3150   73.6533  218.2226 H   0  0  0  0  0  0  0  0  0  0  0  0
  142.7735   75.2882  218.8435 H   0  0  0  0  0  0  0  0  0  0  0  0
  143.9030   73.6720  219.6560 C   0  0  0  0  0  0  0  0  0  0  0  0
  144.6860   74.4340  220.5410 C   0  0  0  0  0  0  0  0  0  0  0  0
  144.3498   75.4364  220.8448 H   0  0  0  0  0  0  0  0  0  0  0  0
  145.8900   73.9240  221.0370 C   0  0  0  0  0  0  0  0  0  0  0  0
  146.4975   74.5255  221.7293 H   0  0  0  0  0  0  0  0  0  0  0  0
  146.3220   72.6530  220.6550 C   0  0  0  0  0  0  0  0  0  0  0  0
  147.2705   72.2543  221.0440 H   0  0  0  0  0  0  0  0  0  0  0  0
  145.5490   71.8870  219.7780 C   0  0  0  0  0  0  0  0  0  0  0  0
  145.8891   70.8845  219.4792 H   0  0  0  0  0  0  0  0  0  0  0  0
  144.3450   72.3920  219.2800 C   0  0  0  0  0  0  0  0  0  0  0  0
  143.7403   71.7848  218.5904 H   0  0  0  0  0  0  0  0  0  0  0  0
  1  2  1  0
  2  3  2  0
  3  4  1  0
  4  5  1  0
  5  6  2  0
  5  7  1  0
  7  8  1  0
  8  9  1  0
  8 10  1  0
  8 11  1  0
 11 12  2  0
 12 13  1  0
 12 14  1  0
 14 15  1  0
 14 16  2  0
 16 17  1  0
 16 18  1  0
 18 19  1  0
 18 20  2  0
 20 21  1  0
 21 22  1  0
 21 23  1  0
 21 24  1  0
 24 25  1  0
 24 26  1  0
  4 27  2  0
 27 28  1  0
 27 29  1  0
 29 30  1  0
 30 31  2  0
 30 32  1  0
 32 33  1  0
 33 34  1  0
 33 35  2  0
 35 36  1  0
 35 37  1  0
 37 38  1  0
 37 39  2  0
 39 40  1  0
 39 41  1  0
 41 42  2  0
 42 43  1  0
 43 44  1  0
 44 45  1  0
 45 46  1  0
 45 47  1  0
 45 48  1  0
 48 49  2  0
 49 50  1  0
 49 51  1  0
 51 52  1  0
 51 53  2  0
 53 54  1  0
 53 55  1  0
 55 56  1  0
 55 57  2  0
 57 58  1  0
 44  3  1  0
 57 48  1  0
 24  7  1  0
 43 29  2  0
 20 11  1  0
 41 32  1  0
M  END
>  <UniqueID>  (67) 
128

>  <SMILES>  (67) 
[H]/N=c1/c(C(=O)N2CCc3ccccc3C2)cc2c(=O)n3ccccc3nc2n1Cc1ccccc1

>  <Energy>  (67) 
94.15441284030814

>  <Genealogy>  (67) 
[H]/N=c1/c(C(=O)N2CCc3ccccc3C2)cc2c(=O)n3ccccc3nc2n1Cc1ccccc1 (cis-trans isomerization)
[H]/N=c1/c(C(=O)N2CCc3ccccc3C2)cc2c(=O)n3ccccc3nc2n1Cc1ccccc1 (3D coordinates assigned)
[H]/N=c1/c(C(=O)N2CCc3ccccc3C2)cc2c(=O)n3ccccc3nc2n1Cc1ccccc1 (nonaromatic ring conformer: 94.15441284030814 kcal/mol)

>  <smiles>  (67) 
N=c1c(C(=O)N2CCc3ccccc3C2)cc2c(=O)n3ccccc3nc2n1Cc1ccccc1

>  <score_type>  (67) 
oracle

>  <origin>  (67) 
autodockgpu

>  <m_score__min__energy>  (67) 
-9.2699999999999996

>  <m_primary>  (67) 
energy

>  <meeko>  (67) 
{"free_energy": -8.62, "intermolecular_energy": -10.11, "internal_energy": -1.59, "cluster_size": 1, "cluster_id": 2, "rank_in_cluster": 1}

>  <energy>  (67) 
-9.27

>  <cluster_rmsd>  (67) 
0.04

>  <rmsd>  (67) 
269.72

>  <cluster>  (67) 
1

$$$$
DRTNTVLZUVPGHX-GNVQSUKONA-N
     RDKit          3D

 58 63  0  0  0  0  0  0  0  0999 V2000
  137.8570   74.4600  223.0810 H   0  0  0  0  0  0  0  0  0  0  0  0
  138.2560   73.8740  222.3210 N   0  0  0  0  0  0  0  0  0  0  0  0
  139.4930   73.8380  221.9120 C   0  0  0  0  0  0  0  0  0  0  0  0
  140.1610   75.0700  221.7250 C   0  0  0  0  0  0  0  0  0  0  0  0
  139.5300   76.3690  222.0780 C   0  0  0  0  0  0  0  0  0  0  0  0
  138.5720   76.3900  222.8980 O   0  0  0  0  0  0  0  0  0  0  0  0
  140.0130   77.6050  221.5170 N   0  0  0  0  0  0  0  0  0  0  0  0
  141.4400   77.9390  221.5540 C   0  0  0  0  0  0  0  0  0  0  0  0
  141.7897   78.1455  220.5317 H   0  0  0  0  0  0  0  0  0  0  0  0
  141.9925   77.0887  221.9804 H   0  0  0  0  0  0  0  0  0  0  0  0
  141.6780   79.1540  222.4140 C   0  0  0  0  0  0  0  0  0  0  0  0
  142.9840   79.4530  222.8330 C   0  0  0  0  0  0  0  0  0  0  0  0
  143.8115   78.7795  222.5656 H   0  0  0  0  0  0  0  0  0  0  0  0
  143.2390   80.6000  223.5870 C   0  0  0  0  0  0  0  0  0  0  0  0
  144.2640   80.8222  223.9187 H   0  0  0  0  0  0  0  0  0  0  0  0
  142.1950   81.4660  223.9210 C   0  0  0  0  0  0  0  0  0  0  0  0
  142.3991   82.3679  224.5168 H   0  0  0  0  0  0  0  0  0  0  0  0
  140.8930   81.1890  223.5000 C   0  0  0  0  0  0  0  0  0  0  0  0
  140.0739   81.8705  223.7732 H   0  0  0  0  0  0  0  0  0  0  0  0
  140.6220   80.0460  222.7300 C   0  0  0  0  0  0  0  0  0  0  0  0
  139.1900   79.7420  222.3490 C   0  0  0  0  0  0  0  0  0  0  0  0
  138.7083   80.6725  222.0141 H   0  0  0  0  0  0  0  0  0  0  0  0
  138.6883   79.3250  223.2347 H   0  0  0  0  0  0  0  0  0  0  0  0
  139.0930   78.7070  221.2270 C   0  0  0  0  0  0  0  0  0  0  0  0
  139.3665   79.1739  220.2693 H   0  0  0  0  0  0  0  0  0  0  0  0
  138.0636   78.3252  221.1603 H   0  0  0  0  0  0  0  0  0  0  0  0
  141.4540   75.0740  221.2020 C   0  0  0  0  0  0  0  0  0  0  0  0
  141.9812   76.0283  221.0559 H   0  0  0  0  0  0  0  0  0  0  0  0
  142.0830   73.8760  220.8630 C   0  0  0  0  0  0  0  0  0  0  0  0
  143.3800   73.8470  220.3100 C   0  0  0  0  0  0  0  0  0  0  0  0
  143.9980   74.9320  220.1100 O   0  0  0  0  0  0  0  0  0  0  0  0
  143.9660   72.6460  219.9890 N   0  0  0  0  0  0  0  0  0  0  0  0
  145.2270   72.6020  219.4470 C   0  0  0  0  0  0  0  0  0  0  0  0
  145.7752   73.5392  219.2706 H   0  0  0  0  0  0  0  0  0  0  0  0
  145.8220   71.3830  219.1170 C   0  0  0  0  0  0  0  0  0  0  0  0
  146.8328   71.3595  218.6838 H   0  0  0  0  0  0  0  0  0  0  0  0
  145.1270   70.1970  219.3400 C   0  0  0  0  0  0  0  0  0  0  0  0
  145.5860   69.2308  219.0834 H   0  0  0  0  0  0  0  0  0  0  0  0
  143.8490   70.2400  219.8890 C   0  0  0  0  0  0  0  0  0  0  0  0
  143.2916   69.3087  220.0677 H   0  0  0  0  0  0  0  0  0  0  0  0
  143.2780   71.4750  220.2120 C   0  0  0  0  0  0  0  0  0  0  0  0
  142.0330   71.5030  220.7490 N   0  0  0  0  0  0  0  0  0  0  0  0
  141.4100   72.6640  221.0840 C   0  0  0  0  0  0  0  0  0  0  0  0
  140.1400   72.6440  221.6230 N   0  0  0  0  0  0  0  0  0  0  0  0
  139.5170   71.3200  221.8660 C   0  0  0  0  0  0  0  0  0  0  0  0
  138.4426   71.3809  221.6381 H   0  0  0  0  0  0  0  0  0  0  0  0
  140.0074   70.5782  221.2184 H   0  0  0  0  0  0  0  0  0  0  0  0
  139.6930   70.8940  223.3030 C   0  0  0  0  0  0  0  0  0  0  0  0
  138.8800   69.8820  223.8460 C   0  0  0  0  0  0  0  0  0  0  0  0
  138.1225   69.3921  223.2166 H   0  0  0  0  0  0  0  0  0  0  0  0
  139.0300   69.4960  225.1810 C   0  0  0  0  0  0  0  0  0  0  0  0
  138.3912   68.7037  225.5983 H   0  0  0  0  0  0  0  0  0  0  0  0
  139.9890   70.1140  225.9860 C   0  0  0  0  0  0  0  0  0  0  0  0
  140.1041   69.8106  227.0370 H   0  0  0  0  0  0  0  0  0  0  0  0
  140.8020   71.1180  225.4550 C   0  0  0  0  0  0  0  0  0  0  0  0
  141.5587   71.6034  226.0889 H   0  0  0  0  0  0  0  0  0  0  0  0
  140.6570   71.5080  224.1200 C   0  0  0  0  0  0  0  0  0  0  0  0
  141.3006   72.2991  223.7077 H   0  0  0  0  0  0  0  0  0  0  0  0
  1  2  1  0
  2  3  2  0
  3  4  1  0
  4  5  1  0
  5  6  2  0
  5  7  1  0
  7  8  1  0
  8  9  1  0
  8 10  1  0
  8 11  1  0
 11 12  2  0
 12 13  1  0
 12 14  1  0
 14 15  1  0
 14 16  2  0
 16 17  1  0
 16 18  1  0
 18 19  1  0
 18 20  2  0
 20 21  1  0
 21 22  1  0
 21 23  1  0
 21 24  1  0
 24 25  1  0
 24 26  1  0
  4 27  2  0
 27 28  1  0
 27 29  1  0
 29 30  1  0
 30 31  2  0
 30 32  1  0
 32 33  1  0
 33 34  1  0
 33 35  2  0
 35 36  1  0
 35 37  1  0
 37 38  1  0
 37 39  2  0
 39 40  1  0
 39 41  1  0
 41 42  2  0
 42 43  1  0
 43 44  1  0
 44 45  1  0
 45 46  1  0
 45 47  1  0
 45 48  1  0
 48 49  2  0
 49 50  1  0
 49 51  1  0
 51 52  1  0
 51 53  2  0
 53 54  1  0
 53 55  1  0
 55 56  1  0
 55 57  2  0
 57 58  1  0
 44  3  1  0
 57 48  1  0
 24  7  1  0
 43 29  2  0
 20 11  1  0
 41 32  1  0
M  END
>  <UniqueID>  (68) 
128

>  <SMILES>  (68) 
[H]/N=c1/c(C(=O)N2CCc3ccccc3C2)cc2c(=O)n3ccccc3nc2n1Cc1ccccc1

>  <Energy>  (68) 
94.15441284030814

>  <Genealogy>  (68) 
[H]/N=c1/c(C(=O)N2CCc3ccccc3C2)cc2c(=O)n3ccccc3nc2n1Cc1ccccc1 (cis-trans isomerization)
[H]/N=c1/c(C(=O)N2CCc3ccccc3C2)cc2c(=O)n3ccccc3nc2n1Cc1ccccc1 (3D coordinates assigned)
[H]/N=c1/c(C(=O)N2CCc3ccccc3C2)cc2c(=O)n3ccccc3nc2n1Cc1ccccc1 (nonaromatic ring conformer: 94.15441284030814 kcal/mol)

>  <smiles>  (68) 
N=c1c(C(=O)N2CCc3ccccc3C2)cc2c(=O)n3ccccc3nc2n1Cc1ccccc1

>  <score_type>  (68) 
oracle

>  <origin>  (68) 
autodockgpu

>  <m_score__min__energy>  (68) 
-9.2699999999999996

>  <m_primary>  (68) 
energy

>  <meeko>  (68) 
{"free_energy": -9.27, "intermolecular_energy": -10.76, "internal_energy": -1.37, "cluster_size": 14, "cluster_id": 1, "rank_in_cluster": 2}

>  <energy>  (68) 
-9.26

>  <cluster_rmsd>  (68) 
0.04

>  <rmsd>  (68) 
269.73

>  <cluster>  (68) 
1

$$$$
DRTNTVLZUVPGHX-GNVQSUKONA-N
     RDKit          3D

 58 63  0  0  0  0  0  0  0  0999 V2000
  137.8540   74.4640  223.0880 H   0  0  0  0  0  0  0  0  0  0  0  0
  138.2530   73.8710  222.3330 N   0  0  0  0  0  0  0  0  0  0  0  0
  139.4900   73.8320  221.9230 C   0  0  0  0  0  0  0  0  0  0  0  0
  140.1600   75.0630  221.7360 C   0  0  0  0  0  0  0  0  0  0  0  0
  139.5310   76.3630  222.0900 C   0  0  0  0  0  0  0  0  0  0  0  0
  138.5730   76.3860  222.9100 O   0  0  0  0  0  0  0  0  0  0  0  0
  140.0180   77.5990  221.5320 N   0  0  0  0  0  0  0  0  0  0  0  0
  141.4430   77.9380  221.5870 C   0  0  0  0  0  0  0  0  0  0  0  0
  141.8057   78.1417  220.5687 H   0  0  0  0  0  0  0  0  0  0  0  0
  141.9922   77.0912  222.0244 H   0  0  0  0  0  0  0  0  0  0  0  0
  141.6660   79.1580  222.4460 C   0  0  0  0  0  0  0  0  0  0  0  0
  142.9650   79.4620  222.8810 C   0  0  0  0  0  0  0  0  0  0  0  0
  143.7981   78.7902  222.6269 H   0  0  0  0  0  0  0  0  0  0  0  0
  143.2060   80.6130  223.6350 C   0  0  0  0  0  0  0  0  0  0  0  0
  144.2258   80.8401  223.9790 H   0  0  0  0  0  0  0  0  0  0  0  0
  142.1550   81.4760  223.9530 C   0  0  0  0  0  0  0  0  0  0  0  0
  142.3477   82.3803  224.5489 H   0  0  0  0  0  0  0  0  0  0  0  0
  140.8590   81.1920  223.5150 C   0  0  0  0  0  0  0  0  0  0  0  0
  140.0337   81.8711  223.7752 H   0  0  0  0  0  0  0  0  0  0  0  0
  140.6020   80.0460  222.7450 C   0  0  0  0  0  0  0  0  0  0  0  0
  139.1760   79.7370  222.3460 C   0  0  0  0  0  0  0  0  0  0  0  0
  138.6965   80.6648  222.0005 H   0  0  0  0  0  0  0  0  0  0  0  0
  138.6627   79.3228  223.2263 H   0  0  0  0  0  0  0  0  0  0  0  0
  139.0980   78.6970  221.2270 C   0  0  0  0  0  0  0  0  0  0  0  0
  139.3821   79.1615  220.2712 H   0  0  0  0  0  0  0  0  0  0  0  0
  138.0710   78.3108  221.1493 H   0  0  0  0  0  0  0  0  0  0  0  0
  141.4520   75.0660  221.2110 C   0  0  0  0  0  0  0  0  0  0  0  0
  141.9802   76.0197  221.0648 H   0  0  0  0  0  0  0  0  0  0  0  0
  142.0790   73.8670  220.8700 C   0  0  0  0  0  0  0  0  0  0  0  0
  143.3750   73.8360  220.3160 C   0  0  0  0  0  0  0  0  0  0  0  0
  143.9940   74.9200  220.1160 O   0  0  0  0  0  0  0  0  0  0  0  0
  143.9580   72.6350  219.9930 N   0  0  0  0  0  0  0  0  0  0  0  0
  145.2190   72.5890  219.4490 C   0  0  0  0  0  0  0  0  0  0  0  0
  145.7688   73.5252  219.2722 H   0  0  0  0  0  0  0  0  0  0  0  0
  145.8110   71.3690  219.1180 C   0  0  0  0  0  0  0  0  0  0  0  0
  146.8217   71.3438  218.6845 H   0  0  0  0  0  0  0  0  0  0  0  0
  145.1140   70.1840  219.3400 C   0  0  0  0  0  0  0  0  0  0  0  0
  145.5702   69.2173  219.0802 H   0  0  0  0  0  0  0  0  0  0  0  0
  143.8380   70.2290  219.8920 C   0  0  0  0  0  0  0  0  0  0  0  0
  143.2801   69.2983  220.0725 H   0  0  0  0  0  0  0  0  0  0  0  0
  143.2690   71.4640  220.2160 C   0  0  0  0  0  0  0  0  0  0  0  0
  142.0240   71.4940  220.7550 N   0  0  0  0  0  0  0  0  0  0  0  0
  141.4040   72.6560  221.0910 C   0  0  0  0  0  0  0  0  0  0  0  0
  140.1340   72.6380  221.6320 N   0  0  0  0  0  0  0  0  0  0  0  0
  139.5090   71.3150  221.8750 C   0  0  0  0  0  0  0  0  0  0  0  0
  138.4343   71.3782  221.6493 H   0  0  0  0  0  0  0  0  0  0  0  0
  139.9968   70.5730  221.2257 H   0  0  0  0  0  0  0  0  0  0  0  0
  139.6870   70.8870  223.3110 C   0  0  0  0  0  0  0  0  0  0  0  0
  138.8660   69.8830  223.8570 C   0  0  0  0  0  0  0  0  0  0  0  0
  138.1016   69.4002  223.2304 H   0  0  0  0  0  0  0  0  0  0  0  0
  139.0170   69.4960  225.1920 C   0  0  0  0  0  0  0  0  0  0  0  0
  138.3719   68.7102  225.6121 H   0  0  0  0  0  0  0  0  0  0  0  0
  139.9850   70.1050  225.9930 C   0  0  0  0  0  0  0  0  0  0  0  0
  140.1005   69.8010  227.0438 H   0  0  0  0  0  0  0  0  0  0  0  0
  140.8070   71.1010  225.4590 C   0  0  0  0  0  0  0  0  0  0  0  0
  141.5714   71.5783  226.0898 H   0  0  0  0  0  0  0  0  0  0  0  0
  140.6600   71.4920  224.1250 C   0  0  0  0  0  0  0  0  0  0  0  0
  141.3092   72.2772  223.7102 H   0  0  0  0  0  0  0  0  0  0  0  0
  1  2  1  0
  2  3  2  0
  3  4  1  0
  4  5  1  0
  5  6  2  0
  5  7  1  0
  7  8  1  0
  8  9  1  0
  8 10  1  0
  8 11  1  0
 11 12  2  0
 12 13  1  0
 12 14  1  0
 14 15  1  0
 14 16  2  0
 16 17  1  0
 16 18  1  0
 18 19  1  0
 18 20  2  0
 20 21  1  0
 21 22  1  0
 21 23  1  0
 21 24  1  0
 24 25  1  0
 24 26  1  0
  4 27  2  0
 27 28  1  0
 27 29  1  0
 29 30  1  0
 30 31  2  0
 30 32  1  0
 32 33  1  0
 33 34  1  0
 33 35  2  0
 35 36  1  0
 35 37  1  0
 37 38  1  0
 37 39  2  0
 39 40  1  0
 39 41  1  0
 41 42  2  0
 42 43  1  0
 43 44  1  0
 44 45  1  0
 45 46  1  0
 45 47  1  0
 45 48  1  0
 48 49  2  0
 49 50  1  0
 49 51  1  0
 51 52  1  0
 51 53  2  0
 53 54  1  0
 53 55  1  0
 55 56  1  0
 55 57  2  0
 57 58  1  0
 44  3  1  0
 57 48  1  0
 24  7  1  0
 43 29  2  0
 20 11  1  0
 41 32  1  0
M  END
>  <UniqueID>  (69) 
128

>  <SMILES>  (69) 
[H]/N=c1/c(C(=O)N2CCc3ccccc3C2)cc2c(=O)n3ccccc3nc2n1Cc1ccccc1

>  <Energy>  (69) 
94.15441284030814

>  <Genealogy>  (69) 
[H]/N=c1/c(C(=O)N2CCc3ccccc3C2)cc2c(=O)n3ccccc3nc2n1Cc1ccccc1 (cis-trans isomerization)
[H]/N=c1/c(C(=O)N2CCc3ccccc3C2)cc2c(=O)n3ccccc3nc2n1Cc1ccccc1 (3D coordinates assigned)
[H]/N=c1/c(C(=O)N2CCc3ccccc3C2)cc2c(=O)n3ccccc3nc2n1Cc1ccccc1 (nonaromatic ring conformer: 94.15441284030814 kcal/mol)

>  <smiles>  (69) 
N=c1c(C(=O)N2CCc3ccccc3C2)cc2c(=O)n3ccccc3nc2n1Cc1ccccc1

>  <score_type>  (69) 
oracle

>  <origin>  (69) 
autodockgpu

>  <m_score__min__energy>  (69) 
-9.2699999999999996

>  <m_primary>  (69) 
energy

>  <meeko>  (69) 
{"free_energy": -9.26, "intermolecular_energy": -10.75, "internal_energy": -1.38, "cluster_size": 14, "cluster_id": 1, "rank_in_cluster": 10}

>  <energy>  (69) 
-9.26

>  <cluster_rmsd>  (69) 
0.04

>  <rmsd>  (69) 
269.73

>  <cluster>  (69) 
1

$$$$
DRTNTVLZUVPGHX-GNVQSUKONA-N
     RDKit          3D

 58 63  0  0  0  0  0  0  0  0999 V2000
  137.8310   74.3120  223.0680 H   0  0  0  0  0  0  0  0  0  0  0  0
  138.2330   73.8070  222.2530 N   0  0  0  0  0  0  0  0  0  0  0  0
  139.4800   73.7690  221.8770 C   0  0  0  0  0  0  0  0  0  0  0  0
  140.1650   74.9990  221.7440 C   0  0  0  0  0  0  0  0  0  0  0  0
  139.5370   76.2940  222.1180 C   0  0  0  0  0  0  0  0  0  0  0  0
  138.6110   76.3090  222.9740 O   0  0  0  0  0  0  0  0  0  0  0  0
  139.9890   77.5320  221.5370 N   0  0  0  0  0  0  0  0  0  0  0  0
  141.4110   77.8900  221.5450 C   0  0  0  0  0  0  0  0  0  0  0  0
  141.7388   78.0919  220.5146 H   0  0  0  0  0  0  0  0  0  0  0  0
  141.9852   77.0534  221.9697 H   0  0  0  0  0  0  0  0  0  0  0  0
  141.6440   79.1180  222.3890 C   0  0  0  0  0  0  0  0  0  0  0  0
  142.9520   79.4420  222.7810 C   0  0  0  0  0  0  0  0  0  0  0  0
  143.7854   78.7796  222.5044 H   0  0  0  0  0  0  0  0  0  0  0  0
  143.2020   80.6000  223.5200 C   0  0  0  0  0  0  0  0  0  0  0  0
  144.2291   80.8424  223.8302 H   0  0  0  0  0  0  0  0  0  0  0  0
  142.1500   81.4510  223.8660 C   0  0  0  0  0  0  0  0  0  0  0  0
  142.3498   82.3616  224.4499 H   0  0  0  0  0  0  0  0  0  0  0  0
  140.8450   81.1480  223.4720 C   0  0  0  0  0  0  0  0  0  0  0  0
  140.0196   81.8178  223.7550 H   0  0  0  0  0  0  0  0  0  0  0  0
  140.5790   79.9940  222.7170 C   0  0  0  0  0  0  0  0  0  0  0  0
  139.1450   79.6640  222.3660 C   0  0  0  0  0  0  0  0  0  0  0  0
  138.6424   80.5833  222.0308 H   0  0  0  0  0  0  0  0  0  0  0  0
  138.6657   79.2488  223.2648 H   0  0  0  0  0  0  0  0  0  0  0  0
  139.0450   78.6160  221.2560 C   0  0  0  0  0  0  0  0  0  0  0  0
  139.2917   79.0784  220.2889 H   0  0  0  0  0  0  0  0  0  0  0  0
  138.0213   78.2157  221.2141 H   0  0  0  0  0  0  0  0  0  0  0  0
  141.4720   75.0060  221.2570 C   0  0  0  0  0  0  0  0  0  0  0  0
  142.0124   75.9586  221.1545 H   0  0  0  0  0  0  0  0  0  0  0  0
  142.0980   73.8110  220.8990 C   0  0  0  0  0  0  0  0  0  0  0  0
  143.4090   73.7850  220.3810 C   0  0  0  0  0  0  0  0  0  0  0  0
  144.0430   74.8680  220.2300 O   0  0  0  0  0  0  0  0  0  0  0  0
  143.9920   72.5880  220.0400 N   0  0  0  0  0  0  0  0  0  0  0  0
  145.2670   72.5470  219.5310 C   0  0  0  0  0  0  0  0  0  0  0  0
  145.8288   73.4832  219.3974 H   0  0  0  0  0  0  0  0  0  0  0  0
  145.8590   71.3320  219.1810 C   0  0  0  0  0  0  0  0  0  0  0  0
  146.8809   71.3108  218.7745 H   0  0  0  0  0  0  0  0  0  0  0  0
  145.1470   70.1470  219.3500 C   0  0  0  0  0  0  0  0  0  0  0  0
  145.6036   69.1842  219.0770 H   0  0  0  0  0  0  0  0  0  0  0  0
  143.8550   70.1870  219.8660 C   0  0  0  0  0  0  0  0  0  0  0  0
  143.2843   69.2566  220.0024 H   0  0  0  0  0  0  0  0  0  0  0  0
  143.2870   71.4180  220.2100 C   0  0  0  0  0  0  0  0  0  0  0  0
  142.0280   71.4430  220.7130 N   0  0  0  0  0  0  0  0  0  0  0  0
  141.4070   72.6000  221.0660 C   0  0  0  0  0  0  0  0  0  0  0  0
  140.1230   72.5780  221.5700 N   0  0  0  0  0  0  0  0  0  0  0  0
  139.4810   71.2540  221.7560 C   0  0  0  0  0  0  0  0  0  0  0  0
  138.4114   71.3356  221.5126 H   0  0  0  0  0  0  0  0  0  0  0  0
  139.9736   70.5294  221.0910 H   0  0  0  0  0  0  0  0  0  0  0  0
  139.6280   70.7760  223.1810 C   0  0  0  0  0  0  0  0  0  0  0  0
  140.3760   71.5280  224.1050 C   0  0  0  0  0  0  0  0  0  0  0  0
  140.8436   72.4729  223.7909 H   0  0  0  0  0  0  0  0  0  0  0  0
  140.5280   71.0800  225.4210 C   0  0  0  0  0  0  0  0  0  0  0  0
  141.1144   71.6728  226.1384 H   0  0  0  0  0  0  0  0  0  0  0  0
  139.9370   69.8820  225.8260 C   0  0  0  0  0  0  0  0  0  0  0  0
  140.0594   69.5303  226.8611 H   0  0  0  0  0  0  0  0  0  0  0  0
  139.1900   69.1300  224.9160 C   0  0  0  0  0  0  0  0  0  0  0  0
  138.7227   68.1871  225.2364 H   0  0  0  0  0  0  0  0  0  0  0  0
  139.0350   69.5730  223.5990 C   0  0  0  0  0  0  0  0  0  0  0  0
  138.4459   68.9767  222.8867 H   0  0  0  0  0  0  0  0  0  0  0  0
  1  2  1  0
  2  3  2  0
  3  4  1  0
  4  5  1  0
  5  6  2  0
  5  7  1  0
  7  8  1  0
  8  9  1  0
  8 10  1  0
  8 11  1  0
 11 12  2  0
 12 13  1  0
 12 14  1  0
 14 15  1  0
 14 16  2  0
 16 17  1  0
 16 18  1  0
 18 19  1  0
 18 20  2  0
 20 21  1  0
 21 22  1  0
 21 23  1  0
 21 24  1  0
 24 25  1  0
 24 26  1  0
  4 27  2  0
 27 28  1  0
 27 29  1  0
 29 30  1  0
 30 31  2  0
 30 32  1  0
 32 33  1  0
 33 34  1  0
 33 35  2  0
 35 36  1  0
 35 37  1  0
 37 38  1  0
 37 39  2  0
 39 40  1  0
 39 41  1  0
 41 42  2  0
 42 43  1  0
 43 44  1  0
 44 45  1  0
 45 46  1  0
 45 47  1  0
 45 48  1  0
 48 49  2  0
 49 50  1  0
 49 51  1  0
 51 52  1  0
 51 53  2  0
 53 54  1  0
 53 55  1  0
 55 56  1  0
 55 57  2  0
 57 58  1  0
 44  3  1  0
 57 48  1  0
 24  7  1  0
 43 29  2  0
 20 11  1  0
 41 32  1  0
M  END
>  <UniqueID>  (70) 
128

>  <SMILES>  (70) 
[H]/N=c1/c(C(=O)N2CCc3ccccc3C2)cc2c(=O)n3ccccc3nc2n1Cc1ccccc1

>  <Energy>  (70) 
94.15441284030814

>  <Genealogy>  (70) 
[H]/N=c1/c(C(=O)N2CCc3ccccc3C2)cc2c(=O)n3ccccc3nc2n1Cc1ccccc1 (cis-trans isomerization)
[H]/N=c1/c(C(=O)N2CCc3ccccc3C2)cc2c(=O)n3ccccc3nc2n1Cc1ccccc1 (3D coordinates assigned)
[H]/N=c1/c(C(=O)N2CCc3ccccc3C2)cc2c(=O)n3ccccc3nc2n1Cc1ccccc1 (nonaromatic ring conformer: 94.15441284030814 kcal/mol)

>  <smiles>  (70) 
N=c1c(C(=O)N2CCc3ccccc3C2)cc2c(=O)n3ccccc3nc2n1Cc1ccccc1

>  <score_type>  (70) 
oracle

>  <origin>  (70) 
autodockgpu

>  <m_score__min__energy>  (70) 
-9.2699999999999996

>  <m_primary>  (70) 
energy

>  <meeko>  (70) 
{"free_energy": -9.22, "intermolecular_energy": -10.71, "internal_energy": -1.39, "cluster_size": 14, "cluster_id": 1, "rank_in_cluster": 14}

>  <energy>  (70) 
-9.26

>  <cluster_rmsd>  (70) 
0.02

>  <rmsd>  (70) 
269.72

>  <cluster>  (70) 
1

$$$$
DRTNTVLZUVPGHX-GNVQSUKONA-N
     RDKit          3D

 58 63  0  0  0  0  0  0  0  0999 V2000
  137.8530   74.4620  223.0880 H   0  0  0  0  0  0  0  0  0  0  0  0
  138.2490   73.8880  222.3170 N   0  0  0  0  0  0  0  0  0  0  0  0
  139.4870   73.8500  221.9090 C   0  0  0  0  0  0  0  0  0  0  0  0
  140.1560   75.0820  221.7230 C   0  0  0  0  0  0  0  0  0  0  0  0
  139.5250   76.3810  222.0760 C   0  0  0  0  0  0  0  0  0  0  0  0
  138.5630   76.4020  222.8910 O   0  0  0  0  0  0  0  0  0  0  0  0
  140.0140   77.6180  221.5210 N   0  0  0  0  0  0  0  0  0  0  0  0
  141.4390   77.9560  221.5810 C   0  0  0  0  0  0  0  0  0  0  0  0
  141.8046   78.1619  220.5642 H   0  0  0  0  0  0  0  0  0  0  0  0
  141.9861   77.1077  222.0182 H   0  0  0  0  0  0  0  0  0  0  0  0
  141.6610   79.1730  222.4430 C   0  0  0  0  0  0  0  0  0  0  0  0
  142.9590   79.4760  222.8820 C   0  0  0  0  0  0  0  0  0  0  0  0
  143.7924   78.8042  222.6290 H   0  0  0  0  0  0  0  0  0  0  0  0
  143.1990   80.6250  223.6380 C   0  0  0  0  0  0  0  0  0  0  0  0
  144.2182   80.8512  223.9846 H   0  0  0  0  0  0  0  0  0  0  0  0
  142.1470   81.4880  223.9550 C   0  0  0  0  0  0  0  0  0  0  0  0
  142.3388   82.3911  224.5530 H   0  0  0  0  0  0  0  0  0  0  0  0
  140.8530   81.2060  223.5140 C   0  0  0  0  0  0  0  0  0  0  0  0
  140.0276   81.8851  223.7740 H   0  0  0  0  0  0  0  0  0  0  0  0
  140.5970   80.0620  222.7410 C   0  0  0  0  0  0  0  0  0  0  0  0
  139.1710   79.7540  222.3380 C   0  0  0  0  0  0  0  0  0  0  0  0
  138.6922   80.6826  221.9940 H   0  0  0  0  0  0  0  0  0  0  0  0
  138.6556   79.3377  223.2161 H   0  0  0  0  0  0  0  0  0  0  0  0
  139.0960   78.7170  221.2160 C   0  0  0  0  0  0  0  0  0  0  0  0
  139.3835   79.1839  220.2624 H   0  0  0  0  0  0  0  0  0  0  0  0
  138.0690   78.3316  221.1340 H   0  0  0  0  0  0  0  0  0  0  0  0
  141.4490   75.0860  221.2010 C   0  0  0  0  0  0  0  0  0  0  0  0
  141.9768   76.0402  221.0562 H   0  0  0  0  0  0  0  0  0  0  0  0
  142.0780   73.8870  220.8610 C   0  0  0  0  0  0  0  0  0  0  0  0
  143.3750   73.8580  220.3100 C   0  0  0  0  0  0  0  0  0  0  0  0
  143.9930   74.9420  220.1100 O   0  0  0  0  0  0  0  0  0  0  0  0
  143.9600   72.6570  219.9880 N   0  0  0  0  0  0  0  0  0  0  0  0
  145.2220   72.6120  219.4460 C   0  0  0  0  0  0  0  0  0  0  0  0
  145.7710   73.5488  219.2700 H   0  0  0  0  0  0  0  0  0  0  0  0
  145.8160   71.3930  219.1160 C   0  0  0  0  0  0  0  0  0  0  0  0
  146.8271   71.3687  218.6835 H   0  0  0  0  0  0  0  0  0  0  0  0
  145.1200   70.2080  219.3380 C   0  0  0  0  0  0  0  0  0  0  0  0
  145.5786   69.2417  219.0812 H   0  0  0  0  0  0  0  0  0  0  0  0
  143.8420   70.2510  219.8860 C   0  0  0  0  0  0  0  0  0  0  0  0
  143.2841   69.3197  220.0633 H   0  0  0  0  0  0  0  0  0  0  0  0
  143.2710   71.4860  220.2100 C   0  0  0  0  0  0  0  0  0  0  0  0
  142.0260   71.5150  220.7460 N   0  0  0  0  0  0  0  0  0  0  0  0
  141.4030   72.6750  221.0810 C   0  0  0  0  0  0  0  0  0  0  0  0
  140.1330   72.6560  221.6200 N   0  0  0  0  0  0  0  0  0  0  0  0
  139.5090   71.3330  221.8610 C   0  0  0  0  0  0  0  0  0  0  0  0
  138.4361   71.3931  221.6259 H   0  0  0  0  0  0  0  0  0  0  0  0
  140.0034   70.5900  221.2179 H   0  0  0  0  0  0  0  0  0  0  0  0
  139.6760   70.9100  223.3010 C   0  0  0  0  0  0  0  0  0  0  0  0
  140.6550   71.5170  224.1080 C   0  0  0  0  0  0  0  0  0  0  0  0
  141.2921   72.3109  223.6911 H   0  0  0  0  0  0  0  0  0  0  0  0
  140.8230   71.1170  225.4370 C   0  0  0  0  0  0  0  0  0  0  0  0
  141.5907   71.5966  226.0620 H   0  0  0  0  0  0  0  0  0  0  0  0
  140.0180   70.1100  225.9720 C   0  0  0  0  0  0  0  0  0  0  0  0
  140.1526   69.7951  227.0173 H   0  0  0  0  0  0  0  0  0  0  0  0
  139.0410   69.5020  225.1790 C   0  0  0  0  0  0  0  0  0  0  0  0
  138.4061   68.7094  225.6016 H   0  0  0  0  0  0  0  0  0  0  0  0
  138.8690   69.8990  223.8500 C   0  0  0  0  0  0  0  0  0  0  0  0
  138.0979   69.4176  223.2306 H   0  0  0  0  0  0  0  0  0  0  0  0
  1  2  1  0
  2  3  2  0
  3  4  1  0
  4  5  1  0
  5  6  2  0
  5  7  1  0
  7  8  1  0
  8  9  1  0
  8 10  1  0
  8 11  1  0
 11 12  2  0
 12 13  1  0
 12 14  1  0
 14 15  1  0
 14 16  2  0
 16 17  1  0
 16 18  1  0
 18 19  1  0
 18 20  2  0
 20 21  1  0
 21 22  1  0
 21 23  1  0
 21 24  1  0
 24 25  1  0
 24 26  1  0
  4 27  2  0
 27 28  1  0
 27 29  1  0
 29 30  1  0
 30 31  2  0
 30 32  1  0
 32 33  1  0
 33 34  1  0
 33 35  2  0
 35 36  1  0
 35 37  1  0
 37 38  1  0
 37 39  2  0
 39 40  1  0
 39 41  1  0
 41 42  2  0
 42 43  1  0
 43 44  1  0
 44 45  1  0
 45 46  1  0
 45 47  1  0
 45 48  1  0
 48 49  2  0
 49 50  1  0
 49 51  1  0
 51 52  1  0
 51 53  2  0
 53 54  1  0
 53 55  1  0
 55 56  1  0
 55 57  2  0
 57 58  1  0
 44  3  1  0
 57 48  1  0
 24  7  1  0
 43 29  2  0
 20 11  1  0
 41 32  1  0
M  END
>  <UniqueID>  (71) 
128

>  <SMILES>  (71) 
[H]/N=c1/c(C(=O)N2CCc3ccccc3C2)cc2c(=O)n3ccccc3nc2n1Cc1ccccc1

>  <Energy>  (71) 
94.15441284030814

>  <Genealogy>  (71) 
[H]/N=c1/c(C(=O)N2CCc3ccccc3C2)cc2c(=O)n3ccccc3nc2n1Cc1ccccc1 (cis-trans isomerization)
[H]/N=c1/c(C(=O)N2CCc3ccccc3C2)cc2c(=O)n3ccccc3nc2n1Cc1ccccc1 (3D coordinates assigned)
[H]/N=c1/c(C(=O)N2CCc3ccccc3C2)cc2c(=O)n3ccccc3nc2n1Cc1ccccc1 (nonaromatic ring conformer: 94.15441284030814 kcal/mol)

>  <smiles>  (71) 
N=c1c(C(=O)N2CCc3ccccc3C2)cc2c(=O)n3ccccc3nc2n1Cc1ccccc1

>  <score_type>  (71) 
oracle

>  <origin>  (71) 
autodockgpu

>  <m_score__min__energy>  (71) 
-9.2699999999999996

>  <m_primary>  (71) 
energy

>  <meeko>  (71) 
{"free_energy": -9.27, "intermolecular_energy": -10.76, "internal_energy": -1.37, "cluster_size": 14, "cluster_id": 1, "rank_in_cluster": 6}

>  <energy>  (71) 
-9.26

>  <cluster_rmsd>  (71) 
0.05

>  <rmsd>  (71) 
269.72

>  <cluster>  (71) 
1

$$$$
DRTNTVLZUVPGHX-GNVQSUKONA-N
     RDKit          3D

 58 63  0  0  0  0  0  0  0  0999 V2000
  137.8580   74.4790  223.0770 H   0  0  0  0  0  0  0  0  0  0  0  0
  138.2610   73.8850  222.3240 N   0  0  0  0  0  0  0  0  0  0  0  0
  139.4990   73.8490  221.9160 C   0  0  0  0  0  0  0  0  0  0  0  0
  140.1660   75.0820  221.7310 C   0  0  0  0  0  0  0  0  0  0  0  0
  139.5340   76.3800  222.0860 C   0  0  0  0  0  0  0  0  0  0  0  0
  138.5750   76.4000  222.9050 O   0  0  0  0  0  0  0  0  0  0  0  0
  140.0180   77.6180  221.5290 N   0  0  0  0  0  0  0  0  0  0  0  0
  141.4420   77.9600  221.5840 C   0  0  0  0  0  0  0  0  0  0  0  0
  141.8040   78.1657  220.5658 H   0  0  0  0  0  0  0  0  0  0  0  0
  141.9934   77.1140  222.0201 H   0  0  0  0  0  0  0  0  0  0  0  0
  141.6620   79.1790  222.4440 C   0  0  0  0  0  0  0  0  0  0  0  0
  142.9600   79.4860  222.8800 C   0  0  0  0  0  0  0  0  0  0  0  0
  143.7947   78.8163  222.6253 H   0  0  0  0  0  0  0  0  0  0  0  0
  143.1990   80.6360  223.6350 C   0  0  0  0  0  0  0  0  0  0  0  0
  144.2182   80.8646  223.9799 H   0  0  0  0  0  0  0  0  0  0  0  0
  142.1450   81.4970  223.9530 C   0  0  0  0  0  0  0  0  0  0  0  0
  142.3356   82.4014  224.5494 H   0  0  0  0  0  0  0  0  0  0  0  0
  140.8510   81.2110  223.5150 C   0  0  0  0  0  0  0  0  0  0  0  0
  140.0242   81.8881  223.7756 H   0  0  0  0  0  0  0  0  0  0  0  0
  140.5970   80.0650  222.7440 C   0  0  0  0  0  0  0  0  0  0  0  0
  139.1710   79.7530  222.3440 C   0  0  0  0  0  0  0  0  0  0  0  0
  138.6895   80.6800  221.9993 H   0  0  0  0  0  0  0  0  0  0  0  0
  138.6583   79.3369  223.2237 H   0  0  0  0  0  0  0  0  0  0  0  0
  139.0960   78.7140  221.2240 C   0  0  0  0  0  0  0  0  0  0  0  0
  139.3799   79.1800  220.2689 H   0  0  0  0  0  0  0  0  0  0  0  0
  138.0698   78.3257  221.1449 H   0  0  0  0  0  0  0  0  0  0  0  0
  141.4590   75.0890  221.2090 C   0  0  0  0  0  0  0  0  0  0  0  0
  141.9855   76.0440  221.0651 H   0  0  0  0  0  0  0  0  0  0  0  0
  142.0890   73.8910  220.8680 C   0  0  0  0  0  0  0  0  0  0  0  0
  143.3860   73.8630  220.3160 C   0  0  0  0  0  0  0  0  0  0  0  0
  144.0030   74.9490  220.1180 O   0  0  0  0  0  0  0  0  0  0  0  0
  143.9730   72.6640  219.9940 N   0  0  0  0  0  0  0  0  0  0  0  0
  145.2350   72.6210  219.4520 C   0  0  0  0  0  0  0  0  0  0  0  0
  145.7833   73.5585  219.2776 H   0  0  0  0  0  0  0  0  0  0  0  0
  145.8300   71.4030  219.1200 C   0  0  0  0  0  0  0  0  0  0  0  0
  146.8407   71.3807  218.6865 H   0  0  0  0  0  0  0  0  0  0  0  0
  145.1360   70.2160  219.3410 C   0  0  0  0  0  0  0  0  0  0  0  0
  145.5956   69.2505  219.0830 H   0  0  0  0  0  0  0  0  0  0  0  0
  143.8580   70.2580  219.8900 C   0  0  0  0  0  0  0  0  0  0  0  0
  143.3016   69.3260  220.0681 H   0  0  0  0  0  0  0  0  0  0  0  0
  143.2850   71.4920  220.2140 C   0  0  0  0  0  0  0  0  0  0  0  0
  142.0400   71.5180  220.7510 N   0  0  0  0  0  0  0  0  0  0  0  0
  141.4160   72.6780  221.0870 C   0  0  0  0  0  0  0  0  0  0  0  0
  140.1460   72.6570  221.6260 N   0  0  0  0  0  0  0  0  0  0  0  0
  139.5230   71.3320  221.8660 C   0  0  0  0  0  0  0  0  0  0  0  0
  138.4515   71.3891  221.6240 H   0  0  0  0  0  0  0  0  0  0  0  0
  140.0230   70.5886  221.2277 H   0  0  0  0  0  0  0  0  0  0  0  0
  139.6820   70.9130  223.3080 C   0  0  0  0  0  0  0  0  0  0  0  0
  140.6650   71.5130  224.1150 C   0  0  0  0  0  0  0  0  0  0  0  0
  141.3109   72.2991  223.6968 H   0  0  0  0  0  0  0  0  0  0  0  0
  140.8260   71.1160  225.4460 C   0  0  0  0  0  0  0  0  0  0  0  0
  141.5965   71.5905  226.0715 H   0  0  0  0  0  0  0  0  0  0  0  0
  140.0100   70.1180  225.9820 C   0  0  0  0  0  0  0  0  0  0  0  0
  140.1395   69.8043  227.0283 H   0  0  0  0  0  0  0  0  0  0  0  0
  139.0290   69.5180  225.1890 C   0  0  0  0  0  0  0  0  0  0  0  0
  138.3848   68.7336  225.6129 H   0  0  0  0  0  0  0  0  0  0  0  0
  138.8640   69.9120  223.8580 C   0  0  0  0  0  0  0  0  0  0  0  0
  138.0899   69.4359  223.2382 H   0  0  0  0  0  0  0  0  0  0  0  0
  1  2  1  0
  2  3  2  0
  3  4  1  0
  4  5  1  0
  5  6  2  0
  5  7  1  0
  7  8  1  0
  8  9  1  0
  8 10  1  0
  8 11  1  0
 11 12  2  0
 12 13  1  0
 12 14  1  0
 14 15  1  0
 14 16  2  0
 16 17  1  0
 16 18  1  0
 18 19  1  0
 18 20  2  0
 20 21  1  0
 21 22  1  0
 21 23  1  0
 21 24  1  0
 24 25  1  0
 24 26  1  0
  4 27  2  0
 27 28  1  0
 27 29  1  0
 29 30  1  0
 30 31  2  0
 30 32  1  0
 32 33  1  0
 33 34  1  0
 33 35  2  0
 35 36  1  0
 35 37  1  0
 37 38  1  0
 37 39  2  0
 39 40  1  0
 39 41  1  0
 41 42  2  0
 42 43  1  0
 43 44  1  0
 44 45  1  0
 45 46  1  0
 45 47  1  0
 45 48  1  0
 48 49  2  0
 49 50  1  0
 49 51  1  0
 51 52  1  0
 51 53  2  0
 53 54  1  0
 53 55  1  0
 55 56  1  0
 55 57  2  0
 57 58  1  0
 44  3  1  0
 57 48  1  0
 24  7  1  0
 43 29  2  0
 20 11  1  0
 41 32  1  0
M  END
>  <UniqueID>  (72) 
128

>  <SMILES>  (72) 
[H]/N=c1/c(C(=O)N2CCc3ccccc3C2)cc2c(=O)n3ccccc3nc2n1Cc1ccccc1

>  <Energy>  (72) 
94.15441284030814

>  <Genealogy>  (72) 
[H]/N=c1/c(C(=O)N2CCc3ccccc3C2)cc2c(=O)n3ccccc3nc2n1Cc1ccccc1 (cis-trans isomerization)
[H]/N=c1/c(C(=O)N2CCc3ccccc3C2)cc2c(=O)n3ccccc3nc2n1Cc1ccccc1 (3D coordinates assigned)
[H]/N=c1/c(C(=O)N2CCc3ccccc3C2)cc2c(=O)n3ccccc3nc2n1Cc1ccccc1 (nonaromatic ring conformer: 94.15441284030814 kcal/mol)

>  <smiles>  (72) 
N=c1c(C(=O)N2CCc3ccccc3C2)cc2c(=O)n3ccccc3nc2n1Cc1ccccc1

>  <score_type>  (72) 
oracle

>  <origin>  (72) 
autodockgpu

>  <m_score__min__energy>  (72) 
-9.2699999999999996

>  <m_primary>  (72) 
energy

>  <meeko>  (72) 
{"free_energy": -9.26, "intermolecular_energy": -10.76, "internal_energy": -1.38, "cluster_size": 14, "cluster_id": 1, "rank_in_cluster": 8}

>  <energy>  (72) 
-9.26

>  <cluster_rmsd>  (72) 
0.04

>  <rmsd>  (72) 
269.71

>  <cluster>  (72) 
1

$$$$
DRTNTVLZUVPGHX-GNVQSUKONA-N
     RDKit          3D

 58 63  0  0  0  0  0  0  0  0999 V2000
  139.5210   74.5620  222.9770 H   0  0  0  0  0  0  0  0  0  0  0  0
  140.3010   74.3260  222.3320 N   0  0  0  0  0  0  0  0  0  0  0  0
  140.8050   75.0720  221.3880 C   0  0  0  0  0  0  0  0  0  0  0  0
  140.4820   76.4480  221.3950 C   0  0  0  0  0  0  0  0  0  0  0  0
  139.6870   77.0650  222.4890 C   0  0  0  0  0  0  0  0  0  0  0  0
  138.6230   76.5070  222.8730 O   0  0  0  0  0  0  0  0  0  0  0  0
  140.1270   78.2750  223.1360 N   0  0  0  0  0  0  0  0  0  0  0  0
  139.2740   79.4670  223.1590 C   0  0  0  0  0  0  0  0  0  0  0  0
  139.1278   79.7871  224.2012 H   0  0  0  0  0  0  0  0  0  0  0  0
  138.3062   79.2201  222.6981 H   0  0  0  0  0  0  0  0  0  0  0  0
  139.9120   80.5900  222.3800 C   0  0  0  0  0  0  0  0  0  0  0  0
  139.1340   81.7000  222.0170 C   0  0  0  0  0  0  0  0  0  0  0  0
  138.0631   81.7221  222.2671 H   0  0  0  0  0  0  0  0  0  0  0  0
  139.7110   82.7770  221.3400 C   0  0  0  0  0  0  0  0  0  0  0  0
  139.0923   83.6398  221.0521 H   0  0  0  0  0  0  0  0  0  0  0  0
  141.0730   82.7600  221.0280 C   0  0  0  0  0  0  0  0  0  0  0  0
  141.5243   83.6082  220.4924 H   0  0  0  0  0  0  0  0  0  0  0  0
  141.8620   81.6680  221.3950 C   0  0  0  0  0  0  0  0  0  0  0  0
  142.9319   81.6570  221.1398 H   0  0  0  0  0  0  0  0  0  0  0  0
  141.2990   80.5830  222.0880 C   0  0  0  0  0  0  0  0  0  0  0  0
  142.1700   79.3880  222.4100 C   0  0  0  0  0  0  0  0  0  0  0  0
  143.1387   79.7478  222.7871 H   0  0  0  0  0  0  0  0  0  0  0  0
  142.2904   78.8014  221.4873 H   0  0  0  0  0  0  0  0  0  0  0  0
  141.5400   78.4770  223.4640 C   0  0  0  0  0  0  0  0  0  0  0  0
  141.6251   78.9460  224.4554 H   0  0  0  0  0  0  0  0  0  0  0  0
  142.0608   77.5082  223.4772 H   0  0  0  0  0  0  0  0  0  0  0  0
  140.9260   77.2600  220.3520 C   0  0  0  0  0  0  0  0  0  0  0  0
  140.6806   78.3323  220.3518 H   0  0  0  0  0  0  0  0  0  0  0  0
  141.6800   76.7210  219.3080 C   0  0  0  0  0  0  0  0  0  0  0  0
  142.1240   77.5080  218.2270 C   0  0  0  0  0  0  0  0  0  0  0  0
  141.8350   78.7390  218.1900 O   0  0  0  0  0  0  0  0  0  0  0  0
  142.8640   76.9400  217.2180 N   0  0  0  0  0  0  0  0  0  0  0  0
  143.3010   77.6940  216.1560 C   0  0  0  0  0  0  0  0  0  0  0  0
  143.0584   78.7661  216.1151 H   0  0  0  0  0  0  0  0  0  0  0  0
  144.0490   77.1170  215.1280 C   0  0  0  0  0  0  0  0  0  0  0  0
  144.3940   77.7301  214.2824 H   0  0  0  0  0  0  0  0  0  0  0  0
  144.3550   75.7600  215.1810 C   0  0  0  0  0  0  0  0  0  0  0  0
  144.9430   75.2946  214.3763 H   0  0  0  0  0  0  0  0  0  0  0  0
  143.9140   74.9950  216.2560 C   0  0  0  0  0  0  0  0  0  0  0  0
  144.1517   73.9222  216.3062 H   0  0  0  0  0  0  0  0  0  0  0  0
  143.1670   75.5980  217.2720 C   0  0  0  0  0  0  0  0  0  0  0  0
  142.7440   74.8430  218.3160 N   0  0  0  0  0  0  0  0  0  0  0  0
  142.0110   75.3560  219.3380 C   0  0  0  0  0  0  0  0  0  0  0  0
  141.5980   74.5470  220.3770 N   0  0  0  0  0  0  0  0  0  0  0  0
  142.0280   73.1280  220.3550 C   0  0  0  0  0  0  0  0  0  0  0  0
  141.6623   72.6273  221.2636 H   0  0  0  0  0  0  0  0  0  0  0  0
  141.6109   72.6495  219.4566 H   0  0  0  0  0  0  0  0  0  0  0  0
  143.5320   73.0190  220.3030 C   0  0  0  0  0  0  0  0  0  0  0  0
  144.1400   71.8900  219.7230 C   0  0  0  0  0  0  0  0  0  0  0  0
  143.5159   71.0916  219.2951 H   0  0  0  0  0  0  0  0  0  0  0  0
  145.5330   71.7780  219.6880 C   0  0  0  0  0  0  0  0  0  0  0  0
  146.0012   70.8930  219.2325 H   0  0  0  0  0  0  0  0  0  0  0  0
  146.3310   72.7870  220.2300 C   0  0  0  0  0  0  0  0  0  0  0  0
  147.4269   72.6957  220.2037 H   0  0  0  0  0  0  0  0  0  0  0  0
  145.7370   73.9130  220.8060 C   0  0  0  0  0  0  0  0  0  0  0  0
  146.3663   74.7088  221.2311 H   0  0  0  0  0  0  0  0  0  0  0  0
  144.3440   74.0300  220.8430 C   0  0  0  0  0  0  0  0  0  0  0  0
  143.8816   74.9186  221.2975 H   0  0  0  0  0  0  0  0  0  0  0  0
  1  2  1  0
  2  3  2  0
  3  4  1  0
  4  5  1  0
  5  6  2  0
  5  7  1  0
  7  8  1  0
  8  9  1  0
  8 10  1  0
  8 11  1  0
 11 12  2  0
 12 13  1  0
 12 14  1  0
 14 15  1  0
 14 16  2  0
 16 17  1  0
 16 18  1  0
 18 19  1  0
 18 20  2  0
 20 21  1  0
 21 22  1  0
 21 23  1  0
 21 24  1  0
 24 25  1  0
 24 26  1  0
  4 27  2  0
 27 28  1  0
 27 29  1  0
 29 30  1  0
 30 31  2  0
 30 32  1  0
 32 33  1  0
 33 34  1  0
 33 35  2  0
 35 36  1  0
 35 37  1  0
 37 38  1  0
 37 39  2  0
 39 40  1  0
 39 41  1  0
 41 42  2  0
 42 43  1  0
 43 44  1  0
 44 45  1  0
 45 46  1  0
 45 47  1  0
 45 48  1  0
 48 49  2  0
 49 50  1  0
 49 51  1  0
 51 52  1  0
 51 53  2  0
 53 54  1  0
 53 55  1  0
 55 56  1  0
 55 57  2  0
 57 58  1  0
 44  3  1  0
 57 48  1  0
 24  7  1  0
 43 29  2  0
 20 11  1  0
 41 32  1  0
M  END
>  <UniqueID>  (73) 
128

>  <SMILES>  (73) 
[H]/N=c1/c(C(=O)N2CCc3ccccc3C2)cc2c(=O)n3ccccc3nc2n1Cc1ccccc1

>  <Energy>  (73) 
94.15441284030814

>  <Genealogy>  (73) 
[H]/N=c1/c(C(=O)N2CCc3ccccc3C2)cc2c(=O)n3ccccc3nc2n1Cc1ccccc1 (cis-trans isomerization)
[H]/N=c1/c(C(=O)N2CCc3ccccc3C2)cc2c(=O)n3ccccc3nc2n1Cc1ccccc1 (3D coordinates assigned)
[H]/N=c1/c(C(=O)N2CCc3ccccc3C2)cc2c(=O)n3ccccc3nc2n1Cc1ccccc1 (nonaromatic ring conformer: 94.15441284030814 kcal/mol)

>  <smiles>  (73) 
N=c1c(C(=O)N2CCc3ccccc3C2)cc2c(=O)n3ccccc3nc2n1Cc1ccccc1

>  <score_type>  (73) 
oracle

>  <origin>  (73) 
autodockgpu

>  <m_score__min__energy>  (73) 
-9.2699999999999996

>  <m_primary>  (73) 
energy

>  <meeko>  (73) 
{"free_energy": -8.48, "intermolecular_energy": -9.97, "internal_energy": -1.96, "cluster_size": 4, "cluster_id": 3, "rank_in_cluster": 3}

>  <energy>  (73) 
-9.25

>  <cluster_rmsd>  (73) 
0.05

>  <rmsd>  (73) 
269.71

>  <cluster>  (73) 
1

$$$$
DRTNTVLZUVPGHX-GNVQSUKONA-N
     RDKit          3D

 58 63  0  0  0  0  0  0  0  0999 V2000
  137.8380   74.4680  223.0700 H   0  0  0  0  0  0  0  0  0  0  0  0
  138.2360   73.8910  222.3020 N   0  0  0  0  0  0  0  0  0  0  0  0
  139.4750   73.8530  221.8970 C   0  0  0  0  0  0  0  0  0  0  0  0
  140.1450   75.0850  221.7130 C   0  0  0  0  0  0  0  0  0  0  0  0
  139.5140   76.3840  222.0640 C   0  0  0  0  0  0  0  0  0  0  0  0
  138.5490   76.4060  222.8760 O   0  0  0  0  0  0  0  0  0  0  0  0
  140.0060   77.6210  221.5130 N   0  0  0  0  0  0  0  0  0  0  0  0
  141.4320   77.9580  221.5790 C   0  0  0  0  0  0  0  0  0  0  0  0
  141.8022   78.1642  220.5639 H   0  0  0  0  0  0  0  0  0  0  0  0
  141.9773   77.1092  222.0175 H   0  0  0  0  0  0  0  0  0  0  0  0
  141.6500   79.1750  222.4430 C   0  0  0  0  0  0  0  0  0  0  0  0
  142.9460   79.4760  222.8880 C   0  0  0  0  0  0  0  0  0  0  0  0
  143.7797   78.8032  222.6385 H   0  0  0  0  0  0  0  0  0  0  0  0
  143.1840   80.6250  223.6460 C   0  0  0  0  0  0  0  0  0  0  0  0
  144.2019   80.8505  223.9969 H   0  0  0  0  0  0  0  0  0  0  0  0
  142.1310   81.4880  223.9590 C   0  0  0  0  0  0  0  0  0  0  0  0
  142.3204   82.3899  224.5596 H   0  0  0  0  0  0  0  0  0  0  0  0
  140.8390   81.2080  223.5110 C   0  0  0  0  0  0  0  0  0  0  0  0
  140.0130   81.8880  223.7667 H   0  0  0  0  0  0  0  0  0  0  0  0
  140.5860   80.0640  222.7360 C   0  0  0  0  0  0  0  0  0  0  0  0
  139.1620   79.7580  222.3260 C   0  0  0  0  0  0  0  0  0  0  0  0
  138.6862   80.6873  221.9794 H   0  0  0  0  0  0  0  0  0  0  0  0
  138.6417   79.3425  223.2016 H   0  0  0  0  0  0  0  0  0  0  0  0
  139.0910   78.7210  221.2040 C   0  0  0  0  0  0  0  0  0  0  0  0
  139.3834   79.1875  220.2517 H   0  0  0  0  0  0  0  0  0  0  0  0
  138.0639   78.3368  221.1175 H   0  0  0  0  0  0  0  0  0  0  0  0
  141.4400   75.0880  221.1940 C   0  0  0  0  0  0  0  0  0  0  0  0
  141.9688   76.0418  221.0503 H   0  0  0  0  0  0  0  0  0  0  0  0
  142.0690   73.8890  220.8560 C   0  0  0  0  0  0  0  0  0  0  0  0
  143.3670   73.8590  220.3080 C   0  0  0  0  0  0  0  0  0  0  0  0
  143.9870   74.9430  220.1100 O   0  0  0  0  0  0  0  0  0  0  0  0
  143.9520   72.6580  219.9880 N   0  0  0  0  0  0  0  0  0  0  0  0
  145.2160   72.6130  219.4500 C   0  0  0  0  0  0  0  0  0  0  0  0
  145.7663   73.5495  219.2765 H   0  0  0  0  0  0  0  0  0  0  0  0
  145.8100   71.3930  219.1210 C   0  0  0  0  0  0  0  0  0  0  0  0
  146.8221   71.3682  218.6908 H   0  0  0  0  0  0  0  0  0  0  0  0
  145.1130   70.2080  219.3410 C   0  0  0  0  0  0  0  0  0  0  0  0
  145.5716   69.2415  219.0850 H   0  0  0  0  0  0  0  0  0  0  0  0
  143.8340   70.2520  219.8860 C   0  0  0  0  0  0  0  0  0  0  0  0
  143.2757   69.3209  220.0627 H   0  0  0  0  0  0  0  0  0  0  0  0
  143.2620   71.4870  220.2080 C   0  0  0  0  0  0  0  0  0  0  0  0
  142.0160   71.5170  220.7410 N   0  0  0  0  0  0  0  0  0  0  0  0
  141.3930   72.6780  221.0750 C   0  0  0  0  0  0  0  0  0  0  0  0
  140.1210   72.6590  221.6100 N   0  0  0  0  0  0  0  0  0  0  0  0
  139.4960   71.3360  221.8500 C   0  0  0  0  0  0  0  0  0  0  0  0
  138.4221   71.3986  221.6203 H   0  0  0  0  0  0  0  0  0  0  0  0
  139.9864   70.5944  221.2023 H   0  0  0  0  0  0  0  0  0  0  0  0
  139.6690   70.9080  223.2870 C   0  0  0  0  0  0  0  0  0  0  0  0
  140.6420   71.5230  224.0960 C   0  0  0  0  0  0  0  0  0  0  0  0
  141.2689   72.3270  223.6829 H   0  0  0  0  0  0  0  0  0  0  0  0
  140.8160   71.1170  225.4230 C   0  0  0  0  0  0  0  0  0  0  0  0
  141.5780   71.6028  226.0502 H   0  0  0  0  0  0  0  0  0  0  0  0
  140.0250   70.0970  225.9530 C   0  0  0  0  0  0  0  0  0  0  0  0
  140.1652   69.7774  226.9962 H   0  0  0  0  0  0  0  0  0  0  0  0
  139.0550   69.4820  225.1580 C   0  0  0  0  0  0  0  0  0  0  0  0
  138.4304   68.6794  225.5771 H   0  0  0  0  0  0  0  0  0  0  0  0
  138.8760   69.8840  223.8310 C   0  0  0  0  0  0  0  0  0  0  0  0
  138.1105   69.3961  223.2098 H   0  0  0  0  0  0  0  0  0  0  0  0
  1  2  1  0
  2  3  2  0
  3  4  1  0
  4  5  1  0
  5  6  2  0
  5  7  1  0
  7  8  1  0
  8  9  1  0
  8 10  1  0
  8 11  1  0
 11 12  2  0
 12 13  1  0
 12 14  1  0
 14 15  1  0
 14 16  2  0
 16 17  1  0
 16 18  1  0
 18 19  1  0
 18 20  2  0
 20 21  1  0
 21 22  1  0
 21 23  1  0
 21 24  1  0
 24 25  1  0
 24 26  1  0
  4 27  2  0
 27 28  1  0
 27 29  1  0
 29 30  1  0
 30 31  2  0
 30 32  1  0
 32 33  1  0
 33 34  1  0
 33 35  2  0
 35 36  1  0
 35 37  1  0
 37 38  1  0
 37 39  2  0
 39 40  1  0
 39 41  1  0
 41 42  2  0
 42 43  1  0
 43 44  1  0
 44 45  1  0
 45 46  1  0
 45 47  1  0
 45 48  1  0
 48 49  2  0
 49 50  1  0
 49 51  1  0
 51 52  1  0
 51 53  2  0
 53 54  1  0
 53 55  1  0
 55 56  1  0
 55 57  2  0
 57 58  1  0
 44  3  1  0
 57 48  1  0
 24  7  1  0
 43 29  2  0
 20 11  1  0
 41 32  1  0
M  END
>  <UniqueID>  (74) 
128

>  <SMILES>  (74) 
[H]/N=c1/c(C(=O)N2CCc3ccccc3C2)cc2c(=O)n3ccccc3nc2n1Cc1ccccc1

>  <Energy>  (74) 
94.15441284030814

>  <Genealogy>  (74) 
[H]/N=c1/c(C(=O)N2CCc3ccccc3C2)cc2c(=O)n3ccccc3nc2n1Cc1ccccc1 (cis-trans isomerization)
[H]/N=c1/c(C(=O)N2CCc3ccccc3C2)cc2c(=O)n3ccccc3nc2n1Cc1ccccc1 (3D coordinates assigned)
[H]/N=c1/c(C(=O)N2CCc3ccccc3C2)cc2c(=O)n3ccccc3nc2n1Cc1ccccc1 (nonaromatic ring conformer: 94.15441284030814 kcal/mol)

>  <smiles>  (74) 
N=c1c(C(=O)N2CCc3ccccc3C2)cc2c(=O)n3ccccc3nc2n1Cc1ccccc1

>  <score_type>  (74) 
oracle

>  <origin>  (74) 
autodockgpu

>  <m_score__min__energy>  (74) 
-9.2699999999999996

>  <m_primary>  (74) 
energy

>  <meeko>  (74) 
{"free_energy": -9.26, "intermolecular_energy": -10.75, "internal_energy": -1.38, "cluster_size": 14, "cluster_id": 1, "rank_in_cluster": 12}

>  <energy>  (74) 
-9.22

>  <cluster_rmsd>  (74) 
0.17

>  <rmsd>  (74) 
269.67

>  <cluster>  (74) 
1

$$$$
DRTNTVLZUVPGHX-GNVQSUKONA-N
     RDKit          3D

 58 63  0  0  0  0  0  0  0  0999 V2000
  139.5290   74.5860  222.9680 H   0  0  0  0  0  0  0  0  0  0  0  0
  140.2840   74.3380  222.2970 N   0  0  0  0  0  0  0  0  0  0  0  0
  140.7850   75.0840  221.3530 C   0  0  0  0  0  0  0  0  0  0  0  0
  140.4560   76.4590  221.3580 C   0  0  0  0  0  0  0  0  0  0  0  0
  139.6570   77.0740  222.4510 C   0  0  0  0  0  0  0  0  0  0  0  0
  138.5680   76.5420  222.7970 O   0  0  0  0  0  0  0  0  0  0  0  0
  140.1220   78.2530  223.1370 N   0  0  0  0  0  0  0  0  0  0  0  0
  139.2740   79.4440  223.2420 C   0  0  0  0  0  0  0  0  0  0  0  0
  139.1632   79.7166  224.3019 H   0  0  0  0  0  0  0  0  0  0  0  0
  138.2910   79.2195  222.8022 H   0  0  0  0  0  0  0  0  0  0  0  0
  139.8890   80.6010  222.4940 C   0  0  0  0  0  0  0  0  0  0  0  0
  139.1030   81.7270  222.2070 C   0  0  0  0  0  0  0  0  0  0  0  0
  138.0406   81.7392  222.4920 H   0  0  0  0  0  0  0  0  0  0  0  0
  139.6610   82.8320  221.5620 C   0  0  0  0  0  0  0  0  0  0  0  0
  139.0358   83.7079  221.3342 H   0  0  0  0  0  0  0  0  0  0  0  0
  141.0120   82.8280  221.2050 C   0  0  0  0  0  0  0  0  0  0  0  0
  141.4480   83.6989  220.6937 H   0  0  0  0  0  0  0  0  0  0  0  0
  141.8090   81.7190  221.4970 C   0  0  0  0  0  0  0  0  0  0  0  0
  142.8703   81.7182  221.2077 H   0  0  0  0  0  0  0  0  0  0  0  0
  141.2660   80.6050  222.1570 C   0  0  0  0  0  0  0  0  0  0  0  0
  142.1430   79.3960  222.3960 C   0  0  0  0  0  0  0  0  0  0  0  0
  143.1244   79.7371  222.7573 H   0  0  0  0  0  0  0  0  0  0  0  0
  142.2315   78.8518  221.4442 H   0  0  0  0  0  0  0  0  0  0  0  0
  141.5450   78.4380  223.4280 C   0  0  0  0  0  0  0  0  0  0  0  0
  141.6634   78.8612  224.4364 H   0  0  0  0  0  0  0  0  0  0  0  0
  142.0635   77.4690  223.3804 H   0  0  0  0  0  0  0  0  0  0  0  0
  140.8980   77.2720  220.3140 C   0  0  0  0  0  0  0  0  0  0  0  0
  140.6493   78.3435  220.3127 H   0  0  0  0  0  0  0  0  0  0  0  0
  141.6540   76.7340  219.2710 C   0  0  0  0  0  0  0  0  0  0  0  0
  142.0960   77.5230  218.1900 C   0  0  0  0  0  0  0  0  0  0  0  0
  141.8020   78.7520  218.1510 O   0  0  0  0  0  0  0  0  0  0  0  0
  142.8390   76.9560  217.1820 N   0  0  0  0  0  0  0  0  0  0  0  0
  143.2740   77.7110  216.1190 C   0  0  0  0  0  0  0  0  0  0  0  0
  143.0273   78.7821  216.0763 H   0  0  0  0  0  0  0  0  0  0  0  0
  144.0250   77.1350  215.0930 C   0  0  0  0  0  0  0  0  0  0  0  0
  144.3681   77.7482  214.2466 H   0  0  0  0  0  0  0  0  0  0  0  0
  144.3370   75.7790  215.1480 C   0  0  0  0  0  0  0  0  0  0  0  0
  144.9281   75.3151  214.3446 H   0  0  0  0  0  0  0  0  0  0  0  0
  143.8980   75.0140  216.2230 C   0  0  0  0  0  0  0  0  0  0  0  0
  144.1390   73.9419  216.2742 H   0  0  0  0  0  0  0  0  0  0  0  0
  143.1480   75.6160  217.2390 C   0  0  0  0  0  0  0  0  0  0  0  0
  142.7280   74.8590  218.2830 N   0  0  0  0  0  0  0  0  0  0  0  0
  141.9910   75.3710  219.3040 C   0  0  0  0  0  0  0  0  0  0  0  0
  141.5810   74.5620  220.3440 N   0  0  0  0  0  0  0  0  0  0  0  0
  142.0170   73.1450  220.3240 C   0  0  0  0  0  0  0  0  0  0  0  0
  141.6404   72.6403  221.2259 H   0  0  0  0  0  0  0  0  0  0  0  0
  141.6147   72.6680  219.4181 H   0  0  0  0  0  0  0  0  0  0  0  0
  143.5220   73.0410  220.2930 C   0  0  0  0  0  0  0  0  0  0  0  0
  144.3130   74.0640  220.8470 C   0  0  0  0  0  0  0  0  0  0  0  0
  143.8313   74.9348  221.3158 H   0  0  0  0  0  0  0  0  0  0  0  0
  145.7080   73.9800  220.8050 C   0  0  0  0  0  0  0  0  0  0  0  0
  146.3200   74.7835  221.2407 H   0  0  0  0  0  0  0  0  0  0  0  0
  146.3250   72.8780  220.2110 C   0  0  0  0  0  0  0  0  0  0  0  0
  147.4226   72.8150  220.1760 H   0  0  0  0  0  0  0  0  0  0  0  0
  145.5490   71.8550  219.6610 C   0  0  0  0  0  0  0  0  0  0  0  0
  146.0364   70.9852  219.1965 H   0  0  0  0  0  0  0  0  0  0  0  0
  144.1530   71.9350  219.7000 C   0  0  0  0  0  0  0  0  0  0  0  0
  143.5463   71.1276  219.2640 H   0  0  0  0  0  0  0  0  0  0  0  0
  1  2  1  0
  2  3  2  0
  3  4  1  0
  4  5  1  0
  5  6  2  0
  5  7  1  0
  7  8  1  0
  8  9  1  0
  8 10  1  0
  8 11  1  0
 11 12  2  0
 12 13  1  0
 12 14  1  0
 14 15  1  0
 14 16  2  0
 16 17  1  0
 16 18  1  0
 18 19  1  0
 18 20  2  0
 20 21  1  0
 21 22  1  0
 21 23  1  0
 21 24  1  0
 24 25  1  0
 24 26  1  0
  4 27  2  0
 27 28  1  0
 27 29  1  0
 29 30  1  0
 30 31  2  0
 30 32  1  0
 32 33  1  0
 33 34  1  0
 33 35  2  0
 35 36  1  0
 35 37  1  0
 37 38  1  0
 37 39  2  0
 39 40  1  0
 39 41  1  0
 41 42  2  0
 42 43  1  0
 43 44  1  0
 44 45  1  0
 45 46  1  0
 45 47  1  0
 45 48  1  0
 48 49  2  0
 49 50  1  0
 49 51  1  0
 51 52  1  0
 51 53  2  0
 53 54  1  0
 53 55  1  0
 55 56  1  0
 55 57  2  0
 57 58  1  0
 44  3  1  0
 57 48  1  0
 24  7  1  0
 43 29  2  0
 20 11  1  0
 41 32  1  0
M  END
>  <UniqueID>  (75) 
128

>  <SMILES>  (75) 
[H]/N=c1/c(C(=O)N2CCc3ccccc3C2)cc2c(=O)n3ccccc3nc2n1Cc1ccccc1

>  <Energy>  (75) 
94.15441284030814

>  <Genealogy>  (75) 
[H]/N=c1/c(C(=O)N2CCc3ccccc3C2)cc2c(=O)n3ccccc3nc2n1Cc1ccccc1 (cis-trans isomerization)
[H]/N=c1/c(C(=O)N2CCc3ccccc3C2)cc2c(=O)n3ccccc3nc2n1Cc1ccccc1 (3D coordinates assigned)
[H]/N=c1/c(C(=O)N2CCc3ccccc3C2)cc2c(=O)n3ccccc3nc2n1Cc1ccccc1 (nonaromatic ring conformer: 94.15441284030814 kcal/mol)

>  <smiles>  (75) 
N=c1c(C(=O)N2CCc3ccccc3C2)cc2c(=O)n3ccccc3nc2n1Cc1ccccc1

>  <score_type>  (75) 
oracle

>  <origin>  (75) 
autodockgpu

>  <m_score__min__energy>  (75) 
-9.2699999999999996

>  <m_primary>  (75) 
energy

>  <meeko>  (75) 
{"free_energy": -8.51, "intermolecular_energy": -10.0, "internal_energy": -1.94, "cluster_size": 4, "cluster_id": 3, "rank_in_cluster": 2}

>  <energy>  (75) 
-8.62

>  <cluster_rmsd>  (75) 
0.0

>  <rmsd>  (75) 
269.33

>  <cluster>  (75) 
2

$$$$
DRTNTVLZUVPGHX-GNVQSUKONA-N
     RDKit          3D

 58 63  0  0  0  0  0  0  0  0999 V2000
  137.8470   74.4370  223.0890 H   0  0  0  0  0  0  0  0  0  0  0  0
  138.2420   73.8950  222.2940 N   0  0  0  0  0  0  0  0  0  0  0  0
  139.4830   73.8560  221.8960 C   0  0  0  0  0  0  0  0  0  0  0  0
  140.1550   75.0870  221.7210 C   0  0  0  0  0  0  0  0  0  0  0  0
  139.5250   76.3860  222.0740 C   0  0  0  0  0  0  0  0  0  0  0  0
  138.5680   76.4080  222.8940 O   0  0  0  0  0  0  0  0  0  0  0  0
  140.0080   77.6220  221.5130 N   0  0  0  0  0  0  0  0  0  0  0  0
  141.4330   77.9640  221.5660 C   0  0  0  0  0  0  0  0  0  0  0  0
  141.7940   78.1672  220.5470 H   0  0  0  0  0  0  0  0  0  0  0  0
  141.9842   77.1188  222.0038 H   0  0  0  0  0  0  0  0  0  0  0  0
  141.6550   79.1850  222.4230 C   0  0  0  0  0  0  0  0  0  0  0  0
  142.9530   79.4930  222.8560 C   0  0  0  0  0  0  0  0  0  0  0  0
  143.7871   78.8225  222.6015 H   0  0  0  0  0  0  0  0  0  0  0  0
  143.1940   80.6450  223.6080 C   0  0  0  0  0  0  0  0  0  0  0  0
  144.2138   80.8743  223.9508 H   0  0  0  0  0  0  0  0  0  0  0  0
  142.1410   81.5060  223.9250 C   0  0  0  0  0  0  0  0  0  0  0  0
  142.3328   82.4118  224.5190 H   0  0  0  0  0  0  0  0  0  0  0  0
  140.8460   81.2200  223.4900 C   0  0  0  0  0  0  0  0  0  0  0  0
  140.0201   81.8983  223.7504 H   0  0  0  0  0  0  0  0  0  0  0  0
  140.5900   80.0720  222.7220 C   0  0  0  0  0  0  0  0  0  0  0  0
  139.1640   79.7590  222.3250 C   0  0  0  0  0  0  0  0  0  0  0  0
  138.6817   80.6853  221.9795 H   0  0  0  0  0  0  0  0  0  0  0  0
  138.6530   79.3442  223.2064 H   0  0  0  0  0  0  0  0  0  0  0  0
  139.0870   78.7180  221.2070 C   0  0  0  0  0  0  0  0  0  0  0  0
  139.3704   79.1820  220.2507 H   0  0  0  0  0  0  0  0  0  0  0  0
  138.0604   78.3305  221.1296 H   0  0  0  0  0  0  0  0  0  0  0  0
  141.4530   75.0900  221.2090 C   0  0  0  0  0  0  0  0  0  0  0  0
  141.9839   76.0436  221.0718 H   0  0  0  0  0  0  0  0  0  0  0  0
  142.0820   73.8920  220.8700 C   0  0  0  0  0  0  0  0  0  0  0  0
  143.3830   73.8610  220.3290 C   0  0  0  0  0  0  0  0  0  0  0  0
  144.0060   74.9450  220.1390 O   0  0  0  0  0  0  0  0  0  0  0  0
  143.9680   72.6610  220.0070 N   0  0  0  0  0  0  0  0  0  0  0  0
  145.2350   72.6150  219.4760 C   0  0  0  0  0  0  0  0  0  0  0  0
  145.7881   73.5512  219.3097 H   0  0  0  0  0  0  0  0  0  0  0  0
  145.8290   71.3960  219.1450 C   0  0  0  0  0  0  0  0  0  0  0  0
  146.8435   71.3714  218.7205 H   0  0  0  0  0  0  0  0  0  0  0  0
  145.1280   70.2110  219.3560 C   0  0  0  0  0  0  0  0  0  0  0  0
  145.5859   69.2448  219.0977 H   0  0  0  0  0  0  0  0  0  0  0  0
  143.8460   70.2550  219.8950 C   0  0  0  0  0  0  0  0  0  0  0  0
  143.2852   69.3243  220.0660 H   0  0  0  0  0  0  0  0  0  0  0  0
  143.2750   71.4900  220.2180 C   0  0  0  0  0  0  0  0  0  0  0  0
  142.0260   71.5200  220.7440 N   0  0  0  0  0  0  0  0  0  0  0  0
  141.4030   72.6800  221.0790 C   0  0  0  0  0  0  0  0  0  0  0  0
  140.1280   72.6620  221.6070 N   0  0  0  0  0  0  0  0  0  0  0  0
  139.4990   71.3390  221.8380 C   0  0  0  0  0  0  0  0  0  0  0  0
  138.4238   71.4083  221.6161 H   0  0  0  0  0  0  0  0  0  0  0  0
  139.9818   70.6018  221.1796 H   0  0  0  0  0  0  0  0  0  0  0  0
  139.6800   70.8960  223.2700 C   0  0  0  0  0  0  0  0  0  0  0  0
  138.8790   69.8670  223.7990 C   0  0  0  0  0  0  0  0  0  0  0  0
  138.1278   69.3764  223.1626 H   0  0  0  0  0  0  0  0  0  0  0  0
  139.0330   69.4650  225.1290 C   0  0  0  0  0  0  0  0  0  0  0  0
  138.4037   68.6595  225.5355 H   0  0  0  0  0  0  0  0  0  0  0  0
  139.9840   70.0840  225.9420 C   0  0  0  0  0  0  0  0  0  0  0  0
  140.1021   69.7683  226.9891 H   0  0  0  0  0  0  0  0  0  0  0  0
  140.7860   71.1050  225.4250 C   0  0  0  0  0  0  0  0  0  0  0  0
  141.5368   71.5908  226.0655 H   0  0  0  0  0  0  0  0  0  0  0  0
  140.6360   71.5100  224.0960 C   0  0  0  0  0  0  0  0  0  0  0  0
  141.2701   72.3141  223.6944 H   0  0  0  0  0  0  0  0  0  0  0  0
  1  2  1  0
  2  3  2  0
  3  4  1  0
  4  5  1  0
  5  6  2  0
  5  7  1  0
  7  8  1  0
  8  9  1  0
  8 10  1  0
  8 11  1  0
 11 12  2  0
 12 13  1  0
 12 14  1  0
 14 15  1  0
 14 16  2  0
 16 17  1  0
 16 18  1  0
 18 19  1  0
 18 20  2  0
 20 21  1  0
 21 22  1  0
 21 23  1  0
 21 24  1  0
 24 25  1  0
 24 26  1  0
  4 27  2  0
 27 28  1  0
 27 29  1  0
 29 30  1  0
 30 31  2  0
 30 32  1  0
 32 33  1  0
 33 34  1  0
 33 35  2  0
 35 36  1  0
 35 37  1  0
 37 38  1  0
 37 39  2  0
 39 40  1  0
 39 41  1  0
 41 42  2  0
 42 43  1  0
 43 44  1  0
 44 45  1  0
 45 46  1  0
 45 47  1  0
 45 48  1  0
 48 49  2  0
 49 50  1  0
 49 51  1  0
 51 52  1  0
 51 53  2  0
 53 54  1  0
 53 55  1  0
 55 56  1  0
 55 57  2  0
 57 58  1  0
 44  3  1  0
 57 48  1  0
 24  7  1  0
 43 29  2  0
 20 11  1  0
 41 32  1  0
M  END
>  <UniqueID>  (76) 
128

>  <SMILES>  (76) 
[H]/N=c1/c(C(=O)N2CCc3ccccc3C2)cc2c(=O)n3ccccc3nc2n1Cc1ccccc1

>  <Energy>  (76) 
94.15441284030814

>  <Genealogy>  (76) 
[H]/N=c1/c(C(=O)N2CCc3ccccc3C2)cc2c(=O)n3ccccc3nc2n1Cc1ccccc1 (cis-trans isomerization)
[H]/N=c1/c(C(=O)N2CCc3ccccc3C2)cc2c(=O)n3ccccc3nc2n1Cc1ccccc1 (3D coordinates assigned)
[H]/N=c1/c(C(=O)N2CCc3ccccc3C2)cc2c(=O)n3ccccc3nc2n1Cc1ccccc1 (nonaromatic ring conformer: 94.15441284030814 kcal/mol)

>  <smiles>  (76) 
N=c1c(C(=O)N2CCc3ccccc3C2)cc2c(=O)n3ccccc3nc2n1Cc1ccccc1

>  <score_type>  (76) 
oracle

>  <origin>  (76) 
autodockgpu

>  <m_score__min__energy>  (76) 
-9.2699999999999996

>  <m_primary>  (76) 
energy

>  <meeko>  (76) 
{"free_energy": -9.25, "intermolecular_energy": -10.74, "internal_energy": -1.38, "cluster_size": 14, "cluster_id": 1, "rank_in_cluster": 13}

>  <energy>  (76) 
-8.53

>  <cluster_rmsd>  (76) 
0.0

>  <rmsd>  (76) 
269.27

>  <cluster>  (76) 
3

$$$$
DRTNTVLZUVPGHX-GNVQSUKONA-N
     RDKit          3D

 58 63  0  0  0  0  0  0  0  0999 V2000
  137.8540   74.4490  223.0860 H   0  0  0  0  0  0  0  0  0  0  0  0
  138.2570   73.8610  222.3300 N   0  0  0  0  0  0  0  0  0  0  0  0
  139.4960   73.8290  221.9230 C   0  0  0  0  0  0  0  0  0  0  0  0
  140.1610   75.0630  221.7430 C   0  0  0  0  0  0  0  0  0  0  0  0
  139.5260   76.3590  222.1010 C   0  0  0  0  0  0  0  0  0  0  0  0
  138.5760   76.3760  222.9300 O   0  0  0  0  0  0  0  0  0  0  0  0
  139.9980   77.5970  221.5350 N   0  0  0  0  0  0  0  0  0  0  0  0
  141.4220   77.9420  221.5650 C   0  0  0  0  0  0  0  0  0  0  0  0
  141.7658   78.1482  220.5407 H   0  0  0  0  0  0  0  0  0  0  0  0
  141.9829   77.0973  221.9914 H   0  0  0  0  0  0  0  0  0  0  0  0
  141.6540   79.1620  222.4210 C   0  0  0  0  0  0  0  0  0  0  0  0
  142.9590   79.4730  222.8340 C   0  0  0  0  0  0  0  0  0  0  0  0
  143.7909   78.8055  222.5650 H   0  0  0  0  0  0  0  0  0  0  0  0
  143.2080   80.6240  223.5840 C   0  0  0  0  0  0  0  0  0  0  0  0
  144.2325   80.8553  223.9108 H   0  0  0  0  0  0  0  0  0  0  0  0
  142.1590   81.4820  223.9200 C   0  0  0  0  0  0  0  0  0  0  0  0
  142.3581   82.3871  224.5126 H   0  0  0  0  0  0  0  0  0  0  0  0
  140.8580   81.1930  223.5050 C   0  0  0  0  0  0  0  0  0  0  0  0
  140.0347   81.8687  223.7799 H   0  0  0  0  0  0  0  0  0  0  0  0
  140.5920   80.0460  222.7390 C   0  0  0  0  0  0  0  0  0  0  0  0
  139.1610   79.7310  222.3640 C   0  0  0  0  0  0  0  0  0  0  0  0
  138.6718   80.6569  222.0271 H   0  0  0  0  0  0  0  0  0  0  0  0
  138.6647   79.3141  223.2528 H   0  0  0  0  0  0  0  0  0  0  0  0
  139.0680   78.6910  221.2460 C   0  0  0  0  0  0  0  0  0  0  0  0
  139.3335   79.1570  220.2856 H   0  0  0  0  0  0  0  0  0  0  0  0
  138.0414   78.3004  221.1857 H   0  0  0  0  0  0  0  0  0  0  0  0
  141.4550   75.0730  221.2230 C   0  0  0  0  0  0  0  0  0  0  0  0
  141.9802   76.0294  221.0831 H   0  0  0  0  0  0  0  0  0  0  0  0
  142.0880   73.8780  220.8790 C   0  0  0  0  0  0  0  0  0  0  0  0
  143.3850   73.8540  220.3290 C   0  0  0  0  0  0  0  0  0  0  0  0
  144.0010   74.9420  220.1350 O   0  0  0  0  0  0  0  0  0  0  0  0
  143.9750   72.6570  220.0030 N   0  0  0  0  0  0  0  0  0  0  0  0
  145.2370   72.6180  219.4630 C   0  0  0  0  0  0  0  0  0  0  0  0
  145.7835   73.5571  219.2915 H   0  0  0  0  0  0  0  0  0  0  0  0
  145.8350   71.4020  219.1290 C   0  0  0  0  0  0  0  0  0  0  0  0
  146.8468   71.3827  218.6978 H   0  0  0  0  0  0  0  0  0  0  0  0
  145.1430   70.2140  219.3450 C   0  0  0  0  0  0  0  0  0  0  0  0
  145.6049   69.2503  219.0846 H   0  0  0  0  0  0  0  0  0  0  0  0
  143.8640   70.2510  219.8920 C   0  0  0  0  0  0  0  0  0  0  0  0
  143.3088   69.3173  220.0653 H   0  0  0  0  0  0  0  0  0  0  0  0
  143.2890   71.4830  220.2200 C   0  0  0  0  0  0  0  0  0  0  0  0
  142.0430   71.5060  220.7540 N   0  0  0  0  0  0  0  0  0  0  0  0
  141.4160   72.6630  221.0940 C   0  0  0  0  0  0  0  0  0  0  0  0
  140.1450   72.6380  221.6300 N   0  0  0  0  0  0  0  0  0  0  0  0
  139.5250   71.3120  221.8660 C   0  0  0  0  0  0  0  0  0  0  0  0
  138.4541   71.3673  221.6209 H   0  0  0  0  0  0  0  0  0  0  0  0
  140.0296   70.5715  221.2280 H   0  0  0  0  0  0  0  0  0  0  0  0
  139.6800   70.8890  223.3070 C   0  0  0  0  0  0  0  0  0  0  0  0
  140.6440   71.5060  224.1250 C   0  0  0  0  0  0  0  0  0  0  0  0
  141.2772   72.3070  223.7159 H   0  0  0  0  0  0  0  0  0  0  0  0
  140.8010   71.1060  225.4550 C   0  0  0  0  0  0  0  0  0  0  0  0
  141.5565   71.5929  226.0892 H   0  0  0  0  0  0  0  0  0  0  0  0
  140.0010   70.0900  225.9800 C   0  0  0  0  0  0  0  0  0  0  0  0
  140.1277   69.7750  227.0263 H   0  0  0  0  0  0  0  0  0  0  0  0
  139.0390   69.4730  225.1760 C   0  0  0  0  0  0  0  0  0  0  0  0
  138.4077   68.6736  225.5912 H   0  0  0  0  0  0  0  0  0  0  0  0
  138.8770   69.8690  223.8460 C   0  0  0  0  0  0  0  0  0  0  0  0
  138.1176   69.3804  223.2178 H   0  0  0  0  0  0  0  0  0  0  0  0
  1  2  1  0
  2  3  2  0
  3  4  1  0
  4  5  1  0
  5  6  2  0
  5  7  1  0
  7  8  1  0
  8  9  1  0
  8 10  1  0
  8 11  1  0
 11 12  2  0
 12 13  1  0
 12 14  1  0
 14 15  1  0
 14 16  2  0
 16 17  1  0
 16 18  1  0
 18 19  1  0
 18 20  2  0
 20 21  1  0
 21 22  1  0
 21 23  1  0
 21 24  1  0
 24 25  1  0
 24 26  1  0
  4 27  2  0
 27 28  1  0
 27 29  1  0
 29 30  1  0
 30 31  2  0
 30 32  1  0
 32 33  1  0
 33 34  1  0
 33 35  2  0
 35 36  1  0
 35 37  1  0
 37 38  1  0
 37 39  2  0
 39 40  1  0
 39 41  1  0
 41 42  2  0
 42 43  1  0
 43 44  1  0
 44 45  1  0
 45 46  1  0
 45 47  1  0
 45 48  1  0
 48 49  2  0
 49 50  1  0
 49 51  1  0
 51 52  1  0
 51 53  2  0
 53 54  1  0
 53 55  1  0
 55 56  1  0
 55 57  2  0
 57 58  1  0
 44  3  1  0
 57 48  1  0
 24  7  1  0
 43 29  2  0
 20 11  1  0
 41 32  1  0
M  END
>  <UniqueID>  (77) 
128

>  <SMILES>  (77) 
[H]/N=c1/c(C(=O)N2CCc3ccccc3C2)cc2c(=O)n3ccccc3nc2n1Cc1ccccc1

>  <Energy>  (77) 
94.15441284030814

>  <Genealogy>  (77) 
[H]/N=c1/c(C(=O)N2CCc3ccccc3C2)cc2c(=O)n3ccccc3nc2n1Cc1ccccc1 (cis-trans isomerization)
[H]/N=c1/c(C(=O)N2CCc3ccccc3C2)cc2c(=O)n3ccccc3nc2n1Cc1ccccc1 (3D coordinates assigned)
[H]/N=c1/c(C(=O)N2CCc3ccccc3C2)cc2c(=O)n3ccccc3nc2n1Cc1ccccc1 (nonaromatic ring conformer: 94.15441284030814 kcal/mol)

>  <smiles>  (77) 
N=c1c(C(=O)N2CCc3ccccc3C2)cc2c(=O)n3ccccc3nc2n1Cc1ccccc1

>  <score_type>  (77) 
oracle

>  <origin>  (77) 
autodockgpu

>  <m_score__min__energy>  (77) 
-9.2699999999999996

>  <m_primary>  (77) 
energy

>  <meeko>  (77) 
{"free_energy": -9.27, "intermolecular_energy": -10.76, "internal_energy": -1.38, "cluster_size": 14, "cluster_id": 1, "rank_in_cluster": 5}

>  <energy>  (77) 
-8.51

>  <cluster_rmsd>  (77) 
0.06

>  <rmsd>  (77) 
269.25

>  <cluster>  (77) 
3

$$$$
DRTNTVLZUVPGHX-GNVQSUKONA-N
     RDKit          3D

 58 63  0  0  0  0  0  0  0  0999 V2000
  137.8410   74.4830  223.0820 H   0  0  0  0  0  0  0  0  0  0  0  0
  138.2360   73.8910  222.3250 N   0  0  0  0  0  0  0  0  0  0  0  0
  139.4730   73.8490  221.9130 C   0  0  0  0  0  0  0  0  0  0  0  0
  140.1430   75.0780  221.7170 C   0  0  0  0  0  0  0  0  0  0  0  0
  139.5160   76.3810  222.0620 C   0  0  0  0  0  0  0  0  0  0  0  0
  138.5440   76.4070  222.8650 O   0  0  0  0  0  0  0  0  0  0  0  0
  140.0200   77.6150  221.5160 N   0  0  0  0  0  0  0  0  0  0  0  0
  141.4470   77.9450  221.5960 C   0  0  0  0  0  0  0  0  0  0  0  0
  141.8281   78.1497  220.5846 H   0  0  0  0  0  0  0  0  0  0  0  0
  141.9840   77.0935  222.0394 H   0  0  0  0  0  0  0  0  0  0  0  0
  141.6620   79.1600  222.4620 C   0  0  0  0  0  0  0  0  0  0  0  0
  142.9550   79.4560  222.9200 C   0  0  0  0  0  0  0  0  0  0  0  0
  143.7883   78.7800  222.6780 H   0  0  0  0  0  0  0  0  0  0  0  0
  143.1910   80.6030  223.6810 C   0  0  0  0  0  0  0  0  0  0  0  0
  144.2062   80.8227  224.0431 H   0  0  0  0  0  0  0  0  0  0  0  0
  142.1390   81.4720  223.9830 C   0  0  0  0  0  0  0  0  0  0  0  0
  142.3269   82.3733  224.5849 H   0  0  0  0  0  0  0  0  0  0  0  0
  140.8500   81.1980  223.5220 C   0  0  0  0  0  0  0  0  0  0  0  0
  140.0249   81.8822  223.7691 H   0  0  0  0  0  0  0  0  0  0  0  0
  140.5990   80.0550  222.7450 C   0  0  0  0  0  0  0  0  0  0  0  0
  139.1780   79.7560  222.3210 C   0  0  0  0  0  0  0  0  0  0  0  0
  138.7102   80.6876  221.9697 H   0  0  0  0  0  0  0  0  0  0  0  0
  138.6470   79.3431  223.1914 H   0  0  0  0  0  0  0  0  0  0  0  0
  139.1130   78.7190  221.1980 C   0  0  0  0  0  0  0  0  0  0  0  0
  139.4167   79.1840  220.2485 H   0  0  0  0  0  0  0  0  0  0  0  0
  138.0851   78.3395  221.1015 H   0  0  0  0  0  0  0  0  0  0  0  0
  141.4350   75.0760  221.1900 C   0  0  0  0  0  0  0  0  0  0  0  0
  141.9640   76.0281  221.0362 H   0  0  0  0  0  0  0  0  0  0  0  0
  142.0600   73.8740  220.8570 C   0  0  0  0  0  0  0  0  0  0  0  0
  143.3550   73.8380  220.3010 C   0  0  0  0  0  0  0  0  0  0  0  0
  143.9750   74.9200  220.0920 O   0  0  0  0  0  0  0  0  0  0  0  0
  143.9370   72.6340  219.9860 N   0  0  0  0  0  0  0  0  0  0  0  0
  145.1970   72.5830  219.4410 C   0  0  0  0  0  0  0  0  0  0  0  0
  145.7474   73.5175  219.2575 H   0  0  0  0  0  0  0  0  0  0  0  0
  145.7880   71.3600  219.1170 C   0  0  0  0  0  0  0  0  0  0  0  0
  146.7977   71.3307  218.6816 H   0  0  0  0  0  0  0  0  0  0  0  0
  145.0900   70.1780  219.3490 C   0  0  0  0  0  0  0  0  0  0  0  0
  145.5454   69.2091  219.0962 H   0  0  0  0  0  0  0  0  0  0  0  0
  143.8140   70.2270  219.9020 C   0  0  0  0  0  0  0  0  0  0  0  0
  143.2554   69.2980  220.0891 H   0  0  0  0  0  0  0  0  0  0  0  0
  143.2470   71.4650  220.2180 C   0  0  0  0  0  0  0  0  0  0  0  0
  142.0030   71.5010  220.7580 N   0  0  0  0  0  0  0  0  0  0  0  0
  141.3840   72.6650  221.0880 C   0  0  0  0  0  0  0  0  0  0  0  0
  140.1150   72.6520  221.6300 N   0  0  0  0  0  0  0  0  0  0  0  0
  139.4900   71.3310  221.8830 C   0  0  0  0  0  0  0  0  0  0  0  0
  138.4114   71.3985  221.6781 H   0  0  0  0  0  0  0  0  0  0  0  0
  139.9625   70.5883  221.2234 H   0  0  0  0  0  0  0  0  0  0  0  0
  139.6940   70.9000  223.3150 C   0  0  0  0  0  0  0  0  0  0  0  0
  138.9030   69.8750  223.8650 C   0  0  0  0  0  0  0  0  0  0  0  0
  138.1421   69.3785  223.2449 H   0  0  0  0  0  0  0  0  0  0  0  0
  139.0790   69.4840  225.1960 C   0  0  0  0  0  0  0  0  0  0  0  0
  138.4573   68.6813  225.6193 H   0  0  0  0  0  0  0  0  0  0  0  0
  140.0430   70.1110  225.9890 C   0  0  0  0  0  0  0  0  0  0  0  0
  140.1784   69.8044  227.0367 H   0  0  0  0  0  0  0  0  0  0  0  0
  140.8350   71.1280  225.4500 C   0  0  0  0  0  0  0  0  0  0  0  0
  141.5958   71.6198  226.0739 H   0  0  0  0  0  0  0  0  0  0  0  0
  140.6630   71.5220  224.1200 C   0  0  0  0  0  0  0  0  0  0  0  0
  141.2896   72.3233  223.7014 H   0  0  0  0  0  0  0  0  0  0  0  0
  1  2  1  0
  2  3  2  0
  3  4  1  0
  4  5  1  0
  5  6  2  0
  5  7  1  0
  7  8  1  0
  8  9  1  0
  8 10  1  0
  8 11  1  0
 11 12  2  0
 12 13  1  0
 12 14  1  0
 14 15  1  0
 14 16  2  0
 16 17  1  0
 16 18  1  0
 18 19  1  0
 18 20  2  0
 20 21  1  0
 21 22  1  0
 21 23  1  0
 21 24  1  0
 24 25  1  0
 24 26  1  0
  4 27  2  0
 27 28  1  0
 27 29  1  0
 29 30  1  0
 30 31  2  0
 30 32  1  0
 32 33  1  0
 33 34  1  0
 33 35  2  0
 35 36  1  0
 35 37  1  0
 37 38  1  0
 37 39  2  0
 39 40  1  0
 39 41  1  0
 41 42  2  0
 42 43  1  0
 43 44  1  0
 44 45  1  0
 45 46  1  0
 45 47  1  0
 45 48  1  0
 48 49  2  0
 49 50  1  0
 49 51  1  0
 51 52  1  0
 51 53  2  0
 53 54  1  0
 53 55  1  0
 55 56  1  0
 55 57  2  0
 57 58  1  0
 44  3  1  0
 57 48  1  0
 24  7  1  0
 43 29  2  0
 20 11  1  0
 41 32  1  0
M  END
>  <UniqueID>  (78) 
128

>  <SMILES>  (78) 
[H]/N=c1/c(C(=O)N2CCc3ccccc3C2)cc2c(=O)n3ccccc3nc2n1Cc1ccccc1

>  <Energy>  (78) 
94.15441284030814

>  <Genealogy>  (78) 
[H]/N=c1/c(C(=O)N2CCc3ccccc3C2)cc2c(=O)n3ccccc3nc2n1Cc1ccccc1 (cis-trans isomerization)
[H]/N=c1/c(C(=O)N2CCc3ccccc3C2)cc2c(=O)n3ccccc3nc2n1Cc1ccccc1 (3D coordinates assigned)
[H]/N=c1/c(C(=O)N2CCc3ccccc3C2)cc2c(=O)n3ccccc3nc2n1Cc1ccccc1 (nonaromatic ring conformer: 94.15441284030814 kcal/mol)

>  <smiles>  (78) 
N=c1c(C(=O)N2CCc3ccccc3C2)cc2c(=O)n3ccccc3nc2n1Cc1ccccc1

>  <score_type>  (78) 
oracle

>  <origin>  (78) 
autodockgpu

>  <m_score__min__energy>  (78) 
-9.2699999999999996

>  <m_primary>  (78) 
energy

>  <meeko>  (78) 
{"free_energy": -9.27, "intermolecular_energy": -10.76, "internal_energy": -1.38, "cluster_size": 14, "cluster_id": 1, "rank_in_cluster": 7}

>  <energy>  (78) 
-8.48

>  <cluster_rmsd>  (78) 
0.06

>  <rmsd>  (78) 
269.25

>  <cluster>  (78) 
3

$$$$
DRTNTVLZUVPGHX-GNVQSUKONA-N
     RDKit          3D

 58 63  0  0  0  0  0  0  0  0999 V2000
  137.8650   74.4700  223.0750 H   0  0  0  0  0  0  0  0  0  0  0  0
  138.2670   73.8850  222.3160 N   0  0  0  0  0  0  0  0  0  0  0  0
  139.5060   73.8530  221.9090 C   0  0  0  0  0  0  0  0  0  0  0  0
  140.1690   75.0870  221.7240 C   0  0  0  0  0  0  0  0  0  0  0  0
  139.5320   76.3840  222.0750 C   0  0  0  0  0  0  0  0  0  0  0  0
  138.5680   76.4010  222.8880 O   0  0  0  0  0  0  0  0  0  0  0  0
  140.0180   77.6230  221.5240 N   0  0  0  0  0  0  0  0  0  0  0  0
  141.4430   77.9630  221.5810 C   0  0  0  0  0  0  0  0  0  0  0  0
  141.8056   78.1724  220.5638 H   0  0  0  0  0  0  0  0  0  0  0  0
  141.9928   77.1144  222.0140 H   0  0  0  0  0  0  0  0  0  0  0  0
  141.6650   79.1780  222.4460 C   0  0  0  0  0  0  0  0  0  0  0  0
  142.9630   79.4820  222.8830 C   0  0  0  0  0  0  0  0  0  0  0  0
  143.7970   78.8124  222.6260 H   0  0  0  0  0  0  0  0  0  0  0  0
  143.2030   80.6290  223.6420 C   0  0  0  0  0  0  0  0  0  0  0  0
  144.2226   80.8556  223.9870 H   0  0  0  0  0  0  0  0  0  0  0  0
  142.1510   81.4890  223.9640 C   0  0  0  0  0  0  0  0  0  0  0  0
  142.3427   82.3900  224.5652 H   0  0  0  0  0  0  0  0  0  0  0  0
  140.8560   81.2070  223.5240 C   0  0  0  0  0  0  0  0  0  0  0  0
  140.0302   81.8847  223.7862 H   0  0  0  0  0  0  0  0  0  0  0  0
  140.6010   80.0640  222.7490 C   0  0  0  0  0  0  0  0  0  0  0  0
  139.1750   79.7560  222.3480 C   0  0  0  0  0  0  0  0  0  0  0  0
  138.6949   80.6852  222.0072 H   0  0  0  0  0  0  0  0  0  0  0  0
  138.6618   79.3370  223.2261 H   0  0  0  0  0  0  0  0  0  0  0  0
  139.0980   78.7210  221.2230 C   0  0  0  0  0  0  0  0  0  0  0  0
  139.3826   79.1902  220.2697 H   0  0  0  0  0  0  0  0  0  0  0  0
  138.0712   78.3348  221.1420 H   0  0  0  0  0  0  0  0  0  0  0  0
  141.4630   75.0970  221.2030 C   0  0  0  0  0  0  0  0  0  0  0  0
  141.9868   76.0534  221.0585 H   0  0  0  0  0  0  0  0  0  0  0  0
  142.0970   73.9010  220.8640 C   0  0  0  0  0  0  0  0  0  0  0  0
  143.3950   73.8770  220.3140 C   0  0  0  0  0  0  0  0  0  0  0  0
  144.0090   74.9640  220.1150 O   0  0  0  0  0  0  0  0  0  0  0  0
  143.9860   72.6790  219.9940 N   0  0  0  0  0  0  0  0  0  0  0  0
  145.2480   72.6390  219.4530 C   0  0  0  0  0  0  0  0  0  0  0  0
  145.7929   73.5782  219.2768 H   0  0  0  0  0  0  0  0  0  0  0  0
  145.8480   71.4230  219.1240 C   0  0  0  0  0  0  0  0  0  0  0  0
  146.8599   71.4035  218.6930 H   0  0  0  0  0  0  0  0  0  0  0  0
  145.1570   70.2340  219.3450 C   0  0  0  0  0  0  0  0  0  0  0  0
  145.6196   69.2698  219.0875 H   0  0  0  0  0  0  0  0  0  0  0  0
  143.8790   70.2720  219.8930 C   0  0  0  0  0  0  0  0  0  0  0  0
  143.3256   69.3384  220.0720 H   0  0  0  0  0  0  0  0  0  0  0  0
  143.3020   71.5050  220.2150 C   0  0  0  0  0  0  0  0  0  0  0  0
  142.0560   71.5280  220.7500 N   0  0  0  0  0  0  0  0  0  0  0  0
  141.4280   72.6860  221.0840 C   0  0  0  0  0  0  0  0  0  0  0  0
  140.1570   72.6620  221.6220 N   0  0  0  0  0  0  0  0  0  0  0  0
  139.5390   71.3360  221.8630 C   0  0  0  0  0  0  0  0  0  0  0  0
  138.4642   71.3937  221.6363 H   0  0  0  0  0  0  0  0  0  0  0  0
  140.0311   70.5971  221.2135 H   0  0  0  0  0  0  0  0  0  0  0  0
  139.7180   70.9080  223.2990 C   0  0  0  0  0  0  0  0  0  0  0  0
  138.9070   69.8950  223.8420 C   0  0  0  0  0  0  0  0  0  0  0  0
  138.1490   69.4053  223.2130 H   0  0  0  0  0  0  0  0  0  0  0  0
  139.0590   69.5070  225.1770 C   0  0  0  0  0  0  0  0  0  0  0  0
  138.4213   68.7140  225.5947 H   0  0  0  0  0  0  0  0  0  0  0  0
  140.0190   70.1250  225.9800 C   0  0  0  0  0  0  0  0  0  0  0  0
  140.1356   69.8210  227.0307 H   0  0  0  0  0  0  0  0  0  0  0  0
  140.8320   71.1300  225.4490 C   0  0  0  0  0  0  0  0  0  0  0  0
  141.5900   71.6144  226.0821 H   0  0  0  0  0  0  0  0  0  0  0  0
  140.6840   71.5210  224.1150 C   0  0  0  0  0  0  0  0  0  0  0  0
  141.3268   72.3124  223.7021 H   0  0  0  0  0  0  0  0  0  0  0  0
  1  2  1  0
  2  3  2  0
  3  4  1  0
  4  5  1  0
  5  6  2  0
  5  7  1  0
  7  8  1  0
  8  9  1  0
  8 10  1  0
  8 11  1  0
 11 12  2  0
 12 13  1  0
 12 14  1  0
 14 15  1  0
 14 16  2  0
 16 17  1  0
 16 18  1  0
 18 19  1  0
 18 20  2  0
 20 21  1  0
 21 22  1  0
 21 23  1  0
 21 24  1  0
 24 25  1  0
 24 26  1  0
  4 27  2  0
 27 28  1  0
 27 29  1  0
 29 30  1  0
 30 31  2  0
 30 32  1  0
 32 33  1  0
 33 34  1  0
 33 35  2  0
 35 36  1  0
 35 37  1  0
 37 38  1  0
 37 39  2  0
 39 40  1  0
 39 41  1  0
 41 42  2  0
 42 43  1  0
 43 44  1  0
 44 45  1  0
 45 46  1  0
 45 47  1  0
 45 48  1  0
 48 49  2  0
 49 50  1  0
 49 51  1  0
 51 52  1  0
 51 53  2  0
 53 54  1  0
 53 55  1  0
 55 56  1  0
 55 57  2  0
 57 58  1  0
 44  3  1  0
 57 48  1  0
 24  7  1  0
 43 29  2  0
 20 11  1  0
 41 32  1  0
M  END
>  <UniqueID>  (79) 
128

>  <SMILES>  (79) 
[H]/N=c1/c(C(=O)N2CCc3ccccc3C2)cc2c(=O)n3ccccc3nc2n1Cc1ccccc1

>  <Energy>  (79) 
94.15441284030814

>  <Genealogy>  (79) 
[H]/N=c1/c(C(=O)N2CCc3ccccc3C2)cc2c(=O)n3ccccc3nc2n1Cc1ccccc1 (cis-trans isomerization)
[H]/N=c1/c(C(=O)N2CCc3ccccc3C2)cc2c(=O)n3ccccc3nc2n1Cc1ccccc1 (3D coordinates assigned)
[H]/N=c1/c(C(=O)N2CCc3ccccc3C2)cc2c(=O)n3ccccc3nc2n1Cc1ccccc1 (nonaromatic ring conformer: 94.15441284030814 kcal/mol)

>  <smiles>  (79) 
N=c1c(C(=O)N2CCc3ccccc3C2)cc2c(=O)n3ccccc3nc2n1Cc1ccccc1

>  <score_type>  (79) 
oracle

>  <origin>  (79) 
autodockgpu

>  <m_score__min__energy>  (79) 
-9.2699999999999996

>  <m_primary>  (79) 
energy

>  <meeko>  (79) 
{"free_energy": -9.27, "intermolecular_energy": -10.76, "internal_energy": -1.37, "cluster_size": 14, "cluster_id": 1, "rank_in_cluster": 3}

>  <energy>  (79) 
-8.24

>  <cluster_rmsd>  (79) 
0.26

>  <rmsd>  (79) 
269.18

>  <cluster>  (79) 
3

$$$$
DRTNTVLZUVPGHX-GNVQSUKONA-N
     RDKit          3D

 58 63  0  0  0  0  0  0  0  0999 V2000
  139.3700   74.3010  222.7620 H   0  0  0  0  0  0  0  0  0  0  0  0
  140.3120   74.2300  222.3270 N   0  0  0  0  0  0  0  0  0  0  0  0
  140.8190   74.9950  221.4010 C   0  0  0  0  0  0  0  0  0  0  0  0
  140.5110   76.3740  221.4450 C   0  0  0  0  0  0  0  0  0  0  0  0
  139.7270   76.9700  222.5590 C   0  0  0  0  0  0  0  0  0  0  0  0
  138.7640   76.3240  223.0550 O   0  0  0  0  0  0  0  0  0  0  0  0
  140.0690   78.2620  223.0980 N   0  0  0  0  0  0  0  0  0  0  0  0
  139.1750   79.4100  222.9190 C   0  0  0  0  0  0  0  0  0  0  0  0
  138.9305   79.8350  223.9037 H   0  0  0  0  0  0  0  0  0  0  0  0
  138.2589   79.0709  222.4132 H   0  0  0  0  0  0  0  0  0  0  0  0
  139.8350   80.4690  222.0720 C   0  0  0  0  0  0  0  0  0  0  0  0
  139.0510   81.4970  221.5260 C   0  0  0  0  0  0  0  0  0  0  0  0
  137.9628   81.4986  221.6866 H   0  0  0  0  0  0  0  0  0  0  0  0
  139.6440   82.5180  220.7800 C   0  0  0  0  0  0  0  0  0  0  0  0
  139.0213   83.3155  220.3484 H   0  0  0  0  0  0  0  0  0  0  0  0
  141.0270   82.5280  220.5810 C   0  0  0  0  0  0  0  0  0  0  0  0
  141.4910   83.3320  219.9909 H   0  0  0  0  0  0  0  0  0  0  0  0
  141.8210   81.5190  221.1300 C   0  0  0  0  0  0  0  0  0  0  0  0
  142.9083   81.5284  220.9638 H   0  0  0  0  0  0  0  0  0  0  0  0
  141.2410   80.4920  221.8930 C   0  0  0  0  0  0  0  0  0  0  0  0
  142.1240   79.3800  222.4150 C   0  0  0  0  0  0  0  0  0  0  0  0
  143.0445   79.8219  222.8241 H   0  0  0  0  0  0  0  0  0  0  0  0
  142.3416   78.7019  221.5767 H   0  0  0  0  0  0  0  0  0  0  0  0
  141.4410   78.5620  223.5130 C   0  0  0  0  0  0  0  0  0  0  0  0
  141.4256   79.1403  224.4486 H   0  0  0  0  0  0  0  0  0  0  0  0
  141.9935   77.6252  223.6777 H   0  0  0  0  0  0  0  0  0  0  0  0
  140.9590   77.2090  220.4210 C   0  0  0  0  0  0  0  0  0  0  0  0
  140.7253   78.2835  220.4500 H   0  0  0  0  0  0  0  0  0  0  0  0
  141.7020   76.6890  219.3600 C   0  0  0  0  0  0  0  0  0  0  0  0
  142.1500   77.5000  218.2980 C   0  0  0  0  0  0  0  0  0  0  0  0
  141.8740   78.7340  218.2950 O   0  0  0  0  0  0  0  0  0  0  0  0
  142.8780   76.9500  217.2710 N   0  0  0  0  0  0  0  0  0  0  0  0
  143.3190   77.7270  216.2270 C   0  0  0  0  0  0  0  0  0  0  0  0
  143.0883   78.8025  216.2154 H   0  0  0  0  0  0  0  0  0  0  0  0
  144.0560   77.1690  215.1810 C   0  0  0  0  0  0  0  0  0  0  0  0
  144.4038   77.8007  214.3503 H   0  0  0  0  0  0  0  0  0  0  0  0
  144.3480   75.8080  215.1960 C   0  0  0  0  0  0  0  0  0  0  0  0
  144.9275   75.3578  214.3765 H   0  0  0  0  0  0  0  0  0  0  0  0
  143.9030   75.0200  216.2530 C   0  0  0  0  0  0  0  0  0  0  0  0
  144.1283   73.9435  216.2734 H   0  0  0  0  0  0  0  0  0  0  0  0
  143.1680   75.6040  217.2890 C   0  0  0  0  0  0  0  0  0  0  0  0
  142.7410   74.8260  218.3140 N   0  0  0  0  0  0  0  0  0  0  0  0
  142.0180   75.3200  219.3530 C   0  0  0  0  0  0  0  0  0  0  0  0
  141.6010   74.4890  220.3730 N   0  0  0  0  0  0  0  0  0  0  0  0
  142.0160   73.0660  220.3110 C   0  0  0  0  0  0  0  0  0  0  0  0
  141.6291   72.5397  221.1961 H   0  0  0  0  0  0  0  0  0  0  0  0
  141.6095   72.6226  219.3901 H   0  0  0  0  0  0  0  0  0  0  0  0
  143.5200   72.9410  220.2810 C   0  0  0  0  0  0  0  0  0  0  0  0
  144.3250   73.9490  220.8420 C   0  0  0  0  0  0  0  0  0  0  0  0
  143.8558   74.8241  221.3153 H   0  0  0  0  0  0  0  0  0  0  0  0
  145.7180   73.8440  220.8010 C   0  0  0  0  0  0  0  0  0  0  0  0
  146.3413   74.6364  221.2410 H   0  0  0  0  0  0  0  0  0  0  0  0
  146.3200   72.7360  220.2030 C   0  0  0  0  0  0  0  0  0  0  0  0
  147.4166   72.6563  220.1702 H   0  0  0  0  0  0  0  0  0  0  0  0
  145.5290   71.7280  219.6460 C   0  0  0  0  0  0  0  0  0  0  0  0
  146.0040   70.8539  219.1766 H   0  0  0  0  0  0  0  0  0  0  0  0
  144.1350   71.8280  219.6840 C   0  0  0  0  0  0  0  0  0  0  0  0
  143.5169   71.0314  219.2443 H   0  0  0  0  0  0  0  0  0  0  0  0
  1  2  1  0
  2  3  2  0
  3  4  1  0
  4  5  1  0
  5  6  2  0
  5  7  1  0
  7  8  1  0
  8  9  1  0
  8 10  1  0
  8 11  1  0
 11 12  2  0
 12 13  1  0
 12 14  1  0
 14 15  1  0
 14 16  2  0
 16 17  1  0
 16 18  1  0
 18 19  1  0
 18 20  2  0
 20 21  1  0
 21 22  1  0
 21 23  1  0
 21 24  1  0
 24 25  1  0
 24 26  1  0
  4 27  2  0
 27 28  1  0
 27 29  1  0
 29 30  1  0
 30 31  2  0
 30 32  1  0
 32 33  1  0
 33 34  1  0
 33 35  2  0
 35 36  1  0
 35 37  1  0
 37 38  1  0
 37 39  2  0
 39 40  1  0
 39 41  1  0
 41 42  2  0
 42 43  1  0
 43 44  1  0
 44 45  1  0
 45 46  1  0
 45 47  1  0
 45 48  1  0
 48 49  2  0
 49 50  1  0
 49 51  1  0
 51 52  1  0
 51 53  2  0
 53 54  1  0
 53 55  1  0
 55 56  1  0
 55 57  2  0
 57 58  1  0
 44  3  1  0
 57 48  1  0
 24  7  1  0
 43 29  2  0
 20 11  1  0
 41 32  1  0
M  END
>  <UniqueID>  (80) 
128

>  <SMILES>  (80) 
[H]/N=c1/c(C(=O)N2CCc3ccccc3C2)cc2c(=O)n3ccccc3nc2n1Cc1ccccc1

>  <Energy>  (80) 
94.15441284030814

>  <Genealogy>  (80) 
[H]/N=c1/c(C(=O)N2CCc3ccccc3C2)cc2c(=O)n3ccccc3nc2n1Cc1ccccc1 (cis-trans isomerization)
[H]/N=c1/c(C(=O)N2CCc3ccccc3C2)cc2c(=O)n3ccccc3nc2n1Cc1ccccc1 (3D coordinates assigned)
[H]/N=c1/c(C(=O)N2CCc3ccccc3C2)cc2c(=O)n3ccccc3nc2n1Cc1ccccc1 (nonaromatic ring conformer: 94.15441284030814 kcal/mol)

>  <smiles>  (80) 
N=c1c(C(=O)N2CCc3ccccc3C2)cc2c(=O)n3ccccc3nc2n1Cc1ccccc1

>  <score_type>  (80) 
oracle

>  <origin>  (80) 
autodockgpu

>  <m_score__min__energy>  (80) 
-9.2699999999999996

>  <m_primary>  (80) 
energy

>  <meeko>  (80) 
{"free_energy": -8.24, "intermolecular_energy": -9.74, "internal_energy": -2.02, "cluster_size": 4, "cluster_id": 3, "rank_in_cluster": 4}

>  <energy>  (80) 
-8.52

>  <cluster_rmsd>  (80) 
0.0

>  <rmsd>  (80) 
269.18

>  <cluster>  (80) 
4

$$$$
