FLYFIANCBVDDDY-IGPOTQGWNA-O
     RDKit          3D

 70 74  0  0  0  0  0  0  0  0999 V2000
  134.0280   69.8410  222.4740 H   0  0  0  0  0  0  0  0  0  0  0  0
  134.4020   70.2450  223.3230 O   0  0  0  0  0  0  0  0  0  0  0  0
  135.7740   70.3480  223.5600 C   0  0  0  0  0  0  0  0  0  0  0  0
  136.4450   69.1940  223.7460 C   0  0  0  0  0  0  0  0  0  0  0  0
  135.8441   68.2790  223.6378 H   0  0  0  0  0  0  0  0  0  0  0  0
  137.9000   68.9730  224.0810 C   0  0  0  0  0  0  0  0  0  0  0  0
  137.9565   68.2199  224.8808 H   0  0  0  0  0  0  0  0  0  0  0  0
  138.3874   68.6528  223.1483 H   0  0  0  0  0  0  0  0  0  0  0  0
  138.6160   70.1710  224.5310 N   0  0  0  0  0  0  0  0  0  0  0  0
  139.5380   70.1030  225.6390 C   0  0  0  0  0  0  0  0  0  0  0  0
  140.1440   71.2640  226.1550 C   0  0  0  0  0  0  0  0  0  0  0  0
  139.9660   72.2354  225.6706 H   0  0  0  0  0  0  0  0  0  0  0  0
  140.9710   71.1890  227.2800 C   0  0  0  0  0  0  0  0  0  0  0  0
  141.4441   72.0997  227.6760 H   0  0  0  0  0  0  0  0  0  0  0  0
  141.1970   69.9570  227.9020 C   0  0  0  0  0  0  0  0  0  0  0  0
  141.8495   69.8988  228.7857 H   0  0  0  0  0  0  0  0  0  0  0  0
  140.5950   68.8010  227.4020 C   0  0  0  0  0  0  0  0  0  0  0  0
  140.7726   67.8331  227.8935 H   0  0  0  0  0  0  0  0  0  0  0  0
  139.7670   68.8710  226.2780 C   0  0  0  0  0  0  0  0  0  0  0  0
  139.2918   67.9575  225.8910 H   0  0  0  0  0  0  0  0  0  0  0  0
  138.7900   71.2330  223.5910 C   0  0  0  0  0  0  0  0  0  0  0  0
  140.0420   71.6090  223.2230 N   0  0  0  0  0  0  0  0  0  0  0  0
  140.2530   72.6270  222.3460 C   0  0  0  0  0  0  0  0  0  0  0  0
  141.4640   72.9720  222.0110 N   0  0  0  0  0  0  0  0  0  0  0  0
  141.7880   74.0970  221.1770 C   0  0  0  0  0  0  0  0  0  0  0  0
  142.4910   73.9290  219.9730 C   0  0  0  0  0  0  0  0  0  0  0  0
  142.8131   72.9244  219.6616 H   0  0  0  0  0  0  0  0  0  0  0  0
  142.7820   75.0320  219.1710 C   0  0  0  0  0  0  0  0  0  0  0  0
  143.3303   74.8947  218.2273 H   0  0  0  0  0  0  0  0  0  0  0  0
  142.3790   76.3110  219.5630 C   0  0  0  0  0  0  0  0  0  0  0  0
  142.6081   77.1754  218.9224 H   0  0  0  0  0  0  0  0  0  0  0  0
  141.6810   76.5030  220.7730 C   0  0  0  0  0  0  0  0  0  0  0  0
  141.2020   77.8490  221.1980 C   0  0  0  0  0  0  0  0  0  0  0  0
  140.0750   78.2370  220.7740 O   0  0  0  0  0  0  0  0  0  0  0  0
  142.0040   78.7140  222.0540 N   0  0  2  0  0  0  0  0  0  0  0  0
  142.9890   78.3700  221.9970 H   0  0  0  0  0  0  0  0  0  0  0  0
  141.6440   78.6330  223.4950 C   0  0  0  0  0  0  0  0  0  0  0  0
  142.4538   79.0897  224.0829 H   0  0  0  0  0  0  0  0  0  0  0  0
  141.5047   77.5687  223.7355 H   0  0  0  0  0  0  0  0  0  0  0  0
  140.3220   79.3550  223.8390 C   0  0  0  0  0  0  0  0  0  0  0  0
  140.1939   79.3647  224.9315 H   0  0  0  0  0  0  0  0  0  0  0  0
  139.4968   78.8142  223.3527 H   0  0  0  0  0  0  0  0  0  0  0  0
  140.3200   80.8030  223.3230 C   0  0  2  0  0  0  0  0  0  0  0  0
  141.0706   81.3831  223.8799 H   0  0  0  0  0  0  0  0  0  0  0  0
  139.0380   81.3780  223.5060 O   0  0  0  0  0  0  0  0  0  0  0  0
  138.1830   80.5220  224.2390 C   0  0  0  0  0  0  0  0  0  0  0  0
  138.7794   79.7196  224.6978 H   0  0  0  0  0  0  0  0  0  0  0  0
  137.4355   80.0927  223.5557 H   0  0  0  0  0  0  0  0  0  0  0  0
  137.4640   81.3020  225.3330 C   0  0  0  0  0  0  0  0  0  0  0  0
  137.7956   80.9422  226.3182 H   0  0  0  0  0  0  0  0  0  0  0  0
  137.6991   82.3721  225.2352 H   0  0  0  0  0  0  0  0  0  0  0  0
  136.3783   81.1547  225.2352 H   0  0  0  0  0  0  0  0  0  0  0  0
  140.6460   80.8070  221.8290 C   0  0  0  0  0  0  0  0  0  0  0  0
  140.6961   81.8458  221.4706 H   0  0  0  0  0  0  0  0  0  0  0  0
  139.8590   80.2611  221.2880 H   0  0  0  0  0  0  0  0  0  0  0  0
  141.9950   80.1190  221.5800 C   0  0  0  0  0  0  0  0  0  0  0  0
  142.7804   80.6769  222.1110 H   0  0  0  0  0  0  0  0  0  0  0  0
  142.1739   80.1100  220.4947 H   0  0  0  0  0  0  0  0  0  0  0  0
  141.4160   75.3830  221.5860 C   0  0  0  0  0  0  0  0  0  0  0  0
  140.9109   75.5209  222.5534 H   0  0  0  0  0  0  0  0  0  0  0  0
  139.1860   73.2710  221.8000 N   0  0  0  0  0  0  0  0  0  0  0  0
  139.3350   74.0490  221.1170 H   0  0  0  0  0  0  0  0  0  0  0  0
  137.9160   72.9440  222.1620 C   0  0  0  0  0  0  0  0  0  0  0  0
  137.0648   73.4931  221.7332 H   0  0  0  0  0  0  0  0  0  0  0  0
  137.6890   71.9080  223.0810 C   0  0  0  0  0  0  0  0  0  0  0  0
  136.3800   71.6580  223.6130 N   0  0  0  0  0  0  0  0  0  0  0  0
  135.5750   72.7980  224.0610 C   0  0  0  0  0  0  0  0  0  0  0  0
  135.5565   72.8242  225.1605 H   0  0  0  0  0  0  0  0  0  0  0  0
  136.0159   73.7307  223.6793 H   0  0  0  0  0  0  0  0  0  0  0  0
  134.5485   72.6946  223.6793 H   0  0  0  0  0  0  0  0  0  0  0  0
  1  2  1  0
  2  3  1  0
  3  4  2  0
  4  5  1  0
  4  6  1  0
  6  7  1  0
  6  8  1  0
  6  9  1  0
  9 10  1  0
 10 11  2  0
 11 12  1  0
 11 13  1  0
 13 14  1  0
 13 15  2  0
 15 16  1  0
 15 17  1  0
 17 18  1  0
 17 19  2  0
 19 20  1  0
  9 21  1  0
 21 22  2  0
 22 23  1  0
 23 24  2  0
 24 25  1  0
 25 26  2  0
 26 27  1  0
 26 28  1  0
 28 29  1  0
 28 30  2  0
 30 31  1  0
 30 32  1  0
 32 33  1  0
 33 34  2  0
 33 35  1  0
 35 36  1  1
 35 37  1  0
 37 38  1  0
 37 39  1  0
 37 40  1  0
 40 41  1  0
 40 42  1  0
 40 43  1  0
 43 44  1  6
 43 45  1  0
 45 46  1  0
 46 47  1  0
 46 48  1  0
 46 49  1  0
 49 50  1  0
 49 51  1  0
 49 52  1  0
 43 53  1  0
 53 54  1  0
 53 55  1  0
 53 56  1  0
 56 57  1  0
 56 58  1  0
 32 59  2  0
 59 60  1  0
 23 61  1  0
 61 62  1  0
 61 63  1  0
 63 64  1  0
 63 65  2  0
 65 66  1  0
 66 67  1  0
 67 68  1  0
 67 69  1  0
 67 70  1  0
 66  3  1  0
 19 10  1  0
 65 21  1  0
 59 25  1  0
 56 35  1  0
M  CHG  1  35   1
M  END
>  <UniqueID>  (1) 
21

>  <SMILES>  (1) 
CCOC1CC[NH+](C(=O)c2cccc(/N=c3\nc4c(c[nH]3)N(C)C(O)=CCN4c3ccccc3)c2)CC1

>  <Energy>  (1) 
107.97179489479667

>  <Genealogy>  (1) 
CCOC1CC[NH+](C(=O)c2cccc(N=c3nc4c(c[nH]3)N(C)C(=O)CCN4c3ccccc3)c2)CC1 (protonated)
CCOC1CC[NH+](C(=O)c2cccc(N=c3nc4c(c[nH]3)N(C)C(O)=CCN4c3ccccc3)c2)CC1 (tautomer)
CCOC1CC[NH+](C(=O)c2cccc(/N=c3\nc4c(c[nH]3)N(C)C(O)=CCN4c3ccccc3)c2)CC1 (cis-trans isomerization)
CCOC1CC[NH+](C(=O)c2cccc(/N=c3\nc4c(c[nH]3)N(C)C(O)=CCN4c3ccccc3)c2)CC1 (3D coordinates assigned)
CCOC1CC[NH+](C(=O)c2cccc(/N=c3\nc4c(c[nH]3)N(C)C(O)=CCN4c3ccccc3)c2)CC1 (nonaromatic ring conformer: 107.97179489479667 kcal/mol)

>  <smiles>  (1) 
CCOC1CCN(C(=O)c2cccc(N=c3nc4c(c[nH]3)N(C)C(=O)CCN4c3ccccc3)c2)CC1

>  <score_type>  (1) 
oracle

>  <origin>  (1) 
autodockgpu

>  <m_score__min__energy>  (1) 
-7.3200000000000003

>  <m_primary>  (1) 
energy

>  <meeko>  (1) 
{"free_energy": -6.6, "intermolecular_energy": -10.48, "internal_energy": -1.38, "cluster_size": 4, "cluster_id": 1, "rank_in_cluster": 2}

>  <energy>  (1) 
-7.32

>  <cluster_rmsd>  (1) 
0.0

>  <rmsd>  (1) 
271.96

>  <cluster>  (1) 
1

$$$$
FLYFIANCBVDDDY-IGPOTQGWNA-O
     RDKit          3D

 70 74  0  0  0  0  0  0  0  0999 V2000
  134.1510   68.9220  223.7330 H   0  0  0  0  0  0  0  0  0  0  0  0
  134.5330   69.8520  223.6180 O   0  0  0  0  0  0  0  0  0  0  0  0
  135.9050   70.1080  223.6780 C   0  0  0  0  0  0  0  0  0  0  0  0
  136.7150   69.0410  223.7740 C   0  0  0  0  0  0  0  0  0  0  0  0
  136.2587   68.0774  223.5032 H   0  0  0  0  0  0  0  0  0  0  0  0
  138.1610   68.9740  224.2000 C   0  0  0  0  0  0  0  0  0  0  0  0
  138.2350   68.2802  225.0504 H   0  0  0  0  0  0  0  0  0  0  0  0
  138.7279   68.6426  223.3175 H   0  0  0  0  0  0  0  0  0  0  0  0
  138.7440   70.2560  224.6060 N   0  0  0  0  0  0  0  0  0  0  0  0
  139.6670   70.3280  225.7120 C   0  0  0  0  0  0  0  0  0  0  0  0
  140.2500   71.5490  226.0980 C   0  0  0  0  0  0  0  0  0  0  0  0
  140.0538   72.4584  225.5111 H   0  0  0  0  0  0  0  0  0  0  0  0
  141.0770   71.6130  227.2230 C   0  0  0  0  0  0  0  0  0  0  0  0
  141.5318   72.5706  227.5166 H   0  0  0  0  0  0  0  0  0  0  0  0
  141.3270   70.4610  227.9760 C   0  0  0  0  0  0  0  0  0  0  0  0
  141.9804   70.5123  228.8594 H   0  0  0  0  0  0  0  0  0  0  0  0
  140.7470   69.2460  227.6060 C   0  0  0  0  0  0  0  0  0  0  0  0
  140.9425   68.3408  228.1997 H   0  0  0  0  0  0  0  0  0  0  0  0
  139.9180   69.1780  226.4820 C   0  0  0  0  0  0  0  0  0  0  0  0
  139.4593   68.2193  226.1982 H   0  0  0  0  0  0  0  0  0  0  0  0
  138.8050   71.2960  223.6270 C   0  0  0  0  0  0  0  0  0  0  0  0
  140.0100   71.7830  223.2350 N   0  0  0  0  0  0  0  0  0  0  0  0
  140.1130   72.7850  222.3210 C   0  0  0  0  0  0  0  0  0  0  0  0
  141.2810   73.2390  221.9630 N   0  0  0  0  0  0  0  0  0  0  0  0
  141.4860   74.2900  221.0050 C   0  0  0  0  0  0  0  0  0  0  0  0
  141.8670   74.0040  219.6840 C   0  0  0  0  0  0  0  0  0  0  0  0
  142.0240   72.9608  219.3724 H   0  0  0  0  0  0  0  0  0  0  0  0
  142.0470   75.0380  218.7660 C   0  0  0  0  0  0  0  0  0  0  0  0
  142.3417   74.8081  217.7314 H   0  0  0  0  0  0  0  0  0  0  0  0
  141.8540   76.3650  219.1570 C   0  0  0  0  0  0  0  0  0  0  0  0
  141.9937   77.1748  218.4258 H   0  0  0  0  0  0  0  0  0  0  0  0
  141.4820   76.6750  220.4800 C   0  0  0  0  0  0  0  0  0  0  0  0
  141.2280   78.0770  220.9170 C   0  0  0  0  0  0  0  0  0  0  0  0
  140.3000   78.7170  220.3430 O   0  0  0  0  0  0  0  0  0  0  0  0
  142.0310   78.7160  221.9530 N   0  0  2  0  0  0  0  0  0  0  0  0
  142.9700   78.2590  221.9350 H   0  0  0  0  0  0  0  0  0  0  0  0
  141.5150   78.4980  223.3310 C   0  0  0  0  0  0  0  0  0  0  0  0
  142.3059   78.7682  224.0461 H   0  0  0  0  0  0  0  0  0  0  0  0
  141.2297   77.4383  223.4066 H   0  0  0  0  0  0  0  0  0  0  0  0
  140.2560   79.3330  223.6550 C   0  0  0  0  0  0  0  0  0  0  0  0
  140.0163   79.2187  224.7225 H   0  0  0  0  0  0  0  0  0  0  0  0
  139.4296   78.9691  223.0268 H   0  0  0  0  0  0  0  0  0  0  0  0
  140.4740   80.8230  223.3490 C   0  0  2  0  0  0  0  0  0  0  0  0
  141.2236   81.2256  224.0462 H   0  0  0  0  0  0  0  0  0  0  0  0
  139.2550   81.5300  223.4970 O   0  0  0  0  0  0  0  0  0  0  0  0
  138.3890   80.8870  224.4130 C   0  0  0  0  0  0  0  0  0  0  0  0
  138.7132   81.1140  225.4393 H   0  0  0  0  0  0  0  0  0  0  0  0
  138.4249   79.8017  224.2375 H   0  0  0  0  0  0  0  0  0  0  0  0
  136.9580   81.3730  224.2190 C   0  0  0  0  0  0  0  0  0  0  0  0
  136.4886   81.5324  225.2010 H   0  0  0  0  0  0  0  0  0  0  0  0
  136.9650   82.3192  223.6580 H   0  0  0  0  0  0  0  0  0  0  0  0
  136.3873   80.6183  223.6580 H   0  0  0  0  0  0  0  0  0  0  0  0
  140.9530   80.9770  221.9050 C   0  0  0  0  0  0  0  0  0  0  0  0
  141.1597   82.0381  221.7019 H   0  0  0  0  0  0  0  0  0  0  0  0
  140.1692   80.6105  221.2258 H   0  0  0  0  0  0  0  0  0  0  0  0
  142.2330   80.1590  221.6810 C   0  0  0  0  0  0  0  0  0  0  0  0
  143.0180   80.5392  222.3512 H   0  0  0  0  0  0  0  0  0  0  0  0
  142.5213   80.2661  220.6249 H   0  0  0  0  0  0  0  0  0  0  0  0
  141.3280   75.6220  221.4040 C   0  0  0  0  0  0  0  0  0  0  0  0
  141.0807   75.8499  222.4513 H   0  0  0  0  0  0  0  0  0  0  0  0
  138.9830   73.2990  221.7620 N   0  0  0  0  0  0  0  0  0  0  0  0
  139.0490   74.0630  221.0510 H   0  0  0  0  0  0  0  0  0  0  0  0
  137.7550   72.8590  222.1470 C   0  0  0  0  0  0  0  0  0  0  0  0
  136.8502   73.3038  221.7071 H   0  0  0  0  0  0  0  0  0  0  0  0
  137.6390   71.8390  223.1040 C   0  0  0  0  0  0  0  0  0  0  0  0
  136.3650   71.4770  223.6560 N   0  0  0  0  0  0  0  0  0  0  0  0
  135.4400   72.5460  224.0470 C   0  0  0  0  0  0  0  0  0  0  0  0
  135.3897   72.6042  225.1443 H   0  0  0  0  0  0  0  0  0  0  0  0
  135.7975   73.5055  223.6450 H   0  0  0  0  0  0  0  0  0  0  0  0
  134.4391   72.3301  223.6450 H   0  0  0  0  0  0  0  0  0  0  0  0
  1  2  1  0
  2  3  1  0
  3  4  2  0
  4  5  1  0
  4  6  1  0
  6  7  1  0
  6  8  1  0
  6  9  1  0
  9 10  1  0
 10 11  2  0
 11 12  1  0
 11 13  1  0
 13 14  1  0
 13 15  2  0
 15 16  1  0
 15 17  1  0
 17 18  1  0
 17 19  2  0
 19 20  1  0
  9 21  1  0
 21 22  2  0
 22 23  1  0
 23 24  2  0
 24 25  1  0
 25 26  2  0
 26 27  1  0
 26 28  1  0
 28 29  1  0
 28 30  2  0
 30 31  1  0
 30 32  1  0
 32 33  1  0
 33 34  2  0
 33 35  1  0
 35 36  1  1
 35 37  1  0
 37 38  1  0
 37 39  1  0
 37 40  1  0
 40 41  1  0
 40 42  1  0
 40 43  1  0
 43 44  1  6
 43 45  1  0
 45 46  1  0
 46 47  1  0
 46 48  1  0
 46 49  1  0
 49 50  1  0
 49 51  1  0
 49 52  1  0
 43 53  1  0
 53 54  1  0
 53 55  1  0
 53 56  1  0
 56 57  1  0
 56 58  1  0
 32 59  2  0
 59 60  1  0
 23 61  1  0
 61 62  1  0
 61 63  1  0
 63 64  1  0
 63 65  2  0
 65 66  1  0
 66 67  1  0
 67 68  1  0
 67 69  1  0
 67 70  1  0
 66  3  1  0
 19 10  1  0
 65 21  1  0
 59 25  1  0
 56 35  1  0
M  CHG  1  35   1
M  END
>  <UniqueID>  (2) 
21

>  <SMILES>  (2) 
CCOC1CC[NH+](C(=O)c2cccc(/N=c3\nc4c(c[nH]3)N(C)C(O)=CCN4c3ccccc3)c2)CC1

>  <Energy>  (2) 
107.97179489479667

>  <Genealogy>  (2) 
CCOC1CC[NH+](C(=O)c2cccc(N=c3nc4c(c[nH]3)N(C)C(=O)CCN4c3ccccc3)c2)CC1 (protonated)
CCOC1CC[NH+](C(=O)c2cccc(N=c3nc4c(c[nH]3)N(C)C(O)=CCN4c3ccccc3)c2)CC1 (tautomer)
CCOC1CC[NH+](C(=O)c2cccc(/N=c3\nc4c(c[nH]3)N(C)C(O)=CCN4c3ccccc3)c2)CC1 (cis-trans isomerization)
CCOC1CC[NH+](C(=O)c2cccc(/N=c3\nc4c(c[nH]3)N(C)C(O)=CCN4c3ccccc3)c2)CC1 (3D coordinates assigned)
CCOC1CC[NH+](C(=O)c2cccc(/N=c3\nc4c(c[nH]3)N(C)C(O)=CCN4c3ccccc3)c2)CC1 (nonaromatic ring conformer: 107.97179489479667 kcal/mol)

>  <smiles>  (2) 
CCOC1CCN(C(=O)c2cccc(N=c3nc4c(c[nH]3)N(C)C(=O)CCN4c3ccccc3)c2)CC1

>  <score_type>  (2) 
oracle

>  <origin>  (2) 
autodockgpu

>  <m_score__min__energy>  (2) 
-7.3200000000000003

>  <m_primary>  (2) 
energy

>  <meeko>  (2) 
{"free_energy": -6.57, "intermolecular_energy": -10.45, "internal_energy": -1.35, "cluster_size": 4, "cluster_id": 1, "rank_in_cluster": 3}

>  <energy>  (2) 
-6.6

>  <cluster_rmsd>  (2) 
1.59

>  <rmsd>  (2) 
271.91

>  <cluster>  (2) 
1

$$$$
FLYFIANCBVDDDY-IGPOTQGWNA-O
     RDKit          3D

 70 74  0  0  0  0  0  0  0  0999 V2000
  133.9160   81.0560  224.5090 H   0  0  0  0  0  0  0  0  0  0  0  0
  134.3100   80.1360  224.3550 O   0  0  0  0  0  0  0  0  0  0  0  0
  135.6400   79.9480  223.9730 C   0  0  0  0  0  0  0  0  0  0  0  0
  136.5750   80.5640  224.7160 C   0  0  0  0  0  0  0  0  0  0  0  0
  136.1893   81.1678  225.5507 H   0  0  0  0  0  0  0  0  0  0  0  0
  138.0770   80.5480  224.5720 C   0  0  0  0  0  0  0  0  0  0  0  0
  138.4468   81.5719  224.7296 H   0  0  0  0  0  0  0  0  0  0  0  0
  138.4520   79.8316  225.3177 H   0  0  0  0  0  0  0  0  0  0  0  0
  138.5650   80.0820  223.2700 N   0  0  0  0  0  0  0  0  0  0  0  0
  139.6470   80.7650  222.6040 C   0  0  0  0  0  0  0  0  0  0  0  0
  139.4030   81.6500  221.5360 C   0  0  0  0  0  0  0  0  0  0  0  0
  138.3788   81.7794  221.1560 H   0  0  0  0  0  0  0  0  0  0  0  0
  140.4550   82.3650  220.9560 C   0  0  0  0  0  0  0  0  0  0  0  0
  140.2575   83.0523  220.1201 H   0  0  0  0  0  0  0  0  0  0  0  0
  141.7590   82.2070  221.4380 C   0  0  0  0  0  0  0  0  0  0  0  0
  142.5867   82.7674  220.9788 H   0  0  0  0  0  0  0  0  0  0  0  0
  142.0100   81.3380  222.5020 C   0  0  0  0  0  0  0  0  0  0  0  0
  143.0352   81.2169  222.8818 H   0  0  0  0  0  0  0  0  0  0  0  0
  140.9610   80.6220  223.0850 C   0  0  0  0  0  0  0  0  0  0  0  0
  141.1642   79.9422  223.9256 H   0  0  0  0  0  0  0  0  0  0  0  0
  138.3370   78.7140  222.9270 C   0  0  0  0  0  0  0  0  0  0  0  0
  139.3920   77.8890  222.7040 N   0  0  0  0  0  0  0  0  0  0  0  0
  139.2200   76.5860  222.3560 C   0  0  0  0  0  0  0  0  0  0  0  0
  140.2480   75.8150  222.1430 N   0  0  0  0  0  0  0  0  0  0  0  0
  141.2740   76.0770  221.1720 C   0  0  0  0  0  0  0  0  0  0  0  0
  142.1970   75.0850  220.8040 C   0  0  0  0  0  0  0  0  0  0  0  0
  142.1478   74.0905  221.2716 H   0  0  0  0  0  0  0  0  0  0  0  0
  143.1750   75.3550  219.8490 C   0  0  0  0  0  0  0  0  0  0  0  0
  143.8927   74.5724  219.5620 H   0  0  0  0  0  0  0  0  0  0  0  0
  143.2460   76.6180  219.2550 C   0  0  0  0  0  0  0  0  0  0  0  0
  144.0184   76.8222  218.4989 H   0  0  0  0  0  0  0  0  0  0  0  0
  142.3370   77.6320  219.6160 C   0  0  0  0  0  0  0  0  0  0  0  0
  142.3600   78.9750  218.9700 C   0  0  0  0  0  0  0  0  0  0  0  0
  142.3730   79.9930  219.7200 O   0  0  0  0  0  0  0  0  0  0  0  0
  142.3420   79.1290  217.5200 N   0  0  2  0  0  0  0  0  0  0  0  0
  143.3300   79.0470  217.1930 H   0  0  0  0  0  0  0  0  0  0  0  0
  141.8880   80.4710  217.0660 C   0  0  0  0  0  0  0  0  0  0  0  0
  142.1615   80.5917  216.0074 H   0  0  0  0  0  0  0  0  0  0  0  0
  142.3795   81.2147  217.7105 H   0  0  0  0  0  0  0  0  0  0  0  0
  140.3650   80.6840  217.2050 C   0  0  0  0  0  0  0  0  0  0  0  0
  140.0930   81.6381  216.7300 H   0  0  0  0  0  0  0  0  0  0  0  0
  140.1148   80.6936  218.2761 H   0  0  0  0  0  0  0  0  0  0  0  0
  139.5730   79.5500  216.5360 C   0  0  2  0  0  0  0  0  0  0  0  0
  139.7299   79.5969  215.4483 H   0  0  0  0  0  0  0  0  0  0  0  0
  138.1930   79.6880  216.8270 O   0  0  0  0  0  0  0  0  0  0  0  0
  137.9830   80.3680  218.0490 C   0  0  0  0  0  0  0  0  0  0  0  0
  137.0725   80.9804  217.9718 H   0  0  0  0  0  0  0  0  0  0  0  0
  138.8522   81.0098  218.2555 H   0  0  0  0  0  0  0  0  0  0  0  0
  137.8220   79.3690  219.1890 C   0  0  0  0  0  0  0  0  0  0  0  0
  137.9067   79.8944  220.1517 H   0  0  0  0  0  0  0  0  0  0  0  0
  136.8349   78.8887  219.1190 H   0  0  0  0  0  0  0  0  0  0  0  0
  138.6083   78.6029  219.1190 H   0  0  0  0  0  0  0  0  0  0  0  0
  140.0530   78.2070  217.0860 C   0  0  0  0  0  0  0  0  0  0  0  0
  139.5237   77.3927  216.5695 H   0  0  0  0  0  0  0  0  0  0  0  0
  139.8439   78.1656  218.1652 H   0  0  0  0  0  0  0  0  0  0  0  0
  141.5640   78.0520  216.8620 C   0  0  0  0  0  0  0  0  0  0  0  0
  141.7663   78.0788  215.7811 H   0  0  0  0  0  0  0  0  0  0  0  0
  141.8740   77.0936  217.3041 H   0  0  0  0  0  0  0  0  0  0  0  0
  141.3690   77.3520  220.6010 C   0  0  0  0  0  0  0  0  0  0  0  0
  140.6793   78.1451  220.9255 H   0  0  0  0  0  0  0  0  0  0  0  0
  137.9600   76.0820  222.2530 N   0  0  0  0  0  0  0  0  0  0  0  0
  137.8140   75.0790  221.9960 H   0  0  0  0  0  0  0  0  0  0  0  0
  136.8740   76.8810  222.4410 C   0  0  0  0  0  0  0  0  0  0  0  0
  135.8615   76.4666  222.3261 H   0  0  0  0  0  0  0  0  0  0  0  0
  137.0430   78.2320  222.7810 C   0  0  0  0  0  0  0  0  0  0  0  0
  135.9290   79.1360  222.8140 N   0  0  0  0  0  0  0  0  0  0  0  0
  134.9660   79.1030  221.7090 C   0  0  0  0  0  0  0  0  0  0  0  0
  133.9440   79.0680  222.1143 H   0  0  0  0  0  0  0  0  0  0  0  0
  135.0850   80.0057  221.0918 H   0  0  0  0  0  0  0  0  0  0  0  0
  135.1465   78.2105  221.0918 H   0  0  0  0  0  0  0  0  0  0  0  0
  1  2  1  0
  2  3  1  0
  3  4  2  0
  4  5  1  0
  4  6  1  0
  6  7  1  0
  6  8  1  0
  6  9  1  0
  9 10  1  0
 10 11  2  0
 11 12  1  0
 11 13  1  0
 13 14  1  0
 13 15  2  0
 15 16  1  0
 15 17  1  0
 17 18  1  0
 17 19  2  0
 19 20  1  0
  9 21  1  0
 21 22  2  0
 22 23  1  0
 23 24  2  0
 24 25  1  0
 25 26  2  0
 26 27  1  0
 26 28  1  0
 28 29  1  0
 28 30  2  0
 30 31  1  0
 30 32  1  0
 32 33  1  0
 33 34  2  0
 33 35  1  0
 35 36  1  6
 35 37  1  0
 37 38  1  0
 37 39  1  0
 37 40  1  0
 40 41  1  0
 40 42  1  0
 40 43  1  0
 43 44  1  1
 43 45  1  0
 45 46  1  0
 46 47  1  0
 46 48  1  0
 46 49  1  0
 49 50  1  0
 49 51  1  0
 49 52  1  0
 43 53  1  0
 53 54  1  0
 53 55  1  0
 53 56  1  0
 56 57  1  0
 56 58  1  0
 32 59  2  0
 59 60  1  0
 23 61  1  0
 61 62  1  0
 61 63  1  0
 63 64  1  0
 63 65  2  0
 65 66  1  0
 66 67  1  0
 67 68  1  0
 67 69  1  0
 67 70  1  0
 66  3  1  0
 19 10  1  0
 65 21  1  0
 59 25  1  0
 56 35  1  0
M  CHG  1  35   1
M  END
>  <UniqueID>  (3) 
21

>  <SMILES>  (3) 
CCOC1CC[NH+](C(=O)c2cccc(/N=c3\nc4c(c[nH]3)N(C)C(O)=CCN4c3ccccc3)c2)CC1

>  <Energy>  (3) 
107.97179489479667

>  <Genealogy>  (3) 
CCOC1CC[NH+](C(=O)c2cccc(N=c3nc4c(c[nH]3)N(C)C(=O)CCN4c3ccccc3)c2)CC1 (protonated)
CCOC1CC[NH+](C(=O)c2cccc(N=c3nc4c(c[nH]3)N(C)C(O)=CCN4c3ccccc3)c2)CC1 (tautomer)
CCOC1CC[NH+](C(=O)c2cccc(/N=c3\nc4c(c[nH]3)N(C)C(O)=CCN4c3ccccc3)c2)CC1 (cis-trans isomerization)
CCOC1CC[NH+](C(=O)c2cccc(/N=c3\nc4c(c[nH]3)N(C)C(O)=CCN4c3ccccc3)c2)CC1 (3D coordinates assigned)
CCOC1CC[NH+](C(=O)c2cccc(/N=c3\nc4c(c[nH]3)N(C)C(O)=CCN4c3ccccc3)c2)CC1 (nonaromatic ring conformer: 107.97179489479667 kcal/mol)

>  <smiles>  (3) 
CCOC1CCN(C(=O)c2cccc(N=c3nc4c(c[nH]3)N(C)C(=O)CCN4c3ccccc3)c2)CC1

>  <score_type>  (3) 
oracle

>  <origin>  (3) 
autodockgpu

>  <m_score__min__energy>  (3) 
-7.3200000000000003

>  <m_primary>  (3) 
energy

>  <meeko>  (3) 
{"free_energy": -4.37, "intermolecular_energy": -8.25, "internal_energy": -3.11, "cluster_size": 1, "cluster_id": 7, "rank_in_cluster": 1}

>  <energy>  (3) 
-6.57

>  <cluster_rmsd>  (3) 
1.41

>  <rmsd>  (3) 
271.89

>  <cluster>  (3) 
1

$$$$
FLYFIANCBVDDDY-IGPOTQGWNA-O
     RDKit          3D

 70 74  0  0  0  0  0  0  0  0999 V2000
  144.5360   76.2070  217.9390 H   0  0  0  0  0  0  0  0  0  0  0  0
  143.6970   75.7440  218.2650 O   0  0  0  0  0  0  0  0  0  0  0  0
  142.8080   76.3480  219.1570 C   0  0  0  0  0  0  0  0  0  0  0  0
  142.3990   77.5900  218.8510 C   0  0  0  0  0  0  0  0  0  0  0  0
  142.5568   77.8941  217.8057 H   0  0  0  0  0  0  0  0  0  0  0  0
  141.7540   78.6280  219.7360 C   0  0  0  0  0  0  0  0  0  0  0  0
  142.3774   79.5339  219.7108 H   0  0  0  0  0  0  0  0  0  0  0  0
  140.7406   78.7864  219.3385 H   0  0  0  0  0  0  0  0  0  0  0  0
  141.5890   78.2270  221.1370 N   0  0  0  0  0  0  0  0  0  0  0  0
  141.7900   79.1770  222.2030 C   0  0  0  0  0  0  0  0  0  0  0  0
  143.0830   79.5180  222.6430 C   0  0  0  0  0  0  0  0  0  0  0  0
  143.9585   79.0080  222.2148 H   0  0  0  0  0  0  0  0  0  0  0  0
  143.2610   80.5010  223.6210 C   0  0  0  0  0  0  0  0  0  0  0  0
  144.2742   80.7588  223.9630 H   0  0  0  0  0  0  0  0  0  0  0  0
  142.1520   81.1570  224.1650 C   0  0  0  0  0  0  0  0  0  0  0  0
  142.2932   81.9291  224.9357 H   0  0  0  0  0  0  0  0  0  0  0  0
  140.8660   80.8320  223.7300 C   0  0  0  0  0  0  0  0  0  0  0  0
  139.9948   81.3501  224.1573 H   0  0  0  0  0  0  0  0  0  0  0  0
  140.6830   79.8490  222.7520 C   0  0  0  0  0  0  0  0  0  0  0  0
  139.6675   79.6000  222.4102 H   0  0  0  0  0  0  0  0  0  0  0  0
  140.7610   77.0940  221.4100 C   0  0  0  0  0  0  0  0  0  0  0  0
  139.6360   77.2450  222.1550 N   0  0  0  0  0  0  0  0  0  0  0  0
  138.8310   76.1910  222.4540 C   0  0  0  0  0  0  0  0  0  0  0  0
  137.7580   76.3600  223.1740 N   0  0  0  0  0  0  0  0  0  0  0  0
  136.9050   77.5140  223.1050 C   0  0  0  0  0  0  0  0  0  0  0  0
  135.5080   77.3890  223.1660 C   0  0  0  0  0  0  0  0  0  0  0  0
  135.0505   76.3928  223.2567 H   0  0  0  0  0  0  0  0  0  0  0  0
  134.6980   78.5230  223.1120 C   0  0  0  0  0  0  0  0  0  0  0  0
  133.6041   78.4192  223.1632 H   0  0  0  0  0  0  0  0  0  0  0  0
  135.2730   79.7900  222.9930 C   0  0  0  0  0  0  0  0  0  0  0  0
  134.6279   80.6802  222.9559 H   0  0  0  0  0  0  0  0  0  0  0  0
  136.6730   79.9380  222.9200 C   0  0  0  0  0  0  0  0  0  0  0  0
  137.3180   81.2790  222.8350 C   0  0  0  0  0  0  0  0  0  0  0  0
  137.9510   81.6970  223.8460 O   0  0  0  0  0  0  0  0  0  0  0  0
  137.2100   82.1070  221.6390 N   0  0  2  0  0  0  0  0  0  0  0  0
  136.2540   82.5270  221.6450 H   0  0  0  0  0  0  0  0  0  0  0  0
  137.2940   81.3390  220.3680 C   0  0  0  0  0  0  0  0  0  0  0  0
  136.9368   81.9805  219.5489 H   0  0  0  0  0  0  0  0  0  0  0  0
  136.6747   80.4384  220.4918 H   0  0  0  0  0  0  0  0  0  0  0  0
  138.7240   80.8650  220.0300 C   0  0  0  0  0  0  0  0  0  0  0  0
  138.7256   80.4246  219.0220 H   0  0  0  0  0  0  0  0  0  0  0  0
  139.0281   80.1226  220.7825 H   0  0  0  0  0  0  0  0  0  0  0  0
  139.7270   82.0280  220.0680 C   0  0  2  0  0  0  0  0  0  0  0  0
  139.4974   82.7261  219.2495 H   0  0  0  0  0  0  0  0  0  0  0  0
  141.0470   81.5320  219.9190 O   0  0  0  0  0  0  0  0  0  0  0  0
  141.7660   82.2520  218.9360 C   0  0  0  0  0  0  0  0  0  0  0  0
  142.5068   82.8986  219.4292 H   0  0  0  0  0  0  0  0  0  0  0  0
  141.0612   82.8631  218.3531 H   0  0  0  0  0  0  0  0  0  0  0  0
  142.4840   81.2910  217.9960 C   0  0  0  0  0  0  0  0  0  0  0  0
  143.0396   80.5474  218.5862 H   0  0  0  0  0  0  0  0  0  0  0  0
  141.7458   80.7784  217.3617 H   0  0  0  0  0  0  0  0  0  0  0  0
  143.1848   81.8536  217.3617 H   0  0  0  0  0  0  0  0  0  0  0  0
  139.6250   82.7380  221.4180 C   0  0  0  0  0  0  0  0  0  0  0  0
  140.3061   83.6017  221.4270 H   0  0  0  0  0  0  0  0  0  0  0  0
  139.9020   82.0339  222.2164 H   0  0  0  0  0  0  0  0  0  0  0  0
  138.1870   83.2230  221.6530 C   0  0  0  0  0  0  0  0  0  0  0  0
  137.9201   83.9374  220.8603 H   0  0  0  0  0  0  0  0  0  0  0  0
  138.1475   83.6940  222.6463 H   0  0  0  0  0  0  0  0  0  0  0  0
  137.4780   78.7820  222.9500 C   0  0  0  0  0  0  0  0  0  0  0  0
  138.5694   78.8769  222.8505 H   0  0  0  0  0  0  0  0  0  0  0  0
  139.1400   74.9550  221.9750 N   0  0  0  0  0  0  0  0  0  0  0  0
  138.5230   74.1380  222.1900 H   0  0  0  0  0  0  0  0  0  0  0  0
  140.2720   74.7550  221.2480 C   0  0  0  0  0  0  0  0  0  0  0  0
  140.5238   73.7450  220.8924 H   0  0  0  0  0  0  0  0  0  0  0  0
  141.1200   75.8330  220.9500 C   0  0  0  0  0  0  0  0  0  0  0  0
  142.4020   75.6270  220.3400 N   0  0  0  0  0  0  0  0  0  0  0  0
  143.2450   74.5330  220.8320 C   0  0  0  0  0  0  0  0  0  0  0  0
  143.2434   74.5351  221.9320 H   0  0  0  0  0  0  0  0  0  0  0  0
  142.8506   73.5734  220.4666 H   0  0  0  0  0  0  0  0  0  0  0  0
  144.2735   74.6698  220.4666 H   0  0  0  0  0  0  0  0  0  0  0  0
  1  2  1  0
  2  3  1  0
  3  4  2  0
  4  5  1  0
  4  6  1  0
  6  7  1  0
  6  8  1  0
  6  9  1  0
  9 10  1  0
 10 11  2  0
 11 12  1  0
 11 13  1  0
 13 14  1  0
 13 15  2  0
 15 16  1  0
 15 17  1  0
 17 18  1  0
 17 19  2  0
 19 20  1  0
  9 21  1  0
 21 22  2  0
 22 23  1  0
 23 24  2  0
 24 25  1  0
 25 26  2  0
 26 27  1  0
 26 28  1  0
 28 29  1  0
 28 30  2  0
 30 31  1  0
 30 32  1  0
 32 33  1  0
 33 34  2  0
 33 35  1  0
 35 36  1  1
 35 37  1  0
 37 38  1  0
 37 39  1  0
 37 40  1  0
 40 41  1  0
 40 42  1  0
 40 43  1  0
 43 44  1  1
 43 45  1  0
 45 46  1  0
 46 47  1  0
 46 48  1  0
 46 49  1  0
 49 50  1  0
 49 51  1  0
 49 52  1  0
 43 53  1  0
 53 54  1  0
 53 55  1  0
 53 56  1  0
 56 57  1  0
 56 58  1  0
 32 59  2  0
 59 60  1  0
 23 61  1  0
 61 62  1  0
 61 63  1  0
 63 64  1  0
 63 65  2  0
 65 66  1  0
 66 67  1  0
 67 68  1  0
 67 69  1  0
 67 70  1  0
 66  3  1  0
 19 10  1  0
 65 21  1  0
 59 25  1  0
 56 35  1  0
M  CHG  1  35   1
M  END
>  <UniqueID>  (4) 
21

>  <SMILES>  (4) 
CCOC1CC[NH+](C(=O)c2cccc(/N=c3\nc4c(c[nH]3)N(C)C(O)=CCN4c3ccccc3)c2)CC1

>  <Energy>  (4) 
107.97179489479667

>  <Genealogy>  (4) 
CCOC1CC[NH+](C(=O)c2cccc(N=c3nc4c(c[nH]3)N(C)C(=O)CCN4c3ccccc3)c2)CC1 (protonated)
CCOC1CC[NH+](C(=O)c2cccc(N=c3nc4c(c[nH]3)N(C)C(O)=CCN4c3ccccc3)c2)CC1 (tautomer)
CCOC1CC[NH+](C(=O)c2cccc(/N=c3\nc4c(c[nH]3)N(C)C(O)=CCN4c3ccccc3)c2)CC1 (cis-trans isomerization)
CCOC1CC[NH+](C(=O)c2cccc(/N=c3\nc4c(c[nH]3)N(C)C(O)=CCN4c3ccccc3)c2)CC1 (3D coordinates assigned)
CCOC1CC[NH+](C(=O)c2cccc(/N=c3\nc4c(c[nH]3)N(C)C(O)=CCN4c3ccccc3)c2)CC1 (nonaromatic ring conformer: 107.97179489479667 kcal/mol)

>  <smiles>  (4) 
CCOC1CCN(C(=O)c2cccc(N=c3nc4c(c[nH]3)N(C)C(=O)CCN4c3ccccc3)c2)CC1

>  <score_type>  (4) 
oracle

>  <origin>  (4) 
autodockgpu

>  <m_score__min__energy>  (4) 
-7.3200000000000003

>  <m_primary>  (4) 
energy

>  <meeko>  (4) 
{"free_energy": -4.37, "intermolecular_energy": -8.25, "internal_energy": -3.08, "cluster_size": 2, "cluster_id": 8, "rank_in_cluster": 1}

>  <energy>  (4) 
-6.1

>  <cluster_rmsd>  (4) 
1.97

>  <rmsd>  (4) 
271.37

>  <cluster>  (4) 
1

$$$$
FLYFIANCBVDDDY-IGPOTQGWNA-O
     RDKit          3D

 70 74  0  0  0  0  0  0  0  0999 V2000
  144.3970   70.4860  221.4660 H   0  0  0  0  0  0  0  0  0  0  0  0
  143.8970   70.8570  220.6690 O   0  0  0  0  0  0  0  0  0  0  0  0
  143.5800   72.2120  220.5500 C   0  0  0  0  0  0  0  0  0  0  0  0
  144.5690   73.0890  220.8000 C   0  0  0  0  0  0  0  0  0  0  0  0
  145.4190   72.6890  221.3723 H   0  0  0  0  0  0  0  0  0  0  0  0
  144.6810   74.5420  220.4090 C   0  0  0  0  0  0  0  0  0  0  0  0
  144.9608   75.1164  221.3044 H   0  0  0  0  0  0  0  0  0  0  0  0
  145.4344   74.5895  219.6089 H   0  0  0  0  0  0  0  0  0  0  0  0
  143.4550   75.1280  219.8560 N   0  0  0  0  0  0  0  0  0  0  0  0
  143.3210   75.3480  218.4370 C   0  0  0  0  0  0  0  0  0  0  0  0
  143.2820   76.6490  217.9020 C   0  0  0  0  0  0  0  0  0  0  0  0
  143.2893   77.5181  218.5762 H   0  0  0  0  0  0  0  0  0  0  0  0
  143.2340   76.8430  216.5180 C   0  0  0  0  0  0  0  0  0  0  0  0
  143.2001   77.8627  216.1068 H   0  0  0  0  0  0  0  0  0  0  0  0
  143.2290   75.7410  215.6560 C   0  0  0  0  0  0  0  0  0  0  0  0
  143.1888   75.8944  214.5675 H   0  0  0  0  0  0  0  0  0  0  0  0
  143.2750   74.4470  216.1770 C   0  0  0  0  0  0  0  0  0  0  0  0
  143.2727   73.5814  215.4982 H   0  0  0  0  0  0  0  0  0  0  0  0
  143.3240   74.2490  217.5600 C   0  0  0  0  0  0  0  0  0  0  0  0
  143.3652   73.2270  217.9647 H   0  0  0  0  0  0  0  0  0  0  0  0
  142.2550   74.9990  220.6210 C   0  0  0  0  0  0  0  0  0  0  0  0
  141.7600   76.0740  221.2860 N   0  0  0  0  0  0  0  0  0  0  0  0
  140.6320   75.9910  222.0400 C   0  0  0  0  0  0  0  0  0  0  0  0
  140.1780   77.0360  222.6720 N   0  0  0  0  0  0  0  0  0  0  0  0
  140.8340   78.3140  222.7070 C   0  0  0  0  0  0  0  0  0  0  0  0
  141.8520   78.5820  223.6360 C   0  0  0  0  0  0  0  0  0  0  0  0
  142.1509   77.8099  224.3602 H   0  0  0  0  0  0  0  0  0  0  0  0
  142.4850   79.8240  223.6430 C   0  0  0  0  0  0  0  0  0  0  0  0
  143.2841   80.0279  224.3709 H   0  0  0  0  0  0  0  0  0  0  0  0
  142.1080   80.8100  222.7290 C   0  0  0  0  0  0  0  0  0  0  0  0
  142.6157   81.7858  222.7387 H   0  0  0  0  0  0  0  0  0  0  0  0
  141.0820   80.5650  221.7940 C   0  0  0  0  0  0  0  0  0  0  0  0
  140.6850   81.5810  220.7790 C   0  0  0  0  0  0  0  0  0  0  0  0
  139.7400   82.3700  221.0670 O   0  0  0  0  0  0  0  0  0  0  0  0
  141.3380   81.6610  219.4770 N   0  0  2  0  0  0  0  0  0  0  0  0
  141.8910   82.5470  219.4680 H   0  0  0  0  0  0  0  0  0  0  0  0
  140.3900   81.7790  218.3370 C   0  0  0  0  0  0  0  0  0  0  0  0
  140.9516   82.1044  217.4489 H   0  0  0  0  0  0  0  0  0  0  0  0
  139.6183   82.5058  218.6305 H   0  0  0  0  0  0  0  0  0  0  0  0
  139.6660   80.4560  218.0010 C   0  0  0  0  0  0  0  0  0  0  0  0
  139.0897   80.5897  217.0737 H   0  0  0  0  0  0  0  0  0  0  0  0
  139.0031   80.2027  218.8415 H   0  0  0  0  0  0  0  0  0  0  0  0
  140.6610   79.3020  217.8080 C   0  0  2  0  0  0  0  0  0  0  0  0
  141.2594   79.4920  216.9048 H   0  0  0  0  0  0  0  0  0  0  0  0
  139.9590   78.0780  217.6690 O   0  0  0  0  0  0  0  0  0  0  0  0
  139.9830   77.3250  218.8650 C   0  0  0  0  0  0  0  0  0  0  0  0
  139.2191   77.7144  219.5541 H   0  0  0  0  0  0  0  0  0  0  0  0
  140.9806   77.4097  219.3207 H   0  0  0  0  0  0  0  0  0  0  0  0
  139.6950   75.8570  218.5730 C   0  0  0  0  0  0  0  0  0  0  0  0
  139.5875   75.3089  219.5206 H   0  0  0  0  0  0  0  0  0  0  0  0
  138.7635   75.7742  217.9938 H   0  0  0  0  0  0  0  0  0  0  0  0
  140.5262   75.4284  217.9938 H   0  0  0  0  0  0  0  0  0  0  0  0
  141.5670   79.2060  219.0360 C   0  0  0  0  0  0  0  0  0  0  0  0
  142.3132   78.4138  218.8760 H   0  0  0  0  0  0  0  0  0  0  0  0
  140.9528   78.9708  219.9177 H   0  0  0  0  0  0  0  0  0  0  0  0
  142.2870   80.5410  219.2690 C   0  0  0  0  0  0  0  0  0  0  0  0
  142.9116   80.7644  218.3915 H   0  0  0  0  0  0  0  0  0  0  0  0
  142.8962   80.4414  220.1795 H   0  0  0  0  0  0  0  0  0  0  0  0
  140.4320   79.3150  221.8150 C   0  0  0  0  0  0  0  0  0  0  0  0
  139.5991   79.1236  221.1224 H   0  0  0  0  0  0  0  0  0  0  0  0
  139.9620   74.8080  222.1140 N   0  0  0  0  0  0  0  0  0  0  0  0
  139.0880   74.7330  222.6820 H   0  0  0  0  0  0  0  0  0  0  0  0
  140.4380   73.6990  221.4850 C   0  0  0  0  0  0  0  0  0  0  0  0
  139.9005   72.7436  221.5760 H   0  0  0  0  0  0  0  0  0  0  0  0
  141.6120   73.7710  220.7210 C   0  0  0  0  0  0  0  0  0  0  0  0
  142.2320   72.5890  220.1940 N   0  0  0  0  0  0  0  0  0  0  0  0
  141.5400   71.8450  219.1360 C   0  0  0  0  0  0  0  0  0  0  0  0
  140.8576   71.1113  219.5899 H   0  0  0  0  0  0  0  0  0  0  0  0
  140.9641   72.5446  218.5124 H   0  0  0  0  0  0  0  0  0  0  0  0
  142.2794   71.3212  218.5124 H   0  0  0  0  0  0  0  0  0  0  0  0
  1  2  1  0
  2  3  1  0
  3  4  2  0
  4  5  1  0
  4  6  1  0
  6  7  1  0
  6  8  1  0
  6  9  1  0
  9 10  1  0
 10 11  2  0
 11 12  1  0
 11 13  1  0
 13 14  1  0
 13 15  2  0
 15 16  1  0
 15 17  1  0
 17 18  1  0
 17 19  2  0
 19 20  1  0
  9 21  1  0
 21 22  2  0
 22 23  1  0
 23 24  2  0
 24 25  1  0
 25 26  2  0
 26 27  1  0
 26 28  1  0
 28 29  1  0
 28 30  2  0
 30 31  1  0
 30 32  1  0
 32 33  1  0
 33 34  2  0
 33 35  1  0
 35 36  1  1
 35 37  1  0
 37 38  1  0
 37 39  1  0
 37 40  1  0
 40 41  1  0
 40 42  1  0
 40 43  1  0
 43 44  1  1
 43 45  1  0
 45 46  1  0
 46 47  1  0
 46 48  1  0
 46 49  1  0
 49 50  1  0
 49 51  1  0
 49 52  1  0
 43 53  1  0
 53 54  1  0
 53 55  1  0
 53 56  1  0
 56 57  1  0
 56 58  1  0
 32 59  2  0
 59 60  1  0
 23 61  1  0
 61 62  1  0
 61 63  1  0
 63 64  1  0
 63 65  2  0
 65 66  1  0
 66 67  1  0
 67 68  1  0
 67 69  1  0
 67 70  1  0
 66  3  1  0
 19 10  1  0
 65 21  1  0
 59 25  1  0
 56 35  1  0
M  CHG  1  35   1
M  END
>  <UniqueID>  (5) 
21

>  <SMILES>  (5) 
CCOC1CC[NH+](C(=O)c2cccc(/N=c3\nc4c(c[nH]3)N(C)C(O)=CCN4c3ccccc3)c2)CC1

>  <Energy>  (5) 
107.97179489479667

>  <Genealogy>  (5) 
CCOC1CC[NH+](C(=O)c2cccc(N=c3nc4c(c[nH]3)N(C)C(=O)CCN4c3ccccc3)c2)CC1 (protonated)
CCOC1CC[NH+](C(=O)c2cccc(N=c3nc4c(c[nH]3)N(C)C(O)=CCN4c3ccccc3)c2)CC1 (tautomer)
CCOC1CC[NH+](C(=O)c2cccc(/N=c3\nc4c(c[nH]3)N(C)C(O)=CCN4c3ccccc3)c2)CC1 (cis-trans isomerization)
CCOC1CC[NH+](C(=O)c2cccc(/N=c3\nc4c(c[nH]3)N(C)C(O)=CCN4c3ccccc3)c2)CC1 (3D coordinates assigned)
CCOC1CC[NH+](C(=O)c2cccc(/N=c3\nc4c(c[nH]3)N(C)C(O)=CCN4c3ccccc3)c2)CC1 (nonaromatic ring conformer: 107.97179489479667 kcal/mol)

>  <smiles>  (5) 
CCOC1CCN(C(=O)c2cccc(N=c3nc4c(c[nH]3)N(C)C(=O)CCN4c3ccccc3)c2)CC1

>  <score_type>  (5) 
oracle

>  <origin>  (5) 
autodockgpu

>  <m_score__min__energy>  (5) 
-7.3200000000000003

>  <m_primary>  (5) 
energy

>  <meeko>  (5) 
{"free_energy": -4.54, "intermolecular_energy": -8.42, "internal_energy": -3.16, "cluster_size": 4, "cluster_id": 6, "rank_in_cluster": 1}

>  <energy>  (5) 
-5.72

>  <cluster_rmsd>  (5) 
0.0

>  <rmsd>  (5) 
271.49

>  <cluster>  (5) 
2

$$$$
FLYFIANCBVDDDY-IGPOTQGWNA-O
     RDKit          3D

 70 74  0  0  0  0  0  0  0  0999 V2000
  144.3790   70.9850  221.7690 H   0  0  0  0  0  0  0  0  0  0  0  0
  143.7180   71.1540  221.0220 O   0  0  0  0  0  0  0  0  0  0  0  0
  143.4180   72.4400  220.5670 C   0  0  0  0  0  0  0  0  0  0  0  0
  144.4420   73.3090  220.4920 C   0  0  0  0  0  0  0  0  0  0  0  0
  145.4444   72.8623  220.5677 H   0  0  0  0  0  0  0  0  0  0  0  0
  144.4150   74.8080  220.3190 C   0  0  0  0  0  0  0  0  0  0  0  0
  144.6112   75.2689  221.2983 H   0  0  0  0  0  0  0  0  0  0  0  0
  145.1802   75.0462  219.5655 H   0  0  0  0  0  0  0  0  0  0  0  0
  143.1510   75.3460  219.8070 N   0  0  0  0  0  0  0  0  0  0  0  0
  142.9580   75.5520  218.3920 C   0  0  0  0  0  0  0  0  0  0  0  0
  142.3370   74.5760  217.5910 C   0  0  0  0  0  0  0  0  0  0  0  0
  142.0479   73.6104  218.0315 H   0  0  0  0  0  0  0  0  0  0  0  0
  142.0850   74.8260  216.2380 C   0  0  0  0  0  0  0  0  0  0  0  0
  141.6021   74.0569  215.6173 H   0  0  0  0  0  0  0  0  0  0  0  0
  142.4470   76.0540  215.6740 C   0  0  0  0  0  0  0  0  0  0  0  0
  142.2510   76.2491  214.6093 H   0  0  0  0  0  0  0  0  0  0  0  0
  143.0570   77.0320  216.4620 C   0  0  0  0  0  0  0  0  0  0  0  0
  143.3391   77.9979  216.0176 H   0  0  0  0  0  0  0  0  0  0  0  0
  143.3100   76.7860  217.8150 C   0  0  0  0  0  0  0  0  0  0  0  0
  143.7870   77.5618  218.4319 H   0  0  0  0  0  0  0  0  0  0  0  0
  141.9830   75.1810  220.6140 C   0  0  0  0  0  0  0  0  0  0  0  0
  141.4640   76.2460  221.2760 N   0  0  0  0  0  0  0  0  0  0  0  0
  140.3670   76.1290  222.0700 C   0  0  0  0  0  0  0  0  0  0  0  0
  139.8900   77.1660  222.6990 N   0  0  0  0  0  0  0  0  0  0  0  0
  140.5570   78.4350  222.7990 C   0  0  0  0  0  0  0  0  0  0  0  0
  141.5600   78.6540  223.7560 C   0  0  0  0  0  0  0  0  0  0  0  0
  141.8382   77.8493  224.4524 H   0  0  0  0  0  0  0  0  0  0  0  0
  142.2050   79.8880  223.8270 C   0  0  0  0  0  0  0  0  0  0  0  0
  142.9929   80.0529  224.5767 H   0  0  0  0  0  0  0  0  0  0  0  0
  141.8530   80.9160  222.9480 C   0  0  0  0  0  0  0  0  0  0  0  0
  142.3694   81.8854  223.0072 H   0  0  0  0  0  0  0  0  0  0  0  0
  140.8410   80.7200  221.9860 C   0  0  0  0  0  0  0  0  0  0  0  0
  140.4720   81.7820  221.0080 C   0  0  0  0  0  0  0  0  0  0  0  0
  139.4940   82.5330  221.2890 O   0  0  0  0  0  0  0  0  0  0  0  0
  141.1890   81.9480  219.7490 N   0  0  2  0  0  0  0  0  0  0  0  0
  141.7020   82.8550  219.8080 H   0  0  0  0  0  0  0  0  0  0  0  0
  140.2980   82.0790  218.5650 C   0  0  0  0  0  0  0  0  0  0  0  0
  140.8911   82.4668  217.7237 H   0  0  0  0  0  0  0  0  0  0  0  0
  139.4814   82.7597  218.8474 H   0  0  0  0  0  0  0  0  0  0  0  0
  139.6500   80.7450  218.1330 C   0  0  0  0  0  0  0  0  0  0  0  0
  139.1178   80.8977  217.1825 H   0  0  0  0  0  0  0  0  0  0  0  0
  138.9556   80.4269  218.9246 H   0  0  0  0  0  0  0  0  0  0  0  0
  140.7020   79.6420  217.9440 C   0  0  2  0  0  0  0  0  0  0  0  0
  141.3377   79.8971  217.0833 H   0  0  0  0  0  0  0  0  0  0  0  0
  140.0620   78.3980  217.7140 O   0  0  0  0  0  0  0  0  0  0  0  0
  139.7560   77.7370  218.9260 C   0  0  0  0  0  0  0  0  0  0  0  0
  138.9096   78.2443  219.4121 H   0  0  0  0  0  0  0  0  0  0  0  0
  140.6393   77.7647  219.5810 H   0  0  0  0  0  0  0  0  0  0  0  0
  139.3840   76.2840  218.6580 C   0  0  0  0  0  0  0  0  0  0  0  0
  139.2492   75.7576  219.6144 H   0  0  0  0  0  0  0  0  0  0  0  0
  138.4470   76.2454  218.0830 H   0  0  0  0  0  0  0  0  0  0  0  0
  140.1872   75.7999  218.0830 H   0  0  0  0  0  0  0  0  0  0  0  0
  141.5460   79.5270  219.2140 C   0  0  0  0  0  0  0  0  0  0  0  0
  142.3328   78.7737  219.0605 H   0  0  0  0  0  0  0  0  0  0  0  0
  140.8972   79.2273  220.0502 H   0  0  0  0  0  0  0  0  0  0  0  0
  142.1950   80.8780  219.5430 C   0  0  0  0  0  0  0  0  0  0  0  0
  142.8536   81.1666  218.7105 H   0  0  0  0  0  0  0  0  0  0  0  0
  142.7604   80.7616  220.4793 H   0  0  0  0  0  0  0  0  0  0  0  0
  140.1800   79.4770  221.9430 C   0  0  0  0  0  0  0  0  0  0  0  0
  139.3579   79.3230  221.2285 H   0  0  0  0  0  0  0  0  0  0  0  0
  139.7520   74.9210  222.1880 N   0  0  0  0  0  0  0  0  0  0  0  0
  138.9010   74.8200  222.7880 H   0  0  0  0  0  0  0  0  0  0  0  0
  140.2550   73.8210  221.5640 C   0  0  0  0  0  0  0  0  0  0  0  0
  139.7641   72.8450  221.6920 H   0  0  0  0  0  0  0  0  0  0  0  0
  141.3980   73.9290  220.7580 C   0  0  0  0  0  0  0  0  0  0  0  0
  142.0510   72.7640  220.2310 N   0  0  0  0  0  0  0  0  0  0  0  0
  141.3680   71.9860  219.1940 C   0  0  0  0  0  0  0  0  0  0  0  0
  140.7129   71.2398  219.6672 H   0  0  0  0  0  0  0  0  0  0  0  0
  140.7642   72.6596  218.5681 H   0  0  0  0  0  0  0  0  0  0  0  0
  142.1141   71.4746  218.5681 H   0  0  0  0  0  0  0  0  0  0  0  0
  1  2  1  0
  2  3  1  0
  3  4  2  0
  4  5  1  0
  4  6  1  0
  6  7  1  0
  6  8  1  0
  6  9  1  0
  9 10  1  0
 10 11  2  0
 11 12  1  0
 11 13  1  0
 13 14  1  0
 13 15  2  0
 15 16  1  0
 15 17  1  0
 17 18  1  0
 17 19  2  0
 19 20  1  0
  9 21  1  0
 21 22  2  0
 22 23  1  0
 23 24  2  0
 24 25  1  0
 25 26  2  0
 26 27  1  0
 26 28  1  0
 28 29  1  0
 28 30  2  0
 30 31  1  0
 30 32  1  0
 32 33  1  0
 33 34  2  0
 33 35  1  0
 35 36  1  1
 35 37  1  0
 37 38  1  0
 37 39  1  0
 37 40  1  0
 40 41  1  0
 40 42  1  0
 40 43  1  0
 43 44  1  1
 43 45  1  0
 45 46  1  0
 46 47  1  0
 46 48  1  0
 46 49  1  0
 49 50  1  0
 49 51  1  0
 49 52  1  0
 43 53  1  0
 53 54  1  0
 53 55  1  0
 53 56  1  0
 56 57  1  0
 56 58  1  0
 32 59  2  0
 59 60  1  0
 23 61  1  0
 61 62  1  0
 61 63  1  0
 63 64  1  0
 63 65  2  0
 65 66  1  0
 66 67  1  0
 67 68  1  0
 67 69  1  0
 67 70  1  0
 66  3  1  0
 19 10  1  0
 65 21  1  0
 59 25  1  0
 56 35  1  0
M  CHG  1  35   1
M  END
>  <UniqueID>  (6) 
21

>  <SMILES>  (6) 
CCOC1CC[NH+](C(=O)c2cccc(/N=c3\nc4c(c[nH]3)N(C)C(O)=CCN4c3ccccc3)c2)CC1

>  <Energy>  (6) 
107.97179489479667

>  <Genealogy>  (6) 
CCOC1CC[NH+](C(=O)c2cccc(N=c3nc4c(c[nH]3)N(C)C(=O)CCN4c3ccccc3)c2)CC1 (protonated)
CCOC1CC[NH+](C(=O)c2cccc(N=c3nc4c(c[nH]3)N(C)C(O)=CCN4c3ccccc3)c2)CC1 (tautomer)
CCOC1CC[NH+](C(=O)c2cccc(/N=c3\nc4c(c[nH]3)N(C)C(O)=CCN4c3ccccc3)c2)CC1 (cis-trans isomerization)
CCOC1CC[NH+](C(=O)c2cccc(/N=c3\nc4c(c[nH]3)N(C)C(O)=CCN4c3ccccc3)c2)CC1 (3D coordinates assigned)
CCOC1CC[NH+](C(=O)c2cccc(/N=c3\nc4c(c[nH]3)N(C)C(O)=CCN4c3ccccc3)c2)CC1 (nonaromatic ring conformer: 107.97179489479667 kcal/mol)

>  <smiles>  (6) 
CCOC1CCN(C(=O)c2cccc(N=c3nc4c(c[nH]3)N(C)C(=O)CCN4c3ccccc3)c2)CC1

>  <score_type>  (6) 
oracle

>  <origin>  (6) 
autodockgpu

>  <m_score__min__energy>  (6) 
-7.3200000000000003

>  <m_primary>  (6) 
energy

>  <meeko>  (6) 
{"free_energy": -4.47, "intermolecular_energy": -8.35, "internal_energy": -3.24, "cluster_size": 4, "cluster_id": 6, "rank_in_cluster": 3}

>  <energy>  (6) 
-5.23

>  <cluster_rmsd>  (6) 
0.0

>  <rmsd>  (6) 
271.48

>  <cluster>  (6) 
3

$$$$
FLYFIANCBVDDDY-IGPOTQGWNA-O
     RDKit          3D

 70 74  0  0  0  0  0  0  0  0999 V2000
  136.8270   79.8010  218.3030 H   0  0  0  0  0  0  0  0  0  0  0  0
  137.0820   79.9380  219.2730 O   0  0  0  0  0  0  0  0  0  0  0  0
  138.1600   79.2750  219.8620 C   0  0  0  0  0  0  0  0  0  0  0  0
  139.2630   79.1230  219.1080 C   0  0  0  0  0  0  0  0  0  0  0  0
  139.1108   79.2360  218.0245 H   0  0  0  0  0  0  0  0  0  0  0  0
  140.6790   78.8200  219.5320 C   0  0  0  0  0  0  0  0  0  0  0  0
  141.0524   77.9922  218.9112 H   0  0  0  0  0  0  0  0  0  0  0  0
  141.2480   79.7521  219.4002 H   0  0  0  0  0  0  0  0  0  0  0  0
  140.8310   78.4390  220.9400 N   0  0  0  0  0  0  0  0  0  0  0  0
  141.3520   79.3770  221.9040 C   0  0  0  0  0  0  0  0  0  0  0  0
  141.3580   80.7610  221.6460 C   0  0  0  0  0  0  0  0  0  0  0  0
  141.0209   81.1365  220.6686 H   0  0  0  0  0  0  0  0  0  0  0  0
  141.7900   81.6610  222.6250 C   0  0  0  0  0  0  0  0  0  0  0  0
  141.7948   82.7408  222.4153 H   0  0  0  0  0  0  0  0  0  0  0  0
  142.2160   81.1890  223.8710 C   0  0  0  0  0  0  0  0  0  0  0  0
  142.5582   81.8975  224.6398 H   0  0  0  0  0  0  0  0  0  0  0  0
  142.2070   79.8190  224.1390 C   0  0  0  0  0  0  0  0  0  0  0  0
  142.5414   79.4494  225.1196 H   0  0  0  0  0  0  0  0  0  0  0  0
  141.7740   78.9160  223.1640 C   0  0  0  0  0  0  0  0  0  0  0  0
  141.7632   77.8382  223.3834 H   0  0  0  0  0  0  0  0  0  0  0  0
  140.0160   77.3720  221.4300 C   0  0  0  0  0  0  0  0  0  0  0  0
  140.5670   76.1520  221.6570 N   0  0  0  0  0  0  0  0  0  0  0  0
  139.8240   75.1050  222.1050 C   0  0  0  0  0  0  0  0  0  0  0  0
  140.3750   73.9420  222.3120 N   0  0  0  0  0  0  0  0  0  0  0  0
  141.1770   73.2390  221.3490 C   0  0  0  0  0  0  0  0  0  0  0  0
  140.8640   71.9260  220.9640 C   0  0  0  0  0  0  0  0  0  0  0  0
  139.9982   71.4153  221.4108 H   0  0  0  0  0  0  0  0  0  0  0  0
  141.6470   71.2670  220.0170 C   0  0  0  0  0  0  0  0  0  0  0  0
  141.3952   70.2393  219.7165 H   0  0  0  0  0  0  0  0  0  0  0  0
  142.7500   71.9080  219.4490 C   0  0  0  0  0  0  0  0  0  0  0  0
  143.3599   71.3828  218.6992 H   0  0  0  0  0  0  0  0  0  0  0  0
  143.0880   73.2230  219.8290 C   0  0  0  0  0  0  0  0  0  0  0  0
  144.2330   73.9490  219.2100 C   0  0  0  0  0  0  0  0  0  0  0  0
  145.3880   73.7460  219.6830 O   0  0  0  0  0  0  0  0  0  0  0  0
  144.0430   74.8880  218.1110 N   0  0  2  0  0  0  0  0  0  0  0  0
  144.9880   75.2490  217.8510 H   0  0  0  0  0  0  0  0  0  0  0  0
  143.2520   76.0920  218.4810 C   0  0  0  0  0  0  0  0  0  0  0  0
  143.3885   76.8526  217.6982 H   0  0  0  0  0  0  0  0  0  0  0  0
  143.6187   76.4321  219.4608 H   0  0  0  0  0  0  0  0  0  0  0  0
  141.7400   75.8120  218.6330 C   0  0  0  0  0  0  0  0  0  0  0  0
  141.2122   76.7666  218.7752 H   0  0  0  0  0  0  0  0  0  0  0  0
  141.5967   75.1522  219.5014 H   0  0  0  0  0  0  0  0  0  0  0  0
  141.1710   75.1070  217.3930 C   0  0  2  0  0  0  0  0  0  0  0  0
  141.2100   75.7979  216.5379 H   0  0  0  0  0  0  0  0  0  0  0  0
  139.8290   74.7170  217.6340 O   0  0  0  0  0  0  0  0  0  0  0  0
  139.2550   75.4550  218.6950 C   0  0  0  0  0  0  0  0  0  0  0  0
  139.0504   76.4807  218.3544 H   0  0  0  0  0  0  0  0  0  0  0  0
  139.9584   75.4718  219.5406 H   0  0  0  0  0  0  0  0  0  0  0  0
  137.9520   74.8060  219.1470 C   0  0  0  0  0  0  0  0  0  0  0  0
  137.9138   74.7870  220.2462 H   0  0  0  0  0  0  0  0  0  0  0  0
  137.1005   75.3853  218.7605 H   0  0  0  0  0  0  0  0  0  0  0  0
  137.9013   73.7774  218.7605 H   0  0  0  0  0  0  0  0  0  0  0  0
  141.9960   73.8540  217.1020 C   0  0  0  0  0  0  0  0  0  0  0  0
  141.6209   73.3768  216.1846 H   0  0  0  0  0  0  0  0  0  0  0  0
  141.9057   73.1595  217.9502 H   0  0  0  0  0  0  0  0  0  0  0  0
  143.4740   74.2250  216.9130 C   0  0  0  0  0  0  0  0  0  0  0  0
  143.5608   74.9082  216.0553 H   0  0  0  0  0  0  0  0  0  0  0  0
  144.0364   73.2951  216.7428 H   0  0  0  0  0  0  0  0  0  0  0  0
  142.3030   73.8680  220.8050 C   0  0  0  0  0  0  0  0  0  0  0  0
  142.5782   74.8778  221.1435 H   0  0  0  0  0  0  0  0  0  0  0  0
  138.4990   75.2850  222.3600 N   0  0  0  0  0  0  0  0  0  0  0  0
  137.9190   74.4900  222.7140 H   0  0  0  0  0  0  0  0  0  0  0  0
  137.9020   76.4830  222.1200 C   0  0  0  0  0  0  0  0  0  0  0  0
  136.8243   76.6052  222.3033 H   0  0  0  0  0  0  0  0  0  0  0  0
  138.6570   77.5640  221.6390 C   0  0  0  0  0  0  0  0  0  0  0  0
  138.0270   78.7810  221.2130 N   0  0  0  0  0  0  0  0  0  0  0  0
  137.3810   79.6280  222.2210 C   0  0  0  0  0  0  0  0  0  0  0  0
  137.6518   79.2730  223.2263 H   0  0  0  0  0  0  0  0  0  0  0  0
  137.7175   80.6678  222.0964 H   0  0  0  0  0  0  0  0  0  0  0  0
  136.2892   79.5785  222.0964 H   0  0  0  0  0  0  0  0  0  0  0  0
  1  2  1  0
  2  3  1  0
  3  4  2  0
  4  5  1  0
  4  6  1  0
  6  7  1  0
  6  8  1  0
  6  9  1  0
  9 10  1  0
 10 11  2  0
 11 12  1  0
 11 13  1  0
 13 14  1  0
 13 15  2  0
 15 16  1  0
 15 17  1  0
 17 18  1  0
 17 19  2  0
 19 20  1  0
  9 21  1  0
 21 22  2  0
 22 23  1  0
 23 24  2  0
 24 25  1  0
 25 26  2  0
 26 27  1  0
 26 28  1  0
 28 29  1  0
 28 30  2  0
 30 31  1  0
 30 32  1  0
 32 33  1  0
 33 34  2  0
 33 35  1  0
 35 36  1  6
 35 37  1  0
 37 38  1  0
 37 39  1  0
 37 40  1  0
 40 41  1  0
 40 42  1  0
 40 43  1  0
 43 44  1  1
 43 45  1  0
 45 46  1  0
 46 47  1  0
 46 48  1  0
 46 49  1  0
 49 50  1  0
 49 51  1  0
 49 52  1  0
 43 53  1  0
 53 54  1  0
 53 55  1  0
 53 56  1  0
 56 57  1  0
 56 58  1  0
 32 59  2  0
 59 60  1  0
 23 61  1  0
 61 62  1  0
 61 63  1  0
 63 64  1  0
 63 65  2  0
 65 66  1  0
 66 67  1  0
 67 68  1  0
 67 69  1  0
 67 70  1  0
 66  3  1  0
 19 10  1  0
 65 21  1  0
 59 25  1  0
 56 35  1  0
M  CHG  1  35   1
M  END
>  <UniqueID>  (7) 
21

>  <SMILES>  (7) 
CCOC1CC[NH+](C(=O)c2cccc(/N=c3\nc4c(c[nH]3)N(C)C(O)=CCN4c3ccccc3)c2)CC1

>  <Energy>  (7) 
107.97179489479667

>  <Genealogy>  (7) 
CCOC1CC[NH+](C(=O)c2cccc(N=c3nc4c(c[nH]3)N(C)C(=O)CCN4c3ccccc3)c2)CC1 (protonated)
CCOC1CC[NH+](C(=O)c2cccc(N=c3nc4c(c[nH]3)N(C)C(O)=CCN4c3ccccc3)c2)CC1 (tautomer)
CCOC1CC[NH+](C(=O)c2cccc(/N=c3\nc4c(c[nH]3)N(C)C(O)=CCN4c3ccccc3)c2)CC1 (cis-trans isomerization)
CCOC1CC[NH+](C(=O)c2cccc(/N=c3\nc4c(c[nH]3)N(C)C(O)=CCN4c3ccccc3)c2)CC1 (3D coordinates assigned)
CCOC1CC[NH+](C(=O)c2cccc(/N=c3\nc4c(c[nH]3)N(C)C(O)=CCN4c3ccccc3)c2)CC1 (nonaromatic ring conformer: 107.97179489479667 kcal/mol)

>  <smiles>  (7) 
CCOC1CCN(C(=O)c2cccc(N=c3nc4c(c[nH]3)N(C)C(=O)CCN4c3ccccc3)c2)CC1

>  <score_type>  (7) 
oracle

>  <origin>  (7) 
autodockgpu

>  <m_score__min__energy>  (7) 
-7.3200000000000003

>  <m_primary>  (7) 
energy

>  <meeko>  (7) 
{"free_energy": -4.92, "intermolecular_energy": -8.8, "internal_energy": -3.0, "cluster_size": 3, "cluster_id": 5, "rank_in_cluster": 1}

>  <energy>  (7) 
-5.02

>  <cluster_rmsd>  (7) 
1.13

>  <rmsd>  (7) 
271.38

>  <cluster>  (7) 
3

$$$$
FLYFIANCBVDDDY-IGPOTQGWNA-O
     RDKit          3D

 70 74  0  0  0  0  0  0  0  0999 V2000
  136.0770   67.8810  220.2780 H   0  0  0  0  0  0  0  0  0  0  0  0
  136.5030   68.7690  220.0480 O   0  0  0  0  0  0  0  0  0  0  0  0
  137.3300   69.4560  220.9400 C   0  0  0  0  0  0  0  0  0  0  0  0
  138.4400   68.8190  221.3510 C   0  0  0  0  0  0  0  0  0  0  0  0
  138.5572   67.7902  220.9798 H   0  0  0  0  0  0  0  0  0  0  0  0
  139.5480   69.3120  222.2480 C   0  0  0  0  0  0  0  0  0  0  0  0
  139.8360   68.4896  222.9193 H   0  0  0  0  0  0  0  0  0  0  0  0
  140.3625   69.6362  221.5835 H   0  0  0  0  0  0  0  0  0  0  0  0
  139.2020   70.4740  223.0730 N   0  0  0  0  0  0  0  0  0  0  0  0
  139.5850   70.5290  224.4630 C   0  0  0  0  0  0  0  0  0  0  0  0
  138.9850   69.6890  225.4190 C   0  0  0  0  0  0  0  0  0  0  0  0
  138.1637   69.0206  225.1212 H   0  0  0  0  0  0  0  0  0  0  0  0
  139.4270   69.6990  226.7460 C   0  0  0  0  0  0  0  0  0  0  0  0
  138.9514   69.0416  227.4887 H   0  0  0  0  0  0  0  0  0  0  0  0
  140.4730   70.5440  227.1290 C   0  0  0  0  0  0  0  0  0  0  0  0
  140.8181   70.5526  228.1734 H   0  0  0  0  0  0  0  0  0  0  0  0
  141.0800   71.3770  226.1870 C   0  0  0  0  0  0  0  0  0  0  0  0
  141.9036   72.0402  226.4899 H   0  0  0  0  0  0  0  0  0  0  0  0
  140.6420   71.3690  224.8590 C   0  0  0  0  0  0  0  0  0  0  0  0
  141.1267   72.0234  224.1195 H   0  0  0  0  0  0  0  0  0  0  0  0
  138.9590   71.7140  222.4050 C   0  0  0  0  0  0  0  0  0  0  0  0
  139.7460   72.7880  222.6710 N   0  0  0  0  0  0  0  0  0  0  0  0
  139.5380   73.9910  222.0730 C   0  0  0  0  0  0  0  0  0  0  0  0
  140.3030   75.0090  222.3470 N   0  0  0  0  0  0  0  0  0  0  0  0
  141.0870   75.7240  221.3770 C   0  0  0  0  0  0  0  0  0  0  0  0
  141.8750   75.0420  220.4360 C   0  0  0  0  0  0  0  0  0  0  0  0
  141.9077   73.9425  220.4421 H   0  0  0  0  0  0  0  0  0  0  0  0
  142.6160   75.7540  219.4940 C   0  0  0  0  0  0  0  0  0  0  0  0
  143.2290   75.2148  218.7568 H   0  0  0  0  0  0  0  0  0  0  0  0
  142.5820   77.1500  219.4840 C   0  0  0  0  0  0  0  0  0  0  0  0
  143.1659   77.7042  218.7344 H   0  0  0  0  0  0  0  0  0  0  0  0
  141.8060   77.8550  220.4260 C   0  0  0  0  0  0  0  0  0  0  0  0
  141.7160   79.3430  220.4150 C   0  0  0  0  0  0  0  0  0  0  0  0
  141.0400   79.8880  219.4970 O   0  0  0  0  0  0  0  0  0  0  0  0
  142.4020   80.1600  221.4090 N   0  0  2  0  0  0  0  0  0  0  0  0
  143.3820   80.2910  221.0710 H   0  0  0  0  0  0  0  0  0  0  0  0
  142.5300   79.5060  222.7380 C   0  0  0  0  0  0  0  0  0  0  0  0
  143.2784   80.0567  223.3268 H   0  0  0  0  0  0  0  0  0  0  0  0
  142.8273   78.4623  222.5585 H   0  0  0  0  0  0  0  0  0  0  0  0
  141.2080   79.4720  223.5360 C   0  0  0  0  0  0  0  0  0  0  0  0
  141.4120   79.0971  224.5498 H   0  0  0  0  0  0  0  0  0  0  0  0
  140.5035   78.8119  223.0087 H   0  0  0  0  0  0  0  0  0  0  0  0
  140.5760   80.8680  223.6380 C   0  0  2  0  0  0  0  0  0  0  0  0
  141.2222   81.5085  224.2562 H   0  0  0  0  0  0  0  0  0  0  0  0
  139.2890   80.7740  224.2270 O   0  0  0  0  0  0  0  0  0  0  0  0
  138.4500   79.8940  223.5050 C   0  0  0  0  0  0  0  0  0  0  0  0
  138.6806   78.8569  223.7901 H   0  0  0  0  0  0  0  0  0  0  0  0
  138.6241   80.0361  222.4282 H   0  0  0  0  0  0  0  0  0  0  0  0
  136.9860   80.1870  223.8140 C   0  0  0  0  0  0  0  0  0  0  0  0
  136.8400   80.2162  224.9039 H   0  0  0  0  0  0  0  0  0  0  0  0
  136.7071   81.1588  223.3805 H   0  0  0  0  0  0  0  0  0  0  0  0
  136.3546   79.3974  223.3805 H   0  0  0  0  0  0  0  0  0  0  0  0
  140.4260   81.4590  222.2360 C   0  0  0  0  0  0  0  0  0  0  0  0
  140.0219   82.4792  222.3128 H   0  0  0  0  0  0  0  0  0  0  0  0
  139.7411   80.8276  221.6510 H   0  0  0  0  0  0  0  0  0  0  0  0
  141.7900   81.5050  221.5330 C   0  0  0  0  0  0  0  0  0  0  0  0
  142.4662   82.1497  222.1136 H   0  0  0  0  0  0  0  0  0  0  0  0
  141.6337   81.8997  220.5182 H   0  0  0  0  0  0  0  0  0  0  0  0
  141.0820   77.1230  221.3890 C   0  0  0  0  0  0  0  0  0  0  0  0
  140.5065   77.6580  222.1588 H   0  0  0  0  0  0  0  0  0  0  0  0
  138.5340   74.1220  221.1630 N   0  0  0  0  0  0  0  0  0  0  0  0
  138.3700   75.0390  220.6890 H   0  0  0  0  0  0  0  0  0  0  0  0
  137.7060   73.0780  220.8880 C   0  0  0  0  0  0  0  0  0  0  0  0
  136.8810   73.2065  220.1718 H   0  0  0  0  0  0  0  0  0  0  0  0
  137.9010   71.8380  221.5150 C   0  0  0  0  0  0  0  0  0  0  0  0
  136.9450   70.7760  221.3800 N   0  0  0  0  0  0  0  0  0  0  0  0
  135.5200   71.0920  221.5240 C   0  0  0  0  0  0  0  0  0  0  0  0
  135.2632   71.1490  222.5921 H   0  0  0  0  0  0  0  0  0  0  0  0
  135.3085   72.0589  221.0440 H   0  0  0  0  0  0  0  0  0  0  0  0
  134.9196   70.3052  221.0440 H   0  0  0  0  0  0  0  0  0  0  0  0
  1  2  1  0
  2  3  1  0
  3  4  2  0
  4  5  1  0
  4  6  1  0
  6  7  1  0
  6  8  1  0
  6  9  1  0
  9 10  1  0
 10 11  2  0
 11 12  1  0
 11 13  1  0
 13 14  1  0
 13 15  2  0
 15 16  1  0
 15 17  1  0
 17 18  1  0
 17 19  2  0
 19 20  1  0
  9 21  1  0
 21 22  2  0
 22 23  1  0
 23 24  2  0
 24 25  1  0
 25 26  2  0
 26 27  1  0
 26 28  1  0
 28 29  1  0
 28 30  2  0
 30 31  1  0
 30 32  1  0
 32 33  1  0
 33 34  2  0
 33 35  1  0
 35 36  1  6
 35 37  1  0
 37 38  1  0
 37 39  1  0
 37 40  1  0
 40 41  1  0
 40 42  1  0
 40 43  1  0
 43 44  1  6
 43 45  1  0
 45 46  1  0
 46 47  1  0
 46 48  1  0
 46 49  1  0
 49 50  1  0
 49 51  1  0
 49 52  1  0
 43 53  1  0
 53 54  1  0
 53 55  1  0
 53 56  1  0
 56 57  1  0
 56 58  1  0
 32 59  2  0
 59 60  1  0
 23 61  1  0
 61 62  1  0
 61 63  1  0
 63 64  1  0
 63 65  2  0
 65 66  1  0
 66 67  1  0
 67 68  1  0
 67 69  1  0
 67 70  1  0
 66  3  1  0
 19 10  1  0
 65 21  1  0
 59 25  1  0
 56 35  1  0
M  CHG  1  35   1
M  END
>  <UniqueID>  (8) 
21

>  <SMILES>  (8) 
CCOC1CC[NH+](C(=O)c2cccc(/N=c3\nc4c(c[nH]3)N(C)C(O)=CCN4c3ccccc3)c2)CC1

>  <Energy>  (8) 
107.97179489479667

>  <Genealogy>  (8) 
CCOC1CC[NH+](C(=O)c2cccc(N=c3nc4c(c[nH]3)N(C)C(=O)CCN4c3ccccc3)c2)CC1 (protonated)
CCOC1CC[NH+](C(=O)c2cccc(N=c3nc4c(c[nH]3)N(C)C(O)=CCN4c3ccccc3)c2)CC1 (tautomer)
CCOC1CC[NH+](C(=O)c2cccc(/N=c3\nc4c(c[nH]3)N(C)C(O)=CCN4c3ccccc3)c2)CC1 (cis-trans isomerization)
CCOC1CC[NH+](C(=O)c2cccc(/N=c3\nc4c(c[nH]3)N(C)C(O)=CCN4c3ccccc3)c2)CC1 (3D coordinates assigned)
CCOC1CC[NH+](C(=O)c2cccc(/N=c3\nc4c(c[nH]3)N(C)C(O)=CCN4c3ccccc3)c2)CC1 (nonaromatic ring conformer: 107.97179489479667 kcal/mol)

>  <smiles>  (8) 
CCOC1CCN(C(=O)c2cccc(N=c3nc4c(c[nH]3)N(C)C(=O)CCN4c3ccccc3)c2)CC1

>  <score_type>  (8) 
oracle

>  <origin>  (8) 
autodockgpu

>  <m_score__min__energy>  (8) 
-7.3200000000000003

>  <m_primary>  (8) 
energy

>  <meeko>  (8) 
{"free_energy": -6.1, "intermolecular_energy": -9.98, "internal_energy": -1.46, "cluster_size": 4, "cluster_id": 1, "rank_in_cluster": 4}

>  <energy>  (8) 
-4.96

>  <cluster_rmsd>  (8) 
0.0

>  <rmsd>  (8) 
271.21

>  <cluster>  (8) 
4

$$$$
FLYFIANCBVDDDY-IGPOTQGWNA-O
     RDKit          3D

 70 74  0  0  0  0  0  0  0  0999 V2000
  138.8690   73.6200  223.1050 H   0  0  0  0  0  0  0  0  0  0  0  0
  139.3120   73.9220  222.2470 O   0  0  0  0  0  0  0  0  0  0  0  0
  139.4870   75.2710  221.9300 C   0  0  0  0  0  0  0  0  0  0  0  0
  140.7050   75.6350  221.4900 C   0  0  0  0  0  0  0  0  0  0  0  0
  141.3554   74.8083  221.1683 H   0  0  0  0  0  0  0  0  0  0  0  0
  141.3080   77.0130  221.3740 C   0  0  0  0  0  0  0  0  0  0  0  0
  142.2513   77.0222  221.9397 H   0  0  0  0  0  0  0  0  0  0  0  0
  141.4440   77.2013  220.2988 H   0  0  0  0  0  0  0  0  0  0  0  0
  140.4630   78.1000  221.8790 N   0  0  0  0  0  0  0  0  0  0  0  0
  141.0410   79.2080  222.5990 C   0  0  0  0  0  0  0  0  0  0  0  0
  142.4330   79.4070  222.6360 C   0  0  0  0  0  0  0  0  0  0  0  0
  143.1030   78.6736  222.1636 H   0  0  0  0  0  0  0  0  0  0  0  0
  142.9700   80.5320  223.2700 C   0  0  0  0  0  0  0  0  0  0  0  0
  144.0597   80.6796  223.2973 H   0  0  0  0  0  0  0  0  0  0  0  0
  142.1230   81.4690  223.8690 C   0  0  0  0  0  0  0  0  0  0  0  0
  142.5466   82.3525  224.3690 H   0  0  0  0  0  0  0  0  0  0  0  0
  140.7400   81.2840  223.8330 C   0  0  0  0  0  0  0  0  0  0  0  0
  140.0748   82.0224  224.3043 H   0  0  0  0  0  0  0  0  0  0  0  0
  140.1990   80.1620  223.1990 C   0  0  0  0  0  0  0  0  0  0  0  0
  139.1081   80.0241  223.1690 H   0  0  0  0  0  0  0  0  0  0  0  0
  139.2050   78.3160  221.2350 C   0  0  0  0  0  0  0  0  0  0  0  0
  138.9620   79.4940  220.6070 N   0  0  0  0  0  0  0  0  0  0  0  0
  137.7720   79.7480  219.9990 C   0  0  0  0  0  0  0  0  0  0  0  0
  137.5610   80.8880  219.4050 N   0  0  0  0  0  0  0  0  0  0  0  0
  138.2620   81.3380  218.2340 C   0  0  0  0  0  0  0  0  0  0  0  0
  137.8580   82.4930  217.5450 C   0  0  0  0  0  0  0  0  0  0  0  0
  136.9838   83.0620  217.8943 H   0  0  0  0  0  0  0  0  0  0  0  0
  138.5610   82.9210  216.4200 C   0  0  0  0  0  0  0  0  0  0  0  0
  138.2425   83.8288  215.8867 H   0  0  0  0  0  0  0  0  0  0  0  0
  139.6690   82.2000  215.9680 C   0  0  0  0  0  0  0  0  0  0  0  0
  140.2210   82.5463  215.0818 H   0  0  0  0  0  0  0  0  0  0  0  0
  140.0850   81.0320  216.6390 C   0  0  0  0  0  0  0  0  0  0  0  0
  141.2880   80.2650  216.2070 C   0  0  0  0  0  0  0  0  0  0  0  0
  141.1880   79.5390  215.1760 O   0  0  0  0  0  0  0  0  0  0  0  0
  142.5400   80.3170  216.9520 N   0  0  2  0  0  0  0  0  0  0  0  0
  143.3000   80.0430  216.2900 H   0  0  0  0  0  0  0  0  0  0  0  0
  142.6160   79.3330  218.0650 C   0  0  0  0  0  0  0  0  0  0  0  0
  143.6648   79.2506  218.3865 H   0  0  0  0  0  0  0  0  0  0  0  0
  142.2219   78.3798  217.6829 H   0  0  0  0  0  0  0  0  0  0  0  0
  141.7580   79.7230  219.2890 C   0  0  0  0  0  0  0  0  0  0  0  0
  141.9694   79.0232  220.1110 H   0  0  0  0  0  0  0  0  0  0  0  0
  140.6987   79.6758  218.9964 H   0  0  0  0  0  0  0  0  0  0  0  0
  142.0640   81.1530  219.7600 C   0  0  2  0  0  0  0  0  0  0  0  0
  143.0896   81.1887  220.1560 H   0  0  0  0  0  0  0  0  0  0  0  0
  141.1470   81.5340  220.7720 O   0  0  0  0  0  0  0  0  0  0  0  0
  140.7150   82.8710  220.6050 C   0  0  0  0  0  0  0  0  0  0  0  0
  140.6642   83.1045  219.5313 H   0  0  0  0  0  0  0  0  0  0  0  0
  141.4294   83.5428  221.1033 H   0  0  0  0  0  0  0  0  0  0  0  0
  139.3370   83.0630  221.2270 C   0  0  0  0  0  0  0  0  0  0  0  0
  139.4247   83.0508  222.3234 H   0  0  0  0  0  0  0  0  0  0  0  0
  138.9198   84.0280  220.9033 H   0  0  0  0  0  0  0  0  0  0  0  0
  138.6719   82.2489  220.9033 H   0  0  0  0  0  0  0  0  0  0  0  0
  141.9160   82.1150  218.5810 C   0  0  0  0  0  0  0  0  0  0  0  0
  142.1855   83.1311  218.9049 H   0  0  0  0  0  0  0  0  0  0  0  0
  140.8733   82.0970  218.2312 H   0  0  0  0  0  0  0  0  0  0  0  0
  142.8380   81.6880  217.4310 C   0  0  0  0  0  0  0  0  0  0  0  0
  143.8801   81.7218  217.7816 H   0  0  0  0  0  0  0  0  0  0  0  0
  142.6742   82.3810  216.5926 H   0  0  0  0  0  0  0  0  0  0  0  0
  139.3510   80.5970  217.7600 C   0  0  0  0  0  0  0  0  0  0  0  0
  139.6368   79.6645  218.2686 H   0  0  0  0  0  0  0  0  0  0  0  0
  136.8050   78.7900  219.9940 N   0  0  0  0  0  0  0  0  0  0  0  0
  135.8900   78.9690  219.5210 H   0  0  0  0  0  0  0  0  0  0  0  0
  136.9970   77.6060  220.6360 C   0  0  0  0  0  0  0  0  0  0  0  0
  136.1955   76.8527  220.6485 H   0  0  0  0  0  0  0  0  0  0  0  0
  138.2140   77.3430  221.2820 C   0  0  0  0  0  0  0  0  0  0  0  0
  138.3830   76.1830  222.1110 N   0  0  0  0  0  0  0  0  0  0  0  0
  137.3110   75.8280  223.0470 C   0  0  0  0  0  0  0  0  0  0  0  0
  137.6713   75.9473  224.0794 H   0  0  0  0  0  0  0  0  0  0  0  0
  136.4465   76.4878  222.8818 H   0  0  0  0  0  0  0  0  0  0  0  0
  137.0112   74.7826  222.8818 H   0  0  0  0  0  0  0  0  0  0  0  0
  1  2  1  0
  2  3  1  0
  3  4  2  0
  4  5  1  0
  4  6  1  0
  6  7  1  0
  6  8  1  0
  6  9  1  0
  9 10  1  0
 10 11  2  0
 11 12  1  0
 11 13  1  0
 13 14  1  0
 13 15  2  0
 15 16  1  0
 15 17  1  0
 17 18  1  0
 17 19  2  0
 19 20  1  0
  9 21  1  0
 21 22  2  0
 22 23  1  0
 23 24  2  0
 24 25  1  0
 25 26  2  0
 26 27  1  0
 26 28  1  0
 28 29  1  0
 28 30  2  0
 30 31  1  0
 30 32  1  0
 32 33  1  0
 33 34  2  0
 33 35  1  0
 35 36  1  6
 35 37  1  0
 37 38  1  0
 37 39  1  0
 37 40  1  0
 40 41  1  0
 40 42  1  0
 40 43  1  0
 43 44  1  6
 43 45  1  0
 45 46  1  0
 46 47  1  0
 46 48  1  0
 46 49  1  0
 49 50  1  0
 49 51  1  0
 49 52  1  0
 43 53  1  0
 53 54  1  0
 53 55  1  0
 53 56  1  0
 56 57  1  0
 56 58  1  0
 32 59  2  0
 59 60  1  0
 23 61  1  0
 61 62  1  0
 61 63  1  0
 63 64  1  0
 63 65  2  0
 65 66  1  0
 66 67  1  0
 67 68  1  0
 67 69  1  0
 67 70  1  0
 66  3  1  0
 19 10  1  0
 65 21  1  0
 59 25  1  0
 56 35  1  0
M  CHG  1  35   1
M  END
>  <UniqueID>  (9) 
21

>  <SMILES>  (9) 
CCOC1CC[NH+](C(=O)c2cccc(/N=c3\nc4c(c[nH]3)N(C)C(O)=CCN4c3ccccc3)c2)CC1

>  <Energy>  (9) 
107.97179489479667

>  <Genealogy>  (9) 
CCOC1CC[NH+](C(=O)c2cccc(N=c3nc4c(c[nH]3)N(C)C(=O)CCN4c3ccccc3)c2)CC1 (protonated)
CCOC1CC[NH+](C(=O)c2cccc(N=c3nc4c(c[nH]3)N(C)C(O)=CCN4c3ccccc3)c2)CC1 (tautomer)
CCOC1CC[NH+](C(=O)c2cccc(/N=c3\nc4c(c[nH]3)N(C)C(O)=CCN4c3ccccc3)c2)CC1 (cis-trans isomerization)
CCOC1CC[NH+](C(=O)c2cccc(/N=c3\nc4c(c[nH]3)N(C)C(O)=CCN4c3ccccc3)c2)CC1 (3D coordinates assigned)
CCOC1CC[NH+](C(=O)c2cccc(/N=c3\nc4c(c[nH]3)N(C)C(O)=CCN4c3ccccc3)c2)CC1 (nonaromatic ring conformer: 107.97179489479667 kcal/mol)

>  <smiles>  (9) 
CCOC1CCN(C(=O)c2cccc(N=c3nc4c(c[nH]3)N(C)C(=O)CCN4c3ccccc3)c2)CC1

>  <score_type>  (9) 
oracle

>  <origin>  (9) 
autodockgpu

>  <m_score__min__energy>  (9) 
-7.3200000000000003

>  <m_primary>  (9) 
energy

>  <meeko>  (9) 
{"free_energy": -4.96, "intermolecular_energy": -8.84, "internal_energy": -3.17, "cluster_size": 2, "cluster_id": 4, "rank_in_cluster": 1}

>  <energy>  (9) 
-4.51

>  <cluster_rmsd>  (9) 
1.57

>  <rmsd>  (9) 
271.1

>  <cluster>  (9) 
4

$$$$
FLYFIANCBVDDDY-IGPOTQGWNA-O
     RDKit          3D

 70 74  0  0  0  0  0  0  0  0999 V2000
  145.6060   71.3770  218.3940 H   0  0  0  0  0  0  0  0  0  0  0  0
  145.9050   72.3360  218.5170 O   0  0  0  0  0  0  0  0  0  0  0  0
  145.0000   73.3860  218.6860 C   0  0  0  0  0  0  0  0  0  0  0  0
  144.8840   73.8890  219.9280 C   0  0  0  0  0  0  0  0  0  0  0  0
  145.6921   73.6176  220.6232 H   0  0  0  0  0  0  0  0  0  0  0  0
  143.8050   74.7720  220.5050 C   0  0  0  0  0  0  0  0  0  0  0  0
  143.3931   74.2720  221.3940 H   0  0  0  0  0  0  0  0  0  0  0  0
  144.2832   75.7366  220.7308 H   0  0  0  0  0  0  0  0  0  0  0  0
  142.6960   75.0660  219.5930 N   0  0  0  0  0  0  0  0  0  0  0  0
  141.3380   75.1200  220.0780 C   0  0  0  0  0  0  0  0  0  0  0  0
  140.2570   75.3180  219.2000 C   0  0  0  0  0  0  0  0  0  0  0  0
  140.4461   75.4998  218.1317 H   0  0  0  0  0  0  0  0  0  0  0  0
  138.9430   75.2850  219.6780 C   0  0  0  0  0  0  0  0  0  0  0  0
  138.1024   75.4424  218.9862 H   0  0  0  0  0  0  0  0  0  0  0  0
  138.6970   75.0520  221.0350 C   0  0  0  0  0  0  0  0  0  0  0  0
  137.6633   75.0303  221.4104 H   0  0  0  0  0  0  0  0  0  0  0  0
  139.7620   74.8470  221.9130 C   0  0  0  0  0  0  0  0  0  0  0  0
  139.5667   74.6608  222.9794 H   0  0  0  0  0  0  0  0  0  0  0  0
  141.0770   74.8780  221.4390 C   0  0  0  0  0  0  0  0  0  0  0  0
  141.9128   74.7121  222.1347 H   0  0  0  0  0  0  0  0  0  0  0  0
  142.9960   75.7790  218.3910 C   0  0  0  0  0  0  0  0  0  0  0  0
  142.4430   77.0010  218.1760 N   0  0  0  0  0  0  0  0  0  0  0  0
  142.6870   77.7050  217.0390 C   0  0  0  0  0  0  0  0  0  0  0  0
  142.1420   78.8740  216.8530 N   0  0  0  0  0  0  0  0  0  0  0  0
  141.9010   79.8340  217.8940 C   0  0  0  0  0  0  0  0  0  0  0  0
  141.4050   81.1140  217.6010 C   0  0  0  0  0  0  0  0  0  0  0  0
  141.2050   81.3983  216.5574 H   0  0  0  0  0  0  0  0  0  0  0  0
  141.1650   82.0260  218.6270 C   0  0  0  0  0  0  0  0  0  0  0  0
  140.7737   83.0266  218.3911 H   0  0  0  0  0  0  0  0  0  0  0  0
  141.4200   81.6730  219.9540 C   0  0  0  0  0  0  0  0  0  0  0  0
  141.2230   82.3968  220.7585 H   0  0  0  0  0  0  0  0  0  0  0  0
  141.9280   80.3960  220.2710 C   0  0  0  0  0  0  0  0  0  0  0  0
  142.1710   79.9750  221.6790 C   0  0  0  0  0  0  0  0  0  0  0  0
  142.7800   80.7780  222.4410 O   0  0  0  0  0  0  0  0  0  0  0  0
  141.7490   78.6690  222.1730 N   0  0  2  0  0  0  0  0  0  0  0  0
  142.5550   78.0180  222.0410 H   0  0  0  0  0  0  0  0  0  0  0  0
  140.6300   78.0680  221.3980 C   0  0  0  0  0  0  0  0  0  0  0  0
  140.5629   77.0002  221.6535 H   0  0  0  0  0  0  0  0  0  0  0  0
  140.8507   78.2274  220.3322 H   0  0  0  0  0  0  0  0  0  0  0  0
  139.2620   78.7270  221.6840 C   0  0  0  0  0  0  0  0  0  0  0  0
  138.4741   78.1473  221.1808 H   0  0  0  0  0  0  0  0  0  0  0  0
  139.2913   79.7596  221.3061 H   0  0  0  0  0  0  0  0  0  0  0  0
  138.9620   78.7740  223.1900 C   0  0  2  0  0  0  0  0  0  0  0  0
  138.8238   77.7472  223.5596 H   0  0  0  0  0  0  0  0  0  0  0  0
  137.7860   79.5290  223.4250 O   0  0  0  0  0  0  0  0  0  0  0  0
  138.0880   80.8360  223.8730 C   0  0  0  0  0  0  0  0  0  0  0  0
  139.0874   80.8402  224.3325 H   0  0  0  0  0  0  0  0  0  0  0  0
  137.3327   81.1448  224.6107 H   0  0  0  0  0  0  0  0  0  0  0  0
  138.0680   81.8140  222.7040 C   0  0  0  0  0  0  0  0  0  0  0  0
  138.0469   82.8445  223.0883 H   0  0  0  0  0  0  0  0  0  0  0  0
  138.9693   81.6700  222.0900 H   0  0  0  0  0  0  0  0  0  0  0  0
  137.1734   81.6333  222.0900 H   0  0  0  0  0  0  0  0  0  0  0  0
  140.1260   79.4480  223.9160 C   0  0  0  0  0  0  0  0  0  0  0  0
  139.9354   79.4346  224.9993 H   0  0  0  0  0  0  0  0  0  0  0  0
  140.2163   80.4862  223.5638 H   0  0  0  0  0  0  0  0  0  0  0  0
  141.4360   78.7030  223.6220 C   0  0  0  0  0  0  0  0  0  0  0  0
  141.3459   77.6700  223.9891 H   0  0  0  0  0  0  0  0  0  0  0  0
  142.2506   79.2395  224.1305 H   0  0  0  0  0  0  0  0  0  0  0  0
  142.1900   79.4940  219.2210 C   0  0  0  0  0  0  0  0  0  0  0  0
  142.6272   78.5102  219.4466 H   0  0  0  0  0  0  0  0  0  0  0  0
  143.5260   77.1890  216.1000 N   0  0  0  0  0  0  0  0  0  0  0  0
  143.7290   77.7250  215.2250 H   0  0  0  0  0  0  0  0  0  0  0  0
  144.0790   75.9570  216.2630 C   0  0  0  0  0  0  0  0  0  0  0  0
  144.7325   75.5413  215.4819 H   0  0  0  0  0  0  0  0  0  0  0  0
  143.8180   75.2150  217.4250 C   0  0  0  0  0  0  0  0  0  0  0  0
  144.2420   73.8490  217.5480 N   0  0  0  0  0  0  0  0  0  0  0  0
  144.0480   72.9490  216.4060 C   0  0  0  0  0  0  0  0  0  0  0  0
  143.8294   71.9348  216.7715 H   0  0  0  0  0  0  0  0  0  0  0  0
  143.2066   73.3079  215.7951 H   0  0  0  0  0  0  0  0  0  0  0  0
  144.9626   72.9294  215.7951 H   0  0  0  0  0  0  0  0  0  0  0  0
  1  2  1  0
  2  3  1  0
  3  4  2  0
  4  5  1  0
  4  6  1  0
  6  7  1  0
  6  8  1  0
  6  9  1  0
  9 10  1  0
 10 11  2  0
 11 12  1  0
 11 13  1  0
 13 14  1  0
 13 15  2  0
 15 16  1  0
 15 17  1  0
 17 18  1  0
 17 19  2  0
 19 20  1  0
  9 21  1  0
 21 22  2  0
 22 23  1  0
 23 24  2  0
 24 25  1  0
 25 26  2  0
 26 27  1  0
 26 28  1  0
 28 29  1  0
 28 30  2  0
 30 31  1  0
 30 32  1  0
 32 33  1  0
 33 34  2  0
 33 35  1  0
 35 36  1  1
 35 37  1  0
 37 38  1  0
 37 39  1  0
 37 40  1  0
 40 41  1  0
 40 42  1  0
 40 43  1  0
 43 44  1  6
 43 45  1  0
 45 46  1  0
 46 47  1  0
 46 48  1  0
 46 49  1  0
 49 50  1  0
 49 51  1  0
 49 52  1  0
 43 53  1  0
 53 54  1  0
 53 55  1  0
 53 56  1  0
 56 57  1  0
 56 58  1  0
 32 59  2  0
 59 60  1  0
 23 61  1  0
 61 62  1  0
 61 63  1  0
 63 64  1  0
 63 65  2  0
 65 66  1  0
 66 67  1  0
 67 68  1  0
 67 69  1  0
 67 70  1  0
 66  3  1  0
 19 10  1  0
 65 21  1  0
 59 25  1  0
 56 35  1  0
M  CHG  1  35   1
M  END
>  <UniqueID>  (10) 
21

>  <SMILES>  (10) 
CCOC1CC[NH+](C(=O)c2cccc(/N=c3\nc4c(c[nH]3)N(C)C(O)=CCN4c3ccccc3)c2)CC1

>  <Energy>  (10) 
107.97179489479667

>  <Genealogy>  (10) 
CCOC1CC[NH+](C(=O)c2cccc(N=c3nc4c(c[nH]3)N(C)C(=O)CCN4c3ccccc3)c2)CC1 (protonated)
CCOC1CC[NH+](C(=O)c2cccc(N=c3nc4c(c[nH]3)N(C)C(O)=CCN4c3ccccc3)c2)CC1 (tautomer)
CCOC1CC[NH+](C(=O)c2cccc(/N=c3\nc4c(c[nH]3)N(C)C(O)=CCN4c3ccccc3)c2)CC1 (cis-trans isomerization)
CCOC1CC[NH+](C(=O)c2cccc(/N=c3\nc4c(c[nH]3)N(C)C(O)=CCN4c3ccccc3)c2)CC1 (3D coordinates assigned)
CCOC1CC[NH+](C(=O)c2cccc(/N=c3\nc4c(c[nH]3)N(C)C(O)=CCN4c3ccccc3)c2)CC1 (nonaromatic ring conformer: 107.97179489479667 kcal/mol)

>  <smiles>  (10) 
CCOC1CCN(C(=O)c2cccc(N=c3nc4c(c[nH]3)N(C)C(=O)CCN4c3ccccc3)c2)CC1

>  <score_type>  (10) 
oracle

>  <origin>  (10) 
autodockgpu

>  <m_score__min__energy>  (10) 
-7.3200000000000003

>  <m_primary>  (10) 
energy

>  <meeko>  (10) 
{"free_energy": -5.02, "intermolecular_energy": -8.9, "internal_energy": -2.39, "cluster_size": 2, "cluster_id": 3, "rank_in_cluster": 2}

>  <energy>  (10) 
-4.92

>  <cluster_rmsd>  (10) 
0.0

>  <rmsd>  (10) 
270.91

>  <cluster>  (10) 
5

$$$$
FLYFIANCBVDDDY-IGPOTQGWNA-O
     RDKit          3D

 70 74  0  0  0  0  0  0  0  0999 V2000
  144.3230   71.0940  221.6020 H   0  0  0  0  0  0  0  0  0  0  0  0
  143.5350   71.2740  220.9940 O   0  0  0  0  0  0  0  0  0  0  0  0
  143.2340   72.5530  220.5200 C   0  0  0  0  0  0  0  0  0  0  0  0
  144.2660   73.3990  220.3620 C   0  0  0  0  0  0  0  0  0  0  0  0
  145.2625   72.9334  220.3752 H   0  0  0  0  0  0  0  0  0  0  0  0
  144.2550   74.8960  220.1690 C   0  0  0  0  0  0  0  0  0  0  0  0
  144.5085   75.3667  221.1304 H   0  0  0  0  0  0  0  0  0  0  0  0
  144.9846   75.1107  219.3743 H   0  0  0  0  0  0  0  0  0  0  0  0
  142.9750   75.4490  219.7140 N   0  0  0  0  0  0  0  0  0  0  0  0
  142.7110   75.6330  218.3080 C   0  0  0  0  0  0  0  0  0  0  0  0
  141.6640   74.9470  217.6670 C   0  0  0  0  0  0  0  0  0  0  0  0
  141.0721   74.2072  218.2259 H   0  0  0  0  0  0  0  0  0  0  0  0
  141.3710   75.2000  216.3230 C   0  0  0  0  0  0  0  0  0  0  0  0
  140.5524   74.6576  215.8274 H   0  0  0  0  0  0  0  0  0  0  0  0
  142.1180   76.1420  215.6090 C   0  0  0  0  0  0  0  0  0  0  0  0
  141.8890   76.3377  214.5510 H   0  0  0  0  0  0  0  0  0  0  0  0
  143.1540   76.8340  216.2380 C   0  0  0  0  0  0  0  0  0  0  0  0
  143.7389   77.5767  215.6756 H   0  0  0  0  0  0  0  0  0  0  0  0
  143.4500   76.5850  217.5820 C   0  0  0  0  0  0  0  0  0  0  0  0
  144.2648   77.1363  218.0740 H   0  0  0  0  0  0  0  0  0  0  0  0
  141.8500   75.3200  220.5860 C   0  0  0  0  0  0  0  0  0  0  0  0
  141.3850   76.4070  221.2520 N   0  0  0  0  0  0  0  0  0  0  0  0
  140.3290   76.3250  222.1050 C   0  0  0  0  0  0  0  0  0  0  0  0
  139.9030   77.3820  222.7370 N   0  0  0  0  0  0  0  0  0  0  0  0
  140.5540   78.6630  222.7110 C   0  0  0  0  0  0  0  0  0  0  0  0
  141.4880   79.0230  223.6950 C   0  0  0  0  0  0  0  0  0  0  0  0
  141.7222   78.3231  224.5107 H   0  0  0  0  0  0  0  0  0  0  0  0
  142.1200   80.2650  223.6420 C   0  0  0  0  0  0  0  0  0  0  0  0
  142.8549   80.5400  224.4129 H   0  0  0  0  0  0  0  0  0  0  0  0
  141.8220   81.1610  222.6120 C   0  0  0  0  0  0  0  0  0  0  0  0
  142.3271   82.1375  222.5754 H   0  0  0  0  0  0  0  0  0  0  0  0
  140.8800   80.8240  221.6200 C   0  0  0  0  0  0  0  0  0  0  0  0
  140.5730   81.7400  220.4850 C   0  0  0  0  0  0  0  0  0  0  0  0
  139.6260   82.5650  220.6300 O   0  0  0  0  0  0  0  0  0  0  0  0
  141.3130   81.6820  219.2300 N   0  0  2  0  0  0  0  0  0  0  0  0
  141.9070   82.5400  219.1870 H   0  0  0  0  0  0  0  0  0  0  0  0
  140.4480   81.7420  218.0210 C   0  0  0  0  0  0  0  0  0  0  0  0
  141.0813   81.9670  217.1502 H   0  0  0  0  0  0  0  0  0  0  0  0
  139.6939   82.5225  218.2003 H   0  0  0  0  0  0  0  0  0  0  0  0
  139.6860   80.4280  217.7450 C   0  0  0  0  0  0  0  0  0  0  0  0
  139.1786   80.5069  216.7722 H   0  0  0  0  0  0  0  0  0  0  0  0
  138.9584   80.2748  218.5556 H   0  0  0  0  0  0  0  0  0  0  0  0
  140.6350   79.2210  217.7160 C   0  0  2  0  0  0  0  0  0  0  0  0
  141.2995   79.3090  216.8438 H   0  0  0  0  0  0  0  0  0  0  0  0
  139.8870   78.0200  217.6280 O   0  0  0  0  0  0  0  0  0  0  0  0
  139.4190   77.6040  218.8960 C   0  0  0  0  0  0  0  0  0  0  0  0
  138.6530   78.3099  219.2495 H   0  0  0  0  0  0  0  0  0  0  0  0
  140.2644   77.5814  219.5994 H   0  0  0  0  0  0  0  0  0  0  0  0
  138.8130   76.2090  218.8050 C   0  0  0  0  0  0  0  0  0  0  0  0
  138.6425   75.8165  219.8183 H   0  0  0  0  0  0  0  0  0  0  0  0
  137.8557   76.2596  218.2655 H   0  0  0  0  0  0  0  0  0  0  0  0
  139.5033   75.5438  218.2655 H   0  0  0  0  0  0  0  0  0  0  0  0
  141.4530   79.1910  219.0070 C   0  0  0  0  0  0  0  0  0  0  0  0
  142.1697   78.3576  218.9638 H   0  0  0  0  0  0  0  0  0  0  0  0
  140.7720   79.0568  219.8604 H   0  0  0  0  0  0  0  0  0  0  0  0
  142.2190   80.5100  219.1800 C   0  0  0  0  0  0  0  0  0  0  0  0
  142.9096   80.6322  218.3326 H   0  0  0  0  0  0  0  0  0  0  0  0
  142.7617   80.4621  220.1356 H   0  0  0  0  0  0  0  0  0  0  0  0
  140.2310   79.5760  221.6990 C   0  0  0  0  0  0  0  0  0  0  0  0
  139.4616   79.3155  220.9573 H   0  0  0  0  0  0  0  0  0  0  0  0
  139.7020   75.1300  222.2800 N   0  0  0  0  0  0  0  0  0  0  0  0
  138.8830   75.0560  222.9260 H   0  0  0  0  0  0  0  0  0  0  0  0
  140.1520   74.0100  221.6530 C   0  0  0  0  0  0  0  0  0  0  0  0
  139.6518   73.0457  221.8259 H   0  0  0  0  0  0  0  0  0  0  0  0
  141.2530   74.0820  220.7860 C   0  0  0  0  0  0  0  0  0  0  0  0
  141.8570   72.8960  220.2490 N   0  0  0  0  0  0  0  0  0  0  0  0
  141.1070   72.1100  219.2640 C   0  0  0  0  0  0  0  0  0  0  0  0
  140.4386   71.4095  219.7861 H   0  0  0  0  0  0  0  0  0  0  0  0
  140.5101   72.7855  218.6336 H   0  0  0  0  0  0  0  0  0  0  0  0
  141.8097   71.5454  218.6336 H   0  0  0  0  0  0  0  0  0  0  0  0
  1  2  1  0
  2  3  1  0
  3  4  2  0
  4  5  1  0
  4  6  1  0
  6  7  1  0
  6  8  1  0
  6  9  1  0
  9 10  1  0
 10 11  2  0
 11 12  1  0
 11 13  1  0
 13 14  1  0
 13 15  2  0
 15 16  1  0
 15 17  1  0
 17 18  1  0
 17 19  2  0
 19 20  1  0
  9 21  1  0
 21 22  2  0
 22 23  1  0
 23 24  2  0
 24 25  1  0
 25 26  2  0
 26 27  1  0
 26 28  1  0
 28 29  1  0
 28 30  2  0
 30 31  1  0
 30 32  1  0
 32 33  1  0
 33 34  2  0
 33 35  1  0
 35 36  1  6
 35 37  1  0
 37 38  1  0
 37 39  1  0
 37 40  1  0
 40 41  1  0
 40 42  1  0
 40 43  1  0
 43 44  1  1
 43 45  1  0
 45 46  1  0
 46 47  1  0
 46 48  1  0
 46 49  1  0
 49 50  1  0
 49 51  1  0
 49 52  1  0
 43 53  1  0
 53 54  1  0
 53 55  1  0
 53 56  1  0
 56 57  1  0
 56 58  1  0
 32 59  2  0
 59 60  1  0
 23 61  1  0
 61 62  1  0
 61 63  1  0
 63 64  1  0
 63 65  2  0
 65 66  1  0
 66 67  1  0
 67 68  1  0
 67 69  1  0
 67 70  1  0
 66  3  1  0
 19 10  1  0
 65 21  1  0
 59 25  1  0
 56 35  1  0
M  CHG  1  35   1
M  END
>  <UniqueID>  (11) 
21

>  <SMILES>  (11) 
CCOC1CC[NH+](C(=O)c2cccc(/N=c3\nc4c(c[nH]3)N(C)C(O)=CCN4c3ccccc3)c2)CC1

>  <Energy>  (11) 
107.97179489479667

>  <Genealogy>  (11) 
CCOC1CC[NH+](C(=O)c2cccc(N=c3nc4c(c[nH]3)N(C)C(=O)CCN4c3ccccc3)c2)CC1 (protonated)
CCOC1CC[NH+](C(=O)c2cccc(N=c3nc4c(c[nH]3)N(C)C(O)=CCN4c3ccccc3)c2)CC1 (tautomer)
CCOC1CC[NH+](C(=O)c2cccc(/N=c3\nc4c(c[nH]3)N(C)C(O)=CCN4c3ccccc3)c2)CC1 (cis-trans isomerization)
CCOC1CC[NH+](C(=O)c2cccc(/N=c3\nc4c(c[nH]3)N(C)C(O)=CCN4c3ccccc3)c2)CC1 (3D coordinates assigned)
CCOC1CC[NH+](C(=O)c2cccc(/N=c3\nc4c(c[nH]3)N(C)C(O)=CCN4c3ccccc3)c2)CC1 (nonaromatic ring conformer: 107.97179489479667 kcal/mol)

>  <smiles>  (11) 
CCOC1CCN(C(=O)c2cccc(N=c3nc4c(c[nH]3)N(C)C(=O)CCN4c3ccccc3)c2)CC1

>  <score_type>  (11) 
oracle

>  <origin>  (11) 
autodockgpu

>  <m_score__min__energy>  (11) 
-7.3200000000000003

>  <m_primary>  (11) 
energy

>  <meeko>  (11) 
{"free_energy": -4.27, "intermolecular_energy": -8.14, "internal_energy": -3.39, "cluster_size": 4, "cluster_id": 6, "rank_in_cluster": 4}

>  <energy>  (11) 
-4.83

>  <cluster_rmsd>  (11) 
0.77

>  <rmsd>  (11) 
271.07

>  <cluster>  (11) 
5

$$$$
FLYFIANCBVDDDY-IGPOTQGWNA-O
     RDKit          3D

 70 74  0  0  0  0  0  0  0  0999 V2000
  138.4320   73.6450  222.9730 H   0  0  0  0  0  0  0  0  0  0  0  0
  138.6290   74.0730  222.0780 O   0  0  0  0  0  0  0  0  0  0  0  0
  139.0530   75.3980  221.9610 C   0  0  0  0  0  0  0  0  0  0  0  0
  140.3420   75.5940  221.6350 C   0  0  0  0  0  0  0  0  0  0  0  0
  140.9416   74.6795  221.5164 H   0  0  0  0  0  0  0  0  0  0  0  0
  141.0860   76.8880  221.4080 C   0  0  0  0  0  0  0  0  0  0  0  0
  142.0744   76.8022  221.8831 H   0  0  0  0  0  0  0  0  0  0  0  0
  141.1386   77.0275  220.3182 H   0  0  0  0  0  0  0  0  0  0  0  0
  140.4240   78.0810  221.9450 N   0  0  0  0  0  0  0  0  0  0  0  0
  141.1810   79.0880  222.6480 C   0  0  0  0  0  0  0  0  0  0  0  0
  142.5880   79.0940  222.6220 C   0  0  0  0  0  0  0  0  0  0  0  0
  143.1291   78.2830  222.1126 H   0  0  0  0  0  0  0  0  0  0  0  0
  143.3020   80.1250  223.2400 C   0  0  0  0  0  0  0  0  0  0  0  0
  144.4018   80.1213  223.2181 H   0  0  0  0  0  0  0  0  0  0  0  0
  142.6200   81.1610  223.8860 C   0  0  0  0  0  0  0  0  0  0  0  0
  143.1831   81.9700  224.3742 H   0  0  0  0  0  0  0  0  0  0  0  0
  141.2240   81.1680  223.9110 C   0  0  0  0  0  0  0  0  0  0  0  0
  140.6884   81.9841  224.4180 H   0  0  0  0  0  0  0  0  0  0  0  0
  140.5050   80.1400  223.2930 C   0  0  0  0  0  0  0  0  0  0  0  0
  139.4052   80.1539  223.3112 H   0  0  0  0  0  0  0  0  0  0  0  0
  139.1890   78.4800  221.3480 C   0  0  0  0  0  0  0  0  0  0  0  0
  139.0910   79.6950  220.7480 N   0  0  0  0  0  0  0  0  0  0  0  0
  137.9300   80.1220  220.1850 C   0  0  0  0  0  0  0  0  0  0  0  0
  137.8590   81.2930  219.6190 N   0  0  0  0  0  0  0  0  0  0  0  0
  138.9910   82.0280  219.1250 C   0  0  0  0  0  0  0  0  0  0  0  0
  139.4290   83.2010  219.7610 C   0  0  0  0  0  0  0  0  0  0  0  0
  138.8948   83.5773  220.6459 H   0  0  0  0  0  0  0  0  0  0  0  0
  140.5390   83.8900  219.2740 C   0  0  0  0  0  0  0  0  0  0  0  0
  140.8807   84.8058  219.7785 H   0  0  0  0  0  0  0  0  0  0  0  0
  141.2180   83.4210  218.1480 C   0  0  0  0  0  0  0  0  0  0  0  0
  142.0952   83.9685  217.7728 H   0  0  0  0  0  0  0  0  0  0  0  0
  140.7890   82.2520  217.4880 C   0  0  0  0  0  0  0  0  0  0  0  0
  141.5180   81.7020  216.3100 C   0  0  0  0  0  0  0  0  0  0  0  0
  141.2100   82.1430  215.1650 O   0  0  0  0  0  0  0  0  0  0  0  0
  142.5380   80.6700  216.4510 N   0  0  2  0  0  0  0  0  0  0  0  0
  143.3840   81.0060  215.9380 H   0  0  0  0  0  0  0  0  0  0  0  0
  142.1770   79.3790  215.8080 C   0  0  0  0  0  0  0  0  0  0  0  0
  143.0863   78.7658  215.7230 H   0  0  0  0  0  0  0  0  0  0  0  0
  141.7415   79.6164  214.8262 H   0  0  0  0  0  0  0  0  0  0  0  0
  141.1170   78.5760  216.5940 C   0  0  0  0  0  0  0  0  0  0  0  0
  141.0031   77.5851  216.1302 H   0  0  0  0  0  0  0  0  0  0  0  0
  140.1695   79.1340  216.5640 H   0  0  0  0  0  0  0  0  0  0  0  0
  141.5230   78.3950  218.0650 C   0  0  2  0  0  0  0  0  0  0  0  0
  142.4102   77.7467  218.1151 H   0  0  0  0  0  0  0  0  0  0  0  0
  140.4580   77.8050  218.7900 O   0  0  0  0  0  0  0  0  0  0  0  0
  139.2990   77.6650  217.9920 C   0  0  0  0  0  0  0  0  0  0  0  0
  139.5752   77.7579  216.9313 H   0  0  0  0  0  0  0  0  0  0  0  0
  138.5798   78.4516  218.2641 H   0  0  0  0  0  0  0  0  0  0  0  0
  138.6570   76.3030  218.2270 C   0  0  0  0  0  0  0  0  0  0  0  0
  138.5707   76.1200  219.3082 H   0  0  0  0  0  0  0  0  0  0  0  0
  137.6560   76.2859  217.7712 H   0  0  0  0  0  0  0  0  0  0  0  0
  139.2809   75.5200  217.7712 H   0  0  0  0  0  0  0  0  0  0  0  0
  141.8290   79.7630  218.6760 C   0  0  0  0  0  0  0  0  0  0  0  0
  142.1704   79.6296  219.7131 H   0  0  0  0  0  0  0  0  0  0  0  0
  140.9164   80.3769  218.6571 H   0  0  0  0  0  0  0  0  0  0  0  0
  142.9260   80.4710  217.8680 C   0  0  0  0  0  0  0  0  0  0  0  0
  143.8408   79.8611  217.9025 H   0  0  0  0  0  0  0  0  0  0  0  0
  143.0886   81.4624  218.3159 H   0  0  0  0  0  0  0  0  0  0  0  0
  139.6520   81.5790  217.9750 C   0  0  0  0  0  0  0  0  0  0  0  0
  139.2785   80.6899  217.4458 H   0  0  0  0  0  0  0  0  0  0  0  0
  136.8410   79.3050  220.1950 N   0  0  0  0  0  0  0  0  0  0  0  0
  135.9450   79.6180  219.7560 H   0  0  0  0  0  0  0  0  0  0  0  0
  136.8880   78.0920  220.8090 C   0  0  0  0  0  0  0  0  0  0  0  0
  135.9915   77.4551  220.8342 H   0  0  0  0  0  0  0  0  0  0  0  0
  138.0760   77.6510  221.4100 C   0  0  0  0  0  0  0  0  0  0  0  0
  138.1090   76.4620  222.2120 N   0  0  0  0  0  0  0  0  0  0  0  0
  137.0430   76.2500  223.1970 C   0  0  0  0  0  0  0  0  0  0  0  0
  137.4596   76.3328  224.2117 H   0  0  0  0  0  0  0  0  0  0  0  0
  136.2598   77.0100  223.0590 H   0  0  0  0  0  0  0  0  0  0  0  0
  136.6102   75.2482  223.0590 H   0  0  0  0  0  0  0  0  0  0  0  0
  1  2  1  0
  2  3  1  0
  3  4  2  0
  4  5  1  0
  4  6  1  0
  6  7  1  0
  6  8  1  0
  6  9  1  0
  9 10  1  0
 10 11  2  0
 11 12  1  0
 11 13  1  0
 13 14  1  0
 13 15  2  0
 15 16  1  0
 15 17  1  0
 17 18  1  0
 17 19  2  0
 19 20  1  0
  9 21  1  0
 21 22  2  0
 22 23  1  0
 23 24  2  0
 24 25  1  0
 25 26  2  0
 26 27  1  0
 26 28  1  0
 28 29  1  0
 28 30  2  0
 30 31  1  0
 30 32  1  0
 32 33  1  0
 33 34  2  0
 33 35  1  0
 35 36  1  6
 35 37  1  0
 37 38  1  0
 37 39  1  0
 37 40  1  0
 40 41  1  0
 40 42  1  0
 40 43  1  0
 43 44  1  1
 43 45  1  0
 45 46  1  0
 46 47  1  0
 46 48  1  0
 46 49  1  0
 49 50  1  0
 49 51  1  0
 49 52  1  0
 43 53  1  0
 53 54  1  0
 53 55  1  0
 53 56  1  0
 56 57  1  0
 56 58  1  0
 32 59  2  0
 59 60  1  0
 23 61  1  0
 61 62  1  0
 61 63  1  0
 63 64  1  0
 63 65  2  0
 65 66  1  0
 66 67  1  0
 67 68  1  0
 67 69  1  0
 67 70  1  0
 66  3  1  0
 19 10  1  0
 65 21  1  0
 59 25  1  0
 56 35  1  0
M  CHG  1  35   1
M  END
>  <UniqueID>  (12) 
21

>  <SMILES>  (12) 
CCOC1CC[NH+](C(=O)c2cccc(/N=c3\nc4c(c[nH]3)N(C)C(O)=CCN4c3ccccc3)c2)CC1

>  <Energy>  (12) 
107.97179489479667

>  <Genealogy>  (12) 
CCOC1CC[NH+](C(=O)c2cccc(N=c3nc4c(c[nH]3)N(C)C(=O)CCN4c3ccccc3)c2)CC1 (protonated)
CCOC1CC[NH+](C(=O)c2cccc(N=c3nc4c(c[nH]3)N(C)C(O)=CCN4c3ccccc3)c2)CC1 (tautomer)
CCOC1CC[NH+](C(=O)c2cccc(/N=c3\nc4c(c[nH]3)N(C)C(O)=CCN4c3ccccc3)c2)CC1 (cis-trans isomerization)
CCOC1CC[NH+](C(=O)c2cccc(/N=c3\nc4c(c[nH]3)N(C)C(O)=CCN4c3ccccc3)c2)CC1 (3D coordinates assigned)
CCOC1CC[NH+](C(=O)c2cccc(/N=c3\nc4c(c[nH]3)N(C)C(O)=CCN4c3ccccc3)c2)CC1 (nonaromatic ring conformer: 107.97179489479667 kcal/mol)

>  <smiles>  (12) 
CCOC1CCN(C(=O)c2cccc(N=c3nc4c(c[nH]3)N(C)C(=O)CCN4c3ccccc3)c2)CC1

>  <score_type>  (12) 
oracle

>  <origin>  (12) 
autodockgpu

>  <m_score__min__energy>  (12) 
-7.3200000000000003

>  <m_primary>  (12) 
energy

>  <meeko>  (12) 
{"free_energy": -4.51, "intermolecular_energy": -8.39, "internal_energy": -3.15, "cluster_size": 2, "cluster_id": 4, "rank_in_cluster": 2}

>  <energy>  (12) 
-4.56

>  <cluster_rmsd>  (12) 
0.44

>  <rmsd>  (12) 
270.98

>  <cluster>  (12) 
5

$$$$
FLYFIANCBVDDDY-IGPOTQGWNA-O
     RDKit          3D

 70 74  0  0  0  0  0  0  0  0999 V2000
  144.3010   70.6310  221.5090 H   0  0  0  0  0  0  0  0  0  0  0  0
  143.7650   70.9900  220.7290 O   0  0  0  0  0  0  0  0  0  0  0  0
  143.4380   72.3420  220.6070 C   0  0  0  0  0  0  0  0  0  0  0  0
  144.4180   73.2270  220.8580 C   0  0  0  0  0  0  0  0  0  0  0  0
  145.2691   72.8352  221.4342 H   0  0  0  0  0  0  0  0  0  0  0  0
  144.5200   74.6800  220.4640 C   0  0  0  0  0  0  0  0  0  0  0  0
  144.7940   75.2585  221.3586 H   0  0  0  0  0  0  0  0  0  0  0  0
  145.2745   74.7316  219.6652 H   0  0  0  0  0  0  0  0  0  0  0  0
  143.2910   75.2550  219.9080 N   0  0  0  0  0  0  0  0  0  0  0  0
  143.1580   75.4720  218.4880 C   0  0  0  0  0  0  0  0  0  0  0  0
  143.1130   76.7710  217.9500 C   0  0  0  0  0  0  0  0  0  0  0  0
  143.1148   77.6417  218.6223 H   0  0  0  0  0  0  0  0  0  0  0  0
  143.0660   76.9620  216.5650 C   0  0  0  0  0  0  0  0  0  0  0  0
  143.0282   77.9806  216.1513 H   0  0  0  0  0  0  0  0  0  0  0  0
  143.0670   75.8580  215.7060 C   0  0  0  0  0  0  0  0  0  0  0  0
  143.0268   76.0087  214.6171 H   0  0  0  0  0  0  0  0  0  0  0  0
  143.1190   74.5650  216.2300 C   0  0  0  0  0  0  0  0  0  0  0  0
  143.1222   73.6980  215.5530 H   0  0  0  0  0  0  0  0  0  0  0  0
  143.1670   74.3700  217.6130 C   0  0  0  0  0  0  0  0  0  0  0  0
  143.2121   73.3491  218.0200 H   0  0  0  0  0  0  0  0  0  0  0  0
  142.0900   75.1180  220.6710 C   0  0  0  0  0  0  0  0  0  0  0  0
  141.5860   76.1900  221.3320 N   0  0  0  0  0  0  0  0  0  0  0  0
  140.4560   76.0990  222.0850 C   0  0  0  0  0  0  0  0  0  0  0  0
  139.9940   77.1420  222.7140 N   0  0  0  0  0  0  0  0  0  0  0  0
  140.6560   78.4160  222.7760 C   0  0  0  0  0  0  0  0  0  0  0  0
  141.6790   78.6580  223.7060 C   0  0  0  0  0  0  0  0  0  0  0  0
  141.9768   77.8681  224.4112 H   0  0  0  0  0  0  0  0  0  0  0  0
  142.3190   79.8960  223.7390 C   0  0  0  0  0  0  0  0  0  0  0  0
  143.1230   80.0786  224.4671 H   0  0  0  0  0  0  0  0  0  0  0  0
  141.9420   80.9050  222.8500 C   0  0  0  0  0  0  0  0  0  0  0  0
  142.4537   81.8783  222.8805 H   0  0  0  0  0  0  0  0  0  0  0  0
  140.9110   80.6860  221.9140 C   0  0  0  0  0  0  0  0  0  0  0  0
  140.5150   81.7280  220.9240 C   0  0  0  0  0  0  0  0  0  0  0  0
  139.5410   82.4800  221.2130 O   0  0  0  0  0  0  0  0  0  0  0  0
  141.2010   81.8710  219.6450 N   0  0  2  0  0  0  0  0  0  0  0  0
  141.7220   82.7760  219.6790 H   0  0  0  0  0  0  0  0  0  0  0  0
  140.2820   81.9910  218.4820 C   0  0  0  0  0  0  0  0  0  0  0  0
  140.8563   82.3635  217.6210 H   0  0  0  0  0  0  0  0  0  0  0  0
  139.4765   82.6806  218.7748 H   0  0  0  0  0  0  0  0  0  0  0  0
  139.6160   80.6550  218.0850 C   0  0  0  0  0  0  0  0  0  0  0  0
  139.0621   80.7973  217.1454 H   0  0  0  0  0  0  0  0  0  0  0  0
  138.9388   80.3526  218.8974 H   0  0  0  0  0  0  0  0  0  0  0  0
  140.6570   79.5430  217.8870 C   0  0  2  0  0  0  0  0  0  0  0  0
  141.2734   79.7830  217.0081 H   0  0  0  0  0  0  0  0  0  0  0  0
  140.0050   78.3000  217.6890 O   0  0  0  0  0  0  0  0  0  0  0  0
  139.9130   77.5630  218.8930 C   0  0  0  0  0  0  0  0  0  0  0  0
  139.1346   78.0066  219.5313 H   0  0  0  0  0  0  0  0  0  0  0  0
  140.8851   77.5945  219.4068 H   0  0  0  0  0  0  0  0  0  0  0  0
  139.5550   76.1120  218.5990 C   0  0  0  0  0  0  0  0  0  0  0  0
  139.4209   75.5684  219.5458 H   0  0  0  0  0  0  0  0  0  0  0  0
  138.6208   76.0750  218.0194 H   0  0  0  0  0  0  0  0  0  0  0  0
  140.3648   75.6447  218.0194 H   0  0  0  0  0  0  0  0  0  0  0  0
  141.5310   79.4400  219.1370 C   0  0  0  0  0  0  0  0  0  0  0  0
  142.3095   78.6800  218.9747 H   0  0  0  0  0  0  0  0  0  0  0  0
  140.9016   79.1554  219.9931 H   0  0  0  0  0  0  0  0  0  0  0  0
  142.1960   80.7930  219.4310 C   0  0  0  0  0  0  0  0  0  0  0  0
  142.8361   81.0657  218.5790 H   0  0  0  0  0  0  0  0  0  0  0  0
  142.7833   80.6870  220.3551 H   0  0  0  0  0  0  0  0  0  0  0  0
  140.2550   79.4390  221.9090 C   0  0  0  0  0  0  0  0  0  0  0  0
  139.4183   79.2675  221.2159 H   0  0  0  0  0  0  0  0  0  0  0  0
  139.7960   74.9120  222.1590 N   0  0  0  0  0  0  0  0  0  0  0  0
  138.9210   74.8310  222.7270 H   0  0  0  0  0  0  0  0  0  0  0  0
  140.2820   73.8050  221.5340 C   0  0  0  0  0  0  0  0  0  0  0  0
  139.7525   72.8453  221.6272 H   0  0  0  0  0  0  0  0  0  0  0  0
  141.4570   73.8850  220.7710 C   0  0  0  0  0  0  0  0  0  0  0  0
  142.0870   72.7070  220.2480 N   0  0  0  0  0  0  0  0  0  0  0  0
  141.4030   71.9560  219.1910 C   0  0  0  0  0  0  0  0  0  0  0  0
  140.7284   71.2153  219.6452 H   0  0  0  0  0  0  0  0  0  0  0  0
  140.8197   72.6494  218.5673 H   0  0  0  0  0  0  0  0  0  0  0  0
  142.1477   71.4398  218.5673 H   0  0  0  0  0  0  0  0  0  0  0  0
  1  2  1  0
  2  3  1  0
  3  4  2  0
  4  5  1  0
  4  6  1  0
  6  7  1  0
  6  8  1  0
  6  9  1  0
  9 10  1  0
 10 11  2  0
 11 12  1  0
 11 13  1  0
 13 14  1  0
 13 15  2  0
 15 16  1  0
 15 17  1  0
 17 18  1  0
 17 19  2  0
 19 20  1  0
  9 21  1  0
 21 22  2  0
 22 23  1  0
 23 24  2  0
 24 25  1  0
 25 26  2  0
 26 27  1  0
 26 28  1  0
 28 29  1  0
 28 30  2  0
 30 31  1  0
 30 32  1  0
 32 33  1  0
 33 34  2  0
 33 35  1  0
 35 36  1  1
 35 37  1  0
 37 38  1  0
 37 39  1  0
 37 40  1  0
 40 41  1  0
 40 42  1  0
 40 43  1  0
 43 44  1  1
 43 45  1  0
 45 46  1  0
 46 47  1  0
 46 48  1  0
 46 49  1  0
 49 50  1  0
 49 51  1  0
 49 52  1  0
 43 53  1  0
 53 54  1  0
 53 55  1  0
 53 56  1  0
 56 57  1  0
 56 58  1  0
 32 59  2  0
 59 60  1  0
 23 61  1  0
 61 62  1  0
 61 63  1  0
 63 64  1  0
 63 65  2  0
 65 66  1  0
 66 67  1  0
 67 68  1  0
 67 69  1  0
 67 70  1  0
 66  3  1  0
 19 10  1  0
 65 21  1  0
 59 25  1  0
 56 35  1  0
M  CHG  1  35   1
M  END
>  <UniqueID>  (13) 
21

>  <SMILES>  (13) 
CCOC1CC[NH+](C(=O)c2cccc(/N=c3\nc4c(c[nH]3)N(C)C(O)=CCN4c3ccccc3)c2)CC1

>  <Energy>  (13) 
107.97179489479667

>  <Genealogy>  (13) 
CCOC1CC[NH+](C(=O)c2cccc(N=c3nc4c(c[nH]3)N(C)C(=O)CCN4c3ccccc3)c2)CC1 (protonated)
CCOC1CC[NH+](C(=O)c2cccc(N=c3nc4c(c[nH]3)N(C)C(O)=CCN4c3ccccc3)c2)CC1 (tautomer)
CCOC1CC[NH+](C(=O)c2cccc(/N=c3\nc4c(c[nH]3)N(C)C(O)=CCN4c3ccccc3)c2)CC1 (cis-trans isomerization)
CCOC1CC[NH+](C(=O)c2cccc(/N=c3\nc4c(c[nH]3)N(C)C(O)=CCN4c3ccccc3)c2)CC1 (3D coordinates assigned)
CCOC1CC[NH+](C(=O)c2cccc(/N=c3\nc4c(c[nH]3)N(C)C(O)=CCN4c3ccccc3)c2)CC1 (nonaromatic ring conformer: 107.97179489479667 kcal/mol)

>  <smiles>  (13) 
CCOC1CCN(C(=O)c2cccc(N=c3nc4c(c[nH]3)N(C)C(=O)CCN4c3ccccc3)c2)CC1

>  <score_type>  (13) 
oracle

>  <origin>  (13) 
autodockgpu

>  <m_score__min__energy>  (13) 
-7.3200000000000003

>  <m_primary>  (13) 
energy

>  <meeko>  (13) 
{"free_energy": -4.52, "intermolecular_energy": -8.39, "internal_energy": -3.18, "cluster_size": 4, "cluster_id": 6, "rank_in_cluster": 2}

>  <energy>  (13) 
-4.54

>  <cluster_rmsd>  (13) 
0.0

>  <rmsd>  (13) 
271.4

>  <cluster>  (13) 
6

$$$$
FLYFIANCBVDDDY-IGPOTQGWNA-O
     RDKit          3D

 70 74  0  0  0  0  0  0  0  0999 V2000
  134.6690   68.7930  222.8350 H   0  0  0  0  0  0  0  0  0  0  0  0
  135.3560   68.5690  223.5430 O   0  0  0  0  0  0  0  0  0  0  0  0
  136.5840   69.2290  223.6290 C   0  0  0  0  0  0  0  0  0  0  0  0
  137.6740   68.4620  223.8050 C   0  0  0  0  0  0  0  0  0  0  0  0
  137.5461   67.3979  223.5575 H   0  0  0  0  0  0  0  0  0  0  0  0
  139.0470   68.8510  224.2930 C   0  0  0  0  0  0  0  0  0  0  0  0
  139.2769   68.2476  225.1835 H   0  0  0  0  0  0  0  0  0  0  0  0
  139.7356   68.6693  223.4547 H   0  0  0  0  0  0  0  0  0  0  0  0
  139.1970   70.2660  224.6500 N   0  0  0  0  0  0  0  0  0  0  0  0
  139.9960   70.6580  225.7850 C   0  0  0  0  0  0  0  0  0  0  0  0
  140.7280   71.8600  225.7810 C   0  0  0  0  0  0  0  0  0  0  0  0
  140.7473   72.4858  224.8766 H   0  0  0  0  0  0  0  0  0  0  0  0
  141.4310   72.2630  226.9210 C   0  0  0  0  0  0  0  0  0  0  0  0
  142.0034   73.2023  226.9100 H   0  0  0  0  0  0  0  0  0  0  0  0
  141.4070   71.4730  228.0750 C   0  0  0  0  0  0  0  0  0  0  0  0
  141.9632   71.7892  228.9698 H   0  0  0  0  0  0  0  0  0  0  0  0
  140.6770   70.2830  228.0910 C   0  0  0  0  0  0  0  0  0  0  0  0
  140.6564   69.6641  229.0002 H   0  0  0  0  0  0  0  0  0  0  0  0
  139.9720   69.8760  226.9540 C   0  0  0  0  0  0  0  0  0  0  0  0
  139.3956   68.9393  226.9739 H   0  0  0  0  0  0  0  0  0  0  0  0
  138.9930   71.2350  223.6200 C   0  0  0  0  0  0  0  0  0  0  0  0
  140.0150   72.0470  223.2460 N   0  0  0  0  0  0  0  0  0  0  0  0
  139.8590   72.9950  222.2840 C   0  0  0  0  0  0  0  0  0  0  0  0
  140.8540   73.7650  221.9450 N   0  0  0  0  0  0  0  0  0  0  0  0
  140.7110   75.0440  221.3060 C   0  0  0  0  0  0  0  0  0  0  0  0
  140.2510   75.1480  219.9830 C   0  0  0  0  0  0  0  0  0  0  0  0
  140.0044   74.2387  219.4153 H   0  0  0  0  0  0  0  0  0  0  0  0
  140.1060   76.4000  219.3870 C   0  0  0  0  0  0  0  0  0  0  0  0
  139.7418   76.4760  218.3518 H   0  0  0  0  0  0  0  0  0  0  0  0
  140.4220   77.5580  220.1010 C   0  0  0  0  0  0  0  0  0  0  0  0
  140.3007   78.5423  219.6251 H   0  0  0  0  0  0  0  0  0  0  0  0
  140.8950   77.4760  221.4260 C   0  0  0  0  0  0  0  0  0  0  0  0
  141.2000   78.6950  222.2270 C   0  0  0  0  0  0  0  0  0  0  0  0
  140.4490   78.9630  223.2080 O   0  0  0  0  0  0  0  0  0  0  0  0
  142.3120   79.5770  221.8900 N   0  0  2  0  0  0  0  0  0  0  0  0
  143.1700   78.9830  221.8490 H   0  0  0  0  0  0  0  0  0  0  0  0
  142.5960   80.6060  222.9250 C   0  0  0  0  0  0  0  0  0  0  0  0
  143.5899   81.0339  222.7273 H   0  0  0  0  0  0  0  0  0  0  0  0
  142.5451   80.1046  223.9028 H   0  0  0  0  0  0  0  0  0  0  0  0
  141.5650   81.7550  222.9490 C   0  0  0  0  0  0  0  0  0  0  0  0
  141.9146   82.5343  223.6422 H   0  0  0  0  0  0  0  0  0  0  0  0
  140.5985   81.3441  223.2762 H   0  0  0  0  0  0  0  0  0  0  0  0
  141.3780   82.3740  221.5560 C   0  0  2  0  0  0  0  0  0  0  0  0
  142.3083   82.8826  221.2630 H   0  0  0  0  0  0  0  0  0  0  0  0
  140.3100   83.3060  221.5810 O   0  0  0  0  0  0  0  0  0  0  0  0
  139.0530   82.6600  221.5150 C   0  0  0  0  0  0  0  0  0  0  0  0
  139.0219   81.8502  222.2588 H   0  0  0  0  0  0  0  0  0  0  0  0
  138.9150   82.2492  220.5040 H   0  0  0  0  0  0  0  0  0  0  0  0
  137.9320   83.6510  221.8040 C   0  0  0  0  0  0  0  0  0  0  0  0
  137.8096   83.7592  222.8918 H   0  0  0  0  0  0  0  0  0  0  0  0
  138.1835   84.6275  221.3644 H   0  0  0  0  0  0  0  0  0  0  0  0
  136.9937   83.2817  221.3644 H   0  0  0  0  0  0  0  0  0  0  0  0
  141.0370   81.2710  220.5540 C   0  0  0  0  0  0  0  0  0  0  0  0
  140.9553   81.7068  219.5473 H   0  0  0  0  0  0  0  0  0  0  0  0
  140.0813   80.8078  220.8405 H   0  0  0  0  0  0  0  0  0  0  0  0
  142.1350   80.1980  220.5550 C   0  0  0  0  0  0  0  0  0  0  0  0
  143.0847   80.6631  220.2522 H   0  0  0  0  0  0  0  0  0  0  0  0
  141.8339   79.4069  219.8525 H   0  0  0  0  0  0  0  0  0  0  0  0
  141.0610   76.2040  222.0080 C   0  0  0  0  0  0  0  0  0  0  0  0
  141.4703   76.1210  223.0256 H   0  0  0  0  0  0  0  0  0  0  0  0
  138.6580   73.1200  221.6560 N   0  0  0  0  0  0  0  0  0  0  0  0
  138.5280   73.8390  220.9080 H   0  0  0  0  0  0  0  0  0  0  0  0
  137.6000   72.3460  222.0190 C   0  0  0  0  0  0  0  0  0  0  0  0
  136.6273   72.4790  221.5228 H   0  0  0  0  0  0  0  0  0  0  0  0
  137.7460   71.3780  223.0250 C   0  0  0  0  0  0  0  0  0  0  0  0
  136.6130   70.6710  223.5490 N   0  0  0  0  0  0  0  0  0  0  0  0
  135.3910   71.4250  223.8460 C   0  0  0  0  0  0  0  0  0  0  0  0
  135.2642   71.5032  224.9359 H   0  0  0  0  0  0  0  0  0  0  0  0
  135.4677   72.4331  223.4125 H   0  0  0  0  0  0  0  0  0  0  0  0
  134.5244   70.9044  223.4125 H   0  0  0  0  0  0  0  0  0  0  0  0
  1  2  1  0
  2  3  1  0
  3  4  2  0
  4  5  1  0
  4  6  1  0
  6  7  1  0
  6  8  1  0
  6  9  1  0
  9 10  1  0
 10 11  2  0
 11 12  1  0
 11 13  1  0
 13 14  1  0
 13 15  2  0
 15 16  1  0
 15 17  1  0
 17 18  1  0
 17 19  2  0
 19 20  1  0
  9 21  1  0
 21 22  2  0
 22 23  1  0
 23 24  2  0
 24 25  1  0
 25 26  2  0
 26 27  1  0
 26 28  1  0
 28 29  1  0
 28 30  2  0
 30 31  1  0
 30 32  1  0
 32 33  1  0
 33 34  2  0
 33 35  1  0
 35 36  1  6
 35 37  1  0
 37 38  1  0
 37 39  1  0
 37 40  1  0
 40 41  1  0
 40 42  1  0
 40 43  1  0
 43 44  1  1
 43 45  1  0
 45 46  1  0
 46 47  1  0
 46 48  1  0
 46 49  1  0
 49 50  1  0
 49 51  1  0
 49 52  1  0
 43 53  1  0
 53 54  1  0
 53 55  1  0
 53 56  1  0
 56 57  1  0
 56 58  1  0
 32 59  2  0
 59 60  1  0
 23 61  1  0
 61 62  1  0
 61 63  1  0
 63 64  1  0
 63 65  2  0
 65 66  1  0
 66 67  1  0
 67 68  1  0
 67 69  1  0
 67 70  1  0
 66  3  1  0
 19 10  1  0
 65 21  1  0
 59 25  1  0
 56 35  1  0
M  CHG  1  35   1
M  END
>  <UniqueID>  (14) 
21

>  <SMILES>  (14) 
CCOC1CC[NH+](C(=O)c2cccc(/N=c3\nc4c(c[nH]3)N(C)C(O)=CCN4c3ccccc3)c2)CC1

>  <Energy>  (14) 
107.97179489479667

>  <Genealogy>  (14) 
CCOC1CC[NH+](C(=O)c2cccc(N=c3nc4c(c[nH]3)N(C)C(=O)CCN4c3ccccc3)c2)CC1 (protonated)
CCOC1CC[NH+](C(=O)c2cccc(N=c3nc4c(c[nH]3)N(C)C(O)=CCN4c3ccccc3)c2)CC1 (tautomer)
CCOC1CC[NH+](C(=O)c2cccc(/N=c3\nc4c(c[nH]3)N(C)C(O)=CCN4c3ccccc3)c2)CC1 (cis-trans isomerization)
CCOC1CC[NH+](C(=O)c2cccc(/N=c3\nc4c(c[nH]3)N(C)C(O)=CCN4c3ccccc3)c2)CC1 (3D coordinates assigned)
CCOC1CC[NH+](C(=O)c2cccc(/N=c3\nc4c(c[nH]3)N(C)C(O)=CCN4c3ccccc3)c2)CC1 (nonaromatic ring conformer: 107.97179489479667 kcal/mol)

>  <smiles>  (14) 
CCOC1CCN(C(=O)c2cccc(N=c3nc4c(c[nH]3)N(C)C(=O)CCN4c3ccccc3)c2)CC1

>  <score_type>  (14) 
oracle

>  <origin>  (14) 
autodockgpu

>  <m_score__min__energy>  (14) 
-7.3200000000000003

>  <m_primary>  (14) 
energy

>  <meeko>  (14) 
{"free_energy": -7.32, "intermolecular_energy": -11.2, "internal_energy": -1.14, "cluster_size": 4, "cluster_id": 1, "rank_in_cluster": 1}

>  <energy>  (14) 
-4.52

>  <cluster_rmsd>  (14) 
0.23

>  <rmsd>  (14) 
271.42

>  <cluster>  (14) 
6

$$$$
FLYFIANCBVDDDY-IGPOTQGWNA-O
     RDKit          3D

 70 74  0  0  0  0  0  0  0  0999 V2000
  146.2930   71.1920  220.1550 H   0  0  0  0  0  0  0  0  0  0  0  0
  146.1200   71.7100  219.3030 O   0  0  0  0  0  0  0  0  0  0  0  0
  145.2740   72.8200  219.2630 C   0  0  0  0  0  0  0  0  0  0  0  0
  145.1350   73.5160  220.4050 C   0  0  0  0  0  0  0  0  0  0  0  0
  145.9024   73.3244  221.1695 H   0  0  0  0  0  0  0  0  0  0  0  0
  144.0780   74.5220  220.7890 C   0  0  0  0  0  0  0  0  0  0  0  0
  143.6013   74.1790  221.7191 H   0  0  0  0  0  0  0  0  0  0  0  0
  144.5944   75.4874  220.8955 H   0  0  0  0  0  0  0  0  0  0  0  0
  143.0280   74.7250  219.7870 N   0  0  0  0  0  0  0  0  0  0  0  0
  141.6550   74.9160  220.1880 C   0  0  0  0  0  0  0  0  0  0  0  0
  140.6030   74.8080  219.2600 C   0  0  0  0  0  0  0  0  0  0  0  0
  140.8271   74.6384  218.1965 H   0  0  0  0  0  0  0  0  0  0  0  0
  139.2740   74.9150  219.6820 C   0  0  0  0  0  0  0  0  0  0  0  0
  138.4565   74.8324  218.9507 H   0  0  0  0  0  0  0  0  0  0  0  0
  138.9840   75.1270  221.0340 C   0  0  0  0  0  0  0  0  0  0  0  0
  137.9385   75.2142  221.3648 H   0  0  0  0  0  0  0  0  0  0  0  0
  140.0210   75.2280  221.9640 C   0  0  0  0  0  0  0  0  0  0  0  0
  139.7912   75.3920  223.0272 H   0  0  0  0  0  0  0  0  0  0  0  0
  141.3500   75.1210  221.5460 C   0  0  0  0  0  0  0  0  0  0  0  0
  142.1628   75.1975  222.2833 H   0  0  0  0  0  0  0  0  0  0  0  0
  143.4190   75.2330  218.5090 C   0  0  0  0  0  0  0  0  0  0  0  0
  142.9440   76.4320  218.0850 N   0  0  0  0  0  0  0  0  0  0  0  0
  143.2750   76.9420  216.8690 C   0  0  0  0  0  0  0  0  0  0  0  0
  142.8030   78.0930  216.4830 N   0  0  0  0  0  0  0  0  0  0  0  0
  141.8970   78.9010  217.2510 C   0  0  0  0  0  0  0  0  0  0  0  0
  140.6110   79.2030  216.7750 C   0  0  0  0  0  0  0  0  0  0  0  0
  140.2882   78.8282  215.7925 H   0  0  0  0  0  0  0  0  0  0  0  0
  139.7420   79.9760  217.5430 C   0  0  0  0  0  0  0  0  0  0  0  0
  138.7347   80.2071  217.1662 H   0  0  0  0  0  0  0  0  0  0  0  0
  140.1470   80.4580  218.7900 C   0  0  0  0  0  0  0  0  0  0  0  0
  139.4536   81.0636  219.3920 H   0  0  0  0  0  0  0  0  0  0  0  0
  141.4360   80.1750  219.2830 C   0  0  0  0  0  0  0  0  0  0  0  0
  141.8830   80.6400  220.6270 C   0  0  0  0  0  0  0  0  0  0  0  0
  141.8520   81.8810  220.8650 O   0  0  0  0  0  0  0  0  0  0  0  0
  142.3690   79.7080  221.6380 N   0  0  2  0  0  0  0  0  0  0  0  0
  143.3160   79.3910  221.3300 H   0  0  0  0  0  0  0  0  0  0  0  0
  141.5580   78.4660  221.7490 C   0  0  0  0  0  0  0  0  0  0  0  0
  142.1351   77.7225  222.3183 H   0  0  0  0  0  0  0  0  0  0  0  0
  141.3400   78.1280  220.7252 H   0  0  0  0  0  0  0  0  0  0  0  0
  140.2020   78.6800  222.4570 C   0  0  0  0  0  0  0  0  0  0  0  0
  139.7241   77.7022  222.6168 H   0  0  0  0  0  0  0  0  0  0  0  0
  139.5771   79.3219  221.8187 H   0  0  0  0  0  0  0  0  0  0  0  0
  140.3790   79.3770  223.8150 C   0  0  2  0  0  0  0  0  0  0  0  0
  140.9111   78.6999  224.4994 H   0  0  0  0  0  0  0  0  0  0  0  0
  139.1110   79.7060  224.3570 O   0  0  0  0  0  0  0  0  0  0  0  0
  138.5290   80.8090  223.6890 C   0  0  0  0  0  0  0  0  0  0  0  0
  138.1217   80.4746  222.7234 H   0  0  0  0  0  0  0  0  0  0  0  0
  139.3001   81.5767  223.5275 H   0  0  0  0  0  0  0  0  0  0  0  0
  137.4060   81.4040  224.5290 C   0  0  0  0  0  0  0  0  0  0  0  0
  137.6410   81.2795  225.5964 H   0  0  0  0  0  0  0  0  0  0  0  0
  137.3035   82.4747  224.2986 H   0  0  0  0  0  0  0  0  0  0  0  0
  136.4626   80.8874  224.2986 H   0  0  0  0  0  0  0  0  0  0  0  0
  141.1740   80.6680  223.6190 C   0  0  0  0  0  0  0  0  0  0  0  0
  141.3456   81.1411  224.5971 H   0  0  0  0  0  0  0  0  0  0  0  0
  140.6021   81.3465  222.9689 H   0  0  0  0  0  0  0  0  0  0  0  0
  142.5260   80.3630  222.9590 C   0  0  0  0  0  0  0  0  0  0  0  0
  143.1001   79.6962  223.6191 H   0  0  0  0  0  0  0  0  0  0  0  0
  143.0486   81.3182  222.8025 H   0  0  0  0  0  0  0  0  0  0  0  0
  142.3140   79.4140  218.4850 C   0  0  0  0  0  0  0  0  0  0  0  0
  143.3385   79.2210  218.8359 H   0  0  0  0  0  0  0  0  0  0  0  0
  144.1260   76.2510  216.0630 N   0  0  0  0  0  0  0  0  0  0  0  0
  144.3960   76.6370  215.1290 H   0  0  0  0  0  0  0  0  0  0  0  0
  144.6040   75.0330  216.4370 C   0  0  0  0  0  0  0  0  0  0  0  0
  145.2677   74.4730  215.7619 H   0  0  0  0  0  0  0  0  0  0  0  0
  144.2520   74.4900  217.6820 C   0  0  0  0  0  0  0  0  0  0  0  0
  144.5940   73.1400  218.0300 N   0  0  0  0  0  0  0  0  0  0  0  0
  144.4030   72.0870  217.0270 C   0  0  0  0  0  0  0  0  0  0  0  0
  144.2287   71.1259  217.5330 H   0  0  0  0  0  0  0  0  0  0  0  0
  143.5348   72.3330  216.3979 H   0  0  0  0  0  0  0  0  0  0  0  0
  145.3023   72.0124  216.3979 H   0  0  0  0  0  0  0  0  0  0  0  0
  1  2  1  0
  2  3  1  0
  3  4  2  0
  4  5  1  0
  4  6  1  0
  6  7  1  0
  6  8  1  0
  6  9  1  0
  9 10  1  0
 10 11  2  0
 11 12  1  0
 11 13  1  0
 13 14  1  0
 13 15  2  0
 15 16  1  0
 15 17  1  0
 17 18  1  0
 17 19  2  0
 19 20  1  0
  9 21  1  0
 21 22  2  0
 22 23  1  0
 23 24  2  0
 24 25  1  0
 25 26  2  0
 26 27  1  0
 26 28  1  0
 28 29  1  0
 28 30  2  0
 30 31  1  0
 30 32  1  0
 32 33  1  0
 33 34  2  0
 33 35  1  0
 35 36  1  6
 35 37  1  0
 37 38  1  0
 37 39  1  0
 37 40  1  0
 40 41  1  0
 40 42  1  0
 40 43  1  0
 43 44  1  6
 43 45  1  0
 45 46  1  0
 46 47  1  0
 46 48  1  0
 46 49  1  0
 49 50  1  0
 49 51  1  0
 49 52  1  0
 43 53  1  0
 53 54  1  0
 53 55  1  0
 53 56  1  0
 56 57  1  0
 56 58  1  0
 32 59  2  0
 59 60  1  0
 23 61  1  0
 61 62  1  0
 61 63  1  0
 63 64  1  0
 63 65  2  0
 65 66  1  0
 66 67  1  0
 67 68  1  0
 67 69  1  0
 67 70  1  0
 66  3  1  0
 19 10  1  0
 65 21  1  0
 59 25  1  0
 56 35  1  0
M  CHG  1  35   1
M  END
>  <UniqueID>  (15) 
21

>  <SMILES>  (15) 
CCOC1CC[NH+](C(=O)c2cccc(/N=c3\nc4c(c[nH]3)N(C)C(O)=CCN4c3ccccc3)c2)CC1

>  <Energy>  (15) 
107.97179489479667

>  <Genealogy>  (15) 
CCOC1CC[NH+](C(=O)c2cccc(N=c3nc4c(c[nH]3)N(C)C(=O)CCN4c3ccccc3)c2)CC1 (protonated)
CCOC1CC[NH+](C(=O)c2cccc(N=c3nc4c(c[nH]3)N(C)C(O)=CCN4c3ccccc3)c2)CC1 (tautomer)
CCOC1CC[NH+](C(=O)c2cccc(/N=c3\nc4c(c[nH]3)N(C)C(O)=CCN4c3ccccc3)c2)CC1 (cis-trans isomerization)
CCOC1CC[NH+](C(=O)c2cccc(/N=c3\nc4c(c[nH]3)N(C)C(O)=CCN4c3ccccc3)c2)CC1 (3D coordinates assigned)
CCOC1CC[NH+](C(=O)c2cccc(/N=c3\nc4c(c[nH]3)N(C)C(O)=CCN4c3ccccc3)c2)CC1 (nonaromatic ring conformer: 107.97179489479667 kcal/mol)

>  <smiles>  (15) 
CCOC1CCN(C(=O)c2cccc(N=c3nc4c(c[nH]3)N(C)C(=O)CCN4c3ccccc3)c2)CC1

>  <score_type>  (15) 
oracle

>  <origin>  (15) 
autodockgpu

>  <m_score__min__energy>  (15) 
-7.3200000000000003

>  <m_primary>  (15) 
energy

>  <meeko>  (15) 
{"free_energy": -5.23, "intermolecular_energy": -9.11, "internal_energy": -2.46, "cluster_size": 2, "cluster_id": 3, "rank_in_cluster": 1}

>  <energy>  (15) 
-4.47

>  <cluster_rmsd>  (15) 
0.45

>  <rmsd>  (15) 
271.4

>  <cluster>  (15) 
6

$$$$
FLYFIANCBVDDDY-IGPOTQGWNA-O
     RDKit          3D

 70 74  0  0  0  0  0  0  0  0999 V2000
  136.6880   80.2510  218.5710 H   0  0  0  0  0  0  0  0  0  0  0  0
  136.7610   80.0280  219.5550 O   0  0  0  0  0  0  0  0  0  0  0  0
  137.8610   79.3520  220.0880 C   0  0  0  0  0  0  0  0  0  0  0  0
  138.9380   79.2220  219.2950 C   0  0  0  0  0  0  0  0  0  0  0  0
  138.7484   79.3524  218.2193 H   0  0  0  0  0  0  0  0  0  0  0  0
  140.3700   78.9230  219.6660 C   0  0  0  0  0  0  0  0  0  0  0  0
  140.7320   78.1175  219.0101 H   0  0  0  0  0  0  0  0  0  0  0  0
  140.9239   79.8655  219.5439 H   0  0  0  0  0  0  0  0  0  0  0  0
  140.5720   78.5040  221.0560 N   0  0  0  0  0  0  0  0  0  0  0  0
  141.1200   79.4190  222.0280 C   0  0  0  0  0  0  0  0  0  0  0  0
  141.6620   78.9550  223.2410 C   0  0  0  0  0  0  0  0  0  0  0  0
  141.6127   77.8843  223.4881 H   0  0  0  0  0  0  0  0  0  0  0  0
  142.2630   79.8480  224.1340 C   0  0  0  0  0  0  0  0  0  0  0  0
  142.6816   79.4793  225.0821 H   0  0  0  0  0  0  0  0  0  0  0  0
  142.3320   81.2100  223.8220 C   0  0  0  0  0  0  0  0  0  0  0  0
  142.8027   81.9119  224.5261 H   0  0  0  0  0  0  0  0  0  0  0  0
  141.8040   81.6790  222.6180 C   0  0  0  0  0  0  0  0  0  0  0  0
  141.8607   82.7500  222.3735 H   0  0  0  0  0  0  0  0  0  0  0  0
  141.2030   80.7890  221.7220 C   0  0  0  0  0  0  0  0  0  0  0  0
  140.7928   81.1629  220.7723 H   0  0  0  0  0  0  0  0  0  0  0  0
  139.7790   77.4200  221.5440 C   0  0  0  0  0  0  0  0  0  0  0  0
  140.3430   76.1980  221.7210 N   0  0  0  0  0  0  0  0  0  0  0  0
  139.6210   75.1350  222.1650 C   0  0  0  0  0  0  0  0  0  0  0  0
  140.1830   73.9700  222.3220 N   0  0  0  0  0  0  0  0  0  0  0  0
  140.9670   73.3030  221.3190 C   0  0  0  0  0  0  0  0  0  0  0  0
  140.5900   72.0460  220.8200 C   0  0  0  0  0  0  0  0  0  0  0  0
  139.6865   71.5513  221.2060 H   0  0  0  0  0  0  0  0  0  0  0  0
  141.3570   71.4230  219.8370 C   0  0  0  0  0  0  0  0  0  0  0  0
  141.0552   70.4395  219.4476 H   0  0  0  0  0  0  0  0  0  0  0  0
  142.5070   72.0430  219.3450 C   0  0  0  0  0  0  0  0  0  0  0  0
  143.1036   71.5463  218.5657 H   0  0  0  0  0  0  0  0  0  0  0  0
  142.9100   73.3010  219.8390 C   0  0  0  0  0  0  0  0  0  0  0  0
  144.1080   74.0070  219.3060 C   0  0  0  0  0  0  0  0  0  0  0  0
  145.2330   73.7330  219.8140 O   0  0  0  0  0  0  0  0  0  0  0  0
  144.0030   75.0060  218.2480 N   0  0  2  0  0  0  0  0  0  0  0  0
  144.9610   75.1320  217.8510 H   0  0  0  0  0  0  0  0  0  0  0  0
  143.5990   76.3530  218.7330 C   0  0  0  0  0  0  0  0  0  0  0  0
  143.8074   77.0859  217.9396 H   0  0  0  0  0  0  0  0  0  0  0  0
  144.1754   76.5542  219.6480 H   0  0  0  0  0  0  0  0  0  0  0  0
  142.1040   76.4490  219.1070 C   0  0  0  0  0  0  0  0  0  0  0  0
  141.8573   77.4983  219.3263 H   0  0  0  0  0  0  0  0  0  0  0  0
  141.9271   75.8125  219.9866 H   0  0  0  0  0  0  0  0  0  0  0  0
  141.2040   75.9530  217.9650 C   0  0  2  0  0  0  0  0  0  0  0  0
  141.2909   76.6453  217.1146 H   0  0  0  0  0  0  0  0  0  0  0  0
  139.8560   75.8980  218.4010 O   0  0  0  0  0  0  0  0  0  0  0  0
  139.4160   74.5630  218.5620 C   0  0  0  0  0  0  0  0  0  0  0  0
  140.1490   74.0097  219.1674 H   0  0  0  0  0  0  0  0  0  0  0  0
  139.3175   74.0963  217.5708 H   0  0  0  0  0  0  0  0  0  0  0  0
  138.0620   74.5340  219.2610 C   0  0  0  0  0  0  0  0  0  0  0  0
  138.2118   74.5372  220.3507 H   0  0  0  0  0  0  0  0  0  0  0  0
  137.4792   75.4199  218.9684 H   0  0  0  0  0  0  0  0  0  0  0  0
  137.5177   73.6240  218.9684 H   0  0  0  0  0  0  0  0  0  0  0  0
  141.6400   74.5470  217.5520 C   0  0  0  0  0  0  0  0  0  0  0  0
  141.0305   74.2133  216.6993 H   0  0  0  0  0  0  0  0  0  0  0  0
  141.5013   73.8636  218.4028 H   0  0  0  0  0  0  0  0  0  0  0  0
  143.1210   74.5490  217.1470 C   0  0  0  0  0  0  0  0  0  0  0  0
  143.2518   75.2213  216.2863 H   0  0  0  0  0  0  0  0  0  0  0  0
  143.4033   73.5161  216.8953 H   0  0  0  0  0  0  0  0  0  0  0  0
  142.1400   73.9080  220.8510 C   0  0  0  0  0  0  0  0  0  0  0  0
  142.4641   74.8683  221.2784 H   0  0  0  0  0  0  0  0  0  0  0  0
  138.3040   75.3000  222.4670 N   0  0  0  0  0  0  0  0  0  0  0  0
  137.7400   74.4920  222.8180 H   0  0  0  0  0  0  0  0  0  0  0  0
  137.6930   76.5000  222.2790 C   0  0  0  0  0  0  0  0  0  0  0  0
  136.6212   76.6105  222.5006 H   0  0  0  0  0  0  0  0  0  0  0  0
  138.4260   77.5980  221.8030 C   0  0  0  0  0  0  0  0  0  0  0  0
  137.7760   78.8220  221.4290 N   0  0  0  0  0  0  0  0  0  0  0  0
  137.1610   79.6390  222.4800 C   0  0  0  0  0  0  0  0  0  0  0  0
  137.4542   79.2494  223.4660 H   0  0  0  0  0  0  0  0  0  0  0  0
  137.5013   80.6804  222.3812 H   0  0  0  0  0  0  0  0  0  0  0  0
  136.0661   79.6001  222.3812 H   0  0  0  0  0  0  0  0  0  0  0  0
  1  2  1  0
  2  3  1  0
  3  4  2  0
  4  5  1  0
  4  6  1  0
  6  7  1  0
  6  8  1  0
  6  9  1  0
  9 10  1  0
 10 11  2  0
 11 12  1  0
 11 13  1  0
 13 14  1  0
 13 15  2  0
 15 16  1  0
 15 17  1  0
 17 18  1  0
 17 19  2  0
 19 20  1  0
  9 21  1  0
 21 22  2  0
 22 23  1  0
 23 24  2  0
 24 25  1  0
 25 26  2  0
 26 27  1  0
 26 28  1  0
 28 29  1  0
 28 30  2  0
 30 31  1  0
 30 32  1  0
 32 33  1  0
 33 34  2  0
 33 35  1  0
 35 36  1  6
 35 37  1  0
 37 38  1  0
 37 39  1  0
 37 40  1  0
 40 41  1  0
 40 42  1  0
 40 43  1  0
 43 44  1  1
 43 45  1  0
 45 46  1  0
 46 47  1  0
 46 48  1  0
 46 49  1  0
 49 50  1  0
 49 51  1  0
 49 52  1  0
 43 53  1  0
 53 54  1  0
 53 55  1  0
 53 56  1  0
 56 57  1  0
 56 58  1  0
 32 59  2  0
 59 60  1  0
 23 61  1  0
 61 62  1  0
 61 63  1  0
 63 64  1  0
 63 65  2  0
 65 66  1  0
 66 67  1  0
 67 68  1  0
 67 69  1  0
 67 70  1  0
 66  3  1  0
 19 10  1  0
 65 21  1  0
 59 25  1  0
 56 35  1  0
M  CHG  1  35   1
M  END
>  <UniqueID>  (16) 
21

>  <SMILES>  (16) 
CCOC1CC[NH+](C(=O)c2cccc(/N=c3\nc4c(c[nH]3)N(C)C(O)=CCN4c3ccccc3)c2)CC1

>  <Energy>  (16) 
107.97179489479667

>  <Genealogy>  (16) 
CCOC1CC[NH+](C(=O)c2cccc(N=c3nc4c(c[nH]3)N(C)C(=O)CCN4c3ccccc3)c2)CC1 (protonated)
CCOC1CC[NH+](C(=O)c2cccc(N=c3nc4c(c[nH]3)N(C)C(O)=CCN4c3ccccc3)c2)CC1 (tautomer)
CCOC1CC[NH+](C(=O)c2cccc(/N=c3\nc4c(c[nH]3)N(C)C(O)=CCN4c3ccccc3)c2)CC1 (cis-trans isomerization)
CCOC1CC[NH+](C(=O)c2cccc(/N=c3\nc4c(c[nH]3)N(C)C(O)=CCN4c3ccccc3)c2)CC1 (3D coordinates assigned)
CCOC1CC[NH+](C(=O)c2cccc(/N=c3\nc4c(c[nH]3)N(C)C(O)=CCN4c3ccccc3)c2)CC1 (nonaromatic ring conformer: 107.97179489479667 kcal/mol)

>  <smiles>  (16) 
CCOC1CCN(C(=O)c2cccc(N=c3nc4c(c[nH]3)N(C)C(=O)CCN4c3ccccc3)c2)CC1

>  <score_type>  (16) 
oracle

>  <origin>  (16) 
autodockgpu

>  <m_score__min__energy>  (16) 
-7.3200000000000003

>  <m_primary>  (16) 
energy

>  <meeko>  (16) 
{"free_energy": -4.56, "intermolecular_energy": -8.44, "internal_energy": -3.15, "cluster_size": 3, "cluster_id": 5, "rank_in_cluster": 3}

>  <energy>  (16) 
-4.27

>  <cluster_rmsd>  (16) 
0.65

>  <rmsd>  (16) 
271.24

>  <cluster>  (16) 
6

$$$$
FLYFIANCBVDDDY-IGPOTQGWNA-O
     RDKit          3D

 70 74  0  0  0  0  0  0  0  0999 V2000
  136.9620   74.4500  223.5190 H   0  0  0  0  0  0  0  0  0  0  0  0
  136.5520   75.3220  223.2120 O   0  0  0  0  0  0  0  0  0  0  0  0
  137.3170   76.3590  222.6730 C   0  0  0  0  0  0  0  0  0  0  0  0
  138.5550   76.0420  222.2560 C   0  0  0  0  0  0  0  0  0  0  0  0
  138.7434   74.9674  222.1154 H   0  0  0  0  0  0  0  0  0  0  0  0
  139.7230   76.9470  221.9530 C   0  0  0  0  0  0  0  0  0  0  0  0
  140.5718   76.6303  222.5768 H   0  0  0  0  0  0  0  0  0  0  0  0
  139.9166   76.8512  220.8744 H   0  0  0  0  0  0  0  0  0  0  0  0
  139.4800   78.3710  222.2030 N   0  0  0  0  0  0  0  0  0  0  0  0
  140.5140   79.2070  222.7620 C   0  0  0  0  0  0  0  0  0  0  0  0
  141.8750   78.8760  222.6230 C   0  0  0  0  0  0  0  0  0  0  0  0
  142.1612   77.9320  222.1362 H   0  0  0  0  0  0  0  0  0  0  0  0
  142.8650   79.7400  223.1000 C   0  0  0  0  0  0  0  0  0  0  0  0
  143.9264   79.4726  222.9908 H   0  0  0  0  0  0  0  0  0  0  0  0
  142.5080   80.9440  223.7160 C   0  0  0  0  0  0  0  0  0  0  0  0
  143.2881   81.6218  224.0930 H   0  0  0  0  0  0  0  0  0  0  0  0
  141.1610   81.2850  223.8520 C   0  0  0  0  0  0  0  0  0  0  0  0
  140.8811   82.2329  224.3350 H   0  0  0  0  0  0  0  0  0  0  0  0
  140.1670   80.4250  223.3760 C   0  0  0  0  0  0  0  0  0  0  0  0
  139.1077   80.7018  223.4819 H   0  0  0  0  0  0  0  0  0  0  0  0
  138.4510   79.0120  221.4460 C   0  0  0  0  0  0  0  0  0  0  0  0
  138.7660   80.0330  220.6090 N   0  0  0  0  0  0  0  0  0  0  0  0
  137.8160   80.6820  219.8840 C   0  0  0  0  0  0  0  0  0  0  0  0
  138.1420   81.6620  219.0900 N   0  0  0  0  0  0  0  0  0  0  0  0
  139.4440   81.8390  218.5080 C   0  0  0  0  0  0  0  0  0  0  0  0
  140.1660   83.0290  218.6900 C   0  0  0  0  0  0  0  0  0  0  0  0
  139.7302   83.8499  219.2783 H   0  0  0  0  0  0  0  0  0  0  0  0
  141.4330   83.1740  218.1280 C   0  0  0  0  0  0  0  0  0  0  0  0
  141.9952   84.1078  218.2763 H   0  0  0  0  0  0  0  0  0  0  0  0
  141.9910   82.1370  217.3770 C   0  0  0  0  0  0  0  0  0  0  0  0
  142.9934   82.2578  216.9404 H   0  0  0  0  0  0  0  0  0  0  0  0
  141.2800   80.9370  217.1740 C   0  0  0  0  0  0  0  0  0  0  0  0
  141.8650   79.7970  216.4130 C   0  0  0  0  0  0  0  0  0  0  0  0
  141.5800   79.6950  215.1850 O   0  0  0  0  0  0  0  0  0  0  0  0
  142.7200   78.8050  217.0540 N   0  0  2  0  0  0  0  0  0  0  0  0
  143.7060   79.0500  216.8120 H   0  0  0  0  0  0  0  0  0  0  0  0
  142.5230   77.4220  216.5410 C   0  0  0  0  0  0  0  0  0  0  0  0
  143.3726   76.8046  216.8681 H   0  0  0  0  0  0  0  0  0  0  0  0
  142.4548   77.4892  215.4452 H   0  0  0  0  0  0  0  0  0  0  0  0
  141.2180   76.7620  217.0390 C   0  0  0  0  0  0  0  0  0  0  0  0
  141.2104   75.7067  216.7287 H   0  0  0  0  0  0  0  0  0  0  0  0
  140.3679   77.3057  216.6011 H   0  0  0  0  0  0  0  0  0  0  0  0
  141.0980   76.8330  218.5690 C   0  0  2  0  0  0  0  0  0  0  0  0
  141.8799   76.2041  219.0198 H   0  0  0  0  0  0  0  0  0  0  0  0
  139.8210   76.3720  218.9740 O   0  0  0  0  0  0  0  0  0  0  0  0
  138.7890   77.2190  218.5080 C   0  0  0  0  0  0  0  0  0  0  0  0
  138.9094   77.3757  217.4259 H   0  0  0  0  0  0  0  0  0  0  0  0
  138.8499   78.1810  219.0379 H   0  0  0  0  0  0  0  0  0  0  0  0
  137.4270   76.5920  218.7760 C   0  0  0  0  0  0  0  0  0  0  0  0
  137.2649   76.5174  219.8614 H   0  0  0  0  0  0  0  0  0  0  0  0
  136.6407   77.2188  218.3301 H   0  0  0  0  0  0  0  0  0  0  0  0
  137.3918   75.5871  218.3301 H   0  0  0  0  0  0  0  0  0  0  0  0
  141.2580   78.2840  219.0210 C   0  0  0  0  0  0  0  0  0  0  0  0
  141.2246   78.3279  220.1196 H   0  0  0  0  0  0  0  0  0  0  0  0
  140.4402   78.8842  218.5955 H   0  0  0  0  0  0  0  0  0  0  0  0
  142.5990   78.8480  218.5320 C   0  0  0  0  0  0  0  0  0  0  0  0
  143.4142   78.2545  218.9715 H   0  0  0  0  0  0  0  0  0  0  0  0
  142.6565   79.9010  218.8448 H   0  0  0  0  0  0  0  0  0  0  0  0
  139.9900   80.8140  217.7250 C   0  0  0  0  0  0  0  0  0  0  0  0
  139.4041   79.9020  217.5383 H   0  0  0  0  0  0  0  0  0  0  0  0
  136.5170   80.2860  219.9760 N   0  0  0  0  0  0  0  0  0  0  0  0
  135.7790   80.7700  219.4170 H   0  0  0  0  0  0  0  0  0  0  0  0
  136.1540   79.2850  220.8240 C   0  0  0  0  0  0  0  0  0  0  0  0
  135.0963   78.9952  220.9096 H   0  0  0  0  0  0  0  0  0  0  0  0
  137.1250   78.6220  221.5890 C   0  0  0  0  0  0  0  0  0  0  0  0
  136.7560   77.6890  222.6150 N   0  0  0  0  0  0  0  0  0  0  0  0
  135.6550   78.0380  223.5180 C   0  0  0  0  0  0  0  0  0  0  0  0
  135.9886   77.9323  224.5609 H   0  0  0  0  0  0  0  0  0  0  0  0
  135.3466   79.0780  223.3353 H   0  0  0  0  0  0  0  0  0  0  0  0
  134.8038   77.3656  223.3353 H   0  0  0  0  0  0  0  0  0  0  0  0
  1  2  1  0
  2  3  1  0
  3  4  2  0
  4  5  1  0
  4  6  1  0
  6  7  1  0
  6  8  1  0
  6  9  1  0
  9 10  1  0
 10 11  2  0
 11 12  1  0
 11 13  1  0
 13 14  1  0
 13 15  2  0
 15 16  1  0
 15 17  1  0
 17 18  1  0
 17 19  2  0
 19 20  1  0
  9 21  1  0
 21 22  2  0
 22 23  1  0
 23 24  2  0
 24 25  1  0
 25 26  2  0
 26 27  1  0
 26 28  1  0
 28 29  1  0
 28 30  2  0
 30 31  1  0
 30 32  1  0
 32 33  1  0
 33 34  2  0
 33 35  1  0
 35 36  1  1
 35 37  1  0
 37 38  1  0
 37 39  1  0
 37 40  1  0
 40 41  1  0
 40 42  1  0
 40 43  1  0
 43 44  1  6
 43 45  1  0
 45 46  1  0
 46 47  1  0
 46 48  1  0
 46 49  1  0
 49 50  1  0
 49 51  1  0
 49 52  1  0
 43 53  1  0
 53 54  1  0
 53 55  1  0
 53 56  1  0
 56 57  1  0
 56 58  1  0
 32 59  2  0
 59 60  1  0
 23 61  1  0
 61 62  1  0
 61 63  1  0
 63 64  1  0
 63 65  2  0
 65 66  1  0
 66 67  1  0
 67 68  1  0
 67 69  1  0
 67 70  1  0
 66  3  1  0
 19 10  1  0
 65 21  1  0
 59 25  1  0
 56 35  1  0
M  CHG  1  35   1
M  END
>  <UniqueID>  (17) 
21

>  <SMILES>  (17) 
CCOC1CC[NH+](C(=O)c2cccc(/N=c3\nc4c(c[nH]3)N(C)C(O)=CCN4c3ccccc3)c2)CC1

>  <Energy>  (17) 
107.97179489479667

>  <Genealogy>  (17) 
CCOC1CC[NH+](C(=O)c2cccc(N=c3nc4c(c[nH]3)N(C)C(=O)CCN4c3ccccc3)c2)CC1 (protonated)
CCOC1CC[NH+](C(=O)c2cccc(N=c3nc4c(c[nH]3)N(C)C(O)=CCN4c3ccccc3)c2)CC1 (tautomer)
CCOC1CC[NH+](C(=O)c2cccc(/N=c3\nc4c(c[nH]3)N(C)C(O)=CCN4c3ccccc3)c2)CC1 (cis-trans isomerization)
CCOC1CC[NH+](C(=O)c2cccc(/N=c3\nc4c(c[nH]3)N(C)C(O)=CCN4c3ccccc3)c2)CC1 (3D coordinates assigned)
CCOC1CC[NH+](C(=O)c2cccc(/N=c3\nc4c(c[nH]3)N(C)C(O)=CCN4c3ccccc3)c2)CC1 (nonaromatic ring conformer: 107.97179489479667 kcal/mol)

>  <smiles>  (17) 
CCOC1CCN(C(=O)c2cccc(N=c3nc4c(c[nH]3)N(C)C(=O)CCN4c3ccccc3)c2)CC1

>  <score_type>  (17) 
oracle

>  <origin>  (17) 
autodockgpu

>  <m_score__min__energy>  (17) 
-7.3200000000000003

>  <m_primary>  (17) 
energy

>  <meeko>  (17) 
{"free_energy": -4.07, "intermolecular_energy": -7.95, "internal_energy": -3.41, "cluster_size": 1, "cluster_id": 9, "rank_in_cluster": 1}

>  <energy>  (17) 
-4.37

>  <cluster_rmsd>  (17) 
0.0

>  <rmsd>  (17) 
271.5

>  <cluster>  (17) 
7

$$$$
FLYFIANCBVDDDY-IGPOTQGWNA-O
     RDKit          3D

 70 74  0  0  0  0  0  0  0  0999 V2000
  144.8200   75.3290  218.0160 H   0  0  0  0  0  0  0  0  0  0  0  0
  144.0010   74.9080  218.4360 O   0  0  0  0  0  0  0  0  0  0  0  0
  143.0280   75.6630  219.0950 C   0  0  0  0  0  0  0  0  0  0  0  0
  142.8980   76.9470  218.7150 C   0  0  0  0  0  0  0  0  0  0  0  0
  143.3674   77.2026  217.7536 H   0  0  0  0  0  0  0  0  0  0  0  0
  142.2020   78.0870  219.4160 C   0  0  0  0  0  0  0  0  0  0  0  0
  142.9295   78.9012  219.5499 H   0  0  0  0  0  0  0  0  0  0  0  0
  141.3490   78.3660  218.7799 H   0  0  0  0  0  0  0  0  0  0  0  0
  141.6440   77.7540  220.7300 N   0  0  0  0  0  0  0  0  0  0  0  0
  141.7110   78.6970  221.8190 C   0  0  0  0  0  0  0  0  0  0  0  0
  141.3990   78.3140  223.1370 C   0  0  0  0  0  0  0  0  0  0  0  0
  141.0352   77.2958  223.3391 H   0  0  0  0  0  0  0  0  0  0  0  0
  141.5490   79.2210  224.1910 C   0  0  0  0  0  0  0  0  0  0  0  0
  141.3010   78.9156  225.2183 H   0  0  0  0  0  0  0  0  0  0  0  0
  142.0140   80.5160  223.9400 C   0  0  0  0  0  0  0  0  0  0  0  0
  142.1275   81.2297  224.7693 H   0  0  0  0  0  0  0  0  0  0  0  0
  142.3340   80.9030  222.6380 C   0  0  0  0  0  0  0  0  0  0  0  0
  142.7027   81.9208  222.4430 H   0  0  0  0  0  0  0  0  0  0  0  0
  142.1870   80.0000  221.5810 C   0  0  0  0  0  0  0  0  0  0  0  0
  142.4448   80.3096  220.5574 H   0  0  0  0  0  0  0  0  0  0  0  0
  140.6220   76.7560  220.7830 C   0  0  0  0  0  0  0  0  0  0  0  0
  139.3820   77.0840  221.2290 N   0  0  0  0  0  0  0  0  0  0  0  0
  138.3860   76.1620  221.3140 C   0  0  0  0  0  0  0  0  0  0  0  0
  137.2050   76.5000  221.7490 N   0  0  0  0  0  0  0  0  0  0  0  0
  136.9020   77.7470  222.3950 C   0  0  0  0  0  0  0  0  0  0  0  0
  135.8410   77.8520  223.3080 C   0  0  0  0  0  0  0  0  0  0  0  0
  135.2191   76.9721  223.5294 H   0  0  0  0  0  0  0  0  0  0  0  0
  135.5730   79.0680  223.9350 C   0  0  0  0  0  0  0  0  0  0  0  0
  134.7418   79.1441  224.6515 H   0  0  0  0  0  0  0  0  0  0  0  0
  136.3570   80.1900  223.6560 C   0  0  0  0  0  0  0  0  0  0  0  0
  136.1423   81.1444  224.1591 H   0  0  0  0  0  0  0  0  0  0  0  0
  137.4210   80.1090  222.7350 C   0  0  0  0  0  0  0  0  0  0  0  0
  138.3010   81.2760  222.4470 C   0  0  0  0  0  0  0  0  0  0  0  0
  139.2560   81.5090  223.2420 O   0  0  0  0  0  0  0  0  0  0  0  0
  138.0670   82.1500  221.3030 N   0  0  2  0  0  0  0  0  0  0  0  0
  137.0690   82.4540  221.3510 H   0  0  0  0  0  0  0  0  0  0  0  0
  138.2060   81.4660  219.9890 C   0  0  0  0  0  0  0  0  0  0  0  0
  137.7550   82.1040  219.2147 H   0  0  0  0  0  0  0  0  0  0  0  0
  137.6991   80.4935  220.0746 H   0  0  0  0  0  0  0  0  0  0  0  0
  139.6720   81.1820  219.5960 C   0  0  0  0  0  0  0  0  0  0  0  0
  139.6978   80.8009  218.5644 H   0  0  0  0  0  0  0  0  0  0  0  0
  140.0795   80.4402  220.2986 H   0  0  0  0  0  0  0  0  0  0  0  0
  140.5350   82.4500  219.6810 C   0  0  2  0  0  0  0  0  0  0  0  0
  140.2054   83.1596  218.9078 H   0  0  0  0  0  0  0  0  0  0  0  0
  141.8990   82.1210  219.4780 O   0  0  0  0  0  0  0  0  0  0  0  0
  142.0870   81.3980  218.2760 C   0  0  0  0  0  0  0  0  0  0  0  0
  141.1344   81.3509  217.7280 H   0  0  0  0  0  0  0  0  0  0  0  0
  142.4321   80.3823  218.5195 H   0  0  0  0  0  0  0  0  0  0  0  0
  143.1340   82.0820  217.4060 C   0  0  0  0  0  0  0  0  0  0  0  0
  143.8818   82.5705  218.0480 H   0  0  0  0  0  0  0  0  0  0  0  0
  143.6293   81.3328  216.7709 H   0  0  0  0  0  0  0  0  0  0  0  0
  142.6469   82.8366  216.7709 H   0  0  0  0  0  0  0  0  0  0  0  0
  140.3860   83.0700  221.0700 C   0  0  0  0  0  0  0  0  0  0  0  0
  140.9618   84.0063  221.1137 H   0  0  0  0  0  0  0  0  0  0  0  0
  140.7638   82.3615  221.8219 H   0  0  0  0  0  0  0  0  0  0  0  0
  138.9090   83.3690  221.3610 C   0  0  0  0  0  0  0  0  0  0  0  0
  138.5403   84.0895  220.6161 H   0  0  0  0  0  0  0  0  0  0  0  0
  138.8422   83.7764  222.3806 H   0  0  0  0  0  0  0  0  0  0  0  0
  137.6640   78.8800  222.0890 C   0  0  0  0  0  0  0  0  0  0  0  0
  138.4622   78.8107  221.3353 H   0  0  0  0  0  0  0  0  0  0  0  0
  138.6240   74.8820  220.9180 N   0  0  0  0  0  0  0  0  0  0  0  0
  137.8640   74.1660  220.9690 H   0  0  0  0  0  0  0  0  0  0  0  0
  139.8590   74.5050  220.4900 C   0  0  0  0  0  0  0  0  0  0  0  0
  140.0435   73.4602  220.1996 H   0  0  0  0  0  0  0  0  0  0  0  0
  140.8980   75.4450  220.4180 C   0  0  0  0  0  0  0  0  0  0  0  0
  142.2480   75.0440  220.1410 N   0  0  0  0  0  0  0  0  0  0  0  0
  142.7830   73.8610  220.8230 C   0  0  0  0  0  0  0  0  0  0  0  0
  142.7180   74.0047  221.9116 H   0  0  0  0  0  0  0  0  0  0  0  0
  142.1978   72.9754  220.5344 H   0  0  0  0  0  0  0  0  0  0  0  0
  143.8345   73.7156  220.5344 H   0  0  0  0  0  0  0  0  0  0  0  0
  1  2  1  0
  2  3  1  0
  3  4  2  0
  4  5  1  0
  4  6  1  0
  6  7  1  0
  6  8  1  0
  6  9  1  0
  9 10  1  0
 10 11  2  0
 11 12  1  0
 11 13  1  0
 13 14  1  0
 13 15  2  0
 15 16  1  0
 15 17  1  0
 17 18  1  0
 17 19  2  0
 19 20  1  0
  9 21  1  0
 21 22  2  0
 22 23  1  0
 23 24  2  0
 24 25  1  0
 25 26  2  0
 26 27  1  0
 26 28  1  0
 28 29  1  0
 28 30  2  0
 30 31  1  0
 30 32  1  0
 32 33  1  0
 33 34  2  0
 33 35  1  0
 35 36  1  1
 35 37  1  0
 37 38  1  0
 37 39  1  0
 37 40  1  0
 40 41  1  0
 40 42  1  0
 40 43  1  0
 43 44  1  1
 43 45  1  0
 45 46  1  0
 46 47  1  0
 46 48  1  0
 46 49  1  0
 49 50  1  0
 49 51  1  0
 49 52  1  0
 43 53  1  0
 53 54  1  0
 53 55  1  0
 53 56  1  0
 56 57  1  0
 56 58  1  0
 32 59  2  0
 59 60  1  0
 23 61  1  0
 61 62  1  0
 61 63  1  0
 63 64  1  0
 63 65  2  0
 65 66  1  0
 66 67  1  0
 67 68  1  0
 67 69  1  0
 67 70  1  0
 66  3  1  0
 19 10  1  0
 65 21  1  0
 59 25  1  0
 56 35  1  0
M  CHG  1  35   1
M  END
>  <UniqueID>  (18) 
21

>  <SMILES>  (18) 
CCOC1CC[NH+](C(=O)c2cccc(/N=c3\nc4c(c[nH]3)N(C)C(O)=CCN4c3ccccc3)c2)CC1

>  <Energy>  (18) 
107.97179489479667

>  <Genealogy>  (18) 
CCOC1CC[NH+](C(=O)c2cccc(N=c3nc4c(c[nH]3)N(C)C(=O)CCN4c3ccccc3)c2)CC1 (protonated)
CCOC1CC[NH+](C(=O)c2cccc(N=c3nc4c(c[nH]3)N(C)C(O)=CCN4c3ccccc3)c2)CC1 (tautomer)
CCOC1CC[NH+](C(=O)c2cccc(/N=c3\nc4c(c[nH]3)N(C)C(O)=CCN4c3ccccc3)c2)CC1 (cis-trans isomerization)
CCOC1CC[NH+](C(=O)c2cccc(/N=c3\nc4c(c[nH]3)N(C)C(O)=CCN4c3ccccc3)c2)CC1 (3D coordinates assigned)
CCOC1CC[NH+](C(=O)c2cccc(/N=c3\nc4c(c[nH]3)N(C)C(O)=CCN4c3ccccc3)c2)CC1 (nonaromatic ring conformer: 107.97179489479667 kcal/mol)

>  <smiles>  (18) 
CCOC1CCN(C(=O)c2cccc(N=c3nc4c(c[nH]3)N(C)C(=O)CCN4c3ccccc3)c2)CC1

>  <score_type>  (18) 
oracle

>  <origin>  (18) 
autodockgpu

>  <m_score__min__energy>  (18) 
-7.3200000000000003

>  <m_primary>  (18) 
energy

>  <meeko>  (18) 
{"free_energy": -4.31, "intermolecular_energy": -8.19, "internal_energy": -2.96, "cluster_size": 2, "cluster_id": 8, "rank_in_cluster": 2}

>  <energy>  (18) 
-4.37

>  <cluster_rmsd>  (18) 
0.0

>  <rmsd>  (18) 
272.05

>  <cluster>  (18) 
8

$$$$
FLYFIANCBVDDDY-IGPOTQGWNA-O
     RDKit          3D

 70 74  0  0  0  0  0  0  0  0999 V2000
  136.2880   80.8670  219.3080 H   0  0  0  0  0  0  0  0  0  0  0  0
  136.3700   80.0090  219.8370 O   0  0  0  0  0  0  0  0  0  0  0  0
  137.5850   79.5700  220.3670 C   0  0  0  0  0  0  0  0  0  0  0  0
  138.6610   79.6420  219.5590 C   0  0  0  0  0  0  0  0  0  0  0  0
  138.5283   80.2508  218.6525 H   0  0  0  0  0  0  0  0  0  0  0  0
  140.0210   79.0090  219.7170 C   0  0  0  0  0  0  0  0  0  0  0  0
  140.0713   78.1360  219.0497 H   0  0  0  0  0  0  0  0  0  0  0  0
  140.7555   79.7893  219.4687 H   0  0  0  0  0  0  0  0  0  0  0  0
  140.3390   78.5620  221.0770 N   0  0  0  0  0  0  0  0  0  0  0  0
  141.0460   79.4270  221.9900 C   0  0  0  0  0  0  0  0  0  0  0  0
  141.1360   80.8130  221.7600 C   0  0  0  0  0  0  0  0  0  0  0  0
  140.7171   81.2429  220.8382 H   0  0  0  0  0  0  0  0  0  0  0  0
  141.7550   81.6460  222.6970 C   0  0  0  0  0  0  0  0  0  0  0  0
  141.8252   82.7276  222.5092 H   0  0  0  0  0  0  0  0  0  0  0  0
  142.2850   81.1050  223.8730 C   0  0  0  0  0  0  0  0  0  0  0  0
  142.7738   81.7610  224.6083 H   0  0  0  0  0  0  0  0  0  0  0  0
  142.1940   79.7330  224.1140 C   0  0  0  0  0  0  0  0  0  0  0  0
  142.6099   79.3092  225.0400 H   0  0  0  0  0  0  0  0  0  0  0  0
  141.5750   78.8970  223.1800 C   0  0  0  0  0  0  0  0  0  0  0  0
  141.5013   77.8174  223.3774 H   0  0  0  0  0  0  0  0  0  0  0  0
  139.5300   77.5280  221.6410 C   0  0  0  0  0  0  0  0  0  0  0  0
  140.0300   76.2720  221.7650 N   0  0  0  0  0  0  0  0  0  0  0  0
  139.2890   75.2550  222.2790 C   0  0  0  0  0  0  0  0  0  0  0  0
  139.7900   74.0560  222.3840 N   0  0  0  0  0  0  0  0  0  0  0  0
  140.7980   73.5170  221.5140 C   0  0  0  0  0  0  0  0  0  0  0  0
  140.7890   72.1620  221.1450 C   0  0  0  0  0  0  0  0  0  0  0  0
  140.0073   71.4930  221.5340 H   0  0  0  0  0  0  0  0  0  0  0  0
  141.7680   71.6620  220.2870 C   0  0  0  0  0  0  0  0  0  0  0  0
  141.7542   70.6006  219.9984 H   0  0  0  0  0  0  0  0  0  0  0  0
  142.7660   72.5050  219.7930 C   0  0  0  0  0  0  0  0  0  0  0  0
  143.5321   72.1039  219.1132 H   0  0  0  0  0  0  0  0  0  0  0  0
  142.7990   73.8660  220.1590 C   0  0  0  0  0  0  0  0  0  0  0  0
  143.8260   74.8000  219.6160 C   0  0  0  0  0  0  0  0  0  0  0  0
  144.7940   75.1160  220.3650 O   0  0  0  0  0  0  0  0  0  0  0  0
  143.7200   75.3610  218.2740 N   0  0  2  0  0  0  0  0  0  0  0  0
  144.6760   75.3310  217.8550 H   0  0  0  0  0  0  0  0  0  0  0  0
  143.3280   76.7960  218.2540 C   0  0  0  0  0  0  0  0  0  0  0  0
  143.5359   77.2001  217.2523 H   0  0  0  0  0  0  0  0  0  0  0  0
  143.9118   77.3025  219.0367 H   0  0  0  0  0  0  0  0  0  0  0  0
  141.8350   77.0300  218.5760 C   0  0  0  0  0  0  0  0  0  0  0  0
  141.5961   78.0911  218.4117 H   0  0  0  0  0  0  0  0  0  0  0  0
  141.6598   76.7466  219.6243 H   0  0  0  0  0  0  0  0  0  0  0  0
  140.9250   76.1700  217.6860 C   0  0  2  0  0  0  0  0  0  0  0  0
  141.0103   76.5167  216.6456 H   0  0  0  0  0  0  0  0  0  0  0  0
  139.5800   76.2830  218.1190 O   0  0  0  0  0  0  0  0  0  0  0  0
  139.1290   75.0920  218.7340 C   0  0  0  0  0  0  0  0  0  0  0  0
  139.7947   74.8427  219.5734 H   0  0  0  0  0  0  0  0  0  0  0  0
  139.1381   74.2806  217.9913 H   0  0  0  0  0  0  0  0  0  0  0  0
  137.7090   75.2700  219.2550 C   0  0  0  0  0  0  0  0  0  0  0  0
  137.7192   75.2687  220.3550 H   0  0  0  0  0  0  0  0  0  0  0  0
  137.3028   76.2261  218.8932 H   0  0  0  0  0  0  0  0  0  0  0  0
  137.0794   74.4437  218.8932 H   0  0  0  0  0  0  0  0  0  0  0  0
  141.3500   74.7060  217.7940 C   0  0  0  0  0  0  0  0  0  0  0  0
  140.7329   74.0978  217.1163 H   0  0  0  0  0  0  0  0  0  0  0  0
  141.2130   74.3687  218.8320 H   0  0  0  0  0  0  0  0  0  0  0  0
  142.8280   74.5520  217.4090 C   0  0  0  0  0  0  0  0  0  0  0  0
  142.9577   74.8755  216.3657 H   0  0  0  0  0  0  0  0  0  0  0  0
  143.1017   73.4944  217.5375 H   0  0  0  0  0  0  0  0  0  0  0  0
  141.8190   74.3520  221.0460 C   0  0  0  0  0  0  0  0  0  0  0  0
  141.8565   75.4010  221.3751 H   0  0  0  0  0  0  0  0  0  0  0  0
  138.0200   75.5000  222.7050 N   0  0  0  0  0  0  0  0  0  0  0  0
  137.4420   74.7280  223.1100 H   0  0  0  0  0  0  0  0  0  0  0  0
  137.4700   76.7380  222.5730 C   0  0  0  0  0  0  0  0  0  0  0  0
  136.4333   76.9147  222.8956 H   0  0  0  0  0  0  0  0  0  0  0  0
  138.2210   77.7890  222.0270 C   0  0  0  0  0  0  0  0  0  0  0  0
  137.6170   79.0530  221.7150 N   0  0  0  0  0  0  0  0  0  0  0  0
  137.1800   79.9140  222.8190 C   0  0  0  0  0  0  0  0  0  0  0  0
  137.4241   79.4331  223.7777 H   0  0  0  0  0  0  0  0  0  0  0  0
  137.6950   80.8838  222.7536 H   0  0  0  0  0  0  0  0  0  0  0  0
  136.0932   80.0708  222.7536 H   0  0  0  0  0  0  0  0  0  0  0  0
  1  2  1  0
  2  3  1  0
  3  4  2  0
  4  5  1  0
  4  6  1  0
  6  7  1  0
  6  8  1  0
  6  9  1  0
  9 10  1  0
 10 11  2  0
 11 12  1  0
 11 13  1  0
 13 14  1  0
 13 15  2  0
 15 16  1  0
 15 17  1  0
 17 18  1  0
 17 19  2  0
 19 20  1  0
  9 21  1  0
 21 22  2  0
 22 23  1  0
 23 24  2  0
 24 25  1  0
 25 26  2  0
 26 27  1  0
 26 28  1  0
 28 29  1  0
 28 30  2  0
 30 31  1  0
 30 32  1  0
 32 33  1  0
 33 34  2  0
 33 35  1  0
 35 36  1  6
 35 37  1  0
 37 38  1  0
 37 39  1  0
 37 40  1  0
 40 41  1  0
 40 42  1  0
 40 43  1  0
 43 44  1  1
 43 45  1  0
 45 46  1  0
 46 47  1  0
 46 48  1  0
 46 49  1  0
 49 50  1  0
 49 51  1  0
 49 52  1  0
 43 53  1  0
 53 54  1  0
 53 55  1  0
 53 56  1  0
 56 57  1  0
 56 58  1  0
 32 59  2  0
 59 60  1  0
 23 61  1  0
 61 62  1  0
 61 63  1  0
 63 64  1  0
 63 65  2  0
 65 66  1  0
 66 67  1  0
 67 68  1  0
 67 69  1  0
 67 70  1  0
 66  3  1  0
 19 10  1  0
 65 21  1  0
 59 25  1  0
 56 35  1  0
M  CHG  1  35   1
M  END
>  <UniqueID>  (19) 
21

>  <SMILES>  (19) 
CCOC1CC[NH+](C(=O)c2cccc(/N=c3\nc4c(c[nH]3)N(C)C(O)=CCN4c3ccccc3)c2)CC1

>  <Energy>  (19) 
107.97179489479667

>  <Genealogy>  (19) 
CCOC1CC[NH+](C(=O)c2cccc(N=c3nc4c(c[nH]3)N(C)C(=O)CCN4c3ccccc3)c2)CC1 (protonated)
CCOC1CC[NH+](C(=O)c2cccc(N=c3nc4c(c[nH]3)N(C)C(O)=CCN4c3ccccc3)c2)CC1 (tautomer)
CCOC1CC[NH+](C(=O)c2cccc(/N=c3\nc4c(c[nH]3)N(C)C(O)=CCN4c3ccccc3)c2)CC1 (cis-trans isomerization)
CCOC1CC[NH+](C(=O)c2cccc(/N=c3\nc4c(c[nH]3)N(C)C(O)=CCN4c3ccccc3)c2)CC1 (3D coordinates assigned)
CCOC1CC[NH+](C(=O)c2cccc(/N=c3\nc4c(c[nH]3)N(C)C(O)=CCN4c3ccccc3)c2)CC1 (nonaromatic ring conformer: 107.97179489479667 kcal/mol)

>  <smiles>  (19) 
CCOC1CCN(C(=O)c2cccc(N=c3nc4c(c[nH]3)N(C)C(=O)CCN4c3ccccc3)c2)CC1

>  <score_type>  (19) 
oracle

>  <origin>  (19) 
autodockgpu

>  <m_score__min__energy>  (19) 
-7.3200000000000003

>  <m_primary>  (19) 
energy

>  <meeko>  (19) 
{"free_energy": -4.83, "intermolecular_energy": -8.71, "internal_energy": -2.92, "cluster_size": 3, "cluster_id": 5, "rank_in_cluster": 2}

>  <energy>  (19) 
-4.31

>  <cluster_rmsd>  (19) 
0.99

>  <rmsd>  (19) 
271.82

>  <cluster>  (19) 
8

$$$$
FLYFIANCBVDDDY-IGPOTQGWNA-O
     RDKit          3D

 70 74  0  0  0  0  0  0  0  0999 V2000
  132.5410   68.2410  225.7110 H   0  0  0  0  0  0  0  0  0  0  0  0
  133.3950   68.5980  226.1200 O   0  0  0  0  0  0  0  0  0  0  0  0
  134.3050   69.3700  225.3940 C   0  0  0  0  0  0  0  0  0  0  0  0
  134.9650   68.7510  224.3980 C   0  0  0  0  0  0  0  0  0  0  0  0
  134.5161   67.8098  224.0479 H   0  0  0  0  0  0  0  0  0  0  0  0
  136.2340   69.1650  223.6930 C   0  0  0  0  0  0  0  0  0  0  0  0
  136.9697   68.3556  223.8095 H   0  0  0  0  0  0  0  0  0  0  0  0
  135.9581   69.3538  222.6450 H   0  0  0  0  0  0  0  0  0  0  0  0
  136.8380   70.4050  224.1900 N   0  0  0  0  0  0  0  0  0  0  0  0
  138.2700   70.5390  224.2870 C   0  0  0  0  0  0  0  0  0  0  0  0
  138.9930   71.3330  223.3770 C   0  0  0  0  0  0  0  0  0  0  0  0
  138.4715   71.8131  222.5358 H   0  0  0  0  0  0  0  0  0  0  0  0
  140.3700   71.5150  223.5360 C   0  0  0  0  0  0  0  0  0  0  0  0
  140.9289   72.1332  222.8180 H   0  0  0  0  0  0  0  0  0  0  0  0
  141.0380   70.9120  224.6070 C   0  0  0  0  0  0  0  0  0  0  0  0
  142.1216   71.0553  224.7301 H   0  0  0  0  0  0  0  0  0  0  0  0
  140.3290   70.1280  225.5200 C   0  0  0  0  0  0  0  0  0  0  0  0
  140.8547   69.6555  226.3629 H   0  0  0  0  0  0  0  0  0  0  0  0
  138.9520   69.9430  225.3640 C   0  0  0  0  0  0  0  0  0  0  0  0
  138.3980   69.3274  226.0880 H   0  0  0  0  0  0  0  0  0  0  0  0
  136.0690   71.6060  224.0850 C   0  0  0  0  0  0  0  0  0  0  0  0
  136.5210   72.6320  223.3200 N   0  0  0  0  0  0  0  0  0  0  0  0
  135.8310   73.7980  223.2080 C   0  0  0  0  0  0  0  0  0  0  0  0
  136.2870   74.7700  222.4710 N   0  0  0  0  0  0  0  0  0  0  0  0
  137.6790   74.9940  222.1890 C   0  0  0  0  0  0  0  0  0  0  0  0
  138.4580   74.0130  221.5540 C   0  0  0  0  0  0  0  0  0  0  0  0
  138.0059   73.0499  221.2745 H   0  0  0  0  0  0  0  0  0  0  0  0
  139.8020   74.2560  221.2770 C   0  0  0  0  0  0  0  0  0  0  0  0
  140.4071   73.4855  220.7768 H   0  0  0  0  0  0  0  0  0  0  0  0
  140.3830   75.4760  221.6330 C   0  0  0  0  0  0  0  0  0  0  0  0
  141.4432   75.6620  221.4063 H   0  0  0  0  0  0  0  0  0  0  0  0
  139.6220   76.4700  222.2800 C   0  0  0  0  0  0  0  0  0  0  0  0
  140.2020   77.7970  222.6340 C   0  0  0  0  0  0  0  0  0  0  0  0
  139.4280   78.6710  223.1190 O   0  0  0  0  0  0  0  0  0  0  0  0
  141.6100   78.1030  222.4110 N   0  0  2  0  0  0  0  0  0  0  0  0
  142.1220   77.1930  222.4030 H   0  0  0  0  0  0  0  0  0  0  0  0
  142.2330   78.8930  223.5070 C   0  0  0  0  0  0  0  0  0  0  0  0
  143.3261   78.8429  223.3949 H   0  0  0  0  0  0  0  0  0  0  0  0
  141.8916   78.4555  224.4568 H   0  0  0  0  0  0  0  0  0  0  0  0
  141.8090   80.3780  223.5110 C   0  0  0  0  0  0  0  0  0  0  0  0
  142.4065   80.9183  224.2601 H   0  0  0  0  0  0  0  0  0  0  0  0
  140.7372   80.4303  223.7531 H   0  0  0  0  0  0  0  0  0  0  0  0
  142.0250   81.0290  222.1360 C   0  0  2  0  0  0  0  0  0  0  0  0
  143.1041   81.0797  221.9289 H   0  0  0  0  0  0  0  0  0  0  0  0
  141.4740   82.3350  222.1290 O   0  0  0  0  0  0  0  0  0  0  0  0
  140.6860   82.5620  220.9770 C   0  0  0  0  0  0  0  0  0  0  0  0
  139.7462   81.9969  221.0633 H   0  0  0  0  0  0  0  0  0  0  0  0
  141.2456   82.2302  220.0900 H   0  0  0  0  0  0  0  0  0  0  0  0
  140.3690   84.0460  220.8360 C   0  0  0  0  0  0  0  0  0  0  0  0
  140.2727   84.4969  221.8347 H   0  0  0  0  0  0  0  0  0  0  0  0
  141.1811   84.5437  220.2858 H   0  0  0  0  0  0  0  0  0  0  0  0
  139.4244   84.1685  220.2858 H   0  0  0  0  0  0  0  0  0  0  0  0
  141.3170   80.1970  221.0670 C   0  0  0  0  0  0  0  0  0  0  0  0
  141.5151   80.6331  220.0767 H   0  0  0  0  0  0  0  0  0  0  0  0
  140.2356   80.1988  221.2683 H   0  0  0  0  0  0  0  0  0  0  0  0
  141.8300   78.7500  221.0960 C   0  0  0  0  0  0  0  0  0  0  0  0
  142.9083   78.7523  220.8785 H   0  0  0  0  0  0  0  0  0  0  0  0
  141.2699   78.1785  220.3412 H   0  0  0  0  0  0  0  0  0  0  0  0
  138.2710   76.2020  222.5770 C   0  0  0  0  0  0  0  0  0  0  0  0
  137.6747   76.9502  223.1198 H   0  0  0  0  0  0  0  0  0  0  0  0
  134.6420   73.9370  223.8560 N   0  0  0  0  0  0  0  0  0  0  0  0
  134.0970   74.8250  223.7700 H   0  0  0  0  0  0  0  0  0  0  0  0
  134.1660   72.9440  224.6550 C   0  0  0  0  0  0  0  0  0  0  0  0
  133.2177   73.0818  225.1951 H   0  0  0  0  0  0  0  0  0  0  0  0
  134.8810   71.7450  224.7920 C   0  0  0  0  0  0  0  0  0  0  0  0
  134.4970   70.7540  225.7570 N   0  0  0  0  0  0  0  0  0  0  0  0
  134.1250   71.1960  227.1050 C   0  0  0  0  0  0  0  0  0  0  0  0
  134.6458   70.5772  227.8505 H   0  0  0  0  0  0  0  0  0  0  0  0
  134.4123   72.2495  227.2378 H   0  0  0  0  0  0  0  0  0  0  0  0
  133.0379   71.0928  227.2378 H   0  0  0  0  0  0  0  0  0  0  0  0
  1  2  1  0
  2  3  1  0
  3  4  2  0
  4  5  1  0
  4  6  1  0
  6  7  1  0
  6  8  1  0
  6  9  1  0
  9 10  1  0
 10 11  2  0
 11 12  1  0
 11 13  1  0
 13 14  1  0
 13 15  2  0
 15 16  1  0
 15 17  1  0
 17 18  1  0
 17 19  2  0
 19 20  1  0
  9 21  1  0
 21 22  2  0
 22 23  1  0
 23 24  2  0
 24 25  1  0
 25 26  2  0
 26 27  1  0
 26 28  1  0
 28 29  1  0
 28 30  2  0
 30 31  1  0
 30 32  1  0
 32 33  1  0
 33 34  2  0
 33 35  1  0
 35 36  1  6
 35 37  1  0
 37 38  1  0
 37 39  1  0
 37 40  1  0
 40 41  1  0
 40 42  1  0
 40 43  1  0
 43 44  1  1
 43 45  1  0
 45 46  1  0
 46 47  1  0
 46 48  1  0
 46 49  1  0
 49 50  1  0
 49 51  1  0
 49 52  1  0
 43 53  1  0
 53 54  1  0
 53 55  1  0
 53 56  1  0
 56 57  1  0
 56 58  1  0
 32 59  2  0
 59 60  1  0
 23 61  1  0
 61 62  1  0
 61 63  1  0
 63 64  1  0
 63 65  2  0
 65 66  1  0
 66 67  1  0
 67 68  1  0
 67 69  1  0
 67 70  1  0
 66  3  1  0
 19 10  1  0
 65 21  1  0
 59 25  1  0
 56 35  1  0
M  CHG  1  35   1
M  END
>  <UniqueID>  (20) 
21

>  <SMILES>  (20) 
CCOC1CC[NH+](C(=O)c2cccc(/N=c3\nc4c(c[nH]3)N(C)C(O)=CCN4c3ccccc3)c2)CC1

>  <Energy>  (20) 
107.97179489479667

>  <Genealogy>  (20) 
CCOC1CC[NH+](C(=O)c2cccc(N=c3nc4c(c[nH]3)N(C)C(=O)CCN4c3ccccc3)c2)CC1 (protonated)
CCOC1CC[NH+](C(=O)c2cccc(N=c3nc4c(c[nH]3)N(C)C(O)=CCN4c3ccccc3)c2)CC1 (tautomer)
CCOC1CC[NH+](C(=O)c2cccc(/N=c3\nc4c(c[nH]3)N(C)C(O)=CCN4c3ccccc3)c2)CC1 (cis-trans isomerization)
CCOC1CC[NH+](C(=O)c2cccc(/N=c3\nc4c(c[nH]3)N(C)C(O)=CCN4c3ccccc3)c2)CC1 (3D coordinates assigned)
CCOC1CC[NH+](C(=O)c2cccc(/N=c3\nc4c(c[nH]3)N(C)C(O)=CCN4c3ccccc3)c2)CC1 (nonaromatic ring conformer: 107.97179489479667 kcal/mol)

>  <smiles>  (20) 
CCOC1CCN(C(=O)c2cccc(N=c3nc4c(c[nH]3)N(C)C(=O)CCN4c3ccccc3)c2)CC1

>  <score_type>  (20) 
oracle

>  <origin>  (20) 
autodockgpu

>  <m_score__min__energy>  (20) 
-7.3200000000000003

>  <m_primary>  (20) 
energy

>  <meeko>  (20) 
{"free_energy": -5.72, "intermolecular_energy": -9.6, "internal_energy": -1.72, "cluster_size": 1, "cluster_id": 2, "rank_in_cluster": 1}

>  <energy>  (20) 
-4.07

>  <cluster_rmsd>  (20) 
0.0

>  <rmsd>  (20) 
270.91

>  <cluster>  (20) 
9

$$$$
KHESEQRZXKFTOB-IGPOTQGWNA-O
     RDKit          3D

 70 74  0  0  0  0  0  0  0  0999 V2000
  142.6274   81.1411  224.0554 H   0  0  0  0  0  0  0  0  0  0  0  0
  142.1540   80.2900  223.5440 C   0  0  0  0  0  0  0  0  0  0  0  0
  140.9240   79.8000  223.9940 C   0  0  0  0  0  0  0  0  0  0  0  0
  140.4316   80.2633  224.8617 H   0  0  0  0  0  0  0  0  0  0  0  0
  140.3200   78.7210  223.3410 C   0  0  0  0  0  0  0  0  0  0  0  0
  139.3557   78.3334  223.7015 H   0  0  0  0  0  0  0  0  0  0  0  0
  140.9390   78.1290  222.2260 C   0  0  0  0  0  0  0  0  0  0  0  0
  140.2750   77.0730  221.5020 N   0  0  0  0  0  0  0  0  0  0  0  0
  141.0800   76.1700  220.7010 C   0  0  0  0  0  0  0  0  0  0  0  0
  141.8960   76.7160  219.7610 N   0  0  0  0  0  0  0  0  0  0  0  0
  142.7030   75.9800  218.9600 C   0  0  0  0  0  0  0  0  0  0  0  0
  143.4130   76.5550  218.0320 N   0  0  0  0  0  0  0  0  0  0  0  0
  142.9520   77.6680  217.2500 C   0  0  0  0  0  0  0  0  0  0  0  0
  142.9010   77.5960  215.8470 C   0  0  0  0  0  0  0  0  0  0  0  0
  143.1781   76.6625  215.3353 H   0  0  0  0  0  0  0  0  0  0  0  0
  142.5000   78.7050  215.1020 C   0  0  0  0  0  0  0  0  0  0  0  0
  142.4529   78.6410  214.0049 H   0  0  0  0  0  0  0  0  0  0  0  0
  142.1580   79.8970  215.7460 C   0  0  0  0  0  0  0  0  0  0  0  0
  141.8465   80.7695  215.1529 H   0  0  0  0  0  0  0  0  0  0  0  0
  142.2100   79.9870  217.1480 C   0  0  0  0  0  0  0  0  0  0  0  0
  141.9000   81.2740  217.8140 C   0  0  0  0  0  0  0  0  0  0  0  0
  141.8780   82.3290  217.1210 O   0  0  0  0  0  0  0  0  0  0  0  0
  141.6470   81.3450  219.2410 N   0  0  1  0  0  0  0  0  0  0  0  0
  142.5080   81.0410  219.7510 H   0  0  0  0  0  0  0  0  0  0  0  0
  141.4230   82.7580  219.6400 C   0  0  0  0  0  0  0  0  0  0  0  0
  142.3884   83.2850  219.6554 H   0  0  0  0  0  0  0  0  0  0  0  0
  140.7417   83.2242  218.9130 H   0  0  0  0  0  0  0  0  0  0  0  0
  140.7850   82.8400  221.0300 C   0  0  0  0  0  0  0  0  0  0  0  0
  141.4284   82.3154  221.7517 H   0  0  0  0  0  0  0  0  0  0  0  0
  140.6801   83.9003  221.3033 H   0  0  0  0  0  0  0  0  0  0  0  0
  139.3830   82.1910  221.0400 C   0  0  2  0  0  0  0  0  0  0  0  0
  138.6330   82.9746  220.8569 H   0  0  0  0  0  0  0  0  0  0  0  0
  139.1790   81.5820  222.3070 O   0  0  0  0  0  0  0  0  0  0  0  0
  137.8610   81.0860  222.4450 C   0  0  0  0  0  0  0  0  0  0  0  0
  137.7385   80.2000  221.8047 H   0  0  0  0  0  0  0  0  0  0  0  0
  137.1516   81.8712  222.1447 H   0  0  0  0  0  0  0  0  0  0  0  0
  137.5860   80.7000  223.8940 C   0  0  0  0  0  0  0  0  0  0  0  0
  138.0918   81.4100  224.5649 H   0  0  0  0  0  0  0  0  0  0  0  0
  136.5024   80.7269  224.0813 H   0  0  0  0  0  0  0  0  0  0  0  0
  137.9654   79.6846  224.0813 H   0  0  0  0  0  0  0  0  0  0  0  0
  139.2240   81.1360  219.9200 C   0  0  0  0  0  0  0  0  0  0  0  0
  138.4738   80.3943  220.2316 H   0  0  0  0  0  0  0  0  0  0  0  0
  138.9066   81.6526  219.0022 H   0  0  0  0  0  0  0  0  0  0  0  0
  140.5490   80.4150  219.6330 C   0  0  0  0  0  0  0  0  0  0  0  0
  140.8562   79.8727  220.5394 H   0  0  0  0  0  0  0  0  0  0  0  0
  140.3762   79.7352  218.7856 H   0  0  0  0  0  0  0  0  0  0  0  0
  142.5760   78.8520  217.8950 C   0  0  0  0  0  0  0  0  0  0  0  0
  142.5666   78.8956  218.9941 H   0  0  0  0  0  0  0  0  0  0  0  0
  142.7210   74.6290  219.0930 N   0  0  0  0  0  0  0  0  0  0  0  0
  143.3340   74.0500  218.4740 H   0  0  0  0  0  0  0  0  0  0  0  0
  141.9350   74.0130  220.0140 C   0  0  0  0  0  0  0  0  0  0  0  0
  141.9678   72.9176  220.1088 H   0  0  0  0  0  0  0  0  0  0  0  0
  141.0780   74.7570  220.8500 C   0  0  0  0  0  0  0  0  0  0  0  0
  140.2230   74.0630  221.7860 N   0  0  0  0  0  0  0  0  0  0  0  0
  140.6320   72.7730  222.3490 C   0  0  0  0  0  0  0  0  0  0  0  0
  140.6139   72.8300  223.4474 H   0  0  0  0  0  0  0  0  0  0  0  0
  139.9384   71.9890  222.0111 H   0  0  0  0  0  0  0  0  0  0  0  0
  141.6507   72.5319  222.0111 H   0  0  0  0  0  0  0  0  0  0  0  0
  138.8540   74.4610  221.9480 C   0  0  0  0  0  0  0  0  0  0  0  0
  137.9300   73.6770  221.6010 O   0  0  0  0  0  0  0  0  0  0  0  0
  138.4950   75.7740  222.5680 C   0  0  0  0  0  0  0  0  0  0  0  0
  137.4171   75.7831  222.7871 H   0  0  0  0  0  0  0  0  0  0  0  0
  139.0828   75.8927  223.4902 H   0  0  0  0  0  0  0  0  0  0  0  0
  138.8220   76.9390  221.6380 C   0  0  0  0  0  0  0  0  0  0  0  0
  138.3783   76.7523  220.6489 H   0  0  0  0  0  0  0  0  0  0  0  0
  138.4096   77.8674  222.0600 H   0  0  0  0  0  0  0  0  0  0  0  0
  142.1780   78.6230  221.7850 C   0  0  0  0  0  0  0  0  0  0  0  0
  142.6746   78.1624  220.9183 H   0  0  0  0  0  0  0  0  0  0  0  0
  142.7820   79.6980  222.4440 C   0  0  0  0  0  0  0  0  0  0  0  0
  143.7536   80.0789  222.0962 H   0  0  0  0  0  0  0  0  0  0  0  0
  1  2  1  0
  2  3  2  0
  3  4  1  0
  3  5  1  0
  5  6  1  0
  5  7  2  0
  7  8  1  0
  8  9  1  0
  9 10  2  0
 10 11  1  0
 11 12  2  0
 12 13  1  0
 13 14  2  0
 14 15  1  0
 14 16  1  0
 16 17  1  0
 16 18  2  0
 18 19  1  0
 18 20  1  0
 20 21  1  0
 21 22  2  0
 21 23  1  0
 23 24  1  6
 23 25  1  0
 25 26  1  0
 25 27  1  0
 25 28  1  0
 28 29  1  0
 28 30  1  0
 28 31  1  0
 31 32  1  1
 31 33  1  0
 33 34  1  0
 34 35  1  0
 34 36  1  0
 34 37  1  0
 37 38  1  0
 37 39  1  0
 37 40  1  0
 31 41  1  0
 41 42  1  0
 41 43  1  0
 41 44  1  0
 44 45  1  0
 44 46  1  0
 20 47  2  0
 47 48  1  0
 11 49  1  0
 49 50  1  0
 49 51  1  0
 51 52  1  0
 51 53  2  0
 53 54  1  0
 54 55  1  0
 55 56  1  0
 55 57  1  0
 55 58  1  0
 54 59  1  0
 59 60  2  0
 59 61  1  0
 61 62  1  0
 61 63  1  0
 61 64  1  0
 64 65  1  0
 64 66  1  0
  7 67  1  0
 67 68  1  0
 67 69  2  0
 69 70  1  0
 69  2  1  0
 64  8  1  0
 53  9  1  0
 47 13  1  0
 44 23  1  0
M  CHG  1  23   1
M  END
>  <UniqueID>  (21) 
22

>  <SMILES>  (21) 
CCOC1CC[NH+](C(=O)c2cccc(/N=c3\nc4c(c[nH]3)N(C)C(=O)CCN4c3ccccc3)c2)CC1

>  <Energy>  (21) 
110.74662989392861

>  <Genealogy>  (21) 
CCOC1CC[NH+](C(=O)c2cccc(N=c3nc4c(c[nH]3)N(C)C(=O)CCN4c3ccccc3)c2)CC1 (protonated)
CCOC1CC[NH+](C(=O)c2cccc(/N=c3\nc4c(c[nH]3)N(C)C(=O)CCN4c3ccccc3)c2)CC1 (cis-trans isomerization)
CCOC1CC[NH+](C(=O)c2cccc(/N=c3\nc4c(c[nH]3)N(C)C(=O)CCN4c3ccccc3)c2)CC1 (3D coordinates assigned)
CCOC1CC[NH+](C(=O)c2cccc(/N=c3\nc4c(c[nH]3)N(C)C(=O)CCN4c3ccccc3)c2)CC1 (nonaromatic ring conformer: 110.74662989392861 kcal/mol)

>  <smiles>  (21) 
CCOC1CCN(C(=O)c2cccc(N=c3nc4c(c[nH]3)N(C)C(=O)CCN4c3ccccc3)c2)CC1

>  <score_type>  (21) 
oracle

>  <origin>  (21) 
autodockgpu

>  <m_score__min__energy>  (21) 
-6.8300000000000001

>  <m_primary>  (21) 
energy

>  <meeko>  (21) 
{"free_energy": -3.83, "intermolecular_energy": -7.41, "internal_energy": -2.97, "cluster_size": 1, "cluster_id": 10, "rank_in_cluster": 1}

>  <energy>  (21) 
-6.83

>  <cluster_rmsd>  (21) 
0.0

>  <rmsd>  (21) 
270.81

>  <cluster>  (21) 
1

$$$$
KHESEQRZXKFTOB-IGPOTQGWNA-O
     RDKit          3D

 70 74  0  0  0  0  0  0  0  0999 V2000
  141.8724   71.9890  228.7001 H   0  0  0  0  0  0  0  0  0  0  0  0
  141.3260   71.6030  227.8270 C   0  0  0  0  0  0  0  0  0  0  0  0
  140.2340   70.7480  228.0070 C   0  0  0  0  0  0  0  0  0  0  0  0
  139.9241   70.4585  229.0220 H   0  0  0  0  0  0  0  0  0  0  0  0
  139.5360   70.2610  226.8980 C   0  0  0  0  0  0  0  0  0  0  0  0
  138.6816   69.5836  227.0432 H   0  0  0  0  0  0  0  0  0  0  0  0
  139.9210   70.6330  225.5980 C   0  0  0  0  0  0  0  0  0  0  0  0
  139.1490   70.1990  224.4590 N   0  0  0  0  0  0  0  0  0  0  0  0
  139.2860   70.9250  223.2110 C   0  0  0  0  0  0  0  0  0  0  0  0
  139.9200   72.1260  223.2450 N   0  0  0  0  0  0  0  0  0  0  0  0
  140.1210   72.8930  222.1460 C   0  0  0  0  0  0  0  0  0  0  0  0
  140.6760   74.0660  222.2530 N   0  0  0  0  0  0  0  0  0  0  0  0
  139.9460   75.3020  222.2010 C   0  0  0  0  0  0  0  0  0  0  0  0
  138.5520   75.3130  222.0290 C   0  0  0  0  0  0  0  0  0  0  0  0
  137.9992   74.3637  221.9730 H   0  0  0  0  0  0  0  0  0  0  0  0
  137.8660   76.5240  221.9290 C   0  0  0  0  0  0  0  0  0  0  0  0
  136.7733   76.5274  221.8027 H   0  0  0  0  0  0  0  0  0  0  0  0
  138.5650   77.7320  221.9890 C   0  0  0  0  0  0  0  0  0  0  0  0
  138.0200   78.6839  221.9059 H   0  0  0  0  0  0  0  0  0  0  0  0
  139.9610   77.7380  222.1550 C   0  0  0  0  0  0  0  0  0  0  0  0
  140.6950   79.0250  222.1600 C   0  0  0  0  0  0  0  0  0  0  0  0
  140.4130   79.8850  223.0410 O   0  0  0  0  0  0  0  0  0  0  0  0
  141.7060   79.3240  221.1640 N   0  0  1  0  0  0  0  0  0  0  0  0
  142.6100   78.8850  221.4580 H   0  0  0  0  0  0  0  0  0  0  0  0
  141.3480   78.6770  219.8760 C   0  0  0  0  0  0  0  0  0  0  0  0
  141.5534   77.5986  219.9458 H   0  0  0  0  0  0  0  0  0  0  0  0
  140.2802   78.8538  219.6797 H   0  0  0  0  0  0  0  0  0  0  0  0
  142.1610   79.2680  218.7210 C   0  0  0  0  0  0  0  0  0  0  0  0
  143.2326   79.1566  218.9428 H   0  0  0  0  0  0  0  0  0  0  0  0
  141.8975   78.7296  217.7986 H   0  0  0  0  0  0  0  0  0  0  0  0
  141.8410   80.7660  218.5210 C   0  0  2  0  0  0  0  0  0  0  0  0
  141.0504   80.8575  217.7617 H   0  0  0  0  0  0  0  0  0  0  0  0
  143.0270   81.4260  218.0990 O   0  0  0  0  0  0  0  0  0  0  0  0
  142.8590   82.0520  216.8410 C   0  0  0  0  0  0  0  0  0  0  0  0
  141.9325   82.6449  216.8519 H   0  0  0  0  0  0  0  0  0  0  0  0
  142.8027   81.2779  216.0615 H   0  0  0  0  0  0  0  0  0  0  0  0
  144.0400   82.9700  216.5430 C   0  0  0  0  0  0  0  0  0  0  0  0
  144.4839   83.3150  217.4885 H   0  0  0  0  0  0  0  0  0  0  0  0
  144.7951   82.4194  215.9628 H   0  0  0  0  0  0  0  0  0  0  0  0
  143.6927   83.8376  215.9628 H   0  0  0  0  0  0  0  0  0  0  0  0
  141.3090   81.4230  219.8170 C   0  0  0  0  0  0  0  0  0  0  0  0
  141.5477   82.4966  219.7974 H   0  0  0  0  0  0  0  0  0  0  0  0
  140.2215   81.2642  219.8629 H   0  0  0  0  0  0  0  0  0  0  0  0
  141.9410   80.7940  221.0680 C   0  0  0  0  0  0  0  0  0  0  0  0
  143.0258   80.9744  221.0410 H   0  0  0  0  0  0  0  0  0  0  0  0
  141.4685   81.2605  221.9450 H   0  0  0  0  0  0  0  0  0  0  0  0
  140.6400   76.5140  222.2970 C   0  0  0  0  0  0  0  0  0  0  0  0
  141.7238   76.5093  222.4848 H   0  0  0  0  0  0  0  0  0  0  0  0
  139.6830   72.4530  220.9390 N   0  0  0  0  0  0  0  0  0  0  0  0
  139.8240   73.0400  220.0850 H   0  0  0  0  0  0  0  0  0  0  0  0
  139.0440   71.2590  220.8270 C   0  0  0  0  0  0  0  0  0  0  0  0
  138.7018   70.9185  219.8386 H   0  0  0  0  0  0  0  0  0  0  0  0
  138.8130   70.4500  221.9580 C   0  0  0  0  0  0  0  0  0  0  0  0
  138.0900   69.2090  221.8060 N   0  0  0  0  0  0  0  0  0  0  0  0
  136.6890   69.2140  221.3750 C   0  0  0  0  0  0  0  0  0  0  0  0
  136.0336   69.2163  222.2584 H   0  0  0  0  0  0  0  0  0  0  0  0
  136.4942   70.1128  220.7716 H   0  0  0  0  0  0  0  0  0  0  0  0
  136.4878   68.3166  220.7716 H   0  0  0  0  0  0  0  0  0  0  0  0
  138.6170   67.9910  222.3540 C   0  0  0  0  0  0  0  0  0  0  0  0
  138.9120   67.0370  221.5860 O   0  0  0  0  0  0  0  0  0  0  0  0
  138.8700   67.8470  223.8210 C   0  0  0  0  0  0  0  0  0  0  0  0
  138.4049   66.9147  224.1739 H   0  0  0  0  0  0  0  0  0  0  0  0
  139.9578   67.8283  223.9830 H   0  0  0  0  0  0  0  0  0  0  0  0
  138.2890   69.0200  224.6080 C   0  0  0  0  0  0  0  0  0  0  0  0
  137.2835   69.2520  224.2270 H   0  0  0  0  0  0  0  0  0  0  0  0
  138.2309   68.7475  225.6721 H   0  0  0  0  0  0  0  0  0  0  0  0
  141.0230   71.4860  225.4250 C   0  0  0  0  0  0  0  0  0  0  0  0
  141.3368   71.7770  224.4117 H   0  0  0  0  0  0  0  0  0  0  0  0
  141.7230   71.9670  226.5360 C   0  0  0  0  0  0  0  0  0  0  0  0
  142.5872   72.6327  226.3945 H   0  0  0  0  0  0  0  0  0  0  0  0
  1  2  1  0
  2  3  2  0
  3  4  1  0
  3  5  1  0
  5  6  1  0
  5  7  2  0
  7  8  1  0
  8  9  1  0
  9 10  2  0
 10 11  1  0
 11 12  2  0
 12 13  1  0
 13 14  2  0
 14 15  1  0
 14 16  1  0
 16 17  1  0
 16 18  2  0
 18 19  1  0
 18 20  1  0
 20 21  1  0
 21 22  2  0
 21 23  1  0
 23 24  1  6
 23 25  1  0
 25 26  1  0
 25 27  1  0
 25 28  1  0
 28 29  1  0
 28 30  1  0
 28 31  1  0
 31 32  1  1
 31 33  1  0
 33 34  1  0
 34 35  1  0
 34 36  1  0
 34 37  1  0
 37 38  1  0
 37 39  1  0
 37 40  1  0
 31 41  1  0
 41 42  1  0
 41 43  1  0
 41 44  1  0
 44 45  1  0
 44 46  1  0
 20 47  2  0
 47 48  1  0
 11 49  1  0
 49 50  1  0
 49 51  1  0
 51 52  1  0
 51 53  2  0
 53 54  1  0
 54 55  1  0
 55 56  1  0
 55 57  1  0
 55 58  1  0
 54 59  1  0
 59 60  2  0
 59 61  1  0
 61 62  1  0
 61 63  1  0
 61 64  1  0
 64 65  1  0
 64 66  1  0
  7 67  1  0
 67 68  1  0
 67 69  2  0
 69 70  1  0
 69  2  1  0
 64  8  1  0
 53  9  1  0
 47 13  1  0
 44 23  1  0
M  CHG  1  23   1
M  END
>  <UniqueID>  (22) 
22

>  <SMILES>  (22) 
CCOC1CC[NH+](C(=O)c2cccc(/N=c3\nc4c(c[nH]3)N(C)C(=O)CCN4c3ccccc3)c2)CC1

>  <Energy>  (22) 
110.74662989392861

>  <Genealogy>  (22) 
CCOC1CC[NH+](C(=O)c2cccc(N=c3nc4c(c[nH]3)N(C)C(=O)CCN4c3ccccc3)c2)CC1 (protonated)
CCOC1CC[NH+](C(=O)c2cccc(/N=c3\nc4c(c[nH]3)N(C)C(=O)CCN4c3ccccc3)c2)CC1 (cis-trans isomerization)
CCOC1CC[NH+](C(=O)c2cccc(/N=c3\nc4c(c[nH]3)N(C)C(=O)CCN4c3ccccc3)c2)CC1 (3D coordinates assigned)
CCOC1CC[NH+](C(=O)c2cccc(/N=c3\nc4c(c[nH]3)N(C)C(=O)CCN4c3ccccc3)c2)CC1 (nonaromatic ring conformer: 110.74662989392861 kcal/mol)

>  <smiles>  (22) 
CCOC1CCN(C(=O)c2cccc(N=c3nc4c(c[nH]3)N(C)C(=O)CCN4c3ccccc3)c2)CC1

>  <score_type>  (22) 
oracle

>  <origin>  (22) 
autodockgpu

>  <m_score__min__energy>  (22) 
-6.8300000000000001

>  <m_primary>  (22) 
energy

>  <meeko>  (22) 
{"free_energy": -6.83, "intermolecular_energy": -10.41, "internal_energy": -1.01, "cluster_size": 1, "cluster_id": 1, "rank_in_cluster": 1}

>  <energy>  (22) 
-5.6

>  <cluster_rmsd>  (22) 
0.0

>  <rmsd>  (22) 
270.91

>  <cluster>  (22) 
2

$$$$
KHESEQRZXKFTOB-IGPOTQGWNA-O
     RDKit          3D

 70 74  0  0  0  0  0  0  0  0999 V2000
  141.6968   82.3216  220.7360 H   0  0  0  0  0  0  0  0  0  0  0  0
  141.7820   81.2330  220.6030 C   0  0  0  0  0  0  0  0  0  0  0  0
  142.0730   80.4160  221.6990 C   0  0  0  0  0  0  0  0  0  0  0  0
  142.2210   80.8620  222.6936 H   0  0  0  0  0  0  0  0  0  0  0  0
  142.1760   79.0310  221.5310 C   0  0  0  0  0  0  0  0  0  0  0  0
  142.4116   78.3911  222.3942 H   0  0  0  0  0  0  0  0  0  0  0  0
  141.9800   78.4530  220.2650 C   0  0  0  0  0  0  0  0  0  0  0  0
  142.0020   77.0190  220.1090 N   0  0  0  0  0  0  0  0  0  0  0  0
  141.0180   76.2280  220.8230 C   0  0  0  0  0  0  0  0  0  0  0  0
  140.0470   76.8920  221.5030 N   0  0  0  0  0  0  0  0  0  0  0  0
  139.0660   76.2670  222.1970 C   0  0  0  0  0  0  0  0  0  0  0  0
  138.2020   76.9580  222.8850 N   0  0  0  0  0  0  0  0  0  0  0  0
  138.3030   78.3740  223.1010 C   0  0  0  0  0  0  0  0  0  0  0  0
  139.5220   78.9650  223.4750 C   0  0  0  0  0  0  0  0  0  0  0  0
  140.4264   78.3454  223.5661 H   0  0  0  0  0  0  0  0  0  0  0  0
  139.5890   80.3340  223.7310 C   0  0  0  0  0  0  0  0  0  0  0  0
  140.5472   80.7928  224.0162 H   0  0  0  0  0  0  0  0  0  0  0  0
  138.4420   81.1240  223.6260 C   0  0  0  0  0  0  0  0  0  0  0  0
  138.5001   82.2029  223.8325 H   0  0  0  0  0  0  0  0  0  0  0  0
  137.2140   80.5480  223.2580 C   0  0  0  0  0  0  0  0  0  0  0  0
  135.9940   81.3880  223.2060 C   0  0  0  0  0  0  0  0  0  0  0  0
  135.5830   81.7970  222.0850 O   0  0  0  0  0  0  0  0  0  0  0  0
  135.2840   81.7660  224.4130 N   0  0  1  0  0  0  0  0  0  0  0  0
  134.4100   82.2750  224.1450 H   0  0  0  0  0  0  0  0  0  0  0  0
  134.8320   80.5480  225.1330 C   0  0  0  0  0  0  0  0  0  0  0  0
  133.9663   80.1194  224.6068 H   0  0  0  0  0  0  0  0  0  0  0  0
  135.6626   79.8273  225.1586 H   0  0  0  0  0  0  0  0  0  0  0  0
  134.4290   80.8800  226.5730 C   0  0  0  0  0  0  0  0  0  0  0  0
  133.6453   81.6517  226.5574 H   0  0  0  0  0  0  0  0  0  0  0  0
  134.0592   79.9613  227.0519 H   0  0  0  0  0  0  0  0  0  0  0  0
  135.6350   81.4030  227.3840 C   0  0  2  0  0  0  0  0  0  0  0  0
  136.0987   80.5545  227.9085 H   0  0  0  0  0  0  0  0  0  0  0  0
  135.1660   82.3760  228.3080 O   0  0  0  0  0  0  0  0  0  0  0  0
  135.4380   82.0030  229.6460 C   0  0  0  0  0  0  0  0  0  0  0  0
  135.5717   82.9092  230.2550 H   0  0  0  0  0  0  0  0  0  0  0  0
  136.3542   81.3947  229.6680 H   0  0  0  0  0  0  0  0  0  0  0  0
  134.2850   81.1820  230.2130 C   0  0  0  0  0  0  0  0  0  0  0  0
  134.3219   81.2083  231.3121 H   0  0  0  0  0  0  0  0  0  0  0  0
  133.3297   81.6043  229.8680 H   0  0  0  0  0  0  0  0  0  0  0  0
  134.3716   80.1411  229.8680 H   0  0  0  0  0  0  0  0  0  0  0  0
  136.7200   82.0260  226.4750 C   0  0  0  0  0  0  0  0  0  0  0  0
  137.2795   82.7782  227.0504 H   0  0  0  0  0  0  0  0  0  0  0  0
  137.3859   81.2208  226.1311 H   0  0  0  0  0  0  0  0  0  0  0  0
  136.1020   82.7000  225.2410 C   0  0  0  0  0  0  0  0  0  0  0  0
  135.4574   83.5250  225.5785 H   0  0  0  0  0  0  0  0  0  0  0  0
  136.9309   83.0565  224.6118 H   0  0  0  0  0  0  0  0  0  0  0  0
  137.1620   79.1730  222.9620 C   0  0  0  0  0  0  0  0  0  0  0  0
  136.2185   78.7232  222.6192 H   0  0  0  0  0  0  0  0  0  0  0  0
  139.0260   74.9110  222.2190 N   0  0  0  0  0  0  0  0  0  0  0  0
  138.2790   74.4170  222.7590 H   0  0  0  0  0  0  0  0  0  0  0  0
  139.9620   74.1800  221.5590 C   0  0  0  0  0  0  0  0  0  0  0  0
  139.9097   73.0816  221.5862 H   0  0  0  0  0  0  0  0  0  0  0  0
  140.9990   74.8080  220.8400 C   0  0  0  0  0  0  0  0  0  0  0  0
  142.0020   73.9970  220.1880 N   0  0  0  0  0  0  0  0  0  0  0  0
  141.6380   72.7160  219.5770 C   0  0  0  0  0  0  0  0  0  0  0  0
  141.4287   71.9794  220.3667 H   0  0  0  0  0  0  0  0  0  0  0  0
  140.7421   72.8489  218.9528 H   0  0  0  0  0  0  0  0  0  0  0  0
  142.4700   72.3579  218.9528 H   0  0  0  0  0  0  0  0  0  0  0  0
  143.3970   74.2720  220.3860 C   0  0  0  0  0  0  0  0  0  0  0  0
  144.1500   73.3780  220.8560 O   0  0  0  0  0  0  0  0  0  0  0  0
  143.9890   75.5900  220.0000 C   0  0  0  0  0  0  0  0  0  0  0  0
  144.2731   76.1359  220.9117 H   0  0  0  0  0  0  0  0  0  0  0  0
  144.8695   75.4031  219.3678 H   0  0  0  0  0  0  0  0  0  0  0  0
  142.9970   76.4320  219.2060 C   0  0  0  0  0  0  0  0  0  0  0  0
  143.5368   77.2371  218.6859 H   0  0  0  0  0  0  0  0  0  0  0  0
  142.4855   75.7914  218.4725 H   0  0  0  0  0  0  0  0  0  0  0  0
  141.6950   79.2820  219.1670 C   0  0  0  0  0  0  0  0  0  0  0  0
  141.5469   78.8404  218.1705 H   0  0  0  0  0  0  0  0  0  0  0  0
  141.5990   80.6670  219.3370 C   0  0  0  0  0  0  0  0  0  0  0  0
  141.3792   81.3122  218.4737 H   0  0  0  0  0  0  0  0  0  0  0  0
  1  2  1  0
  2  3  2  0
  3  4  1  0
  3  5  1  0
  5  6  1  0
  5  7  2  0
  7  8  1  0
  8  9  1  0
  9 10  2  0
 10 11  1  0
 11 12  2  0
 12 13  1  0
 13 14  2  0
 14 15  1  0
 14 16  1  0
 16 17  1  0
 16 18  2  0
 18 19  1  0
 18 20  1  0
 20 21  1  0
 21 22  2  0
 21 23  1  0
 23 24  1  1
 23 25  1  0
 25 26  1  0
 25 27  1  0
 25 28  1  0
 28 29  1  0
 28 30  1  0
 28 31  1  0
 31 32  1  6
 31 33  1  0
 33 34  1  0
 34 35  1  0
 34 36  1  0
 34 37  1  0
 37 38  1  0
 37 39  1  0
 37 40  1  0
 31 41  1  0
 41 42  1  0
 41 43  1  0
 41 44  1  0
 44 45  1  0
 44 46  1  0
 20 47  2  0
 47 48  1  0
 11 49  1  0
 49 50  1  0
 49 51  1  0
 51 52  1  0
 51 53  2  0
 53 54  1  0
 54 55  1  0
 55 56  1  0
 55 57  1  0
 55 58  1  0
 54 59  1  0
 59 60  2  0
 59 61  1  0
 61 62  1  0
 61 63  1  0
 61 64  1  0
 64 65  1  0
 64 66  1  0
  7 67  1  0
 67 68  1  0
 67 69  2  0
 69 70  1  0
 69  2  1  0
 64  8  1  0
 53  9  1  0
 47 13  1  0
 44 23  1  0
M  CHG  1  23   1
M  END
>  <UniqueID>  (23) 
22

>  <SMILES>  (23) 
CCOC1CC[NH+](C(=O)c2cccc(/N=c3\nc4c(c[nH]3)N(C)C(=O)CCN4c3ccccc3)c2)CC1

>  <Energy>  (23) 
110.74662989392861

>  <Genealogy>  (23) 
CCOC1CC[NH+](C(=O)c2cccc(N=c3nc4c(c[nH]3)N(C)C(=O)CCN4c3ccccc3)c2)CC1 (protonated)
CCOC1CC[NH+](C(=O)c2cccc(/N=c3\nc4c(c[nH]3)N(C)C(=O)CCN4c3ccccc3)c2)CC1 (cis-trans isomerization)
CCOC1CC[NH+](C(=O)c2cccc(/N=c3\nc4c(c[nH]3)N(C)C(=O)CCN4c3ccccc3)c2)CC1 (3D coordinates assigned)
CCOC1CC[NH+](C(=O)c2cccc(/N=c3\nc4c(c[nH]3)N(C)C(=O)CCN4c3ccccc3)c2)CC1 (nonaromatic ring conformer: 110.74662989392861 kcal/mol)

>  <smiles>  (23) 
CCOC1CCN(C(=O)c2cccc(N=c3nc4c(c[nH]3)N(C)C(=O)CCN4c3ccccc3)c2)CC1

>  <score_type>  (23) 
oracle

>  <origin>  (23) 
autodockgpu

>  <m_score__min__energy>  (23) 
-6.8300000000000001

>  <m_primary>  (23) 
energy

>  <meeko>  (23) 
{"free_energy": -5.28, "intermolecular_energy": -8.86, "internal_energy": -2.14, "cluster_size": 2, "cluster_id": 3, "rank_in_cluster": 1}

>  <energy>  (23) 
-5.57

>  <cluster_rmsd>  (23) 
0.27

>  <rmsd>  (23) 
270.88

>  <cluster>  (23) 
2

$$$$
KHESEQRZXKFTOB-IGPOTQGWNA-O
     RDKit          3D

 70 74  0  0  0  0  0  0  0  0999 V2000
  134.4182   73.0946  225.6926 H   0  0  0  0  0  0  0  0  0  0  0  0
  134.8440   73.8590  225.0260 C   0  0  0  0  0  0  0  0  0  0  0  0
  134.6970   75.2140  225.3340 C   0  0  0  0  0  0  0  0  0  0  0  0
  134.1523   75.5159  226.2408 H   0  0  0  0  0  0  0  0  0  0  0  0
  135.2420   76.1860  224.4900 C   0  0  0  0  0  0  0  0  0  0  0  0
  135.1189   77.2520  224.7319 H   0  0  0  0  0  0  0  0  0  0  0  0
  135.9470   75.8080  223.3330 C   0  0  0  0  0  0  0  0  0  0  0  0
  136.5810   76.8070  222.5080 N   0  0  0  0  0  0  0  0  0  0  0  0
  138.0300   76.8580  222.4710 C   0  0  0  0  0  0  0  0  0  0  0  0
  138.6970   75.6960  222.2450 N   0  0  0  0  0  0  0  0  0  0  0  0
  140.0480   75.6150  222.1760 C   0  0  0  0  0  0  0  0  0  0  0  0
  140.6320   74.4610  222.0250 N   0  0  0  0  0  0  0  0  0  0  0  0
  140.0210   73.3360  221.3750 C   0  0  0  0  0  0  0  0  0  0  0  0
  140.4800   72.8820  220.1270 C   0  0  0  0  0  0  0  0  0  0  0  0
  141.3466   73.3659  219.6528 H   0  0  0  0  0  0  0  0  0  0  0  0
  139.8410   71.8200  219.4870 C   0  0  0  0  0  0  0  0  0  0  0  0
  140.2100   71.4625  218.5143 H   0  0  0  0  0  0  0  0  0  0  0  0
  138.7330   71.2100  220.0800 C   0  0  0  0  0  0  0  0  0  0  0  0
  138.2299   70.3759  219.5690 H   0  0  0  0  0  0  0  0  0  0  0  0
  138.2570   71.6550  221.3250 C   0  0  0  0  0  0  0  0  0  0  0  0
  137.0470   71.0360  221.9140 C   0  0  0  0  0  0  0  0  0  0  0  0
  135.9230   71.5700  221.7010 O   0  0  0  0  0  0  0  0  0  0  0  0
  137.1330   69.8510  222.7470 N   0  0  1  0  0  0  0  0  0  0  0  0
  136.2260   69.3330  222.6920 H   0  0  0  0  0  0  0  0  0  0  0  0
  138.1570   68.9260  222.2000 C   0  0  0  0  0  0  0  0  0  0  0  0
  137.7497   68.4244  221.3097 H   0  0  0  0  0  0  0  0  0  0  0  0
  139.0520   69.5094  221.9382 H   0  0  0  0  0  0  0  0  0  0  0  0
  138.5500   67.8680  223.2350 C   0  0  0  0  0  0  0  0  0  0  0  0
  137.6477   67.3253  223.5535 H   0  0  0  0  0  0  0  0  0  0  0  0
  139.2736   67.1807  222.7723 H   0  0  0  0  0  0  0  0  0  0  0  0
  139.2120   68.5140  224.4720 C   0  0  2  0  0  0  0  0  0  0  0  0
  140.3028   68.5066  224.3300 H   0  0  0  0  0  0  0  0  0  0  0  0
  138.8460   67.7620  225.6210 O   0  0  0  0  0  0  0  0  0  0  0  0
  139.5410   68.1970  226.7740 C   0  0  0  0  0  0  0  0  0  0  0  0
  139.0705   67.7601  227.6672 H   0  0  0  0  0  0  0  0  0  0  0  0
  139.4984   69.2951  226.8231 H   0  0  0  0  0  0  0  0  0  0  0  0
  141.0010   67.7610  226.7110 C   0  0  0  0  0  0  0  0  0  0  0  0
  141.3931   67.6439  227.7321 H   0  0  0  0  0  0  0  0  0  0  0  0
  141.0745   66.8017  226.1777 H   0  0  0  0  0  0  0  0  0  0  0  0
  141.5885   68.5229  226.1777 H   0  0  0  0  0  0  0  0  0  0  0  0
  138.7850   69.9900  224.6540 C   0  0  0  0  0  0  0  0  0  0  0  0
  138.8565   70.2541  225.7194 H   0  0  0  0  0  0  0  0  0  0  0  0
  139.4536   70.6201  224.0490 H   0  0  0  0  0  0  0  0  0  0  0  0
  137.3430   70.2210  224.1780 C   0  0  0  0  0  0  0  0  0  0  0  0
  136.6677   69.6144  224.7993 H   0  0  0  0  0  0  0  0  0  0  0  0
  137.1343   71.2968  224.2729 H   0  0  0  0  0  0  0  0  0  0  0  0
  138.9320   72.7000  221.9840 C   0  0  0  0  0  0  0  0  0  0  0  0
  138.6020   73.0190  222.9836 H   0  0  0  0  0  0  0  0  0  0  0  0
  140.7900   76.7410  222.3260 N   0  0  0  0  0  0  0  0  0  0  0  0
  141.8330   76.6900  222.2830 H   0  0  0  0  0  0  0  0  0  0  0  0
  140.1920   77.9410  222.5500 C   0  0  0  0  0  0  0  0  0  0  0  0
  140.8119   78.8425  222.6643 H   0  0  0  0  0  0  0  0  0  0  0  0
  138.7890   78.0470  222.6380 C   0  0  0  0  0  0  0  0  0  0  0  0
  138.1920   79.3320  222.9230 N   0  0  0  0  0  0  0  0  0  0  0  0
  138.5430   80.0580  224.1460 C   0  0  0  0  0  0  0  0  0  0  0  0
  138.2540   79.4602  225.0230 H   0  0  0  0  0  0  0  0  0  0  0  0
  139.6279   80.2385  224.1667 H   0  0  0  0  0  0  0  0  0  0  0  0
  138.0107   81.0204  224.1667 H   0  0  0  0  0  0  0  0  0  0  0  0
  137.0410   79.7740  222.1880 C   0  0  0  0  0  0  0  0  0  0  0  0
  137.1500   80.7270  221.3710 O   0  0  0  0  0  0  0  0  0  0  0  0
  135.7170   79.0940  222.3380 C   0  0  0  0  0  0  0  0  0  0  0  0
  135.4799   79.0061  223.4085 H   0  0  0  0  0  0  0  0  0  0  0  0
  134.9590   79.6969  221.8164 H   0  0  0  0  0  0  0  0  0  0  0  0
  135.7290   77.7020  221.7180 C   0  0  0  0  0  0  0  0  0  0  0  0
  134.7037   77.3040  221.6970 H   0  0  0  0  0  0  0  0  0  0  0  0
  136.1258   77.7668  220.6941 H   0  0  0  0  0  0  0  0  0  0  0  0
  136.0830   74.4440  223.0270 C   0  0  0  0  0  0  0  0  0  0  0  0
  136.6248   74.1373  222.1202 H   0  0  0  0  0  0  0  0  0  0  0  0
  135.5320   73.4740  223.8710 C   0  0  0  0  0  0  0  0  0  0  0  0
  135.6400   72.4071  223.6259 H   0  0  0  0  0  0  0  0  0  0  0  0
  1  2  1  0
  2  3  2  0
  3  4  1  0
  3  5  1  0
  5  6  1  0
  5  7  2  0
  7  8  1  0
  8  9  1  0
  9 10  2  0
 10 11  1  0
 11 12  2  0
 12 13  1  0
 13 14  2  0
 14 15  1  0
 14 16  1  0
 16 17  1  0
 16 18  2  0
 18 19  1  0
 18 20  1  0
 20 21  1  0
 21 22  2  0
 21 23  1  0
 23 24  1  6
 23 25  1  0
 25 26  1  0
 25 27  1  0
 25 28  1  0
 28 29  1  0
 28 30  1  0
 28 31  1  0
 31 32  1  1
 31 33  1  0
 33 34  1  0
 34 35  1  0
 34 36  1  0
 34 37  1  0
 37 38  1  0
 37 39  1  0
 37 40  1  0
 31 41  1  0
 41 42  1  0
 41 43  1  0
 41 44  1  0
 44 45  1  0
 44 46  1  0
 20 47  2  0
 47 48  1  0
 11 49  1  0
 49 50  1  0
 49 51  1  0
 51 52  1  0
 51 53  2  0
 53 54  1  0
 54 55  1  0
 55 56  1  0
 55 57  1  0
 55 58  1  0
 54 59  1  0
 59 60  2  0
 59 61  1  0
 61 62  1  0
 61 63  1  0
 61 64  1  0
 64 65  1  0
 64 66  1  0
  7 67  1  0
 67 68  1  0
 67 69  2  0
 69 70  1  0
 69  2  1  0
 64  8  1  0
 53  9  1  0
 47 13  1  0
 44 23  1  0
M  CHG  1  23   1
M  END
>  <UniqueID>  (24) 
22

>  <SMILES>  (24) 
CCOC1CC[NH+](C(=O)c2cccc(/N=c3\nc4c(c[nH]3)N(C)C(=O)CCN4c3ccccc3)c2)CC1

>  <Energy>  (24) 
110.74662989392861

>  <Genealogy>  (24) 
CCOC1CC[NH+](C(=O)c2cccc(N=c3nc4c(c[nH]3)N(C)C(=O)CCN4c3ccccc3)c2)CC1 (protonated)
CCOC1CC[NH+](C(=O)c2cccc(/N=c3\nc4c(c[nH]3)N(C)C(=O)CCN4c3ccccc3)c2)CC1 (cis-trans isomerization)
CCOC1CC[NH+](C(=O)c2cccc(/N=c3\nc4c(c[nH]3)N(C)C(=O)CCN4c3ccccc3)c2)CC1 (3D coordinates assigned)
CCOC1CC[NH+](C(=O)c2cccc(/N=c3\nc4c(c[nH]3)N(C)C(=O)CCN4c3ccccc3)c2)CC1 (nonaromatic ring conformer: 110.74662989392861 kcal/mol)

>  <smiles>  (24) 
CCOC1CCN(C(=O)c2cccc(N=c3nc4c(c[nH]3)N(C)C(=O)CCN4c3ccccc3)c2)CC1

>  <score_type>  (24) 
oracle

>  <origin>  (24) 
autodockgpu

>  <m_score__min__energy>  (24) 
-6.8300000000000001

>  <m_primary>  (24) 
energy

>  <meeko>  (24) 
{"free_energy": -5.08, "intermolecular_energy": -8.66, "internal_energy": -2.34, "cluster_size": 1, "cluster_id": 6, "rank_in_cluster": 1}

>  <energy>  (24) 
-5.14

>  <cluster_rmsd>  (24) 
1.77

>  <rmsd>  (24) 
270.91

>  <cluster>  (24) 
2

$$$$
KHESEQRZXKFTOB-IGPOTQGWNA-O
     RDKit          3D

 70 74  0  0  0  0  0  0  0  0999 V2000
  144.0965   80.2455  223.0841 H   0  0  0  0  0  0  0  0  0  0  0  0
  143.0130   80.0910  222.9740 C   0  0  0  0  0  0  0  0  0  0  0  0
  142.3290   79.2720  223.8770 C   0  0  0  0  0  0  0  0  0  0  0  0
  142.8747   78.7789  224.6949 H   0  0  0  0  0  0  0  0  0  0  0  0
  140.9510   79.0800  223.7400 C   0  0  0  0  0  0  0  0  0  0  0  0
  140.4163   78.4306  224.4487 H   0  0  0  0  0  0  0  0  0  0  0  0
  140.2450   79.7120  222.7020 C   0  0  0  0  0  0  0  0  0  0  0  0
  138.8110   79.5810  222.6120 N   0  0  0  0  0  0  0  0  0  0  0  0
  138.2250   78.2610  222.7500 C   0  0  0  0  0  0  0  0  0  0  0  0
  139.0600   77.1900  222.6840 N   0  0  0  0  0  0  0  0  0  0  0  0
  138.6360   75.9090  222.8100 C   0  0  0  0  0  0  0  0  0  0  0  0
  139.4730   74.9220  222.6710 N   0  0  0  0  0  0  0  0  0  0  0  0
  140.2260   74.6760  221.4730 C   0  0  0  0  0  0  0  0  0  0  0  0
  139.9020   73.6090  220.6190 C   0  0  0  0  0  0  0  0  0  0  0  0
  139.0341   72.9717  220.8439 H   0  0  0  0  0  0  0  0  0  0  0  0
  140.6760   73.3540  219.4870 C   0  0  0  0  0  0  0  0  0  0  0  0
  140.4120   72.5229  218.8165 H   0  0  0  0  0  0  0  0  0  0  0  0
  141.7870   74.1540  219.2040 C   0  0  0  0  0  0  0  0  0  0  0  0
  142.3971   73.9466  218.3125 H   0  0  0  0  0  0  0  0  0  0  0  0
  142.1290   75.2210  220.0510 C   0  0  0  0  0  0  0  0  0  0  0  0
  143.3410   76.0250  219.7690 C   0  0  0  0  0  0  0  0  0  0  0  0
  144.4700   75.5600  220.0920 O   0  0  0  0  0  0  0  0  0  0  0  0
  143.2530   77.3370  219.1560 N   0  0  1  0  0  0  0  0  0  0  0  0
  144.1700   77.8270  219.2750 H   0  0  0  0  0  0  0  0  0  0  0  0
  143.0620   77.1950  217.6910 C   0  0  0  0  0  0  0  0  0  0  0  0
  144.0175   76.9044  217.2300 H   0  0  0  0  0  0  0  0  0  0  0  0
  142.2973   76.4252  217.5099 H   0  0  0  0  0  0  0  0  0  0  0  0
  142.5860   78.5120  217.0700 C   0  0  0  0  0  0  0  0  0  0  0  0
  143.3131   79.3031  217.3056 H   0  0  0  0  0  0  0  0  0  0  0  0
  142.5020   78.3734  215.9820 H   0  0  0  0  0  0  0  0  0  0  0  0
  141.2010   78.9210  217.6190 C   0  0  2  0  0  0  0  0  0  0  0  0
  140.4267   78.5393  216.9373 H   0  0  0  0  0  0  0  0  0  0  0  0
  141.1510   80.3390  217.6990 O   0  0  0  0  0  0  0  0  0  0  0  0
  142.0720   80.9470  216.8140 C   0  0  0  0  0  0  0  0  0  0  0  0
  141.5206   81.5230  216.0562 H   0  0  0  0  0  0  0  0  0  0  0  0
  142.6725   80.1632  216.3292 H   0  0  0  0  0  0  0  0  0  0  0  0
  143.0030   81.8830  217.5780 C   0  0  0  0  0  0  0  0  0  0  0  0
  142.8605   81.7397  218.6593 H   0  0  0  0  0  0  0  0  0  0  0  0
  144.0468   81.6588  217.3129 H   0  0  0  0  0  0  0  0  0  0  0  0
  142.7732   82.9255  217.3129 H   0  0  0  0  0  0  0  0  0  0  0  0
  140.9260   78.3080  219.0130 C   0  0  0  0  0  0  0  0  0  0  0  0
  140.2245   78.9577  219.5569 H   0  0  0  0  0  0  0  0  0  0  0  0
  140.5000   77.3039  218.8702 H   0  0  0  0  0  0  0  0  0  0  0  0
  142.2170   78.1710  219.8330 C   0  0  0  0  0  0  0  0  0  0  0  0
  142.6321   79.1753  220.0034 H   0  0  0  0  0  0  0  0  0  0  0  0
  141.9556   77.6688  220.7761 H   0  0  0  0  0  0  0  0  0  0  0  0
  141.3180   75.4980  221.1680 C   0  0  0  0  0  0  0  0  0  0  0  0
  141.5436   76.3657  221.8053 H   0  0  0  0  0  0  0  0  0  0  0  0
  137.3190   75.6620  223.0230 N   0  0  0  0  0  0  0  0  0  0  0  0
  136.9790   74.6770  223.1120 H   0  0  0  0  0  0  0  0  0  0  0  0
  136.4260   76.6830  223.1030 C   0  0  0  0  0  0  0  0  0  0  0  0
  135.3632   76.4610  223.2795 H   0  0  0  0  0  0  0  0  0  0  0  0
  136.8420   78.0230  222.9630 C   0  0  0  0  0  0  0  0  0  0  0  0
  135.8570   79.0790  223.0100 N   0  0  0  0  0  0  0  0  0  0  0  0
  134.8130   79.1660  221.9850 C   0  0  0  0  0  0  0  0  0  0  0  0
  133.8290   79.2480  222.4699 H   0  0  0  0  0  0  0  0  0  0  0  0
  134.9878   80.0527  221.3579 H   0  0  0  0  0  0  0  0  0  0  0  0
  134.8386   78.2626  221.3579 H   0  0  0  0  0  0  0  0  0  0  0  0
  136.0540   80.2170  223.8620 C   0  0  0  0  0  0  0  0  0  0  0  0
  135.2360   80.4510  224.7920 O   0  0  0  0  0  0  0  0  0  0  0  0
  137.2430   81.1100  223.7000 C   0  0  0  0  0  0  0  0  0  0  0  0
  136.9022   82.1553  223.6636 H   0  0  0  0  0  0  0  0  0  0  0  0
  137.9158   80.9461  224.5547 H   0  0  0  0  0  0  0  0  0  0  0  0
  138.0100   80.7950  222.4220 C   0  0  0  0  0  0  0  0  0  0  0  0
  137.2985   80.6382  221.5979 H   0  0  0  0  0  0  0  0  0  0  0  0
  138.6760   81.6365  222.1803 H   0  0  0  0  0  0  0  0  0  0  0  0
  140.9420   80.5270  221.7950 C   0  0  0  0  0  0  0  0  0  0  0  0
  140.4007   81.0203  220.9742 H   0  0  0  0  0  0  0  0  0  0  0  0
  142.3210   80.7140  221.9310 C   0  0  0  0  0  0  0  0  0  0  0  0
  142.8620   81.3519  221.2166 H   0  0  0  0  0  0  0  0  0  0  0  0
  1  2  1  0
  2  3  2  0
  3  4  1  0
  3  5  1  0
  5  6  1  0
  5  7  2  0
  7  8  1  0
  8  9  1  0
  9 10  2  0
 10 11  1  0
 11 12  2  0
 12 13  1  0
 13 14  2  0
 14 15  1  0
 14 16  1  0
 16 17  1  0
 16 18  2  0
 18 19  1  0
 18 20  1  0
 20 21  1  0
 21 22  2  0
 21 23  1  0
 23 24  1  1
 23 25  1  0
 25 26  1  0
 25 27  1  0
 25 28  1  0
 28 29  1  0
 28 30  1  0
 28 31  1  0
 31 32  1  1
 31 33  1  0
 33 34  1  0
 34 35  1  0
 34 36  1  0
 34 37  1  0
 37 38  1  0
 37 39  1  0
 37 40  1  0
 31 41  1  0
 41 42  1  0
 41 43  1  0
 41 44  1  0
 44 45  1  0
 44 46  1  0
 20 47  2  0
 47 48  1  0
 11 49  1  0
 49 50  1  0
 49 51  1  0
 51 52  1  0
 51 53  2  0
 53 54  1  0
 54 55  1  0
 55 56  1  0
 55 57  1  0
 55 58  1  0
 54 59  1  0
 59 60  2  0
 59 61  1  0
 61 62  1  0
 61 63  1  0
 61 64  1  0
 64 65  1  0
 64 66  1  0
  7 67  1  0
 67 68  1  0
 67 69  2  0
 69 70  1  0
 69  2  1  0
 64  8  1  0
 53  9  1  0
 47 13  1  0
 44 23  1  0
M  CHG  1  23   1
M  END
>  <UniqueID>  (25) 
22

>  <SMILES>  (25) 
CCOC1CC[NH+](C(=O)c2cccc(/N=c3\nc4c(c[nH]3)N(C)C(=O)CCN4c3ccccc3)c2)CC1

>  <Energy>  (25) 
110.74662989392861

>  <Genealogy>  (25) 
CCOC1CC[NH+](C(=O)c2cccc(N=c3nc4c(c[nH]3)N(C)C(=O)CCN4c3ccccc3)c2)CC1 (protonated)
CCOC1CC[NH+](C(=O)c2cccc(/N=c3\nc4c(c[nH]3)N(C)C(=O)CCN4c3ccccc3)c2)CC1 (cis-trans isomerization)
CCOC1CC[NH+](C(=O)c2cccc(/N=c3\nc4c(c[nH]3)N(C)C(=O)CCN4c3ccccc3)c2)CC1 (3D coordinates assigned)
CCOC1CC[NH+](C(=O)c2cccc(/N=c3\nc4c(c[nH]3)N(C)C(=O)CCN4c3ccccc3)c2)CC1 (nonaromatic ring conformer: 110.74662989392861 kcal/mol)

>  <smiles>  (25) 
CCOC1CCN(C(=O)c2cccc(N=c3nc4c(c[nH]3)N(C)C(=O)CCN4c3ccccc3)c2)CC1

>  <score_type>  (25) 
oracle

>  <origin>  (25) 
autodockgpu

>  <m_score__min__energy>  (25) 
-6.8300000000000001

>  <m_primary>  (25) 
energy

>  <meeko>  (25) 
{"free_energy": -5.24, "intermolecular_energy": -8.82, "internal_energy": -2.62, "cluster_size": 4, "cluster_id": 4, "rank_in_cluster": 1}

>  <energy>  (25) 
-5.28

>  <cluster_rmsd>  (25) 
0.0

>  <rmsd>  (25) 
271.83

>  <cluster>  (25) 
3

$$$$
KHESEQRZXKFTOB-IGPOTQGWNA-O
     RDKit          3D

 70 74  0  0  0  0  0  0  0  0999 V2000
  142.5676   78.7242  216.0979 H   0  0  0  0  0  0  0  0  0  0  0  0
  142.6980   77.9960  216.9120 C   0  0  0  0  0  0  0  0  0  0  0  0
  142.3520   78.3420  218.2210 C   0  0  0  0  0  0  0  0  0  0  0  0
  141.9529   79.3439  218.4378 H   0  0  0  0  0  0  0  0  0  0  0  0
  142.5130   77.4150  219.2550 C   0  0  0  0  0  0  0  0  0  0  0  0
  142.2461   77.6928  220.2853 H   0  0  0  0  0  0  0  0  0  0  0  0
  143.0140   76.1300  218.9850 C   0  0  0  0  0  0  0  0  0  0  0  0
  143.1000   75.1470  220.0380 N   0  0  0  0  0  0  0  0  0  0  0  0
  141.8980   74.8200  220.7810 C   0  0  0  0  0  0  0  0  0  0  0  0
  141.2240   75.8400  221.3730 N   0  0  0  0  0  0  0  0  0  0  0  0
  140.0840   75.6650  222.0840 C   0  0  0  0  0  0  0  0  0  0  0  0
  139.5200   76.6730  222.6840 N   0  0  0  0  0  0  0  0  0  0  0  0
  140.1090   77.9800  222.7750 C   0  0  0  0  0  0  0  0  0  0  0  0
  141.4210   78.1510  223.2490 C   0  0  0  0  0  0  0  0  0  0  0  0
  142.0256   77.2724  223.5183 H   0  0  0  0  0  0  0  0  0  0  0  0
  141.9590   79.4320  223.3790 C   0  0  0  0  0  0  0  0  0  0  0  0
  142.9894   79.5607  223.7419 H   0  0  0  0  0  0  0  0  0  0  0  0
  141.1910   80.5510  223.0490 C   0  0  0  0  0  0  0  0  0  0  0  0
  141.6188   81.5586  223.1571 H   0  0  0  0  0  0  0  0  0  0  0  0
  139.8760   80.3980  222.5800 C   0  0  0  0  0  0  0  0  0  0  0  0
  139.0540   81.5960  222.2880 C   0  0  0  0  0  0  0  0  0  0  0  0
  138.1840   81.9590  223.1280 O   0  0  0  0  0  0  0  0  0  0  0  0
  139.2120   82.3380  221.0510 N   0  0  1  0  0  0  0  0  0  0  0  0
  138.3940   82.9800  220.9370 H   0  0  0  0  0  0  0  0  0  0  0  0
  140.4030   83.2190  221.1440 C   0  0  0  0  0  0  0  0  0  0  0  0
  140.1627   84.0832  221.7808 H   0  0  0  0  0  0  0  0  0  0  0  0
  141.2337   82.6419  221.5763 H   0  0  0  0  0  0  0  0  0  0  0  0
  140.8240   83.7190  219.7580 C   0  0  0  0  0  0  0  0  0  0  0  0
  139.9743   84.2383  219.2906 H   0  0  0  0  0  0  0  0  0  0  0  0
  141.6775   84.4023  219.8788 H   0  0  0  0  0  0  0  0  0  0  0  0
  141.2600   82.5480  218.8500 C   0  0  2  0  0  0  0  0  0  0  0  0
  142.3507   82.4302  218.9304 H   0  0  0  0  0  0  0  0  0  0  0  0
  140.8800   82.8490  217.5150 O   0  0  0  0  0  0  0  0  0  0  0  0
  141.8900   82.4920  216.5900 C   0  0  0  0  0  0  0  0  0  0  0  0
  142.0151   83.3042  215.8588 H   0  0  0  0  0  0  0  0  0  0  0  0
  141.5932   81.5646  216.0782 H   0  0  0  0  0  0  0  0  0  0  0  0
  143.2130   82.2570  217.3110 C   0  0  0  0  0  0  0  0  0  0  0  0
  143.0483   82.2863  218.3982 H   0  0  0  0  0  0  0  0  0  0  0  0
  143.6154   81.2733  217.0274 H   0  0  0  0  0  0  0  0  0  0  0  0
  143.9296   83.0419  217.0274 H   0  0  0  0  0  0  0  0  0  0  0  0
  140.6200   81.2080  219.2850 C   0  0  0  0  0  0  0  0  0  0  0  0
  140.5430   80.5478  218.4085 H   0  0  0  0  0  0  0  0  0  0  0  0
  141.2570   80.7576  220.0605 H   0  0  0  0  0  0  0  0  0  0  0  0
  139.2180   81.4180  219.8760 C   0  0  0  0  0  0  0  0  0  0  0  0
  138.5686   81.8417  219.0958 H   0  0  0  0  0  0  0  0  0  0  0  0
  138.8574   80.4385  220.2233 H   0  0  0  0  0  0  0  0  0  0  0  0
  139.3540   79.1010  222.4120 C   0  0  0  0  0  0  0  0  0  0  0  0
  138.3458   78.9681  221.9926 H   0  0  0  0  0  0  0  0  0  0  0  0
  139.5660   74.4170  222.2140 N   0  0  0  0  0  0  0  0  0  0  0  0
  138.6920   74.2680  222.7680 H   0  0  0  0  0  0  0  0  0  0  0  0
  140.1840   73.3480  221.6460 C   0  0  0  0  0  0  0  0  0  0  0  0
  139.7463   72.3453  221.7603 H   0  0  0  0  0  0  0  0  0  0  0  0
  141.3770   73.5050  220.9130 C   0  0  0  0  0  0  0  0  0  0  0  0
  142.0290   72.3380  220.3620 N   0  0  0  0  0  0  0  0  0  0  0  0
  141.2430   71.1630  219.9750 C   0  0  0  0  0  0  0  0  0  0  0  0
  140.8941   70.6415  220.8785 H   0  0  0  0  0  0  0  0  0  0  0  0
  140.3760   71.4822  219.3780 H   0  0  0  0  0  0  0  0  0  0  0  0
  141.8690   70.4835  219.3780 H   0  0  0  0  0  0  0  0  0  0  0  0
  143.4520   72.1890  220.4630 C   0  0  0  0  0  0  0  0  0  0  0  0
  143.9350   71.2640  221.1700 O   0  0  0  0  0  0  0  0  0  0  0  0
  144.3820   73.0830  219.7060 C   0  0  0  0  0  0  0  0  0  0  0  0
  145.3993   72.6681  219.7598 H   0  0  0  0  0  0  0  0  0  0  0  0
  144.0357   73.1375  218.6634 H   0  0  0  0  0  0  0  0  0  0  0  0
  144.3920   74.4980  220.2820 C   0  0  0  0  0  0  0  0  0  0  0  0
  144.5765   74.4492  221.3653 H   0  0  0  0  0  0  0  0  0  0  0  0
  145.1872   75.0811  219.7945 H   0  0  0  0  0  0  0  0  0  0  0  0
  143.3660   75.7920  217.6680 C   0  0  0  0  0  0  0  0  0  0  0  0
  143.7655   74.7913  217.4468 H   0  0  0  0  0  0  0  0  0  0  0  0
  143.2100   76.7240  216.6370 C   0  0  0  0  0  0  0  0  0  0  0  0
  143.4906   76.4560  215.6077 H   0  0  0  0  0  0  0  0  0  0  0  0
  1  2  1  0
  2  3  2  0
  3  4  1  0
  3  5  1  0
  5  6  1  0
  5  7  2  0
  7  8  1  0
  8  9  1  0
  9 10  2  0
 10 11  1  0
 11 12  2  0
 12 13  1  0
 13 14  2  0
 14 15  1  0
 14 16  1  0
 16 17  1  0
 16 18  2  0
 18 19  1  0
 18 20  1  0
 20 21  1  0
 21 22  2  0
 21 23  1  0
 23 24  1  1
 23 25  1  0
 25 26  1  0
 25 27  1  0
 25 28  1  0
 28 29  1  0
 28 30  1  0
 28 31  1  0
 31 32  1  1
 31 33  1  0
 33 34  1  0
 34 35  1  0
 34 36  1  0
 34 37  1  0
 37 38  1  0
 37 39  1  0
 37 40  1  0
 31 41  1  0
 41 42  1  0
 41 43  1  0
 41 44  1  0
 44 45  1  0
 44 46  1  0
 20 47  2  0
 47 48  1  0
 11 49  1  0
 49 50  1  0
 49 51  1  0
 51 52  1  0
 51 53  2  0
 53 54  1  0
 54 55  1  0
 55 56  1  0
 55 57  1  0
 55 58  1  0
 54 59  1  0
 59 60  2  0
 59 61  1  0
 61 62  1  0
 61 63  1  0
 61 64  1  0
 64 65  1  0
 64 66  1  0
  7 67  1  0
 67 68  1  0
 67 69  2  0
 69 70  1  0
 69  2  1  0
 64  8  1  0
 53  9  1  0
 47 13  1  0
 44 23  1  0
M  CHG  1  23   1
M  END
>  <UniqueID>  (26) 
22

>  <SMILES>  (26) 
CCOC1CC[NH+](C(=O)c2cccc(/N=c3\nc4c(c[nH]3)N(C)C(=O)CCN4c3ccccc3)c2)CC1

>  <Energy>  (26) 
110.74662989392861

>  <Genealogy>  (26) 
CCOC1CC[NH+](C(=O)c2cccc(N=c3nc4c(c[nH]3)N(C)C(=O)CCN4c3ccccc3)c2)CC1 (protonated)
CCOC1CC[NH+](C(=O)c2cccc(/N=c3\nc4c(c[nH]3)N(C)C(=O)CCN4c3ccccc3)c2)CC1 (cis-trans isomerization)
CCOC1CC[NH+](C(=O)c2cccc(/N=c3\nc4c(c[nH]3)N(C)C(=O)CCN4c3ccccc3)c2)CC1 (3D coordinates assigned)
CCOC1CC[NH+](C(=O)c2cccc(/N=c3\nc4c(c[nH]3)N(C)C(=O)CCN4c3ccccc3)c2)CC1 (nonaromatic ring conformer: 110.74662989392861 kcal/mol)

>  <smiles>  (26) 
CCOC1CCN(C(=O)c2cccc(N=c3nc4c(c[nH]3)N(C)C(=O)CCN4c3ccccc3)c2)CC1

>  <score_type>  (26) 
oracle

>  <origin>  (26) 
autodockgpu

>  <m_score__min__energy>  (26) 
-6.8300000000000001

>  <m_primary>  (26) 
energy

>  <meeko>  (26) 
{"free_energy": -5.14, "intermolecular_energy": -8.72, "internal_energy": -2.38, "cluster_size": 3, "cluster_id": 2, "rank_in_cluster": 3}

>  <energy>  (26) 
-4.72

>  <cluster_rmsd>  (26) 
1.6

>  <rmsd>  (26) 
271.84

>  <cluster>  (26) 
3

$$$$
KHESEQRZXKFTOB-IGPOTQGWNA-O
     RDKit          3D

 70 74  0  0  0  0  0  0  0  0999 V2000
  136.5235   82.4313  224.6554 H   0  0  0  0  0  0  0  0  0  0  0  0
  136.6780   81.4510  224.1810 C   0  0  0  0  0  0  0  0  0  0  0  0
  135.7730   80.4120  224.4140 C   0  0  0  0  0  0  0  0  0  0  0  0
  134.9087   80.5735  225.0750 H   0  0  0  0  0  0  0  0  0  0  0  0
  135.9660   79.1670  223.8070 C   0  0  0  0  0  0  0  0  0  0  0  0
  135.2559   78.3489  223.9981 H   0  0  0  0  0  0  0  0  0  0  0  0
  137.0630   78.9560  222.9540 C   0  0  0  0  0  0  0  0  0  0  0  0
  137.2150   77.6990  222.2620 N   0  0  0  0  0  0  0  0  0  0  0  0
  138.5160   77.0570  222.2670 C   0  0  0  0  0  0  0  0  0  0  0  0
  139.5820   77.7950  222.6750 N   0  0  0  0  0  0  0  0  0  0  0  0
  140.8450   77.3060  222.7350 C   0  0  0  0  0  0  0  0  0  0  0  0
  141.8360   78.0800  223.0700 N   0  0  0  0  0  0  0  0  0  0  0  0
  141.8730   79.4910  222.8040 C   0  0  0  0  0  0  0  0  0  0  0  0
  142.0140   80.4220  223.8470 C   0  0  0  0  0  0  0  0  0  0  0  0
  142.1398   80.0711  224.8819 H   0  0  0  0  0  0  0  0  0  0  0  0
  141.9950   81.7900  223.5740 C   0  0  0  0  0  0  0  0  0  0  0  0
  142.1149   82.5149  224.3927 H   0  0  0  0  0  0  0  0  0  0  0  0
  141.8240   82.2410  222.2630 C   0  0  0  0  0  0  0  0  0  0  0  0
  141.8059   83.3209  222.0542 H   0  0  0  0  0  0  0  0  0  0  0  0
  141.6750   81.3230  221.2090 C   0  0  0  0  0  0  0  0  0  0  0  0
  141.4380   81.8170  219.8320 C   0  0  0  0  0  0  0  0  0  0  0  0
  141.4480   83.0620  219.6200 O   0  0  0  0  0  0  0  0  0  0  0  0
  141.1700   80.9040  218.7370 N   0  0  1  0  0  0  0  0  0  0  0  0
  141.1050   81.4520  217.8490 H   0  0  0  0  0  0  0  0  0  0  0  0
  142.3220   79.9850  218.5570 C   0  0  0  0  0  0  0  0  0  0  0  0
  143.1440   80.5295  218.0693 H   0  0  0  0  0  0  0  0  0  0  0  0
  142.6361   79.6184  219.5454 H   0  0  0  0  0  0  0  0  0  0  0  0
  141.9340   78.7830  217.6910 C   0  0  0  0  0  0  0  0  0  0  0  0
  141.5534   79.1451  216.7246 H   0  0  0  0  0  0  0  0  0  0  0  0
  142.8260   78.1557  217.5464 H   0  0  0  0  0  0  0  0  0  0  0  0
  140.8420   77.9300  218.3750 C   0  0  2  0  0  0  0  0  0  0  0  0
  141.3307   77.1237  218.9416 H   0  0  0  0  0  0  0  0  0  0  0  0
  139.9920   77.3970  217.3690 O   0  0  0  0  0  0  0  0  0  0  0  0
  139.0480   76.4910  217.9060 C   0  0  0  0  0  0  0  0  0  0  0  0
  139.2687   76.3265  218.9710 H   0  0  0  0  0  0  0  0  0  0  0  0
  139.1123   75.5409  217.3554 H   0  0  0  0  0  0  0  0  0  0  0  0
  137.6360   77.0490  217.7660 C   0  0  0  0  0  0  0  0  0  0  0  0
  137.2079   77.2182  218.7650 H   0  0  0  0  0  0  0  0  0  0  0  0
  137.6708   78.0010  217.2160 H   0  0  0  0  0  0  0  0  0  0  0  0
  137.0106   76.3304  217.2160 H   0  0  0  0  0  0  0  0  0  0  0  0
  140.0080   78.7560  219.3820 C   0  0  0  0  0  0  0  0  0  0  0  0
  139.0080   78.3065  219.4712 H   0  0  0  0  0  0  0  0  0  0  0  0
  140.5296   78.7473  220.3505 H   0  0  0  0  0  0  0  0  0  0  0  0
  139.8600   80.2160  218.9280 C   0  0  0  0  0  0  0  0  0  0  0  0
  139.3133   80.2324  217.9736 H   0  0  0  0  0  0  0  0  0  0  0  0
  139.3193   80.7534  219.7210 H   0  0  0  0  0  0  0  0  0  0  0  0
  141.7370   79.9450  221.4860 C   0  0  0  0  0  0  0  0  0  0  0  0
  141.6782   79.2191  220.6616 H   0  0  0  0  0  0  0  0  0  0  0  0
  141.0760   76.0160  222.3830 N   0  0  0  0  0  0  0  0  0  0  0  0
  142.0480   75.6300  222.4170 H   0  0  0  0  0  0  0  0  0  0  0  0
  140.0580   75.2170  221.9680 C   0  0  0  0  0  0  0  0  0  0  0  0
  140.2664   74.1728  221.6921 H   0  0  0  0  0  0  0  0  0  0  0  0
  138.7390   75.7070  221.8860 C   0  0  0  0  0  0  0  0  0  0  0  0
  137.6900   74.8410  221.3970 N   0  0  0  0  0  0  0  0  0  0  0  0
  137.7230   74.3410  220.0210 C   0  0  0  0  0  0  0  0  0  0  0  0
  137.7955   73.2434  220.0313 H   0  0  0  0  0  0  0  0  0  0  0  0
  136.8030   74.6428  219.4990 H   0  0  0  0  0  0  0  0  0  0  0  0
  138.5954   74.7612  219.4990 H   0  0  0  0  0  0  0  0  0  0  0  0
  136.4650   74.7020  222.1320 C   0  0  0  0  0  0  0  0  0  0  0  0
  136.1420   73.5780  222.6010 O   0  0  0  0  0  0  0  0  0  0  0  0
  135.5800   75.8790  222.3940 C   0  0  0  0  0  0  0  0  0  0  0  0
  134.5527   75.6273  222.0917 H   0  0  0  0  0  0  0  0  0  0  0  0
  135.6279   76.1127  223.4678 H   0  0  0  0  0  0  0  0  0  0  0  0
  136.0370   77.1110  221.6170 C   0  0  0  0  0  0  0  0  0  0  0  0
  136.2924   76.8190  220.5877 H   0  0  0  0  0  0  0  0  0  0  0  0
  135.2243   77.8521  221.6025 H   0  0  0  0  0  0  0  0  0  0  0  0
  137.9720   80.0030  222.7310 C   0  0  0  0  0  0  0  0  0  0  0  0
  138.8380   79.8458  222.0712 H   0  0  0  0  0  0  0  0  0  0  0  0
  137.7800   81.2450  223.3450 C   0  0  0  0  0  0  0  0  0  0  0  0
  138.4968   82.0608  223.1701 H   0  0  0  0  0  0  0  0  0  0  0  0
  1  2  1  0
  2  3  2  0
  3  4  1  0
  3  5  1  0
  5  6  1  0
  5  7  2  0
  7  8  1  0
  8  9  1  0
  9 10  2  0
 10 11  1  0
 11 12  2  0
 12 13  1  0
 13 14  2  0
 14 15  1  0
 14 16  1  0
 16 17  1  0
 16 18  2  0
 18 19  1  0
 18 20  1  0
 20 21  1  0
 21 22  2  0
 21 23  1  0
 23 24  1  1
 23 25  1  0
 25 26  1  0
 25 27  1  0
 25 28  1  0
 28 29  1  0
 28 30  1  0
 28 31  1  0
 31 32  1  6
 31 33  1  0
 33 34  1  0
 34 35  1  0
 34 36  1  0
 34 37  1  0
 37 38  1  0
 37 39  1  0
 37 40  1  0
 31 41  1  0
 41 42  1  0
 41 43  1  0
 41 44  1  0
 44 45  1  0
 44 46  1  0
 20 47  2  0
 47 48  1  0
 11 49  1  0
 49 50  1  0
 49 51  1  0
 51 52  1  0
 51 53  2  0
 53 54  1  0
 54 55  1  0
 55 56  1  0
 55 57  1  0
 55 58  1  0
 54 59  1  0
 59 60  2  0
 59 61  1  0
 61 62  1  0
 61 63  1  0
 61 64  1  0
 64 65  1  0
 64 66  1  0
  7 67  1  0
 67 68  1  0
 67 69  2  0
 69 70  1  0
 69  2  1  0
 64  8  1  0
 53  9  1  0
 47 13  1  0
 44 23  1  0
M  CHG  1  23   1
M  END
>  <UniqueID>  (27) 
22

>  <SMILES>  (27) 
CCOC1CC[NH+](C(=O)c2cccc(/N=c3\nc4c(c[nH]3)N(C)C(=O)CCN4c3ccccc3)c2)CC1

>  <Energy>  (27) 
110.74662989392861

>  <Genealogy>  (27) 
CCOC1CC[NH+](C(=O)c2cccc(N=c3nc4c(c[nH]3)N(C)C(=O)CCN4c3ccccc3)c2)CC1 (protonated)
CCOC1CC[NH+](C(=O)c2cccc(/N=c3\nc4c(c[nH]3)N(C)C(=O)CCN4c3ccccc3)c2)CC1 (cis-trans isomerization)
CCOC1CC[NH+](C(=O)c2cccc(/N=c3\nc4c(c[nH]3)N(C)C(=O)CCN4c3ccccc3)c2)CC1 (3D coordinates assigned)
CCOC1CC[NH+](C(=O)c2cccc(/N=c3\nc4c(c[nH]3)N(C)C(=O)CCN4c3ccccc3)c2)CC1 (nonaromatic ring conformer: 110.74662989392861 kcal/mol)

>  <smiles>  (27) 
CCOC1CCN(C(=O)c2cccc(N=c3nc4c(c[nH]3)N(C)C(=O)CCN4c3ccccc3)c2)CC1

>  <score_type>  (27) 
oracle

>  <origin>  (27) 
autodockgpu

>  <m_score__min__energy>  (27) 
-6.8300000000000001

>  <m_primary>  (27) 
energy

>  <meeko>  (27) 
{"free_energy": -3.77, "intermolecular_energy": -7.35, "internal_energy": -2.79, "cluster_size": 1, "cluster_id": 11, "rank_in_cluster": 1}

>  <energy>  (27) 
-5.24

>  <cluster_rmsd>  (27) 
0.0

>  <rmsd>  (27) 
270.99

>  <cluster>  (27) 
4

$$$$
KHESEQRZXKFTOB-IGPOTQGWNA-O
     RDKit          3D

 70 74  0  0  0  0  0  0  0  0999 V2000
  146.7489   72.2517  221.4325 H   0  0  0  0  0  0  0  0  0  0  0  0
  145.8860   72.7370  220.9530 C   0  0  0  0  0  0  0  0  0  0  0  0
  145.6990   74.1160  221.0830 C   0  0  0  0  0  0  0  0  0  0  0  0
  146.4125   74.7149  221.6680 H   0  0  0  0  0  0  0  0  0  0  0  0
  144.6060   74.7340  220.4700 C   0  0  0  0  0  0  0  0  0  0  0  0
  144.4584   75.8185  220.5795 H   0  0  0  0  0  0  0  0  0  0  0  0
  143.6940   73.9770  219.7140 C   0  0  0  0  0  0  0  0  0  0  0  0
  142.6140   74.6280  219.0120 N   0  0  0  0  0  0  0  0  0  0  0  0
  141.4800   75.1090  219.7770 C   0  0  0  0  0  0  0  0  0  0  0  0
  141.7360   75.8680  220.8750 N   0  0  0  0  0  0  0  0  0  0  0  0
  140.7630   76.3860  221.6640 C   0  0  0  0  0  0  0  0  0  0  0  0
  141.0710   77.0490  222.7410 N   0  0  0  0  0  0  0  0  0  0  0  0
  141.4530   78.4340  222.7440 C   0  0  0  0  0  0  0  0  0  0  0  0
  142.0110   79.0290  223.8890 C   0  0  0  0  0  0  0  0  0  0  0  0
  142.1981   78.4216  224.7868 H   0  0  0  0  0  0  0  0  0  0  0  0
  142.3280   80.3870  223.8900 C   0  0  0  0  0  0  0  0  0  0  0  0
  142.7723   80.8466  224.7852 H   0  0  0  0  0  0  0  0  0  0  0  0
  142.0820   81.1650  222.7550 C   0  0  0  0  0  0  0  0  0  0  0  0
  142.3308   82.2365  222.7624 H   0  0  0  0  0  0  0  0  0  0  0  0
  141.5190   80.5870  221.6050 C   0  0  0  0  0  0  0  0  0  0  0  0
  141.2120   81.4360  220.4300 C   0  0  0  0  0  0  0  0  0  0  0  0
  140.8650   82.6350  220.6180 O   0  0  0  0  0  0  0  0  0  0  0  0
  141.2760   80.9100  219.0790 N   0  0  1  0  0  0  0  0  0  0  0  0
  141.3200   81.7110  218.4070 H   0  0  0  0  0  0  0  0  0  0  0  0
  142.5440   80.1600  218.8930 C   0  0  0  0  0  0  0  0  0  0  0  0
  143.3734   80.8752  218.7902 H   0  0  0  0  0  0  0  0  0  0  0  0
  142.7004   79.5125  219.7684 H   0  0  0  0  0  0  0  0  0  0  0  0
  142.4820   79.2810  217.6400 C   0  0  0  0  0  0  0  0  0  0  0  0
  142.2571   79.9137  216.7687 H   0  0  0  0  0  0  0  0  0  0  0  0
  143.4544   78.7818  217.5165 H   0  0  0  0  0  0  0  0  0  0  0  0
  141.3890   78.1970  217.7710 C   0  0  2  0  0  0  0  0  0  0  0  0
  141.8519   77.2787  218.1615 H   0  0  0  0  0  0  0  0  0  0  0  0
  140.8230   77.9720  216.4880 O   0  0  0  0  0  0  0  0  0  0  0  0
  141.7170   77.2820  215.6340 C   0  0  0  0  0  0  0  0  0  0  0  0
  141.1702   76.4912  215.0995 H   0  0  0  0  0  0  0  0  0  0  0  0
  142.5216   76.8411  216.2408 H   0  0  0  0  0  0  0  0  0  0  0  0
  142.3310   78.2420  214.6200 C   0  0  0  0  0  0  0  0  0  0  0  0
  142.8500   79.0535  215.1510 H   0  0  0  0  0  0  0  0  0  0  0  0
  143.0495   77.6984  213.9889 H   0  0  0  0  0  0  0  0  0  0  0  0
  141.5362   78.6663  213.9889 H   0  0  0  0  0  0  0  0  0  0  0  0
  140.2790   78.6100  218.7670 C   0  0  0  0  0  0  0  0  0  0  0  0
  139.3431   78.1031  218.4894 H   0  0  0  0  0  0  0  0  0  0  0  0
  140.5974   78.3183  219.7787 H   0  0  0  0  0  0  0  0  0  0  0  0
  140.0470   80.1280  218.7540 C   0  0  0  0  0  0  0  0  0  0  0  0
  139.7003   80.4208  217.7519 H   0  0  0  0  0  0  0  0  0  0  0  0
  139.3001   80.3527  219.5296 H   0  0  0  0  0  0  0  0  0  0  0  0
  141.2400   79.2070  221.5970 C   0  0  0  0  0  0  0  0  0  0  0  0
  140.8521   78.7333  220.6832 H   0  0  0  0  0  0  0  0  0  0  0  0
  139.4620   76.1560  221.3540 N   0  0  0  0  0  0  0  0  0  0  0  0
  138.7030   76.5430  221.9600 H   0  0  0  0  0  0  0  0  0  0  0  0
  139.1300   75.4090  220.2680 C   0  0  0  0  0  0  0  0  0  0  0  0
  138.0694   75.2381  220.0316 H   0  0  0  0  0  0  0  0  0  0  0  0
  140.1250   74.8500  219.4400 C   0  0  0  0  0  0  0  0  0  0  0  0
  139.7340   74.0240  218.3210 N   0  0  0  0  0  0  0  0  0  0  0  0
  138.9270   72.8200  218.5340 C   0  0  0  0  0  0  0  0  0  0  0  0
  138.8090   72.6439  219.6134 H   0  0  0  0  0  0  0  0  0  0  0  0
  137.9370   72.9561  218.0743 H   0  0  0  0  0  0  0  0  0  0  0  0
  139.4291   71.9560  218.0743 H   0  0  0  0  0  0  0  0  0  0  0  0
  140.3660   74.1890  217.0430 C   0  0  0  0  0  0  0  0  0  0  0  0
  139.7160   74.6810  216.0820 O   0  0  0  0  0  0  0  0  0  0  0  0
  141.8040   73.8310  216.8380 C   0  0  0  0  0  0  0  0  0  0  0  0
  141.9781   72.8161  217.2249 H   0  0  0  0  0  0  0  0  0  0  0  0
  142.0220   73.8829  215.7611 H   0  0  0  0  0  0  0  0  0  0  0  0
  142.7320   74.8030  217.5610 C   0  0  0  0  0  0  0  0  0  0  0  0
  143.7707   74.6102  217.2546 H   0  0  0  0  0  0  0  0  0  0  0  0
  142.4492   75.8331  217.2986 H   0  0  0  0  0  0  0  0  0  0  0  0
  143.8850   72.5910  219.5940 C   0  0  0  0  0  0  0  0  0  0  0  0
  143.1735   71.9882  219.0105 H   0  0  0  0  0  0  0  0  0  0  0  0
  144.9770   71.9740  220.2140 C   0  0  0  0  0  0  0  0  0  0  0  0
  145.1205   70.8875  220.1199 H   0  0  0  0  0  0  0  0  0  0  0  0
  1  2  1  0
  2  3  2  0
  3  4  1  0
  3  5  1  0
  5  6  1  0
  5  7  2  0
  7  8  1  0
  8  9  1  0
  9 10  2  0
 10 11  1  0
 11 12  2  0
 12 13  1  0
 13 14  2  0
 14 15  1  0
 14 16  1  0
 16 17  1  0
 16 18  2  0
 18 19  1  0
 18 20  1  0
 20 21  1  0
 21 22  2  0
 21 23  1  0
 23 24  1  1
 23 25  1  0
 25 26  1  0
 25 27  1  0
 25 28  1  0
 28 29  1  0
 28 30  1  0
 28 31  1  0
 31 32  1  6
 31 33  1  0
 33 34  1  0
 34 35  1  0
 34 36  1  0
 34 37  1  0
 37 38  1  0
 37 39  1  0
 37 40  1  0
 31 41  1  0
 41 42  1  0
 41 43  1  0
 41 44  1  0
 44 45  1  0
 44 46  1  0
 20 47  2  0
 47 48  1  0
 11 49  1  0
 49 50  1  0
 49 51  1  0
 51 52  1  0
 51 53  2  0
 53 54  1  0
 54 55  1  0
 55 56  1  0
 55 57  1  0
 55 58  1  0
 54 59  1  0
 59 60  2  0
 59 61  1  0
 61 62  1  0
 61 63  1  0
 61 64  1  0
 64 65  1  0
 64 66  1  0
  7 67  1  0
 67 68  1  0
 67 69  2  0
 69 70  1  0
 69  2  1  0
 64  8  1  0
 53  9  1  0
 47 13  1  0
 44 23  1  0
M  CHG  1  23   1
M  END
>  <UniqueID>  (28) 
22

>  <SMILES>  (28) 
CCOC1CC[NH+](C(=O)c2cccc(/N=c3\nc4c(c[nH]3)N(C)C(=O)CCN4c3ccccc3)c2)CC1

>  <Energy>  (28) 
110.74662989392861

>  <Genealogy>  (28) 
CCOC1CC[NH+](C(=O)c2cccc(N=c3nc4c(c[nH]3)N(C)C(=O)CCN4c3ccccc3)c2)CC1 (protonated)
CCOC1CC[NH+](C(=O)c2cccc(/N=c3\nc4c(c[nH]3)N(C)C(=O)CCN4c3ccccc3)c2)CC1 (cis-trans isomerization)
CCOC1CC[NH+](C(=O)c2cccc(/N=c3\nc4c(c[nH]3)N(C)C(=O)CCN4c3ccccc3)c2)CC1 (3D coordinates assigned)
CCOC1CC[NH+](C(=O)c2cccc(/N=c3\nc4c(c[nH]3)N(C)C(=O)CCN4c3ccccc3)c2)CC1 (nonaromatic ring conformer: 110.74662989392861 kcal/mol)

>  <smiles>  (28) 
CCOC1CCN(C(=O)c2cccc(N=c3nc4c(c[nH]3)N(C)C(=O)CCN4c3ccccc3)c2)CC1

>  <score_type>  (28) 
oracle

>  <origin>  (28) 
autodockgpu

>  <m_score__min__energy>  (28) 
-6.8300000000000001

>  <m_primary>  (28) 
energy

>  <meeko>  (28) 
{"free_energy": -4.43, "intermolecular_energy": -8.01, "internal_energy": -2.82, "cluster_size": 1, "cluster_id": 9, "rank_in_cluster": 1}

>  <energy>  (28) 
-4.95

>  <cluster_rmsd>  (28) 
1.97

>  <rmsd>  (28) 
270.82

>  <cluster>  (28) 
4

$$$$
KHESEQRZXKFTOB-IGPOTQGWNA-O
     RDKit          3D

 70 74  0  0  0  0  0  0  0  0999 V2000
  144.4168   80.8350  223.2883 H   0  0  0  0  0  0  0  0  0  0  0  0
  143.3440   80.5920  223.2820 C   0  0  0  0  0  0  0  0  0  0  0  0
  142.4140   81.5200  223.7610 C   0  0  0  0  0  0  0  0  0  0  0  0
  142.7556   82.4916  224.1473 H   0  0  0  0  0  0  0  0  0  0  0  0
  141.0500   81.2130  223.7490 C   0  0  0  0  0  0  0  0  0  0  0  0
  140.3215   81.9421  224.1334 H   0  0  0  0  0  0  0  0  0  0  0  0
  140.6050   79.9770  223.2480 C   0  0  0  0  0  0  0  0  0  0  0  0
  139.1930   79.6950  223.1580 N   0  0  0  0  0  0  0  0  0  0  0  0
  138.7210   78.8600  222.0690 C   0  0  0  0  0  0  0  0  0  0  0  0
  139.3640   77.6820  221.8530 N   0  0  0  0  0  0  0  0  0  0  0  0
  139.0100   76.8110  220.8770 C   0  0  0  0  0  0  0  0  0  0  0  0
  139.7060   75.7290  220.6750 N   0  0  0  0  0  0  0  0  0  0  0  0
  141.0160   75.7210  220.0840 C   0  0  0  0  0  0  0  0  0  0  0  0
  142.0480   74.9330  220.6210 C   0  0  0  0  0  0  0  0  0  0  0  0
  141.8472   74.2789  221.4823 H   0  0  0  0  0  0  0  0  0  0  0  0
  143.3260   74.9780  220.0650 C   0  0  0  0  0  0  0  0  0  0  0  0
  144.1288   74.3530  220.4833 H   0  0  0  0  0  0  0  0  0  0  0  0
  143.5890   75.8150  218.9780 C   0  0  0  0  0  0  0  0  0  0  0  0
  144.6001   75.8487  218.5461 H   0  0  0  0  0  0  0  0  0  0  0  0
  142.5700   76.6140  218.4330 C   0  0  0  0  0  0  0  0  0  0  0  0
  142.8770   77.5390  217.3170 C   0  0  0  0  0  0  0  0  0  0  0  0
  143.5870   77.1230  216.3590 O   0  0  0  0  0  0  0  0  0  0  0  0
  142.4030   78.9100  217.3180 N   0  0  1  0  0  0  0  0  0  0  0  0
  143.0150   79.4790  216.6890 H   0  0  0  0  0  0  0  0  0  0  0  0
  141.0460   78.9720  216.7200 C   0  0  0  0  0  0  0  0  0  0  0  0
  141.1289   78.8680  215.6281 H   0  0  0  0  0  0  0  0  0  0  0  0
  140.4403   78.1554  217.1399 H   0  0  0  0  0  0  0  0  0  0  0  0
  140.3630   80.3040  217.0460 C   0  0  0  0  0  0  0  0  0  0  0  0
  140.9974   81.1291  216.6899 H   0  0  0  0  0  0  0  0  0  0  0  0
  139.3833   80.3245  216.5463 H   0  0  0  0  0  0  0  0  0  0  0  0
  140.1400   80.4600  218.5660 C   0  0  2  0  0  0  0  0  0  0  0  0
  139.1302   80.0985  218.8104 H   0  0  0  0  0  0  0  0  0  0  0  0
  140.2820   81.8340  218.9020 O   0  0  0  0  0  0  0  0  0  0  0  0
  140.8250   82.0020  220.1990 C   0  0  0  0  0  0  0  0  0  0  0  0
  141.8506   82.3908  220.1155 H   0  0  0  0  0  0  0  0  0  0  0  0
  140.8314   81.0295  220.7130 H   0  0  0  0  0  0  0  0  0  0  0  0
  139.9790   82.9830  221.0040 C   0  0  0  0  0  0  0  0  0  0  0  0
  140.1331   82.8043  222.0784 H   0  0  0  0  0  0  0  0  0  0  0  0
  140.2770   84.0127  220.7571 H   0  0  0  0  0  0  0  0  0  0  0  0
  138.9167   82.8396  220.7571 H   0  0  0  0  0  0  0  0  0  0  0  0
  141.1400   79.6140  219.3900 C   0  0  0  0  0  0  0  0  0  0  0  0
  141.2844   80.0876  220.3722 H   0  0  0  0  0  0  0  0  0  0  0  0
  140.7258   78.6010  219.5008 H   0  0  0  0  0  0  0  0  0  0  0  0
  142.5000   79.5040  218.6840 C   0  0  0  0  0  0  0  0  0  0  0  0
  142.9325   80.5117  218.5979 H   0  0  0  0  0  0  0  0  0  0  0  0
  143.1309   78.8360  219.2887 H   0  0  0  0  0  0  0  0  0  0  0  0
  141.2720   76.5330  218.9730 C   0  0  0  0  0  0  0  0  0  0  0  0
  140.4541   77.1115  218.5188 H   0  0  0  0  0  0  0  0  0  0  0  0
  137.9590   77.1060  220.0710 N   0  0  0  0  0  0  0  0  0  0  0  0
  137.6830   76.4460  219.3090 H   0  0  0  0  0  0  0  0  0  0  0  0
  137.2660   78.2640  220.2310 C   0  0  0  0  0  0  0  0  0  0  0  0
  136.4138   78.4811  219.5703 H   0  0  0  0  0  0  0  0  0  0  0  0
  137.6230   79.1910  221.2310 C   0  0  0  0  0  0  0  0  0  0  0  0
  136.8910   80.4320  221.3410 N   0  0  0  0  0  0  0  0  0  0  0  0
  136.8160   81.3520  220.2030 C   0  0  0  0  0  0  0  0  0  0  0  0
  136.7318   82.3850  220.5715 H   0  0  0  0  0  0  0  0  0  0  0  0
  137.7251   81.2538  219.5916 H   0  0  0  0  0  0  0  0  0  0  0  0
  135.9348   81.1078  219.5916 H   0  0  0  0  0  0  0  0  0  0  0  0
  136.4900   80.9240  222.6280 C   0  0  0  0  0  0  0  0  0  0  0  0
  135.2690   80.9260  222.9430 O   0  0  0  0  0  0  0  0  0  0  0  0
  137.4980   81.3940  223.6280 C   0  0  0  0  0  0  0  0  0  0  0  0
  138.1824   82.1029  223.1392 H   0  0  0  0  0  0  0  0  0  0  0  0
  136.9610   81.8763  224.4581 H   0  0  0  0  0  0  0  0  0  0  0  0
  138.3060   80.2370  224.1920 C   0  0  0  0  0  0  0  0  0  0  0  0
  138.9096   80.5931  225.0399 H   0  0  0  0  0  0  0  0  0  0  0  0
  137.6190   79.4469  224.5295 H   0  0  0  0  0  0  0  0  0  0  0  0
  141.5460   79.0480  222.7760 C   0  0  0  0  0  0  0  0  0  0  0  0
  141.2089   78.0748  222.3897 H   0  0  0  0  0  0  0  0  0  0  0  0
  142.9100   79.3550  222.7950 C   0  0  0  0  0  0  0  0  0  0  0  0
  143.6429   78.6223  222.4263 H   0  0  0  0  0  0  0  0  0  0  0  0
  1  2  1  0
  2  3  2  0
  3  4  1  0
  3  5  1  0
  5  6  1  0
  5  7  2  0
  7  8  1  0
  8  9  1  0
  9 10  2  0
 10 11  1  0
 11 12  2  0
 12 13  1  0
 13 14  2  0
 14 15  1  0
 14 16  1  0
 16 17  1  0
 16 18  2  0
 18 19  1  0
 18 20  1  0
 20 21  1  0
 21 22  2  0
 21 23  1  0
 23 24  1  1
 23 25  1  0
 25 26  1  0
 25 27  1  0
 25 28  1  0
 28 29  1  0
 28 30  1  0
 28 31  1  0
 31 32  1  1
 31 33  1  0
 33 34  1  0
 34 35  1  0
 34 36  1  0
 34 37  1  0
 37 38  1  0
 37 39  1  0
 37 40  1  0
 31 41  1  0
 41 42  1  0
 41 43  1  0
 41 44  1  0
 44 45  1  0
 44 46  1  0
 20 47  2  0
 47 48  1  0
 11 49  1  0
 49 50  1  0
 49 51  1  0
 51 52  1  0
 51 53  2  0
 53 54  1  0
 54 55  1  0
 55 56  1  0
 55 57  1  0
 55 58  1  0
 54 59  1  0
 59 60  2  0
 59 61  1  0
 61 62  1  0
 61 63  1  0
 61 64  1  0
 64 65  1  0
 64 66  1  0
  7 67  1  0
 67 68  1  0
 67 69  2  0
 69 70  1  0
 69  2  1  0
 64  8  1  0
 53  9  1  0
 47 13  1  0
 44 23  1  0
M  CHG  1  23   1
M  END
>  <UniqueID>  (29) 
22

>  <SMILES>  (29) 
CCOC1CC[NH+](C(=O)c2cccc(/N=c3\nc4c(c[nH]3)N(C)C(=O)CCN4c3ccccc3)c2)CC1

>  <Energy>  (29) 
110.74662989392861

>  <Genealogy>  (29) 
CCOC1CC[NH+](C(=O)c2cccc(N=c3nc4c(c[nH]3)N(C)C(=O)CCN4c3ccccc3)c2)CC1 (protonated)
CCOC1CC[NH+](C(=O)c2cccc(/N=c3\nc4c(c[nH]3)N(C)C(=O)CCN4c3ccccc3)c2)CC1 (cis-trans isomerization)
CCOC1CC[NH+](C(=O)c2cccc(/N=c3\nc4c(c[nH]3)N(C)C(=O)CCN4c3ccccc3)c2)CC1 (3D coordinates assigned)
CCOC1CC[NH+](C(=O)c2cccc(/N=c3\nc4c(c[nH]3)N(C)C(=O)CCN4c3ccccc3)c2)CC1 (nonaromatic ring conformer: 110.74662989392861 kcal/mol)

>  <smiles>  (29) 
CCOC1CCN(C(=O)c2cccc(N=c3nc4c(c[nH]3)N(C)C(=O)CCN4c3ccccc3)c2)CC1

>  <score_type>  (29) 
oracle

>  <origin>  (29) 
autodockgpu

>  <m_score__min__energy>  (29) 
-6.8300000000000001

>  <m_primary>  (29) 
energy

>  <meeko>  (29) 
{"free_energy": -4.51, "intermolecular_energy": -8.09, "internal_energy": -3.46, "cluster_size": 1, "cluster_id": 8, "rank_in_cluster": 1}

>  <energy>  (29) 
-4.78

>  <cluster_rmsd>  (29) 
1.8

>  <rmsd>  (29) 
270.72

>  <cluster>  (29) 
4

$$$$
KHESEQRZXKFTOB-IGPOTQGWNA-O
     RDKit          3D

 70 74  0  0  0  0  0  0  0  0999 V2000
  140.9412   78.0447  215.2936 H   0  0  0  0  0  0  0  0  0  0  0  0
  141.2670   77.5510  216.2210 C   0  0  0  0  0  0  0  0  0  0  0  0
  140.3990   76.6860  216.8940 C   0  0  0  0  0  0  0  0  0  0  0  0
  139.3897   76.5011  216.4975 H   0  0  0  0  0  0  0  0  0  0  0  0
  140.8140   76.0560  218.0710 C   0  0  0  0  0  0  0  0  0  0  0  0
  140.1260   75.3820  218.6024 H   0  0  0  0  0  0  0  0  0  0  0  0
  142.1050   76.2790  218.5790 C   0  0  0  0  0  0  0  0  0  0  0  0
  142.5620   75.5640  219.7460 N   0  0  0  0  0  0  0  0  0  0  0  0
  141.5820   74.8800  220.5680 C   0  0  0  0  0  0  0  0  0  0  0  0
  140.5400   75.6090  221.0460 N   0  0  0  0  0  0  0  0  0  0  0  0
  139.5550   75.0830  221.8140 C   0  0  0  0  0  0  0  0  0  0  0  0
  138.6180   75.8470  222.2980 N   0  0  0  0  0  0  0  0  0  0  0  0
  138.8110   77.2290  222.6400 C   0  0  0  0  0  0  0  0  0  0  0  0
  137.7150   78.0770  222.8740 C   0  0  0  0  0  0  0  0  0  0  0  0
  136.6920   77.6743  222.8370 H   0  0  0  0  0  0  0  0  0  0  0  0
  137.9210   79.4280  223.1530 C   0  0  0  0  0  0  0  0  0  0  0  0
  137.0607   80.0862  223.3443 H   0  0  0  0  0  0  0  0  0  0  0  0
  139.2170   79.9470  223.1900 C   0  0  0  0  0  0  0  0  0  0  0  0
  139.3730   81.0141  223.4066 H   0  0  0  0  0  0  0  0  0  0  0  0
  140.3230   79.1130  222.9520 C   0  0  0  0  0  0  0  0  0  0  0  0
  141.6890   79.6890  222.9390 C   0  0  0  0  0  0  0  0  0  0  0  0
  142.3320   79.7560  224.0230 O   0  0  0  0  0  0  0  0  0  0  0  0
  142.2850   80.1960  221.7170 N   0  0  1  0  0  0  0  0  0  0  0  0
  143.3220   80.0690  221.7700 H   0  0  0  0  0  0  0  0  0  0  0  0
  141.8390   79.3740  220.5640 C   0  0  0  0  0  0  0  0  0  0  0  0
  142.3754   78.4138  220.5775 H   0  0  0  0  0  0  0  0  0  0  0  0
  140.7546   79.2100  220.6483 H   0  0  0  0  0  0  0  0  0  0  0  0
  142.1240   80.0890  219.2390 C   0  0  0  0  0  0  0  0  0  0  0  0
  143.1981   80.3184  219.1789 H   0  0  0  0  0  0  0  0  0  0  0  0
  141.8220   79.4270  218.4140 H   0  0  0  0  0  0  0  0  0  0  0  0
  141.3210   81.4040  219.1300 C   0  0  2  0  0  0  0  0  0  0  0  0
  140.3805   81.1972  218.5983 H   0  0  0  0  0  0  0  0  0  0  0  0
  142.1060   82.3520  218.4200 O   0  0  0  0  0  0  0  0  0  0  0  0
  142.9120   81.7320  217.4360 C   0  0  0  0  0  0  0  0  0  0  0  0
  142.2709   81.3634  216.6217 H   0  0  0  0  0  0  0  0  0  0  0  0
  143.4568   80.8944  217.8961 H   0  0  0  0  0  0  0  0  0  0  0  0
  143.9200   82.7280  216.8710 C   0  0  0  0  0  0  0  0  0  0  0  0
  144.4355   83.2373  217.6985 H   0  0  0  0  0  0  0  0  0  0  0  0
  144.6569   82.1935  216.2535 H   0  0  0  0  0  0  0  0  0  0  0  0
  143.3944   83.4713  216.2535 H   0  0  0  0  0  0  0  0  0  0  0  0
  140.9460   81.9710  220.5190 C   0  0  0  0  0  0  0  0  0  0  0  0
  140.8312   83.0622  220.4404 H   0  0  0  0  0  0  0  0  0  0  0  0
  140.0055   81.5002  220.8412 H   0  0  0  0  0  0  0  0  0  0  0  0
  142.0250   81.6570  221.5660 C   0  0  0  0  0  0  0  0  0  0  0  0
  142.9607   82.1498  221.2633 H   0  0  0  0  0  0  0  0  0  0  0  0
  141.6598   82.0274  222.5352 H   0  0  0  0  0  0  0  0  0  0  0  0
  140.1110   77.7420  222.7120 C   0  0  0  0  0  0  0  0  0  0  0  0
  140.9721   77.0703  222.5804 H   0  0  0  0  0  0  0  0  0  0  0  0
  139.5860   73.7620  222.1240 N   0  0  0  0  0  0  0  0  0  0  0  0
  138.8370   73.3470  222.7230 H   0  0  0  0  0  0  0  0  0  0  0  0
  140.5960   72.9700  221.6780 C   0  0  0  0  0  0  0  0  0  0  0  0
  140.6007   71.9010  221.9374 H   0  0  0  0  0  0  0  0  0  0  0  0
  141.6380   73.4970  220.8880 C   0  0  0  0  0  0  0  0  0  0  0  0
  142.7180   72.6330  220.4700 N   0  0  0  0  0  0  0  0  0  0  0  0
  142.4860   71.2000  220.2680 C   0  0  0  0  0  0  0  0  0  0  0  0
  142.4051   70.7004  221.2447 H   0  0  0  0  0  0  0  0  0  0  0  0
  141.5528   71.0556  219.7039 H   0  0  0  0  0  0  0  0  0  0  0  0
  143.3260   70.7685  219.7039 H   0  0  0  0  0  0  0  0  0  0  0  0
  144.0770   73.0880  220.5380 C   0  0  0  0  0  0  0  0  0  0  0  0
  144.8800   72.5410  221.3410 O   0  0  0  0  0  0  0  0  0  0  0  0
  144.5780   74.1740  219.6390 C   0  0  0  0  0  0  0  0  0  0  0  0
  145.6748   74.2188  219.7099 H   0  0  0  0  0  0  0  0  0  0  0  0
  144.2603   73.9443  218.6112 H   0  0  0  0  0  0  0  0  0  0  0  0
  144.0010   75.5320  220.0250 C   0  0  0  0  0  0  0  0  0  0  0  0
  144.1678   75.7068  221.0981 H   0  0  0  0  0  0  0  0  0  0  0  0
  144.5000   76.3163  219.4368 H   0  0  0  0  0  0  0  0  0  0  0  0
  142.9690   77.1550  217.9000 C   0  0  0  0  0  0  0  0  0  0  0  0
  143.9791   77.3428  218.2931 H   0  0  0  0  0  0  0  0  0  0  0  0
  142.5490   77.7890  216.7260 C   0  0  0  0  0  0  0  0  0  0  0  0
  143.2281   78.4757  216.1994 H   0  0  0  0  0  0  0  0  0  0  0  0
  1  2  1  0
  2  3  2  0
  3  4  1  0
  3  5  1  0
  5  6  1  0
  5  7  2  0
  7  8  1  0
  8  9  1  0
  9 10  2  0
 10 11  1  0
 11 12  2  0
 12 13  1  0
 13 14  2  0
 14 15  1  0
 14 16  1  0
 16 17  1  0
 16 18  2  0
 18 19  1  0
 18 20  1  0
 20 21  1  0
 21 22  2  0
 21 23  1  0
 23 24  1  6
 23 25  1  0
 25 26  1  0
 25 27  1  0
 25 28  1  0
 28 29  1  0
 28 30  1  0
 28 31  1  0
 31 32  1  1
 31 33  1  0
 33 34  1  0
 34 35  1  0
 34 36  1  0
 34 37  1  0
 37 38  1  0
 37 39  1  0
 37 40  1  0
 31 41  1  0
 41 42  1  0
 41 43  1  0
 41 44  1  0
 44 45  1  0
 44 46  1  0
 20 47  2  0
 47 48  1  0
 11 49  1  0
 49 50  1  0
 49 51  1  0
 51 52  1  0
 51 53  2  0
 53 54  1  0
 54 55  1  0
 55 56  1  0
 55 57  1  0
 55 58  1  0
 54 59  1  0
 59 60  2  0
 59 61  1  0
 61 62  1  0
 61 63  1  0
 61 64  1  0
 64 65  1  0
 64 66  1  0
  7 67  1  0
 67 68  1  0
 67 69  2  0
 69 70  1  0
 69  2  1  0
 64  8  1  0
 53  9  1  0
 47 13  1  0
 44 23  1  0
M  CHG  1  23   1
M  END
>  <UniqueID>  (30) 
22

>  <SMILES>  (30) 
CCOC1CC[NH+](C(=O)c2cccc(/N=c3\nc4c(c[nH]3)N(C)C(=O)CCN4c3ccccc3)c2)CC1

>  <Energy>  (30) 
110.74662989392861

>  <Genealogy>  (30) 
CCOC1CC[NH+](C(=O)c2cccc(N=c3nc4c(c[nH]3)N(C)C(=O)CCN4c3ccccc3)c2)CC1 (protonated)
CCOC1CC[NH+](C(=O)c2cccc(/N=c3\nc4c(c[nH]3)N(C)C(=O)CCN4c3ccccc3)c2)CC1 (cis-trans isomerization)
CCOC1CC[NH+](C(=O)c2cccc(/N=c3\nc4c(c[nH]3)N(C)C(=O)CCN4c3ccccc3)c2)CC1 (3D coordinates assigned)
CCOC1CC[NH+](C(=O)c2cccc(/N=c3\nc4c(c[nH]3)N(C)C(=O)CCN4c3ccccc3)c2)CC1 (nonaromatic ring conformer: 110.74662989392861 kcal/mol)

>  <smiles>  (30) 
CCOC1CCN(C(=O)c2cccc(N=c3nc4c(c[nH]3)N(C)C(=O)CCN4c3ccccc3)c2)CC1

>  <score_type>  (30) 
oracle

>  <origin>  (30) 
autodockgpu

>  <m_score__min__energy>  (30) 
-6.8300000000000001

>  <m_primary>  (30) 
energy

>  <meeko>  (30) 
{"free_energy": -5.6, "intermolecular_energy": -9.18, "internal_energy": -2.49, "cluster_size": 3, "cluster_id": 2, "rank_in_cluster": 1}

>  <energy>  (30) 
-4.56

>  <cluster_rmsd>  (30) 
1.95

>  <rmsd>  (30) 
271.15

>  <cluster>  (30) 
4

$$$$
KHESEQRZXKFTOB-IGPOTQGWNA-O
     RDKit          3D

 70 74  0  0  0  0  0  0  0  0999 V2000
  137.5560   74.7514  222.3848 H   0  0  0  0  0  0  0  0  0  0  0  0
  138.2850   75.5710  222.3020 C   0  0  0  0  0  0  0  0  0  0  0  0
  139.6100   75.2950  221.9520 C   0  0  0  0  0  0  0  0  0  0  0  0
  139.9241   74.2580  221.7623 H   0  0  0  0  0  0  0  0  0  0  0  0
  140.5360   76.3370  221.8430 C   0  0  0  0  0  0  0  0  0  0  0  0
  141.5797   76.1157  221.5751 H   0  0  0  0  0  0  0  0  0  0  0  0
  140.1400   77.6660  222.0740 C   0  0  0  0  0  0  0  0  0  0  0  0
  141.0740   78.7480  221.8790 N   0  0  0  0  0  0  0  0  0  0  0  0
  141.6430   78.9420  220.5580 C   0  0  0  0  0  0  0  0  0  0  0  0
  142.2740   77.8860  219.9810 N   0  0  0  0  0  0  0  0  0  0  0  0
  142.8350   77.9390  218.7490 C   0  0  0  0  0  0  0  0  0  0  0  0
  143.4840   76.9140  218.2760 N   0  0  0  0  0  0  0  0  0  0  0  0
  142.9480   75.5820  218.2290 C   0  0  0  0  0  0  0  0  0  0  0  0
  142.2400   75.1260  217.1040 C   0  0  0  0  0  0  0  0  0  0  0  0
  142.1253   75.7792  216.2264 H   0  0  0  0  0  0  0  0  0  0  0  0
  141.6820   73.8470  217.0970 C   0  0  0  0  0  0  0  0  0  0  0  0
  141.1359   73.4908  216.2110 H   0  0  0  0  0  0  0  0  0  0  0  0
  141.8160   73.0180  218.2140 C   0  0  0  0  0  0  0  0  0  0  0  0
  141.3699   72.0126  218.2053 H   0  0  0  0  0  0  0  0  0  0  0  0
  142.5170   73.4610  219.3480 C   0  0  0  0  0  0  0  0  0  0  0  0
  142.6020   72.5930  220.5460 C   0  0  0  0  0  0  0  0  0  0  0  0
  141.8460   72.8320  221.5280 O   0  0  0  0  0  0  0  0  0  0  0  0
  143.5500   71.4970  220.6190 N   0  0  1  0  0  0  0  0  0  0  0  0
  143.6950   71.2430  221.6240 H   0  0  0  0  0  0  0  0  0  0  0  0
  142.9700   70.2890  219.9800 C   0  0  0  0  0  0  0  0  0  0  0  0
  142.2185   69.8512  220.6535 H   0  0  0  0  0  0  0  0  0  0  0  0
  142.5071   70.5842  219.0268 H   0  0  0  0  0  0  0  0  0  0  0  0
  144.0550   69.2460  219.6940 C   0  0  0  0  0  0  0  0  0  0  0  0
  144.5689   68.9961  220.6339 H   0  0  0  0  0  0  0  0  0  0  0  0
  143.5756   68.3540  219.2646 H   0  0  0  0  0  0  0  0  0  0  0  0
  145.0910   69.7800  218.6800 C   0  0  2  0  0  0  0  0  0  0  0  0
  144.7883   69.4646  217.6706 H   0  0  0  0  0  0  0  0  0  0  0  0
  146.3640   69.2470  219.0160 O   0  0  0  0  0  0  0  0  0  0  0  0
  146.2620   67.9380  219.5460 C   0  0  0  0  0  0  0  0  0  0  0  0
  145.4342   67.9033  220.2696 H   0  0  0  0  0  0  0  0  0  0  0  0
  147.2088   67.6790  220.0425 H   0  0  0  0  0  0  0  0  0  0  0  0
  145.9970   66.9330  218.4310 C   0  0  0  0  0  0  0  0  0  0  0  0
  145.7398   65.9577  218.8699 H   0  0  0  0  0  0  0  0  0  0  0  0
  145.1615   67.2870  217.8092 H   0  0  0  0  0  0  0  0  0  0  0  0
  146.8984   66.8290  217.8092 H   0  0  0  0  0  0  0  0  0  0  0  0
  145.1550   71.3250  218.6760 C   0  0  0  0  0  0  0  0  0  0  0  0
  146.1576   71.6403  218.3515 H   0  0  0  0  0  0  0  0  0  0  0  0
  144.3841   71.7005  217.9870 H   0  0  0  0  0  0  0  0  0  0  0  0
  144.8770   71.9040  220.0720 C   0  0  0  0  0  0  0  0  0  0  0  0
  145.6615   71.5540  220.7591 H   0  0  0  0  0  0  0  0  0  0  0  0
  144.8718   73.0000  219.9782 H   0  0  0  0  0  0  0  0  0  0  0  0
  143.1120   74.7370  219.3320 C   0  0  0  0  0  0  0  0  0  0  0  0
  143.7098   75.0718  220.1925 H   0  0  0  0  0  0  0  0  0  0  0  0
  142.7660   79.0910  218.0350 N   0  0  0  0  0  0  0  0  0  0  0  0
  143.2030   79.1460  217.0860 H   0  0  0  0  0  0  0  0  0  0  0  0
  142.1480   80.1870  218.5470 C   0  0  0  0  0  0  0  0  0  0  0  0
  142.1002   81.1099  217.9503 H   0  0  0  0  0  0  0  0  0  0  0  0
  141.5670   80.1600  219.8310 C   0  0  0  0  0  0  0  0  0  0  0  0
  140.9590   81.3590  220.3590 N   0  0  0  0  0  0  0  0  0  0  0  0
  140.3590   82.3460  219.4570 C   0  0  0  0  0  0  0  0  0  0  0  0
  139.8773   83.1384  220.0487 H   0  0  0  0  0  0  0  0  0  0  0  0
  141.1421   82.7868  218.8226 H   0  0  0  0  0  0  0  0  0  0  0  0
  139.6072   81.8537  218.8226 H   0  0  0  0  0  0  0  0  0  0  0  0
  141.1920   81.7500  221.7210 C   0  0  0  0  0  0  0  0  0  0  0  0
  141.8350   82.8060  221.9660 O   0  0  0  0  0  0  0  0  0  0  0  0
  140.6450   80.9530  222.8610 C   0  0  0  0  0  0  0  0  0  0  0  0
  140.7577   81.5329  223.7889 H   0  0  0  0  0  0  0  0  0  0  0  0
  139.5849   80.7420  222.6569 H   0  0  0  0  0  0  0  0  0  0  0  0
  141.3760   79.6230  223.0160 C   0  0  0  0  0  0  0  0  0  0  0  0
  142.4599   79.8059  223.0568 H   0  0  0  0  0  0  0  0  0  0  0  0
  141.0442   79.1353  223.9444 H   0  0  0  0  0  0  0  0  0  0  0  0
  138.8080   77.9340  222.4320 C   0  0  0  0  0  0  0  0  0  0  0  0
  138.4894   78.9695  222.6225 H   0  0  0  0  0  0  0  0  0  0  0  0
  137.8860   76.8890  222.5470 C   0  0  0  0  0  0  0  0  0  0  0  0
  136.8451   77.1039  222.8306 H   0  0  0  0  0  0  0  0  0  0  0  0
  1  2  1  0
  2  3  2  0
  3  4  1  0
  3  5  1  0
  5  6  1  0
  5  7  2  0
  7  8  1  0
  8  9  1  0
  9 10  2  0
 10 11  1  0
 11 12  2  0
 12 13  1  0
 13 14  2  0
 14 15  1  0
 14 16  1  0
 16 17  1  0
 16 18  2  0
 18 19  1  0
 18 20  1  0
 20 21  1  0
 21 22  2  0
 21 23  1  0
 23 24  1  6
 23 25  1  0
 25 26  1  0
 25 27  1  0
 25 28  1  0
 28 29  1  0
 28 30  1  0
 28 31  1  0
 31 32  1  1
 31 33  1  0
 33 34  1  0
 34 35  1  0
 34 36  1  0
 34 37  1  0
 37 38  1  0
 37 39  1  0
 37 40  1  0
 31 41  1  0
 41 42  1  0
 41 43  1  0
 41 44  1  0
 44 45  1  0
 44 46  1  0
 20 47  2  0
 47 48  1  0
 11 49  1  0
 49 50  1  0
 49 51  1  0
 51 52  1  0
 51 53  2  0
 53 54  1  0
 54 55  1  0
 55 56  1  0
 55 57  1  0
 55 58  1  0
 54 59  1  0
 59 60  2  0
 59 61  1  0
 61 62  1  0
 61 63  1  0
 61 64  1  0
 64 65  1  0
 64 66  1  0
  7 67  1  0
 67 68  1  0
 67 69  2  0
 69 70  1  0
 69  2  1  0
 64  8  1  0
 53  9  1  0
 47 13  1  0
 44 23  1  0
M  CHG  1  23   1
M  END
>  <UniqueID>  (31) 
22

>  <SMILES>  (31) 
CCOC1CC[NH+](C(=O)c2cccc(/N=c3\nc4c(c[nH]3)N(C)C(=O)CCN4c3ccccc3)c2)CC1

>  <Energy>  (31) 
110.74662989392861

>  <Genealogy>  (31) 
CCOC1CC[NH+](C(=O)c2cccc(N=c3nc4c(c[nH]3)N(C)C(=O)CCN4c3ccccc3)c2)CC1 (protonated)
CCOC1CC[NH+](C(=O)c2cccc(/N=c3\nc4c(c[nH]3)N(C)C(=O)CCN4c3ccccc3)c2)CC1 (cis-trans isomerization)
CCOC1CC[NH+](C(=O)c2cccc(/N=c3\nc4c(c[nH]3)N(C)C(=O)CCN4c3ccccc3)c2)CC1 (3D coordinates assigned)
CCOC1CC[NH+](C(=O)c2cccc(/N=c3\nc4c(c[nH]3)N(C)C(=O)CCN4c3ccccc3)c2)CC1 (nonaromatic ring conformer: 110.74662989392861 kcal/mol)

>  <smiles>  (31) 
CCOC1CCN(C(=O)c2cccc(N=c3nc4c(c[nH]3)N(C)C(=O)CCN4c3ccccc3)c2)CC1

>  <score_type>  (31) 
oracle

>  <origin>  (31) 
autodockgpu

>  <m_score__min__energy>  (31) 
-6.8300000000000001

>  <m_primary>  (31) 
energy

>  <meeko>  (31) 
{"free_energy": -5.13, "intermolecular_energy": -8.71, "internal_energy": -2.18, "cluster_size": 1, "cluster_id": 5, "rank_in_cluster": 1}

>  <energy>  (31) 
-5.13

>  <cluster_rmsd>  (31) 
0.0

>  <rmsd>  (31) 
270.67

>  <cluster>  (31) 
5

$$$$
KHESEQRZXKFTOB-IGPOTQGWNA-O
     RDKit          3D

 70 74  0  0  0  0  0  0  0  0999 V2000
  143.5834   80.7133  224.5324 H   0  0  0  0  0  0  0  0  0  0  0  0
  142.6790   80.4530  223.9630 C   0  0  0  0  0  0  0  0  0  0  0  0
  142.2590   79.1210  223.8880 C   0  0  0  0  0  0  0  0  0  0  0  0
  142.8346   78.3332  224.3960 H   0  0  0  0  0  0  0  0  0  0  0  0
  141.1070   78.7910  223.1670 C   0  0  0  0  0  0  0  0  0  0  0  0
  140.7831   77.7417  223.1036 H   0  0  0  0  0  0  0  0  0  0  0  0
  140.3610   79.7930  222.5230 C   0  0  0  0  0  0  0  0  0  0  0  0
  139.1270   79.4640  221.8510 N   0  0  0  0  0  0  0  0  0  0  0  0
  138.6710   78.0870  221.8760 C   0  0  0  0  0  0  0  0  0  0  0  0
  139.5270   77.1290  221.4330 N   0  0  0  0  0  0  0  0  0  0  0  0
  139.2220   75.8090  221.4170 C   0  0  0  0  0  0  0  0  0  0  0  0
  140.0590   74.9450  220.9180 N   0  0  0  0  0  0  0  0  0  0  0  0
  141.2780   75.3090  220.2500 C   0  0  0  0  0  0  0  0  0  0  0  0
  142.5240   74.8700  220.7290 C   0  0  0  0  0  0  0  0  0  0  0  0
  142.5717   74.2042  221.6033 H   0  0  0  0  0  0  0  0  0  0  0  0
  143.7010   75.2760  220.0990 C   0  0  0  0  0  0  0  0  0  0  0  0
  144.6739   74.9241  220.4728 H   0  0  0  0  0  0  0  0  0  0  0  0
  143.6450   76.1290  218.9940 C   0  0  0  0  0  0  0  0  0  0  0  0
  144.5758   76.4489  218.5028 H   0  0  0  0  0  0  0  0  0  0  0  0
  142.4070   76.5810  218.5060 C   0  0  0  0  0  0  0  0  0  0  0  0
  142.3670   77.5310  217.3690 C   0  0  0  0  0  0  0  0  0  0  0  0
  142.1260   77.0860  216.2120 O   0  0  0  0  0  0  0  0  0  0  0  0
  142.6230   78.9460  217.5560 N   0  0  1  0  0  0  0  0  0  0  0  0
  143.6190   79.1450  217.3070 H   0  0  0  0  0  0  0  0  0  0  0  0
  141.8060   79.7350  216.5990 C   0  0  0  0  0  0  0  0  0  0  0  0
  142.2516   79.6575  215.5963 H   0  0  0  0  0  0  0  0  0  0  0  0
  140.7821   79.3330  216.5976 H   0  0  0  0  0  0  0  0  0  0  0  0
  141.7510   81.2090  217.0100 C   0  0  0  0  0  0  0  0  0  0  0  0
  142.7767   81.6002  217.0808 H   0  0  0  0  0  0  0  0  0  0  0  0
  141.1767   81.7607  216.2512 H   0  0  0  0  0  0  0  0  0  0  0  0
  141.0500   81.3830  218.3760 C   0  0  2  0  0  0  0  0  0  0  0  0
  139.9838   81.5882  218.1994 H   0  0  0  0  0  0  0  0  0  0  0  0
  141.6660   82.4630  219.0620 O   0  0  0  0  0  0  0  0  0  0  0  0
  140.7760   83.0830  219.9720 C   0  0  0  0  0  0  0  0  0  0  0  0
  141.3546   83.6537  220.7133 H   0  0  0  0  0  0  0  0  0  0  0  0
  140.1805   82.3066  220.4745 H   0  0  0  0  0  0  0  0  0  0  0  0
  139.8350   84.0280  219.2330 C   0  0  0  0  0  0  0  0  0  0  0  0
  139.2540   84.6115  219.9624 H   0  0  0  0  0  0  0  0  0  0  0  0
  140.4225   84.7109  218.6017 H   0  0  0  0  0  0  0  0  0  0  0  0
  139.1496   83.4434  218.6017 H   0  0  0  0  0  0  0  0  0  0  0  0
  141.1320   80.1010  219.2370 C   0  0  0  0  0  0  0  0  0  0  0  0
  141.0807   80.3804  220.2997 H   0  0  0  0  0  0  0  0  0  0  0  0
  140.2912   79.4470  218.9625 H   0  0  0  0  0  0  0  0  0  0  0  0
  142.4400   79.3350  218.9850 C   0  0  0  0  0  0  0  0  0  0  0  0
  143.2836   79.9741  219.2849 H   0  0  0  0  0  0  0  0  0  0  0  0
  142.3966   78.4076  219.5750 H   0  0  0  0  0  0  0  0  0  0  0  0
  141.2230   76.1350  219.1220 C   0  0  0  0  0  0  0  0  0  0  0  0
  140.2475   76.4379  218.7139 H   0  0  0  0  0  0  0  0  0  0  0  0
  138.0110   75.4010  221.8720 N   0  0  0  0  0  0  0  0  0  0  0  0
  137.7610   74.3850  221.8560 H   0  0  0  0  0  0  0  0  0  0  0  0
  137.1040   76.3010  222.3340 C   0  0  0  0  0  0  0  0  0  0  0  0
  136.1295   75.9481  222.7024 H   0  0  0  0  0  0  0  0  0  0  0  0
  137.3940   77.6810  222.3480 C   0  0  0  0  0  0  0  0  0  0  0  0
  136.3880   78.6120  222.8050 N   0  0  0  0  0  0  0  0  0  0  0  0
  135.3980   78.2030  223.8050 C   0  0  0  0  0  0  0  0  0  0  0  0
  135.8044   78.3709  224.8133 H   0  0  0  0  0  0  0  0  0  0  0  0
  134.4803   78.7956  223.6762 H   0  0  0  0  0  0  0  0  0  0  0  0
  135.1662   77.1355  223.6762 H   0  0  0  0  0  0  0  0  0  0  0  0
  136.1490   79.8300  222.0850 C   0  0  0  0  0  0  0  0  0  0  0  0
  135.0470   80.0030  221.4980 O   0  0  0  0  0  0  0  0  0  0  0  0
  137.1670   80.9250  222.0540 C   0  0  0  0  0  0  0  0  0  0  0  0
  136.7055   81.8299  221.6319 H   0  0  0  0  0  0  0  0  0  0  0  0
  137.5119   81.1041  223.0831 H   0  0  0  0  0  0  0  0  0  0  0  0
  138.3750   80.5430  221.2050 C   0  0  0  0  0  0  0  0  0  0  0  0
  138.0318   80.2051  220.2161 H   0  0  0  0  0  0  0  0  0  0  0  0
  139.0290   81.4208  221.0960 H   0  0  0  0  0  0  0  0  0  0  0  0
  140.7940   81.1270  222.5980 C   0  0  0  0  0  0  0  0  0  0  0  0
  140.2217   81.9178  222.0911 H   0  0  0  0  0  0  0  0  0  0  0  0
  141.9490   81.4540  223.3140 C   0  0  0  0  0  0  0  0  0  0  0  0
  142.2844   82.5003  223.3671 H   0  0  0  0  0  0  0  0  0  0  0  0
  1  2  1  0
  2  3  2  0
  3  4  1  0
  3  5  1  0
  5  6  1  0
  5  7  2  0
  7  8  1  0
  8  9  1  0
  9 10  2  0
 10 11  1  0
 11 12  2  0
 12 13  1  0
 13 14  2  0
 14 15  1  0
 14 16  1  0
 16 17  1  0
 16 18  2  0
 18 19  1  0
 18 20  1  0
 20 21  1  0
 21 22  2  0
 21 23  1  0
 23 24  1  1
 23 25  1  0
 25 26  1  0
 25 27  1  0
 25 28  1  0
 28 29  1  0
 28 30  1  0
 28 31  1  0
 31 32  1  1
 31 33  1  0
 33 34  1  0
 34 35  1  0
 34 36  1  0
 34 37  1  0
 37 38  1  0
 37 39  1  0
 37 40  1  0
 31 41  1  0
 41 42  1  0
 41 43  1  0
 41 44  1  0
 44 45  1  0
 44 46  1  0
 20 47  2  0
 47 48  1  0
 11 49  1  0
 49 50  1  0
 49 51  1  0
 51 52  1  0
 51 53  2  0
 53 54  1  0
 54 55  1  0
 55 56  1  0
 55 57  1  0
 55 58  1  0
 54 59  1  0
 59 60  2  0
 59 61  1  0
 61 62  1  0
 61 63  1  0
 61 64  1  0
 64 65  1  0
 64 66  1  0
  7 67  1  0
 67 68  1  0
 67 69  2  0
 69 70  1  0
 69  2  1  0
 64  8  1  0
 53  9  1  0
 47 13  1  0
 44 23  1  0
M  CHG  1  23   1
M  END
>  <UniqueID>  (32) 
22

>  <SMILES>  (32) 
CCOC1CC[NH+](C(=O)c2cccc(/N=c3\nc4c(c[nH]3)N(C)C(=O)CCN4c3ccccc3)c2)CC1

>  <Energy>  (32) 
110.74662989392861

>  <Genealogy>  (32) 
CCOC1CC[NH+](C(=O)c2cccc(N=c3nc4c(c[nH]3)N(C)C(=O)CCN4c3ccccc3)c2)CC1 (protonated)
CCOC1CC[NH+](C(=O)c2cccc(/N=c3\nc4c(c[nH]3)N(C)C(=O)CCN4c3ccccc3)c2)CC1 (cis-trans isomerization)
CCOC1CC[NH+](C(=O)c2cccc(/N=c3\nc4c(c[nH]3)N(C)C(=O)CCN4c3ccccc3)c2)CC1 (3D coordinates assigned)
CCOC1CC[NH+](C(=O)c2cccc(/N=c3\nc4c(c[nH]3)N(C)C(=O)CCN4c3ccccc3)c2)CC1 (nonaromatic ring conformer: 110.74662989392861 kcal/mol)

>  <smiles>  (32) 
CCOC1CCN(C(=O)c2cccc(N=c3nc4c(c[nH]3)N(C)C(=O)CCN4c3ccccc3)c2)CC1

>  <score_type>  (32) 
oracle

>  <origin>  (32) 
autodockgpu

>  <m_score__min__energy>  (32) 
-6.8300000000000001

>  <m_primary>  (32) 
energy

>  <meeko>  (32) 
{"free_energy": -4.78, "intermolecular_energy": -8.36, "internal_energy": -2.91, "cluster_size": 4, "cluster_id": 4, "rank_in_cluster": 3}

>  <energy>  (32) 
-5.08

>  <cluster_rmsd>  (32) 
0.0

>  <rmsd>  (32) 
270.08

>  <cluster>  (32) 
6

$$$$
KHESEQRZXKFTOB-IGPOTQGWNA-O
     RDKit          3D

 70 74  0  0  0  0  0  0  0  0999 V2000
  142.0729   78.5970  225.1241 H   0  0  0  0  0  0  0  0  0  0  0  0
  141.8200   79.1670  224.2180 C   0  0  0  0  0  0  0  0  0  0  0  0
  142.8350   79.7460  223.4510 C   0  0  0  0  0  0  0  0  0  0  0  0
  143.8862   79.6344  223.7553 H   0  0  0  0  0  0  0  0  0  0  0  0
  142.5140   80.4670  222.2970 C   0  0  0  0  0  0  0  0  0  0  0  0
  143.3146   80.9274  221.6994 H   0  0  0  0  0  0  0  0  0  0  0  0
  141.1740   80.6070  221.8960 C   0  0  0  0  0  0  0  0  0  0  0  0
  140.8500   81.2780  220.6610 N   0  0  0  0  0  0  0  0  0  0  0  0
  141.4080   80.7630  219.4250 C   0  0  0  0  0  0  0  0  0  0  0  0
  142.0800   79.5830  219.4790 N   0  0  0  0  0  0  0  0  0  0  0  0
  142.6360   78.9940  218.3920 C   0  0  0  0  0  0  0  0  0  0  0  0
  143.3260   77.8960  218.5180 N   0  0  0  0  0  0  0  0  0  0  0  0
  142.9460   76.8080  219.3760 C   0  0  0  0  0  0  0  0  0  0  0  0
  143.7060   75.6280  219.4280 C   0  0  0  0  0  0  0  0  0  0  0  0
  144.6295   75.5440  218.8363 H   0  0  0  0  0  0  0  0  0  0  0  0
  143.2930   74.5620  220.2280 C   0  0  0  0  0  0  0  0  0  0  0  0
  143.8962   73.6432  220.2731 H   0  0  0  0  0  0  0  0  0  0  0  0
  142.1140   74.6600  220.9720 C   0  0  0  0  0  0  0  0  0  0  0  0
  141.7903   73.8149  221.5974 H   0  0  0  0  0  0  0  0  0  0  0  0
  141.3400   75.8310  220.9260 C   0  0  0  0  0  0  0  0  0  0  0  0
  140.0640   75.8990  221.6760 C   0  0  0  0  0  0  0  0  0  0  0  0
  139.6780   74.8820  222.3170 O   0  0  0  0  0  0  0  0  0  0  0  0
  139.2430   77.0960  221.6670 N   0  0  1  0  0  0  0  0  0  0  0  0
  139.8620   77.9300  221.7910 H   0  0  0  0  0  0  0  0  0  0  0  0
  138.6120   77.2600  220.3330 C   0  0  0  0  0  0  0  0  0  0  0  0
  139.3676   77.6199  219.6191 H   0  0  0  0  0  0  0  0  0  0  0  0
  138.2121   76.2870  220.0117 H   0  0  0  0  0  0  0  0  0  0  0  0
  137.4590   78.2670  220.3930 C   0  0  0  0  0  0  0  0  0  0  0  0
  137.8390   79.2244  220.7789 H   0  0  0  0  0  0  0  0  0  0  0  0
  137.0524   78.3906  219.3784 H   0  0  0  0  0  0  0  0  0  0  0  0
  136.3260   77.7670  221.3150 C   0  0  2  0  0  0  0  0  0  0  0  0
  135.5816   77.2392  220.7008 H   0  0  0  0  0  0  0  0  0  0  0  0
  135.7440   78.8900  221.9610 O   0  0  0  0  0  0  0  0  0  0  0  0
  134.5590   78.5410  222.6530 C   0  0  0  0  0  0  0  0  0  0  0  0
  134.4255   77.4498  222.6159 H   0  0  0  0  0  0  0  0  0  0  0  0
  133.7050   79.0425  222.1742 H   0  0  0  0  0  0  0  0  0  0  0  0
  134.6430   78.9880  224.1090 C   0  0  0  0  0  0  0  0  0  0  0  0
  134.4804   78.1226  224.7682 H   0  0  0  0  0  0  0  0  0  0  0  0
  135.6373   79.4160  224.3044 H   0  0  0  0  0  0  0  0  0  0  0  0
  133.8719   79.7478  224.3044 H   0  0  0  0  0  0  0  0  0  0  0  0
  136.8410   76.7630  222.3740 C   0  0  0  0  0  0  0  0  0  0  0  0
  136.1847   76.8056  223.2557 H   0  0  0  0  0  0  0  0  0  0  0  0
  136.8336   75.7574  221.9283 H   0  0  0  0  0  0  0  0  0  0  0  0
  138.2790   77.0880  222.8060 C   0  0  0  0  0  0  0  0  0  0  0  0
  138.2869   78.0812  223.2787 H   0  0  0  0  0  0  0  0  0  0  0  0
  138.5994   76.2989  223.5022 H   0  0  0  0  0  0  0  0  0  0  0  0
  141.7840   76.9180  220.1490 C   0  0  0  0  0  0  0  0  0  0  0  0
  141.2145   77.8591  220.1493 H   0  0  0  0  0  0  0  0  0  0  0  0
  142.5180   79.5890  217.1790 N   0  0  0  0  0  0  0  0  0  0  0  0
  142.9500   79.1490  216.3350 H   0  0  0  0  0  0  0  0  0  0  0  0
  141.8560   80.7690  217.0470 C   0  0  0  0  0  0  0  0  0  0  0  0
  141.7677   81.2327  216.0534 H   0  0  0  0  0  0  0  0  0  0  0  0
  141.2810   81.4070  218.1650 C   0  0  0  0  0  0  0  0  0  0  0  0
  140.6240   82.6820  217.9930 N   0  0  0  0  0  0  0  0  0  0  0  0
  139.8740   82.9720  216.7680 C   0  0  0  0  0  0  0  0  0  0  0  0
  138.8777   83.3572  217.0306 H   0  0  0  0  0  0  0  0  0  0  0  0
  140.4146   83.7259  216.1769 H   0  0  0  0  0  0  0  0  0  0  0  0
  139.7667   82.0505  216.1769 H   0  0  0  0  0  0  0  0  0  0  0  0
  140.9380   83.7810  218.8610 C   0  0  0  0  0  0  0  0  0  0  0  0
  141.3930   84.8520  218.3750 O   0  0  0  0  0  0  0  0  0  0  0  0
  140.6940   83.7000  220.3350 C   0  0  0  0  0  0  0  0  0  0  0  0
  141.6615   83.7099  220.8583 H   0  0  0  0  0  0  0  0  0  0  0  0
  140.0794   84.5631  220.6305 H   0  0  0  0  0  0  0  0  0  0  0  0
  139.9420   82.4280  220.7090 C   0  0  0  0  0  0  0  0  0  0  0  0
  139.5364   82.5301  221.7264 H   0  0  0  0  0  0  0  0  0  0  0  0
  139.1204   82.2703  219.9948 H   0  0  0  0  0  0  0  0  0  0  0  0
  140.1600   80.0280  222.6760 C   0  0  0  0  0  0  0  0  0  0  0  0
  139.1076   80.1377  222.3755 H   0  0  0  0  0  0  0  0  0  0  0  0
  140.4830   79.3120  223.8340 C   0  0  0  0  0  0  0  0  0  0  0  0
  139.6846   78.8627  224.4429 H   0  0  0  0  0  0  0  0  0  0  0  0
  1  2  1  0
  2  3  2  0
  3  4  1  0
  3  5  1  0
  5  6  1  0
  5  7  2  0
  7  8  1  0
  8  9  1  0
  9 10  2  0
 10 11  1  0
 11 12  2  0
 12 13  1  0
 13 14  2  0
 14 15  1  0
 14 16  1  0
 16 17  1  0
 16 18  2  0
 18 19  1  0
 18 20  1  0
 20 21  1  0
 21 22  2  0
 21 23  1  0
 23 24  1  6
 23 25  1  0
 25 26  1  0
 25 27  1  0
 25 28  1  0
 28 29  1  0
 28 30  1  0
 28 31  1  0
 31 32  1  1
 31 33  1  0
 33 34  1  0
 34 35  1  0
 34 36  1  0
 34 37  1  0
 37 38  1  0
 37 39  1  0
 37 40  1  0
 31 41  1  0
 41 42  1  0
 41 43  1  0
 41 44  1  0
 44 45  1  0
 44 46  1  0
 20 47  2  0
 47 48  1  0
 11 49  1  0
 49 50  1  0
 49 51  1  0
 51 52  1  0
 51 53  2  0
 53 54  1  0
 54 55  1  0
 55 56  1  0
 55 57  1  0
 55 58  1  0
 54 59  1  0
 59 60  2  0
 59 61  1  0
 61 62  1  0
 61 63  1  0
 61 64  1  0
 64 65  1  0
 64 66  1  0
  7 67  1  0
 67 68  1  0
 67 69  2  0
 69 70  1  0
 69  2  1  0
 64  8  1  0
 53  9  1  0
 47 13  1  0
 44 23  1  0
M  CHG  1  23   1
M  END
>  <UniqueID>  (33) 
22

>  <SMILES>  (33) 
CCOC1CC[NH+](C(=O)c2cccc(/N=c3\nc4c(c[nH]3)N(C)C(=O)CCN4c3ccccc3)c2)CC1

>  <Energy>  (33) 
110.74662989392861

>  <Genealogy>  (33) 
CCOC1CC[NH+](C(=O)c2cccc(N=c3nc4c(c[nH]3)N(C)C(=O)CCN4c3ccccc3)c2)CC1 (protonated)
CCOC1CC[NH+](C(=O)c2cccc(/N=c3\nc4c(c[nH]3)N(C)C(=O)CCN4c3ccccc3)c2)CC1 (cis-trans isomerization)
CCOC1CC[NH+](C(=O)c2cccc(/N=c3\nc4c(c[nH]3)N(C)C(=O)CCN4c3ccccc3)c2)CC1 (3D coordinates assigned)
CCOC1CC[NH+](C(=O)c2cccc(/N=c3\nc4c(c[nH]3)N(C)C(=O)CCN4c3ccccc3)c2)CC1 (nonaromatic ring conformer: 110.74662989392861 kcal/mol)

>  <smiles>  (33) 
CCOC1CCN(C(=O)c2cccc(N=c3nc4c(c[nH]3)N(C)C(=O)CCN4c3ccccc3)c2)CC1

>  <score_type>  (33) 
oracle

>  <origin>  (33) 
autodockgpu

>  <m_score__min__energy>  (33) 
-6.8300000000000001

>  <m_primary>  (33) 
energy

>  <meeko>  (33) 
{"free_energy": -4.92, "intermolecular_energy": -8.49, "internal_energy": -2.64, "cluster_size": 4, "cluster_id": 7, "rank_in_cluster": 1}

>  <energy>  (33) 
-4.92

>  <cluster_rmsd>  (33) 
0.0

>  <rmsd>  (33) 
270.94

>  <cluster>  (33) 
7

$$$$
KHESEQRZXKFTOB-IGPOTQGWNA-O
     RDKit          3D

 70 74  0  0  0  0  0  0  0  0999 V2000
  144.3551   80.6141  224.2150 H   0  0  0  0  0  0  0  0  0  0  0  0
  143.3630   80.5070  223.7520 C   0  0  0  0  0  0  0  0  0  0  0  0
  142.3160   81.3460  224.1420 C   0  0  0  0  0  0  0  0  0  0  0  0
  142.4829   82.1106  224.9150 H   0  0  0  0  0  0  0  0  0  0  0  0
  141.0560   81.2140  223.5500 C   0  0  0  0  0  0  0  0  0  0  0  0
  140.2322   81.8719  223.8639 H   0  0  0  0  0  0  0  0  0  0  0  0
  140.8370   80.2450  222.5560 C   0  0  0  0  0  0  0  0  0  0  0  0
  139.5620   80.1650  221.8850 N   0  0  0  0  0  0  0  0  0  0  0  0
  138.8930   78.8800  221.8180 C   0  0  0  0  0  0  0  0  0  0  0  0
  139.5830   77.8370  221.2850 N   0  0  0  0  0  0  0  0  0  0  0  0
  139.0720   76.5860  221.1770 C   0  0  0  0  0  0  0  0  0  0  0  0
  139.7570   75.6420  220.5960 N   0  0  0  0  0  0  0  0  0  0  0  0
  141.0330   75.8510  219.9720 C   0  0  0  0  0  0  0  0  0  0  0  0
  142.2180   75.4030  220.5790 C   0  0  0  0  0  0  0  0  0  0  0  0
  142.1720   74.8477  221.5274 H   0  0  0  0  0  0  0  0  0  0  0  0
  143.4530   75.6600  219.9830 C   0  0  0  0  0  0  0  0  0  0  0  0
  144.3776   75.2994  220.4575 H   0  0  0  0  0  0  0  0  0  0  0  0
  143.5170   76.3750  218.7840 C   0  0  0  0  0  0  0  0  0  0  0  0
  144.4934   76.5780  218.3199 H   0  0  0  0  0  0  0  0  0  0  0  0
  142.3420   76.8360  218.1680 C   0  0  0  0  0  0  0  0  0  0  0  0
  142.4290   77.6420  216.9270 C   0  0  0  0  0  0  0  0  0  0  0  0
  142.4240   77.0480  215.8120 O   0  0  0  0  0  0  0  0  0  0  0  0
  142.5450   79.0870  216.9700 N   0  0  1  0  0  0  0  0  0  0  0  0
  143.3260   79.3820  216.3390 H   0  0  0  0  0  0  0  0  0  0  0  0
  141.3200   79.7060  216.4050 C   0  0  0  0  0  0  0  0  0  0  0  0
  141.3409   79.6103  215.3094 H   0  0  0  0  0  0  0  0  0  0  0  0
  140.4423   79.1889  216.8199 H   0  0  0  0  0  0  0  0  0  0  0  0
  141.2340   81.1900  216.7770 C   0  0  0  0  0  0  0  0  0  0  0  0
  142.1421   81.7013  216.4250 H   0  0  0  0  0  0  0  0  0  0  0  0
  140.3390   81.6169  216.3009 H   0  0  0  0  0  0  0  0  0  0  0  0
  141.1110   81.3770  218.3050 C   0  0  2  0  0  0  0  0  0  0  0  0
  140.0444   81.4446  218.5654 H   0  0  0  0  0  0  0  0  0  0  0  0
  141.7970   82.5670  218.6680 O   0  0  0  0  0  0  0  0  0  0  0  0
  141.0540   83.3390  219.5930 C   0  0  0  0  0  0  0  0  0  0  0  0
  141.6325   84.2339  219.8657 H   0  0  0  0  0  0  0  0  0  0  0  0
  140.8554   82.7308  220.4878 H   0  0  0  0  0  0  0  0  0  0  0  0
  139.7250   83.7670  218.9800 C   0  0  0  0  0  0  0  0  0  0  0  0
  139.0086   83.9977  219.7822 H   0  0  0  0  0  0  0  0  0  0  0  0
  139.8792   84.6609  218.3578 H   0  0  0  0  0  0  0  0  0  0  0  0
  139.3285   82.9511  218.3578 H   0  0  0  0  0  0  0  0  0  0  0  0
  141.6970   80.1760  219.0850 C   0  0  0  0  0  0  0  0  0  0  0  0
  142.0311   80.5212  220.0746 H   0  0  0  0  0  0  0  0  0  0  0  0
  140.9123   79.4111  219.1814 H   0  0  0  0  0  0  0  0  0  0  0  0
  142.8900   79.5520  218.3450 C   0  0  0  0  0  0  0  0  0  0  0  0
  143.6887   80.3047  218.2703 H   0  0  0  0  0  0  0  0  0  0  0  0
  143.2090   78.6702  218.9200 H   0  0  0  0  0  0  0  0  0  0  0  0
  141.0970   76.5370  218.7530 C   0  0  0  0  0  0  0  0  0  0  0  0
  140.1686   76.8442  218.2493 H   0  0  0  0  0  0  0  0  0  0  0  0
  137.8160   76.3390  221.6270 N   0  0  0  0  0  0  0  0  0  0  0  0
  137.4080   75.3800  221.5410 H   0  0  0  0  0  0  0  0  0  0  0  0
  137.0680   77.3320  222.1750 C   0  0  0  0  0  0  0  0  0  0  0  0
  136.0532   77.1097  222.5366 H   0  0  0  0  0  0  0  0  0  0  0  0
  137.5740   78.6440  222.2870 C   0  0  0  0  0  0  0  0  0  0  0  0
  136.7320   79.6830  222.8340 N   0  0  0  0  0  0  0  0  0  0  0  0
  135.6980   79.3590  223.8200 C   0  0  0  0  0  0  0  0  0  0  0  0
  136.1053   79.4866  224.8338 H   0  0  0  0  0  0  0  0  0  0  0  0
  134.8376   80.0306  223.6833 H   0  0  0  0  0  0  0  0  0  0  0  0
  135.3747   78.3165  223.6833 H   0  0  0  0  0  0  0  0  0  0  0  0
  136.6840   80.9770  222.2140 C   0  0  0  0  0  0  0  0  0  0  0  0
  135.6180   81.3680  221.6660 O   0  0  0  0  0  0  0  0  0  0  0  0
  137.8630   81.8960  222.2430 C   0  0  0  0  0  0  0  0  0  0  0  0
  137.5470   82.8936  221.9038 H   0  0  0  0  0  0  0  0  0  0  0  0
  138.2445   81.9354  223.2740 H   0  0  0  0  0  0  0  0  0  0  0  0
  138.9850   81.3960  221.3360 C   0  0  0  0  0  0  0  0  0  0  0  0
  138.5801   81.1931  220.3336 H   0  0  0  0  0  0  0  0  0  0  0  0
  139.7686   82.1654  221.2729 H   0  0  0  0  0  0  0  0  0  0  0  0
  141.8930   79.4010  222.1750 C   0  0  0  0  0  0  0  0  0  0  0  0
  141.7304   78.6345  221.4029 H   0  0  0  0  0  0  0  0  0  0  0  0
  143.1500   79.5310  222.7730 C   0  0  0  0  0  0  0  0  0  0  0  0
  143.9725   78.8649  222.4732 H   0  0  0  0  0  0  0  0  0  0  0  0
  1  2  1  0
  2  3  2  0
  3  4  1  0
  3  5  1  0
  5  6  1  0
  5  7  2  0
  7  8  1  0
  8  9  1  0
  9 10  2  0
 10 11  1  0
 11 12  2  0
 12 13  1  0
 13 14  2  0
 14 15  1  0
 14 16  1  0
 16 17  1  0
 16 18  2  0
 18 19  1  0
 18 20  1  0
 20 21  1  0
 21 22  2  0
 21 23  1  0
 23 24  1  1
 23 25  1  0
 25 26  1  0
 25 27  1  0
 25 28  1  0
 28 29  1  0
 28 30  1  0
 28 31  1  0
 31 32  1  1
 31 33  1  0
 33 34  1  0
 34 35  1  0
 34 36  1  0
 34 37  1  0
 37 38  1  0
 37 39  1  0
 37 40  1  0
 31 41  1  0
 41 42  1  0
 41 43  1  0
 41 44  1  0
 44 45  1  0
 44 46  1  0
 20 47  2  0
 47 48  1  0
 11 49  1  0
 49 50  1  0
 49 51  1  0
 51 52  1  0
 51 53  2  0
 53 54  1  0
 54 55  1  0
 55 56  1  0
 55 57  1  0
 55 58  1  0
 54 59  1  0
 59 60  2  0
 59 61  1  0
 61 62  1  0
 61 63  1  0
 61 64  1  0
 64 65  1  0
 64 66  1  0
  7 67  1  0
 67 68  1  0
 67 69  2  0
 69 70  1  0
 69  2  1  0
 64  8  1  0
 53  9  1  0
 47 13  1  0
 44 23  1  0
M  CHG  1  23   1
M  END
>  <UniqueID>  (34) 
22

>  <SMILES>  (34) 
CCOC1CC[NH+](C(=O)c2cccc(/N=c3\nc4c(c[nH]3)N(C)C(=O)CCN4c3ccccc3)c2)CC1

>  <Energy>  (34) 
110.74662989392861

>  <Genealogy>  (34) 
CCOC1CC[NH+](C(=O)c2cccc(N=c3nc4c(c[nH]3)N(C)C(=O)CCN4c3ccccc3)c2)CC1 (protonated)
CCOC1CC[NH+](C(=O)c2cccc(/N=c3\nc4c(c[nH]3)N(C)C(=O)CCN4c3ccccc3)c2)CC1 (cis-trans isomerization)
CCOC1CC[NH+](C(=O)c2cccc(/N=c3\nc4c(c[nH]3)N(C)C(=O)CCN4c3ccccc3)c2)CC1 (3D coordinates assigned)
CCOC1CC[NH+](C(=O)c2cccc(/N=c3\nc4c(c[nH]3)N(C)C(=O)CCN4c3ccccc3)c2)CC1 (nonaromatic ring conformer: 110.74662989392861 kcal/mol)

>  <smiles>  (34) 
CCOC1CCN(C(=O)c2cccc(N=c3nc4c(c[nH]3)N(C)C(=O)CCN4c3ccccc3)c2)CC1

>  <score_type>  (34) 
oracle

>  <origin>  (34) 
autodockgpu

>  <m_score__min__energy>  (34) 
-6.8300000000000001

>  <m_primary>  (34) 
energy

>  <meeko>  (34) 
{"free_energy": -4.95, "intermolecular_energy": -8.53, "internal_energy": -3.03, "cluster_size": 4, "cluster_id": 4, "rank_in_cluster": 2}

>  <energy>  (34) 
-4.59

>  <cluster_rmsd>  (34) 
1.08

>  <rmsd>  (34) 
271.17

>  <cluster>  (34) 
7

$$$$
KHESEQRZXKFTOB-IGPOTQGWNA-O
     RDKit          3D

 70 74  0  0  0  0  0  0  0  0999 V2000
  143.8563   79.9333  222.7863 H   0  0  0  0  0  0  0  0  0  0  0  0
  142.7740   79.9360  222.9830 C   0  0  0  0  0  0  0  0  0  0  0  0
  142.0640   81.1400  222.9670 C   0  0  0  0  0  0  0  0  0  0  0  0
  142.5882   82.0847  222.7601 H   0  0  0  0  0  0  0  0  0  0  0  0
  140.6870   81.1440  223.2140 C   0  0  0  0  0  0  0  0  0  0  0  0
  140.1324   82.0939  223.2087 H   0  0  0  0  0  0  0  0  0  0  0  0
  140.0090   79.9390  223.4690 C   0  0  0  0  0  0  0  0  0  0  0  0
  138.5760   79.9330  223.6390 N   0  0  0  0  0  0  0  0  0  0  0  0
  137.7610   79.2840  222.6300 C   0  0  0  0  0  0  0  0  0  0  0  0
  138.1080   78.0270  222.2500 N   0  0  0  0  0  0  0  0  0  0  0  0
  137.4200   77.3130  221.3260 C   0  0  0  0  0  0  0  0  0  0  0  0
  137.8410   76.1380  220.9540 N   0  0  0  0  0  0  0  0  0  0  0  0
  139.2290   75.7930  220.8170 C   0  0  0  0  0  0  0  0  0  0  0  0
  139.8310   74.8570  221.6740 C   0  0  0  0  0  0  0  0  0  0  0  0
  139.2272   74.3461  222.4385 H   0  0  0  0  0  0  0  0  0  0  0  0
  141.1920   74.5730  221.5590 C   0  0  0  0  0  0  0  0  0  0  0  0
  141.6566   73.8316  222.2257 H   0  0  0  0  0  0  0  0  0  0  0  0
  141.9660   75.2290  220.5980 C   0  0  0  0  0  0  0  0  0  0  0  0
  143.0399   75.0058  220.5152 H   0  0  0  0  0  0  0  0  0  0  0  0
  141.3800   76.1720  219.7370 C   0  0  0  0  0  0  0  0  0  0  0  0
  142.2240   76.9000  218.7600 C   0  0  0  0  0  0  0  0  0  0  0  0
  142.7330   76.2610  217.7970 O   0  0  0  0  0  0  0  0  0  0  0  0
  142.4960   78.3180  218.9040 N   0  0  1  0  0  0  0  0  0  0  0  0
  143.5130   78.4470  219.1130 H   0  0  0  0  0  0  0  0  0  0  0  0
  142.2630   79.0070  217.6100 C   0  0  0  0  0  0  0  0  0  0  0  0
  143.0982   78.7860  216.9292 H   0  0  0  0  0  0  0  0  0  0  0  0
  141.3146   78.6455  217.1860 H   0  0  0  0  0  0  0  0  0  0  0  0
  142.1640   80.5230  217.8060 C   0  0  0  0  0  0  0  0  0  0  0  0
  143.0820   80.8825  218.2939 H   0  0  0  0  0  0  0  0  0  0  0  0
  142.0389   80.9945  216.8201 H   0  0  0  0  0  0  0  0  0  0  0  0
  140.9480   80.8940  218.6840 C   0  0  2  0  0  0  0  0  0  0  0  0
  140.0945   81.1129  218.0255 H   0  0  0  0  0  0  0  0  0  0  0  0
  141.2890   82.0300  219.4660 O   0  0  0  0  0  0  0  0  0  0  0  0
  140.1740   82.5280  220.1810 C   0  0  0  0  0  0  0  0  0  0  0  0
  139.7849   81.7389  220.8413 H   0  0  0  0  0  0  0  0  0  0  0  0
  139.3991   82.8368  219.4639 H   0  0  0  0  0  0  0  0  0  0  0  0
  140.5780   83.7340  221.0230 C   0  0  0  0  0  0  0  0  0  0  0  0
  140.4933   83.4811  222.0902 H   0  0  0  0  0  0  0  0  0  0  0  0
  141.6177   84.0100  220.7930 H   0  0  0  0  0  0  0  0  0  0  0  0
  139.9144   84.5806  220.7930 H   0  0  0  0  0  0  0  0  0  0  0  0
  140.5240   79.7300  219.6100 C   0  0  0  0  0  0  0  0  0  0  0  0
  140.0318   80.1443  220.5022 H   0  0  0  0  0  0  0  0  0  0  0  0
  139.8373   79.0773  219.0512 H   0  0  0  0  0  0  0  0  0  0  0  0
  141.7330   78.8920  220.0510 C   0  0  0  0  0  0  0  0  0  0  0  0
  142.4091   79.5332  220.6356 H   0  0  0  0  0  0  0  0  0  0  0  0
  141.3494   78.0493  220.6448 H   0  0  0  0  0  0  0  0  0  0  0  0
  139.9980   76.4230  219.8310 C   0  0  0  0  0  0  0  0  0  0  0  0
  139.5194   77.1182  219.1256 H   0  0  0  0  0  0  0  0  0  0  0  0
  136.3210   77.8580  220.7470 N   0  0  0  0  0  0  0  0  0  0  0  0
  135.7870   77.3200  220.0260 H   0  0  0  0  0  0  0  0  0  0  0  0
  135.9110   79.1100  221.0800 C   0  0  0  0  0  0  0  0  0  0  0  0
  135.0145   79.5319  220.6022 H   0  0  0  0  0  0  0  0  0  0  0  0
  136.6180   79.8760  222.0290 C   0  0  0  0  0  0  0  0  0  0  0  0
  136.1780   81.2210  222.3240 N   0  0  0  0  0  0  0  0  0  0  0  0
  136.0860   82.2220  221.2580 C   0  0  0  0  0  0  0  0  0  0  0  0
  135.9939   83.2239  221.7027 H   0  0  0  0  0  0  0  0  0  0  0  0
  136.9919   82.1790  220.6355 H   0  0  0  0  0  0  0  0  0  0  0  0
  135.2031   82.0146  220.6355 H   0  0  0  0  0  0  0  0  0  0  0  0
  136.1160   81.6810  223.6830 C   0  0  0  0  0  0  0  0  0  0  0  0
  134.9950   81.8820  224.2230 O   0  0  0  0  0  0  0  0  0  0  0  0
  137.3580   81.8830  224.4900 C   0  0  0  0  0  0  0  0  0  0  0  0
  138.0685   82.4886  223.9082 H   0  0  0  0  0  0  0  0  0  0  0  0
  137.0845   82.3939  225.4250 H   0  0  0  0  0  0  0  0  0  0  0  0
  138.0140   80.5510  224.8440 C   0  0  0  0  0  0  0  0  0  0  0  0
  138.8186   80.7238  225.5739 H   0  0  0  0  0  0  0  0  0  0  0  0
  137.2573   79.8791  225.2751 H   0  0  0  0  0  0  0  0  0  0  0  0
  140.7310   78.7350  223.4900 C   0  0  0  0  0  0  0  0  0  0  0  0
  140.2110   77.7880  223.6968 H   0  0  0  0  0  0  0  0  0  0  0  0
  142.1090   78.7350  223.2490 C   0  0  0  0  0  0  0  0  0  0  0  0
  142.6701   77.7891  223.2687 H   0  0  0  0  0  0  0  0  0  0  0  0
  1  2  1  0
  2  3  2  0
  3  4  1  0
  3  5  1  0
  5  6  1  0
  5  7  2  0
  7  8  1  0
  8  9  1  0
  9 10  2  0
 10 11  1  0
 11 12  2  0
 12 13  1  0
 13 14  2  0
 14 15  1  0
 14 16  1  0
 16 17  1  0
 16 18  2  0
 18 19  1  0
 18 20  1  0
 20 21  1  0
 21 22  2  0
 21 23  1  0
 23 24  1  6
 23 25  1  0
 25 26  1  0
 25 27  1  0
 25 28  1  0
 28 29  1  0
 28 30  1  0
 28 31  1  0
 31 32  1  1
 31 33  1  0
 33 34  1  0
 34 35  1  0
 34 36  1  0
 34 37  1  0
 37 38  1  0
 37 39  1  0
 37 40  1  0
 31 41  1  0
 41 42  1  0
 41 43  1  0
 41 44  1  0
 44 45  1  0
 44 46  1  0
 20 47  2  0
 47 48  1  0
 11 49  1  0
 49 50  1  0
 49 51  1  0
 51 52  1  0
 51 53  2  0
 53 54  1  0
 54 55  1  0
 55 56  1  0
 55 57  1  0
 55 58  1  0
 54 59  1  0
 59 60  2  0
 59 61  1  0
 61 62  1  0
 61 63  1  0
 61 64  1  0
 64 65  1  0
 64 66  1  0
  7 67  1  0
 67 68  1  0
 67 69  2  0
 69 70  1  0
 69  2  1  0
 64  8  1  0
 53  9  1  0
 47 13  1  0
 44 23  1  0
M  CHG  1  23   1
M  END
>  <UniqueID>  (35) 
22

>  <SMILES>  (35) 
CCOC1CC[NH+](C(=O)c2cccc(/N=c3\nc4c(c[nH]3)N(C)C(=O)CCN4c3ccccc3)c2)CC1

>  <Energy>  (35) 
110.74662989392861

>  <Genealogy>  (35) 
CCOC1CC[NH+](C(=O)c2cccc(N=c3nc4c(c[nH]3)N(C)C(=O)CCN4c3ccccc3)c2)CC1 (protonated)
CCOC1CC[NH+](C(=O)c2cccc(/N=c3\nc4c(c[nH]3)N(C)C(=O)CCN4c3ccccc3)c2)CC1 (cis-trans isomerization)
CCOC1CC[NH+](C(=O)c2cccc(/N=c3\nc4c(c[nH]3)N(C)C(=O)CCN4c3ccccc3)c2)CC1 (3D coordinates assigned)
CCOC1CC[NH+](C(=O)c2cccc(/N=c3\nc4c(c[nH]3)N(C)C(=O)CCN4c3ccccc3)c2)CC1 (nonaromatic ring conformer: 110.74662989392861 kcal/mol)

>  <smiles>  (35) 
CCOC1CCN(C(=O)c2cccc(N=c3nc4c(c[nH]3)N(C)C(=O)CCN4c3ccccc3)c2)CC1

>  <score_type>  (35) 
oracle

>  <origin>  (35) 
autodockgpu

>  <m_score__min__energy>  (35) 
-6.8300000000000001

>  <m_primary>  (35) 
energy

>  <meeko>  (35) 
{"free_energy": -4.56, "intermolecular_energy": -8.14, "internal_energy": -3.32, "cluster_size": 4, "cluster_id": 4, "rank_in_cluster": 4}

>  <energy>  (35) 
-4.41

>  <cluster_rmsd>  (35) 
1.87

>  <rmsd>  (35) 
270.96

>  <cluster>  (35) 
7

$$$$
KHESEQRZXKFTOB-IGPOTQGWNA-O
     RDKit          3D

 70 74  0  0  0  0  0  0  0  0999 V2000
  142.3287   81.8972  224.0005 H   0  0  0  0  0  0  0  0  0  0  0  0
  142.1700   81.0640  223.3000 C   0  0  0  0  0  0  0  0  0  0  0  0
  142.1390   79.7490  223.7730 C   0  0  0  0  0  0  0  0  0  0  0  0
  142.2768   79.5473  224.8455 H   0  0  0  0  0  0  0  0  0  0  0  0
  141.9330   78.6900  222.8840 C   0  0  0  0  0  0  0  0  0  0  0  0
  141.9156   77.6561  223.2590 H   0  0  0  0  0  0  0  0  0  0  0  0
  141.7480   78.9400  221.5130 C   0  0  0  0  0  0  0  0  0  0  0  0
  141.4520   77.8550  220.6090 N   0  0  0  0  0  0  0  0  0  0  0  0
  140.7590   76.6910  221.1270 C   0  0  0  0  0  0  0  0  0  0  0  0
  139.6320   76.9000  221.8570 N   0  0  0  0  0  0  0  0  0  0  0  0
  138.8910   75.8950  222.3840 C   0  0  0  0  0  0  0  0  0  0  0  0
  137.8590   76.1600  223.1320 N   0  0  0  0  0  0  0  0  0  0  0  0
  137.0370   77.3270  222.9750 C   0  0  0  0  0  0  0  0  0  0  0  0
  135.6700   77.2150  222.6700 C   0  0  0  0  0  0  0  0  0  0  0  0
  135.2061   76.2208  222.5894 H   0  0  0  0  0  0  0  0  0  0  0  0
  134.8990   78.3600  222.4690 C   0  0  0  0  0  0  0  0  0  0  0  0
  133.8272   78.2674  222.2394 H   0  0  0  0  0  0  0  0  0  0  0  0
  135.4870   79.6250  222.5590 C   0  0  0  0  0  0  0  0  0  0  0  0
  134.8758   80.5248  222.3956 H   0  0  0  0  0  0  0  0  0  0  0  0
  136.8540   79.7540  222.8570 C   0  0  0  0  0  0  0  0  0  0  0  0
  137.4750   81.0990  222.8930 C   0  0  0  0  0  0  0  0  0  0  0  0
  138.0050   81.5550  221.8410 O   0  0  0  0  0  0  0  0  0  0  0  0
  137.5080   81.8840  224.1130 N   0  0  1  0  0  0  0  0  0  0  0  0
  138.4370   82.3610  224.1810 H   0  0  0  0  0  0  0  0  0  0  0  0
  136.5030   82.9740  224.0350 C   0  0  0  0  0  0  0  0  0  0  0  0
  136.8784   83.7625  223.3661 H   0  0  0  0  0  0  0  0  0  0  0  0
  135.5619   82.5565  223.6477 H   0  0  0  0  0  0  0  0  0  0  0  0
  136.2380   83.5750  225.4190 C   0  0  0  0  0  0  0  0  0  0  0  0
  137.1880   83.9329  225.8427 H   0  0  0  0  0  0  0  0  0  0  0  0
  135.5257   84.4058  225.3075 H   0  0  0  0  0  0  0  0  0  0  0  0
  135.6230   82.5280  226.3740 C   0  0  2  0  0  0  0  0  0  0  0  0
  134.5274   82.6176  226.3334 H   0  0  0  0  0  0  0  0  0  0  0  0
  136.1030   82.7810  227.6870 O   0  0  0  0  0  0  0  0  0  0  0  0
  135.0540   82.7800  228.6370 C   0  0  0  0  0  0  0  0  0  0  0  0
  134.1125   82.5078  228.1375 H   0  0  0  0  0  0  0  0  0  0  0  0
  134.9704   83.7842  229.0782 H   0  0  0  0  0  0  0  0  0  0  0  0
  135.3440   81.7740  229.7460 C   0  0  0  0  0  0  0  0  0  0  0  0
  135.2048   82.2568  230.7246 H   0  0  0  0  0  0  0  0  0  0  0  0
  134.6552   80.9211  229.6567 H   0  0  0  0  0  0  0  0  0  0  0  0
  136.3812   81.4186  229.6567 H   0  0  0  0  0  0  0  0  0  0  0  0
  135.9790   81.0820  225.9560 C   0  0  0  0  0  0  0  0  0  0  0  0
  135.9623   80.4380  226.8476 H   0  0  0  0  0  0  0  0  0  0  0  0
  135.2389   80.7450  225.2152 H   0  0  0  0  0  0  0  0  0  0  0  0
  137.3720   81.0080  225.3130 C   0  0  0  0  0  0  0  0  0  0  0  0
  138.1191   81.3170  226.0589 H   0  0  0  0  0  0  0  0  0  0  0  0
  137.5266   79.9705  224.9819 H   0  0  0  0  0  0  0  0  0  0  0  0
  137.6160   78.5960  223.0990 C   0  0  0  0  0  0  0  0  0  0  0  0
  138.6735   78.6882  223.3875 H   0  0  0  0  0  0  0  0  0  0  0  0
  139.2700   74.6080  222.1750 N   0  0  0  0  0  0  0  0  0  0  0  0
  138.7110   73.8250  222.5840 H   0  0  0  0  0  0  0  0  0  0  0  0
  140.3830   74.3230  221.4510 C   0  0  0  0  0  0  0  0  0  0  0  0
  140.6698   73.2734  221.2894 H   0  0  0  0  0  0  0  0  0  0  0  0
  141.1770   75.3520  220.9030 C   0  0  0  0  0  0  0  0  0  0  0  0
  142.3780   75.0100  220.1770 N   0  0  0  0  0  0  0  0  0  0  0  0
  143.4390   74.2320  220.8230 C   0  0  0  0  0  0  0  0  0  0  0  0
  143.3358   74.3077  221.9155 H   0  0  0  0  0  0  0  0  0  0  0  0
  143.3576   73.1779  220.5191 H   0  0  0  0  0  0  0  0  0  0  0  0
  144.4198   74.6265  220.5191 H   0  0  0  0  0  0  0  0  0  0  0  0
  142.6890   75.6680  218.9400 C   0  0  0  0  0  0  0  0  0  0  0  0
  142.6250   75.0260  217.8580 O   0  0  0  0  0  0  0  0  0  0  0  0
  143.0430   77.1200  218.9020 C   0  0  0  0  0  0  0  0  0  0  0  0
  143.8223   77.3178  219.6527 H   0  0  0  0  0  0  0  0  0  0  0  0
  143.4034   77.3614  217.8911 H   0  0  0  0  0  0  0  0  0  0  0  0
  141.8330   77.9970  219.2010 C   0  0  0  0  0  0  0  0  0  0  0  0
  142.0840   79.0480  218.9949 H   0  0  0  0  0  0  0  0  0  0  0  0
  140.9922   77.6847  218.5642 H   0  0  0  0  0  0  0  0  0  0  0  0
  141.7880   80.2630  221.0440 C   0  0  0  0  0  0  0  0  0  0  0  0
  141.6529   80.4687  219.9719 H   0  0  0  0  0  0  0  0  0  0  0  0
  141.9990   81.3200  221.9350 C   0  0  0  0  0  0  0  0  0  0  0  0
  142.0306   82.3544  221.5622 H   0  0  0  0  0  0  0  0  0  0  0  0
  1  2  1  0
  2  3  2  0
  3  4  1  0
  3  5  1  0
  5  6  1  0
  5  7  2  0
  7  8  1  0
  8  9  1  0
  9 10  2  0
 10 11  1  0
 11 12  2  0
 12 13  1  0
 13 14  2  0
 14 15  1  0
 14 16  1  0
 16 17  1  0
 16 18  2  0
 18 19  1  0
 18 20  1  0
 20 21  1  0
 21 22  2  0
 21 23  1  0
 23 24  1  6
 23 25  1  0
 25 26  1  0
 25 27  1  0
 25 28  1  0
 28 29  1  0
 28 30  1  0
 28 31  1  0
 31 32  1  6
 31 33  1  0
 33 34  1  0
 34 35  1  0
 34 36  1  0
 34 37  1  0
 37 38  1  0
 37 39  1  0
 37 40  1  0
 31 41  1  0
 41 42  1  0
 41 43  1  0
 41 44  1  0
 44 45  1  0
 44 46  1  0
 20 47  2  0
 47 48  1  0
 11 49  1  0
 49 50  1  0
 49 51  1  0
 51 52  1  0
 51 53  2  0
 53 54  1  0
 54 55  1  0
 55 56  1  0
 55 57  1  0
 55 58  1  0
 54 59  1  0
 59 60  2  0
 59 61  1  0
 61 62  1  0
 61 63  1  0
 61 64  1  0
 64 65  1  0
 64 66  1  0
  7 67  1  0
 67 68  1  0
 67 69  2  0
 69 70  1  0
 69  2  1  0
 64  8  1  0
 53  9  1  0
 47 13  1  0
 44 23  1  0
M  CHG  1  23   1
M  END
>  <UniqueID>  (36) 
22

>  <SMILES>  (36) 
CCOC1CC[NH+](C(=O)c2cccc(/N=c3\nc4c(c[nH]3)N(C)C(=O)CCN4c3ccccc3)c2)CC1

>  <Energy>  (36) 
110.74662989392861

>  <Genealogy>  (36) 
CCOC1CC[NH+](C(=O)c2cccc(N=c3nc4c(c[nH]3)N(C)C(=O)CCN4c3ccccc3)c2)CC1 (protonated)
CCOC1CC[NH+](C(=O)c2cccc(/N=c3\nc4c(c[nH]3)N(C)C(=O)CCN4c3ccccc3)c2)CC1 (cis-trans isomerization)
CCOC1CC[NH+](C(=O)c2cccc(/N=c3\nc4c(c[nH]3)N(C)C(=O)CCN4c3ccccc3)c2)CC1 (3D coordinates assigned)
CCOC1CC[NH+](C(=O)c2cccc(/N=c3\nc4c(c[nH]3)N(C)C(=O)CCN4c3ccccc3)c2)CC1 (nonaromatic ring conformer: 110.74662989392861 kcal/mol)

>  <smiles>  (36) 
CCOC1CCN(C(=O)c2cccc(N=c3nc4c(c[nH]3)N(C)C(=O)CCN4c3ccccc3)c2)CC1

>  <score_type>  (36) 
oracle

>  <origin>  (36) 
autodockgpu

>  <m_score__min__energy>  (36) 
-6.8300000000000001

>  <m_primary>  (36) 
energy

>  <meeko>  (36) 
{"free_energy": -4.72, "intermolecular_energy": -8.3, "internal_energy": -2.25, "cluster_size": 2, "cluster_id": 3, "rank_in_cluster": 2}

>  <energy>  (36) 
-4.29

>  <cluster_rmsd>  (36) 
1.35

>  <rmsd>  (36) 
270.69

>  <cluster>  (36) 
7

$$$$
KHESEQRZXKFTOB-IGPOTQGWNA-O
     RDKit          3D

 70 74  0  0  0  0  0  0  0  0999 V2000
  141.3584   78.0982  224.6964 H   0  0  0  0  0  0  0  0  0  0  0  0
  141.3830   78.8740  223.9170 C   0  0  0  0  0  0  0  0  0  0  0  0
  142.5450   79.0740  223.1670 C   0  0  0  0  0  0  0  0  0  0  0  0
  143.4353   78.4568  223.3579 H   0  0  0  0  0  0  0  0  0  0  0  0
  142.5770   80.0580  222.1740 C   0  0  0  0  0  0  0  0  0  0  0  0
  143.4958   80.2177  221.5907 H   0  0  0  0  0  0  0  0  0  0  0  0
  141.4400   80.8440  221.9180 C   0  0  0  0  0  0  0  0  0  0  0  0
  141.4450   81.8010  220.8380 N   0  0  0  0  0  0  0  0  0  0  0  0
  141.6990   81.3240  219.4910 C   0  0  0  0  0  0  0  0  0  0  0  0
  142.1880   80.0640  219.3490 N   0  0  0  0  0  0  0  0  0  0  0  0
  142.4550   79.5020  218.1450 C   0  0  0  0  0  0  0  0  0  0  0  0
  142.9850   78.3150  218.0750 N   0  0  0  0  0  0  0  0  0  0  0  0
  142.7350   77.2720  219.0300 C   0  0  0  0  0  0  0  0  0  0  0  0
  143.6870   76.2660  219.2690 C   0  0  0  0  0  0  0  0  0  0  0  0
  144.6566   76.2942  218.7502 H   0  0  0  0  0  0  0  0  0  0  0  0
  143.4060   75.2320  220.1620 C   0  0  0  0  0  0  0  0  0  0  0  0
  144.1578   74.4520  220.3528 H   0  0  0  0  0  0  0  0  0  0  0  0
  142.1710   75.1850  220.8150 C   0  0  0  0  0  0  0  0  0  0  0  0
  141.9532   74.3649  221.5150 H   0  0  0  0  0  0  0  0  0  0  0  0
  141.2060   76.1800  220.5820 C   0  0  0  0  0  0  0  0  0  0  0  0
  139.8810   76.0870  221.2370 C   0  0  0  0  0  0  0  0  0  0  0  0
  139.2890   74.9710  221.2610 O   0  0  0  0  0  0  0  0  0  0  0  0
  139.2440   77.2500  221.8250 N   0  0  1  0  0  0  0  0  0  0  0  0
  139.9790   77.8540  222.2600 H   0  0  0  0  0  0  0  0  0  0  0  0
  138.6270   78.0770  220.7570 C   0  0  0  0  0  0  0  0  0  0  0  0
  139.4182   78.6228  220.2221 H   0  0  0  0  0  0  0  0  0  0  0  0
  138.0844   77.4128  220.0682 H   0  0  0  0  0  0  0  0  0  0  0  0
  137.6350   79.0840  221.3480 C   0  0  0  0  0  0  0  0  0  0  0  0
  138.1557   79.7071  222.0900 H   0  0  0  0  0  0  0  0  0  0  0  0
  137.2391   79.7036  220.5298 H   0  0  0  0  0  0  0  0  0  0  0  0
  136.4520   78.3670  222.0340 C   0  0  2  0  0  0  0  0  0  0  0  0
  135.6312   78.2713  221.3080 H   0  0  0  0  0  0  0  0  0  0  0  0
  136.0480   79.1400  223.1560 O   0  0  0  0  0  0  0  0  0  0  0  0
  136.6180   80.4350  223.1330 C   0  0  0  0  0  0  0  0  0  0  0  0
  135.8512   81.1633  222.8302 H   0  0  0  0  0  0  0  0  0  0  0  0
  137.4525   80.4451  222.4164 H   0  0  0  0  0  0  0  0  0  0  0  0
  137.1470   80.8070  224.5140 C   0  0  0  0  0  0  0  0  0  0  0  0
  136.5059   80.3562  225.2859 H   0  0  0  0  0  0  0  0  0  0  0  0
  138.1750   80.4319  224.6262 H   0  0  0  0  0  0  0  0  0  0  0  0
  137.1417   81.9013  224.6262 H   0  0  0  0  0  0  0  0  0  0  0  0
  136.8280   76.9370  222.4920 C   0  0  0  0  0  0  0  0  0  0  0  0
  136.1961   76.6583  223.3482 H   0  0  0  0  0  0  0  0  0  0  0  0
  136.6680   76.2510  221.6471 H   0  0  0  0  0  0  0  0  0  0  0  0
  138.3030   76.8490  222.9110 C   0  0  0  0  0  0  0  0  0  0  0  0
  138.4619   77.5116  223.7745 H   0  0  0  0  0  0  0  0  0  0  0  0
  138.5127   75.7972  223.1554 H   0  0  0  0  0  0  0  0  0  0  0  0
  141.5130   77.2430  219.7110 C   0  0  0  0  0  0  0  0  0  0  0  0
  140.7870   78.0564  219.5649 H   0  0  0  0  0  0  0  0  0  0  0  0
  142.2200   80.2120  217.0130 N   0  0  0  0  0  0  0  0  0  0  0  0
  142.4300   79.7920  216.0780 H   0  0  0  0  0  0  0  0  0  0  0  0
  141.7280   81.4770  217.0770 C   0  0  0  0  0  0  0  0  0  0  0  0
  141.5407   82.0333  216.1467 H   0  0  0  0  0  0  0  0  0  0  0  0
  141.4540   82.0870  218.3180 C   0  0  0  0  0  0  0  0  0  0  0  0
  140.9750   83.4500  218.3480 N   0  0  0  0  0  0  0  0  0  0  0  0
  141.8170   84.5430  217.8570 C   0  0  0  0  0  0  0  0  0  0  0  0
  142.2400   85.0921  218.7111 H   0  0  0  0  0  0  0  0  0  0  0  0
  142.6332   84.1308  217.2455 H   0  0  0  0  0  0  0  0  0  0  0  0
  141.2102   85.2270  217.2455 H   0  0  0  0  0  0  0  0  0  0  0  0
  139.8150   83.7930  219.1210 C   0  0  0  0  0  0  0  0  0  0  0  0
  138.7880   84.2380  218.5430 O   0  0  0  0  0  0  0  0  0  0  0  0
  139.7830   83.5890  220.6020 C   0  0  0  0  0  0  0  0  0  0  0  0
  139.4566   84.5225  221.0836 H   0  0  0  0  0  0  0  0  0  0  0  0
  139.0842   82.7680  220.8204 H   0  0  0  0  0  0  0  0  0  0  0  0
  141.1560   83.2040  221.1480 C   0  0  0  0  0  0  0  0  0  0  0  0
  141.9232   83.8440  220.6878 H   0  0  0  0  0  0  0  0  0  0  0  0
  141.1610   83.3404  222.2395 H   0  0  0  0  0  0  0  0  0  0  0  0
  140.2780   80.6410  222.6810 C   0  0  0  0  0  0  0  0  0  0  0  0
  139.3856   81.2564  222.4941 H   0  0  0  0  0  0  0  0  0  0  0  0
  140.2510   79.6600  223.6770 C   0  0  0  0  0  0  0  0  0  0  0  0
  139.3389   79.5062  224.2723 H   0  0  0  0  0  0  0  0  0  0  0  0
  1  2  1  0
  2  3  2  0
  3  4  1  0
  3  5  1  0
  5  6  1  0
  5  7  2  0
  7  8  1  0
  8  9  1  0
  9 10  2  0
 10 11  1  0
 11 12  2  0
 12 13  1  0
 13 14  2  0
 14 15  1  0
 14 16  1  0
 16 17  1  0
 16 18  2  0
 18 19  1  0
 18 20  1  0
 20 21  1  0
 21 22  2  0
 21 23  1  0
 23 24  1  6
 23 25  1  0
 25 26  1  0
 25 27  1  0
 25 28  1  0
 28 29  1  0
 28 30  1  0
 28 31  1  0
 31 32  1  1
 31 33  1  0
 33 34  1  0
 34 35  1  0
 34 36  1  0
 34 37  1  0
 37 38  1  0
 37 39  1  0
 37 40  1  0
 31 41  1  0
 41 42  1  0
 41 43  1  0
 41 44  1  0
 44 45  1  0
 44 46  1  0
 20 47  2  0
 47 48  1  0
 11 49  1  0
 49 50  1  0
 49 51  1  0
 51 52  1  0
 51 53  2  0
 53 54  1  0
 54 55  1  0
 55 56  1  0
 55 57  1  0
 55 58  1  0
 54 59  1  0
 59 60  2  0
 59 61  1  0
 61 62  1  0
 61 63  1  0
 61 64  1  0
 64 65  1  0
 64 66  1  0
  7 67  1  0
 67 68  1  0
 67 69  2  0
 69 70  1  0
 69  2  1  0
 64  8  1  0
 53  9  1  0
 47 13  1  0
 44 23  1  0
M  CHG  1  23   1
M  END
>  <UniqueID>  (37) 
22

>  <SMILES>  (37) 
CCOC1CC[NH+](C(=O)c2cccc(/N=c3\nc4c(c[nH]3)N(C)C(=O)CCN4c3ccccc3)c2)CC1

>  <Energy>  (37) 
110.74662989392861

>  <Genealogy>  (37) 
CCOC1CC[NH+](C(=O)c2cccc(N=c3nc4c(c[nH]3)N(C)C(=O)CCN4c3ccccc3)c2)CC1 (protonated)
CCOC1CC[NH+](C(=O)c2cccc(/N=c3\nc4c(c[nH]3)N(C)C(=O)CCN4c3ccccc3)c2)CC1 (cis-trans isomerization)
CCOC1CC[NH+](C(=O)c2cccc(/N=c3\nc4c(c[nH]3)N(C)C(=O)CCN4c3ccccc3)c2)CC1 (3D coordinates assigned)
CCOC1CC[NH+](C(=O)c2cccc(/N=c3\nc4c(c[nH]3)N(C)C(=O)CCN4c3ccccc3)c2)CC1 (nonaromatic ring conformer: 110.74662989392861 kcal/mol)

>  <smiles>  (37) 
CCOC1CCN(C(=O)c2cccc(N=c3nc4c(c[nH]3)N(C)C(=O)CCN4c3ccccc3)c2)CC1

>  <score_type>  (37) 
oracle

>  <origin>  (37) 
autodockgpu

>  <m_score__min__energy>  (37) 
-6.8300000000000001

>  <m_primary>  (37) 
energy

>  <meeko>  (37) 
{"free_energy": -4.59, "intermolecular_energy": -8.17, "internal_energy": -3.08, "cluster_size": 4, "cluster_id": 7, "rank_in_cluster": 2}

>  <energy>  (37) 
-4.51

>  <cluster_rmsd>  (37) 
0.0

>  <rmsd>  (37) 
270.85

>  <cluster>  (37) 
8

$$$$
KHESEQRZXKFTOB-IGPOTQGWNA-O
     RDKit          3D

 70 74  0  0  0  0  0  0  0  0999 V2000
  140.9236   78.4333  215.6057 H   0  0  0  0  0  0  0  0  0  0  0  0
  141.2540   77.8670  216.4890 C   0  0  0  0  0  0  0  0  0  0  0  0
  140.3100   77.2700  217.3300 C   0  0  0  0  0  0  0  0  0  0  0  0
  139.2368   77.3690  217.1099 H   0  0  0  0  0  0  0  0  0  0  0  0
  140.7300   76.5470  218.4510 C   0  0  0  0  0  0  0  0  0  0  0  0
  139.9845   76.0847  219.1147 H   0  0  0  0  0  0  0  0  0  0  0  0
  142.1000   76.4080  218.7340 C   0  0  0  0  0  0  0  0  0  0  0  0
  142.5350   75.5920  219.8410 N   0  0  0  0  0  0  0  0  0  0  0  0
  141.5320   74.9080  220.6350 C   0  0  0  0  0  0  0  0  0  0  0  0
  140.5400   75.6590  221.1820 N   0  0  0  0  0  0  0  0  0  0  0  0
  139.5400   75.1360  221.9320 C   0  0  0  0  0  0  0  0  0  0  0  0
  138.6550   75.9150  222.4860 N   0  0  0  0  0  0  0  0  0  0  0  0
  138.8640   77.3150  222.7270 C   0  0  0  0  0  0  0  0  0  0  0  0
  137.7800   78.1820  222.9480 C   0  0  0  0  0  0  0  0  0  0  0  0
  136.7558   77.7820  222.9782 H   0  0  0  0  0  0  0  0  0  0  0  0
  137.9980   79.5470  223.1290 C   0  0  0  0  0  0  0  0  0  0  0  0
  137.1466   80.2198  223.3091 H   0  0  0  0  0  0  0  0  0  0  0  0
  139.2960   80.0620  223.0820 C   0  0  0  0  0  0  0  0  0  0  0  0
  139.4623   81.1402  223.2225 H   0  0  0  0  0  0  0  0  0  0  0  0
  140.3910   79.2090  222.8560 C   0  0  0  0  0  0  0  0  0  0  0  0
  141.7560   79.7770  222.7520 C   0  0  0  0  0  0  0  0  0  0  0  0
  142.4890   79.7940  223.7810 O   0  0  0  0  0  0  0  0  0  0  0  0
  142.2510   80.3320  221.5070 N   0  0  1  0  0  0  0  0  0  0  0  0
  143.2970   80.3390  221.5330 H   0  0  0  0  0  0  0  0  0  0  0  0
  141.8840   79.4400  220.3790 C   0  0  0  0  0  0  0  0  0  0  0  0
  142.5382   78.5558  220.3918 H   0  0  0  0  0  0  0  0  0  0  0  0
  140.8316   79.1417  220.4954 H   0  0  0  0  0  0  0  0  0  0  0  0
  142.0420   80.1610  219.0370 C   0  0  0  0  0  0  0  0  0  0  0  0
  143.0766   80.5229  218.9440 H   0  0  0  0  0  0  0  0  0  0  0  0
  141.8048   79.4513  218.2308 H   0  0  0  0  0  0  0  0  0  0  0  0
  141.0770   81.3620  218.9300 C   0  0  2  0  0  0  0  0  0  0  0  0
  140.1569   81.0282  218.4280 H   0  0  0  0  0  0  0  0  0  0  0  0
  141.7180   82.3880  218.1840 O   0  0  0  0  0  0  0  0  0  0  0  0
  142.6230   81.8580  217.2340 C   0  0  0  0  0  0  0  0  0  0  0  0
  142.1145   81.7617  216.2633 H   0  0  0  0  0  0  0  0  0  0  0  0
  142.9668   80.8720  217.5798 H   0  0  0  0  0  0  0  0  0  0  0  0
  143.8300   82.7770  217.0800 C   0  0  0  0  0  0  0  0  0  0  0  0
  144.2036   83.0614  218.0748 H   0  0  0  0  0  0  0  0  0  0  0  0
  144.6227   82.2517  216.5271 H   0  0  0  0  0  0  0  0  0  0  0  0
  143.5345   83.6809  216.5271 H   0  0  0  0  0  0  0  0  0  0  0  0
  140.6690   81.9040  220.3200 C   0  0  0  0  0  0  0  0  0  0  0  0
  140.4163   82.9706  220.2276 H   0  0  0  0  0  0  0  0  0  0  0  0
  139.8034   81.3257  220.6754 H   0  0  0  0  0  0  0  0  0  0  0  0
  141.8060   81.7470  221.3420 C   0  0  0  0  0  0  0  0  0  0  0  0
  142.6644   82.3474  221.0063 H   0  0  0  0  0  0  0  0  0  0  0  0
  141.4225   82.0868  222.3154 H   0  0  0  0  0  0  0  0  0  0  0  0
  140.1670   77.8270  222.7150 C   0  0  0  0  0  0  0  0  0  0  0  0
  141.0212   77.1445  222.5945 H   0  0  0  0  0  0  0  0  0  0  0  0
  139.5030   73.7980  222.1520 N   0  0  0  0  0  0  0  0  0  0  0  0
  138.7420   73.3840  222.7370 H   0  0  0  0  0  0  0  0  0  0  0  0
  140.4600   72.9840  221.6340 C   0  0  0  0  0  0  0  0  0  0  0  0
  140.4098   71.9013  221.8216 H   0  0  0  0  0  0  0  0  0  0  0  0
  141.5160   73.5060  220.8600 C   0  0  0  0  0  0  0  0  0  0  0  0
  142.5400   72.6150  220.3640 N   0  0  0  0  0  0  0  0  0  0  0  0
  142.2260   71.2130  220.0740 C   0  0  0  0  0  0  0  0  0  0  0  0
  142.1026   70.6620  221.0181 H   0  0  0  0  0  0  0  0  0  0  0  0
  141.2934   71.1587  219.4932 H   0  0  0  0  0  0  0  0  0  0  0  0
  143.0463   70.7661  219.4932 H   0  0  0  0  0  0  0  0  0  0  0  0
  143.9230   72.9910  220.4340 C   0  0  0  0  0  0  0  0  0  0  0  0
  144.7090   72.3480  221.1810 O   0  0  0  0  0  0  0  0  0  0  0  0
  144.4670   74.1050  219.5980 C   0  0  0  0  0  0  0  0  0  0  0  0
  145.5658   74.0839  219.6452 H   0  0  0  0  0  0  0  0  0  0  0  0
  144.1172   73.9642  218.5646 H   0  0  0  0  0  0  0  0  0  0  0  0
  143.9750   75.4640  220.0900 C   0  0  0  0  0  0  0  0  0  0  0  0
  144.1682   75.5533  221.1692 H   0  0  0  0  0  0  0  0  0  0  0  0
  144.5087   76.2602  219.5504 H   0  0  0  0  0  0  0  0  0  0  0  0
  143.0420   77.0170  217.8880 C   0  0  0  0  0  0  0  0  0  0  0  0
  144.1161   76.9215  218.1051 H   0  0  0  0  0  0  0  0  0  0  0  0
  142.6190   77.7440  216.7710 C   0  0  0  0  0  0  0  0  0  0  0  0
  143.3607   78.2201  216.1128 H   0  0  0  0  0  0  0  0  0  0  0  0
  1  2  1  0
  2  3  2  0
  3  4  1  0
  3  5  1  0
  5  6  1  0
  5  7  2  0
  7  8  1  0
  8  9  1  0
  9 10  2  0
 10 11  1  0
 11 12  2  0
 12 13  1  0
 13 14  2  0
 14 15  1  0
 14 16  1  0
 16 17  1  0
 16 18  2  0
 18 19  1  0
 18 20  1  0
 20 21  1  0
 21 22  2  0
 21 23  1  0
 23 24  1  6
 23 25  1  0
 25 26  1  0
 25 27  1  0
 25 28  1  0
 28 29  1  0
 28 30  1  0
 28 31  1  0
 31 32  1  1
 31 33  1  0
 33 34  1  0
 34 35  1  0
 34 36  1  0
 34 37  1  0
 37 38  1  0
 37 39  1  0
 37 40  1  0
 31 41  1  0
 41 42  1  0
 41 43  1  0
 41 44  1  0
 44 45  1  0
 44 46  1  0
 20 47  2  0
 47 48  1  0
 11 49  1  0
 49 50  1  0
 49 51  1  0
 51 52  1  0
 51 53  2  0
 53 54  1  0
 54 55  1  0
 55 56  1  0
 55 57  1  0
 55 58  1  0
 54 59  1  0
 59 60  2  0
 59 61  1  0
 61 62  1  0
 61 63  1  0
 61 64  1  0
 64 65  1  0
 64 66  1  0
  7 67  1  0
 67 68  1  0
 67 69  2  0
 69 70  1  0
 69  2  1  0
 64  8  1  0
 53  9  1  0
 47 13  1  0
 44 23  1  0
M  CHG  1  23   1
M  END
>  <UniqueID>  (38) 
22

>  <SMILES>  (38) 
CCOC1CC[NH+](C(=O)c2cccc(/N=c3\nc4c(c[nH]3)N(C)C(=O)CCN4c3ccccc3)c2)CC1

>  <Energy>  (38) 
110.74662989392861

>  <Genealogy>  (38) 
CCOC1CC[NH+](C(=O)c2cccc(N=c3nc4c(c[nH]3)N(C)C(=O)CCN4c3ccccc3)c2)CC1 (protonated)
CCOC1CC[NH+](C(=O)c2cccc(/N=c3\nc4c(c[nH]3)N(C)C(=O)CCN4c3ccccc3)c2)CC1 (cis-trans isomerization)
CCOC1CC[NH+](C(=O)c2cccc(/N=c3\nc4c(c[nH]3)N(C)C(=O)CCN4c3ccccc3)c2)CC1 (3D coordinates assigned)
CCOC1CC[NH+](C(=O)c2cccc(/N=c3\nc4c(c[nH]3)N(C)C(=O)CCN4c3ccccc3)c2)CC1 (nonaromatic ring conformer: 110.74662989392861 kcal/mol)

>  <smiles>  (38) 
CCOC1CCN(C(=O)c2cccc(N=c3nc4c(c[nH]3)N(C)C(=O)CCN4c3ccccc3)c2)CC1

>  <score_type>  (38) 
oracle

>  <origin>  (38) 
autodockgpu

>  <m_score__min__energy>  (38) 
-6.8300000000000001

>  <m_primary>  (38) 
energy

>  <meeko>  (38) 
{"free_energy": -5.57, "intermolecular_energy": -9.15, "internal_energy": -2.54, "cluster_size": 3, "cluster_id": 2, "rank_in_cluster": 2}

>  <energy>  (38) 
-4.43

>  <cluster_rmsd>  (38) 
0.0

>  <rmsd>  (38) 
270.07

>  <cluster>  (38) 
9

$$$$
KHESEQRZXKFTOB-IGPOTQGWNA-O
     RDKit          3D

 70 74  0  0  0  0  0  0  0  0999 V2000
  141.4970   78.3450  225.0310 H   0  0  0  0  0  0  0  0  0  0  0  0
  141.4800   79.0140  224.1580 C   0  0  0  0  0  0  0  0  0  0  0  0
  140.3480   79.7910  223.8950 C   0  0  0  0  0  0  0  0  0  0  0  0
  139.4735   79.7310  224.5596 H   0  0  0  0  0  0  0  0  0  0  0  0
  140.3270   80.6440  222.7880 C   0  0  0  0  0  0  0  0  0  0  0  0
  139.4320   81.2487  222.5800 H   0  0  0  0  0  0  0  0  0  0  0  0
  141.4440   80.7330  221.9390 C   0  0  0  0  0  0  0  0  0  0  0  0
  141.4550   81.6750  220.8470 N   0  0  0  0  0  0  0  0  0  0  0  0
  141.7570   81.1880  219.5140 C   0  0  0  0  0  0  0  0  0  0  0  0
  142.2730   79.9360  219.4010 N   0  0  0  0  0  0  0  0  0  0  0  0
  142.5850   79.3650  218.2120 C   0  0  0  0  0  0  0  0  0  0  0  0
  143.1390   78.1870  218.1720 N   0  0  0  0  0  0  0  0  0  0  0  0
  142.8410   77.1330  219.1000 C   0  0  0  0  0  0  0  0  0  0  0  0
  143.7200   76.0500  219.2740 C   0  0  0  0  0  0  0  0  0  0  0  0
  144.6724   76.0235  218.7243 H   0  0  0  0  0  0  0  0  0  0  0  0
  143.3890   75.0090  220.1410 C   0  0  0  0  0  0  0  0  0  0  0  0
  144.0840   74.1677  220.2795 H   0  0  0  0  0  0  0  0  0  0  0  0
  142.1760   75.0330  220.8340 C   0  0  0  0  0  0  0  0  0  0  0  0
  141.9185   74.2078  221.5143 H   0  0  0  0  0  0  0  0  0  0  0  0
  141.2830   76.1050  220.6670 C   0  0  0  0  0  0  0  0  0  0  0  0
  139.9750   76.0890  221.3640 C   0  0  0  0  0  0  0  0  0  0  0  0
  139.8260   75.3310  222.3630 O   0  0  0  0  0  0  0  0  0  0  0  0
  138.8640   76.9010  220.9060 N   0  0  1  0  0  0  0  0  0  0  0  0
  138.0180   76.6680  221.4770 H   0  0  0  0  0  0  0  0  0  0  0  0
  139.1450   78.3340  221.1760 C   0  0  0  0  0  0  0  0  0  0  0  0
  139.0111   78.5308  222.2499 H   0  0  0  0  0  0  0  0  0  0  0  0
  140.1790   78.5523  220.8705 H   0  0  0  0  0  0  0  0  0  0  0  0
  138.1990   79.2380  220.3790 C   0  0  0  0  0  0  0  0  0  0  0  0
  137.1597   78.9786  220.6290 H   0  0  0  0  0  0  0  0  0  0  0  0
  138.4126   80.2842  220.6434 H   0  0  0  0  0  0  0  0  0  0  0  0
  138.4090   79.0660  218.8590 C   0  0  2  0  0  0  0  0  0  0  0  0
  139.1221   79.8299  218.5154 H   0  0  0  0  0  0  0  0  0  0  0  0
  137.1540   79.2180  218.2120 O   0  0  0  0  0  0  0  0  0  0  0  0
  136.9650   80.5390  217.7390 C   0  0  0  0  0  0  0  0  0  0  0  0
  136.6503   81.1817  218.5745 H   0  0  0  0  0  0  0  0  0  0  0  0
  136.1918   80.5308  216.9566 H   0  0  0  0  0  0  0  0  0  0  0  0
  138.2610   81.0820  217.1480 C   0  0  0  0  0  0  0  0  0  0  0  0
  138.9436   81.3680  217.9618 H   0  0  0  0  0  0  0  0  0  0  0  0
  138.7344   80.3065  216.5278 H   0  0  0  0  0  0  0  0  0  0  0  0
  138.0402   81.9633  216.5278 H   0  0  0  0  0  0  0  0  0  0  0  0
  139.0130   77.6850  218.5100 C   0  0  0  0  0  0  0  0  0  0  0  0
  138.7091   77.4098  217.4892 H   0  0  0  0  0  0  0  0  0  0  0  0
  140.1079   77.7583  218.5869 H   0  0  0  0  0  0  0  0  0  0  0  0
  138.5340   76.5980  219.4830 C   0  0  0  0  0  0  0  0  0  0  0  0
  137.4423   76.5007  219.3897 H   0  0  0  0  0  0  0  0  0  0  0  0
  139.0543   75.6662  219.2164 H   0  0  0  0  0  0  0  0  0  0  0  0
  141.6420   77.1720  219.8210 C   0  0  0  0  0  0  0  0  0  0  0  0
  140.9756   78.0420  219.7262 H   0  0  0  0  0  0  0  0  0  0  0  0
  142.3700   80.0570  217.0650 N   0  0  0  0  0  0  0  0  0  0  0  0
  142.6160   79.6310  216.1420 H   0  0  0  0  0  0  0  0  0  0  0  0
  141.8530   81.3140  217.1000 C   0  0  0  0  0  0  0  0  0  0  0  0
  141.6828   81.8565  216.1583 H   0  0  0  0  0  0  0  0  0  0  0  0
  141.5320   81.9320  218.3250 C   0  0  0  0  0  0  0  0  0  0  0  0
  141.0270   83.2860  218.3250 N   0  0  0  0  0  0  0  0  0  0  0  0
  141.8650   84.3900  217.8480 C   0  0  0  0  0  0  0  0  0  0  0  0
  142.2787   84.9350  218.7093 H   0  0  0  0  0  0  0  0  0  0  0  0
  142.6880   83.9887  217.2384 H   0  0  0  0  0  0  0  0  0  0  0  0
  141.2572   85.0748  217.2384 H   0  0  0  0  0  0  0  0  0  0  0  0
  139.8370   83.6160  219.0570 C   0  0  0  0  0  0  0  0  0  0  0  0
  138.8230   84.0420  218.4420 O   0  0  0  0  0  0  0  0  0  0  0  0
  139.7590   83.4180  220.5370 C   0  0  0  0  0  0  0  0  0  0  0  0
  139.3900   84.3440  221.0022 H   0  0  0  0  0  0  0  0  0  0  0  0
  139.0759   82.5792  220.7367 H   0  0  0  0  0  0  0  0  0  0  0  0
  141.1230   83.0750  221.1300 C   0  0  0  0  0  0  0  0  0  0  0  0
  141.8883   83.7280  220.6851 H   0  0  0  0  0  0  0  0  0  0  0  0
  141.0915   83.2256  222.2192 H   0  0  0  0  0  0  0  0  0  0  0  0
  142.5750   79.9440  222.2060 C   0  0  0  0  0  0  0  0  0  0  0  0
  143.4515   80.0000  221.5437 H   0  0  0  0  0  0  0  0  0  0  0  0
  142.5900   79.0870  223.3120 C   0  0  0  0  0  0  0  0  0  0  0  0
  143.4772   78.4695  223.5160 H   0  0  0  0  0  0  0  0  0  0  0  0
  1  2  1  0
  2  3  2  0
  3  4  1  0
  3  5  1  0
  5  6  1  0
  5  7  2  0
  7  8  1  0
  8  9  1  0
  9 10  2  0
 10 11  1  0
 11 12  2  0
 12 13  1  0
 13 14  2  0
 14 15  1  0
 14 16  1  0
 16 17  1  0
 16 18  2  0
 18 19  1  0
 18 20  1  0
 20 21  1  0
 21 22  2  0
 21 23  1  0
 23 24  1  6
 23 25  1  0
 25 26  1  0
 25 27  1  0
 25 28  1  0
 28 29  1  0
 28 30  1  0
 28 31  1  0
 31 32  1  1
 31 33  1  0
 33 34  1  0
 34 35  1  0
 34 36  1  0
 34 37  1  0
 37 38  1  0
 37 39  1  0
 37 40  1  0
 31 41  1  0
 41 42  1  0
 41 43  1  0
 41 44  1  0
 44 45  1  0
 44 46  1  0
 20 47  2  0
 47 48  1  0
 11 49  1  0
 49 50  1  0
 49 51  1  0
 51 52  1  0
 51 53  2  0
 53 54  1  0
 54 55  1  0
 55 56  1  0
 55 57  1  0
 55 58  1  0
 54 59  1  0
 59 60  2  0
 59 61  1  0
 61 62  1  0
 61 63  1  0
 61 64  1  0
 64 65  1  0
 64 66  1  0
  7 67  1  0
 67 68  1  0
 67 69  2  0
 69 70  1  0
 69  2  1  0
 64  8  1  0
 53  9  1  0
 47 13  1  0
 44 23  1  0
M  CHG  1  23   1
M  END
>  <UniqueID>  (39) 
22

>  <SMILES>  (39) 
CCOC1CC[NH+](C(=O)c2cccc(/N=c3\nc4c(c[nH]3)N(C)C(=O)CCN4c3ccccc3)c2)CC1

>  <Energy>  (39) 
110.74662989392861

>  <Genealogy>  (39) 
CCOC1CC[NH+](C(=O)c2cccc(N=c3nc4c(c[nH]3)N(C)C(=O)CCN4c3ccccc3)c2)CC1 (protonated)
CCOC1CC[NH+](C(=O)c2cccc(/N=c3\nc4c(c[nH]3)N(C)C(=O)CCN4c3ccccc3)c2)CC1 (cis-trans isomerization)
CCOC1CC[NH+](C(=O)c2cccc(/N=c3\nc4c(c[nH]3)N(C)C(=O)CCN4c3ccccc3)c2)CC1 (3D coordinates assigned)
CCOC1CC[NH+](C(=O)c2cccc(/N=c3\nc4c(c[nH]3)N(C)C(=O)CCN4c3ccccc3)c2)CC1 (nonaromatic ring conformer: 110.74662989392861 kcal/mol)

>  <smiles>  (39) 
CCOC1CCN(C(=O)c2cccc(N=c3nc4c(c[nH]3)N(C)C(=O)CCN4c3ccccc3)c2)CC1

>  <score_type>  (39) 
oracle

>  <origin>  (39) 
autodockgpu

>  <m_score__min__energy>  (39) 
-6.8300000000000001

>  <m_primary>  (39) 
energy

>  <meeko>  (39) 
{"free_energy": -4.29, "intermolecular_energy": -7.87, "internal_energy": -3.43, "cluster_size": 4, "cluster_id": 7, "rank_in_cluster": 4}

>  <energy>  (39) 
-3.83

>  <cluster_rmsd>  (39) 
0.0

>  <rmsd>  (39) 
270.73

>  <cluster>  (39) 
10

$$$$
KHESEQRZXKFTOB-IGPOTQGWNA-O
     RDKit          3D

 70 74  0  0  0  0  0  0  0  0999 V2000
  142.9536   80.2256  225.0442 H   0  0  0  0  0  0  0  0  0  0  0  0
  142.5930   80.5180  224.0470 C   0  0  0  0  0  0  0  0  0  0  0  0
  141.7640   81.6340  223.9030 C   0  0  0  0  0  0  0  0  0  0  0  0
  141.4693   82.2177  224.7876 H   0  0  0  0  0  0  0  0  0  0  0  0
  141.3090   82.0090  222.6350 C   0  0  0  0  0  0  0  0  0  0  0  0
  140.6506   82.8834  222.5262 H   0  0  0  0  0  0  0  0  0  0  0  0
  141.6890   81.2740  221.4990 C   0  0  0  0  0  0  0  0  0  0  0  0
  141.2890   81.7100  220.1830 N   0  0  0  0  0  0  0  0  0  0  0  0
  140.8070   80.7190  219.2400 C   0  0  0  0  0  0  0  0  0  0  0  0
  141.6110   79.6550  218.9770 N   0  0  0  0  0  0  0  0  0  0  0  0
  141.2690   78.6580  218.1250 C   0  0  0  0  0  0  0  0  0  0  0  0
  142.1090   77.6980  217.8630 N   0  0  0  0  0  0  0  0  0  0  0  0
  142.3510   76.5870  218.7400 C   0  0  0  0  0  0  0  0  0  0  0  0
  143.4330   75.7160  218.5240 C   0  0  0  0  0  0  0  0  0  0  0  0
  144.1325   75.9050  217.6964 H   0  0  0  0  0  0  0  0  0  0  0  0
  143.6220   74.6130  219.3560 C   0  0  0  0  0  0  0  0  0  0  0  0
  144.4751   73.9390  219.1886 H   0  0  0  0  0  0  0  0  0  0  0  0
  142.7300   74.3620  220.4020 C   0  0  0  0  0  0  0  0  0  0  0  0
  142.8823   73.4884  221.0528 H   0  0  0  0  0  0  0  0  0  0  0  0
  141.6400   75.2190  220.6270 C   0  0  0  0  0  0  0  0  0  0  0  0
  140.6700   74.9090  221.7040 C   0  0  0  0  0  0  0  0  0  0  0  0
  140.4860   73.7030  222.0300 O   0  0  0  0  0  0  0  0  0  0  0  0
  139.9150   75.9560  222.3670 N   0  0  1  0  0  0  0  0  0  0  0  0
  139.5620   75.5900  223.2810 H   0  0  0  0  0  0  0  0  0  0  0  0
  140.8170   77.0850  222.7090 C   0  0  0  0  0  0  0  0  0  0  0  0
  141.4320   76.8043  223.5767 H   0  0  0  0  0  0  0  0  0  0  0  0
  141.4548   77.3007  221.8391 H   0  0  0  0  0  0  0  0  0  0  0  0
  140.0140   78.3430  223.0500 C   0  0  0  0  0  0  0  0  0  0  0  0
  139.3241   78.1150  223.8759 H   0  0  0  0  0  0  0  0  0  0  0  0
  140.7181   79.1370  223.3397 H   0  0  0  0  0  0  0  0  0  0  0  0
  139.1980   78.8340  221.8330 C   0  0  2  0  0  0  0  0  0  0  0  0
  139.7908   79.5885  221.2951 H   0  0  0  0  0  0  0  0  0  0  0  0
  137.9790   79.3910  222.3040 O   0  0  0  0  0  0  0  0  0  0  0  0
  138.1360   80.7440  222.6900 C   0  0  0  0  0  0  0  0  0  0  0  0
  137.2977   81.3344  222.2916 H   0  0  0  0  0  0  0  0  0  0  0  0
  139.0880   81.1218  222.2889 H   0  0  0  0  0  0  0  0  0  0  0  0
  138.1570   80.8630  224.2100 C   0  0  0  0  0  0  0  0  0  0  0  0
  137.9824   79.8735  224.6577 H   0  0  0  0  0  0  0  0  0  0  0  0
  139.1363   81.2446  224.5344 H   0  0  0  0  0  0  0  0  0  0  0  0
  137.3674   81.5567  224.5344 H   0  0  0  0  0  0  0  0  0  0  0  0
  138.9000   77.6900  220.8360 C   0  0  0  0  0  0  0  0  0  0  0  0
  137.9760   77.9257  220.2877 H   0  0  0  0  0  0  0  0  0  0  0  0
  139.7532   77.6021  220.1473 H   0  0  0  0  0  0  0  0  0  0  0  0
  138.7230   76.3450  221.5570 C   0  0  0  0  0  0  0  0  0  0  0  0
  137.8531   76.4179  222.2263 H   0  0  0  0  0  0  0  0  0  0  0  0
  138.5839   75.5738  220.7851 H   0  0  0  0  0  0  0  0  0  0  0  0
  141.4790   76.3540  219.8090 C   0  0  0  0  0  0  0  0  0  0  0  0
  140.6621   77.0622  220.0119 H   0  0  0  0  0  0  0  0  0  0  0  0
  140.0650   78.7000  217.5010 N   0  0  0  0  0  0  0  0  0  0  0  0
  139.7940   77.9410  216.8350 H   0  0  0  0  0  0  0  0  0  0  0  0
  139.2070   79.7310  217.7180 C   0  0  0  0  0  0  0  0  0  0  0  0
  138.2336   79.7428  217.2059 H   0  0  0  0  0  0  0  0  0  0  0  0
  139.5460   80.7860  218.5900 C   0  0  0  0  0  0  0  0  0  0  0  0
  138.6270   81.8880  218.7600 N   0  0  0  0  0  0  0  0  0  0  0  0
  137.1850   81.6810  218.6110 C   0  0  0  0  0  0  0  0  0  0  0  0
  136.7195   81.6142  219.6054 H   0  0  0  0  0  0  0  0  0  0  0  0
  136.7485   82.5257  218.0578 H   0  0  0  0  0  0  0  0  0  0  0  0
  137.0038   80.7476  218.0578 H   0  0  0  0  0  0  0  0  0  0  0  0
  139.1120   83.2390  218.7760 C   0  0  0  0  0  0  0  0  0  0  0  0
  138.7940   84.0280  217.8460 O   0  0  0  0  0  0  0  0  0  0  0  0
  139.9540   83.7470  219.9030 C   0  0  0  0  0  0  0  0  0  0  0  0
  140.0360   84.8410  219.8226 H   0  0  0  0  0  0  0  0  0  0  0  0
  139.4735   83.4580  220.8493 H   0  0  0  0  0  0  0  0  0  0  0  0
  141.3540   83.1420  219.8740 C   0  0  0  0  0  0  0  0  0  0  0  0
  141.7892   83.2791  218.8731 H   0  0  0  0  0  0  0  0  0  0  0  0
  141.9800   83.6451  220.6256 H   0  0  0  0  0  0  0  0  0  0  0  0
  142.5160   80.1490  221.6530 C   0  0  0  0  0  0  0  0  0  0  0  0
  142.8122   79.5618  220.7713 H   0  0  0  0  0  0  0  0  0  0  0  0
  142.9640   79.7730  222.9230 C   0  0  0  0  0  0  0  0  0  0  0  0
  143.6094   78.8897  223.0383 H   0  0  0  0  0  0  0  0  0  0  0  0
  1  2  1  0
  2  3  2  0
  3  4  1  0
  3  5  1  0
  5  6  1  0
  5  7  2  0
  7  8  1  0
  8  9  1  0
  9 10  2  0
 10 11  1  0
 11 12  2  0
 12 13  1  0
 13 14  2  0
 14 15  1  0
 14 16  1  0
 16 17  1  0
 16 18  2  0
 18 19  1  0
 18 20  1  0
 20 21  1  0
 21 22  2  0
 21 23  1  0
 23 24  1  6
 23 25  1  0
 25 26  1  0
 25 27  1  0
 25 28  1  0
 28 29  1  0
 28 30  1  0
 28 31  1  0
 31 32  1  1
 31 33  1  0
 33 34  1  0
 34 35  1  0
 34 36  1  0
 34 37  1  0
 37 38  1  0
 37 39  1  0
 37 40  1  0
 31 41  1  0
 41 42  1  0
 41 43  1  0
 41 44  1  0
 44 45  1  0
 44 46  1  0
 20 47  2  0
 47 48  1  0
 11 49  1  0
 49 50  1  0
 49 51  1  0
 51 52  1  0
 51 53  2  0
 53 54  1  0
 54 55  1  0
 55 56  1  0
 55 57  1  0
 55 58  1  0
 54 59  1  0
 59 60  2  0
 59 61  1  0
 61 62  1  0
 61 63  1  0
 61 64  1  0
 64 65  1  0
 64 66  1  0
  7 67  1  0
 67 68  1  0
 67 69  2  0
 69 70  1  0
 69  2  1  0
 64  8  1  0
 53  9  1  0
 47 13  1  0
 44 23  1  0
M  CHG  1  23   1
M  END
>  <UniqueID>  (40) 
22

>  <SMILES>  (40) 
CCOC1CC[NH+](C(=O)c2cccc(/N=c3\nc4c(c[nH]3)N(C)C(=O)CCN4c3ccccc3)c2)CC1

>  <Energy>  (40) 
110.74662989392861

>  <Genealogy>  (40) 
CCOC1CC[NH+](C(=O)c2cccc(N=c3nc4c(c[nH]3)N(C)C(=O)CCN4c3ccccc3)c2)CC1 (protonated)
CCOC1CC[NH+](C(=O)c2cccc(/N=c3\nc4c(c[nH]3)N(C)C(=O)CCN4c3ccccc3)c2)CC1 (cis-trans isomerization)
CCOC1CC[NH+](C(=O)c2cccc(/N=c3\nc4c(c[nH]3)N(C)C(=O)CCN4c3ccccc3)c2)CC1 (3D coordinates assigned)
CCOC1CC[NH+](C(=O)c2cccc(/N=c3\nc4c(c[nH]3)N(C)C(=O)CCN4c3ccccc3)c2)CC1 (nonaromatic ring conformer: 110.74662989392861 kcal/mol)

>  <smiles>  (40) 
CCOC1CCN(C(=O)c2cccc(N=c3nc4c(c[nH]3)N(C)C(=O)CCN4c3ccccc3)c2)CC1

>  <score_type>  (40) 
oracle

>  <origin>  (40) 
autodockgpu

>  <m_score__min__energy>  (40) 
-6.8300000000000001

>  <m_primary>  (40) 
energy

>  <meeko>  (40) 
{"free_energy": -4.41, "intermolecular_energy": -7.99, "internal_energy": -3.45, "cluster_size": 4, "cluster_id": 7, "rank_in_cluster": 3}

>  <energy>  (40) 
-3.77

>  <cluster_rmsd>  (40) 
0.0

>  <rmsd>  (40) 
270.73

>  <cluster>  (40) 
11

$$$$
FLYFIANCBVDDDY-IGPOTQGWNA-O
     RDKit          3D

 70 74  0  0  0  0  0  0  0  0999 V2000
  134.0280   69.8410  222.4740 H   0  0  0  0  0  0  0  0  0  0  0  0
  134.4020   70.2450  223.3230 O   0  0  0  0  0  0  0  0  0  0  0  0
  135.7740   70.3480  223.5600 C   0  0  0  0  0  0  0  0  0  0  0  0
  136.4450   69.1940  223.7460 C   0  0  0  0  0  0  0  0  0  0  0  0
  135.8441   68.2790  223.6378 H   0  0  0  0  0  0  0  0  0  0  0  0
  137.9000   68.9730  224.0810 C   0  0  0  0  0  0  0  0  0  0  0  0
  137.9565   68.2199  224.8808 H   0  0  0  0  0  0  0  0  0  0  0  0
  138.3874   68.6528  223.1483 H   0  0  0  0  0  0  0  0  0  0  0  0
  138.6160   70.1710  224.5310 N   0  0  0  0  0  0  0  0  0  0  0  0
  139.5380   70.1030  225.6390 C   0  0  0  0  0  0  0  0  0  0  0  0
  140.1440   71.2640  226.1550 C   0  0  0  0  0  0  0  0  0  0  0  0
  139.9660   72.2354  225.6706 H   0  0  0  0  0  0  0  0  0  0  0  0
  140.9710   71.1890  227.2800 C   0  0  0  0  0  0  0  0  0  0  0  0
  141.4441   72.0997  227.6760 H   0  0  0  0  0  0  0  0  0  0  0  0
  141.1970   69.9570  227.9020 C   0  0  0  0  0  0  0  0  0  0  0  0
  141.8495   69.8988  228.7857 H   0  0  0  0  0  0  0  0  0  0  0  0
  140.5950   68.8010  227.4020 C   0  0  0  0  0  0  0  0  0  0  0  0
  140.7726   67.8331  227.8935 H   0  0  0  0  0  0  0  0  0  0  0  0
  139.7670   68.8710  226.2780 C   0  0  0  0  0  0  0  0  0  0  0  0
  139.2918   67.9575  225.8910 H   0  0  0  0  0  0  0  0  0  0  0  0
  138.7900   71.2330  223.5910 C   0  0  0  0  0  0  0  0  0  0  0  0
  140.0420   71.6090  223.2230 N   0  0  0  0  0  0  0  0  0  0  0  0
  140.2530   72.6270  222.3460 C   0  0  0  0  0  0  0  0  0  0  0  0
  141.4640   72.9720  222.0110 N   0  0  0  0  0  0  0  0  0  0  0  0
  141.7880   74.0970  221.1770 C   0  0  0  0  0  0  0  0  0  0  0  0
  142.4910   73.9290  219.9730 C   0  0  0  0  0  0  0  0  0  0  0  0
  142.8131   72.9244  219.6616 H   0  0  0  0  0  0  0  0  0  0  0  0
  142.7820   75.0320  219.1710 C   0  0  0  0  0  0  0  0  0  0  0  0
  143.3303   74.8947  218.2273 H   0  0  0  0  0  0  0  0  0  0  0  0
  142.3790   76.3110  219.5630 C   0  0  0  0  0  0  0  0  0  0  0  0
  142.6081   77.1754  218.9224 H   0  0  0  0  0  0  0  0  0  0  0  0
  141.6810   76.5030  220.7730 C   0  0  0  0  0  0  0  0  0  0  0  0
  141.2020   77.8490  221.1980 C   0  0  0  0  0  0  0  0  0  0  0  0
  140.0750   78.2370  220.7740 O   0  0  0  0  0  0  0  0  0  0  0  0
  142.0040   78.7140  222.0540 N   0  0  2  0  0  0  0  0  0  0  0  0
  142.9890   78.3700  221.9970 H   0  0  0  0  0  0  0  0  0  0  0  0
  141.6440   78.6330  223.4950 C   0  0  0  0  0  0  0  0  0  0  0  0
  142.4538   79.0897  224.0829 H   0  0  0  0  0  0  0  0  0  0  0  0
  141.5047   77.5687  223.7355 H   0  0  0  0  0  0  0  0  0  0  0  0
  140.3220   79.3550  223.8390 C   0  0  0  0  0  0  0  0  0  0  0  0
  140.1939   79.3647  224.9315 H   0  0  0  0  0  0  0  0  0  0  0  0
  139.4968   78.8142  223.3527 H   0  0  0  0  0  0  0  0  0  0  0  0
  140.3200   80.8030  223.3230 C   0  0  2  0  0  0  0  0  0  0  0  0
  141.0706   81.3831  223.8799 H   0  0  0  0  0  0  0  0  0  0  0  0
  139.0380   81.3780  223.5060 O   0  0  0  0  0  0  0  0  0  0  0  0
  138.1830   80.5220  224.2390 C   0  0  0  0  0  0  0  0  0  0  0  0
  138.7794   79.7196  224.6978 H   0  0  0  0  0  0  0  0  0  0  0  0
  137.4355   80.0927  223.5557 H   0  0  0  0  0  0  0  0  0  0  0  0
  137.4640   81.3020  225.3330 C   0  0  0  0  0  0  0  0  0  0  0  0
  137.7956   80.9422  226.3182 H   0  0  0  0  0  0  0  0  0  0  0  0
  137.6991   82.3721  225.2352 H   0  0  0  0  0  0  0  0  0  0  0  0
  136.3783   81.1547  225.2352 H   0  0  0  0  0  0  0  0  0  0  0  0
  140.6460   80.8070  221.8290 C   0  0  0  0  0  0  0  0  0  0  0  0
  140.6961   81.8458  221.4706 H   0  0  0  0  0  0  0  0  0  0  0  0
  139.8590   80.2611  221.2880 H   0  0  0  0  0  0  0  0  0  0  0  0
  141.9950   80.1190  221.5800 C   0  0  0  0  0  0  0  0  0  0  0  0
  142.7804   80.6769  222.1110 H   0  0  0  0  0  0  0  0  0  0  0  0
  142.1739   80.1100  220.4947 H   0  0  0  0  0  0  0  0  0  0  0  0
  141.4160   75.3830  221.5860 C   0  0  0  0  0  0  0  0  0  0  0  0
  140.9109   75.5209  222.5534 H   0  0  0  0  0  0  0  0  0  0  0  0
  139.1860   73.2710  221.8000 N   0  0  0  0  0  0  0  0  0  0  0  0
  139.3350   74.0490  221.1170 H   0  0  0  0  0  0  0  0  0  0  0  0
  137.9160   72.9440  222.1620 C   0  0  0  0  0  0  0  0  0  0  0  0
  137.0648   73.4931  221.7332 H   0  0  0  0  0  0  0  0  0  0  0  0
  137.6890   71.9080  223.0810 C   0  0  0  0  0  0  0  0  0  0  0  0
  136.3800   71.6580  223.6130 N   0  0  0  0  0  0  0  0  0  0  0  0
  135.5750   72.7980  224.0610 C   0  0  0  0  0  0  0  0  0  0  0  0
  135.5565   72.8242  225.1605 H   0  0  0  0  0  0  0  0  0  0  0  0
  136.0159   73.7307  223.6793 H   0  0  0  0  0  0  0  0  0  0  0  0
  134.5485   72.6946  223.6793 H   0  0  0  0  0  0  0  0  0  0  0  0
  1  2  1  0
  2  3  1  0
  3  4  2  0
  4  5  1  0
  4  6  1  0
  6  7  1  0
  6  8  1  0
  6  9  1  0
  9 10  1  0
 10 11  2  0
 11 12  1  0
 11 13  1  0
 13 14  1  0
 13 15  2  0
 15 16  1  0
 15 17  1  0
 17 18  1  0
 17 19  2  0
 19 20  1  0
  9 21  1  0
 21 22  2  0
 22 23  1  0
 23 24  2  0
 24 25  1  0
 25 26  2  0
 26 27  1  0
 26 28  1  0
 28 29  1  0
 28 30  2  0
 30 31  1  0
 30 32  1  0
 32 33  1  0
 33 34  2  0
 33 35  1  0
 35 36  1  1
 35 37  1  0
 37 38  1  0
 37 39  1  0
 37 40  1  0
 40 41  1  0
 40 42  1  0
 40 43  1  0
 43 44  1  1
 43 45  1  0
 45 46  1  0
 46 47  1  0
 46 48  1  0
 46 49  1  0
 49 50  1  0
 49 51  1  0
 49 52  1  0
 43 53  1  0
 53 54  1  0
 53 55  1  0
 53 56  1  0
 56 57  1  0
 56 58  1  0
 32 59  2  0
 59 60  1  0
 23 61  1  0
 61 62  1  0
 61 63  1  0
 63 64  1  0
 63 65  2  0
 65 66  1  0
 66 67  1  0
 67 68  1  0
 67 69  1  0
 67 70  1  0
 66  3  1  0
 19 10  1  0
 65 21  1  0
 59 25  1  0
 56 35  1  0
M  CHG  1  35   1
M  END
>  <UniqueID>  (41) 
23

>  <SMILES>  (41) 
CCOC1CC[NH+](C(=O)c2cccc(/N=c3\nc4c(c[nH]3)N(C)C(O)=CCN4c3ccccc3)c2)CC1

>  <Energy>  (41) 
112.19393791108931

>  <Genealogy>  (41) 
CCOC1CC[NH+](C(=O)c2cccc(N=c3nc4c(c[nH]3)N(C)C(=O)CCN4c3ccccc3)c2)CC1 (protonated)
CCOC1CC[NH+](C(=O)c2cccc(N=c3nc4c(c[nH]3)N(C)C(O)=CCN4c3ccccc3)c2)CC1 (tautomer)
CCOC1CC[NH+](C(=O)c2cccc(/N=c3\nc4c(c[nH]3)N(C)C(O)=CCN4c3ccccc3)c2)CC1 (cis-trans isomerization)
CCOC1CC[NH+](C(=O)c2cccc(/N=c3\nc4c(c[nH]3)N(C)C(O)=CCN4c3ccccc3)c2)CC1 (3D coordinates assigned)
CCOC1CC[NH+](C(=O)c2cccc(/N=c3\nc4c(c[nH]3)N(C)C(O)=CCN4c3ccccc3)c2)CC1 (nonaromatic ring conformer: 112.19393791108931 kcal/mol)

>  <smiles>  (41) 
CCOC1CCN(C(=O)c2cccc(N=c3nc4c(c[nH]3)N(C)C(=O)CCN4c3ccccc3)c2)CC1

>  <score_type>  (41) 
oracle

>  <origin>  (41) 
autodockgpu

>  <m_score__min__energy>  (41) 
-7.3200000000000003

>  <m_primary>  (41) 
energy

>  <meeko>  (41) 
{"free_energy": -6.6, "intermolecular_energy": -10.48, "internal_energy": -1.38, "cluster_size": 4, "cluster_id": 1, "rank_in_cluster": 2}

>  <energy>  (41) 
-7.32

>  <cluster_rmsd>  (41) 
0.0

>  <rmsd>  (41) 
271.96

>  <cluster>  (41) 
1

$$$$
FLYFIANCBVDDDY-IGPOTQGWNA-O
     RDKit          3D

 70 74  0  0  0  0  0  0  0  0999 V2000
  134.1510   68.9220  223.7330 H   0  0  0  0  0  0  0  0  0  0  0  0
  134.5330   69.8520  223.6180 O   0  0  0  0  0  0  0  0  0  0  0  0
  135.9050   70.1080  223.6780 C   0  0  0  0  0  0  0  0  0  0  0  0
  136.7150   69.0410  223.7740 C   0  0  0  0  0  0  0  0  0  0  0  0
  136.2587   68.0774  223.5032 H   0  0  0  0  0  0  0  0  0  0  0  0
  138.1610   68.9740  224.2000 C   0  0  0  0  0  0  0  0  0  0  0  0
  138.2350   68.2802  225.0504 H   0  0  0  0  0  0  0  0  0  0  0  0
  138.7279   68.6426  223.3175 H   0  0  0  0  0  0  0  0  0  0  0  0
  138.7440   70.2560  224.6060 N   0  0  0  0  0  0  0  0  0  0  0  0
  139.6670   70.3280  225.7120 C   0  0  0  0  0  0  0  0  0  0  0  0
  140.2500   71.5490  226.0980 C   0  0  0  0  0  0  0  0  0  0  0  0
  140.0538   72.4584  225.5111 H   0  0  0  0  0  0  0  0  0  0  0  0
  141.0770   71.6130  227.2230 C   0  0  0  0  0  0  0  0  0  0  0  0
  141.5318   72.5706  227.5166 H   0  0  0  0  0  0  0  0  0  0  0  0
  141.3270   70.4610  227.9760 C   0  0  0  0  0  0  0  0  0  0  0  0
  141.9804   70.5123  228.8594 H   0  0  0  0  0  0  0  0  0  0  0  0
  140.7470   69.2460  227.6060 C   0  0  0  0  0  0  0  0  0  0  0  0
  140.9425   68.3408  228.1997 H   0  0  0  0  0  0  0  0  0  0  0  0
  139.9180   69.1780  226.4820 C   0  0  0  0  0  0  0  0  0  0  0  0
  139.4593   68.2193  226.1982 H   0  0  0  0  0  0  0  0  0  0  0  0
  138.8050   71.2960  223.6270 C   0  0  0  0  0  0  0  0  0  0  0  0
  140.0100   71.7830  223.2350 N   0  0  0  0  0  0  0  0  0  0  0  0
  140.1130   72.7850  222.3210 C   0  0  0  0  0  0  0  0  0  0  0  0
  141.2810   73.2390  221.9630 N   0  0  0  0  0  0  0  0  0  0  0  0
  141.4860   74.2900  221.0050 C   0  0  0  0  0  0  0  0  0  0  0  0
  141.8670   74.0040  219.6840 C   0  0  0  0  0  0  0  0  0  0  0  0
  142.0240   72.9608  219.3724 H   0  0  0  0  0  0  0  0  0  0  0  0
  142.0470   75.0380  218.7660 C   0  0  0  0  0  0  0  0  0  0  0  0
  142.3417   74.8081  217.7314 H   0  0  0  0  0  0  0  0  0  0  0  0
  141.8540   76.3650  219.1570 C   0  0  0  0  0  0  0  0  0  0  0  0
  141.9937   77.1748  218.4258 H   0  0  0  0  0  0  0  0  0  0  0  0
  141.4820   76.6750  220.4800 C   0  0  0  0  0  0  0  0  0  0  0  0
  141.2280   78.0770  220.9170 C   0  0  0  0  0  0  0  0  0  0  0  0
  140.3000   78.7170  220.3430 O   0  0  0  0  0  0  0  0  0  0  0  0
  142.0310   78.7160  221.9530 N   0  0  2  0  0  0  0  0  0  0  0  0
  142.9700   78.2590  221.9350 H   0  0  0  0  0  0  0  0  0  0  0  0
  141.5150   78.4980  223.3310 C   0  0  0  0  0  0  0  0  0  0  0  0
  142.3059   78.7682  224.0461 H   0  0  0  0  0  0  0  0  0  0  0  0
  141.2297   77.4383  223.4066 H   0  0  0  0  0  0  0  0  0  0  0  0
  140.2560   79.3330  223.6550 C   0  0  0  0  0  0  0  0  0  0  0  0
  140.0163   79.2187  224.7225 H   0  0  0  0  0  0  0  0  0  0  0  0
  139.4296   78.9691  223.0268 H   0  0  0  0  0  0  0  0  0  0  0  0
  140.4740   80.8230  223.3490 C   0  0  2  0  0  0  0  0  0  0  0  0
  141.2236   81.2256  224.0462 H   0  0  0  0  0  0  0  0  0  0  0  0
  139.2550   81.5300  223.4970 O   0  0  0  0  0  0  0  0  0  0  0  0
  138.3890   80.8870  224.4130 C   0  0  0  0  0  0  0  0  0  0  0  0
  138.7132   81.1140  225.4393 H   0  0  0  0  0  0  0  0  0  0  0  0
  138.4249   79.8017  224.2375 H   0  0  0  0  0  0  0  0  0  0  0  0
  136.9580   81.3730  224.2190 C   0  0  0  0  0  0  0  0  0  0  0  0
  136.4886   81.5324  225.2010 H   0  0  0  0  0  0  0  0  0  0  0  0
  136.9650   82.3192  223.6580 H   0  0  0  0  0  0  0  0  0  0  0  0
  136.3873   80.6183  223.6580 H   0  0  0  0  0  0  0  0  0  0  0  0
  140.9530   80.9770  221.9050 C   0  0  0  0  0  0  0  0  0  0  0  0
  141.1597   82.0381  221.7019 H   0  0  0  0  0  0  0  0  0  0  0  0
  140.1692   80.6105  221.2258 H   0  0  0  0  0  0  0  0  0  0  0  0
  142.2330   80.1590  221.6810 C   0  0  0  0  0  0  0  0  0  0  0  0
  143.0180   80.5392  222.3512 H   0  0  0  0  0  0  0  0  0  0  0  0
  142.5213   80.2661  220.6249 H   0  0  0  0  0  0  0  0  0  0  0  0
  141.3280   75.6220  221.4040 C   0  0  0  0  0  0  0  0  0  0  0  0
  141.0807   75.8499  222.4513 H   0  0  0  0  0  0  0  0  0  0  0  0
  138.9830   73.2990  221.7620 N   0  0  0  0  0  0  0  0  0  0  0  0
  139.0490   74.0630  221.0510 H   0  0  0  0  0  0  0  0  0  0  0  0
  137.7550   72.8590  222.1470 C   0  0  0  0  0  0  0  0  0  0  0  0
  136.8502   73.3038  221.7071 H   0  0  0  0  0  0  0  0  0  0  0  0
  137.6390   71.8390  223.1040 C   0  0  0  0  0  0  0  0  0  0  0  0
  136.3650   71.4770  223.6560 N   0  0  0  0  0  0  0  0  0  0  0  0
  135.4400   72.5460  224.0470 C   0  0  0  0  0  0  0  0  0  0  0  0
  135.3897   72.6042  225.1443 H   0  0  0  0  0  0  0  0  0  0  0  0
  135.7975   73.5055  223.6450 H   0  0  0  0  0  0  0  0  0  0  0  0
  134.4391   72.3301  223.6450 H   0  0  0  0  0  0  0  0  0  0  0  0
  1  2  1  0
  2  3  1  0
  3  4  2  0
  4  5  1  0
  4  6  1  0
  6  7  1  0
  6  8  1  0
  6  9  1  0
  9 10  1  0
 10 11  2  0
 11 12  1  0
 11 13  1  0
 13 14  1  0
 13 15  2  0
 15 16  1  0
 15 17  1  0
 17 18  1  0
 17 19  2  0
 19 20  1  0
  9 21  1  0
 21 22  2  0
 22 23  1  0
 23 24  2  0
 24 25  1  0
 25 26  2  0
 26 27  1  0
 26 28  1  0
 28 29  1  0
 28 30  2  0
 30 31  1  0
 30 32  1  0
 32 33  1  0
 33 34  2  0
 33 35  1  0
 35 36  1  1
 35 37  1  0
 37 38  1  0
 37 39  1  0
 37 40  1  0
 40 41  1  0
 40 42  1  0
 40 43  1  0
 43 44  1  1
 43 45  1  0
 45 46  1  0
 46 47  1  0
 46 48  1  0
 46 49  1  0
 49 50  1  0
 49 51  1  0
 49 52  1  0
 43 53  1  0
 53 54  1  0
 53 55  1  0
 53 56  1  0
 56 57  1  0
 56 58  1  0
 32 59  2  0
 59 60  1  0
 23 61  1  0
 61 62  1  0
 61 63  1  0
 63 64  1  0
 63 65  2  0
 65 66  1  0
 66 67  1  0
 67 68  1  0
 67 69  1  0
 67 70  1  0
 66  3  1  0
 19 10  1  0
 65 21  1  0
 59 25  1  0
 56 35  1  0
M  CHG  1  35   1
M  END
>  <UniqueID>  (42) 
23

>  <SMILES>  (42) 
CCOC1CC[NH+](C(=O)c2cccc(/N=c3\nc4c(c[nH]3)N(C)C(O)=CCN4c3ccccc3)c2)CC1

>  <Energy>  (42) 
112.19393791108931

>  <Genealogy>  (42) 
CCOC1CC[NH+](C(=O)c2cccc(N=c3nc4c(c[nH]3)N(C)C(=O)CCN4c3ccccc3)c2)CC1 (protonated)
CCOC1CC[NH+](C(=O)c2cccc(N=c3nc4c(c[nH]3)N(C)C(O)=CCN4c3ccccc3)c2)CC1 (tautomer)
CCOC1CC[NH+](C(=O)c2cccc(/N=c3\nc4c(c[nH]3)N(C)C(O)=CCN4c3ccccc3)c2)CC1 (cis-trans isomerization)
CCOC1CC[NH+](C(=O)c2cccc(/N=c3\nc4c(c[nH]3)N(C)C(O)=CCN4c3ccccc3)c2)CC1 (3D coordinates assigned)
CCOC1CC[NH+](C(=O)c2cccc(/N=c3\nc4c(c[nH]3)N(C)C(O)=CCN4c3ccccc3)c2)CC1 (nonaromatic ring conformer: 112.19393791108931 kcal/mol)

>  <smiles>  (42) 
CCOC1CCN(C(=O)c2cccc(N=c3nc4c(c[nH]3)N(C)C(=O)CCN4c3ccccc3)c2)CC1

>  <score_type>  (42) 
oracle

>  <origin>  (42) 
autodockgpu

>  <m_score__min__energy>  (42) 
-7.3200000000000003

>  <m_primary>  (42) 
energy

>  <meeko>  (42) 
{"free_energy": -6.57, "intermolecular_energy": -10.45, "internal_energy": -1.35, "cluster_size": 4, "cluster_id": 1, "rank_in_cluster": 3}

>  <energy>  (42) 
-6.6

>  <cluster_rmsd>  (42) 
1.59

>  <rmsd>  (42) 
271.91

>  <cluster>  (42) 
1

$$$$
FLYFIANCBVDDDY-IGPOTQGWNA-O
     RDKit          3D

 70 74  0  0  0  0  0  0  0  0999 V2000
  133.9160   81.0560  224.5090 H   0  0  0  0  0  0  0  0  0  0  0  0
  134.3100   80.1360  224.3550 O   0  0  0  0  0  0  0  0  0  0  0  0
  135.6400   79.9480  223.9730 C   0  0  0  0  0  0  0  0  0  0  0  0
  136.5750   80.5640  224.7160 C   0  0  0  0  0  0  0  0  0  0  0  0
  136.1893   81.1678  225.5507 H   0  0  0  0  0  0  0  0  0  0  0  0
  138.0770   80.5480  224.5720 C   0  0  0  0  0  0  0  0  0  0  0  0
  138.4468   81.5719  224.7296 H   0  0  0  0  0  0  0  0  0  0  0  0
  138.4520   79.8316  225.3177 H   0  0  0  0  0  0  0  0  0  0  0  0
  138.5650   80.0820  223.2700 N   0  0  0  0  0  0  0  0  0  0  0  0
  139.6470   80.7650  222.6040 C   0  0  0  0  0  0  0  0  0  0  0  0
  139.4030   81.6500  221.5360 C   0  0  0  0  0  0  0  0  0  0  0  0
  138.3788   81.7794  221.1560 H   0  0  0  0  0  0  0  0  0  0  0  0
  140.4550   82.3650  220.9560 C   0  0  0  0  0  0  0  0  0  0  0  0
  140.2575   83.0523  220.1201 H   0  0  0  0  0  0  0  0  0  0  0  0
  141.7590   82.2070  221.4380 C   0  0  0  0  0  0  0  0  0  0  0  0
  142.5867   82.7674  220.9788 H   0  0  0  0  0  0  0  0  0  0  0  0
  142.0100   81.3380  222.5020 C   0  0  0  0  0  0  0  0  0  0  0  0
  143.0352   81.2169  222.8818 H   0  0  0  0  0  0  0  0  0  0  0  0
  140.9610   80.6220  223.0850 C   0  0  0  0  0  0  0  0  0  0  0  0
  141.1642   79.9422  223.9256 H   0  0  0  0  0  0  0  0  0  0  0  0
  138.3370   78.7140  222.9270 C   0  0  0  0  0  0  0  0  0  0  0  0
  139.3920   77.8890  222.7040 N   0  0  0  0  0  0  0  0  0  0  0  0
  139.2200   76.5860  222.3560 C   0  0  0  0  0  0  0  0  0  0  0  0
  140.2480   75.8150  222.1430 N   0  0  0  0  0  0  0  0  0  0  0  0
  141.2740   76.0770  221.1720 C   0  0  0  0  0  0  0  0  0  0  0  0
  142.1970   75.0850  220.8040 C   0  0  0  0  0  0  0  0  0  0  0  0
  142.1478   74.0905  221.2716 H   0  0  0  0  0  0  0  0  0  0  0  0
  143.1750   75.3550  219.8490 C   0  0  0  0  0  0  0  0  0  0  0  0
  143.8927   74.5724  219.5620 H   0  0  0  0  0  0  0  0  0  0  0  0
  143.2460   76.6180  219.2550 C   0  0  0  0  0  0  0  0  0  0  0  0
  144.0184   76.8222  218.4989 H   0  0  0  0  0  0  0  0  0  0  0  0
  142.3370   77.6320  219.6160 C   0  0  0  0  0  0  0  0  0  0  0  0
  142.3600   78.9750  218.9700 C   0  0  0  0  0  0  0  0  0  0  0  0
  142.3730   79.9930  219.7200 O   0  0  0  0  0  0  0  0  0  0  0  0
  142.3420   79.1290  217.5200 N   0  0  2  0  0  0  0  0  0  0  0  0
  143.3300   79.0470  217.1930 H   0  0  0  0  0  0  0  0  0  0  0  0
  141.8880   80.4710  217.0660 C   0  0  0  0  0  0  0  0  0  0  0  0
  142.1615   80.5917  216.0074 H   0  0  0  0  0  0  0  0  0  0  0  0
  142.3795   81.2147  217.7105 H   0  0  0  0  0  0  0  0  0  0  0  0
  140.3650   80.6840  217.2050 C   0  0  0  0  0  0  0  0  0  0  0  0
  140.0930   81.6381  216.7300 H   0  0  0  0  0  0  0  0  0  0  0  0
  140.1148   80.6936  218.2761 H   0  0  0  0  0  0  0  0  0  0  0  0
  139.5730   79.5500  216.5360 C   0  0  2  0  0  0  0  0  0  0  0  0
  139.7299   79.5969  215.4483 H   0  0  0  0  0  0  0  0  0  0  0  0
  138.1930   79.6880  216.8270 O   0  0  0  0  0  0  0  0  0  0  0  0
  137.9830   80.3680  218.0490 C   0  0  0  0  0  0  0  0  0  0  0  0
  137.0725   80.9804  217.9718 H   0  0  0  0  0  0  0  0  0  0  0  0
  138.8522   81.0098  218.2555 H   0  0  0  0  0  0  0  0  0  0  0  0
  137.8220   79.3690  219.1890 C   0  0  0  0  0  0  0  0  0  0  0  0
  137.9067   79.8944  220.1517 H   0  0  0  0  0  0  0  0  0  0  0  0
  136.8349   78.8887  219.1190 H   0  0  0  0  0  0  0  0  0  0  0  0
  138.6083   78.6029  219.1190 H   0  0  0  0  0  0  0  0  0  0  0  0
  140.0530   78.2070  217.0860 C   0  0  0  0  0  0  0  0  0  0  0  0
  139.5237   77.3927  216.5695 H   0  0  0  0  0  0  0  0  0  0  0  0
  139.8439   78.1656  218.1652 H   0  0  0  0  0  0  0  0  0  0  0  0
  141.5640   78.0520  216.8620 C   0  0  0  0  0  0  0  0  0  0  0  0
  141.7663   78.0788  215.7811 H   0  0  0  0  0  0  0  0  0  0  0  0
  141.8740   77.0936  217.3041 H   0  0  0  0  0  0  0  0  0  0  0  0
  141.3690   77.3520  220.6010 C   0  0  0  0  0  0  0  0  0  0  0  0
  140.6793   78.1451  220.9255 H   0  0  0  0  0  0  0  0  0  0  0  0
  137.9600   76.0820  222.2530 N   0  0  0  0  0  0  0  0  0  0  0  0
  137.8140   75.0790  221.9960 H   0  0  0  0  0  0  0  0  0  0  0  0
  136.8740   76.8810  222.4410 C   0  0  0  0  0  0  0  0  0  0  0  0
  135.8615   76.4666  222.3261 H   0  0  0  0  0  0  0  0  0  0  0  0
  137.0430   78.2320  222.7810 C   0  0  0  0  0  0  0  0  0  0  0  0
  135.9290   79.1360  222.8140 N   0  0  0  0  0  0  0  0  0  0  0  0
  134.9660   79.1030  221.7090 C   0  0  0  0  0  0  0  0  0  0  0  0
  133.9440   79.0680  222.1143 H   0  0  0  0  0  0  0  0  0  0  0  0
  135.0850   80.0057  221.0918 H   0  0  0  0  0  0  0  0  0  0  0  0
  135.1465   78.2105  221.0918 H   0  0  0  0  0  0  0  0  0  0  0  0
  1  2  1  0
  2  3  1  0
  3  4  2  0
  4  5  1  0
  4  6  1  0
  6  7  1  0
  6  8  1  0
  6  9  1  0
  9 10  1  0
 10 11  2  0
 11 12  1  0
 11 13  1  0
 13 14  1  0
 13 15  2  0
 15 16  1  0
 15 17  1  0
 17 18  1  0
 17 19  2  0
 19 20  1  0
  9 21  1  0
 21 22  2  0
 22 23  1  0
 23 24  2  0
 24 25  1  0
 25 26  2  0
 26 27  1  0
 26 28  1  0
 28 29  1  0
 28 30  2  0
 30 31  1  0
 30 32  1  0
 32 33  1  0
 33 34  2  0
 33 35  1  0
 35 36  1  6
 35 37  1  0
 37 38  1  0
 37 39  1  0
 37 40  1  0
 40 41  1  0
 40 42  1  0
 40 43  1  0
 43 44  1  6
 43 45  1  0
 45 46  1  0
 46 47  1  0
 46 48  1  0
 46 49  1  0
 49 50  1  0
 49 51  1  0
 49 52  1  0
 43 53  1  0
 53 54  1  0
 53 55  1  0
 53 56  1  0
 56 57  1  0
 56 58  1  0
 32 59  2  0
 59 60  1  0
 23 61  1  0
 61 62  1  0
 61 63  1  0
 63 64  1  0
 63 65  2  0
 65 66  1  0
 66 67  1  0
 67 68  1  0
 67 69  1  0
 67 70  1  0
 66  3  1  0
 19 10  1  0
 65 21  1  0
 59 25  1  0
 56 35  1  0
M  CHG  1  35   1
M  END
>  <UniqueID>  (43) 
23

>  <SMILES>  (43) 
CCOC1CC[NH+](C(=O)c2cccc(/N=c3\nc4c(c[nH]3)N(C)C(O)=CCN4c3ccccc3)c2)CC1

>  <Energy>  (43) 
112.19393791108931

>  <Genealogy>  (43) 
CCOC1CC[NH+](C(=O)c2cccc(N=c3nc4c(c[nH]3)N(C)C(=O)CCN4c3ccccc3)c2)CC1 (protonated)
CCOC1CC[NH+](C(=O)c2cccc(N=c3nc4c(c[nH]3)N(C)C(O)=CCN4c3ccccc3)c2)CC1 (tautomer)
CCOC1CC[NH+](C(=O)c2cccc(/N=c3\nc4c(c[nH]3)N(C)C(O)=CCN4c3ccccc3)c2)CC1 (cis-trans isomerization)
CCOC1CC[NH+](C(=O)c2cccc(/N=c3\nc4c(c[nH]3)N(C)C(O)=CCN4c3ccccc3)c2)CC1 (3D coordinates assigned)
CCOC1CC[NH+](C(=O)c2cccc(/N=c3\nc4c(c[nH]3)N(C)C(O)=CCN4c3ccccc3)c2)CC1 (nonaromatic ring conformer: 112.19393791108931 kcal/mol)

>  <smiles>  (43) 
CCOC1CCN(C(=O)c2cccc(N=c3nc4c(c[nH]3)N(C)C(=O)CCN4c3ccccc3)c2)CC1

>  <score_type>  (43) 
oracle

>  <origin>  (43) 
autodockgpu

>  <m_score__min__energy>  (43) 
-7.3200000000000003

>  <m_primary>  (43) 
energy

>  <meeko>  (43) 
{"free_energy": -4.37, "intermolecular_energy": -8.25, "internal_energy": -3.11, "cluster_size": 1, "cluster_id": 7, "rank_in_cluster": 1}

>  <energy>  (43) 
-6.57

>  <cluster_rmsd>  (43) 
1.41

>  <rmsd>  (43) 
271.89

>  <cluster>  (43) 
1

$$$$
FLYFIANCBVDDDY-IGPOTQGWNA-O
     RDKit          3D

 70 74  0  0  0  0  0  0  0  0999 V2000
  144.5360   76.2070  217.9390 H   0  0  0  0  0  0  0  0  0  0  0  0
  143.6970   75.7440  218.2650 O   0  0  0  0  0  0  0  0  0  0  0  0
  142.8080   76.3480  219.1570 C   0  0  0  0  0  0  0  0  0  0  0  0
  142.3990   77.5900  218.8510 C   0  0  0  0  0  0  0  0  0  0  0  0
  142.5568   77.8941  217.8057 H   0  0  0  0  0  0  0  0  0  0  0  0
  141.7540   78.6280  219.7360 C   0  0  0  0  0  0  0  0  0  0  0  0
  142.3774   79.5339  219.7108 H   0  0  0  0  0  0  0  0  0  0  0  0
  140.7406   78.7864  219.3385 H   0  0  0  0  0  0  0  0  0  0  0  0
  141.5890   78.2270  221.1370 N   0  0  0  0  0  0  0  0  0  0  0  0
  141.7900   79.1770  222.2030 C   0  0  0  0  0  0  0  0  0  0  0  0
  143.0830   79.5180  222.6430 C   0  0  0  0  0  0  0  0  0  0  0  0
  143.9585   79.0080  222.2148 H   0  0  0  0  0  0  0  0  0  0  0  0
  143.2610   80.5010  223.6210 C   0  0  0  0  0  0  0  0  0  0  0  0
  144.2742   80.7588  223.9630 H   0  0  0  0  0  0  0  0  0  0  0  0
  142.1520   81.1570  224.1650 C   0  0  0  0  0  0  0  0  0  0  0  0
  142.2932   81.9291  224.9357 H   0  0  0  0  0  0  0  0  0  0  0  0
  140.8660   80.8320  223.7300 C   0  0  0  0  0  0  0  0  0  0  0  0
  139.9948   81.3501  224.1573 H   0  0  0  0  0  0  0  0  0  0  0  0
  140.6830   79.8490  222.7520 C   0  0  0  0  0  0  0  0  0  0  0  0
  139.6675   79.6000  222.4102 H   0  0  0  0  0  0  0  0  0  0  0  0
  140.7610   77.0940  221.4100 C   0  0  0  0  0  0  0  0  0  0  0  0
  139.6360   77.2450  222.1550 N   0  0  0  0  0  0  0  0  0  0  0  0
  138.8310   76.1910  222.4540 C   0  0  0  0  0  0  0  0  0  0  0  0
  137.7580   76.3600  223.1740 N   0  0  0  0  0  0  0  0  0  0  0  0
  136.9050   77.5140  223.1050 C   0  0  0  0  0  0  0  0  0  0  0  0
  135.5080   77.3890  223.1660 C   0  0  0  0  0  0  0  0  0  0  0  0
  135.0505   76.3928  223.2567 H   0  0  0  0  0  0  0  0  0  0  0  0
  134.6980   78.5230  223.1120 C   0  0  0  0  0  0  0  0  0  0  0  0
  133.6041   78.4192  223.1632 H   0  0  0  0  0  0  0  0  0  0  0  0
  135.2730   79.7900  222.9930 C   0  0  0  0  0  0  0  0  0  0  0  0
  134.6279   80.6802  222.9559 H   0  0  0  0  0  0  0  0  0  0  0  0
  136.6730   79.9380  222.9200 C   0  0  0  0  0  0  0  0  0  0  0  0
  137.3180   81.2790  222.8350 C   0  0  0  0  0  0  0  0  0  0  0  0
  137.9510   81.6970  223.8460 O   0  0  0  0  0  0  0  0  0  0  0  0
  137.2100   82.1070  221.6390 N   0  0  2  0  0  0  0  0  0  0  0  0
  136.2540   82.5270  221.6450 H   0  0  0  0  0  0  0  0  0  0  0  0
  137.2940   81.3390  220.3680 C   0  0  0  0  0  0  0  0  0  0  0  0
  136.9368   81.9805  219.5489 H   0  0  0  0  0  0  0  0  0  0  0  0
  136.6747   80.4384  220.4918 H   0  0  0  0  0  0  0  0  0  0  0  0
  138.7240   80.8650  220.0300 C   0  0  0  0  0  0  0  0  0  0  0  0
  138.7256   80.4246  219.0220 H   0  0  0  0  0  0  0  0  0  0  0  0
  139.0281   80.1226  220.7825 H   0  0  0  0  0  0  0  0  0  0  0  0
  139.7270   82.0280  220.0680 C   0  0  2  0  0  0  0  0  0  0  0  0
  139.4974   82.7261  219.2495 H   0  0  0  0  0  0  0  0  0  0  0  0
  141.0470   81.5320  219.9190 O   0  0  0  0  0  0  0  0  0  0  0  0
  141.7660   82.2520  218.9360 C   0  0  0  0  0  0  0  0  0  0  0  0
  142.5068   82.8986  219.4292 H   0  0  0  0  0  0  0  0  0  0  0  0
  141.0612   82.8631  218.3531 H   0  0  0  0  0  0  0  0  0  0  0  0
  142.4840   81.2910  217.9960 C   0  0  0  0  0  0  0  0  0  0  0  0
  143.0396   80.5474  218.5862 H   0  0  0  0  0  0  0  0  0  0  0  0
  141.7458   80.7784  217.3617 H   0  0  0  0  0  0  0  0  0  0  0  0
  143.1848   81.8536  217.3617 H   0  0  0  0  0  0  0  0  0  0  0  0
  139.6250   82.7380  221.4180 C   0  0  0  0  0  0  0  0  0  0  0  0
  140.3061   83.6017  221.4270 H   0  0  0  0  0  0  0  0  0  0  0  0
  139.9020   82.0339  222.2164 H   0  0  0  0  0  0  0  0  0  0  0  0
  138.1870   83.2230  221.6530 C   0  0  0  0  0  0  0  0  0  0  0  0
  137.9201   83.9374  220.8603 H   0  0  0  0  0  0  0  0  0  0  0  0
  138.1475   83.6940  222.6463 H   0  0  0  0  0  0  0  0  0  0  0  0
  137.4780   78.7820  222.9500 C   0  0  0  0  0  0  0  0  0  0  0  0
  138.5694   78.8769  222.8505 H   0  0  0  0  0  0  0  0  0  0  0  0
  139.1400   74.9550  221.9750 N   0  0  0  0  0  0  0  0  0  0  0  0
  138.5230   74.1380  222.1900 H   0  0  0  0  0  0  0  0  0  0  0  0
  140.2720   74.7550  221.2480 C   0  0  0  0  0  0  0  0  0  0  0  0
  140.5238   73.7450  220.8924 H   0  0  0  0  0  0  0  0  0  0  0  0
  141.1200   75.8330  220.9500 C   0  0  0  0  0  0  0  0  0  0  0  0
  142.4020   75.6270  220.3400 N   0  0  0  0  0  0  0  0  0  0  0  0
  143.2450   74.5330  220.8320 C   0  0  0  0  0  0  0  0  0  0  0  0
  143.2434   74.5351  221.9320 H   0  0  0  0  0  0  0  0  0  0  0  0
  142.8506   73.5734  220.4666 H   0  0  0  0  0  0  0  0  0  0  0  0
  144.2735   74.6698  220.4666 H   0  0  0  0  0  0  0  0  0  0  0  0
  1  2  1  0
  2  3  1  0
  3  4  2  0
  4  5  1  0
  4  6  1  0
  6  7  1  0
  6  8  1  0
  6  9  1  0
  9 10  1  0
 10 11  2  0
 11 12  1  0
 11 13  1  0
 13 14  1  0
 13 15  2  0
 15 16  1  0
 15 17  1  0
 17 18  1  0
 17 19  2  0
 19 20  1  0
  9 21  1  0
 21 22  2  0
 22 23  1  0
 23 24  2  0
 24 25  1  0
 25 26  2  0
 26 27  1  0
 26 28  1  0
 28 29  1  0
 28 30  2  0
 30 31  1  0
 30 32  1  0
 32 33  1  0
 33 34  2  0
 33 35  1  0
 35 36  1  1
 35 37  1  0
 37 38  1  0
 37 39  1  0
 37 40  1  0
 40 41  1  0
 40 42  1  0
 40 43  1  0
 43 44  1  6
 43 45  1  0
 45 46  1  0
 46 47  1  0
 46 48  1  0
 46 49  1  0
 49 50  1  0
 49 51  1  0
 49 52  1  0
 43 53  1  0
 53 54  1  0
 53 55  1  0
 53 56  1  0
 56 57  1  0
 56 58  1  0
 32 59  2  0
 59 60  1  0
 23 61  1  0
 61 62  1  0
 61 63  1  0
 63 64  1  0
 63 65  2  0
 65 66  1  0
 66 67  1  0
 67 68  1  0
 67 69  1  0
 67 70  1  0
 66  3  1  0
 19 10  1  0
 65 21  1  0
 59 25  1  0
 56 35  1  0
M  CHG  1  35   1
M  END
>  <UniqueID>  (44) 
23

>  <SMILES>  (44) 
CCOC1CC[NH+](C(=O)c2cccc(/N=c3\nc4c(c[nH]3)N(C)C(O)=CCN4c3ccccc3)c2)CC1

>  <Energy>  (44) 
112.19393791108931

>  <Genealogy>  (44) 
CCOC1CC[NH+](C(=O)c2cccc(N=c3nc4c(c[nH]3)N(C)C(=O)CCN4c3ccccc3)c2)CC1 (protonated)
CCOC1CC[NH+](C(=O)c2cccc(N=c3nc4c(c[nH]3)N(C)C(O)=CCN4c3ccccc3)c2)CC1 (tautomer)
CCOC1CC[NH+](C(=O)c2cccc(/N=c3\nc4c(c[nH]3)N(C)C(O)=CCN4c3ccccc3)c2)CC1 (cis-trans isomerization)
CCOC1CC[NH+](C(=O)c2cccc(/N=c3\nc4c(c[nH]3)N(C)C(O)=CCN4c3ccccc3)c2)CC1 (3D coordinates assigned)
CCOC1CC[NH+](C(=O)c2cccc(/N=c3\nc4c(c[nH]3)N(C)C(O)=CCN4c3ccccc3)c2)CC1 (nonaromatic ring conformer: 112.19393791108931 kcal/mol)

>  <smiles>  (44) 
CCOC1CCN(C(=O)c2cccc(N=c3nc4c(c[nH]3)N(C)C(=O)CCN4c3ccccc3)c2)CC1

>  <score_type>  (44) 
oracle

>  <origin>  (44) 
autodockgpu

>  <m_score__min__energy>  (44) 
-7.3200000000000003

>  <m_primary>  (44) 
energy

>  <meeko>  (44) 
{"free_energy": -4.37, "intermolecular_energy": -8.25, "internal_energy": -3.08, "cluster_size": 2, "cluster_id": 8, "rank_in_cluster": 1}

>  <energy>  (44) 
-6.1

>  <cluster_rmsd>  (44) 
1.97

>  <rmsd>  (44) 
271.37

>  <cluster>  (44) 
1

$$$$
FLYFIANCBVDDDY-IGPOTQGWNA-O
     RDKit          3D

 70 74  0  0  0  0  0  0  0  0999 V2000
  144.3970   70.4860  221.4660 H   0  0  0  0  0  0  0  0  0  0  0  0
  143.8970   70.8570  220.6690 O   0  0  0  0  0  0  0  0  0  0  0  0
  143.5800   72.2120  220.5500 C   0  0  0  0  0  0  0  0  0  0  0  0
  144.5690   73.0890  220.8000 C   0  0  0  0  0  0  0  0  0  0  0  0
  145.4190   72.6890  221.3723 H   0  0  0  0  0  0  0  0  0  0  0  0
  144.6810   74.5420  220.4090 C   0  0  0  0  0  0  0  0  0  0  0  0
  144.9608   75.1164  221.3044 H   0  0  0  0  0  0  0  0  0  0  0  0
  145.4344   74.5895  219.6089 H   0  0  0  0  0  0  0  0  0  0  0  0
  143.4550   75.1280  219.8560 N   0  0  0  0  0  0  0  0  0  0  0  0
  143.3210   75.3480  218.4370 C   0  0  0  0  0  0  0  0  0  0  0  0
  143.2820   76.6490  217.9020 C   0  0  0  0  0  0  0  0  0  0  0  0
  143.2893   77.5181  218.5762 H   0  0  0  0  0  0  0  0  0  0  0  0
  143.2340   76.8430  216.5180 C   0  0  0  0  0  0  0  0  0  0  0  0
  143.2001   77.8627  216.1068 H   0  0  0  0  0  0  0  0  0  0  0  0
  143.2290   75.7410  215.6560 C   0  0  0  0  0  0  0  0  0  0  0  0
  143.1888   75.8944  214.5675 H   0  0  0  0  0  0  0  0  0  0  0  0
  143.2750   74.4470  216.1770 C   0  0  0  0  0  0  0  0  0  0  0  0
  143.2727   73.5814  215.4982 H   0  0  0  0  0  0  0  0  0  0  0  0
  143.3240   74.2490  217.5600 C   0  0  0  0  0  0  0  0  0  0  0  0
  143.3652   73.2270  217.9647 H   0  0  0  0  0  0  0  0  0  0  0  0
  142.2550   74.9990  220.6210 C   0  0  0  0  0  0  0  0  0  0  0  0
  141.7600   76.0740  221.2860 N   0  0  0  0  0  0  0  0  0  0  0  0
  140.6320   75.9910  222.0400 C   0  0  0  0  0  0  0  0  0  0  0  0
  140.1780   77.0360  222.6720 N   0  0  0  0  0  0  0  0  0  0  0  0
  140.8340   78.3140  222.7070 C   0  0  0  0  0  0  0  0  0  0  0  0
  141.8520   78.5820  223.6360 C   0  0  0  0  0  0  0  0  0  0  0  0
  142.1509   77.8099  224.3602 H   0  0  0  0  0  0  0  0  0  0  0  0
  142.4850   79.8240  223.6430 C   0  0  0  0  0  0  0  0  0  0  0  0
  143.2841   80.0279  224.3709 H   0  0  0  0  0  0  0  0  0  0  0  0
  142.1080   80.8100  222.7290 C   0  0  0  0  0  0  0  0  0  0  0  0
  142.6157   81.7858  222.7387 H   0  0  0  0  0  0  0  0  0  0  0  0
  141.0820   80.5650  221.7940 C   0  0  0  0  0  0  0  0  0  0  0  0
  140.6850   81.5810  220.7790 C   0  0  0  0  0  0  0  0  0  0  0  0
  139.7400   82.3700  221.0670 O   0  0  0  0  0  0  0  0  0  0  0  0
  141.3380   81.6610  219.4770 N   0  0  2  0  0  0  0  0  0  0  0  0
  141.8910   82.5470  219.4680 H   0  0  0  0  0  0  0  0  0  0  0  0
  140.3900   81.7790  218.3370 C   0  0  0  0  0  0  0  0  0  0  0  0
  140.9516   82.1044  217.4489 H   0  0  0  0  0  0  0  0  0  0  0  0
  139.6183   82.5058  218.6305 H   0  0  0  0  0  0  0  0  0  0  0  0
  139.6660   80.4560  218.0010 C   0  0  0  0  0  0  0  0  0  0  0  0
  139.0897   80.5897  217.0737 H   0  0  0  0  0  0  0  0  0  0  0  0
  139.0031   80.2027  218.8415 H   0  0  0  0  0  0  0  0  0  0  0  0
  140.6610   79.3020  217.8080 C   0  0  2  0  0  0  0  0  0  0  0  0
  141.2594   79.4920  216.9048 H   0  0  0  0  0  0  0  0  0  0  0  0
  139.9590   78.0780  217.6690 O   0  0  0  0  0  0  0  0  0  0  0  0
  139.9830   77.3250  218.8650 C   0  0  0  0  0  0  0  0  0  0  0  0
  139.2191   77.7144  219.5541 H   0  0  0  0  0  0  0  0  0  0  0  0
  140.9806   77.4097  219.3207 H   0  0  0  0  0  0  0  0  0  0  0  0
  139.6950   75.8570  218.5730 C   0  0  0  0  0  0  0  0  0  0  0  0
  139.5875   75.3089  219.5206 H   0  0  0  0  0  0  0  0  0  0  0  0
  138.7635   75.7742  217.9938 H   0  0  0  0  0  0  0  0  0  0  0  0
  140.5262   75.4284  217.9938 H   0  0  0  0  0  0  0  0  0  0  0  0
  141.5670   79.2060  219.0360 C   0  0  0  0  0  0  0  0  0  0  0  0
  142.3132   78.4138  218.8760 H   0  0  0  0  0  0  0  0  0  0  0  0
  140.9528   78.9708  219.9177 H   0  0  0  0  0  0  0  0  0  0  0  0
  142.2870   80.5410  219.2690 C   0  0  0  0  0  0  0  0  0  0  0  0
  142.9116   80.7644  218.3915 H   0  0  0  0  0  0  0  0  0  0  0  0
  142.8962   80.4414  220.1795 H   0  0  0  0  0  0  0  0  0  0  0  0
  140.4320   79.3150  221.8150 C   0  0  0  0  0  0  0  0  0  0  0  0
  139.5991   79.1236  221.1224 H   0  0  0  0  0  0  0  0  0  0  0  0
  139.9620   74.8080  222.1140 N   0  0  0  0  0  0  0  0  0  0  0  0
  139.0880   74.7330  222.6820 H   0  0  0  0  0  0  0  0  0  0  0  0
  140.4380   73.6990  221.4850 C   0  0  0  0  0  0  0  0  0  0  0  0
  139.9005   72.7436  221.5760 H   0  0  0  0  0  0  0  0  0  0  0  0
  141.6120   73.7710  220.7210 C   0  0  0  0  0  0  0  0  0  0  0  0
  142.2320   72.5890  220.1940 N   0  0  0  0  0  0  0  0  0  0  0  0
  141.5400   71.8450  219.1360 C   0  0  0  0  0  0  0  0  0  0  0  0
  140.8576   71.1113  219.5899 H   0  0  0  0  0  0  0  0  0  0  0  0
  140.9641   72.5446  218.5124 H   0  0  0  0  0  0  0  0  0  0  0  0
  142.2794   71.3212  218.5124 H   0  0  0  0  0  0  0  0  0  0  0  0
  1  2  1  0
  2  3  1  0
  3  4  2  0
  4  5  1  0
  4  6  1  0
  6  7  1  0
  6  8  1  0
  6  9  1  0
  9 10  1  0
 10 11  2  0
 11 12  1  0
 11 13  1  0
 13 14  1  0
 13 15  2  0
 15 16  1  0
 15 17  1  0
 17 18  1  0
 17 19  2  0
 19 20  1  0
  9 21  1  0
 21 22  2  0
 22 23  1  0
 23 24  2  0
 24 25  1  0
 25 26  2  0
 26 27  1  0
 26 28  1  0
 28 29  1  0
 28 30  2  0
 30 31  1  0
 30 32  1  0
 32 33  1  0
 33 34  2  0
 33 35  1  0
 35 36  1  1
 35 37  1  0
 37 38  1  0
 37 39  1  0
 37 40  1  0
 40 41  1  0
 40 42  1  0
 40 43  1  0
 43 44  1  6
 43 45  1  0
 45 46  1  0
 46 47  1  0
 46 48  1  0
 46 49  1  0
 49 50  1  0
 49 51  1  0
 49 52  1  0
 43 53  1  0
 53 54  1  0
 53 55  1  0
 53 56  1  0
 56 57  1  0
 56 58  1  0
 32 59  2  0
 59 60  1  0
 23 61  1  0
 61 62  1  0
 61 63  1  0
 63 64  1  0
 63 65  2  0
 65 66  1  0
 66 67  1  0
 67 68  1  0
 67 69  1  0
 67 70  1  0
 66  3  1  0
 19 10  1  0
 65 21  1  0
 59 25  1  0
 56 35  1  0
M  CHG  1  35   1
M  END
>  <UniqueID>  (45) 
23

>  <SMILES>  (45) 
CCOC1CC[NH+](C(=O)c2cccc(/N=c3\nc4c(c[nH]3)N(C)C(O)=CCN4c3ccccc3)c2)CC1

>  <Energy>  (45) 
112.19393791108931

>  <Genealogy>  (45) 
CCOC1CC[NH+](C(=O)c2cccc(N=c3nc4c(c[nH]3)N(C)C(=O)CCN4c3ccccc3)c2)CC1 (protonated)
CCOC1CC[NH+](C(=O)c2cccc(N=c3nc4c(c[nH]3)N(C)C(O)=CCN4c3ccccc3)c2)CC1 (tautomer)
CCOC1CC[NH+](C(=O)c2cccc(/N=c3\nc4c(c[nH]3)N(C)C(O)=CCN4c3ccccc3)c2)CC1 (cis-trans isomerization)
CCOC1CC[NH+](C(=O)c2cccc(/N=c3\nc4c(c[nH]3)N(C)C(O)=CCN4c3ccccc3)c2)CC1 (3D coordinates assigned)
CCOC1CC[NH+](C(=O)c2cccc(/N=c3\nc4c(c[nH]3)N(C)C(O)=CCN4c3ccccc3)c2)CC1 (nonaromatic ring conformer: 112.19393791108931 kcal/mol)

>  <smiles>  (45) 
CCOC1CCN(C(=O)c2cccc(N=c3nc4c(c[nH]3)N(C)C(=O)CCN4c3ccccc3)c2)CC1

>  <score_type>  (45) 
oracle

>  <origin>  (45) 
autodockgpu

>  <m_score__min__energy>  (45) 
-7.3200000000000003

>  <m_primary>  (45) 
energy

>  <meeko>  (45) 
{"free_energy": -4.54, "intermolecular_energy": -8.42, "internal_energy": -3.16, "cluster_size": 4, "cluster_id": 6, "rank_in_cluster": 1}

>  <energy>  (45) 
-5.72

>  <cluster_rmsd>  (45) 
0.0

>  <rmsd>  (45) 
271.49

>  <cluster>  (45) 
2

$$$$
FLYFIANCBVDDDY-IGPOTQGWNA-O
     RDKit          3D

 70 74  0  0  0  0  0  0  0  0999 V2000
  144.3790   70.9850  221.7690 H   0  0  0  0  0  0  0  0  0  0  0  0
  143.7180   71.1540  221.0220 O   0  0  0  0  0  0  0  0  0  0  0  0
  143.4180   72.4400  220.5670 C   0  0  0  0  0  0  0  0  0  0  0  0
  144.4420   73.3090  220.4920 C   0  0  0  0  0  0  0  0  0  0  0  0
  145.4444   72.8623  220.5677 H   0  0  0  0  0  0  0  0  0  0  0  0
  144.4150   74.8080  220.3190 C   0  0  0  0  0  0  0  0  0  0  0  0
  144.6112   75.2689  221.2983 H   0  0  0  0  0  0  0  0  0  0  0  0
  145.1802   75.0462  219.5655 H   0  0  0  0  0  0  0  0  0  0  0  0
  143.1510   75.3460  219.8070 N   0  0  0  0  0  0  0  0  0  0  0  0
  142.9580   75.5520  218.3920 C   0  0  0  0  0  0  0  0  0  0  0  0
  142.3370   74.5760  217.5910 C   0  0  0  0  0  0  0  0  0  0  0  0
  142.0479   73.6104  218.0315 H   0  0  0  0  0  0  0  0  0  0  0  0
  142.0850   74.8260  216.2380 C   0  0  0  0  0  0  0  0  0  0  0  0
  141.6021   74.0569  215.6173 H   0  0  0  0  0  0  0  0  0  0  0  0
  142.4470   76.0540  215.6740 C   0  0  0  0  0  0  0  0  0  0  0  0
  142.2510   76.2491  214.6093 H   0  0  0  0  0  0  0  0  0  0  0  0
  143.0570   77.0320  216.4620 C   0  0  0  0  0  0  0  0  0  0  0  0
  143.3391   77.9979  216.0176 H   0  0  0  0  0  0  0  0  0  0  0  0
  143.3100   76.7860  217.8150 C   0  0  0  0  0  0  0  0  0  0  0  0
  143.7870   77.5618  218.4319 H   0  0  0  0  0  0  0  0  0  0  0  0
  141.9830   75.1810  220.6140 C   0  0  0  0  0  0  0  0  0  0  0  0
  141.4640   76.2460  221.2760 N   0  0  0  0  0  0  0  0  0  0  0  0
  140.3670   76.1290  222.0700 C   0  0  0  0  0  0  0  0  0  0  0  0
  139.8900   77.1660  222.6990 N   0  0  0  0  0  0  0  0  0  0  0  0
  140.5570   78.4350  222.7990 C   0  0  0  0  0  0  0  0  0  0  0  0
  141.5600   78.6540  223.7560 C   0  0  0  0  0  0  0  0  0  0  0  0
  141.8382   77.8493  224.4524 H   0  0  0  0  0  0  0  0  0  0  0  0
  142.2050   79.8880  223.8270 C   0  0  0  0  0  0  0  0  0  0  0  0
  142.9929   80.0529  224.5767 H   0  0  0  0  0  0  0  0  0  0  0  0
  141.8530   80.9160  222.9480 C   0  0  0  0  0  0  0  0  0  0  0  0
  142.3694   81.8854  223.0072 H   0  0  0  0  0  0  0  0  0  0  0  0
  140.8410   80.7200  221.9860 C   0  0  0  0  0  0  0  0  0  0  0  0
  140.4720   81.7820  221.0080 C   0  0  0  0  0  0  0  0  0  0  0  0
  139.4940   82.5330  221.2890 O   0  0  0  0  0  0  0  0  0  0  0  0
  141.1890   81.9480  219.7490 N   0  0  2  0  0  0  0  0  0  0  0  0
  141.7020   82.8550  219.8080 H   0  0  0  0  0  0  0  0  0  0  0  0
  140.2980   82.0790  218.5650 C   0  0  0  0  0  0  0  0  0  0  0  0
  140.8911   82.4668  217.7237 H   0  0  0  0  0  0  0  0  0  0  0  0
  139.4814   82.7597  218.8474 H   0  0  0  0  0  0  0  0  0  0  0  0
  139.6500   80.7450  218.1330 C   0  0  0  0  0  0  0  0  0  0  0  0
  139.1178   80.8977  217.1825 H   0  0  0  0  0  0  0  0  0  0  0  0
  138.9556   80.4269  218.9246 H   0  0  0  0  0  0  0  0  0  0  0  0
  140.7020   79.6420  217.9440 C   0  0  2  0  0  0  0  0  0  0  0  0
  141.3377   79.8971  217.0833 H   0  0  0  0  0  0  0  0  0  0  0  0
  140.0620   78.3980  217.7140 O   0  0  0  0  0  0  0  0  0  0  0  0
  139.7560   77.7370  218.9260 C   0  0  0  0  0  0  0  0  0  0  0  0
  138.9096   78.2443  219.4121 H   0  0  0  0  0  0  0  0  0  0  0  0
  140.6393   77.7647  219.5810 H   0  0  0  0  0  0  0  0  0  0  0  0
  139.3840   76.2840  218.6580 C   0  0  0  0  0  0  0  0  0  0  0  0
  139.2492   75.7576  219.6144 H   0  0  0  0  0  0  0  0  0  0  0  0
  138.4470   76.2454  218.0830 H   0  0  0  0  0  0  0  0  0  0  0  0
  140.1872   75.7999  218.0830 H   0  0  0  0  0  0  0  0  0  0  0  0
  141.5460   79.5270  219.2140 C   0  0  0  0  0  0  0  0  0  0  0  0
  142.3328   78.7737  219.0605 H   0  0  0  0  0  0  0  0  0  0  0  0
  140.8972   79.2273  220.0502 H   0  0  0  0  0  0  0  0  0  0  0  0
  142.1950   80.8780  219.5430 C   0  0  0  0  0  0  0  0  0  0  0  0
  142.8536   81.1666  218.7105 H   0  0  0  0  0  0  0  0  0  0  0  0
  142.7604   80.7616  220.4793 H   0  0  0  0  0  0  0  0  0  0  0  0
  140.1800   79.4770  221.9430 C   0  0  0  0  0  0  0  0  0  0  0  0
  139.3579   79.3230  221.2285 H   0  0  0  0  0  0  0  0  0  0  0  0
  139.7520   74.9210  222.1880 N   0  0  0  0  0  0  0  0  0  0  0  0
  138.9010   74.8200  222.7880 H   0  0  0  0  0  0  0  0  0  0  0  0
  140.2550   73.8210  221.5640 C   0  0  0  0  0  0  0  0  0  0  0  0
  139.7641   72.8450  221.6920 H   0  0  0  0  0  0  0  0  0  0  0  0
  141.3980   73.9290  220.7580 C   0  0  0  0  0  0  0  0  0  0  0  0
  142.0510   72.7640  220.2310 N   0  0  0  0  0  0  0  0  0  0  0  0
  141.3680   71.9860  219.1940 C   0  0  0  0  0  0  0  0  0  0  0  0
  140.7129   71.2398  219.6672 H   0  0  0  0  0  0  0  0  0  0  0  0
  140.7642   72.6596  218.5681 H   0  0  0  0  0  0  0  0  0  0  0  0
  142.1141   71.4746  218.5681 H   0  0  0  0  0  0  0  0  0  0  0  0
  1  2  1  0
  2  3  1  0
  3  4  2  0
  4  5  1  0
  4  6  1  0
  6  7  1  0
  6  8  1  0
  6  9  1  0
  9 10  1  0
 10 11  2  0
 11 12  1  0
 11 13  1  0
 13 14  1  0
 13 15  2  0
 15 16  1  0
 15 17  1  0
 17 18  1  0
 17 19  2  0
 19 20  1  0
  9 21  1  0
 21 22  2  0
 22 23  1  0
 23 24  2  0
 24 25  1  0
 25 26  2  0
 26 27  1  0
 26 28  1  0
 28 29  1  0
 28 30  2  0
 30 31  1  0
 30 32  1  0
 32 33  1  0
 33 34  2  0
 33 35  1  0
 35 36  1  1
 35 37  1  0
 37 38  1  0
 37 39  1  0
 37 40  1  0
 40 41  1  0
 40 42  1  0
 40 43  1  0
 43 44  1  6
 43 45  1  0
 45 46  1  0
 46 47  1  0
 46 48  1  0
 46 49  1  0
 49 50  1  0
 49 51  1  0
 49 52  1  0
 43 53  1  0
 53 54  1  0
 53 55  1  0
 53 56  1  0
 56 57  1  0
 56 58  1  0
 32 59  2  0
 59 60  1  0
 23 61  1  0
 61 62  1  0
 61 63  1  0
 63 64  1  0
 63 65  2  0
 65 66  1  0
 66 67  1  0
 67 68  1  0
 67 69  1  0
 67 70  1  0
 66  3  1  0
 19 10  1  0
 65 21  1  0
 59 25  1  0
 56 35  1  0
M  CHG  1  35   1
M  END
>  <UniqueID>  (46) 
23

>  <SMILES>  (46) 
CCOC1CC[NH+](C(=O)c2cccc(/N=c3\nc4c(c[nH]3)N(C)C(O)=CCN4c3ccccc3)c2)CC1

>  <Energy>  (46) 
112.19393791108931

>  <Genealogy>  (46) 
CCOC1CC[NH+](C(=O)c2cccc(N=c3nc4c(c[nH]3)N(C)C(=O)CCN4c3ccccc3)c2)CC1 (protonated)
CCOC1CC[NH+](C(=O)c2cccc(N=c3nc4c(c[nH]3)N(C)C(O)=CCN4c3ccccc3)c2)CC1 (tautomer)
CCOC1CC[NH+](C(=O)c2cccc(/N=c3\nc4c(c[nH]3)N(C)C(O)=CCN4c3ccccc3)c2)CC1 (cis-trans isomerization)
CCOC1CC[NH+](C(=O)c2cccc(/N=c3\nc4c(c[nH]3)N(C)C(O)=CCN4c3ccccc3)c2)CC1 (3D coordinates assigned)
CCOC1CC[NH+](C(=O)c2cccc(/N=c3\nc4c(c[nH]3)N(C)C(O)=CCN4c3ccccc3)c2)CC1 (nonaromatic ring conformer: 112.19393791108931 kcal/mol)

>  <smiles>  (46) 
CCOC1CCN(C(=O)c2cccc(N=c3nc4c(c[nH]3)N(C)C(=O)CCN4c3ccccc3)c2)CC1

>  <score_type>  (46) 
oracle

>  <origin>  (46) 
autodockgpu

>  <m_score__min__energy>  (46) 
-7.3200000000000003

>  <m_primary>  (46) 
energy

>  <meeko>  (46) 
{"free_energy": -4.47, "intermolecular_energy": -8.35, "internal_energy": -3.24, "cluster_size": 4, "cluster_id": 6, "rank_in_cluster": 3}

>  <energy>  (46) 
-5.23

>  <cluster_rmsd>  (46) 
0.0

>  <rmsd>  (46) 
271.48

>  <cluster>  (46) 
3

$$$$
FLYFIANCBVDDDY-IGPOTQGWNA-O
     RDKit          3D

 70 74  0  0  0  0  0  0  0  0999 V2000
  136.8270   79.8010  218.3030 H   0  0  0  0  0  0  0  0  0  0  0  0
  137.0820   79.9380  219.2730 O   0  0  0  0  0  0  0  0  0  0  0  0
  138.1600   79.2750  219.8620 C   0  0  0  0  0  0  0  0  0  0  0  0
  139.2630   79.1230  219.1080 C   0  0  0  0  0  0  0  0  0  0  0  0
  139.1108   79.2360  218.0245 H   0  0  0  0  0  0  0  0  0  0  0  0
  140.6790   78.8200  219.5320 C   0  0  0  0  0  0  0  0  0  0  0  0
  141.0524   77.9922  218.9112 H   0  0  0  0  0  0  0  0  0  0  0  0
  141.2480   79.7521  219.4002 H   0  0  0  0  0  0  0  0  0  0  0  0
  140.8310   78.4390  220.9400 N   0  0  0  0  0  0  0  0  0  0  0  0
  141.3520   79.3770  221.9040 C   0  0  0  0  0  0  0  0  0  0  0  0
  141.3580   80.7610  221.6460 C   0  0  0  0  0  0  0  0  0  0  0  0
  141.0209   81.1365  220.6686 H   0  0  0  0  0  0  0  0  0  0  0  0
  141.7900   81.6610  222.6250 C   0  0  0  0  0  0  0  0  0  0  0  0
  141.7948   82.7408  222.4153 H   0  0  0  0  0  0  0  0  0  0  0  0
  142.2160   81.1890  223.8710 C   0  0  0  0  0  0  0  0  0  0  0  0
  142.5582   81.8975  224.6398 H   0  0  0  0  0  0  0  0  0  0  0  0
  142.2070   79.8190  224.1390 C   0  0  0  0  0  0  0  0  0  0  0  0
  142.5414   79.4494  225.1196 H   0  0  0  0  0  0  0  0  0  0  0  0
  141.7740   78.9160  223.1640 C   0  0  0  0  0  0  0  0  0  0  0  0
  141.7632   77.8382  223.3834 H   0  0  0  0  0  0  0  0  0  0  0  0
  140.0160   77.3720  221.4300 C   0  0  0  0  0  0  0  0  0  0  0  0
  140.5670   76.1520  221.6570 N   0  0  0  0  0  0  0  0  0  0  0  0
  139.8240   75.1050  222.1050 C   0  0  0  0  0  0  0  0  0  0  0  0
  140.3750   73.9420  222.3120 N   0  0  0  0  0  0  0  0  0  0  0  0
  141.1770   73.2390  221.3490 C   0  0  0  0  0  0  0  0  0  0  0  0
  140.8640   71.9260  220.9640 C   0  0  0  0  0  0  0  0  0  0  0  0
  139.9982   71.4153  221.4108 H   0  0  0  0  0  0  0  0  0  0  0  0
  141.6470   71.2670  220.0170 C   0  0  0  0  0  0  0  0  0  0  0  0
  141.3952   70.2393  219.7165 H   0  0  0  0  0  0  0  0  0  0  0  0
  142.7500   71.9080  219.4490 C   0  0  0  0  0  0  0  0  0  0  0  0
  143.3599   71.3828  218.6992 H   0  0  0  0  0  0  0  0  0  0  0  0
  143.0880   73.2230  219.8290 C   0  0  0  0  0  0  0  0  0  0  0  0
  144.2330   73.9490  219.2100 C   0  0  0  0  0  0  0  0  0  0  0  0
  145.3880   73.7460  219.6830 O   0  0  0  0  0  0  0  0  0  0  0  0
  144.0430   74.8880  218.1110 N   0  0  2  0  0  0  0  0  0  0  0  0
  144.9880   75.2490  217.8510 H   0  0  0  0  0  0  0  0  0  0  0  0
  143.2520   76.0920  218.4810 C   0  0  0  0  0  0  0  0  0  0  0  0
  143.3885   76.8526  217.6982 H   0  0  0  0  0  0  0  0  0  0  0  0
  143.6187   76.4321  219.4608 H   0  0  0  0  0  0  0  0  0  0  0  0
  141.7400   75.8120  218.6330 C   0  0  0  0  0  0  0  0  0  0  0  0
  141.2122   76.7666  218.7752 H   0  0  0  0  0  0  0  0  0  0  0  0
  141.5967   75.1522  219.5014 H   0  0  0  0  0  0  0  0  0  0  0  0
  141.1710   75.1070  217.3930 C   0  0  2  0  0  0  0  0  0  0  0  0
  141.2100   75.7979  216.5379 H   0  0  0  0  0  0  0  0  0  0  0  0
  139.8290   74.7170  217.6340 O   0  0  0  0  0  0  0  0  0  0  0  0
  139.2550   75.4550  218.6950 C   0  0  0  0  0  0  0  0  0  0  0  0
  139.0504   76.4807  218.3544 H   0  0  0  0  0  0  0  0  0  0  0  0
  139.9584   75.4718  219.5406 H   0  0  0  0  0  0  0  0  0  0  0  0
  137.9520   74.8060  219.1470 C   0  0  0  0  0  0  0  0  0  0  0  0
  137.9138   74.7870  220.2462 H   0  0  0  0  0  0  0  0  0  0  0  0
  137.1005   75.3853  218.7605 H   0  0  0  0  0  0  0  0  0  0  0  0
  137.9013   73.7774  218.7605 H   0  0  0  0  0  0  0  0  0  0  0  0
  141.9960   73.8540  217.1020 C   0  0  0  0  0  0  0  0  0  0  0  0
  141.6209   73.3768  216.1846 H   0  0  0  0  0  0  0  0  0  0  0  0
  141.9057   73.1595  217.9502 H   0  0  0  0  0  0  0  0  0  0  0  0
  143.4740   74.2250  216.9130 C   0  0  0  0  0  0  0  0  0  0  0  0
  143.5608   74.9082  216.0553 H   0  0  0  0  0  0  0  0  0  0  0  0
  144.0364   73.2951  216.7428 H   0  0  0  0  0  0  0  0  0  0  0  0
  142.3030   73.8680  220.8050 C   0  0  0  0  0  0  0  0  0  0  0  0
  142.5782   74.8778  221.1435 H   0  0  0  0  0  0  0  0  0  0  0  0
  138.4990   75.2850  222.3600 N   0  0  0  0  0  0  0  0  0  0  0  0
  137.9190   74.4900  222.7140 H   0  0  0  0  0  0  0  0  0  0  0  0
  137.9020   76.4830  222.1200 C   0  0  0  0  0  0  0  0  0  0  0  0
  136.8243   76.6052  222.3033 H   0  0  0  0  0  0  0  0  0  0  0  0
  138.6570   77.5640  221.6390 C   0  0  0  0  0  0  0  0  0  0  0  0
  138.0270   78.7810  221.2130 N   0  0  0  0  0  0  0  0  0  0  0  0
  137.3810   79.6280  222.2210 C   0  0  0  0  0  0  0  0  0  0  0  0
  137.6518   79.2730  223.2263 H   0  0  0  0  0  0  0  0  0  0  0  0
  137.7175   80.6678  222.0964 H   0  0  0  0  0  0  0  0  0  0  0  0
  136.2892   79.5785  222.0964 H   0  0  0  0  0  0  0  0  0  0  0  0
  1  2  1  0
  2  3  1  0
  3  4  2  0
  4  5  1  0
  4  6  1  0
  6  7  1  0
  6  8  1  0
  6  9  1  0
  9 10  1  0
 10 11  2  0
 11 12  1  0
 11 13  1  0
 13 14  1  0
 13 15  2  0
 15 16  1  0
 15 17  1  0
 17 18  1  0
 17 19  2  0
 19 20  1  0
  9 21  1  0
 21 22  2  0
 22 23  1  0
 23 24  2  0
 24 25  1  0
 25 26  2  0
 26 27  1  0
 26 28  1  0
 28 29  1  0
 28 30  2  0
 30 31  1  0
 30 32  1  0
 32 33  1  0
 33 34  2  0
 33 35  1  0
 35 36  1  6
 35 37  1  0
 37 38  1  0
 37 39  1  0
 37 40  1  0
 40 41  1  0
 40 42  1  0
 40 43  1  0
 43 44  1  6
 43 45  1  0
 45 46  1  0
 46 47  1  0
 46 48  1  0
 46 49  1  0
 49 50  1  0
 49 51  1  0
 49 52  1  0
 43 53  1  0
 53 54  1  0
 53 55  1  0
 53 56  1  0
 56 57  1  0
 56 58  1  0
 32 59  2  0
 59 60  1  0
 23 61  1  0
 61 62  1  0
 61 63  1  0
 63 64  1  0
 63 65  2  0
 65 66  1  0
 66 67  1  0
 67 68  1  0
 67 69  1  0
 67 70  1  0
 66  3  1  0
 19 10  1  0
 65 21  1  0
 59 25  1  0
 56 35  1  0
M  CHG  1  35   1
M  END
>  <UniqueID>  (47) 
23

>  <SMILES>  (47) 
CCOC1CC[NH+](C(=O)c2cccc(/N=c3\nc4c(c[nH]3)N(C)C(O)=CCN4c3ccccc3)c2)CC1

>  <Energy>  (47) 
112.19393791108931

>  <Genealogy>  (47) 
CCOC1CC[NH+](C(=O)c2cccc(N=c3nc4c(c[nH]3)N(C)C(=O)CCN4c3ccccc3)c2)CC1 (protonated)
CCOC1CC[NH+](C(=O)c2cccc(N=c3nc4c(c[nH]3)N(C)C(O)=CCN4c3ccccc3)c2)CC1 (tautomer)
CCOC1CC[NH+](C(=O)c2cccc(/N=c3\nc4c(c[nH]3)N(C)C(O)=CCN4c3ccccc3)c2)CC1 (cis-trans isomerization)
CCOC1CC[NH+](C(=O)c2cccc(/N=c3\nc4c(c[nH]3)N(C)C(O)=CCN4c3ccccc3)c2)CC1 (3D coordinates assigned)
CCOC1CC[NH+](C(=O)c2cccc(/N=c3\nc4c(c[nH]3)N(C)C(O)=CCN4c3ccccc3)c2)CC1 (nonaromatic ring conformer: 112.19393791108931 kcal/mol)

>  <smiles>  (47) 
CCOC1CCN(C(=O)c2cccc(N=c3nc4c(c[nH]3)N(C)C(=O)CCN4c3ccccc3)c2)CC1

>  <score_type>  (47) 
oracle

>  <origin>  (47) 
autodockgpu

>  <m_score__min__energy>  (47) 
-7.3200000000000003

>  <m_primary>  (47) 
energy

>  <meeko>  (47) 
{"free_energy": -4.92, "intermolecular_energy": -8.8, "internal_energy": -3.0, "cluster_size": 3, "cluster_id": 5, "rank_in_cluster": 1}

>  <energy>  (47) 
-5.02

>  <cluster_rmsd>  (47) 
1.13

>  <rmsd>  (47) 
271.38

>  <cluster>  (47) 
3

$$$$
FLYFIANCBVDDDY-IGPOTQGWNA-O
     RDKit          3D

 70 74  0  0  0  0  0  0  0  0999 V2000
  136.0770   67.8810  220.2780 H   0  0  0  0  0  0  0  0  0  0  0  0
  136.5030   68.7690  220.0480 O   0  0  0  0  0  0  0  0  0  0  0  0
  137.3300   69.4560  220.9400 C   0  0  0  0  0  0  0  0  0  0  0  0
  138.4400   68.8190  221.3510 C   0  0  0  0  0  0  0  0  0  0  0  0
  138.5572   67.7902  220.9798 H   0  0  0  0  0  0  0  0  0  0  0  0
  139.5480   69.3120  222.2480 C   0  0  0  0  0  0  0  0  0  0  0  0
  139.8360   68.4896  222.9193 H   0  0  0  0  0  0  0  0  0  0  0  0
  140.3625   69.6362  221.5835 H   0  0  0  0  0  0  0  0  0  0  0  0
  139.2020   70.4740  223.0730 N   0  0  0  0  0  0  0  0  0  0  0  0
  139.5850   70.5290  224.4630 C   0  0  0  0  0  0  0  0  0  0  0  0
  138.9850   69.6890  225.4190 C   0  0  0  0  0  0  0  0  0  0  0  0
  138.1637   69.0206  225.1212 H   0  0  0  0  0  0  0  0  0  0  0  0
  139.4270   69.6990  226.7460 C   0  0  0  0  0  0  0  0  0  0  0  0
  138.9514   69.0416  227.4887 H   0  0  0  0  0  0  0  0  0  0  0  0
  140.4730   70.5440  227.1290 C   0  0  0  0  0  0  0  0  0  0  0  0
  140.8181   70.5526  228.1734 H   0  0  0  0  0  0  0  0  0  0  0  0
  141.0800   71.3770  226.1870 C   0  0  0  0  0  0  0  0  0  0  0  0
  141.9036   72.0402  226.4899 H   0  0  0  0  0  0  0  0  0  0  0  0
  140.6420   71.3690  224.8590 C   0  0  0  0  0  0  0  0  0  0  0  0
  141.1267   72.0234  224.1195 H   0  0  0  0  0  0  0  0  0  0  0  0
  138.9590   71.7140  222.4050 C   0  0  0  0  0  0  0  0  0  0  0  0
  139.7460   72.7880  222.6710 N   0  0  0  0  0  0  0  0  0  0  0  0
  139.5380   73.9910  222.0730 C   0  0  0  0  0  0  0  0  0  0  0  0
  140.3030   75.0090  222.3470 N   0  0  0  0  0  0  0  0  0  0  0  0
  141.0870   75.7240  221.3770 C   0  0  0  0  0  0  0  0  0  0  0  0
  141.8750   75.0420  220.4360 C   0  0  0  0  0  0  0  0  0  0  0  0
  141.9077   73.9425  220.4421 H   0  0  0  0  0  0  0  0  0  0  0  0
  142.6160   75.7540  219.4940 C   0  0  0  0  0  0  0  0  0  0  0  0
  143.2290   75.2148  218.7568 H   0  0  0  0  0  0  0  0  0  0  0  0
  142.5820   77.1500  219.4840 C   0  0  0  0  0  0  0  0  0  0  0  0
  143.1659   77.7042  218.7344 H   0  0  0  0  0  0  0  0  0  0  0  0
  141.8060   77.8550  220.4260 C   0  0  0  0  0  0  0  0  0  0  0  0
  141.7160   79.3430  220.4150 C   0  0  0  0  0  0  0  0  0  0  0  0
  141.0400   79.8880  219.4970 O   0  0  0  0  0  0  0  0  0  0  0  0
  142.4020   80.1600  221.4090 N   0  0  2  0  0  0  0  0  0  0  0  0
  143.3820   80.2910  221.0710 H   0  0  0  0  0  0  0  0  0  0  0  0
  142.5300   79.5060  222.7380 C   0  0  0  0  0  0  0  0  0  0  0  0
  143.2784   80.0567  223.3268 H   0  0  0  0  0  0  0  0  0  0  0  0
  142.8273   78.4623  222.5585 H   0  0  0  0  0  0  0  0  0  0  0  0
  141.2080   79.4720  223.5360 C   0  0  0  0  0  0  0  0  0  0  0  0
  141.4120   79.0971  224.5498 H   0  0  0  0  0  0  0  0  0  0  0  0
  140.5035   78.8119  223.0087 H   0  0  0  0  0  0  0  0  0  0  0  0
  140.5760   80.8680  223.6380 C   0  0  2  0  0  0  0  0  0  0  0  0
  141.2222   81.5085  224.2562 H   0  0  0  0  0  0  0  0  0  0  0  0
  139.2890   80.7740  224.2270 O   0  0  0  0  0  0  0  0  0  0  0  0
  138.4500   79.8940  223.5050 C   0  0  0  0  0  0  0  0  0  0  0  0
  138.6806   78.8569  223.7901 H   0  0  0  0  0  0  0  0  0  0  0  0
  138.6241   80.0361  222.4282 H   0  0  0  0  0  0  0  0  0  0  0  0
  136.9860   80.1870  223.8140 C   0  0  0  0  0  0  0  0  0  0  0  0
  136.8400   80.2162  224.9039 H   0  0  0  0  0  0  0  0  0  0  0  0
  136.7071   81.1588  223.3805 H   0  0  0  0  0  0  0  0  0  0  0  0
  136.3546   79.3974  223.3805 H   0  0  0  0  0  0  0  0  0  0  0  0
  140.4260   81.4590  222.2360 C   0  0  0  0  0  0  0  0  0  0  0  0
  140.0219   82.4792  222.3128 H   0  0  0  0  0  0  0  0  0  0  0  0
  139.7411   80.8276  221.6510 H   0  0  0  0  0  0  0  0  0  0  0  0
  141.7900   81.5050  221.5330 C   0  0  0  0  0  0  0  0  0  0  0  0
  142.4662   82.1497  222.1136 H   0  0  0  0  0  0  0  0  0  0  0  0
  141.6337   81.8997  220.5182 H   0  0  0  0  0  0  0  0  0  0  0  0
  141.0820   77.1230  221.3890 C   0  0  0  0  0  0  0  0  0  0  0  0
  140.5065   77.6580  222.1588 H   0  0  0  0  0  0  0  0  0  0  0  0
  138.5340   74.1220  221.1630 N   0  0  0  0  0  0  0  0  0  0  0  0
  138.3700   75.0390  220.6890 H   0  0  0  0  0  0  0  0  0  0  0  0
  137.7060   73.0780  220.8880 C   0  0  0  0  0  0  0  0  0  0  0  0
  136.8810   73.2065  220.1718 H   0  0  0  0  0  0  0  0  0  0  0  0
  137.9010   71.8380  221.5150 C   0  0  0  0  0  0  0  0  0  0  0  0
  136.9450   70.7760  221.3800 N   0  0  0  0  0  0  0  0  0  0  0  0
  135.5200   71.0920  221.5240 C   0  0  0  0  0  0  0  0  0  0  0  0
  135.2632   71.1490  222.5921 H   0  0  0  0  0  0  0  0  0  0  0  0
  135.3085   72.0589  221.0440 H   0  0  0  0  0  0  0  0  0  0  0  0
  134.9196   70.3052  221.0440 H   0  0  0  0  0  0  0  0  0  0  0  0
  1  2  1  0
  2  3  1  0
  3  4  2  0
  4  5  1  0
  4  6  1  0
  6  7  1  0
  6  8  1  0
  6  9  1  0
  9 10  1  0
 10 11  2  0
 11 12  1  0
 11 13  1  0
 13 14  1  0
 13 15  2  0
 15 16  1  0
 15 17  1  0
 17 18  1  0
 17 19  2  0
 19 20  1  0
  9 21  1  0
 21 22  2  0
 22 23  1  0
 23 24  2  0
 24 25  1  0
 25 26  2  0
 26 27  1  0
 26 28  1  0
 28 29  1  0
 28 30  2  0
 30 31  1  0
 30 32  1  0
 32 33  1  0
 33 34  2  0
 33 35  1  0
 35 36  1  6
 35 37  1  0
 37 38  1  0
 37 39  1  0
 37 40  1  0
 40 41  1  0
 40 42  1  0
 40 43  1  0
 43 44  1  1
 43 45  1  0
 45 46  1  0
 46 47  1  0
 46 48  1  0
 46 49  1  0
 49 50  1  0
 49 51  1  0
 49 52  1  0
 43 53  1  0
 53 54  1  0
 53 55  1  0
 53 56  1  0
 56 57  1  0
 56 58  1  0
 32 59  2  0
 59 60  1  0
 23 61  1  0
 61 62  1  0
 61 63  1  0
 63 64  1  0
 63 65  2  0
 65 66  1  0
 66 67  1  0
 67 68  1  0
 67 69  1  0
 67 70  1  0
 66  3  1  0
 19 10  1  0
 65 21  1  0
 59 25  1  0
 56 35  1  0
M  CHG  1  35   1
M  END
>  <UniqueID>  (48) 
23

>  <SMILES>  (48) 
CCOC1CC[NH+](C(=O)c2cccc(/N=c3\nc4c(c[nH]3)N(C)C(O)=CCN4c3ccccc3)c2)CC1

>  <Energy>  (48) 
112.19393791108931

>  <Genealogy>  (48) 
CCOC1CC[NH+](C(=O)c2cccc(N=c3nc4c(c[nH]3)N(C)C(=O)CCN4c3ccccc3)c2)CC1 (protonated)
CCOC1CC[NH+](C(=O)c2cccc(N=c3nc4c(c[nH]3)N(C)C(O)=CCN4c3ccccc3)c2)CC1 (tautomer)
CCOC1CC[NH+](C(=O)c2cccc(/N=c3\nc4c(c[nH]3)N(C)C(O)=CCN4c3ccccc3)c2)CC1 (cis-trans isomerization)
CCOC1CC[NH+](C(=O)c2cccc(/N=c3\nc4c(c[nH]3)N(C)C(O)=CCN4c3ccccc3)c2)CC1 (3D coordinates assigned)
CCOC1CC[NH+](C(=O)c2cccc(/N=c3\nc4c(c[nH]3)N(C)C(O)=CCN4c3ccccc3)c2)CC1 (nonaromatic ring conformer: 112.19393791108931 kcal/mol)

>  <smiles>  (48) 
CCOC1CCN(C(=O)c2cccc(N=c3nc4c(c[nH]3)N(C)C(=O)CCN4c3ccccc3)c2)CC1

>  <score_type>  (48) 
oracle

>  <origin>  (48) 
autodockgpu

>  <m_score__min__energy>  (48) 
-7.3200000000000003

>  <m_primary>  (48) 
energy

>  <meeko>  (48) 
{"free_energy": -6.1, "intermolecular_energy": -9.98, "internal_energy": -1.46, "cluster_size": 4, "cluster_id": 1, "rank_in_cluster": 4}

>  <energy>  (48) 
-4.96

>  <cluster_rmsd>  (48) 
0.0

>  <rmsd>  (48) 
271.21

>  <cluster>  (48) 
4

$$$$
FLYFIANCBVDDDY-IGPOTQGWNA-O
     RDKit          3D

 70 74  0  0  0  0  0  0  0  0999 V2000
  138.8690   73.6200  223.1050 H   0  0  0  0  0  0  0  0  0  0  0  0
  139.3120   73.9220  222.2470 O   0  0  0  0  0  0  0  0  0  0  0  0
  139.4870   75.2710  221.9300 C   0  0  0  0  0  0  0  0  0  0  0  0
  140.7050   75.6350  221.4900 C   0  0  0  0  0  0  0  0  0  0  0  0
  141.3554   74.8083  221.1683 H   0  0  0  0  0  0  0  0  0  0  0  0
  141.3080   77.0130  221.3740 C   0  0  0  0  0  0  0  0  0  0  0  0
  142.2513   77.0222  221.9397 H   0  0  0  0  0  0  0  0  0  0  0  0
  141.4440   77.2013  220.2988 H   0  0  0  0  0  0  0  0  0  0  0  0
  140.4630   78.1000  221.8790 N   0  0  0  0  0  0  0  0  0  0  0  0
  141.0410   79.2080  222.5990 C   0  0  0  0  0  0  0  0  0  0  0  0
  142.4330   79.4070  222.6360 C   0  0  0  0  0  0  0  0  0  0  0  0
  143.1030   78.6736  222.1636 H   0  0  0  0  0  0  0  0  0  0  0  0
  142.9700   80.5320  223.2700 C   0  0  0  0  0  0  0  0  0  0  0  0
  144.0597   80.6796  223.2973 H   0  0  0  0  0  0  0  0  0  0  0  0
  142.1230   81.4690  223.8690 C   0  0  0  0  0  0  0  0  0  0  0  0
  142.5466   82.3525  224.3690 H   0  0  0  0  0  0  0  0  0  0  0  0
  140.7400   81.2840  223.8330 C   0  0  0  0  0  0  0  0  0  0  0  0
  140.0748   82.0224  224.3043 H   0  0  0  0  0  0  0  0  0  0  0  0
  140.1990   80.1620  223.1990 C   0  0  0  0  0  0  0  0  0  0  0  0
  139.1081   80.0241  223.1690 H   0  0  0  0  0  0  0  0  0  0  0  0
  139.2050   78.3160  221.2350 C   0  0  0  0  0  0  0  0  0  0  0  0
  138.9620   79.4940  220.6070 N   0  0  0  0  0  0  0  0  0  0  0  0
  137.7720   79.7480  219.9990 C   0  0  0  0  0  0  0  0  0  0  0  0
  137.5610   80.8880  219.4050 N   0  0  0  0  0  0  0  0  0  0  0  0
  138.2620   81.3380  218.2340 C   0  0  0  0  0  0  0  0  0  0  0  0
  137.8580   82.4930  217.5450 C   0  0  0  0  0  0  0  0  0  0  0  0
  136.9838   83.0620  217.8943 H   0  0  0  0  0  0  0  0  0  0  0  0
  138.5610   82.9210  216.4200 C   0  0  0  0  0  0  0  0  0  0  0  0
  138.2425   83.8288  215.8867 H   0  0  0  0  0  0  0  0  0  0  0  0
  139.6690   82.2000  215.9680 C   0  0  0  0  0  0  0  0  0  0  0  0
  140.2210   82.5463  215.0818 H   0  0  0  0  0  0  0  0  0  0  0  0
  140.0850   81.0320  216.6390 C   0  0  0  0  0  0  0  0  0  0  0  0
  141.2880   80.2650  216.2070 C   0  0  0  0  0  0  0  0  0  0  0  0
  141.1880   79.5390  215.1760 O   0  0  0  0  0  0  0  0  0  0  0  0
  142.5400   80.3170  216.9520 N   0  0  2  0  0  0  0  0  0  0  0  0
  143.3000   80.0430  216.2900 H   0  0  0  0  0  0  0  0  0  0  0  0
  142.6160   79.3330  218.0650 C   0  0  0  0  0  0  0  0  0  0  0  0
  143.6648   79.2506  218.3865 H   0  0  0  0  0  0  0  0  0  0  0  0
  142.2219   78.3798  217.6829 H   0  0  0  0  0  0  0  0  0  0  0  0
  141.7580   79.7230  219.2890 C   0  0  0  0  0  0  0  0  0  0  0  0
  141.9694   79.0232  220.1110 H   0  0  0  0  0  0  0  0  0  0  0  0
  140.6987   79.6758  218.9964 H   0  0  0  0  0  0  0  0  0  0  0  0
  142.0640   81.1530  219.7600 C   0  0  2  0  0  0  0  0  0  0  0  0
  143.0896   81.1887  220.1560 H   0  0  0  0  0  0  0  0  0  0  0  0
  141.1470   81.5340  220.7720 O   0  0  0  0  0  0  0  0  0  0  0  0
  140.7150   82.8710  220.6050 C   0  0  0  0  0  0  0  0  0  0  0  0
  140.6642   83.1045  219.5313 H   0  0  0  0  0  0  0  0  0  0  0  0
  141.4294   83.5428  221.1033 H   0  0  0  0  0  0  0  0  0  0  0  0
  139.3370   83.0630  221.2270 C   0  0  0  0  0  0  0  0  0  0  0  0
  139.4247   83.0508  222.3234 H   0  0  0  0  0  0  0  0  0  0  0  0
  138.9198   84.0280  220.9033 H   0  0  0  0  0  0  0  0  0  0  0  0
  138.6719   82.2489  220.9033 H   0  0  0  0  0  0  0  0  0  0  0  0
  141.9160   82.1150  218.5810 C   0  0  0  0  0  0  0  0  0  0  0  0
  142.1855   83.1311  218.9049 H   0  0  0  0  0  0  0  0  0  0  0  0
  140.8733   82.0970  218.2312 H   0  0  0  0  0  0  0  0  0  0  0  0
  142.8380   81.6880  217.4310 C   0  0  0  0  0  0  0  0  0  0  0  0
  143.8801   81.7218  217.7816 H   0  0  0  0  0  0  0  0  0  0  0  0
  142.6742   82.3810  216.5926 H   0  0  0  0  0  0  0  0  0  0  0  0
  139.3510   80.5970  217.7600 C   0  0  0  0  0  0  0  0  0  0  0  0
  139.6368   79.6645  218.2686 H   0  0  0  0  0  0  0  0  0  0  0  0
  136.8050   78.7900  219.9940 N   0  0  0  0  0  0  0  0  0  0  0  0
  135.8900   78.9690  219.5210 H   0  0  0  0  0  0  0  0  0  0  0  0
  136.9970   77.6060  220.6360 C   0  0  0  0  0  0  0  0  0  0  0  0
  136.1955   76.8527  220.6485 H   0  0  0  0  0  0  0  0  0  0  0  0
  138.2140   77.3430  221.2820 C   0  0  0  0  0  0  0  0  0  0  0  0
  138.3830   76.1830  222.1110 N   0  0  0  0  0  0  0  0  0  0  0  0
  137.3110   75.8280  223.0470 C   0  0  0  0  0  0  0  0  0  0  0  0
  137.6713   75.9473  224.0794 H   0  0  0  0  0  0  0  0  0  0  0  0
  136.4465   76.4878  222.8818 H   0  0  0  0  0  0  0  0  0  0  0  0
  137.0112   74.7826  222.8818 H   0  0  0  0  0  0  0  0  0  0  0  0
  1  2  1  0
  2  3  1  0
  3  4  2  0
  4  5  1  0
  4  6  1  0
  6  7  1  0
  6  8  1  0
  6  9  1  0
  9 10  1  0
 10 11  2  0
 11 12  1  0
 11 13  1  0
 13 14  1  0
 13 15  2  0
 15 16  1  0
 15 17  1  0
 17 18  1  0
 17 19  2  0
 19 20  1  0
  9 21  1  0
 21 22  2  0
 22 23  1  0
 23 24  2  0
 24 25  1  0
 25 26  2  0
 26 27  1  0
 26 28  1  0
 28 29  1  0
 28 30  2  0
 30 31  1  0
 30 32  1  0
 32 33  1  0
 33 34  2  0
 33 35  1  0
 35 36  1  6
 35 37  1  0
 37 38  1  0
 37 39  1  0
 37 40  1  0
 40 41  1  0
 40 42  1  0
 40 43  1  0
 43 44  1  1
 43 45  1  0
 45 46  1  0
 46 47  1  0
 46 48  1  0
 46 49  1  0
 49 50  1  0
 49 51  1  0
 49 52  1  0
 43 53  1  0
 53 54  1  0
 53 55  1  0
 53 56  1  0
 56 57  1  0
 56 58  1  0
 32 59  2  0
 59 60  1  0
 23 61  1  0
 61 62  1  0
 61 63  1  0
 63 64  1  0
 63 65  2  0
 65 66  1  0
 66 67  1  0
 67 68  1  0
 67 69  1  0
 67 70  1  0
 66  3  1  0
 19 10  1  0
 65 21  1  0
 59 25  1  0
 56 35  1  0
M  CHG  1  35   1
M  END
>  <UniqueID>  (49) 
23

>  <SMILES>  (49) 
CCOC1CC[NH+](C(=O)c2cccc(/N=c3\nc4c(c[nH]3)N(C)C(O)=CCN4c3ccccc3)c2)CC1

>  <Energy>  (49) 
112.19393791108931

>  <Genealogy>  (49) 
CCOC1CC[NH+](C(=O)c2cccc(N=c3nc4c(c[nH]3)N(C)C(=O)CCN4c3ccccc3)c2)CC1 (protonated)
CCOC1CC[NH+](C(=O)c2cccc(N=c3nc4c(c[nH]3)N(C)C(O)=CCN4c3ccccc3)c2)CC1 (tautomer)
CCOC1CC[NH+](C(=O)c2cccc(/N=c3\nc4c(c[nH]3)N(C)C(O)=CCN4c3ccccc3)c2)CC1 (cis-trans isomerization)
CCOC1CC[NH+](C(=O)c2cccc(/N=c3\nc4c(c[nH]3)N(C)C(O)=CCN4c3ccccc3)c2)CC1 (3D coordinates assigned)
CCOC1CC[NH+](C(=O)c2cccc(/N=c3\nc4c(c[nH]3)N(C)C(O)=CCN4c3ccccc3)c2)CC1 (nonaromatic ring conformer: 112.19393791108931 kcal/mol)

>  <smiles>  (49) 
CCOC1CCN(C(=O)c2cccc(N=c3nc4c(c[nH]3)N(C)C(=O)CCN4c3ccccc3)c2)CC1

>  <score_type>  (49) 
oracle

>  <origin>  (49) 
autodockgpu

>  <m_score__min__energy>  (49) 
-7.3200000000000003

>  <m_primary>  (49) 
energy

>  <meeko>  (49) 
{"free_energy": -4.96, "intermolecular_energy": -8.84, "internal_energy": -3.17, "cluster_size": 2, "cluster_id": 4, "rank_in_cluster": 1}

>  <energy>  (49) 
-4.51

>  <cluster_rmsd>  (49) 
1.57

>  <rmsd>  (49) 
271.1

>  <cluster>  (49) 
4

$$$$
FLYFIANCBVDDDY-IGPOTQGWNA-O
     RDKit          3D

 70 74  0  0  0  0  0  0  0  0999 V2000
  145.6060   71.3770  218.3940 H   0  0  0  0  0  0  0  0  0  0  0  0
  145.9050   72.3360  218.5170 O   0  0  0  0  0  0  0  0  0  0  0  0
  145.0000   73.3860  218.6860 C   0  0  0  0  0  0  0  0  0  0  0  0
  144.8840   73.8890  219.9280 C   0  0  0  0  0  0  0  0  0  0  0  0
  145.6921   73.6176  220.6232 H   0  0  0  0  0  0  0  0  0  0  0  0
  143.8050   74.7720  220.5050 C   0  0  0  0  0  0  0  0  0  0  0  0
  143.3931   74.2720  221.3940 H   0  0  0  0  0  0  0  0  0  0  0  0
  144.2832   75.7366  220.7308 H   0  0  0  0  0  0  0  0  0  0  0  0
  142.6960   75.0660  219.5930 N   0  0  0  0  0  0  0  0  0  0  0  0
  141.3380   75.1200  220.0780 C   0  0  0  0  0  0  0  0  0  0  0  0
  140.2570   75.3180  219.2000 C   0  0  0  0  0  0  0  0  0  0  0  0
  140.4461   75.4998  218.1317 H   0  0  0  0  0  0  0  0  0  0  0  0
  138.9430   75.2850  219.6780 C   0  0  0  0  0  0  0  0  0  0  0  0
  138.1024   75.4424  218.9862 H   0  0  0  0  0  0  0  0  0  0  0  0
  138.6970   75.0520  221.0350 C   0  0  0  0  0  0  0  0  0  0  0  0
  137.6633   75.0303  221.4104 H   0  0  0  0  0  0  0  0  0  0  0  0
  139.7620   74.8470  221.9130 C   0  0  0  0  0  0  0  0  0  0  0  0
  139.5667   74.6608  222.9794 H   0  0  0  0  0  0  0  0  0  0  0  0
  141.0770   74.8780  221.4390 C   0  0  0  0  0  0  0  0  0  0  0  0
  141.9128   74.7121  222.1347 H   0  0  0  0  0  0  0  0  0  0  0  0
  142.9960   75.7790  218.3910 C   0  0  0  0  0  0  0  0  0  0  0  0
  142.4430   77.0010  218.1760 N   0  0  0  0  0  0  0  0  0  0  0  0
  142.6870   77.7050  217.0390 C   0  0  0  0  0  0  0  0  0  0  0  0
  142.1420   78.8740  216.8530 N   0  0  0  0  0  0  0  0  0  0  0  0
  141.9010   79.8340  217.8940 C   0  0  0  0  0  0  0  0  0  0  0  0
  141.4050   81.1140  217.6010 C   0  0  0  0  0  0  0  0  0  0  0  0
  141.2050   81.3983  216.5574 H   0  0  0  0  0  0  0  0  0  0  0  0
  141.1650   82.0260  218.6270 C   0  0  0  0  0  0  0  0  0  0  0  0
  140.7737   83.0266  218.3911 H   0  0  0  0  0  0  0  0  0  0  0  0
  141.4200   81.6730  219.9540 C   0  0  0  0  0  0  0  0  0  0  0  0
  141.2230   82.3968  220.7585 H   0  0  0  0  0  0  0  0  0  0  0  0
  141.9280   80.3960  220.2710 C   0  0  0  0  0  0  0  0  0  0  0  0
  142.1710   79.9750  221.6790 C   0  0  0  0  0  0  0  0  0  0  0  0
  142.7800   80.7780  222.4410 O   0  0  0  0  0  0  0  0  0  0  0  0
  141.7490   78.6690  222.1730 N   0  0  2  0  0  0  0  0  0  0  0  0
  142.5550   78.0180  222.0410 H   0  0  0  0  0  0  0  0  0  0  0  0
  140.6300   78.0680  221.3980 C   0  0  0  0  0  0  0  0  0  0  0  0
  140.5629   77.0002  221.6535 H   0  0  0  0  0  0  0  0  0  0  0  0
  140.8507   78.2274  220.3322 H   0  0  0  0  0  0  0  0  0  0  0  0
  139.2620   78.7270  221.6840 C   0  0  0  0  0  0  0  0  0  0  0  0
  138.4741   78.1473  221.1808 H   0  0  0  0  0  0  0  0  0  0  0  0
  139.2913   79.7596  221.3061 H   0  0  0  0  0  0  0  0  0  0  0  0
  138.9620   78.7740  223.1900 C   0  0  2  0  0  0  0  0  0  0  0  0
  138.8238   77.7472  223.5596 H   0  0  0  0  0  0  0  0  0  0  0  0
  137.7860   79.5290  223.4250 O   0  0  0  0  0  0  0  0  0  0  0  0
  138.0880   80.8360  223.8730 C   0  0  0  0  0  0  0  0  0  0  0  0
  139.0874   80.8402  224.3325 H   0  0  0  0  0  0  0  0  0  0  0  0
  137.3327   81.1448  224.6107 H   0  0  0  0  0  0  0  0  0  0  0  0
  138.0680   81.8140  222.7040 C   0  0  0  0  0  0  0  0  0  0  0  0
  138.0469   82.8445  223.0883 H   0  0  0  0  0  0  0  0  0  0  0  0
  138.9693   81.6700  222.0900 H   0  0  0  0  0  0  0  0  0  0  0  0
  137.1734   81.6333  222.0900 H   0  0  0  0  0  0  0  0  0  0  0  0
  140.1260   79.4480  223.9160 C   0  0  0  0  0  0  0  0  0  0  0  0
  139.9354   79.4346  224.9993 H   0  0  0  0  0  0  0  0  0  0  0  0
  140.2163   80.4862  223.5638 H   0  0  0  0  0  0  0  0  0  0  0  0
  141.4360   78.7030  223.6220 C   0  0  0  0  0  0  0  0  0  0  0  0
  141.3459   77.6700  223.9891 H   0  0  0  0  0  0  0  0  0  0  0  0
  142.2506   79.2395  224.1305 H   0  0  0  0  0  0  0  0  0  0  0  0
  142.1900   79.4940  219.2210 C   0  0  0  0  0  0  0  0  0  0  0  0
  142.6272   78.5102  219.4466 H   0  0  0  0  0  0  0  0  0  0  0  0
  143.5260   77.1890  216.1000 N   0  0  0  0  0  0  0  0  0  0  0  0
  143.7290   77.7250  215.2250 H   0  0  0  0  0  0  0  0  0  0  0  0
  144.0790   75.9570  216.2630 C   0  0  0  0  0  0  0  0  0  0  0  0
  144.7325   75.5413  215.4819 H   0  0  0  0  0  0  0  0  0  0  0  0
  143.8180   75.2150  217.4250 C   0  0  0  0  0  0  0  0  0  0  0  0
  144.2420   73.8490  217.5480 N   0  0  0  0  0  0  0  0  0  0  0  0
  144.0480   72.9490  216.4060 C   0  0  0  0  0  0  0  0  0  0  0  0
  143.8294   71.9348  216.7715 H   0  0  0  0  0  0  0  0  0  0  0  0
  143.2066   73.3079  215.7951 H   0  0  0  0  0  0  0  0  0  0  0  0
  144.9626   72.9294  215.7951 H   0  0  0  0  0  0  0  0  0  0  0  0
  1  2  1  0
  2  3  1  0
  3  4  2  0
  4  5  1  0
  4  6  1  0
  6  7  1  0
  6  8  1  0
  6  9  1  0
  9 10  1  0
 10 11  2  0
 11 12  1  0
 11 13  1  0
 13 14  1  0
 13 15  2  0
 15 16  1  0
 15 17  1  0
 17 18  1  0
 17 19  2  0
 19 20  1  0
  9 21  1  0
 21 22  2  0
 22 23  1  0
 23 24  2  0
 24 25  1  0
 25 26  2  0
 26 27  1  0
 26 28  1  0
 28 29  1  0
 28 30  2  0
 30 31  1  0
 30 32  1  0
 32 33  1  0
 33 34  2  0
 33 35  1  0
 35 36  1  1
 35 37  1  0
 37 38  1  0
 37 39  1  0
 37 40  1  0
 40 41  1  0
 40 42  1  0
 40 43  1  0
 43 44  1  1
 43 45  1  0
 45 46  1  0
 46 47  1  0
 46 48  1  0
 46 49  1  0
 49 50  1  0
 49 51  1  0
 49 52  1  0
 43 53  1  0
 53 54  1  0
 53 55  1  0
 53 56  1  0
 56 57  1  0
 56 58  1  0
 32 59  2  0
 59 60  1  0
 23 61  1  0
 61 62  1  0
 61 63  1  0
 63 64  1  0
 63 65  2  0
 65 66  1  0
 66 67  1  0
 67 68  1  0
 67 69  1  0
 67 70  1  0
 66  3  1  0
 19 10  1  0
 65 21  1  0
 59 25  1  0
 56 35  1  0
M  CHG  1  35   1
M  END
>  <UniqueID>  (50) 
23

>  <SMILES>  (50) 
CCOC1CC[NH+](C(=O)c2cccc(/N=c3\nc4c(c[nH]3)N(C)C(O)=CCN4c3ccccc3)c2)CC1

>  <Energy>  (50) 
112.19393791108931

>  <Genealogy>  (50) 
CCOC1CC[NH+](C(=O)c2cccc(N=c3nc4c(c[nH]3)N(C)C(=O)CCN4c3ccccc3)c2)CC1 (protonated)
CCOC1CC[NH+](C(=O)c2cccc(N=c3nc4c(c[nH]3)N(C)C(O)=CCN4c3ccccc3)c2)CC1 (tautomer)
CCOC1CC[NH+](C(=O)c2cccc(/N=c3\nc4c(c[nH]3)N(C)C(O)=CCN4c3ccccc3)c2)CC1 (cis-trans isomerization)
CCOC1CC[NH+](C(=O)c2cccc(/N=c3\nc4c(c[nH]3)N(C)C(O)=CCN4c3ccccc3)c2)CC1 (3D coordinates assigned)
CCOC1CC[NH+](C(=O)c2cccc(/N=c3\nc4c(c[nH]3)N(C)C(O)=CCN4c3ccccc3)c2)CC1 (nonaromatic ring conformer: 112.19393791108931 kcal/mol)

>  <smiles>  (50) 
CCOC1CCN(C(=O)c2cccc(N=c3nc4c(c[nH]3)N(C)C(=O)CCN4c3ccccc3)c2)CC1

>  <score_type>  (50) 
oracle

>  <origin>  (50) 
autodockgpu

>  <m_score__min__energy>  (50) 
-7.3200000000000003

>  <m_primary>  (50) 
energy

>  <meeko>  (50) 
{"free_energy": -5.02, "intermolecular_energy": -8.9, "internal_energy": -2.39, "cluster_size": 2, "cluster_id": 3, "rank_in_cluster": 2}

>  <energy>  (50) 
-4.92

>  <cluster_rmsd>  (50) 
0.0

>  <rmsd>  (50) 
270.91

>  <cluster>  (50) 
5

$$$$
FLYFIANCBVDDDY-IGPOTQGWNA-O
     RDKit          3D

 70 74  0  0  0  0  0  0  0  0999 V2000
  144.3230   71.0940  221.6020 H   0  0  0  0  0  0  0  0  0  0  0  0
  143.5350   71.2740  220.9940 O   0  0  0  0  0  0  0  0  0  0  0  0
  143.2340   72.5530  220.5200 C   0  0  0  0  0  0  0  0  0  0  0  0
  144.2660   73.3990  220.3620 C   0  0  0  0  0  0  0  0  0  0  0  0
  145.2625   72.9334  220.3752 H   0  0  0  0  0  0  0  0  0  0  0  0
  144.2550   74.8960  220.1690 C   0  0  0  0  0  0  0  0  0  0  0  0
  144.5085   75.3667  221.1304 H   0  0  0  0  0  0  0  0  0  0  0  0
  144.9846   75.1107  219.3743 H   0  0  0  0  0  0  0  0  0  0  0  0
  142.9750   75.4490  219.7140 N   0  0  0  0  0  0  0  0  0  0  0  0
  142.7110   75.6330  218.3080 C   0  0  0  0  0  0  0  0  0  0  0  0
  141.6640   74.9470  217.6670 C   0  0  0  0  0  0  0  0  0  0  0  0
  141.0721   74.2072  218.2259 H   0  0  0  0  0  0  0  0  0  0  0  0
  141.3710   75.2000  216.3230 C   0  0  0  0  0  0  0  0  0  0  0  0
  140.5524   74.6576  215.8274 H   0  0  0  0  0  0  0  0  0  0  0  0
  142.1180   76.1420  215.6090 C   0  0  0  0  0  0  0  0  0  0  0  0
  141.8890   76.3377  214.5510 H   0  0  0  0  0  0  0  0  0  0  0  0
  143.1540   76.8340  216.2380 C   0  0  0  0  0  0  0  0  0  0  0  0
  143.7389   77.5767  215.6756 H   0  0  0  0  0  0  0  0  0  0  0  0
  143.4500   76.5850  217.5820 C   0  0  0  0  0  0  0  0  0  0  0  0
  144.2648   77.1363  218.0740 H   0  0  0  0  0  0  0  0  0  0  0  0
  141.8500   75.3200  220.5860 C   0  0  0  0  0  0  0  0  0  0  0  0
  141.3850   76.4070  221.2520 N   0  0  0  0  0  0  0  0  0  0  0  0
  140.3290   76.3250  222.1050 C   0  0  0  0  0  0  0  0  0  0  0  0
  139.9030   77.3820  222.7370 N   0  0  0  0  0  0  0  0  0  0  0  0
  140.5540   78.6630  222.7110 C   0  0  0  0  0  0  0  0  0  0  0  0
  141.4880   79.0230  223.6950 C   0  0  0  0  0  0  0  0  0  0  0  0
  141.7222   78.3231  224.5107 H   0  0  0  0  0  0  0  0  0  0  0  0
  142.1200   80.2650  223.6420 C   0  0  0  0  0  0  0  0  0  0  0  0
  142.8549   80.5400  224.4129 H   0  0  0  0  0  0  0  0  0  0  0  0
  141.8220   81.1610  222.6120 C   0  0  0  0  0  0  0  0  0  0  0  0
  142.3271   82.1375  222.5754 H   0  0  0  0  0  0  0  0  0  0  0  0
  140.8800   80.8240  221.6200 C   0  0  0  0  0  0  0  0  0  0  0  0
  140.5730   81.7400  220.4850 C   0  0  0  0  0  0  0  0  0  0  0  0
  139.6260   82.5650  220.6300 O   0  0  0  0  0  0  0  0  0  0  0  0
  141.3130   81.6820  219.2300 N   0  0  2  0  0  0  0  0  0  0  0  0
  141.9070   82.5400  219.1870 H   0  0  0  0  0  0  0  0  0  0  0  0
  140.4480   81.7420  218.0210 C   0  0  0  0  0  0  0  0  0  0  0  0
  141.0813   81.9670  217.1502 H   0  0  0  0  0  0  0  0  0  0  0  0
  139.6939   82.5225  218.2003 H   0  0  0  0  0  0  0  0  0  0  0  0
  139.6860   80.4280  217.7450 C   0  0  0  0  0  0  0  0  0  0  0  0
  139.1786   80.5069  216.7722 H   0  0  0  0  0  0  0  0  0  0  0  0
  138.9584   80.2748  218.5556 H   0  0  0  0  0  0  0  0  0  0  0  0
  140.6350   79.2210  217.7160 C   0  0  2  0  0  0  0  0  0  0  0  0
  141.2995   79.3090  216.8438 H   0  0  0  0  0  0  0  0  0  0  0  0
  139.8870   78.0200  217.6280 O   0  0  0  0  0  0  0  0  0  0  0  0
  139.4190   77.6040  218.8960 C   0  0  0  0  0  0  0  0  0  0  0  0
  138.6530   78.3099  219.2495 H   0  0  0  0  0  0  0  0  0  0  0  0
  140.2644   77.5814  219.5994 H   0  0  0  0  0  0  0  0  0  0  0  0
  138.8130   76.2090  218.8050 C   0  0  0  0  0  0  0  0  0  0  0  0
  138.6425   75.8165  219.8183 H   0  0  0  0  0  0  0  0  0  0  0  0
  137.8557   76.2596  218.2655 H   0  0  0  0  0  0  0  0  0  0  0  0
  139.5033   75.5438  218.2655 H   0  0  0  0  0  0  0  0  0  0  0  0
  141.4530   79.1910  219.0070 C   0  0  0  0  0  0  0  0  0  0  0  0
  142.1697   78.3576  218.9638 H   0  0  0  0  0  0  0  0  0  0  0  0
  140.7720   79.0568  219.8604 H   0  0  0  0  0  0  0  0  0  0  0  0
  142.2190   80.5100  219.1800 C   0  0  0  0  0  0  0  0  0  0  0  0
  142.9096   80.6322  218.3326 H   0  0  0  0  0  0  0  0  0  0  0  0
  142.7617   80.4621  220.1356 H   0  0  0  0  0  0  0  0  0  0  0  0
  140.2310   79.5760  221.6990 C   0  0  0  0  0  0  0  0  0  0  0  0
  139.4616   79.3155  220.9573 H   0  0  0  0  0  0  0  0  0  0  0  0
  139.7020   75.1300  222.2800 N   0  0  0  0  0  0  0  0  0  0  0  0
  138.8830   75.0560  222.9260 H   0  0  0  0  0  0  0  0  0  0  0  0
  140.1520   74.0100  221.6530 C   0  0  0  0  0  0  0  0  0  0  0  0
  139.6518   73.0457  221.8259 H   0  0  0  0  0  0  0  0  0  0  0  0
  141.2530   74.0820  220.7860 C   0  0  0  0  0  0  0  0  0  0  0  0
  141.8570   72.8960  220.2490 N   0  0  0  0  0  0  0  0  0  0  0  0
  141.1070   72.1100  219.2640 C   0  0  0  0  0  0  0  0  0  0  0  0
  140.4386   71.4095  219.7861 H   0  0  0  0  0  0  0  0  0  0  0  0
  140.5101   72.7855  218.6336 H   0  0  0  0  0  0  0  0  0  0  0  0
  141.8097   71.5454  218.6336 H   0  0  0  0  0  0  0  0  0  0  0  0
  1  2  1  0
  2  3  1  0
  3  4  2  0
  4  5  1  0
  4  6  1  0
  6  7  1  0
  6  8  1  0
  6  9  1  0
  9 10  1  0
 10 11  2  0
 11 12  1  0
 11 13  1  0
 13 14  1  0
 13 15  2  0
 15 16  1  0
 15 17  1  0
 17 18  1  0
 17 19  2  0
 19 20  1  0
  9 21  1  0
 21 22  2  0
 22 23  1  0
 23 24  2  0
 24 25  1  0
 25 26  2  0
 26 27  1  0
 26 28  1  0
 28 29  1  0
 28 30  2  0
 30 31  1  0
 30 32  1  0
 32 33  1  0
 33 34  2  0
 33 35  1  0
 35 36  1  6
 35 37  1  0
 37 38  1  0
 37 39  1  0
 37 40  1  0
 40 41  1  0
 40 42  1  0
 40 43  1  0
 43 44  1  6
 43 45  1  0
 45 46  1  0
 46 47  1  0
 46 48  1  0
 46 49  1  0
 49 50  1  0
 49 51  1  0
 49 52  1  0
 43 53  1  0
 53 54  1  0
 53 55  1  0
 53 56  1  0
 56 57  1  0
 56 58  1  0
 32 59  2  0
 59 60  1  0
 23 61  1  0
 61 62  1  0
 61 63  1  0
 63 64  1  0
 63 65  2  0
 65 66  1  0
 66 67  1  0
 67 68  1  0
 67 69  1  0
 67 70  1  0
 66  3  1  0
 19 10  1  0
 65 21  1  0
 59 25  1  0
 56 35  1  0
M  CHG  1  35   1
M  END
>  <UniqueID>  (51) 
23

>  <SMILES>  (51) 
CCOC1CC[NH+](C(=O)c2cccc(/N=c3\nc4c(c[nH]3)N(C)C(O)=CCN4c3ccccc3)c2)CC1

>  <Energy>  (51) 
112.19393791108931

>  <Genealogy>  (51) 
CCOC1CC[NH+](C(=O)c2cccc(N=c3nc4c(c[nH]3)N(C)C(=O)CCN4c3ccccc3)c2)CC1 (protonated)
CCOC1CC[NH+](C(=O)c2cccc(N=c3nc4c(c[nH]3)N(C)C(O)=CCN4c3ccccc3)c2)CC1 (tautomer)
CCOC1CC[NH+](C(=O)c2cccc(/N=c3\nc4c(c[nH]3)N(C)C(O)=CCN4c3ccccc3)c2)CC1 (cis-trans isomerization)
CCOC1CC[NH+](C(=O)c2cccc(/N=c3\nc4c(c[nH]3)N(C)C(O)=CCN4c3ccccc3)c2)CC1 (3D coordinates assigned)
CCOC1CC[NH+](C(=O)c2cccc(/N=c3\nc4c(c[nH]3)N(C)C(O)=CCN4c3ccccc3)c2)CC1 (nonaromatic ring conformer: 112.19393791108931 kcal/mol)

>  <smiles>  (51) 
CCOC1CCN(C(=O)c2cccc(N=c3nc4c(c[nH]3)N(C)C(=O)CCN4c3ccccc3)c2)CC1

>  <score_type>  (51) 
oracle

>  <origin>  (51) 
autodockgpu

>  <m_score__min__energy>  (51) 
-7.3200000000000003

>  <m_primary>  (51) 
energy

>  <meeko>  (51) 
{"free_energy": -4.27, "intermolecular_energy": -8.14, "internal_energy": -3.39, "cluster_size": 4, "cluster_id": 6, "rank_in_cluster": 4}

>  <energy>  (51) 
-4.83

>  <cluster_rmsd>  (51) 
0.77

>  <rmsd>  (51) 
271.07

>  <cluster>  (51) 
5

$$$$
FLYFIANCBVDDDY-IGPOTQGWNA-O
     RDKit          3D

 70 74  0  0  0  0  0  0  0  0999 V2000
  138.4320   73.6450  222.9730 H   0  0  0  0  0  0  0  0  0  0  0  0
  138.6290   74.0730  222.0780 O   0  0  0  0  0  0  0  0  0  0  0  0
  139.0530   75.3980  221.9610 C   0  0  0  0  0  0  0  0  0  0  0  0
  140.3420   75.5940  221.6350 C   0  0  0  0  0  0  0  0  0  0  0  0
  140.9416   74.6795  221.5164 H   0  0  0  0  0  0  0  0  0  0  0  0
  141.0860   76.8880  221.4080 C   0  0  0  0  0  0  0  0  0  0  0  0
  142.0744   76.8022  221.8831 H   0  0  0  0  0  0  0  0  0  0  0  0
  141.1386   77.0275  220.3182 H   0  0  0  0  0  0  0  0  0  0  0  0
  140.4240   78.0810  221.9450 N   0  0  0  0  0  0  0  0  0  0  0  0
  141.1810   79.0880  222.6480 C   0  0  0  0  0  0  0  0  0  0  0  0
  142.5880   79.0940  222.6220 C   0  0  0  0  0  0  0  0  0  0  0  0
  143.1291   78.2830  222.1126 H   0  0  0  0  0  0  0  0  0  0  0  0
  143.3020   80.1250  223.2400 C   0  0  0  0  0  0  0  0  0  0  0  0
  144.4018   80.1213  223.2181 H   0  0  0  0  0  0  0  0  0  0  0  0
  142.6200   81.1610  223.8860 C   0  0  0  0  0  0  0  0  0  0  0  0
  143.1831   81.9700  224.3742 H   0  0  0  0  0  0  0  0  0  0  0  0
  141.2240   81.1680  223.9110 C   0  0  0  0  0  0  0  0  0  0  0  0
  140.6884   81.9841  224.4180 H   0  0  0  0  0  0  0  0  0  0  0  0
  140.5050   80.1400  223.2930 C   0  0  0  0  0  0  0  0  0  0  0  0
  139.4052   80.1539  223.3112 H   0  0  0  0  0  0  0  0  0  0  0  0
  139.1890   78.4800  221.3480 C   0  0  0  0  0  0  0  0  0  0  0  0
  139.0910   79.6950  220.7480 N   0  0  0  0  0  0  0  0  0  0  0  0
  137.9300   80.1220  220.1850 C   0  0  0  0  0  0  0  0  0  0  0  0
  137.8590   81.2930  219.6190 N   0  0  0  0  0  0  0  0  0  0  0  0
  138.9910   82.0280  219.1250 C   0  0  0  0  0  0  0  0  0  0  0  0
  139.4290   83.2010  219.7610 C   0  0  0  0  0  0  0  0  0  0  0  0
  138.8948   83.5773  220.6459 H   0  0  0  0  0  0  0  0  0  0  0  0
  140.5390   83.8900  219.2740 C   0  0  0  0  0  0  0  0  0  0  0  0
  140.8807   84.8058  219.7785 H   0  0  0  0  0  0  0  0  0  0  0  0
  141.2180   83.4210  218.1480 C   0  0  0  0  0  0  0  0  0  0  0  0
  142.0952   83.9685  217.7728 H   0  0  0  0  0  0  0  0  0  0  0  0
  140.7890   82.2520  217.4880 C   0  0  0  0  0  0  0  0  0  0  0  0
  141.5180   81.7020  216.3100 C   0  0  0  0  0  0  0  0  0  0  0  0
  141.2100   82.1430  215.1650 O   0  0  0  0  0  0  0  0  0  0  0  0
  142.5380   80.6700  216.4510 N   0  0  2  0  0  0  0  0  0  0  0  0
  143.3840   81.0060  215.9380 H   0  0  0  0  0  0  0  0  0  0  0  0
  142.1770   79.3790  215.8080 C   0  0  0  0  0  0  0  0  0  0  0  0
  143.0863   78.7658  215.7230 H   0  0  0  0  0  0  0  0  0  0  0  0
  141.7415   79.6164  214.8262 H   0  0  0  0  0  0  0  0  0  0  0  0
  141.1170   78.5760  216.5940 C   0  0  0  0  0  0  0  0  0  0  0  0
  141.0031   77.5851  216.1302 H   0  0  0  0  0  0  0  0  0  0  0  0
  140.1695   79.1340  216.5640 H   0  0  0  0  0  0  0  0  0  0  0  0
  141.5230   78.3950  218.0650 C   0  0  2  0  0  0  0  0  0  0  0  0
  142.4102   77.7467  218.1151 H   0  0  0  0  0  0  0  0  0  0  0  0
  140.4580   77.8050  218.7900 O   0  0  0  0  0  0  0  0  0  0  0  0
  139.2990   77.6650  217.9920 C   0  0  0  0  0  0  0  0  0  0  0  0
  139.5752   77.7579  216.9313 H   0  0  0  0  0  0  0  0  0  0  0  0
  138.5798   78.4516  218.2641 H   0  0  0  0  0  0  0  0  0  0  0  0
  138.6570   76.3030  218.2270 C   0  0  0  0  0  0  0  0  0  0  0  0
  138.5707   76.1200  219.3082 H   0  0  0  0  0  0  0  0  0  0  0  0
  137.6560   76.2859  217.7712 H   0  0  0  0  0  0  0  0  0  0  0  0
  139.2809   75.5200  217.7712 H   0  0  0  0  0  0  0  0  0  0  0  0
  141.8290   79.7630  218.6760 C   0  0  0  0  0  0  0  0  0  0  0  0
  142.1704   79.6296  219.7131 H   0  0  0  0  0  0  0  0  0  0  0  0
  140.9164   80.3769  218.6571 H   0  0  0  0  0  0  0  0  0  0  0  0
  142.9260   80.4710  217.8680 C   0  0  0  0  0  0  0  0  0  0  0  0
  143.8408   79.8611  217.9025 H   0  0  0  0  0  0  0  0  0  0  0  0
  143.0886   81.4624  218.3159 H   0  0  0  0  0  0  0  0  0  0  0  0
  139.6520   81.5790  217.9750 C   0  0  0  0  0  0  0  0  0  0  0  0
  139.2785   80.6899  217.4458 H   0  0  0  0  0  0  0  0  0  0  0  0
  136.8410   79.3050  220.1950 N   0  0  0  0  0  0  0  0  0  0  0  0
  135.9450   79.6180  219.7560 H   0  0  0  0  0  0  0  0  0  0  0  0
  136.8880   78.0920  220.8090 C   0  0  0  0  0  0  0  0  0  0  0  0
  135.9915   77.4551  220.8342 H   0  0  0  0  0  0  0  0  0  0  0  0
  138.0760   77.6510  221.4100 C   0  0  0  0  0  0  0  0  0  0  0  0
  138.1090   76.4620  222.2120 N   0  0  0  0  0  0  0  0  0  0  0  0
  137.0430   76.2500  223.1970 C   0  0  0  0  0  0  0  0  0  0  0  0
  137.4596   76.3328  224.2117 H   0  0  0  0  0  0  0  0  0  0  0  0
  136.2598   77.0100  223.0590 H   0  0  0  0  0  0  0  0  0  0  0  0
  136.6102   75.2482  223.0590 H   0  0  0  0  0  0  0  0  0  0  0  0
  1  2  1  0
  2  3  1  0
  3  4  2  0
  4  5  1  0
  4  6  1  0
  6  7  1  0
  6  8  1  0
  6  9  1  0
  9 10  1  0
 10 11  2  0
 11 12  1  0
 11 13  1  0
 13 14  1  0
 13 15  2  0
 15 16  1  0
 15 17  1  0
 17 18  1  0
 17 19  2  0
 19 20  1  0
  9 21  1  0
 21 22  2  0
 22 23  1  0
 23 24  2  0
 24 25  1  0
 25 26  2  0
 26 27  1  0
 26 28  1  0
 28 29  1  0
 28 30  2  0
 30 31  1  0
 30 32  1  0
 32 33  1  0
 33 34  2  0
 33 35  1  0
 35 36  1  6
 35 37  1  0
 37 38  1  0
 37 39  1  0
 37 40  1  0
 40 41  1  0
 40 42  1  0
 40 43  1  0
 43 44  1  6
 43 45  1  0
 45 46  1  0
 46 47  1  0
 46 48  1  0
 46 49  1  0
 49 50  1  0
 49 51  1  0
 49 52  1  0
 43 53  1  0
 53 54  1  0
 53 55  1  0
 53 56  1  0
 56 57  1  0
 56 58  1  0
 32 59  2  0
 59 60  1  0
 23 61  1  0
 61 62  1  0
 61 63  1  0
 63 64  1  0
 63 65  2  0
 65 66  1  0
 66 67  1  0
 67 68  1  0
 67 69  1  0
 67 70  1  0
 66  3  1  0
 19 10  1  0
 65 21  1  0
 59 25  1  0
 56 35  1  0
M  CHG  1  35   1
M  END
>  <UniqueID>  (52) 
23

>  <SMILES>  (52) 
CCOC1CC[NH+](C(=O)c2cccc(/N=c3\nc4c(c[nH]3)N(C)C(O)=CCN4c3ccccc3)c2)CC1

>  <Energy>  (52) 
112.19393791108931

>  <Genealogy>  (52) 
CCOC1CC[NH+](C(=O)c2cccc(N=c3nc4c(c[nH]3)N(C)C(=O)CCN4c3ccccc3)c2)CC1 (protonated)
CCOC1CC[NH+](C(=O)c2cccc(N=c3nc4c(c[nH]3)N(C)C(O)=CCN4c3ccccc3)c2)CC1 (tautomer)
CCOC1CC[NH+](C(=O)c2cccc(/N=c3\nc4c(c[nH]3)N(C)C(O)=CCN4c3ccccc3)c2)CC1 (cis-trans isomerization)
CCOC1CC[NH+](C(=O)c2cccc(/N=c3\nc4c(c[nH]3)N(C)C(O)=CCN4c3ccccc3)c2)CC1 (3D coordinates assigned)
CCOC1CC[NH+](C(=O)c2cccc(/N=c3\nc4c(c[nH]3)N(C)C(O)=CCN4c3ccccc3)c2)CC1 (nonaromatic ring conformer: 112.19393791108931 kcal/mol)

>  <smiles>  (52) 
CCOC1CCN(C(=O)c2cccc(N=c3nc4c(c[nH]3)N(C)C(=O)CCN4c3ccccc3)c2)CC1

>  <score_type>  (52) 
oracle

>  <origin>  (52) 
autodockgpu

>  <m_score__min__energy>  (52) 
-7.3200000000000003

>  <m_primary>  (52) 
energy

>  <meeko>  (52) 
{"free_energy": -4.51, "intermolecular_energy": -8.39, "internal_energy": -3.15, "cluster_size": 2, "cluster_id": 4, "rank_in_cluster": 2}

>  <energy>  (52) 
-4.56

>  <cluster_rmsd>  (52) 
0.44

>  <rmsd>  (52) 
270.98

>  <cluster>  (52) 
5

$$$$
FLYFIANCBVDDDY-IGPOTQGWNA-O
     RDKit          3D

 70 74  0  0  0  0  0  0  0  0999 V2000
  144.3010   70.6310  221.5090 H   0  0  0  0  0  0  0  0  0  0  0  0
  143.7650   70.9900  220.7290 O   0  0  0  0  0  0  0  0  0  0  0  0
  143.4380   72.3420  220.6070 C   0  0  0  0  0  0  0  0  0  0  0  0
  144.4180   73.2270  220.8580 C   0  0  0  0  0  0  0  0  0  0  0  0
  145.2691   72.8352  221.4342 H   0  0  0  0  0  0  0  0  0  0  0  0
  144.5200   74.6800  220.4640 C   0  0  0  0  0  0  0  0  0  0  0  0
  144.7940   75.2585  221.3586 H   0  0  0  0  0  0  0  0  0  0  0  0
  145.2745   74.7316  219.6652 H   0  0  0  0  0  0  0  0  0  0  0  0
  143.2910   75.2550  219.9080 N   0  0  0  0  0  0  0  0  0  0  0  0
  143.1580   75.4720  218.4880 C   0  0  0  0  0  0  0  0  0  0  0  0
  143.1130   76.7710  217.9500 C   0  0  0  0  0  0  0  0  0  0  0  0
  143.1148   77.6417  218.6223 H   0  0  0  0  0  0  0  0  0  0  0  0
  143.0660   76.9620  216.5650 C   0  0  0  0  0  0  0  0  0  0  0  0
  143.0282   77.9806  216.1513 H   0  0  0  0  0  0  0  0  0  0  0  0
  143.0670   75.8580  215.7060 C   0  0  0  0  0  0  0  0  0  0  0  0
  143.0268   76.0087  214.6171 H   0  0  0  0  0  0  0  0  0  0  0  0
  143.1190   74.5650  216.2300 C   0  0  0  0  0  0  0  0  0  0  0  0
  143.1222   73.6980  215.5530 H   0  0  0  0  0  0  0  0  0  0  0  0
  143.1670   74.3700  217.6130 C   0  0  0  0  0  0  0  0  0  0  0  0
  143.2121   73.3491  218.0200 H   0  0  0  0  0  0  0  0  0  0  0  0
  142.0900   75.1180  220.6710 C   0  0  0  0  0  0  0  0  0  0  0  0
  141.5860   76.1900  221.3320 N   0  0  0  0  0  0  0  0  0  0  0  0
  140.4560   76.0990  222.0850 C   0  0  0  0  0  0  0  0  0  0  0  0
  139.9940   77.1420  222.7140 N   0  0  0  0  0  0  0  0  0  0  0  0
  140.6560   78.4160  222.7760 C   0  0  0  0  0  0  0  0  0  0  0  0
  141.6790   78.6580  223.7060 C   0  0  0  0  0  0  0  0  0  0  0  0
  141.9768   77.8681  224.4112 H   0  0  0  0  0  0  0  0  0  0  0  0
  142.3190   79.8960  223.7390 C   0  0  0  0  0  0  0  0  0  0  0  0
  143.1230   80.0786  224.4671 H   0  0  0  0  0  0  0  0  0  0  0  0
  141.9420   80.9050  222.8500 C   0  0  0  0  0  0  0  0  0  0  0  0
  142.4537   81.8783  222.8805 H   0  0  0  0  0  0  0  0  0  0  0  0
  140.9110   80.6860  221.9140 C   0  0  0  0  0  0  0  0  0  0  0  0
  140.5150   81.7280  220.9240 C   0  0  0  0  0  0  0  0  0  0  0  0
  139.5410   82.4800  221.2130 O   0  0  0  0  0  0  0  0  0  0  0  0
  141.2010   81.8710  219.6450 N   0  0  2  0  0  0  0  0  0  0  0  0
  141.7220   82.7760  219.6790 H   0  0  0  0  0  0  0  0  0  0  0  0
  140.2820   81.9910  218.4820 C   0  0  0  0  0  0  0  0  0  0  0  0
  140.8563   82.3635  217.6210 H   0  0  0  0  0  0  0  0  0  0  0  0
  139.4765   82.6806  218.7748 H   0  0  0  0  0  0  0  0  0  0  0  0
  139.6160   80.6550  218.0850 C   0  0  0  0  0  0  0  0  0  0  0  0
  139.0621   80.7973  217.1454 H   0  0  0  0  0  0  0  0  0  0  0  0
  138.9388   80.3526  218.8974 H   0  0  0  0  0  0  0  0  0  0  0  0
  140.6570   79.5430  217.8870 C   0  0  2  0  0  0  0  0  0  0  0  0
  141.2734   79.7830  217.0081 H   0  0  0  0  0  0  0  0  0  0  0  0
  140.0050   78.3000  217.6890 O   0  0  0  0  0  0  0  0  0  0  0  0
  139.9130   77.5630  218.8930 C   0  0  0  0  0  0  0  0  0  0  0  0
  139.1346   78.0066  219.5313 H   0  0  0  0  0  0  0  0  0  0  0  0
  140.8851   77.5945  219.4068 H   0  0  0  0  0  0  0  0  0  0  0  0
  139.5550   76.1120  218.5990 C   0  0  0  0  0  0  0  0  0  0  0  0
  139.4209   75.5684  219.5458 H   0  0  0  0  0  0  0  0  0  0  0  0
  138.6208   76.0750  218.0194 H   0  0  0  0  0  0  0  0  0  0  0  0
  140.3648   75.6447  218.0194 H   0  0  0  0  0  0  0  0  0  0  0  0
  141.5310   79.4400  219.1370 C   0  0  0  0  0  0  0  0  0  0  0  0
  142.3095   78.6800  218.9747 H   0  0  0  0  0  0  0  0  0  0  0  0
  140.9016   79.1554  219.9931 H   0  0  0  0  0  0  0  0  0  0  0  0
  142.1960   80.7930  219.4310 C   0  0  0  0  0  0  0  0  0  0  0  0
  142.8361   81.0657  218.5790 H   0  0  0  0  0  0  0  0  0  0  0  0
  142.7833   80.6870  220.3551 H   0  0  0  0  0  0  0  0  0  0  0  0
  140.2550   79.4390  221.9090 C   0  0  0  0  0  0  0  0  0  0  0  0
  139.4183   79.2675  221.2159 H   0  0  0  0  0  0  0  0  0  0  0  0
  139.7960   74.9120  222.1590 N   0  0  0  0  0  0  0  0  0  0  0  0
  138.9210   74.8310  222.7270 H   0  0  0  0  0  0  0  0  0  0  0  0
  140.2820   73.8050  221.5340 C   0  0  0  0  0  0  0  0  0  0  0  0
  139.7525   72.8453  221.6272 H   0  0  0  0  0  0  0  0  0  0  0  0
  141.4570   73.8850  220.7710 C   0  0  0  0  0  0  0  0  0  0  0  0
  142.0870   72.7070  220.2480 N   0  0  0  0  0  0  0  0  0  0  0  0
  141.4030   71.9560  219.1910 C   0  0  0  0  0  0  0  0  0  0  0  0
  140.7284   71.2153  219.6452 H   0  0  0  0  0  0  0  0  0  0  0  0
  140.8197   72.6494  218.5673 H   0  0  0  0  0  0  0  0  0  0  0  0
  142.1477   71.4398  218.5673 H   0  0  0  0  0  0  0  0  0  0  0  0
  1  2  1  0
  2  3  1  0
  3  4  2  0
  4  5  1  0
  4  6  1  0
  6  7  1  0
  6  8  1  0
  6  9  1  0
  9 10  1  0
 10 11  2  0
 11 12  1  0
 11 13  1  0
 13 14  1  0
 13 15  2  0
 15 16  1  0
 15 17  1  0
 17 18  1  0
 17 19  2  0
 19 20  1  0
  9 21  1  0
 21 22  2  0
 22 23  1  0
 23 24  2  0
 24 25  1  0
 25 26  2  0
 26 27  1  0
 26 28  1  0
 28 29  1  0
 28 30  2  0
 30 31  1  0
 30 32  1  0
 32 33  1  0
 33 34  2  0
 33 35  1  0
 35 36  1  1
 35 37  1  0
 37 38  1  0
 37 39  1  0
 37 40  1  0
 40 41  1  0
 40 42  1  0
 40 43  1  0
 43 44  1  6
 43 45  1  0
 45 46  1  0
 46 47  1  0
 46 48  1  0
 46 49  1  0
 49 50  1  0
 49 51  1  0
 49 52  1  0
 43 53  1  0
 53 54  1  0
 53 55  1  0
 53 56  1  0
 56 57  1  0
 56 58  1  0
 32 59  2  0
 59 60  1  0
 23 61  1  0
 61 62  1  0
 61 63  1  0
 63 64  1  0
 63 65  2  0
 65 66  1  0
 66 67  1  0
 67 68  1  0
 67 69  1  0
 67 70  1  0
 66  3  1  0
 19 10  1  0
 65 21  1  0
 59 25  1  0
 56 35  1  0
M  CHG  1  35   1
M  END
>  <UniqueID>  (53) 
23

>  <SMILES>  (53) 
CCOC1CC[NH+](C(=O)c2cccc(/N=c3\nc4c(c[nH]3)N(C)C(O)=CCN4c3ccccc3)c2)CC1

>  <Energy>  (53) 
112.19393791108931

>  <Genealogy>  (53) 
CCOC1CC[NH+](C(=O)c2cccc(N=c3nc4c(c[nH]3)N(C)C(=O)CCN4c3ccccc3)c2)CC1 (protonated)
CCOC1CC[NH+](C(=O)c2cccc(N=c3nc4c(c[nH]3)N(C)C(O)=CCN4c3ccccc3)c2)CC1 (tautomer)
CCOC1CC[NH+](C(=O)c2cccc(/N=c3\nc4c(c[nH]3)N(C)C(O)=CCN4c3ccccc3)c2)CC1 (cis-trans isomerization)
CCOC1CC[NH+](C(=O)c2cccc(/N=c3\nc4c(c[nH]3)N(C)C(O)=CCN4c3ccccc3)c2)CC1 (3D coordinates assigned)
CCOC1CC[NH+](C(=O)c2cccc(/N=c3\nc4c(c[nH]3)N(C)C(O)=CCN4c3ccccc3)c2)CC1 (nonaromatic ring conformer: 112.19393791108931 kcal/mol)

>  <smiles>  (53) 
CCOC1CCN(C(=O)c2cccc(N=c3nc4c(c[nH]3)N(C)C(=O)CCN4c3ccccc3)c2)CC1

>  <score_type>  (53) 
oracle

>  <origin>  (53) 
autodockgpu

>  <m_score__min__energy>  (53) 
-7.3200000000000003

>  <m_primary>  (53) 
energy

>  <meeko>  (53) 
{"free_energy": -4.52, "intermolecular_energy": -8.39, "internal_energy": -3.18, "cluster_size": 4, "cluster_id": 6, "rank_in_cluster": 2}

>  <energy>  (53) 
-4.54

>  <cluster_rmsd>  (53) 
0.0

>  <rmsd>  (53) 
271.4

>  <cluster>  (53) 
6

$$$$
FLYFIANCBVDDDY-IGPOTQGWNA-O
     RDKit          3D

 70 74  0  0  0  0  0  0  0  0999 V2000
  134.6690   68.7930  222.8350 H   0  0  0  0  0  0  0  0  0  0  0  0
  135.3560   68.5690  223.5430 O   0  0  0  0  0  0  0  0  0  0  0  0
  136.5840   69.2290  223.6290 C   0  0  0  0  0  0  0  0  0  0  0  0
  137.6740   68.4620  223.8050 C   0  0  0  0  0  0  0  0  0  0  0  0
  137.5461   67.3979  223.5575 H   0  0  0  0  0  0  0  0  0  0  0  0
  139.0470   68.8510  224.2930 C   0  0  0  0  0  0  0  0  0  0  0  0
  139.2769   68.2476  225.1835 H   0  0  0  0  0  0  0  0  0  0  0  0
  139.7356   68.6693  223.4547 H   0  0  0  0  0  0  0  0  0  0  0  0
  139.1970   70.2660  224.6500 N   0  0  0  0  0  0  0  0  0  0  0  0
  139.9960   70.6580  225.7850 C   0  0  0  0  0  0  0  0  0  0  0  0
  140.7280   71.8600  225.7810 C   0  0  0  0  0  0  0  0  0  0  0  0
  140.7473   72.4858  224.8766 H   0  0  0  0  0  0  0  0  0  0  0  0
  141.4310   72.2630  226.9210 C   0  0  0  0  0  0  0  0  0  0  0  0
  142.0034   73.2023  226.9100 H   0  0  0  0  0  0  0  0  0  0  0  0
  141.4070   71.4730  228.0750 C   0  0  0  0  0  0  0  0  0  0  0  0
  141.9632   71.7892  228.9698 H   0  0  0  0  0  0  0  0  0  0  0  0
  140.6770   70.2830  228.0910 C   0  0  0  0  0  0  0  0  0  0  0  0
  140.6564   69.6641  229.0002 H   0  0  0  0  0  0  0  0  0  0  0  0
  139.9720   69.8760  226.9540 C   0  0  0  0  0  0  0  0  0  0  0  0
  139.3956   68.9393  226.9739 H   0  0  0  0  0  0  0  0  0  0  0  0
  138.9930   71.2350  223.6200 C   0  0  0  0  0  0  0  0  0  0  0  0
  140.0150   72.0470  223.2460 N   0  0  0  0  0  0  0  0  0  0  0  0
  139.8590   72.9950  222.2840 C   0  0  0  0  0  0  0  0  0  0  0  0
  140.8540   73.7650  221.9450 N   0  0  0  0  0  0  0  0  0  0  0  0
  140.7110   75.0440  221.3060 C   0  0  0  0  0  0  0  0  0  0  0  0
  140.2510   75.1480  219.9830 C   0  0  0  0  0  0  0  0  0  0  0  0
  140.0044   74.2387  219.4153 H   0  0  0  0  0  0  0  0  0  0  0  0
  140.1060   76.4000  219.3870 C   0  0  0  0  0  0  0  0  0  0  0  0
  139.7418   76.4760  218.3518 H   0  0  0  0  0  0  0  0  0  0  0  0
  140.4220   77.5580  220.1010 C   0  0  0  0  0  0  0  0  0  0  0  0
  140.3007   78.5423  219.6251 H   0  0  0  0  0  0  0  0  0  0  0  0
  140.8950   77.4760  221.4260 C   0  0  0  0  0  0  0  0  0  0  0  0
  141.2000   78.6950  222.2270 C   0  0  0  0  0  0  0  0  0  0  0  0
  140.4490   78.9630  223.2080 O   0  0  0  0  0  0  0  0  0  0  0  0
  142.3120   79.5770  221.8900 N   0  0  2  0  0  0  0  0  0  0  0  0
  143.1700   78.9830  221.8490 H   0  0  0  0  0  0  0  0  0  0  0  0
  142.5960   80.6060  222.9250 C   0  0  0  0  0  0  0  0  0  0  0  0
  143.5899   81.0339  222.7273 H   0  0  0  0  0  0  0  0  0  0  0  0
  142.5451   80.1046  223.9028 H   0  0  0  0  0  0  0  0  0  0  0  0
  141.5650   81.7550  222.9490 C   0  0  0  0  0  0  0  0  0  0  0  0
  141.9146   82.5343  223.6422 H   0  0  0  0  0  0  0  0  0  0  0  0
  140.5985   81.3441  223.2762 H   0  0  0  0  0  0  0  0  0  0  0  0
  141.3780   82.3740  221.5560 C   0  0  2  0  0  0  0  0  0  0  0  0
  142.3083   82.8826  221.2630 H   0  0  0  0  0  0  0  0  0  0  0  0
  140.3100   83.3060  221.5810 O   0  0  0  0  0  0  0  0  0  0  0  0
  139.0530   82.6600  221.5150 C   0  0  0  0  0  0  0  0  0  0  0  0
  139.0219   81.8502  222.2588 H   0  0  0  0  0  0  0  0  0  0  0  0
  138.9150   82.2492  220.5040 H   0  0  0  0  0  0  0  0  0  0  0  0
  137.9320   83.6510  221.8040 C   0  0  0  0  0  0  0  0  0  0  0  0
  137.8096   83.7592  222.8918 H   0  0  0  0  0  0  0  0  0  0  0  0
  138.1835   84.6275  221.3644 H   0  0  0  0  0  0  0  0  0  0  0  0
  136.9937   83.2817  221.3644 H   0  0  0  0  0  0  0  0  0  0  0  0
  141.0370   81.2710  220.5540 C   0  0  0  0  0  0  0  0  0  0  0  0
  140.9553   81.7068  219.5473 H   0  0  0  0  0  0  0  0  0  0  0  0
  140.0813   80.8078  220.8405 H   0  0  0  0  0  0  0  0  0  0  0  0
  142.1350   80.1980  220.5550 C   0  0  0  0  0  0  0  0  0  0  0  0
  143.0847   80.6631  220.2522 H   0  0  0  0  0  0  0  0  0  0  0  0
  141.8339   79.4069  219.8525 H   0  0  0  0  0  0  0  0  0  0  0  0
  141.0610   76.2040  222.0080 C   0  0  0  0  0  0  0  0  0  0  0  0
  141.4703   76.1210  223.0256 H   0  0  0  0  0  0  0  0  0  0  0  0
  138.6580   73.1200  221.6560 N   0  0  0  0  0  0  0  0  0  0  0  0
  138.5280   73.8390  220.9080 H   0  0  0  0  0  0  0  0  0  0  0  0
  137.6000   72.3460  222.0190 C   0  0  0  0  0  0  0  0  0  0  0  0
  136.6273   72.4790  221.5228 H   0  0  0  0  0  0  0  0  0  0  0  0
  137.7460   71.3780  223.0250 C   0  0  0  0  0  0  0  0  0  0  0  0
  136.6130   70.6710  223.5490 N   0  0  0  0  0  0  0  0  0  0  0  0
  135.3910   71.4250  223.8460 C   0  0  0  0  0  0  0  0  0  0  0  0
  135.2642   71.5032  224.9359 H   0  0  0  0  0  0  0  0  0  0  0  0
  135.4677   72.4331  223.4125 H   0  0  0  0  0  0  0  0  0  0  0  0
  134.5244   70.9044  223.4125 H   0  0  0  0  0  0  0  0  0  0  0  0
  1  2  1  0
  2  3  1  0
  3  4  2  0
  4  5  1  0
  4  6  1  0
  6  7  1  0
  6  8  1  0
  6  9  1  0
  9 10  1  0
 10 11  2  0
 11 12  1  0
 11 13  1  0
 13 14  1  0
 13 15  2  0
 15 16  1  0
 15 17  1  0
 17 18  1  0
 17 19  2  0
 19 20  1  0
  9 21  1  0
 21 22  2  0
 22 23  1  0
 23 24  2  0
 24 25  1  0
 25 26  2  0
 26 27  1  0
 26 28  1  0
 28 29  1  0
 28 30  2  0
 30 31  1  0
 30 32  1  0
 32 33  1  0
 33 34  2  0
 33 35  1  0
 35 36  1  6
 35 37  1  0
 37 38  1  0
 37 39  1  0
 37 40  1  0
 40 41  1  0
 40 42  1  0
 40 43  1  0
 43 44  1  6
 43 45  1  0
 45 46  1  0
 46 47  1  0
 46 48  1  0
 46 49  1  0
 49 50  1  0
 49 51  1  0
 49 52  1  0
 43 53  1  0
 53 54  1  0
 53 55  1  0
 53 56  1  0
 56 57  1  0
 56 58  1  0
 32 59  2  0
 59 60  1  0
 23 61  1  0
 61 62  1  0
 61 63  1  0
 63 64  1  0
 63 65  2  0
 65 66  1  0
 66 67  1  0
 67 68  1  0
 67 69  1  0
 67 70  1  0
 66  3  1  0
 19 10  1  0
 65 21  1  0
 59 25  1  0
 56 35  1  0
M  CHG  1  35   1
M  END
>  <UniqueID>  (54) 
23

>  <SMILES>  (54) 
CCOC1CC[NH+](C(=O)c2cccc(/N=c3\nc4c(c[nH]3)N(C)C(O)=CCN4c3ccccc3)c2)CC1

>  <Energy>  (54) 
112.19393791108931

>  <Genealogy>  (54) 
CCOC1CC[NH+](C(=O)c2cccc(N=c3nc4c(c[nH]3)N(C)C(=O)CCN4c3ccccc3)c2)CC1 (protonated)
CCOC1CC[NH+](C(=O)c2cccc(N=c3nc4c(c[nH]3)N(C)C(O)=CCN4c3ccccc3)c2)CC1 (tautomer)
CCOC1CC[NH+](C(=O)c2cccc(/N=c3\nc4c(c[nH]3)N(C)C(O)=CCN4c3ccccc3)c2)CC1 (cis-trans isomerization)
CCOC1CC[NH+](C(=O)c2cccc(/N=c3\nc4c(c[nH]3)N(C)C(O)=CCN4c3ccccc3)c2)CC1 (3D coordinates assigned)
CCOC1CC[NH+](C(=O)c2cccc(/N=c3\nc4c(c[nH]3)N(C)C(O)=CCN4c3ccccc3)c2)CC1 (nonaromatic ring conformer: 112.19393791108931 kcal/mol)

>  <smiles>  (54) 
CCOC1CCN(C(=O)c2cccc(N=c3nc4c(c[nH]3)N(C)C(=O)CCN4c3ccccc3)c2)CC1

>  <score_type>  (54) 
oracle

>  <origin>  (54) 
autodockgpu

>  <m_score__min__energy>  (54) 
-7.3200000000000003

>  <m_primary>  (54) 
energy

>  <meeko>  (54) 
{"free_energy": -7.32, "intermolecular_energy": -11.2, "internal_energy": -1.14, "cluster_size": 4, "cluster_id": 1, "rank_in_cluster": 1}

>  <energy>  (54) 
-4.52

>  <cluster_rmsd>  (54) 
0.23

>  <rmsd>  (54) 
271.42

>  <cluster>  (54) 
6

$$$$
FLYFIANCBVDDDY-IGPOTQGWNA-O
     RDKit          3D

 70 74  0  0  0  0  0  0  0  0999 V2000
  146.2930   71.1920  220.1550 H   0  0  0  0  0  0  0  0  0  0  0  0
  146.1200   71.7100  219.3030 O   0  0  0  0  0  0  0  0  0  0  0  0
  145.2740   72.8200  219.2630 C   0  0  0  0  0  0  0  0  0  0  0  0
  145.1350   73.5160  220.4050 C   0  0  0  0  0  0  0  0  0  0  0  0
  145.9024   73.3244  221.1695 H   0  0  0  0  0  0  0  0  0  0  0  0
  144.0780   74.5220  220.7890 C   0  0  0  0  0  0  0  0  0  0  0  0
  143.6013   74.1790  221.7191 H   0  0  0  0  0  0  0  0  0  0  0  0
  144.5944   75.4874  220.8955 H   0  0  0  0  0  0  0  0  0  0  0  0
  143.0280   74.7250  219.7870 N   0  0  0  0  0  0  0  0  0  0  0  0
  141.6550   74.9160  220.1880 C   0  0  0  0  0  0  0  0  0  0  0  0
  140.6030   74.8080  219.2600 C   0  0  0  0  0  0  0  0  0  0  0  0
  140.8271   74.6384  218.1965 H   0  0  0  0  0  0  0  0  0  0  0  0
  139.2740   74.9150  219.6820 C   0  0  0  0  0  0  0  0  0  0  0  0
  138.4565   74.8324  218.9507 H   0  0  0  0  0  0  0  0  0  0  0  0
  138.9840   75.1270  221.0340 C   0  0  0  0  0  0  0  0  0  0  0  0
  137.9385   75.2142  221.3648 H   0  0  0  0  0  0  0  0  0  0  0  0
  140.0210   75.2280  221.9640 C   0  0  0  0  0  0  0  0  0  0  0  0
  139.7912   75.3920  223.0272 H   0  0  0  0  0  0  0  0  0  0  0  0
  141.3500   75.1210  221.5460 C   0  0  0  0  0  0  0  0  0  0  0  0
  142.1628   75.1975  222.2833 H   0  0  0  0  0  0  0  0  0  0  0  0
  143.4190   75.2330  218.5090 C   0  0  0  0  0  0  0  0  0  0  0  0
  142.9440   76.4320  218.0850 N   0  0  0  0  0  0  0  0  0  0  0  0
  143.2750   76.9420  216.8690 C   0  0  0  0  0  0  0  0  0  0  0  0
  142.8030   78.0930  216.4830 N   0  0  0  0  0  0  0  0  0  0  0  0
  141.8970   78.9010  217.2510 C   0  0  0  0  0  0  0  0  0  0  0  0
  140.6110   79.2030  216.7750 C   0  0  0  0  0  0  0  0  0  0  0  0
  140.2882   78.8282  215.7925 H   0  0  0  0  0  0  0  0  0  0  0  0
  139.7420   79.9760  217.5430 C   0  0  0  0  0  0  0  0  0  0  0  0
  138.7347   80.2071  217.1662 H   0  0  0  0  0  0  0  0  0  0  0  0
  140.1470   80.4580  218.7900 C   0  0  0  0  0  0  0  0  0  0  0  0
  139.4536   81.0636  219.3920 H   0  0  0  0  0  0  0  0  0  0  0  0
  141.4360   80.1750  219.2830 C   0  0  0  0  0  0  0  0  0  0  0  0
  141.8830   80.6400  220.6270 C   0  0  0  0  0  0  0  0  0  0  0  0
  141.8520   81.8810  220.8650 O   0  0  0  0  0  0  0  0  0  0  0  0
  142.3690   79.7080  221.6380 N   0  0  2  0  0  0  0  0  0  0  0  0
  143.3160   79.3910  221.3300 H   0  0  0  0  0  0  0  0  0  0  0  0
  141.5580   78.4660  221.7490 C   0  0  0  0  0  0  0  0  0  0  0  0
  142.1351   77.7225  222.3183 H   0  0  0  0  0  0  0  0  0  0  0  0
  141.3400   78.1280  220.7252 H   0  0  0  0  0  0  0  0  0  0  0  0
  140.2020   78.6800  222.4570 C   0  0  0  0  0  0  0  0  0  0  0  0
  139.7241   77.7022  222.6168 H   0  0  0  0  0  0  0  0  0  0  0  0
  139.5771   79.3219  221.8187 H   0  0  0  0  0  0  0  0  0  0  0  0
  140.3790   79.3770  223.8150 C   0  0  2  0  0  0  0  0  0  0  0  0
  140.9111   78.6999  224.4994 H   0  0  0  0  0  0  0  0  0  0  0  0
  139.1110   79.7060  224.3570 O   0  0  0  0  0  0  0  0  0  0  0  0
  138.5290   80.8090  223.6890 C   0  0  0  0  0  0  0  0  0  0  0  0
  138.1217   80.4746  222.7234 H   0  0  0  0  0  0  0  0  0  0  0  0
  139.3001   81.5767  223.5275 H   0  0  0  0  0  0  0  0  0  0  0  0
  137.4060   81.4040  224.5290 C   0  0  0  0  0  0  0  0  0  0  0  0
  137.6410   81.2795  225.5964 H   0  0  0  0  0  0  0  0  0  0  0  0
  137.3035   82.4747  224.2986 H   0  0  0  0  0  0  0  0  0  0  0  0
  136.4626   80.8874  224.2986 H   0  0  0  0  0  0  0  0  0  0  0  0
  141.1740   80.6680  223.6190 C   0  0  0  0  0  0  0  0  0  0  0  0
  141.3456   81.1411  224.5971 H   0  0  0  0  0  0  0  0  0  0  0  0
  140.6021   81.3465  222.9689 H   0  0  0  0  0  0  0  0  0  0  0  0
  142.5260   80.3630  222.9590 C   0  0  0  0  0  0  0  0  0  0  0  0
  143.1001   79.6962  223.6191 H   0  0  0  0  0  0  0  0  0  0  0  0
  143.0486   81.3182  222.8025 H   0  0  0  0  0  0  0  0  0  0  0  0
  142.3140   79.4140  218.4850 C   0  0  0  0  0  0  0  0  0  0  0  0
  143.3385   79.2210  218.8359 H   0  0  0  0  0  0  0  0  0  0  0  0
  144.1260   76.2510  216.0630 N   0  0  0  0  0  0  0  0  0  0  0  0
  144.3960   76.6370  215.1290 H   0  0  0  0  0  0  0  0  0  0  0  0
  144.6040   75.0330  216.4370 C   0  0  0  0  0  0  0  0  0  0  0  0
  145.2677   74.4730  215.7619 H   0  0  0  0  0  0  0  0  0  0  0  0
  144.2520   74.4900  217.6820 C   0  0  0  0  0  0  0  0  0  0  0  0
  144.5940   73.1400  218.0300 N   0  0  0  0  0  0  0  0  0  0  0  0
  144.4030   72.0870  217.0270 C   0  0  0  0  0  0  0  0  0  0  0  0
  144.2287   71.1259  217.5330 H   0  0  0  0  0  0  0  0  0  0  0  0
  143.5348   72.3330  216.3979 H   0  0  0  0  0  0  0  0  0  0  0  0
  145.3023   72.0124  216.3979 H   0  0  0  0  0  0  0  0  0  0  0  0
  1  2  1  0
  2  3  1  0
  3  4  2  0
  4  5  1  0
  4  6  1  0
  6  7  1  0
  6  8  1  0
  6  9  1  0
  9 10  1  0
 10 11  2  0
 11 12  1  0
 11 13  1  0
 13 14  1  0
 13 15  2  0
 15 16  1  0
 15 17  1  0
 17 18  1  0
 17 19  2  0
 19 20  1  0
  9 21  1  0
 21 22  2  0
 22 23  1  0
 23 24  2  0
 24 25  1  0
 25 26  2  0
 26 27  1  0
 26 28  1  0
 28 29  1  0
 28 30  2  0
 30 31  1  0
 30 32  1  0
 32 33  1  0
 33 34  2  0
 33 35  1  0
 35 36  1  6
 35 37  1  0
 37 38  1  0
 37 39  1  0
 37 40  1  0
 40 41  1  0
 40 42  1  0
 40 43  1  0
 43 44  1  1
 43 45  1  0
 45 46  1  0
 46 47  1  0
 46 48  1  0
 46 49  1  0
 49 50  1  0
 49 51  1  0
 49 52  1  0
 43 53  1  0
 53 54  1  0
 53 55  1  0
 53 56  1  0
 56 57  1  0
 56 58  1  0
 32 59  2  0
 59 60  1  0
 23 61  1  0
 61 62  1  0
 61 63  1  0
 63 64  1  0
 63 65  2  0
 65 66  1  0
 66 67  1  0
 67 68  1  0
 67 69  1  0
 67 70  1  0
 66  3  1  0
 19 10  1  0
 65 21  1  0
 59 25  1  0
 56 35  1  0
M  CHG  1  35   1
M  END
>  <UniqueID>  (55) 
23

>  <SMILES>  (55) 
CCOC1CC[NH+](C(=O)c2cccc(/N=c3\nc4c(c[nH]3)N(C)C(O)=CCN4c3ccccc3)c2)CC1

>  <Energy>  (55) 
112.19393791108931

>  <Genealogy>  (55) 
CCOC1CC[NH+](C(=O)c2cccc(N=c3nc4c(c[nH]3)N(C)C(=O)CCN4c3ccccc3)c2)CC1 (protonated)
CCOC1CC[NH+](C(=O)c2cccc(N=c3nc4c(c[nH]3)N(C)C(O)=CCN4c3ccccc3)c2)CC1 (tautomer)
CCOC1CC[NH+](C(=O)c2cccc(/N=c3\nc4c(c[nH]3)N(C)C(O)=CCN4c3ccccc3)c2)CC1 (cis-trans isomerization)
CCOC1CC[NH+](C(=O)c2cccc(/N=c3\nc4c(c[nH]3)N(C)C(O)=CCN4c3ccccc3)c2)CC1 (3D coordinates assigned)
CCOC1CC[NH+](C(=O)c2cccc(/N=c3\nc4c(c[nH]3)N(C)C(O)=CCN4c3ccccc3)c2)CC1 (nonaromatic ring conformer: 112.19393791108931 kcal/mol)

>  <smiles>  (55) 
CCOC1CCN(C(=O)c2cccc(N=c3nc4c(c[nH]3)N(C)C(=O)CCN4c3ccccc3)c2)CC1

>  <score_type>  (55) 
oracle

>  <origin>  (55) 
autodockgpu

>  <m_score__min__energy>  (55) 
-7.3200000000000003

>  <m_primary>  (55) 
energy

>  <meeko>  (55) 
{"free_energy": -5.23, "intermolecular_energy": -9.11, "internal_energy": -2.46, "cluster_size": 2, "cluster_id": 3, "rank_in_cluster": 1}

>  <energy>  (55) 
-4.47

>  <cluster_rmsd>  (55) 
0.45

>  <rmsd>  (55) 
271.4

>  <cluster>  (55) 
6

$$$$
FLYFIANCBVDDDY-IGPOTQGWNA-O
     RDKit          3D

 70 74  0  0  0  0  0  0  0  0999 V2000
  136.6880   80.2510  218.5710 H   0  0  0  0  0  0  0  0  0  0  0  0
  136.7610   80.0280  219.5550 O   0  0  0  0  0  0  0  0  0  0  0  0
  137.8610   79.3520  220.0880 C   0  0  0  0  0  0  0  0  0  0  0  0
  138.9380   79.2220  219.2950 C   0  0  0  0  0  0  0  0  0  0  0  0
  138.7484   79.3524  218.2193 H   0  0  0  0  0  0  0  0  0  0  0  0
  140.3700   78.9230  219.6660 C   0  0  0  0  0  0  0  0  0  0  0  0
  140.7320   78.1175  219.0101 H   0  0  0  0  0  0  0  0  0  0  0  0
  140.9239   79.8655  219.5439 H   0  0  0  0  0  0  0  0  0  0  0  0
  140.5720   78.5040  221.0560 N   0  0  0  0  0  0  0  0  0  0  0  0
  141.1200   79.4190  222.0280 C   0  0  0  0  0  0  0  0  0  0  0  0
  141.6620   78.9550  223.2410 C   0  0  0  0  0  0  0  0  0  0  0  0
  141.6127   77.8843  223.4881 H   0  0  0  0  0  0  0  0  0  0  0  0
  142.2630   79.8480  224.1340 C   0  0  0  0  0  0  0  0  0  0  0  0
  142.6816   79.4793  225.0821 H   0  0  0  0  0  0  0  0  0  0  0  0
  142.3320   81.2100  223.8220 C   0  0  0  0  0  0  0  0  0  0  0  0
  142.8027   81.9119  224.5261 H   0  0  0  0  0  0  0  0  0  0  0  0
  141.8040   81.6790  222.6180 C   0  0  0  0  0  0  0  0  0  0  0  0
  141.8607   82.7500  222.3735 H   0  0  0  0  0  0  0  0  0  0  0  0
  141.2030   80.7890  221.7220 C   0  0  0  0  0  0  0  0  0  0  0  0
  140.7928   81.1629  220.7723 H   0  0  0  0  0  0  0  0  0  0  0  0
  139.7790   77.4200  221.5440 C   0  0  0  0  0  0  0  0  0  0  0  0
  140.3430   76.1980  221.7210 N   0  0  0  0  0  0  0  0  0  0  0  0
  139.6210   75.1350  222.1650 C   0  0  0  0  0  0  0  0  0  0  0  0
  140.1830   73.9700  222.3220 N   0  0  0  0  0  0  0  0  0  0  0  0
  140.9670   73.3030  221.3190 C   0  0  0  0  0  0  0  0  0  0  0  0
  140.5900   72.0460  220.8200 C   0  0  0  0  0  0  0  0  0  0  0  0
  139.6865   71.5513  221.2060 H   0  0  0  0  0  0  0  0  0  0  0  0
  141.3570   71.4230  219.8370 C   0  0  0  0  0  0  0  0  0  0  0  0
  141.0552   70.4395  219.4476 H   0  0  0  0  0  0  0  0  0  0  0  0
  142.5070   72.0430  219.3450 C   0  0  0  0  0  0  0  0  0  0  0  0
  143.1036   71.5463  218.5657 H   0  0  0  0  0  0  0  0  0  0  0  0
  142.9100   73.3010  219.8390 C   0  0  0  0  0  0  0  0  0  0  0  0
  144.1080   74.0070  219.3060 C   0  0  0  0  0  0  0  0  0  0  0  0
  145.2330   73.7330  219.8140 O   0  0  0  0  0  0  0  0  0  0  0  0
  144.0030   75.0060  218.2480 N   0  0  2  0  0  0  0  0  0  0  0  0
  144.9610   75.1320  217.8510 H   0  0  0  0  0  0  0  0  0  0  0  0
  143.5990   76.3530  218.7330 C   0  0  0  0  0  0  0  0  0  0  0  0
  143.8074   77.0859  217.9396 H   0  0  0  0  0  0  0  0  0  0  0  0
  144.1754   76.5542  219.6480 H   0  0  0  0  0  0  0  0  0  0  0  0
  142.1040   76.4490  219.1070 C   0  0  0  0  0  0  0  0  0  0  0  0
  141.8573   77.4983  219.3263 H   0  0  0  0  0  0  0  0  0  0  0  0
  141.9271   75.8125  219.9866 H   0  0  0  0  0  0  0  0  0  0  0  0
  141.2040   75.9530  217.9650 C   0  0  2  0  0  0  0  0  0  0  0  0
  141.2909   76.6453  217.1146 H   0  0  0  0  0  0  0  0  0  0  0  0
  139.8560   75.8980  218.4010 O   0  0  0  0  0  0  0  0  0  0  0  0
  139.4160   74.5630  218.5620 C   0  0  0  0  0  0  0  0  0  0  0  0
  140.1490   74.0097  219.1674 H   0  0  0  0  0  0  0  0  0  0  0  0
  139.3175   74.0963  217.5708 H   0  0  0  0  0  0  0  0  0  0  0  0
  138.0620   74.5340  219.2610 C   0  0  0  0  0  0  0  0  0  0  0  0
  138.2118   74.5372  220.3507 H   0  0  0  0  0  0  0  0  0  0  0  0
  137.4792   75.4199  218.9684 H   0  0  0  0  0  0  0  0  0  0  0  0
  137.5177   73.6240  218.9684 H   0  0  0  0  0  0  0  0  0  0  0  0
  141.6400   74.5470  217.5520 C   0  0  0  0  0  0  0  0  0  0  0  0
  141.0305   74.2133  216.6993 H   0  0  0  0  0  0  0  0  0  0  0  0
  141.5013   73.8636  218.4028 H   0  0  0  0  0  0  0  0  0  0  0  0
  143.1210   74.5490  217.1470 C   0  0  0  0  0  0  0  0  0  0  0  0
  143.2518   75.2213  216.2863 H   0  0  0  0  0  0  0  0  0  0  0  0
  143.4033   73.5161  216.8953 H   0  0  0  0  0  0  0  0  0  0  0  0
  142.1400   73.9080  220.8510 C   0  0  0  0  0  0  0  0  0  0  0  0
  142.4641   74.8683  221.2784 H   0  0  0  0  0  0  0  0  0  0  0  0
  138.3040   75.3000  222.4670 N   0  0  0  0  0  0  0  0  0  0  0  0
  137.7400   74.4920  222.8180 H   0  0  0  0  0  0  0  0  0  0  0  0
  137.6930   76.5000  222.2790 C   0  0  0  0  0  0  0  0  0  0  0  0
  136.6212   76.6105  222.5006 H   0  0  0  0  0  0  0  0  0  0  0  0
  138.4260   77.5980  221.8030 C   0  0  0  0  0  0  0  0  0  0  0  0
  137.7760   78.8220  221.4290 N   0  0  0  0  0  0  0  0  0  0  0  0
  137.1610   79.6390  222.4800 C   0  0  0  0  0  0  0  0  0  0  0  0
  137.4542   79.2494  223.4660 H   0  0  0  0  0  0  0  0  0  0  0  0
  137.5013   80.6804  222.3812 H   0  0  0  0  0  0  0  0  0  0  0  0
  136.0661   79.6001  222.3812 H   0  0  0  0  0  0  0  0  0  0  0  0
  1  2  1  0
  2  3  1  0
  3  4  2  0
  4  5  1  0
  4  6  1  0
  6  7  1  0
  6  8  1  0
  6  9  1  0
  9 10  1  0
 10 11  2  0
 11 12  1  0
 11 13  1  0
 13 14  1  0
 13 15  2  0
 15 16  1  0
 15 17  1  0
 17 18  1  0
 17 19  2  0
 19 20  1  0
  9 21  1  0
 21 22  2  0
 22 23  1  0
 23 24  2  0
 24 25  1  0
 25 26  2  0
 26 27  1  0
 26 28  1  0
 28 29  1  0
 28 30  2  0
 30 31  1  0
 30 32  1  0
 32 33  1  0
 33 34  2  0
 33 35  1  0
 35 36  1  6
 35 37  1  0
 37 38  1  0
 37 39  1  0
 37 40  1  0
 40 41  1  0
 40 42  1  0
 40 43  1  0
 43 44  1  6
 43 45  1  0
 45 46  1  0
 46 47  1  0
 46 48  1  0
 46 49  1  0
 49 50  1  0
 49 51  1  0
 49 52  1  0
 43 53  1  0
 53 54  1  0
 53 55  1  0
 53 56  1  0
 56 57  1  0
 56 58  1  0
 32 59  2  0
 59 60  1  0
 23 61  1  0
 61 62  1  0
 61 63  1  0
 63 64  1  0
 63 65  2  0
 65 66  1  0
 66 67  1  0
 67 68  1  0
 67 69  1  0
 67 70  1  0
 66  3  1  0
 19 10  1  0
 65 21  1  0
 59 25  1  0
 56 35  1  0
M  CHG  1  35   1
M  END
>  <UniqueID>  (56) 
23

>  <SMILES>  (56) 
CCOC1CC[NH+](C(=O)c2cccc(/N=c3\nc4c(c[nH]3)N(C)C(O)=CCN4c3ccccc3)c2)CC1

>  <Energy>  (56) 
112.19393791108931

>  <Genealogy>  (56) 
CCOC1CC[NH+](C(=O)c2cccc(N=c3nc4c(c[nH]3)N(C)C(=O)CCN4c3ccccc3)c2)CC1 (protonated)
CCOC1CC[NH+](C(=O)c2cccc(N=c3nc4c(c[nH]3)N(C)C(O)=CCN4c3ccccc3)c2)CC1 (tautomer)
CCOC1CC[NH+](C(=O)c2cccc(/N=c3\nc4c(c[nH]3)N(C)C(O)=CCN4c3ccccc3)c2)CC1 (cis-trans isomerization)
CCOC1CC[NH+](C(=O)c2cccc(/N=c3\nc4c(c[nH]3)N(C)C(O)=CCN4c3ccccc3)c2)CC1 (3D coordinates assigned)
CCOC1CC[NH+](C(=O)c2cccc(/N=c3\nc4c(c[nH]3)N(C)C(O)=CCN4c3ccccc3)c2)CC1 (nonaromatic ring conformer: 112.19393791108931 kcal/mol)

>  <smiles>  (56) 
CCOC1CCN(C(=O)c2cccc(N=c3nc4c(c[nH]3)N(C)C(=O)CCN4c3ccccc3)c2)CC1

>  <score_type>  (56) 
oracle

>  <origin>  (56) 
autodockgpu

>  <m_score__min__energy>  (56) 
-7.3200000000000003

>  <m_primary>  (56) 
energy

>  <meeko>  (56) 
{"free_energy": -4.56, "intermolecular_energy": -8.44, "internal_energy": -3.15, "cluster_size": 3, "cluster_id": 5, "rank_in_cluster": 3}

>  <energy>  (56) 
-4.27

>  <cluster_rmsd>  (56) 
0.65

>  <rmsd>  (56) 
271.24

>  <cluster>  (56) 
6

$$$$
FLYFIANCBVDDDY-IGPOTQGWNA-O
     RDKit          3D

 70 74  0  0  0  0  0  0  0  0999 V2000
  136.9620   74.4500  223.5190 H   0  0  0  0  0  0  0  0  0  0  0  0
  136.5520   75.3220  223.2120 O   0  0  0  0  0  0  0  0  0  0  0  0
  137.3170   76.3590  222.6730 C   0  0  0  0  0  0  0  0  0  0  0  0
  138.5550   76.0420  222.2560 C   0  0  0  0  0  0  0  0  0  0  0  0
  138.7434   74.9674  222.1154 H   0  0  0  0  0  0  0  0  0  0  0  0
  139.7230   76.9470  221.9530 C   0  0  0  0  0  0  0  0  0  0  0  0
  140.5718   76.6303  222.5768 H   0  0  0  0  0  0  0  0  0  0  0  0
  139.9166   76.8512  220.8744 H   0  0  0  0  0  0  0  0  0  0  0  0
  139.4800   78.3710  222.2030 N   0  0  0  0  0  0  0  0  0  0  0  0
  140.5140   79.2070  222.7620 C   0  0  0  0  0  0  0  0  0  0  0  0
  141.8750   78.8760  222.6230 C   0  0  0  0  0  0  0  0  0  0  0  0
  142.1612   77.9320  222.1362 H   0  0  0  0  0  0  0  0  0  0  0  0
  142.8650   79.7400  223.1000 C   0  0  0  0  0  0  0  0  0  0  0  0
  143.9264   79.4726  222.9908 H   0  0  0  0  0  0  0  0  0  0  0  0
  142.5080   80.9440  223.7160 C   0  0  0  0  0  0  0  0  0  0  0  0
  143.2881   81.6218  224.0930 H   0  0  0  0  0  0  0  0  0  0  0  0
  141.1610   81.2850  223.8520 C   0  0  0  0  0  0  0  0  0  0  0  0
  140.8811   82.2329  224.3350 H   0  0  0  0  0  0  0  0  0  0  0  0
  140.1670   80.4250  223.3760 C   0  0  0  0  0  0  0  0  0  0  0  0
  139.1077   80.7018  223.4819 H   0  0  0  0  0  0  0  0  0  0  0  0
  138.4510   79.0120  221.4460 C   0  0  0  0  0  0  0  0  0  0  0  0
  138.7660   80.0330  220.6090 N   0  0  0  0  0  0  0  0  0  0  0  0
  137.8160   80.6820  219.8840 C   0  0  0  0  0  0  0  0  0  0  0  0
  138.1420   81.6620  219.0900 N   0  0  0  0  0  0  0  0  0  0  0  0
  139.4440   81.8390  218.5080 C   0  0  0  0  0  0  0  0  0  0  0  0
  140.1660   83.0290  218.6900 C   0  0  0  0  0  0  0  0  0  0  0  0
  139.7302   83.8499  219.2783 H   0  0  0  0  0  0  0  0  0  0  0  0
  141.4330   83.1740  218.1280 C   0  0  0  0  0  0  0  0  0  0  0  0
  141.9952   84.1078  218.2763 H   0  0  0  0  0  0  0  0  0  0  0  0
  141.9910   82.1370  217.3770 C   0  0  0  0  0  0  0  0  0  0  0  0
  142.9934   82.2578  216.9404 H   0  0  0  0  0  0  0  0  0  0  0  0
  141.2800   80.9370  217.1740 C   0  0  0  0  0  0  0  0  0  0  0  0
  141.8650   79.7970  216.4130 C   0  0  0  0  0  0  0  0  0  0  0  0
  141.5800   79.6950  215.1850 O   0  0  0  0  0  0  0  0  0  0  0  0
  142.7200   78.8050  217.0540 N   0  0  2  0  0  0  0  0  0  0  0  0
  143.7060   79.0500  216.8120 H   0  0  0  0  0  0  0  0  0  0  0  0
  142.5230   77.4220  216.5410 C   0  0  0  0  0  0  0  0  0  0  0  0
  143.3726   76.8046  216.8681 H   0  0  0  0  0  0  0  0  0  0  0  0
  142.4548   77.4892  215.4452 H   0  0  0  0  0  0  0  0  0  0  0  0
  141.2180   76.7620  217.0390 C   0  0  0  0  0  0  0  0  0  0  0  0
  141.2104   75.7067  216.7287 H   0  0  0  0  0  0  0  0  0  0  0  0
  140.3679   77.3057  216.6011 H   0  0  0  0  0  0  0  0  0  0  0  0
  141.0980   76.8330  218.5690 C   0  0  2  0  0  0  0  0  0  0  0  0
  141.8799   76.2041  219.0198 H   0  0  0  0  0  0  0  0  0  0  0  0
  139.8210   76.3720  218.9740 O   0  0  0  0  0  0  0  0  0  0  0  0
  138.7890   77.2190  218.5080 C   0  0  0  0  0  0  0  0  0  0  0  0
  138.9094   77.3757  217.4259 H   0  0  0  0  0  0  0  0  0  0  0  0
  138.8499   78.1810  219.0379 H   0  0  0  0  0  0  0  0  0  0  0  0
  137.4270   76.5920  218.7760 C   0  0  0  0  0  0  0  0  0  0  0  0
  137.2649   76.5174  219.8614 H   0  0  0  0  0  0  0  0  0  0  0  0
  136.6407   77.2188  218.3301 H   0  0  0  0  0  0  0  0  0  0  0  0
  137.3918   75.5871  218.3301 H   0  0  0  0  0  0  0  0  0  0  0  0
  141.2580   78.2840  219.0210 C   0  0  0  0  0  0  0  0  0  0  0  0
  141.2246   78.3279  220.1196 H   0  0  0  0  0  0  0  0  0  0  0  0
  140.4402   78.8842  218.5955 H   0  0  0  0  0  0  0  0  0  0  0  0
  142.5990   78.8480  218.5320 C   0  0  0  0  0  0  0  0  0  0  0  0
  143.4142   78.2545  218.9715 H   0  0  0  0  0  0  0  0  0  0  0  0
  142.6565   79.9010  218.8448 H   0  0  0  0  0  0  0  0  0  0  0  0
  139.9900   80.8140  217.7250 C   0  0  0  0  0  0  0  0  0  0  0  0
  139.4041   79.9020  217.5383 H   0  0  0  0  0  0  0  0  0  0  0  0
  136.5170   80.2860  219.9760 N   0  0  0  0  0  0  0  0  0  0  0  0
  135.7790   80.7700  219.4170 H   0  0  0  0  0  0  0  0  0  0  0  0
  136.1540   79.2850  220.8240 C   0  0  0  0  0  0  0  0  0  0  0  0
  135.0963   78.9952  220.9096 H   0  0  0  0  0  0  0  0  0  0  0  0
  137.1250   78.6220  221.5890 C   0  0  0  0  0  0  0  0  0  0  0  0
  136.7560   77.6890  222.6150 N   0  0  0  0  0  0  0  0  0  0  0  0
  135.6550   78.0380  223.5180 C   0  0  0  0  0  0  0  0  0  0  0  0
  135.9886   77.9323  224.5609 H   0  0  0  0  0  0  0  0  0  0  0  0
  135.3466   79.0780  223.3353 H   0  0  0  0  0  0  0  0  0  0  0  0
  134.8038   77.3656  223.3353 H   0  0  0  0  0  0  0  0  0  0  0  0
  1  2  1  0
  2  3  1  0
  3  4  2  0
  4  5  1  0
  4  6  1  0
  6  7  1  0
  6  8  1  0
  6  9  1  0
  9 10  1  0
 10 11  2  0
 11 12  1  0
 11 13  1  0
 13 14  1  0
 13 15  2  0
 15 16  1  0
 15 17  1  0
 17 18  1  0
 17 19  2  0
 19 20  1  0
  9 21  1  0
 21 22  2  0
 22 23  1  0
 23 24  2  0
 24 25  1  0
 25 26  2  0
 26 27  1  0
 26 28  1  0
 28 29  1  0
 28 30  2  0
 30 31  1  0
 30 32  1  0
 32 33  1  0
 33 34  2  0
 33 35  1  0
 35 36  1  1
 35 37  1  0
 37 38  1  0
 37 39  1  0
 37 40  1  0
 40 41  1  0
 40 42  1  0
 40 43  1  0
 43 44  1  1
 43 45  1  0
 45 46  1  0
 46 47  1  0
 46 48  1  0
 46 49  1  0
 49 50  1  0
 49 51  1  0
 49 52  1  0
 43 53  1  0
 53 54  1  0
 53 55  1  0
 53 56  1  0
 56 57  1  0
 56 58  1  0
 32 59  2  0
 59 60  1  0
 23 61  1  0
 61 62  1  0
 61 63  1  0
 63 64  1  0
 63 65  2  0
 65 66  1  0
 66 67  1  0
 67 68  1  0
 67 69  1  0
 67 70  1  0
 66  3  1  0
 19 10  1  0
 65 21  1  0
 59 25  1  0
 56 35  1  0
M  CHG  1  35   1
M  END
>  <UniqueID>  (57) 
23

>  <SMILES>  (57) 
CCOC1CC[NH+](C(=O)c2cccc(/N=c3\nc4c(c[nH]3)N(C)C(O)=CCN4c3ccccc3)c2)CC1

>  <Energy>  (57) 
112.19393791108931

>  <Genealogy>  (57) 
CCOC1CC[NH+](C(=O)c2cccc(N=c3nc4c(c[nH]3)N(C)C(=O)CCN4c3ccccc3)c2)CC1 (protonated)
CCOC1CC[NH+](C(=O)c2cccc(N=c3nc4c(c[nH]3)N(C)C(O)=CCN4c3ccccc3)c2)CC1 (tautomer)
CCOC1CC[NH+](C(=O)c2cccc(/N=c3\nc4c(c[nH]3)N(C)C(O)=CCN4c3ccccc3)c2)CC1 (cis-trans isomerization)
CCOC1CC[NH+](C(=O)c2cccc(/N=c3\nc4c(c[nH]3)N(C)C(O)=CCN4c3ccccc3)c2)CC1 (3D coordinates assigned)
CCOC1CC[NH+](C(=O)c2cccc(/N=c3\nc4c(c[nH]3)N(C)C(O)=CCN4c3ccccc3)c2)CC1 (nonaromatic ring conformer: 112.19393791108931 kcal/mol)

>  <smiles>  (57) 
CCOC1CCN(C(=O)c2cccc(N=c3nc4c(c[nH]3)N(C)C(=O)CCN4c3ccccc3)c2)CC1

>  <score_type>  (57) 
oracle

>  <origin>  (57) 
autodockgpu

>  <m_score__min__energy>  (57) 
-7.3200000000000003

>  <m_primary>  (57) 
energy

>  <meeko>  (57) 
{"free_energy": -4.07, "intermolecular_energy": -7.95, "internal_energy": -3.41, "cluster_size": 1, "cluster_id": 9, "rank_in_cluster": 1}

>  <energy>  (57) 
-4.37

>  <cluster_rmsd>  (57) 
0.0

>  <rmsd>  (57) 
271.5

>  <cluster>  (57) 
7

$$$$
FLYFIANCBVDDDY-IGPOTQGWNA-O
     RDKit          3D

 70 74  0  0  0  0  0  0  0  0999 V2000
  144.8200   75.3290  218.0160 H   0  0  0  0  0  0  0  0  0  0  0  0
  144.0010   74.9080  218.4360 O   0  0  0  0  0  0  0  0  0  0  0  0
  143.0280   75.6630  219.0950 C   0  0  0  0  0  0  0  0  0  0  0  0
  142.8980   76.9470  218.7150 C   0  0  0  0  0  0  0  0  0  0  0  0
  143.3674   77.2026  217.7536 H   0  0  0  0  0  0  0  0  0  0  0  0
  142.2020   78.0870  219.4160 C   0  0  0  0  0  0  0  0  0  0  0  0
  142.9295   78.9012  219.5499 H   0  0  0  0  0  0  0  0  0  0  0  0
  141.3490   78.3660  218.7799 H   0  0  0  0  0  0  0  0  0  0  0  0
  141.6440   77.7540  220.7300 N   0  0  0  0  0  0  0  0  0  0  0  0
  141.7110   78.6970  221.8190 C   0  0  0  0  0  0  0  0  0  0  0  0
  141.3990   78.3140  223.1370 C   0  0  0  0  0  0  0  0  0  0  0  0
  141.0352   77.2958  223.3391 H   0  0  0  0  0  0  0  0  0  0  0  0
  141.5490   79.2210  224.1910 C   0  0  0  0  0  0  0  0  0  0  0  0
  141.3010   78.9156  225.2183 H   0  0  0  0  0  0  0  0  0  0  0  0
  142.0140   80.5160  223.9400 C   0  0  0  0  0  0  0  0  0  0  0  0
  142.1275   81.2297  224.7693 H   0  0  0  0  0  0  0  0  0  0  0  0
  142.3340   80.9030  222.6380 C   0  0  0  0  0  0  0  0  0  0  0  0
  142.7027   81.9208  222.4430 H   0  0  0  0  0  0  0  0  0  0  0  0
  142.1870   80.0000  221.5810 C   0  0  0  0  0  0  0  0  0  0  0  0
  142.4448   80.3096  220.5574 H   0  0  0  0  0  0  0  0  0  0  0  0
  140.6220   76.7560  220.7830 C   0  0  0  0  0  0  0  0  0  0  0  0
  139.3820   77.0840  221.2290 N   0  0  0  0  0  0  0  0  0  0  0  0
  138.3860   76.1620  221.3140 C   0  0  0  0  0  0  0  0  0  0  0  0
  137.2050   76.5000  221.7490 N   0  0  0  0  0  0  0  0  0  0  0  0
  136.9020   77.7470  222.3950 C   0  0  0  0  0  0  0  0  0  0  0  0
  135.8410   77.8520  223.3080 C   0  0  0  0  0  0  0  0  0  0  0  0
  135.2191   76.9721  223.5294 H   0  0  0  0  0  0  0  0  0  0  0  0
  135.5730   79.0680  223.9350 C   0  0  0  0  0  0  0  0  0  0  0  0
  134.7418   79.1441  224.6515 H   0  0  0  0  0  0  0  0  0  0  0  0
  136.3570   80.1900  223.6560 C   0  0  0  0  0  0  0  0  0  0  0  0
  136.1423   81.1444  224.1591 H   0  0  0  0  0  0  0  0  0  0  0  0
  137.4210   80.1090  222.7350 C   0  0  0  0  0  0  0  0  0  0  0  0
  138.3010   81.2760  222.4470 C   0  0  0  0  0  0  0  0  0  0  0  0
  139.2560   81.5090  223.2420 O   0  0  0  0  0  0  0  0  0  0  0  0
  138.0670   82.1500  221.3030 N   0  0  2  0  0  0  0  0  0  0  0  0
  137.0690   82.4540  221.3510 H   0  0  0  0  0  0  0  0  0  0  0  0
  138.2060   81.4660  219.9890 C   0  0  0  0  0  0  0  0  0  0  0  0
  137.7550   82.1040  219.2147 H   0  0  0  0  0  0  0  0  0  0  0  0
  137.6991   80.4935  220.0746 H   0  0  0  0  0  0  0  0  0  0  0  0
  139.6720   81.1820  219.5960 C   0  0  0  0  0  0  0  0  0  0  0  0
  139.6978   80.8009  218.5644 H   0  0  0  0  0  0  0  0  0  0  0  0
  140.0795   80.4402  220.2986 H   0  0  0  0  0  0  0  0  0  0  0  0
  140.5350   82.4500  219.6810 C   0  0  2  0  0  0  0  0  0  0  0  0
  140.2054   83.1596  218.9078 H   0  0  0  0  0  0  0  0  0  0  0  0
  141.8990   82.1210  219.4780 O   0  0  0  0  0  0  0  0  0  0  0  0
  142.0870   81.3980  218.2760 C   0  0  0  0  0  0  0  0  0  0  0  0
  141.1344   81.3509  217.7280 H   0  0  0  0  0  0  0  0  0  0  0  0
  142.4321   80.3823  218.5195 H   0  0  0  0  0  0  0  0  0  0  0  0
  143.1340   82.0820  217.4060 C   0  0  0  0  0  0  0  0  0  0  0  0
  143.8818   82.5705  218.0480 H   0  0  0  0  0  0  0  0  0  0  0  0
  143.6293   81.3328  216.7709 H   0  0  0  0  0  0  0  0  0  0  0  0
  142.6469   82.8366  216.7709 H   0  0  0  0  0  0  0  0  0  0  0  0
  140.3860   83.0700  221.0700 C   0  0  0  0  0  0  0  0  0  0  0  0
  140.9618   84.0063  221.1137 H   0  0  0  0  0  0  0  0  0  0  0  0
  140.7638   82.3615  221.8219 H   0  0  0  0  0  0  0  0  0  0  0  0
  138.9090   83.3690  221.3610 C   0  0  0  0  0  0  0  0  0  0  0  0
  138.5403   84.0895  220.6161 H   0  0  0  0  0  0  0  0  0  0  0  0
  138.8422   83.7764  222.3806 H   0  0  0  0  0  0  0  0  0  0  0  0
  137.6640   78.8800  222.0890 C   0  0  0  0  0  0  0  0  0  0  0  0
  138.4622   78.8107  221.3353 H   0  0  0  0  0  0  0  0  0  0  0  0
  138.6240   74.8820  220.9180 N   0  0  0  0  0  0  0  0  0  0  0  0
  137.8640   74.1660  220.9690 H   0  0  0  0  0  0  0  0  0  0  0  0
  139.8590   74.5050  220.4900 C   0  0  0  0  0  0  0  0  0  0  0  0
  140.0435   73.4602  220.1996 H   0  0  0  0  0  0  0  0  0  0  0  0
  140.8980   75.4450  220.4180 C   0  0  0  0  0  0  0  0  0  0  0  0
  142.2480   75.0440  220.1410 N   0  0  0  0  0  0  0  0  0  0  0  0
  142.7830   73.8610  220.8230 C   0  0  0  0  0  0  0  0  0  0  0  0
  142.7180   74.0047  221.9116 H   0  0  0  0  0  0  0  0  0  0  0  0
  142.1978   72.9754  220.5344 H   0  0  0  0  0  0  0  0  0  0  0  0
  143.8345   73.7156  220.5344 H   0  0  0  0  0  0  0  0  0  0  0  0
  1  2  1  0
  2  3  1  0
  3  4  2  0
  4  5  1  0
  4  6  1  0
  6  7  1  0
  6  8  1  0
  6  9  1  0
  9 10  1  0
 10 11  2  0
 11 12  1  0
 11 13  1  0
 13 14  1  0
 13 15  2  0
 15 16  1  0
 15 17  1  0
 17 18  1  0
 17 19  2  0
 19 20  1  0
  9 21  1  0
 21 22  2  0
 22 23  1  0
 23 24  2  0
 24 25  1  0
 25 26  2  0
 26 27  1  0
 26 28  1  0
 28 29  1  0
 28 30  2  0
 30 31  1  0
 30 32  1  0
 32 33  1  0
 33 34  2  0
 33 35  1  0
 35 36  1  1
 35 37  1  0
 37 38  1  0
 37 39  1  0
 37 40  1  0
 40 41  1  0
 40 42  1  0
 40 43  1  0
 43 44  1  6
 43 45  1  0
 45 46  1  0
 46 47  1  0
 46 48  1  0
 46 49  1  0
 49 50  1  0
 49 51  1  0
 49 52  1  0
 43 53  1  0
 53 54  1  0
 53 55  1  0
 53 56  1  0
 56 57  1  0
 56 58  1  0
 32 59  2  0
 59 60  1  0
 23 61  1  0
 61 62  1  0
 61 63  1  0
 63 64  1  0
 63 65  2  0
 65 66  1  0
 66 67  1  0
 67 68  1  0
 67 69  1  0
 67 70  1  0
 66  3  1  0
 19 10  1  0
 65 21  1  0
 59 25  1  0
 56 35  1  0
M  CHG  1  35   1
M  END
>  <UniqueID>  (58) 
23

>  <SMILES>  (58) 
CCOC1CC[NH+](C(=O)c2cccc(/N=c3\nc4c(c[nH]3)N(C)C(O)=CCN4c3ccccc3)c2)CC1

>  <Energy>  (58) 
112.19393791108931

>  <Genealogy>  (58) 
CCOC1CC[NH+](C(=O)c2cccc(N=c3nc4c(c[nH]3)N(C)C(=O)CCN4c3ccccc3)c2)CC1 (protonated)
CCOC1CC[NH+](C(=O)c2cccc(N=c3nc4c(c[nH]3)N(C)C(O)=CCN4c3ccccc3)c2)CC1 (tautomer)
CCOC1CC[NH+](C(=O)c2cccc(/N=c3\nc4c(c[nH]3)N(C)C(O)=CCN4c3ccccc3)c2)CC1 (cis-trans isomerization)
CCOC1CC[NH+](C(=O)c2cccc(/N=c3\nc4c(c[nH]3)N(C)C(O)=CCN4c3ccccc3)c2)CC1 (3D coordinates assigned)
CCOC1CC[NH+](C(=O)c2cccc(/N=c3\nc4c(c[nH]3)N(C)C(O)=CCN4c3ccccc3)c2)CC1 (nonaromatic ring conformer: 112.19393791108931 kcal/mol)

>  <smiles>  (58) 
CCOC1CCN(C(=O)c2cccc(N=c3nc4c(c[nH]3)N(C)C(=O)CCN4c3ccccc3)c2)CC1

>  <score_type>  (58) 
oracle

>  <origin>  (58) 
autodockgpu

>  <m_score__min__energy>  (58) 
-7.3200000000000003

>  <m_primary>  (58) 
energy

>  <meeko>  (58) 
{"free_energy": -4.31, "intermolecular_energy": -8.19, "internal_energy": -2.96, "cluster_size": 2, "cluster_id": 8, "rank_in_cluster": 2}

>  <energy>  (58) 
-4.37

>  <cluster_rmsd>  (58) 
0.0

>  <rmsd>  (58) 
272.05

>  <cluster>  (58) 
8

$$$$
FLYFIANCBVDDDY-IGPOTQGWNA-O
     RDKit          3D

 70 74  0  0  0  0  0  0  0  0999 V2000
  136.2880   80.8670  219.3080 H   0  0  0  0  0  0  0  0  0  0  0  0
  136.3700   80.0090  219.8370 O   0  0  0  0  0  0  0  0  0  0  0  0
  137.5850   79.5700  220.3670 C   0  0  0  0  0  0  0  0  0  0  0  0
  138.6610   79.6420  219.5590 C   0  0  0  0  0  0  0  0  0  0  0  0
  138.5283   80.2508  218.6525 H   0  0  0  0  0  0  0  0  0  0  0  0
  140.0210   79.0090  219.7170 C   0  0  0  0  0  0  0  0  0  0  0  0
  140.0713   78.1360  219.0497 H   0  0  0  0  0  0  0  0  0  0  0  0
  140.7555   79.7893  219.4687 H   0  0  0  0  0  0  0  0  0  0  0  0
  140.3390   78.5620  221.0770 N   0  0  0  0  0  0  0  0  0  0  0  0
  141.0460   79.4270  221.9900 C   0  0  0  0  0  0  0  0  0  0  0  0
  141.1360   80.8130  221.7600 C   0  0  0  0  0  0  0  0  0  0  0  0
  140.7171   81.2429  220.8382 H   0  0  0  0  0  0  0  0  0  0  0  0
  141.7550   81.6460  222.6970 C   0  0  0  0  0  0  0  0  0  0  0  0
  141.8252   82.7276  222.5092 H   0  0  0  0  0  0  0  0  0  0  0  0
  142.2850   81.1050  223.8730 C   0  0  0  0  0  0  0  0  0  0  0  0
  142.7738   81.7610  224.6083 H   0  0  0  0  0  0  0  0  0  0  0  0
  142.1940   79.7330  224.1140 C   0  0  0  0  0  0  0  0  0  0  0  0
  142.6099   79.3092  225.0400 H   0  0  0  0  0  0  0  0  0  0  0  0
  141.5750   78.8970  223.1800 C   0  0  0  0  0  0  0  0  0  0  0  0
  141.5013   77.8174  223.3774 H   0  0  0  0  0  0  0  0  0  0  0  0
  139.5300   77.5280  221.6410 C   0  0  0  0  0  0  0  0  0  0  0  0
  140.0300   76.2720  221.7650 N   0  0  0  0  0  0  0  0  0  0  0  0
  139.2890   75.2550  222.2790 C   0  0  0  0  0  0  0  0  0  0  0  0
  139.7900   74.0560  222.3840 N   0  0  0  0  0  0  0  0  0  0  0  0
  140.7980   73.5170  221.5140 C   0  0  0  0  0  0  0  0  0  0  0  0
  140.7890   72.1620  221.1450 C   0  0  0  0  0  0  0  0  0  0  0  0
  140.0073   71.4930  221.5340 H   0  0  0  0  0  0  0  0  0  0  0  0
  141.7680   71.6620  220.2870 C   0  0  0  0  0  0  0  0  0  0  0  0
  141.7542   70.6006  219.9984 H   0  0  0  0  0  0  0  0  0  0  0  0
  142.7660   72.5050  219.7930 C   0  0  0  0  0  0  0  0  0  0  0  0
  143.5321   72.1039  219.1132 H   0  0  0  0  0  0  0  0  0  0  0  0
  142.7990   73.8660  220.1590 C   0  0  0  0  0  0  0  0  0  0  0  0
  143.8260   74.8000  219.6160 C   0  0  0  0  0  0  0  0  0  0  0  0
  144.7940   75.1160  220.3650 O   0  0  0  0  0  0  0  0  0  0  0  0
  143.7200   75.3610  218.2740 N   0  0  2  0  0  0  0  0  0  0  0  0
  144.6760   75.3310  217.8550 H   0  0  0  0  0  0  0  0  0  0  0  0
  143.3280   76.7960  218.2540 C   0  0  0  0  0  0  0  0  0  0  0  0
  143.5359   77.2001  217.2523 H   0  0  0  0  0  0  0  0  0  0  0  0
  143.9118   77.3025  219.0367 H   0  0  0  0  0  0  0  0  0  0  0  0
  141.8350   77.0300  218.5760 C   0  0  0  0  0  0  0  0  0  0  0  0
  141.5961   78.0911  218.4117 H   0  0  0  0  0  0  0  0  0  0  0  0
  141.6598   76.7466  219.6243 H   0  0  0  0  0  0  0  0  0  0  0  0
  140.9250   76.1700  217.6860 C   0  0  2  0  0  0  0  0  0  0  0  0
  141.0103   76.5167  216.6456 H   0  0  0  0  0  0  0  0  0  0  0  0
  139.5800   76.2830  218.1190 O   0  0  0  0  0  0  0  0  0  0  0  0
  139.1290   75.0920  218.7340 C   0  0  0  0  0  0  0  0  0  0  0  0
  139.7947   74.8427  219.5734 H   0  0  0  0  0  0  0  0  0  0  0  0
  139.1381   74.2806  217.9913 H   0  0  0  0  0  0  0  0  0  0  0  0
  137.7090   75.2700  219.2550 C   0  0  0  0  0  0  0  0  0  0  0  0
  137.7192   75.2687  220.3550 H   0  0  0  0  0  0  0  0  0  0  0  0
  137.3028   76.2261  218.8932 H   0  0  0  0  0  0  0  0  0  0  0  0
  137.0794   74.4437  218.8932 H   0  0  0  0  0  0  0  0  0  0  0  0
  141.3500   74.7060  217.7940 C   0  0  0  0  0  0  0  0  0  0  0  0
  140.7329   74.0978  217.1163 H   0  0  0  0  0  0  0  0  0  0  0  0
  141.2130   74.3687  218.8320 H   0  0  0  0  0  0  0  0  0  0  0  0
  142.8280   74.5520  217.4090 C   0  0  0  0  0  0  0  0  0  0  0  0
  142.9577   74.8755  216.3657 H   0  0  0  0  0  0  0  0  0  0  0  0
  143.1017   73.4944  217.5375 H   0  0  0  0  0  0  0  0  0  0  0  0
  141.8190   74.3520  221.0460 C   0  0  0  0  0  0  0  0  0  0  0  0
  141.8565   75.4010  221.3751 H   0  0  0  0  0  0  0  0  0  0  0  0
  138.0200   75.5000  222.7050 N   0  0  0  0  0  0  0  0  0  0  0  0
  137.4420   74.7280  223.1100 H   0  0  0  0  0  0  0  0  0  0  0  0
  137.4700   76.7380  222.5730 C   0  0  0  0  0  0  0  0  0  0  0  0
  136.4333   76.9147  222.8956 H   0  0  0  0  0  0  0  0  0  0  0  0
  138.2210   77.7890  222.0270 C   0  0  0  0  0  0  0  0  0  0  0  0
  137.6170   79.0530  221.7150 N   0  0  0  0  0  0  0  0  0  0  0  0
  137.1800   79.9140  222.8190 C   0  0  0  0  0  0  0  0  0  0  0  0
  137.4241   79.4331  223.7777 H   0  0  0  0  0  0  0  0  0  0  0  0
  137.6950   80.8838  222.7536 H   0  0  0  0  0  0  0  0  0  0  0  0
  136.0932   80.0708  222.7536 H   0  0  0  0  0  0  0  0  0  0  0  0
  1  2  1  0
  2  3  1  0
  3  4  2  0
  4  5  1  0
  4  6  1  0
  6  7  1  0
  6  8  1  0
  6  9  1  0
  9 10  1  0
 10 11  2  0
 11 12  1  0
 11 13  1  0
 13 14  1  0
 13 15  2  0
 15 16  1  0
 15 17  1  0
 17 18  1  0
 17 19  2  0
 19 20  1  0
  9 21  1  0
 21 22  2  0
 22 23  1  0
 23 24  2  0
 24 25  1  0
 25 26  2  0
 26 27  1  0
 26 28  1  0
 28 29  1  0
 28 30  2  0
 30 31  1  0
 30 32  1  0
 32 33  1  0
 33 34  2  0
 33 35  1  0
 35 36  1  6
 35 37  1  0
 37 38  1  0
 37 39  1  0
 37 40  1  0
 40 41  1  0
 40 42  1  0
 40 43  1  0
 43 44  1  6
 43 45  1  0
 45 46  1  0
 46 47  1  0
 46 48  1  0
 46 49  1  0
 49 50  1  0
 49 51  1  0
 49 52  1  0
 43 53  1  0
 53 54  1  0
 53 55  1  0
 53 56  1  0
 56 57  1  0
 56 58  1  0
 32 59  2  0
 59 60  1  0
 23 61  1  0
 61 62  1  0
 61 63  1  0
 63 64  1  0
 63 65  2  0
 65 66  1  0
 66 67  1  0
 67 68  1  0
 67 69  1  0
 67 70  1  0
 66  3  1  0
 19 10  1  0
 65 21  1  0
 59 25  1  0
 56 35  1  0
M  CHG  1  35   1
M  END
>  <UniqueID>  (59) 
23

>  <SMILES>  (59) 
CCOC1CC[NH+](C(=O)c2cccc(/N=c3\nc4c(c[nH]3)N(C)C(O)=CCN4c3ccccc3)c2)CC1

>  <Energy>  (59) 
112.19393791108931

>  <Genealogy>  (59) 
CCOC1CC[NH+](C(=O)c2cccc(N=c3nc4c(c[nH]3)N(C)C(=O)CCN4c3ccccc3)c2)CC1 (protonated)
CCOC1CC[NH+](C(=O)c2cccc(N=c3nc4c(c[nH]3)N(C)C(O)=CCN4c3ccccc3)c2)CC1 (tautomer)
CCOC1CC[NH+](C(=O)c2cccc(/N=c3\nc4c(c[nH]3)N(C)C(O)=CCN4c3ccccc3)c2)CC1 (cis-trans isomerization)
CCOC1CC[NH+](C(=O)c2cccc(/N=c3\nc4c(c[nH]3)N(C)C(O)=CCN4c3ccccc3)c2)CC1 (3D coordinates assigned)
CCOC1CC[NH+](C(=O)c2cccc(/N=c3\nc4c(c[nH]3)N(C)C(O)=CCN4c3ccccc3)c2)CC1 (nonaromatic ring conformer: 112.19393791108931 kcal/mol)

>  <smiles>  (59) 
CCOC1CCN(C(=O)c2cccc(N=c3nc4c(c[nH]3)N(C)C(=O)CCN4c3ccccc3)c2)CC1

>  <score_type>  (59) 
oracle

>  <origin>  (59) 
autodockgpu

>  <m_score__min__energy>  (59) 
-7.3200000000000003

>  <m_primary>  (59) 
energy

>  <meeko>  (59) 
{"free_energy": -4.83, "intermolecular_energy": -8.71, "internal_energy": -2.92, "cluster_size": 3, "cluster_id": 5, "rank_in_cluster": 2}

>  <energy>  (59) 
-4.31

>  <cluster_rmsd>  (59) 
0.99

>  <rmsd>  (59) 
271.82

>  <cluster>  (59) 
8

$$$$
FLYFIANCBVDDDY-IGPOTQGWNA-O
     RDKit          3D

 70 74  0  0  0  0  0  0  0  0999 V2000
  132.5410   68.2410  225.7110 H   0  0  0  0  0  0  0  0  0  0  0  0
  133.3950   68.5980  226.1200 O   0  0  0  0  0  0  0  0  0  0  0  0
  134.3050   69.3700  225.3940 C   0  0  0  0  0  0  0  0  0  0  0  0
  134.9650   68.7510  224.3980 C   0  0  0  0  0  0  0  0  0  0  0  0
  134.5161   67.8098  224.0479 H   0  0  0  0  0  0  0  0  0  0  0  0
  136.2340   69.1650  223.6930 C   0  0  0  0  0  0  0  0  0  0  0  0
  136.9697   68.3556  223.8095 H   0  0  0  0  0  0  0  0  0  0  0  0
  135.9581   69.3538  222.6450 H   0  0  0  0  0  0  0  0  0  0  0  0
  136.8380   70.4050  224.1900 N   0  0  0  0  0  0  0  0  0  0  0  0
  138.2700   70.5390  224.2870 C   0  0  0  0  0  0  0  0  0  0  0  0
  138.9930   71.3330  223.3770 C   0  0  0  0  0  0  0  0  0  0  0  0
  138.4715   71.8131  222.5358 H   0  0  0  0  0  0  0  0  0  0  0  0
  140.3700   71.5150  223.5360 C   0  0  0  0  0  0  0  0  0  0  0  0
  140.9289   72.1332  222.8180 H   0  0  0  0  0  0  0  0  0  0  0  0
  141.0380   70.9120  224.6070 C   0  0  0  0  0  0  0  0  0  0  0  0
  142.1216   71.0553  224.7301 H   0  0  0  0  0  0  0  0  0  0  0  0
  140.3290   70.1280  225.5200 C   0  0  0  0  0  0  0  0  0  0  0  0
  140.8547   69.6555  226.3629 H   0  0  0  0  0  0  0  0  0  0  0  0
  138.9520   69.9430  225.3640 C   0  0  0  0  0  0  0  0  0  0  0  0
  138.3980   69.3274  226.0880 H   0  0  0  0  0  0  0  0  0  0  0  0
  136.0690   71.6060  224.0850 C   0  0  0  0  0  0  0  0  0  0  0  0
  136.5210   72.6320  223.3200 N   0  0  0  0  0  0  0  0  0  0  0  0
  135.8310   73.7980  223.2080 C   0  0  0  0  0  0  0  0  0  0  0  0
  136.2870   74.7700  222.4710 N   0  0  0  0  0  0  0  0  0  0  0  0
  137.6790   74.9940  222.1890 C   0  0  0  0  0  0  0  0  0  0  0  0
  138.4580   74.0130  221.5540 C   0  0  0  0  0  0  0  0  0  0  0  0
  138.0059   73.0499  221.2745 H   0  0  0  0  0  0  0  0  0  0  0  0
  139.8020   74.2560  221.2770 C   0  0  0  0  0  0  0  0  0  0  0  0
  140.4071   73.4855  220.7768 H   0  0  0  0  0  0  0  0  0  0  0  0
  140.3830   75.4760  221.6330 C   0  0  0  0  0  0  0  0  0  0  0  0
  141.4432   75.6620  221.4063 H   0  0  0  0  0  0  0  0  0  0  0  0
  139.6220   76.4700  222.2800 C   0  0  0  0  0  0  0  0  0  0  0  0
  140.2020   77.7970  222.6340 C   0  0  0  0  0  0  0  0  0  0  0  0
  139.4280   78.6710  223.1190 O   0  0  0  0  0  0  0  0  0  0  0  0
  141.6100   78.1030  222.4110 N   0  0  2  0  0  0  0  0  0  0  0  0
  142.1220   77.1930  222.4030 H   0  0  0  0  0  0  0  0  0  0  0  0
  142.2330   78.8930  223.5070 C   0  0  0  0  0  0  0  0  0  0  0  0
  143.3261   78.8429  223.3949 H   0  0  0  0  0  0  0  0  0  0  0  0
  141.8916   78.4555  224.4568 H   0  0  0  0  0  0  0  0  0  0  0  0
  141.8090   80.3780  223.5110 C   0  0  0  0  0  0  0  0  0  0  0  0
  142.4065   80.9183  224.2601 H   0  0  0  0  0  0  0  0  0  0  0  0
  140.7372   80.4303  223.7531 H   0  0  0  0  0  0  0  0  0  0  0  0
  142.0250   81.0290  222.1360 C   0  0  2  0  0  0  0  0  0  0  0  0
  143.1041   81.0797  221.9289 H   0  0  0  0  0  0  0  0  0  0  0  0
  141.4740   82.3350  222.1290 O   0  0  0  0  0  0  0  0  0  0  0  0
  140.6860   82.5620  220.9770 C   0  0  0  0  0  0  0  0  0  0  0  0
  139.7462   81.9969  221.0633 H   0  0  0  0  0  0  0  0  0  0  0  0
  141.2456   82.2302  220.0900 H   0  0  0  0  0  0  0  0  0  0  0  0
  140.3690   84.0460  220.8360 C   0  0  0  0  0  0  0  0  0  0  0  0
  140.2727   84.4969  221.8347 H   0  0  0  0  0  0  0  0  0  0  0  0
  141.1811   84.5437  220.2858 H   0  0  0  0  0  0  0  0  0  0  0  0
  139.4244   84.1685  220.2858 H   0  0  0  0  0  0  0  0  0  0  0  0
  141.3170   80.1970  221.0670 C   0  0  0  0  0  0  0  0  0  0  0  0
  141.5151   80.6331  220.0767 H   0  0  0  0  0  0  0  0  0  0  0  0
  140.2356   80.1988  221.2683 H   0  0  0  0  0  0  0  0  0  0  0  0
  141.8300   78.7500  221.0960 C   0  0  0  0  0  0  0  0  0  0  0  0
  142.9083   78.7523  220.8785 H   0  0  0  0  0  0  0  0  0  0  0  0
  141.2699   78.1785  220.3412 H   0  0  0  0  0  0  0  0  0  0  0  0
  138.2710   76.2020  222.5770 C   0  0  0  0  0  0  0  0  0  0  0  0
  137.6747   76.9502  223.1198 H   0  0  0  0  0  0  0  0  0  0  0  0
  134.6420   73.9370  223.8560 N   0  0  0  0  0  0  0  0  0  0  0  0
  134.0970   74.8250  223.7700 H   0  0  0  0  0  0  0  0  0  0  0  0
  134.1660   72.9440  224.6550 C   0  0  0  0  0  0  0  0  0  0  0  0
  133.2177   73.0818  225.1951 H   0  0  0  0  0  0  0  0  0  0  0  0
  134.8810   71.7450  224.7920 C   0  0  0  0  0  0  0  0  0  0  0  0
  134.4970   70.7540  225.7570 N   0  0  0  0  0  0  0  0  0  0  0  0
  134.1250   71.1960  227.1050 C   0  0  0  0  0  0  0  0  0  0  0  0
  134.6458   70.5772  227.8505 H   0  0  0  0  0  0  0  0  0  0  0  0
  134.4123   72.2495  227.2378 H   0  0  0  0  0  0  0  0  0  0  0  0
  133.0379   71.0928  227.2378 H   0  0  0  0  0  0  0  0  0  0  0  0
  1  2  1  0
  2  3  1  0
  3  4  2  0
  4  5  1  0
  4  6  1  0
  6  7  1  0
  6  8  1  0
  6  9  1  0
  9 10  1  0
 10 11  2  0
 11 12  1  0
 11 13  1  0
 13 14  1  0
 13 15  2  0
 15 16  1  0
 15 17  1  0
 17 18  1  0
 17 19  2  0
 19 20  1  0
  9 21  1  0
 21 22  2  0
 22 23  1  0
 23 24  2  0
 24 25  1  0
 25 26  2  0
 26 27  1  0
 26 28  1  0
 28 29  1  0
 28 30  2  0
 30 31  1  0
 30 32  1  0
 32 33  1  0
 33 34  2  0
 33 35  1  0
 35 36  1  6
 35 37  1  0
 37 38  1  0
 37 39  1  0
 37 40  1  0
 40 41  1  0
 40 42  1  0
 40 43  1  0
 43 44  1  6
 43 45  1  0
 45 46  1  0
 46 47  1  0
 46 48  1  0
 46 49  1  0
 49 50  1  0
 49 51  1  0
 49 52  1  0
 43 53  1  0
 53 54  1  0
 53 55  1  0
 53 56  1  0
 56 57  1  0
 56 58  1  0
 32 59  2  0
 59 60  1  0
 23 61  1  0
 61 62  1  0
 61 63  1  0
 63 64  1  0
 63 65  2  0
 65 66  1  0
 66 67  1  0
 67 68  1  0
 67 69  1  0
 67 70  1  0
 66  3  1  0
 19 10  1  0
 65 21  1  0
 59 25  1  0
 56 35  1  0
M  CHG  1  35   1
M  END
>  <UniqueID>  (60) 
23

>  <SMILES>  (60) 
CCOC1CC[NH+](C(=O)c2cccc(/N=c3\nc4c(c[nH]3)N(C)C(O)=CCN4c3ccccc3)c2)CC1

>  <Energy>  (60) 
112.19393791108931

>  <Genealogy>  (60) 
CCOC1CC[NH+](C(=O)c2cccc(N=c3nc4c(c[nH]3)N(C)C(=O)CCN4c3ccccc3)c2)CC1 (protonated)
CCOC1CC[NH+](C(=O)c2cccc(N=c3nc4c(c[nH]3)N(C)C(O)=CCN4c3ccccc3)c2)CC1 (tautomer)
CCOC1CC[NH+](C(=O)c2cccc(/N=c3\nc4c(c[nH]3)N(C)C(O)=CCN4c3ccccc3)c2)CC1 (cis-trans isomerization)
CCOC1CC[NH+](C(=O)c2cccc(/N=c3\nc4c(c[nH]3)N(C)C(O)=CCN4c3ccccc3)c2)CC1 (3D coordinates assigned)
CCOC1CC[NH+](C(=O)c2cccc(/N=c3\nc4c(c[nH]3)N(C)C(O)=CCN4c3ccccc3)c2)CC1 (nonaromatic ring conformer: 112.19393791108931 kcal/mol)

>  <smiles>  (60) 
CCOC1CCN(C(=O)c2cccc(N=c3nc4c(c[nH]3)N(C)C(=O)CCN4c3ccccc3)c2)CC1

>  <score_type>  (60) 
oracle

>  <origin>  (60) 
autodockgpu

>  <m_score__min__energy>  (60) 
-7.3200000000000003

>  <m_primary>  (60) 
energy

>  <meeko>  (60) 
{"free_energy": -5.72, "intermolecular_energy": -9.6, "internal_energy": -1.72, "cluster_size": 1, "cluster_id": 2, "rank_in_cluster": 1}

>  <energy>  (60) 
-4.07

>  <cluster_rmsd>  (60) 
0.0

>  <rmsd>  (60) 
270.91

>  <cluster>  (60) 
9

$$$$
KHESEQRZXKFTOB-IGPOTQGWNA-O
     RDKit          3D

 70 74  0  0  0  0  0  0  0  0999 V2000
  142.6274   81.1411  224.0554 H   0  0  0  0  0  0  0  0  0  0  0  0
  142.1540   80.2900  223.5440 C   0  0  0  0  0  0  0  0  0  0  0  0
  140.9240   79.8000  223.9940 C   0  0  0  0  0  0  0  0  0  0  0  0
  140.4316   80.2633  224.8617 H   0  0  0  0  0  0  0  0  0  0  0  0
  140.3200   78.7210  223.3410 C   0  0  0  0  0  0  0  0  0  0  0  0
  139.3557   78.3334  223.7015 H   0  0  0  0  0  0  0  0  0  0  0  0
  140.9390   78.1290  222.2260 C   0  0  0  0  0  0  0  0  0  0  0  0
  140.2750   77.0730  221.5020 N   0  0  0  0  0  0  0  0  0  0  0  0
  141.0800   76.1700  220.7010 C   0  0  0  0  0  0  0  0  0  0  0  0
  141.8960   76.7160  219.7610 N   0  0  0  0  0  0  0  0  0  0  0  0
  142.7030   75.9800  218.9600 C   0  0  0  0  0  0  0  0  0  0  0  0
  143.4130   76.5550  218.0320 N   0  0  0  0  0  0  0  0  0  0  0  0
  142.9520   77.6680  217.2500 C   0  0  0  0  0  0  0  0  0  0  0  0
  142.9010   77.5960  215.8470 C   0  0  0  0  0  0  0  0  0  0  0  0
  143.1781   76.6625  215.3353 H   0  0  0  0  0  0  0  0  0  0  0  0
  142.5000   78.7050  215.1020 C   0  0  0  0  0  0  0  0  0  0  0  0
  142.4529   78.6410  214.0049 H   0  0  0  0  0  0  0  0  0  0  0  0
  142.1580   79.8970  215.7460 C   0  0  0  0  0  0  0  0  0  0  0  0
  141.8465   80.7695  215.1529 H   0  0  0  0  0  0  0  0  0  0  0  0
  142.2100   79.9870  217.1480 C   0  0  0  0  0  0  0  0  0  0  0  0
  141.9000   81.2740  217.8140 C   0  0  0  0  0  0  0  0  0  0  0  0
  141.8780   82.3290  217.1210 O   0  0  0  0  0  0  0  0  0  0  0  0
  141.6470   81.3450  219.2410 N   0  0  2  0  0  0  0  0  0  0  0  0
  142.5080   81.0410  219.7510 H   0  0  0  0  0  0  0  0  0  0  0  0
  140.5490   80.4150  219.6330 C   0  0  0  0  0  0  0  0  0  0  0  0
  140.8562   79.8727  220.5394 H   0  0  0  0  0  0  0  0  0  0  0  0
  140.3762   79.7352  218.7856 H   0  0  0  0  0  0  0  0  0  0  0  0
  139.2240   81.1360  219.9200 C   0  0  0  0  0  0  0  0  0  0  0  0
  138.4738   80.3943  220.2316 H   0  0  0  0  0  0  0  0  0  0  0  0
  138.9066   81.6526  219.0022 H   0  0  0  0  0  0  0  0  0  0  0  0
  139.3830   82.1910  221.0400 C   0  0  1  0  0  0  0  0  0  0  0  0
  138.6330   82.9746  220.8569 H   0  0  0  0  0  0  0  0  0  0  0  0
  139.1790   81.5820  222.3070 O   0  0  0  0  0  0  0  0  0  0  0  0
  137.8610   81.0860  222.4450 C   0  0  0  0  0  0  0  0  0  0  0  0
  137.7385   80.2000  221.8047 H   0  0  0  0  0  0  0  0  0  0  0  0
  137.1516   81.8712  222.1447 H   0  0  0  0  0  0  0  0  0  0  0  0
  137.5860   80.7000  223.8940 C   0  0  0  0  0  0  0  0  0  0  0  0
  138.0918   81.4100  224.5649 H   0  0  0  0  0  0  0  0  0  0  0  0
  136.5024   80.7269  224.0813 H   0  0  0  0  0  0  0  0  0  0  0  0
  137.9654   79.6846  224.0813 H   0  0  0  0  0  0  0  0  0  0  0  0
  140.7850   82.8400  221.0300 C   0  0  0  0  0  0  0  0  0  0  0  0
  141.4284   82.3154  221.7517 H   0  0  0  0  0  0  0  0  0  0  0  0
  140.6801   83.9003  221.3033 H   0  0  0  0  0  0  0  0  0  0  0  0
  141.4230   82.7580  219.6400 C   0  0  0  0  0  0  0  0  0  0  0  0
  142.3884   83.2850  219.6554 H   0  0  0  0  0  0  0  0  0  0  0  0
  140.7417   83.2242  218.9130 H   0  0  0  0  0  0  0  0  0  0  0  0
  142.5760   78.8520  217.8950 C   0  0  0  0  0  0  0  0  0  0  0  0
  142.5666   78.8956  218.9941 H   0  0  0  0  0  0  0  0  0  0  0  0
  142.7210   74.6290  219.0930 N   0  0  0  0  0  0  0  0  0  0  0  0
  143.3340   74.0500  218.4740 H   0  0  0  0  0  0  0  0  0  0  0  0
  141.9350   74.0130  220.0140 C   0  0  0  0  0  0  0  0  0  0  0  0
  141.9678   72.9176  220.1088 H   0  0  0  0  0  0  0  0  0  0  0  0
  141.0780   74.7570  220.8500 C   0  0  0  0  0  0  0  0  0  0  0  0
  140.2230   74.0630  221.7860 N   0  0  0  0  0  0  0  0  0  0  0  0
  140.6320   72.7730  222.3490 C   0  0  0  0  0  0  0  0  0  0  0  0
  140.6139   72.8300  223.4474 H   0  0  0  0  0  0  0  0  0  0  0  0
  139.9384   71.9890  222.0111 H   0  0  0  0  0  0  0  0  0  0  0  0
  141.6507   72.5319  222.0111 H   0  0  0  0  0  0  0  0  0  0  0  0
  138.8540   74.4610  221.9480 C   0  0  0  0  0  0  0  0  0  0  0  0
  137.9300   73.6770  221.6010 O   0  0  0  0  0  0  0  0  0  0  0  0
  138.4950   75.7740  222.5680 C   0  0  0  0  0  0  0  0  0  0  0  0
  137.4171   75.7831  222.7871 H   0  0  0  0  0  0  0  0  0  0  0  0
  139.0828   75.8927  223.4902 H   0  0  0  0  0  0  0  0  0  0  0  0
  138.8220   76.9390  221.6380 C   0  0  0  0  0  0  0  0  0  0  0  0
  138.3783   76.7523  220.6489 H   0  0  0  0  0  0  0  0  0  0  0  0
  138.4096   77.8674  222.0600 H   0  0  0  0  0  0  0  0  0  0  0  0
  142.1780   78.6230  221.7850 C   0  0  0  0  0  0  0  0  0  0  0  0
  142.6746   78.1624  220.9183 H   0  0  0  0  0  0  0  0  0  0  0  0
  142.7820   79.6980  222.4440 C   0  0  0  0  0  0  0  0  0  0  0  0
  143.7536   80.0789  222.0962 H   0  0  0  0  0  0  0  0  0  0  0  0
  1  2  1  0
  2  3  2  0
  3  4  1  0
  3  5  1  0
  5  6  1  0
  5  7  2  0
  7  8  1  0
  8  9  1  0
  9 10  2  0
 10 11  1  0
 11 12  2  0
 12 13  1  0
 13 14  2  0
 14 15  1  0
 14 16  1  0
 16 17  1  0
 16 18  2  0
 18 19  1  0
 18 20  1  0
 20 21  1  0
 21 22  2  0
 21 23  1  0
 23 24  1  6
 23 25  1  0
 25 26  1  0
 25 27  1  0
 25 28  1  0
 28 29  1  0
 28 30  1  0
 28 31  1  0
 31 32  1  1
 31 33  1  0
 33 34  1  0
 34 35  1  0
 34 36  1  0
 34 37  1  0
 37 38  1  0
 37 39  1  0
 37 40  1  0
 31 41  1  0
 41 42  1  0
 41 43  1  0
 41 44  1  0
 44 45  1  0
 44 46  1  0
 20 47  2  0
 47 48  1  0
 11 49  1  0
 49 50  1  0
 49 51  1  0
 51 52  1  0
 51 53  2  0
 53 54  1  0
 54 55  1  0
 55 56  1  0
 55 57  1  0
 55 58  1  0
 54 59  1  0
 59 60  2  0
 59 61  1  0
 61 62  1  0
 61 63  1  0
 61 64  1  0
 64 65  1  0
 64 66  1  0
  7 67  1  0
 67 68  1  0
 67 69  2  0
 69 70  1  0
 69  2  1  0
 64  8  1  0
 53  9  1  0
 47 13  1  0
 44 23  1  0
M  CHG  1  23   1
M  END
>  <UniqueID>  (61) 
24

>  <SMILES>  (61) 
CCOC1CC[NH+](C(=O)c2cccc(/N=c3\nc4c(c[nH]3)N(C)C(=O)CCN4c3ccccc3)c2)CC1

>  <Energy>  (61) 
113.05173742060987

>  <Genealogy>  (61) 
CCOC1CC[NH+](C(=O)c2cccc(N=c3nc4c(c[nH]3)N(C)C(=O)CCN4c3ccccc3)c2)CC1 (protonated)
CCOC1CC[NH+](C(=O)c2cccc(/N=c3\nc4c(c[nH]3)N(C)C(=O)CCN4c3ccccc3)c2)CC1 (cis-trans isomerization)
CCOC1CC[NH+](C(=O)c2cccc(/N=c3\nc4c(c[nH]3)N(C)C(=O)CCN4c3ccccc3)c2)CC1 (3D coordinates assigned)
CCOC1CC[NH+](C(=O)c2cccc(/N=c3\nc4c(c[nH]3)N(C)C(=O)CCN4c3ccccc3)c2)CC1 (nonaromatic ring conformer: 113.05173742060987 kcal/mol)

>  <smiles>  (61) 
CCOC1CCN(C(=O)c2cccc(N=c3nc4c(c[nH]3)N(C)C(=O)CCN4c3ccccc3)c2)CC1

>  <score_type>  (61) 
oracle

>  <origin>  (61) 
autodockgpu

>  <m_score__min__energy>  (61) 
-6.8300000000000001

>  <m_primary>  (61) 
energy

>  <meeko>  (61) 
{"free_energy": -3.83, "intermolecular_energy": -7.41, "internal_energy": -2.97, "cluster_size": 1, "cluster_id": 10, "rank_in_cluster": 1}

>  <energy>  (61) 
-6.83

>  <cluster_rmsd>  (61) 
0.0

>  <rmsd>  (61) 
270.81

>  <cluster>  (61) 
1

$$$$
KHESEQRZXKFTOB-IGPOTQGWNA-O
     RDKit          3D

 70 74  0  0  0  0  0  0  0  0999 V2000
  141.8724   71.9890  228.7001 H   0  0  0  0  0  0  0  0  0  0  0  0
  141.3260   71.6030  227.8270 C   0  0  0  0  0  0  0  0  0  0  0  0
  140.2340   70.7480  228.0070 C   0  0  0  0  0  0  0  0  0  0  0  0
  139.9241   70.4585  229.0220 H   0  0  0  0  0  0  0  0  0  0  0  0
  139.5360   70.2610  226.8980 C   0  0  0  0  0  0  0  0  0  0  0  0
  138.6816   69.5836  227.0432 H   0  0  0  0  0  0  0  0  0  0  0  0
  139.9210   70.6330  225.5980 C   0  0  0  0  0  0  0  0  0  0  0  0
  139.1490   70.1990  224.4590 N   0  0  0  0  0  0  0  0  0  0  0  0
  139.2860   70.9250  223.2110 C   0  0  0  0  0  0  0  0  0  0  0  0
  139.9200   72.1260  223.2450 N   0  0  0  0  0  0  0  0  0  0  0  0
  140.1210   72.8930  222.1460 C   0  0  0  0  0  0  0  0  0  0  0  0
  140.6760   74.0660  222.2530 N   0  0  0  0  0  0  0  0  0  0  0  0
  139.9460   75.3020  222.2010 C   0  0  0  0  0  0  0  0  0  0  0  0
  138.5520   75.3130  222.0290 C   0  0  0  0  0  0  0  0  0  0  0  0
  137.9992   74.3637  221.9730 H   0  0  0  0  0  0  0  0  0  0  0  0
  137.8660   76.5240  221.9290 C   0  0  0  0  0  0  0  0  0  0  0  0
  136.7733   76.5274  221.8027 H   0  0  0  0  0  0  0  0  0  0  0  0
  138.5650   77.7320  221.9890 C   0  0  0  0  0  0  0  0  0  0  0  0
  138.0200   78.6839  221.9059 H   0  0  0  0  0  0  0  0  0  0  0  0
  139.9610   77.7380  222.1550 C   0  0  0  0  0  0  0  0  0  0  0  0
  140.6950   79.0250  222.1600 C   0  0  0  0  0  0  0  0  0  0  0  0
  140.4130   79.8850  223.0410 O   0  0  0  0  0  0  0  0  0  0  0  0
  141.7060   79.3240  221.1640 N   0  0  2  0  0  0  0  0  0  0  0  0
  142.6100   78.8850  221.4580 H   0  0  0  0  0  0  0  0  0  0  0  0
  141.9410   80.7940  221.0680 C   0  0  0  0  0  0  0  0  0  0  0  0
  143.0258   80.9744  221.0410 H   0  0  0  0  0  0  0  0  0  0  0  0
  141.4685   81.2605  221.9450 H   0  0  0  0  0  0  0  0  0  0  0  0
  141.3090   81.4230  219.8170 C   0  0  0  0  0  0  0  0  0  0  0  0
  141.5477   82.4966  219.7974 H   0  0  0  0  0  0  0  0  0  0  0  0
  140.2215   81.2642  219.8629 H   0  0  0  0  0  0  0  0  0  0  0  0
  141.8410   80.7660  218.5210 C   0  0  1  0  0  0  0  0  0  0  0  0
  141.0504   80.8575  217.7617 H   0  0  0  0  0  0  0  0  0  0  0  0
  143.0270   81.4260  218.0990 O   0  0  0  0  0  0  0  0  0  0  0  0
  142.8590   82.0520  216.8410 C   0  0  0  0  0  0  0  0  0  0  0  0
  141.9325   82.6449  216.8519 H   0  0  0  0  0  0  0  0  0  0  0  0
  142.8027   81.2779  216.0615 H   0  0  0  0  0  0  0  0  0  0  0  0
  144.0400   82.9700  216.5430 C   0  0  0  0  0  0  0  0  0  0  0  0
  144.4839   83.3150  217.4885 H   0  0  0  0  0  0  0  0  0  0  0  0
  144.7951   82.4194  215.9628 H   0  0  0  0  0  0  0  0  0  0  0  0
  143.6927   83.8376  215.9628 H   0  0  0  0  0  0  0  0  0  0  0  0
  142.1610   79.2680  218.7210 C   0  0  0  0  0  0  0  0  0  0  0  0
  143.2326   79.1566  218.9428 H   0  0  0  0  0  0  0  0  0  0  0  0
  141.8975   78.7296  217.7986 H   0  0  0  0  0  0  0  0  0  0  0  0
  141.3480   78.6770  219.8760 C   0  0  0  0  0  0  0  0  0  0  0  0
  141.5534   77.5986  219.9458 H   0  0  0  0  0  0  0  0  0  0  0  0
  140.2802   78.8538  219.6797 H   0  0  0  0  0  0  0  0  0  0  0  0
  140.6400   76.5140  222.2970 C   0  0  0  0  0  0  0  0  0  0  0  0
  141.7238   76.5093  222.4848 H   0  0  0  0  0  0  0  0  0  0  0  0
  139.6830   72.4530  220.9390 N   0  0  0  0  0  0  0  0  0  0  0  0
  139.8240   73.0400  220.0850 H   0  0  0  0  0  0  0  0  0  0  0  0
  139.0440   71.2590  220.8270 C   0  0  0  0  0  0  0  0  0  0  0  0
  138.7018   70.9185  219.8386 H   0  0  0  0  0  0  0  0  0  0  0  0
  138.8130   70.4500  221.9580 C   0  0  0  0  0  0  0  0  0  0  0  0
  138.0900   69.2090  221.8060 N   0  0  0  0  0  0  0  0  0  0  0  0
  136.6890   69.2140  221.3750 C   0  0  0  0  0  0  0  0  0  0  0  0
  136.0336   69.2163  222.2584 H   0  0  0  0  0  0  0  0  0  0  0  0
  136.4942   70.1128  220.7716 H   0  0  0  0  0  0  0  0  0  0  0  0
  136.4878   68.3166  220.7716 H   0  0  0  0  0  0  0  0  0  0  0  0
  138.6170   67.9910  222.3540 C   0  0  0  0  0  0  0  0  0  0  0  0
  138.9120   67.0370  221.5860 O   0  0  0  0  0  0  0  0  0  0  0  0
  138.8700   67.8470  223.8210 C   0  0  0  0  0  0  0  0  0  0  0  0
  138.4049   66.9147  224.1739 H   0  0  0  0  0  0  0  0  0  0  0  0
  139.9578   67.8283  223.9830 H   0  0  0  0  0  0  0  0  0  0  0  0
  138.2890   69.0200  224.6080 C   0  0  0  0  0  0  0  0  0  0  0  0
  137.2835   69.2520  224.2270 H   0  0  0  0  0  0  0  0  0  0  0  0
  138.2309   68.7475  225.6721 H   0  0  0  0  0  0  0  0  0  0  0  0
  141.0230   71.4860  225.4250 C   0  0  0  0  0  0  0  0  0  0  0  0
  141.3368   71.7770  224.4117 H   0  0  0  0  0  0  0  0  0  0  0  0
  141.7230   71.9670  226.5360 C   0  0  0  0  0  0  0  0  0  0  0  0
  142.5872   72.6327  226.3945 H   0  0  0  0  0  0  0  0  0  0  0  0
  1  2  1  0
  2  3  2  0
  3  4  1  0
  3  5  1  0
  5  6  1  0
  5  7  2  0
  7  8  1  0
  8  9  1  0
  9 10  2  0
 10 11  1  0
 11 12  2  0
 12 13  1  0
 13 14  2  0
 14 15  1  0
 14 16  1  0
 16 17  1  0
 16 18  2  0
 18 19  1  0
 18 20  1  0
 20 21  1  0
 21 22  2  0
 21 23  1  0
 23 24  1  6
 23 25  1  0
 25 26  1  0
 25 27  1  0
 25 28  1  0
 28 29  1  0
 28 30  1  0
 28 31  1  0
 31 32  1  1
 31 33  1  0
 33 34  1  0
 34 35  1  0
 34 36  1  0
 34 37  1  0
 37 38  1  0
 37 39  1  0
 37 40  1  0
 31 41  1  0
 41 42  1  0
 41 43  1  0
 41 44  1  0
 44 45  1  0
 44 46  1  0
 20 47  2  0
 47 48  1  0
 11 49  1  0
 49 50  1  0
 49 51  1  0
 51 52  1  0
 51 53  2  0
 53 54  1  0
 54 55  1  0
 55 56  1  0
 55 57  1  0
 55 58  1  0
 54 59  1  0
 59 60  2  0
 59 61  1  0
 61 62  1  0
 61 63  1  0
 61 64  1  0
 64 65  1  0
 64 66  1  0
  7 67  1  0
 67 68  1  0
 67 69  2  0
 69 70  1  0
 69  2  1  0
 64  8  1  0
 53  9  1  0
 47 13  1  0
 44 23  1  0
M  CHG  1  23   1
M  END
>  <UniqueID>  (62) 
24

>  <SMILES>  (62) 
CCOC1CC[NH+](C(=O)c2cccc(/N=c3\nc4c(c[nH]3)N(C)C(=O)CCN4c3ccccc3)c2)CC1

>  <Energy>  (62) 
113.05173742060987

>  <Genealogy>  (62) 
CCOC1CC[NH+](C(=O)c2cccc(N=c3nc4c(c[nH]3)N(C)C(=O)CCN4c3ccccc3)c2)CC1 (protonated)
CCOC1CC[NH+](C(=O)c2cccc(/N=c3\nc4c(c[nH]3)N(C)C(=O)CCN4c3ccccc3)c2)CC1 (cis-trans isomerization)
CCOC1CC[NH+](C(=O)c2cccc(/N=c3\nc4c(c[nH]3)N(C)C(=O)CCN4c3ccccc3)c2)CC1 (3D coordinates assigned)
CCOC1CC[NH+](C(=O)c2cccc(/N=c3\nc4c(c[nH]3)N(C)C(=O)CCN4c3ccccc3)c2)CC1 (nonaromatic ring conformer: 113.05173742060987 kcal/mol)

>  <smiles>  (62) 
CCOC1CCN(C(=O)c2cccc(N=c3nc4c(c[nH]3)N(C)C(=O)CCN4c3ccccc3)c2)CC1

>  <score_type>  (62) 
oracle

>  <origin>  (62) 
autodockgpu

>  <m_score__min__energy>  (62) 
-6.8300000000000001

>  <m_primary>  (62) 
energy

>  <meeko>  (62) 
{"free_energy": -6.83, "intermolecular_energy": -10.41, "internal_energy": -1.01, "cluster_size": 1, "cluster_id": 1, "rank_in_cluster": 1}

>  <energy>  (62) 
-5.6

>  <cluster_rmsd>  (62) 
0.0

>  <rmsd>  (62) 
270.91

>  <cluster>  (62) 
2

$$$$
KHESEQRZXKFTOB-IGPOTQGWNA-O
     RDKit          3D

 70 74  0  0  0  0  0  0  0  0999 V2000
  141.6968   82.3216  220.7360 H   0  0  0  0  0  0  0  0  0  0  0  0
  141.7820   81.2330  220.6030 C   0  0  0  0  0  0  0  0  0  0  0  0
  142.0730   80.4160  221.6990 C   0  0  0  0  0  0  0  0  0  0  0  0
  142.2210   80.8620  222.6936 H   0  0  0  0  0  0  0  0  0  0  0  0
  142.1760   79.0310  221.5310 C   0  0  0  0  0  0  0  0  0  0  0  0
  142.4116   78.3911  222.3942 H   0  0  0  0  0  0  0  0  0  0  0  0
  141.9800   78.4530  220.2650 C   0  0  0  0  0  0  0  0  0  0  0  0
  142.0020   77.0190  220.1090 N   0  0  0  0  0  0  0  0  0  0  0  0
  141.0180   76.2280  220.8230 C   0  0  0  0  0  0  0  0  0  0  0  0
  140.0470   76.8920  221.5030 N   0  0  0  0  0  0  0  0  0  0  0  0
  139.0660   76.2670  222.1970 C   0  0  0  0  0  0  0  0  0  0  0  0
  138.2020   76.9580  222.8850 N   0  0  0  0  0  0  0  0  0  0  0  0
  138.3030   78.3740  223.1010 C   0  0  0  0  0  0  0  0  0  0  0  0
  139.5220   78.9650  223.4750 C   0  0  0  0  0  0  0  0  0  0  0  0
  140.4264   78.3454  223.5661 H   0  0  0  0  0  0  0  0  0  0  0  0
  139.5890   80.3340  223.7310 C   0  0  0  0  0  0  0  0  0  0  0  0
  140.5472   80.7928  224.0162 H   0  0  0  0  0  0  0  0  0  0  0  0
  138.4420   81.1240  223.6260 C   0  0  0  0  0  0  0  0  0  0  0  0
  138.5001   82.2029  223.8325 H   0  0  0  0  0  0  0  0  0  0  0  0
  137.2140   80.5480  223.2580 C   0  0  0  0  0  0  0  0  0  0  0  0
  135.9940   81.3880  223.2060 C   0  0  0  0  0  0  0  0  0  0  0  0
  135.5830   81.7970  222.0850 O   0  0  0  0  0  0  0  0  0  0  0  0
  135.2840   81.7660  224.4130 N   0  0  2  0  0  0  0  0  0  0  0  0
  134.4100   82.2750  224.1450 H   0  0  0  0  0  0  0  0  0  0  0  0
  136.1020   82.7000  225.2410 C   0  0  0  0  0  0  0  0  0  0  0  0
  135.4574   83.5250  225.5785 H   0  0  0  0  0  0  0  0  0  0  0  0
  136.9309   83.0565  224.6118 H   0  0  0  0  0  0  0  0  0  0  0  0
  136.7200   82.0260  226.4750 C   0  0  0  0  0  0  0  0  0  0  0  0
  137.2795   82.7782  227.0504 H   0  0  0  0  0  0  0  0  0  0  0  0
  137.3859   81.2208  226.1311 H   0  0  0  0  0  0  0  0  0  0  0  0
  135.6350   81.4030  227.3840 C   0  0  1  0  0  0  0  0  0  0  0  0
  136.0987   80.5545  227.9085 H   0  0  0  0  0  0  0  0  0  0  0  0
  135.1660   82.3760  228.3080 O   0  0  0  0  0  0  0  0  0  0  0  0
  135.4380   82.0030  229.6460 C   0  0  0  0  0  0  0  0  0  0  0  0
  135.5717   82.9092  230.2550 H   0  0  0  0  0  0  0  0  0  0  0  0
  136.3542   81.3947  229.6680 H   0  0  0  0  0  0  0  0  0  0  0  0
  134.2850   81.1820  230.2130 C   0  0  0  0  0  0  0  0  0  0  0  0
  134.3219   81.2083  231.3121 H   0  0  0  0  0  0  0  0  0  0  0  0
  133.3297   81.6043  229.8680 H   0  0  0  0  0  0  0  0  0  0  0  0
  134.3716   80.1411  229.8680 H   0  0  0  0  0  0  0  0  0  0  0  0
  134.4290   80.8800  226.5730 C   0  0  0  0  0  0  0  0  0  0  0  0
  133.6453   81.6517  226.5574 H   0  0  0  0  0  0  0  0  0  0  0  0
  134.0592   79.9613  227.0519 H   0  0  0  0  0  0  0  0  0  0  0  0
  134.8320   80.5480  225.1330 C   0  0  0  0  0  0  0  0  0  0  0  0
  133.9663   80.1194  224.6068 H   0  0  0  0  0  0  0  0  0  0  0  0
  135.6626   79.8273  225.1586 H   0  0  0  0  0  0  0  0  0  0  0  0
  137.1620   79.1730  222.9620 C   0  0  0  0  0  0  0  0  0  0  0  0
  136.2185   78.7232  222.6192 H   0  0  0  0  0  0  0  0  0  0  0  0
  139.0260   74.9110  222.2190 N   0  0  0  0  0  0  0  0  0  0  0  0
  138.2790   74.4170  222.7590 H   0  0  0  0  0  0  0  0  0  0  0  0
  139.9620   74.1800  221.5590 C   0  0  0  0  0  0  0  0  0  0  0  0
  139.9097   73.0816  221.5862 H   0  0  0  0  0  0  0  0  0  0  0  0
  140.9990   74.8080  220.8400 C   0  0  0  0  0  0  0  0  0  0  0  0
  142.0020   73.9970  220.1880 N   0  0  0  0  0  0  0  0  0  0  0  0
  141.6380   72.7160  219.5770 C   0  0  0  0  0  0  0  0  0  0  0  0
  141.4287   71.9794  220.3667 H   0  0  0  0  0  0  0  0  0  0  0  0
  140.7421   72.8489  218.9528 H   0  0  0  0  0  0  0  0  0  0  0  0
  142.4700   72.3579  218.9528 H   0  0  0  0  0  0  0  0  0  0  0  0
  143.3970   74.2720  220.3860 C   0  0  0  0  0  0  0  0  0  0  0  0
  144.1500   73.3780  220.8560 O   0  0  0  0  0  0  0  0  0  0  0  0
  143.9890   75.5900  220.0000 C   0  0  0  0  0  0  0  0  0  0  0  0
  144.2731   76.1359  220.9117 H   0  0  0  0  0  0  0  0  0  0  0  0
  144.8695   75.4031  219.3678 H   0  0  0  0  0  0  0  0  0  0  0  0
  142.9970   76.4320  219.2060 C   0  0  0  0  0  0  0  0  0  0  0  0
  143.5368   77.2371  218.6859 H   0  0  0  0  0  0  0  0  0  0  0  0
  142.4855   75.7914  218.4725 H   0  0  0  0  0  0  0  0  0  0  0  0
  141.6950   79.2820  219.1670 C   0  0  0  0  0  0  0  0  0  0  0  0
  141.5469   78.8404  218.1705 H   0  0  0  0  0  0  0  0  0  0  0  0
  141.5990   80.6670  219.3370 C   0  0  0  0  0  0  0  0  0  0  0  0
  141.3792   81.3122  218.4737 H   0  0  0  0  0  0  0  0  0  0  0  0
  1  2  1  0
  2  3  2  0
  3  4  1  0
  3  5  1  0
  5  6  1  0
  5  7  2  0
  7  8  1  0
  8  9  1  0
  9 10  2  0
 10 11  1  0
 11 12  2  0
 12 13  1  0
 13 14  2  0
 14 15  1  0
 14 16  1  0
 16 17  1  0
 16 18  2  0
 18 19  1  0
 18 20  1  0
 20 21  1  0
 21 22  2  0
 21 23  1  0
 23 24  1  1
 23 25  1  0
 25 26  1  0
 25 27  1  0
 25 28  1  0
 28 29  1  0
 28 30  1  0
 28 31  1  0
 31 32  1  6
 31 33  1  0
 33 34  1  0
 34 35  1  0
 34 36  1  0
 34 37  1  0
 37 38  1  0
 37 39  1  0
 37 40  1  0
 31 41  1  0
 41 42  1  0
 41 43  1  0
 41 44  1  0
 44 45  1  0
 44 46  1  0
 20 47  2  0
 47 48  1  0
 11 49  1  0
 49 50  1  0
 49 51  1  0
 51 52  1  0
 51 53  2  0
 53 54  1  0
 54 55  1  0
 55 56  1  0
 55 57  1  0
 55 58  1  0
 54 59  1  0
 59 60  2  0
 59 61  1  0
 61 62  1  0
 61 63  1  0
 61 64  1  0
 64 65  1  0
 64 66  1  0
  7 67  1  0
 67 68  1  0
 67 69  2  0
 69 70  1  0
 69  2  1  0
 64  8  1  0
 53  9  1  0
 47 13  1  0
 44 23  1  0
M  CHG  1  23   1
M  END
>  <UniqueID>  (63) 
24

>  <SMILES>  (63) 
CCOC1CC[NH+](C(=O)c2cccc(/N=c3\nc4c(c[nH]3)N(C)C(=O)CCN4c3ccccc3)c2)CC1

>  <Energy>  (63) 
113.05173742060987

>  <Genealogy>  (63) 
CCOC1CC[NH+](C(=O)c2cccc(N=c3nc4c(c[nH]3)N(C)C(=O)CCN4c3ccccc3)c2)CC1 (protonated)
CCOC1CC[NH+](C(=O)c2cccc(/N=c3\nc4c(c[nH]3)N(C)C(=O)CCN4c3ccccc3)c2)CC1 (cis-trans isomerization)
CCOC1CC[NH+](C(=O)c2cccc(/N=c3\nc4c(c[nH]3)N(C)C(=O)CCN4c3ccccc3)c2)CC1 (3D coordinates assigned)
CCOC1CC[NH+](C(=O)c2cccc(/N=c3\nc4c(c[nH]3)N(C)C(=O)CCN4c3ccccc3)c2)CC1 (nonaromatic ring conformer: 113.05173742060987 kcal/mol)

>  <smiles>  (63) 
CCOC1CCN(C(=O)c2cccc(N=c3nc4c(c[nH]3)N(C)C(=O)CCN4c3ccccc3)c2)CC1

>  <score_type>  (63) 
oracle

>  <origin>  (63) 
autodockgpu

>  <m_score__min__energy>  (63) 
-6.8300000000000001

>  <m_primary>  (63) 
energy

>  <meeko>  (63) 
{"free_energy": -5.28, "intermolecular_energy": -8.86, "internal_energy": -2.14, "cluster_size": 2, "cluster_id": 3, "rank_in_cluster": 1}

>  <energy>  (63) 
-5.57

>  <cluster_rmsd>  (63) 
0.27

>  <rmsd>  (63) 
270.88

>  <cluster>  (63) 
2

$$$$
KHESEQRZXKFTOB-IGPOTQGWNA-O
     RDKit          3D

 70 74  0  0  0  0  0  0  0  0999 V2000
  134.4182   73.0946  225.6926 H   0  0  0  0  0  0  0  0  0  0  0  0
  134.8440   73.8590  225.0260 C   0  0  0  0  0  0  0  0  0  0  0  0
  134.6970   75.2140  225.3340 C   0  0  0  0  0  0  0  0  0  0  0  0
  134.1523   75.5159  226.2408 H   0  0  0  0  0  0  0  0  0  0  0  0
  135.2420   76.1860  224.4900 C   0  0  0  0  0  0  0  0  0  0  0  0
  135.1189   77.2520  224.7319 H   0  0  0  0  0  0  0  0  0  0  0  0
  135.9470   75.8080  223.3330 C   0  0  0  0  0  0  0  0  0  0  0  0
  136.5810   76.8070  222.5080 N   0  0  0  0  0  0  0  0  0  0  0  0
  138.0300   76.8580  222.4710 C   0  0  0  0  0  0  0  0  0  0  0  0
  138.6970   75.6960  222.2450 N   0  0  0  0  0  0  0  0  0  0  0  0
  140.0480   75.6150  222.1760 C   0  0  0  0  0  0  0  0  0  0  0  0
  140.6320   74.4610  222.0250 N   0  0  0  0  0  0  0  0  0  0  0  0
  140.0210   73.3360  221.3750 C   0  0  0  0  0  0  0  0  0  0  0  0
  140.4800   72.8820  220.1270 C   0  0  0  0  0  0  0  0  0  0  0  0
  141.3466   73.3659  219.6528 H   0  0  0  0  0  0  0  0  0  0  0  0
  139.8410   71.8200  219.4870 C   0  0  0  0  0  0  0  0  0  0  0  0
  140.2100   71.4625  218.5143 H   0  0  0  0  0  0  0  0  0  0  0  0
  138.7330   71.2100  220.0800 C   0  0  0  0  0  0  0  0  0  0  0  0
  138.2299   70.3759  219.5690 H   0  0  0  0  0  0  0  0  0  0  0  0
  138.2570   71.6550  221.3250 C   0  0  0  0  0  0  0  0  0  0  0  0
  137.0470   71.0360  221.9140 C   0  0  0  0  0  0  0  0  0  0  0  0
  135.9230   71.5700  221.7010 O   0  0  0  0  0  0  0  0  0  0  0  0
  137.1330   69.8510  222.7470 N   0  0  2  0  0  0  0  0  0  0  0  0
  136.2260   69.3330  222.6920 H   0  0  0  0  0  0  0  0  0  0  0  0
  137.3430   70.2210  224.1780 C   0  0  0  0  0  0  0  0  0  0  0  0
  136.6677   69.6144  224.7993 H   0  0  0  0  0  0  0  0  0  0  0  0
  137.1343   71.2968  224.2729 H   0  0  0  0  0  0  0  0  0  0  0  0
  138.7850   69.9900  224.6540 C   0  0  0  0  0  0  0  0  0  0  0  0
  138.8565   70.2541  225.7194 H   0  0  0  0  0  0  0  0  0  0  0  0
  139.4536   70.6201  224.0490 H   0  0  0  0  0  0  0  0  0  0  0  0
  139.2120   68.5140  224.4720 C   0  0  1  0  0  0  0  0  0  0  0  0
  140.3028   68.5066  224.3300 H   0  0  0  0  0  0  0  0  0  0  0  0
  138.8460   67.7620  225.6210 O   0  0  0  0  0  0  0  0  0  0  0  0
  139.5410   68.1970  226.7740 C   0  0  0  0  0  0  0  0  0  0  0  0
  139.0705   67.7601  227.6672 H   0  0  0  0  0  0  0  0  0  0  0  0
  139.4984   69.2951  226.8231 H   0  0  0  0  0  0  0  0  0  0  0  0
  141.0010   67.7610  226.7110 C   0  0  0  0  0  0  0  0  0  0  0  0
  141.3931   67.6439  227.7321 H   0  0  0  0  0  0  0  0  0  0  0  0
  141.0745   66.8017  226.1777 H   0  0  0  0  0  0  0  0  0  0  0  0
  141.5885   68.5229  226.1777 H   0  0  0  0  0  0  0  0  0  0  0  0
  138.5500   67.8680  223.2350 C   0  0  0  0  0  0  0  0  0  0  0  0
  137.6477   67.3253  223.5535 H   0  0  0  0  0  0  0  0  0  0  0  0
  139.2736   67.1807  222.7723 H   0  0  0  0  0  0  0  0  0  0  0  0
  138.1570   68.9260  222.2000 C   0  0  0  0  0  0  0  0  0  0  0  0
  137.7497   68.4244  221.3097 H   0  0  0  0  0  0  0  0  0  0  0  0
  139.0520   69.5094  221.9382 H   0  0  0  0  0  0  0  0  0  0  0  0
  138.9320   72.7000  221.9840 C   0  0  0  0  0  0  0  0  0  0  0  0
  138.6020   73.0190  222.9836 H   0  0  0  0  0  0  0  0  0  0  0  0
  140.7900   76.7410  222.3260 N   0  0  0  0  0  0  0  0  0  0  0  0
  141.8330   76.6900  222.2830 H   0  0  0  0  0  0  0  0  0  0  0  0
  140.1920   77.9410  222.5500 C   0  0  0  0  0  0  0  0  0  0  0  0
  140.8119   78.8425  222.6643 H   0  0  0  0  0  0  0  0  0  0  0  0
  138.7890   78.0470  222.6380 C   0  0  0  0  0  0  0  0  0  0  0  0
  138.1920   79.3320  222.9230 N   0  0  0  0  0  0  0  0  0  0  0  0
  138.5430   80.0580  224.1460 C   0  0  0  0  0  0  0  0  0  0  0  0
  138.2540   79.4602  225.0230 H   0  0  0  0  0  0  0  0  0  0  0  0
  139.6279   80.2385  224.1667 H   0  0  0  0  0  0  0  0  0  0  0  0
  138.0107   81.0204  224.1667 H   0  0  0  0  0  0  0  0  0  0  0  0
  137.0410   79.7740  222.1880 C   0  0  0  0  0  0  0  0  0  0  0  0
  137.1500   80.7270  221.3710 O   0  0  0  0  0  0  0  0  0  0  0  0
  135.7170   79.0940  222.3380 C   0  0  0  0  0  0  0  0  0  0  0  0
  135.4799   79.0061  223.4085 H   0  0  0  0  0  0  0  0  0  0  0  0
  134.9590   79.6969  221.8164 H   0  0  0  0  0  0  0  0  0  0  0  0
  135.7290   77.7020  221.7180 C   0  0  0  0  0  0  0  0  0  0  0  0
  134.7037   77.3040  221.6970 H   0  0  0  0  0  0  0  0  0  0  0  0
  136.1258   77.7668  220.6941 H   0  0  0  0  0  0  0  0  0  0  0  0
  136.0830   74.4440  223.0270 C   0  0  0  0  0  0  0  0  0  0  0  0
  136.6248   74.1373  222.1202 H   0  0  0  0  0  0  0  0  0  0  0  0
  135.5320   73.4740  223.8710 C   0  0  0  0  0  0  0  0  0  0  0  0
  135.6400   72.4071  223.6259 H   0  0  0  0  0  0  0  0  0  0  0  0
  1  2  1  0
  2  3  2  0
  3  4  1  0
  3  5  1  0
  5  6  1  0
  5  7  2  0
  7  8  1  0
  8  9  1  0
  9 10  2  0
 10 11  1  0
 11 12  2  0
 12 13  1  0
 13 14  2  0
 14 15  1  0
 14 16  1  0
 16 17  1  0
 16 18  2  0
 18 19  1  0
 18 20  1  0
 20 21  1  0
 21 22  2  0
 21 23  1  0
 23 24  1  6
 23 25  1  0
 25 26  1  0
 25 27  1  0
 25 28  1  0
 28 29  1  0
 28 30  1  0
 28 31  1  0
 31 32  1  1
 31 33  1  0
 33 34  1  0
 34 35  1  0
 34 36  1  0
 34 37  1  0
 37 38  1  0
 37 39  1  0
 37 40  1  0
 31 41  1  0
 41 42  1  0
 41 43  1  0
 41 44  1  0
 44 45  1  0
 44 46  1  0
 20 47  2  0
 47 48  1  0
 11 49  1  0
 49 50  1  0
 49 51  1  0
 51 52  1  0
 51 53  2  0
 53 54  1  0
 54 55  1  0
 55 56  1  0
 55 57  1  0
 55 58  1  0
 54 59  1  0
 59 60  2  0
 59 61  1  0
 61 62  1  0
 61 63  1  0
 61 64  1  0
 64 65  1  0
 64 66  1  0
  7 67  1  0
 67 68  1  0
 67 69  2  0
 69 70  1  0
 69  2  1  0
 64  8  1  0
 53  9  1  0
 47 13  1  0
 44 23  1  0
M  CHG  1  23   1
M  END
>  <UniqueID>  (64) 
24

>  <SMILES>  (64) 
CCOC1CC[NH+](C(=O)c2cccc(/N=c3\nc4c(c[nH]3)N(C)C(=O)CCN4c3ccccc3)c2)CC1

>  <Energy>  (64) 
113.05173742060987

>  <Genealogy>  (64) 
CCOC1CC[NH+](C(=O)c2cccc(N=c3nc4c(c[nH]3)N(C)C(=O)CCN4c3ccccc3)c2)CC1 (protonated)
CCOC1CC[NH+](C(=O)c2cccc(/N=c3\nc4c(c[nH]3)N(C)C(=O)CCN4c3ccccc3)c2)CC1 (cis-trans isomerization)
CCOC1CC[NH+](C(=O)c2cccc(/N=c3\nc4c(c[nH]3)N(C)C(=O)CCN4c3ccccc3)c2)CC1 (3D coordinates assigned)
CCOC1CC[NH+](C(=O)c2cccc(/N=c3\nc4c(c[nH]3)N(C)C(=O)CCN4c3ccccc3)c2)CC1 (nonaromatic ring conformer: 113.05173742060987 kcal/mol)

>  <smiles>  (64) 
CCOC1CCN(C(=O)c2cccc(N=c3nc4c(c[nH]3)N(C)C(=O)CCN4c3ccccc3)c2)CC1

>  <score_type>  (64) 
oracle

>  <origin>  (64) 
autodockgpu

>  <m_score__min__energy>  (64) 
-6.8300000000000001

>  <m_primary>  (64) 
energy

>  <meeko>  (64) 
{"free_energy": -5.08, "intermolecular_energy": -8.66, "internal_energy": -2.34, "cluster_size": 1, "cluster_id": 6, "rank_in_cluster": 1}

>  <energy>  (64) 
-5.14

>  <cluster_rmsd>  (64) 
1.77

>  <rmsd>  (64) 
270.91

>  <cluster>  (64) 
2

$$$$
KHESEQRZXKFTOB-IGPOTQGWNA-O
     RDKit          3D

 70 74  0  0  0  0  0  0  0  0999 V2000
  144.0965   80.2455  223.0841 H   0  0  0  0  0  0  0  0  0  0  0  0
  143.0130   80.0910  222.9740 C   0  0  0  0  0  0  0  0  0  0  0  0
  142.3290   79.2720  223.8770 C   0  0  0  0  0  0  0  0  0  0  0  0
  142.8747   78.7789  224.6949 H   0  0  0  0  0  0  0  0  0  0  0  0
  140.9510   79.0800  223.7400 C   0  0  0  0  0  0  0  0  0  0  0  0
  140.4163   78.4306  224.4487 H   0  0  0  0  0  0  0  0  0  0  0  0
  140.2450   79.7120  222.7020 C   0  0  0  0  0  0  0  0  0  0  0  0
  138.8110   79.5810  222.6120 N   0  0  0  0  0  0  0  0  0  0  0  0
  138.2250   78.2610  222.7500 C   0  0  0  0  0  0  0  0  0  0  0  0
  139.0600   77.1900  222.6840 N   0  0  0  0  0  0  0  0  0  0  0  0
  138.6360   75.9090  222.8100 C   0  0  0  0  0  0  0  0  0  0  0  0
  139.4730   74.9220  222.6710 N   0  0  0  0  0  0  0  0  0  0  0  0
  140.2260   74.6760  221.4730 C   0  0  0  0  0  0  0  0  0  0  0  0
  139.9020   73.6090  220.6190 C   0  0  0  0  0  0  0  0  0  0  0  0
  139.0341   72.9717  220.8439 H   0  0  0  0  0  0  0  0  0  0  0  0
  140.6760   73.3540  219.4870 C   0  0  0  0  0  0  0  0  0  0  0  0
  140.4120   72.5229  218.8165 H   0  0  0  0  0  0  0  0  0  0  0  0
  141.7870   74.1540  219.2040 C   0  0  0  0  0  0  0  0  0  0  0  0
  142.3971   73.9466  218.3125 H   0  0  0  0  0  0  0  0  0  0  0  0
  142.1290   75.2210  220.0510 C   0  0  0  0  0  0  0  0  0  0  0  0
  143.3410   76.0250  219.7690 C   0  0  0  0  0  0  0  0  0  0  0  0
  144.4700   75.5600  220.0920 O   0  0  0  0  0  0  0  0  0  0  0  0
  143.2530   77.3370  219.1560 N   0  0  2  0  0  0  0  0  0  0  0  0
  144.1700   77.8270  219.2750 H   0  0  0  0  0  0  0  0  0  0  0  0
  142.2170   78.1710  219.8330 C   0  0  0  0  0  0  0  0  0  0  0  0
  142.6321   79.1753  220.0034 H   0  0  0  0  0  0  0  0  0  0  0  0
  141.9556   77.6688  220.7761 H   0  0  0  0  0  0  0  0  0  0  0  0
  140.9260   78.3080  219.0130 C   0  0  0  0  0  0  0  0  0  0  0  0
  140.2245   78.9577  219.5569 H   0  0  0  0  0  0  0  0  0  0  0  0
  140.5000   77.3039  218.8702 H   0  0  0  0  0  0  0  0  0  0  0  0
  141.2010   78.9210  217.6190 C   0  0  1  0  0  0  0  0  0  0  0  0
  140.4267   78.5393  216.9373 H   0  0  0  0  0  0  0  0  0  0  0  0
  141.1510   80.3390  217.6990 O   0  0  0  0  0  0  0  0  0  0  0  0
  142.0720   80.9470  216.8140 C   0  0  0  0  0  0  0  0  0  0  0  0
  141.5206   81.5230  216.0562 H   0  0  0  0  0  0  0  0  0  0  0  0
  142.6725   80.1632  216.3292 H   0  0  0  0  0  0  0  0  0  0  0  0
  143.0030   81.8830  217.5780 C   0  0  0  0  0  0  0  0  0  0  0  0
  142.8605   81.7397  218.6593 H   0  0  0  0  0  0  0  0  0  0  0  0
  144.0468   81.6588  217.3129 H   0  0  0  0  0  0  0  0  0  0  0  0
  142.7732   82.9255  217.3129 H   0  0  0  0  0  0  0  0  0  0  0  0
  142.5860   78.5120  217.0700 C   0  0  0  0  0  0  0  0  0  0  0  0
  143.3131   79.3031  217.3056 H   0  0  0  0  0  0  0  0  0  0  0  0
  142.5020   78.3734  215.9820 H   0  0  0  0  0  0  0  0  0  0  0  0
  143.0620   77.1950  217.6910 C   0  0  0  0  0  0  0  0  0  0  0  0
  144.0175   76.9044  217.2300 H   0  0  0  0  0  0  0  0  0  0  0  0
  142.2973   76.4252  217.5099 H   0  0  0  0  0  0  0  0  0  0  0  0
  141.3180   75.4980  221.1680 C   0  0  0  0  0  0  0  0  0  0  0  0
  141.5436   76.3657  221.8053 H   0  0  0  0  0  0  0  0  0  0  0  0
  137.3190   75.6620  223.0230 N   0  0  0  0  0  0  0  0  0  0  0  0
  136.9790   74.6770  223.1120 H   0  0  0  0  0  0  0  0  0  0  0  0
  136.4260   76.6830  223.1030 C   0  0  0  0  0  0  0  0  0  0  0  0
  135.3632   76.4610  223.2795 H   0  0  0  0  0  0  0  0  0  0  0  0
  136.8420   78.0230  222.9630 C   0  0  0  0  0  0  0  0  0  0  0  0
  135.8570   79.0790  223.0100 N   0  0  0  0  0  0  0  0  0  0  0  0
  134.8130   79.1660  221.9850 C   0  0  0  0  0  0  0  0  0  0  0  0
  133.8290   79.2480  222.4699 H   0  0  0  0  0  0  0  0  0  0  0  0
  134.9878   80.0527  221.3579 H   0  0  0  0  0  0  0  0  0  0  0  0
  134.8386   78.2626  221.3579 H   0  0  0  0  0  0  0  0  0  0  0  0
  136.0540   80.2170  223.8620 C   0  0  0  0  0  0  0  0  0  0  0  0
  135.2360   80.4510  224.7920 O   0  0  0  0  0  0  0  0  0  0  0  0
  137.2430   81.1100  223.7000 C   0  0  0  0  0  0  0  0  0  0  0  0
  136.9022   82.1553  223.6636 H   0  0  0  0  0  0  0  0  0  0  0  0
  137.9158   80.9461  224.5547 H   0  0  0  0  0  0  0  0  0  0  0  0
  138.0100   80.7950  222.4220 C   0  0  0  0  0  0  0  0  0  0  0  0
  137.2985   80.6382  221.5979 H   0  0  0  0  0  0  0  0  0  0  0  0
  138.6760   81.6365  222.1803 H   0  0  0  0  0  0  0  0  0  0  0  0
  140.9420   80.5270  221.7950 C   0  0  0  0  0  0  0  0  0  0  0  0
  140.4007   81.0203  220.9742 H   0  0  0  0  0  0  0  0  0  0  0  0
  142.3210   80.7140  221.9310 C   0  0  0  0  0  0  0  0  0  0  0  0
  142.8620   81.3519  221.2166 H   0  0  0  0  0  0  0  0  0  0  0  0
  1  2  1  0
  2  3  2  0
  3  4  1  0
  3  5  1  0
  5  6  1  0
  5  7  2  0
  7  8  1  0
  8  9  1  0
  9 10  2  0
 10 11  1  0
 11 12  2  0
 12 13  1  0
 13 14  2  0
 14 15  1  0
 14 16  1  0
 16 17  1  0
 16 18  2  0
 18 19  1  0
 18 20  1  0
 20 21  1  0
 21 22  2  0
 21 23  1  0
 23 24  1  1
 23 25  1  0
 25 26  1  0
 25 27  1  0
 25 28  1  0
 28 29  1  0
 28 30  1  0
 28 31  1  0
 31 32  1  1
 31 33  1  0
 33 34  1  0
 34 35  1  0
 34 36  1  0
 34 37  1  0
 37 38  1  0
 37 39  1  0
 37 40  1  0
 31 41  1  0
 41 42  1  0
 41 43  1  0
 41 44  1  0
 44 45  1  0
 44 46  1  0
 20 47  2  0
 47 48  1  0
 11 49  1  0
 49 50  1  0
 49 51  1  0
 51 52  1  0
 51 53  2  0
 53 54  1  0
 54 55  1  0
 55 56  1  0
 55 57  1  0
 55 58  1  0
 54 59  1  0
 59 60  2  0
 59 61  1  0
 61 62  1  0
 61 63  1  0
 61 64  1  0
 64 65  1  0
 64 66  1  0
  7 67  1  0
 67 68  1  0
 67 69  2  0
 69 70  1  0
 69  2  1  0
 64  8  1  0
 53  9  1  0
 47 13  1  0
 44 23  1  0
M  CHG  1  23   1
M  END
>  <UniqueID>  (65) 
24

>  <SMILES>  (65) 
CCOC1CC[NH+](C(=O)c2cccc(/N=c3\nc4c(c[nH]3)N(C)C(=O)CCN4c3ccccc3)c2)CC1

>  <Energy>  (65) 
113.05173742060987

>  <Genealogy>  (65) 
CCOC1CC[NH+](C(=O)c2cccc(N=c3nc4c(c[nH]3)N(C)C(=O)CCN4c3ccccc3)c2)CC1 (protonated)
CCOC1CC[NH+](C(=O)c2cccc(/N=c3\nc4c(c[nH]3)N(C)C(=O)CCN4c3ccccc3)c2)CC1 (cis-trans isomerization)
CCOC1CC[NH+](C(=O)c2cccc(/N=c3\nc4c(c[nH]3)N(C)C(=O)CCN4c3ccccc3)c2)CC1 (3D coordinates assigned)
CCOC1CC[NH+](C(=O)c2cccc(/N=c3\nc4c(c[nH]3)N(C)C(=O)CCN4c3ccccc3)c2)CC1 (nonaromatic ring conformer: 113.05173742060987 kcal/mol)

>  <smiles>  (65) 
CCOC1CCN(C(=O)c2cccc(N=c3nc4c(c[nH]3)N(C)C(=O)CCN4c3ccccc3)c2)CC1

>  <score_type>  (65) 
oracle

>  <origin>  (65) 
autodockgpu

>  <m_score__min__energy>  (65) 
-6.8300000000000001

>  <m_primary>  (65) 
energy

>  <meeko>  (65) 
{"free_energy": -5.24, "intermolecular_energy": -8.82, "internal_energy": -2.62, "cluster_size": 4, "cluster_id": 4, "rank_in_cluster": 1}

>  <energy>  (65) 
-5.28

>  <cluster_rmsd>  (65) 
0.0

>  <rmsd>  (65) 
271.83

>  <cluster>  (65) 
3

$$$$
KHESEQRZXKFTOB-IGPOTQGWNA-O
     RDKit          3D

 70 74  0  0  0  0  0  0  0  0999 V2000
  142.5676   78.7242  216.0979 H   0  0  0  0  0  0  0  0  0  0  0  0
  142.6980   77.9960  216.9120 C   0  0  0  0  0  0  0  0  0  0  0  0
  142.3520   78.3420  218.2210 C   0  0  0  0  0  0  0  0  0  0  0  0
  141.9529   79.3439  218.4378 H   0  0  0  0  0  0  0  0  0  0  0  0
  142.5130   77.4150  219.2550 C   0  0  0  0  0  0  0  0  0  0  0  0
  142.2461   77.6928  220.2853 H   0  0  0  0  0  0  0  0  0  0  0  0
  143.0140   76.1300  218.9850 C   0  0  0  0  0  0  0  0  0  0  0  0
  143.1000   75.1470  220.0380 N   0  0  0  0  0  0  0  0  0  0  0  0
  141.8980   74.8200  220.7810 C   0  0  0  0  0  0  0  0  0  0  0  0
  141.2240   75.8400  221.3730 N   0  0  0  0  0  0  0  0  0  0  0  0
  140.0840   75.6650  222.0840 C   0  0  0  0  0  0  0  0  0  0  0  0
  139.5200   76.6730  222.6840 N   0  0  0  0  0  0  0  0  0  0  0  0
  140.1090   77.9800  222.7750 C   0  0  0  0  0  0  0  0  0  0  0  0
  141.4210   78.1510  223.2490 C   0  0  0  0  0  0  0  0  0  0  0  0
  142.0256   77.2724  223.5183 H   0  0  0  0  0  0  0  0  0  0  0  0
  141.9590   79.4320  223.3790 C   0  0  0  0  0  0  0  0  0  0  0  0
  142.9894   79.5607  223.7419 H   0  0  0  0  0  0  0  0  0  0  0  0
  141.1910   80.5510  223.0490 C   0  0  0  0  0  0  0  0  0  0  0  0
  141.6188   81.5586  223.1571 H   0  0  0  0  0  0  0  0  0  0  0  0
  139.8760   80.3980  222.5800 C   0  0  0  0  0  0  0  0  0  0  0  0
  139.0540   81.5960  222.2880 C   0  0  0  0  0  0  0  0  0  0  0  0
  138.1840   81.9590  223.1280 O   0  0  0  0  0  0  0  0  0  0  0  0
  139.2120   82.3380  221.0510 N   0  0  2  0  0  0  0  0  0  0  0  0
  138.3940   82.9800  220.9370 H   0  0  0  0  0  0  0  0  0  0  0  0
  139.2180   81.4180  219.8760 C   0  0  0  0  0  0  0  0  0  0  0  0
  138.5686   81.8417  219.0958 H   0  0  0  0  0  0  0  0  0  0  0  0
  138.8574   80.4385  220.2233 H   0  0  0  0  0  0  0  0  0  0  0  0
  140.6200   81.2080  219.2850 C   0  0  0  0  0  0  0  0  0  0  0  0
  140.5430   80.5478  218.4085 H   0  0  0  0  0  0  0  0  0  0  0  0
  141.2570   80.7576  220.0605 H   0  0  0  0  0  0  0  0  0  0  0  0
  141.2600   82.5480  218.8500 C   0  0  1  0  0  0  0  0  0  0  0  0
  142.3507   82.4302  218.9304 H   0  0  0  0  0  0  0  0  0  0  0  0
  140.8800   82.8490  217.5150 O   0  0  0  0  0  0  0  0  0  0  0  0
  141.8900   82.4920  216.5900 C   0  0  0  0  0  0  0  0  0  0  0  0
  142.0151   83.3042  215.8588 H   0  0  0  0  0  0  0  0  0  0  0  0
  141.5932   81.5646  216.0782 H   0  0  0  0  0  0  0  0  0  0  0  0
  143.2130   82.2570  217.3110 C   0  0  0  0  0  0  0  0  0  0  0  0
  143.0483   82.2863  218.3982 H   0  0  0  0  0  0  0  0  0  0  0  0
  143.6154   81.2733  217.0274 H   0  0  0  0  0  0  0  0  0  0  0  0
  143.9296   83.0419  217.0274 H   0  0  0  0  0  0  0  0  0  0  0  0
  140.8240   83.7190  219.7580 C   0  0  0  0  0  0  0  0  0  0  0  0
  139.9743   84.2383  219.2906 H   0  0  0  0  0  0  0  0  0  0  0  0
  141.6775   84.4023  219.8788 H   0  0  0  0  0  0  0  0  0  0  0  0
  140.4030   83.2190  221.1440 C   0  0  0  0  0  0  0  0  0  0  0  0
  140.1627   84.0832  221.7808 H   0  0  0  0  0  0  0  0  0  0  0  0
  141.2337   82.6419  221.5763 H   0  0  0  0  0  0  0  0  0  0  0  0
  139.3540   79.1010  222.4120 C   0  0  0  0  0  0  0  0  0  0  0  0
  138.3458   78.9681  221.9926 H   0  0  0  0  0  0  0  0  0  0  0  0
  139.5660   74.4170  222.2140 N   0  0  0  0  0  0  0  0  0  0  0  0
  138.6920   74.2680  222.7680 H   0  0  0  0  0  0  0  0  0  0  0  0
  140.1840   73.3480  221.6460 C   0  0  0  0  0  0  0  0  0  0  0  0
  139.7463   72.3453  221.7603 H   0  0  0  0  0  0  0  0  0  0  0  0
  141.3770   73.5050  220.9130 C   0  0  0  0  0  0  0  0  0  0  0  0
  142.0290   72.3380  220.3620 N   0  0  0  0  0  0  0  0  0  0  0  0
  141.2430   71.1630  219.9750 C   0  0  0  0  0  0  0  0  0  0  0  0
  140.8941   70.6415  220.8785 H   0  0  0  0  0  0  0  0  0  0  0  0
  140.3760   71.4822  219.3780 H   0  0  0  0  0  0  0  0  0  0  0  0
  141.8690   70.4835  219.3780 H   0  0  0  0  0  0  0  0  0  0  0  0
  143.4520   72.1890  220.4630 C   0  0  0  0  0  0  0  0  0  0  0  0
  143.9350   71.2640  221.1700 O   0  0  0  0  0  0  0  0  0  0  0  0
  144.3820   73.0830  219.7060 C   0  0  0  0  0  0  0  0  0  0  0  0
  145.3993   72.6681  219.7598 H   0  0  0  0  0  0  0  0  0  0  0  0
  144.0357   73.1375  218.6634 H   0  0  0  0  0  0  0  0  0  0  0  0
  144.3920   74.4980  220.2820 C   0  0  0  0  0  0  0  0  0  0  0  0
  144.5765   74.4492  221.3653 H   0  0  0  0  0  0  0  0  0  0  0  0
  145.1872   75.0811  219.7945 H   0  0  0  0  0  0  0  0  0  0  0  0
  143.3660   75.7920  217.6680 C   0  0  0  0  0  0  0  0  0  0  0  0
  143.7655   74.7913  217.4468 H   0  0  0  0  0  0  0  0  0  0  0  0
  143.2100   76.7240  216.6370 C   0  0  0  0  0  0  0  0  0  0  0  0
  143.4906   76.4560  215.6077 H   0  0  0  0  0  0  0  0  0  0  0  0
  1  2  1  0
  2  3  2  0
  3  4  1  0
  3  5  1  0
  5  6  1  0
  5  7  2  0
  7  8  1  0
  8  9  1  0
  9 10  2  0
 10 11  1  0
 11 12  2  0
 12 13  1  0
 13 14  2  0
 14 15  1  0
 14 16  1  0
 16 17  1  0
 16 18  2  0
 18 19  1  0
 18 20  1  0
 20 21  1  0
 21 22  2  0
 21 23  1  0
 23 24  1  1
 23 25  1  0
 25 26  1  0
 25 27  1  0
 25 28  1  0
 28 29  1  0
 28 30  1  0
 28 31  1  0
 31 32  1  1
 31 33  1  0
 33 34  1  0
 34 35  1  0
 34 36  1  0
 34 37  1  0
 37 38  1  0
 37 39  1  0
 37 40  1  0
 31 41  1  0
 41 42  1  0
 41 43  1  0
 41 44  1  0
 44 45  1  0
 44 46  1  0
 20 47  2  0
 47 48  1  0
 11 49  1  0
 49 50  1  0
 49 51  1  0
 51 52  1  0
 51 53  2  0
 53 54  1  0
 54 55  1  0
 55 56  1  0
 55 57  1  0
 55 58  1  0
 54 59  1  0
 59 60  2  0
 59 61  1  0
 61 62  1  0
 61 63  1  0
 61 64  1  0
 64 65  1  0
 64 66  1  0
  7 67  1  0
 67 68  1  0
 67 69  2  0
 69 70  1  0
 69  2  1  0
 64  8  1  0
 53  9  1  0
 47 13  1  0
 44 23  1  0
M  CHG  1  23   1
M  END
>  <UniqueID>  (66) 
24

>  <SMILES>  (66) 
CCOC1CC[NH+](C(=O)c2cccc(/N=c3\nc4c(c[nH]3)N(C)C(=O)CCN4c3ccccc3)c2)CC1

>  <Energy>  (66) 
113.05173742060987

>  <Genealogy>  (66) 
CCOC1CC[NH+](C(=O)c2cccc(N=c3nc4c(c[nH]3)N(C)C(=O)CCN4c3ccccc3)c2)CC1 (protonated)
CCOC1CC[NH+](C(=O)c2cccc(/N=c3\nc4c(c[nH]3)N(C)C(=O)CCN4c3ccccc3)c2)CC1 (cis-trans isomerization)
CCOC1CC[NH+](C(=O)c2cccc(/N=c3\nc4c(c[nH]3)N(C)C(=O)CCN4c3ccccc3)c2)CC1 (3D coordinates assigned)
CCOC1CC[NH+](C(=O)c2cccc(/N=c3\nc4c(c[nH]3)N(C)C(=O)CCN4c3ccccc3)c2)CC1 (nonaromatic ring conformer: 113.05173742060987 kcal/mol)

>  <smiles>  (66) 
CCOC1CCN(C(=O)c2cccc(N=c3nc4c(c[nH]3)N(C)C(=O)CCN4c3ccccc3)c2)CC1

>  <score_type>  (66) 
oracle

>  <origin>  (66) 
autodockgpu

>  <m_score__min__energy>  (66) 
-6.8300000000000001

>  <m_primary>  (66) 
energy

>  <meeko>  (66) 
{"free_energy": -5.14, "intermolecular_energy": -8.72, "internal_energy": -2.38, "cluster_size": 3, "cluster_id": 2, "rank_in_cluster": 3}

>  <energy>  (66) 
-4.72

>  <cluster_rmsd>  (66) 
1.6

>  <rmsd>  (66) 
271.84

>  <cluster>  (66) 
3

$$$$
KHESEQRZXKFTOB-IGPOTQGWNA-O
     RDKit          3D

 70 74  0  0  0  0  0  0  0  0999 V2000
  136.5235   82.4313  224.6554 H   0  0  0  0  0  0  0  0  0  0  0  0
  136.6780   81.4510  224.1810 C   0  0  0  0  0  0  0  0  0  0  0  0
  135.7730   80.4120  224.4140 C   0  0  0  0  0  0  0  0  0  0  0  0
  134.9087   80.5735  225.0750 H   0  0  0  0  0  0  0  0  0  0  0  0
  135.9660   79.1670  223.8070 C   0  0  0  0  0  0  0  0  0  0  0  0
  135.2559   78.3489  223.9981 H   0  0  0  0  0  0  0  0  0  0  0  0
  137.0630   78.9560  222.9540 C   0  0  0  0  0  0  0  0  0  0  0  0
  137.2150   77.6990  222.2620 N   0  0  0  0  0  0  0  0  0  0  0  0
  138.5160   77.0570  222.2670 C   0  0  0  0  0  0  0  0  0  0  0  0
  139.5820   77.7950  222.6750 N   0  0  0  0  0  0  0  0  0  0  0  0
  140.8450   77.3060  222.7350 C   0  0  0  0  0  0  0  0  0  0  0  0
  141.8360   78.0800  223.0700 N   0  0  0  0  0  0  0  0  0  0  0  0
  141.8730   79.4910  222.8040 C   0  0  0  0  0  0  0  0  0  0  0  0
  142.0140   80.4220  223.8470 C   0  0  0  0  0  0  0  0  0  0  0  0
  142.1398   80.0711  224.8819 H   0  0  0  0  0  0  0  0  0  0  0  0
  141.9950   81.7900  223.5740 C   0  0  0  0  0  0  0  0  0  0  0  0
  142.1149   82.5149  224.3927 H   0  0  0  0  0  0  0  0  0  0  0  0
  141.8240   82.2410  222.2630 C   0  0  0  0  0  0  0  0  0  0  0  0
  141.8059   83.3209  222.0542 H   0  0  0  0  0  0  0  0  0  0  0  0
  141.6750   81.3230  221.2090 C   0  0  0  0  0  0  0  0  0  0  0  0
  141.4380   81.8170  219.8320 C   0  0  0  0  0  0  0  0  0  0  0  0
  141.4480   83.0620  219.6200 O   0  0  0  0  0  0  0  0  0  0  0  0
  141.1700   80.9040  218.7370 N   0  0  2  0  0  0  0  0  0  0  0  0
  141.1050   81.4520  217.8490 H   0  0  0  0  0  0  0  0  0  0  0  0
  139.8600   80.2160  218.9280 C   0  0  0  0  0  0  0  0  0  0  0  0
  139.3133   80.2324  217.9736 H   0  0  0  0  0  0  0  0  0  0  0  0
  139.3193   80.7534  219.7210 H   0  0  0  0  0  0  0  0  0  0  0  0
  140.0080   78.7560  219.3820 C   0  0  0  0  0  0  0  0  0  0  0  0
  139.0080   78.3065  219.4712 H   0  0  0  0  0  0  0  0  0  0  0  0
  140.5296   78.7473  220.3505 H   0  0  0  0  0  0  0  0  0  0  0  0
  140.8420   77.9300  218.3750 C   0  0  1  0  0  0  0  0  0  0  0  0
  141.3307   77.1237  218.9416 H   0  0  0  0  0  0  0  0  0  0  0  0
  139.9920   77.3970  217.3690 O   0  0  0  0  0  0  0  0  0  0  0  0
  139.0480   76.4910  217.9060 C   0  0  0  0  0  0  0  0  0  0  0  0
  139.2687   76.3265  218.9710 H   0  0  0  0  0  0  0  0  0  0  0  0
  139.1123   75.5409  217.3554 H   0  0  0  0  0  0  0  0  0  0  0  0
  137.6360   77.0490  217.7660 C   0  0  0  0  0  0  0  0  0  0  0  0
  137.2079   77.2182  218.7650 H   0  0  0  0  0  0  0  0  0  0  0  0
  137.6708   78.0010  217.2160 H   0  0  0  0  0  0  0  0  0  0  0  0
  137.0106   76.3304  217.2160 H   0  0  0  0  0  0  0  0  0  0  0  0
  141.9340   78.7830  217.6910 C   0  0  0  0  0  0  0  0  0  0  0  0
  141.5534   79.1451  216.7246 H   0  0  0  0  0  0  0  0  0  0  0  0
  142.8260   78.1557  217.5464 H   0  0  0  0  0  0  0  0  0  0  0  0
  142.3220   79.9850  218.5570 C   0  0  0  0  0  0  0  0  0  0  0  0
  143.1440   80.5295  218.0693 H   0  0  0  0  0  0  0  0  0  0  0  0
  142.6361   79.6184  219.5454 H   0  0  0  0  0  0  0  0  0  0  0  0
  141.7370   79.9450  221.4860 C   0  0  0  0  0  0  0  0  0  0  0  0
  141.6782   79.2191  220.6616 H   0  0  0  0  0  0  0  0  0  0  0  0
  141.0760   76.0160  222.3830 N   0  0  0  0  0  0  0  0  0  0  0  0
  142.0480   75.6300  222.4170 H   0  0  0  0  0  0  0  0  0  0  0  0
  140.0580   75.2170  221.9680 C   0  0  0  0  0  0  0  0  0  0  0  0
  140.2664   74.1728  221.6921 H   0  0  0  0  0  0  0  0  0  0  0  0
  138.7390   75.7070  221.8860 C   0  0  0  0  0  0  0  0  0  0  0  0
  137.6900   74.8410  221.3970 N   0  0  0  0  0  0  0  0  0  0  0  0
  137.7230   74.3410  220.0210 C   0  0  0  0  0  0  0  0  0  0  0  0
  137.7955   73.2434  220.0313 H   0  0  0  0  0  0  0  0  0  0  0  0
  136.8030   74.6428  219.4990 H   0  0  0  0  0  0  0  0  0  0  0  0
  138.5954   74.7612  219.4990 H   0  0  0  0  0  0  0  0  0  0  0  0
  136.4650   74.7020  222.1320 C   0  0  0  0  0  0  0  0  0  0  0  0
  136.1420   73.5780  222.6010 O   0  0  0  0  0  0  0  0  0  0  0  0
  135.5800   75.8790  222.3940 C   0  0  0  0  0  0  0  0  0  0  0  0
  134.5527   75.6273  222.0917 H   0  0  0  0  0  0  0  0  0  0  0  0
  135.6279   76.1127  223.4678 H   0  0  0  0  0  0  0  0  0  0  0  0
  136.0370   77.1110  221.6170 C   0  0  0  0  0  0  0  0  0  0  0  0
  136.2924   76.8190  220.5877 H   0  0  0  0  0  0  0  0  0  0  0  0
  135.2243   77.8521  221.6025 H   0  0  0  0  0  0  0  0  0  0  0  0
  137.9720   80.0030  222.7310 C   0  0  0  0  0  0  0  0  0  0  0  0
  138.8380   79.8458  222.0712 H   0  0  0  0  0  0  0  0  0  0  0  0
  137.7800   81.2450  223.3450 C   0  0  0  0  0  0  0  0  0  0  0  0
  138.4968   82.0608  223.1701 H   0  0  0  0  0  0  0  0  0  0  0  0
  1  2  1  0
  2  3  2  0
  3  4  1  0
  3  5  1  0
  5  6  1  0
  5  7  2  0
  7  8  1  0
  8  9  1  0
  9 10  2  0
 10 11  1  0
 11 12  2  0
 12 13  1  0
 13 14  2  0
 14 15  1  0
 14 16  1  0
 16 17  1  0
 16 18  2  0
 18 19  1  0
 18 20  1  0
 20 21  1  0
 21 22  2  0
 21 23  1  0
 23 24  1  1
 23 25  1  0
 25 26  1  0
 25 27  1  0
 25 28  1  0
 28 29  1  0
 28 30  1  0
 28 31  1  0
 31 32  1  6
 31 33  1  0
 33 34  1  0
 34 35  1  0
 34 36  1  0
 34 37  1  0
 37 38  1  0
 37 39  1  0
 37 40  1  0
 31 41  1  0
 41 42  1  0
 41 43  1  0
 41 44  1  0
 44 45  1  0
 44 46  1  0
 20 47  2  0
 47 48  1  0
 11 49  1  0
 49 50  1  0
 49 51  1  0
 51 52  1  0
 51 53  2  0
 53 54  1  0
 54 55  1  0
 55 56  1  0
 55 57  1  0
 55 58  1  0
 54 59  1  0
 59 60  2  0
 59 61  1  0
 61 62  1  0
 61 63  1  0
 61 64  1  0
 64 65  1  0
 64 66  1  0
  7 67  1  0
 67 68  1  0
 67 69  2  0
 69 70  1  0
 69  2  1  0
 64  8  1  0
 53  9  1  0
 47 13  1  0
 44 23  1  0
M  CHG  1  23   1
M  END
>  <UniqueID>  (67) 
24

>  <SMILES>  (67) 
CCOC1CC[NH+](C(=O)c2cccc(/N=c3\nc4c(c[nH]3)N(C)C(=O)CCN4c3ccccc3)c2)CC1

>  <Energy>  (67) 
113.05173742060987

>  <Genealogy>  (67) 
CCOC1CC[NH+](C(=O)c2cccc(N=c3nc4c(c[nH]3)N(C)C(=O)CCN4c3ccccc3)c2)CC1 (protonated)
CCOC1CC[NH+](C(=O)c2cccc(/N=c3\nc4c(c[nH]3)N(C)C(=O)CCN4c3ccccc3)c2)CC1 (cis-trans isomerization)
CCOC1CC[NH+](C(=O)c2cccc(/N=c3\nc4c(c[nH]3)N(C)C(=O)CCN4c3ccccc3)c2)CC1 (3D coordinates assigned)
CCOC1CC[NH+](C(=O)c2cccc(/N=c3\nc4c(c[nH]3)N(C)C(=O)CCN4c3ccccc3)c2)CC1 (nonaromatic ring conformer: 113.05173742060987 kcal/mol)

>  <smiles>  (67) 
CCOC1CCN(C(=O)c2cccc(N=c3nc4c(c[nH]3)N(C)C(=O)CCN4c3ccccc3)c2)CC1

>  <score_type>  (67) 
oracle

>  <origin>  (67) 
autodockgpu

>  <m_score__min__energy>  (67) 
-6.8300000000000001

>  <m_primary>  (67) 
energy

>  <meeko>  (67) 
{"free_energy": -3.77, "intermolecular_energy": -7.35, "internal_energy": -2.79, "cluster_size": 1, "cluster_id": 11, "rank_in_cluster": 1}

>  <energy>  (67) 
-5.24

>  <cluster_rmsd>  (67) 
0.0

>  <rmsd>  (67) 
270.99

>  <cluster>  (67) 
4

$$$$
KHESEQRZXKFTOB-IGPOTQGWNA-O
     RDKit          3D

 70 74  0  0  0  0  0  0  0  0999 V2000
  146.7489   72.2517  221.4325 H   0  0  0  0  0  0  0  0  0  0  0  0
  145.8860   72.7370  220.9530 C   0  0  0  0  0  0  0  0  0  0  0  0
  145.6990   74.1160  221.0830 C   0  0  0  0  0  0  0  0  0  0  0  0
  146.4125   74.7149  221.6680 H   0  0  0  0  0  0  0  0  0  0  0  0
  144.6060   74.7340  220.4700 C   0  0  0  0  0  0  0  0  0  0  0  0
  144.4584   75.8185  220.5795 H   0  0  0  0  0  0  0  0  0  0  0  0
  143.6940   73.9770  219.7140 C   0  0  0  0  0  0  0  0  0  0  0  0
  142.6140   74.6280  219.0120 N   0  0  0  0  0  0  0  0  0  0  0  0
  141.4800   75.1090  219.7770 C   0  0  0  0  0  0  0  0  0  0  0  0
  141.7360   75.8680  220.8750 N   0  0  0  0  0  0  0  0  0  0  0  0
  140.7630   76.3860  221.6640 C   0  0  0  0  0  0  0  0  0  0  0  0
  141.0710   77.0490  222.7410 N   0  0  0  0  0  0  0  0  0  0  0  0
  141.4530   78.4340  222.7440 C   0  0  0  0  0  0  0  0  0  0  0  0
  142.0110   79.0290  223.8890 C   0  0  0  0  0  0  0  0  0  0  0  0
  142.1981   78.4216  224.7868 H   0  0  0  0  0  0  0  0  0  0  0  0
  142.3280   80.3870  223.8900 C   0  0  0  0  0  0  0  0  0  0  0  0
  142.7723   80.8466  224.7852 H   0  0  0  0  0  0  0  0  0  0  0  0
  142.0820   81.1650  222.7550 C   0  0  0  0  0  0  0  0  0  0  0  0
  142.3308   82.2365  222.7624 H   0  0  0  0  0  0  0  0  0  0  0  0
  141.5190   80.5870  221.6050 C   0  0  0  0  0  0  0  0  0  0  0  0
  141.2120   81.4360  220.4300 C   0  0  0  0  0  0  0  0  0  0  0  0
  140.8650   82.6350  220.6180 O   0  0  0  0  0  0  0  0  0  0  0  0
  141.2760   80.9100  219.0790 N   0  0  2  0  0  0  0  0  0  0  0  0
  141.3200   81.7110  218.4070 H   0  0  0  0  0  0  0  0  0  0  0  0
  140.0470   80.1280  218.7540 C   0  0  0  0  0  0  0  0  0  0  0  0
  139.7003   80.4208  217.7519 H   0  0  0  0  0  0  0  0  0  0  0  0
  139.3001   80.3527  219.5296 H   0  0  0  0  0  0  0  0  0  0  0  0
  140.2790   78.6100  218.7670 C   0  0  0  0  0  0  0  0  0  0  0  0
  139.3431   78.1031  218.4894 H   0  0  0  0  0  0  0  0  0  0  0  0
  140.5974   78.3183  219.7787 H   0  0  0  0  0  0  0  0  0  0  0  0
  141.3890   78.1970  217.7710 C   0  0  1  0  0  0  0  0  0  0  0  0
  141.8519   77.2787  218.1615 H   0  0  0  0  0  0  0  0  0  0  0  0
  140.8230   77.9720  216.4880 O   0  0  0  0  0  0  0  0  0  0  0  0
  141.7170   77.2820  215.6340 C   0  0  0  0  0  0  0  0  0  0  0  0
  141.1702   76.4912  215.0995 H   0  0  0  0  0  0  0  0  0  0  0  0
  142.5216   76.8411  216.2408 H   0  0  0  0  0  0  0  0  0  0  0  0
  142.3310   78.2420  214.6200 C   0  0  0  0  0  0  0  0  0  0  0  0
  142.8500   79.0535  215.1510 H   0  0  0  0  0  0  0  0  0  0  0  0
  143.0495   77.6984  213.9889 H   0  0  0  0  0  0  0  0  0  0  0  0
  141.5362   78.6663  213.9889 H   0  0  0  0  0  0  0  0  0  0  0  0
  142.4820   79.2810  217.6400 C   0  0  0  0  0  0  0  0  0  0  0  0
  142.2571   79.9137  216.7687 H   0  0  0  0  0  0  0  0  0  0  0  0
  143.4544   78.7818  217.5165 H   0  0  0  0  0  0  0  0  0  0  0  0
  142.5440   80.1600  218.8930 C   0  0  0  0  0  0  0  0  0  0  0  0
  143.3734   80.8752  218.7902 H   0  0  0  0  0  0  0  0  0  0  0  0
  142.7004   79.5125  219.7684 H   0  0  0  0  0  0  0  0  0  0  0  0
  141.2400   79.2070  221.5970 C   0  0  0  0  0  0  0  0  0  0  0  0
  140.8521   78.7333  220.6832 H   0  0  0  0  0  0  0  0  0  0  0  0
  139.4620   76.1560  221.3540 N   0  0  0  0  0  0  0  0  0  0  0  0
  138.7030   76.5430  221.9600 H   0  0  0  0  0  0  0  0  0  0  0  0
  139.1300   75.4090  220.2680 C   0  0  0  0  0  0  0  0  0  0  0  0
  138.0694   75.2381  220.0316 H   0  0  0  0  0  0  0  0  0  0  0  0
  140.1250   74.8500  219.4400 C   0  0  0  0  0  0  0  0  0  0  0  0
  139.7340   74.0240  218.3210 N   0  0  0  0  0  0  0  0  0  0  0  0
  138.9270   72.8200  218.5340 C   0  0  0  0  0  0  0  0  0  0  0  0
  138.8090   72.6439  219.6134 H   0  0  0  0  0  0  0  0  0  0  0  0
  137.9370   72.9561  218.0743 H   0  0  0  0  0  0  0  0  0  0  0  0
  139.4291   71.9560  218.0743 H   0  0  0  0  0  0  0  0  0  0  0  0
  140.3660   74.1890  217.0430 C   0  0  0  0  0  0  0  0  0  0  0  0
  139.7160   74.6810  216.0820 O   0  0  0  0  0  0  0  0  0  0  0  0
  141.8040   73.8310  216.8380 C   0  0  0  0  0  0  0  0  0  0  0  0
  141.9781   72.8161  217.2249 H   0  0  0  0  0  0  0  0  0  0  0  0
  142.0220   73.8829  215.7611 H   0  0  0  0  0  0  0  0  0  0  0  0
  142.7320   74.8030  217.5610 C   0  0  0  0  0  0  0  0  0  0  0  0
  143.7707   74.6102  217.2546 H   0  0  0  0  0  0  0  0  0  0  0  0
  142.4492   75.8331  217.2986 H   0  0  0  0  0  0  0  0  0  0  0  0
  143.8850   72.5910  219.5940 C   0  0  0  0  0  0  0  0  0  0  0  0
  143.1735   71.9882  219.0105 H   0  0  0  0  0  0  0  0  0  0  0  0
  144.9770   71.9740  220.2140 C   0  0  0  0  0  0  0  0  0  0  0  0
  145.1205   70.8875  220.1199 H   0  0  0  0  0  0  0  0  0  0  0  0
  1  2  1  0
  2  3  2  0
  3  4  1  0
  3  5  1  0
  5  6  1  0
  5  7  2  0
  7  8  1  0
  8  9  1  0
  9 10  2  0
 10 11  1  0
 11 12  2  0
 12 13  1  0
 13 14  2  0
 14 15  1  0
 14 16  1  0
 16 17  1  0
 16 18  2  0
 18 19  1  0
 18 20  1  0
 20 21  1  0
 21 22  2  0
 21 23  1  0
 23 24  1  1
 23 25  1  0
 25 26  1  0
 25 27  1  0
 25 28  1  0
 28 29  1  0
 28 30  1  0
 28 31  1  0
 31 32  1  6
 31 33  1  0
 33 34  1  0
 34 35  1  0
 34 36  1  0
 34 37  1  0
 37 38  1  0
 37 39  1  0
 37 40  1  0
 31 41  1  0
 41 42  1  0
 41 43  1  0
 41 44  1  0
 44 45  1  0
 44 46  1  0
 20 47  2  0
 47 48  1  0
 11 49  1  0
 49 50  1  0
 49 51  1  0
 51 52  1  0
 51 53  2  0
 53 54  1  0
 54 55  1  0
 55 56  1  0
 55 57  1  0
 55 58  1  0
 54 59  1  0
 59 60  2  0
 59 61  1  0
 61 62  1  0
 61 63  1  0
 61 64  1  0
 64 65  1  0
 64 66  1  0
  7 67  1  0
 67 68  1  0
 67 69  2  0
 69 70  1  0
 69  2  1  0
 64  8  1  0
 53  9  1  0
 47 13  1  0
 44 23  1  0
M  CHG  1  23   1
M  END
>  <UniqueID>  (68) 
24

>  <SMILES>  (68) 
CCOC1CC[NH+](C(=O)c2cccc(/N=c3\nc4c(c[nH]3)N(C)C(=O)CCN4c3ccccc3)c2)CC1

>  <Energy>  (68) 
113.05173742060987

>  <Genealogy>  (68) 
CCOC1CC[NH+](C(=O)c2cccc(N=c3nc4c(c[nH]3)N(C)C(=O)CCN4c3ccccc3)c2)CC1 (protonated)
CCOC1CC[NH+](C(=O)c2cccc(/N=c3\nc4c(c[nH]3)N(C)C(=O)CCN4c3ccccc3)c2)CC1 (cis-trans isomerization)
CCOC1CC[NH+](C(=O)c2cccc(/N=c3\nc4c(c[nH]3)N(C)C(=O)CCN4c3ccccc3)c2)CC1 (3D coordinates assigned)
CCOC1CC[NH+](C(=O)c2cccc(/N=c3\nc4c(c[nH]3)N(C)C(=O)CCN4c3ccccc3)c2)CC1 (nonaromatic ring conformer: 113.05173742060987 kcal/mol)

>  <smiles>  (68) 
CCOC1CCN(C(=O)c2cccc(N=c3nc4c(c[nH]3)N(C)C(=O)CCN4c3ccccc3)c2)CC1

>  <score_type>  (68) 
oracle

>  <origin>  (68) 
autodockgpu

>  <m_score__min__energy>  (68) 
-6.8300000000000001

>  <m_primary>  (68) 
energy

>  <meeko>  (68) 
{"free_energy": -4.43, "intermolecular_energy": -8.01, "internal_energy": -2.82, "cluster_size": 1, "cluster_id": 9, "rank_in_cluster": 1}

>  <energy>  (68) 
-4.95

>  <cluster_rmsd>  (68) 
1.97

>  <rmsd>  (68) 
270.82

>  <cluster>  (68) 
4

$$$$
KHESEQRZXKFTOB-IGPOTQGWNA-O
     RDKit          3D

 70 74  0  0  0  0  0  0  0  0999 V2000
  144.4168   80.8350  223.2883 H   0  0  0  0  0  0  0  0  0  0  0  0
  143.3440   80.5920  223.2820 C   0  0  0  0  0  0  0  0  0  0  0  0
  142.4140   81.5200  223.7610 C   0  0  0  0  0  0  0  0  0  0  0  0
  142.7556   82.4916  224.1473 H   0  0  0  0  0  0  0  0  0  0  0  0
  141.0500   81.2130  223.7490 C   0  0  0  0  0  0  0  0  0  0  0  0
  140.3215   81.9421  224.1334 H   0  0  0  0  0  0  0  0  0  0  0  0
  140.6050   79.9770  223.2480 C   0  0  0  0  0  0  0  0  0  0  0  0
  139.1930   79.6950  223.1580 N   0  0  0  0  0  0  0  0  0  0  0  0
  138.7210   78.8600  222.0690 C   0  0  0  0  0  0  0  0  0  0  0  0
  139.3640   77.6820  221.8530 N   0  0  0  0  0  0  0  0  0  0  0  0
  139.0100   76.8110  220.8770 C   0  0  0  0  0  0  0  0  0  0  0  0
  139.7060   75.7290  220.6750 N   0  0  0  0  0  0  0  0  0  0  0  0
  141.0160   75.7210  220.0840 C   0  0  0  0  0  0  0  0  0  0  0  0
  142.0480   74.9330  220.6210 C   0  0  0  0  0  0  0  0  0  0  0  0
  141.8472   74.2789  221.4823 H   0  0  0  0  0  0  0  0  0  0  0  0
  143.3260   74.9780  220.0650 C   0  0  0  0  0  0  0  0  0  0  0  0
  144.1288   74.3530  220.4833 H   0  0  0  0  0  0  0  0  0  0  0  0
  143.5890   75.8150  218.9780 C   0  0  0  0  0  0  0  0  0  0  0  0
  144.6001   75.8487  218.5461 H   0  0  0  0  0  0  0  0  0  0  0  0
  142.5700   76.6140  218.4330 C   0  0  0  0  0  0  0  0  0  0  0  0
  142.8770   77.5390  217.3170 C   0  0  0  0  0  0  0  0  0  0  0  0
  143.5870   77.1230  216.3590 O   0  0  0  0  0  0  0  0  0  0  0  0
  142.4030   78.9100  217.3180 N   0  0  2  0  0  0  0  0  0  0  0  0
  143.0150   79.4790  216.6890 H   0  0  0  0  0  0  0  0  0  0  0  0
  142.5000   79.5040  218.6840 C   0  0  0  0  0  0  0  0  0  0  0  0
  142.9325   80.5117  218.5979 H   0  0  0  0  0  0  0  0  0  0  0  0
  143.1309   78.8360  219.2887 H   0  0  0  0  0  0  0  0  0  0  0  0
  141.1400   79.6140  219.3900 C   0  0  0  0  0  0  0  0  0  0  0  0
  141.2844   80.0876  220.3722 H   0  0  0  0  0  0  0  0  0  0  0  0
  140.7258   78.6010  219.5008 H   0  0  0  0  0  0  0  0  0  0  0  0
  140.1400   80.4600  218.5660 C   0  0  1  0  0  0  0  0  0  0  0  0
  139.1302   80.0985  218.8104 H   0  0  0  0  0  0  0  0  0  0  0  0
  140.2820   81.8340  218.9020 O   0  0  0  0  0  0  0  0  0  0  0  0
  140.8250   82.0020  220.1990 C   0  0  0  0  0  0  0  0  0  0  0  0
  141.8506   82.3908  220.1155 H   0  0  0  0  0  0  0  0  0  0  0  0
  140.8314   81.0295  220.7130 H   0  0  0  0  0  0  0  0  0  0  0  0
  139.9790   82.9830  221.0040 C   0  0  0  0  0  0  0  0  0  0  0  0
  140.1331   82.8043  222.0784 H   0  0  0  0  0  0  0  0  0  0  0  0
  140.2770   84.0127  220.7571 H   0  0  0  0  0  0  0  0  0  0  0  0
  138.9167   82.8396  220.7571 H   0  0  0  0  0  0  0  0  0  0  0  0
  140.3630   80.3040  217.0460 C   0  0  0  0  0  0  0  0  0  0  0  0
  140.9974   81.1291  216.6899 H   0  0  0  0  0  0  0  0  0  0  0  0
  139.3833   80.3245  216.5463 H   0  0  0  0  0  0  0  0  0  0  0  0
  141.0460   78.9720  216.7200 C   0  0  0  0  0  0  0  0  0  0  0  0
  141.1289   78.8680  215.6281 H   0  0  0  0  0  0  0  0  0  0  0  0
  140.4403   78.1554  217.1399 H   0  0  0  0  0  0  0  0  0  0  0  0
  141.2720   76.5330  218.9730 C   0  0  0  0  0  0  0  0  0  0  0  0
  140.4541   77.1115  218.5188 H   0  0  0  0  0  0  0  0  0  0  0  0
  137.9590   77.1060  220.0710 N   0  0  0  0  0  0  0  0  0  0  0  0
  137.6830   76.4460  219.3090 H   0  0  0  0  0  0  0  0  0  0  0  0
  137.2660   78.2640  220.2310 C   0  0  0  0  0  0  0  0  0  0  0  0
  136.4138   78.4811  219.5703 H   0  0  0  0  0  0  0  0  0  0  0  0
  137.6230   79.1910  221.2310 C   0  0  0  0  0  0  0  0  0  0  0  0
  136.8910   80.4320  221.3410 N   0  0  0  0  0  0  0  0  0  0  0  0
  136.8160   81.3520  220.2030 C   0  0  0  0  0  0  0  0  0  0  0  0
  136.7318   82.3850  220.5715 H   0  0  0  0  0  0  0  0  0  0  0  0
  137.7251   81.2538  219.5916 H   0  0  0  0  0  0  0  0  0  0  0  0
  135.9348   81.1078  219.5916 H   0  0  0  0  0  0  0  0  0  0  0  0
  136.4900   80.9240  222.6280 C   0  0  0  0  0  0  0  0  0  0  0  0
  135.2690   80.9260  222.9430 O   0  0  0  0  0  0  0  0  0  0  0  0
  137.4980   81.3940  223.6280 C   0  0  0  0  0  0  0  0  0  0  0  0
  138.1824   82.1029  223.1392 H   0  0  0  0  0  0  0  0  0  0  0  0
  136.9610   81.8763  224.4581 H   0  0  0  0  0  0  0  0  0  0  0  0
  138.3060   80.2370  224.1920 C   0  0  0  0  0  0  0  0  0  0  0  0
  138.9096   80.5931  225.0399 H   0  0  0  0  0  0  0  0  0  0  0  0
  137.6190   79.4469  224.5295 H   0  0  0  0  0  0  0  0  0  0  0  0
  141.5460   79.0480  222.7760 C   0  0  0  0  0  0  0  0  0  0  0  0
  141.2089   78.0748  222.3897 H   0  0  0  0  0  0  0  0  0  0  0  0
  142.9100   79.3550  222.7950 C   0  0  0  0  0  0  0  0  0  0  0  0
  143.6429   78.6223  222.4263 H   0  0  0  0  0  0  0  0  0  0  0  0
  1  2  1  0
  2  3  2  0
  3  4  1  0
  3  5  1  0
  5  6  1  0
  5  7  2  0
  7  8  1  0
  8  9  1  0
  9 10  2  0
 10 11  1  0
 11 12  2  0
 12 13  1  0
 13 14  2  0
 14 15  1  0
 14 16  1  0
 16 17  1  0
 16 18  2  0
 18 19  1  0
 18 20  1  0
 20 21  1  0
 21 22  2  0
 21 23  1  0
 23 24  1  1
 23 25  1  0
 25 26  1  0
 25 27  1  0
 25 28  1  0
 28 29  1  0
 28 30  1  0
 28 31  1  0
 31 32  1  1
 31 33  1  0
 33 34  1  0
 34 35  1  0
 34 36  1  0
 34 37  1  0
 37 38  1  0
 37 39  1  0
 37 40  1  0
 31 41  1  0
 41 42  1  0
 41 43  1  0
 41 44  1  0
 44 45  1  0
 44 46  1  0
 20 47  2  0
 47 48  1  0
 11 49  1  0
 49 50  1  0
 49 51  1  0
 51 52  1  0
 51 53  2  0
 53 54  1  0
 54 55  1  0
 55 56  1  0
 55 57  1  0
 55 58  1  0
 54 59  1  0
 59 60  2  0
 59 61  1  0
 61 62  1  0
 61 63  1  0
 61 64  1  0
 64 65  1  0
 64 66  1  0
  7 67  1  0
 67 68  1  0
 67 69  2  0
 69 70  1  0
 69  2  1  0
 64  8  1  0
 53  9  1  0
 47 13  1  0
 44 23  1  0
M  CHG  1  23   1
M  END
>  <UniqueID>  (69) 
24

>  <SMILES>  (69) 
CCOC1CC[NH+](C(=O)c2cccc(/N=c3\nc4c(c[nH]3)N(C)C(=O)CCN4c3ccccc3)c2)CC1

>  <Energy>  (69) 
113.05173742060987

>  <Genealogy>  (69) 
CCOC1CC[NH+](C(=O)c2cccc(N=c3nc4c(c[nH]3)N(C)C(=O)CCN4c3ccccc3)c2)CC1 (protonated)
CCOC1CC[NH+](C(=O)c2cccc(/N=c3\nc4c(c[nH]3)N(C)C(=O)CCN4c3ccccc3)c2)CC1 (cis-trans isomerization)
CCOC1CC[NH+](C(=O)c2cccc(/N=c3\nc4c(c[nH]3)N(C)C(=O)CCN4c3ccccc3)c2)CC1 (3D coordinates assigned)
CCOC1CC[NH+](C(=O)c2cccc(/N=c3\nc4c(c[nH]3)N(C)C(=O)CCN4c3ccccc3)c2)CC1 (nonaromatic ring conformer: 113.05173742060987 kcal/mol)

>  <smiles>  (69) 
CCOC1CCN(C(=O)c2cccc(N=c3nc4c(c[nH]3)N(C)C(=O)CCN4c3ccccc3)c2)CC1

>  <score_type>  (69) 
oracle

>  <origin>  (69) 
autodockgpu

>  <m_score__min__energy>  (69) 
-6.8300000000000001

>  <m_primary>  (69) 
energy

>  <meeko>  (69) 
{"free_energy": -4.51, "intermolecular_energy": -8.09, "internal_energy": -3.46, "cluster_size": 1, "cluster_id": 8, "rank_in_cluster": 1}

>  <energy>  (69) 
-4.78

>  <cluster_rmsd>  (69) 
1.8

>  <rmsd>  (69) 
270.72

>  <cluster>  (69) 
4

$$$$
KHESEQRZXKFTOB-IGPOTQGWNA-O
     RDKit          3D

 70 74  0  0  0  0  0  0  0  0999 V2000
  140.9412   78.0447  215.2936 H   0  0  0  0  0  0  0  0  0  0  0  0
  141.2670   77.5510  216.2210 C   0  0  0  0  0  0  0  0  0  0  0  0
  140.3990   76.6860  216.8940 C   0  0  0  0  0  0  0  0  0  0  0  0
  139.3897   76.5011  216.4975 H   0  0  0  0  0  0  0  0  0  0  0  0
  140.8140   76.0560  218.0710 C   0  0  0  0  0  0  0  0  0  0  0  0
  140.1260   75.3820  218.6024 H   0  0  0  0  0  0  0  0  0  0  0  0
  142.1050   76.2790  218.5790 C   0  0  0  0  0  0  0  0  0  0  0  0
  142.5620   75.5640  219.7460 N   0  0  0  0  0  0  0  0  0  0  0  0
  141.5820   74.8800  220.5680 C   0  0  0  0  0  0  0  0  0  0  0  0
  140.5400   75.6090  221.0460 N   0  0  0  0  0  0  0  0  0  0  0  0
  139.5550   75.0830  221.8140 C   0  0  0  0  0  0  0  0  0  0  0  0
  138.6180   75.8470  222.2980 N   0  0  0  0  0  0  0  0  0  0  0  0
  138.8110   77.2290  222.6400 C   0  0  0  0  0  0  0  0  0  0  0  0
  137.7150   78.0770  222.8740 C   0  0  0  0  0  0  0  0  0  0  0  0
  136.6920   77.6743  222.8370 H   0  0  0  0  0  0  0  0  0  0  0  0
  137.9210   79.4280  223.1530 C   0  0  0  0  0  0  0  0  0  0  0  0
  137.0607   80.0862  223.3443 H   0  0  0  0  0  0  0  0  0  0  0  0
  139.2170   79.9470  223.1900 C   0  0  0  0  0  0  0  0  0  0  0  0
  139.3730   81.0141  223.4066 H   0  0  0  0  0  0  0  0  0  0  0  0
  140.3230   79.1130  222.9520 C   0  0  0  0  0  0  0  0  0  0  0  0
  141.6890   79.6890  222.9390 C   0  0  0  0  0  0  0  0  0  0  0  0
  142.3320   79.7560  224.0230 O   0  0  0  0  0  0  0  0  0  0  0  0
  142.2850   80.1960  221.7170 N   0  0  2  0  0  0  0  0  0  0  0  0
  143.3220   80.0690  221.7700 H   0  0  0  0  0  0  0  0  0  0  0  0
  142.0250   81.6570  221.5660 C   0  0  0  0  0  0  0  0  0  0  0  0
  142.9607   82.1498  221.2633 H   0  0  0  0  0  0  0  0  0  0  0  0
  141.6598   82.0274  222.5352 H   0  0  0  0  0  0  0  0  0  0  0  0
  140.9460   81.9710  220.5190 C   0  0  0  0  0  0  0  0  0  0  0  0
  140.8312   83.0622  220.4404 H   0  0  0  0  0  0  0  0  0  0  0  0
  140.0055   81.5002  220.8412 H   0  0  0  0  0  0  0  0  0  0  0  0
  141.3210   81.4040  219.1300 C   0  0  1  0  0  0  0  0  0  0  0  0
  140.3805   81.1972  218.5983 H   0  0  0  0  0  0  0  0  0  0  0  0
  142.1060   82.3520  218.4200 O   0  0  0  0  0  0  0  0  0  0  0  0
  142.9120   81.7320  217.4360 C   0  0  0  0  0  0  0  0  0  0  0  0
  142.2709   81.3634  216.6217 H   0  0  0  0  0  0  0  0  0  0  0  0
  143.4568   80.8944  217.8961 H   0  0  0  0  0  0  0  0  0  0  0  0
  143.9200   82.7280  216.8710 C   0  0  0  0  0  0  0  0  0  0  0  0
  144.4355   83.2373  217.6985 H   0  0  0  0  0  0  0  0  0  0  0  0
  144.6569   82.1935  216.2535 H   0  0  0  0  0  0  0  0  0  0  0  0
  143.3944   83.4713  216.2535 H   0  0  0  0  0  0  0  0  0  0  0  0
  142.1240   80.0890  219.2390 C   0  0  0  0  0  0  0  0  0  0  0  0
  143.1981   80.3184  219.1789 H   0  0  0  0  0  0  0  0  0  0  0  0
  141.8220   79.4270  218.4140 H   0  0  0  0  0  0  0  0  0  0  0  0
  141.8390   79.3740  220.5640 C   0  0  0  0  0  0  0  0  0  0  0  0
  142.3754   78.4138  220.5775 H   0  0  0  0  0  0  0  0  0  0  0  0
  140.7546   79.2100  220.6483 H   0  0  0  0  0  0  0  0  0  0  0  0
  140.1110   77.7420  222.7120 C   0  0  0  0  0  0  0  0  0  0  0  0
  140.9721   77.0703  222.5804 H   0  0  0  0  0  0  0  0  0  0  0  0
  139.5860   73.7620  222.1240 N   0  0  0  0  0  0  0  0  0  0  0  0
  138.8370   73.3470  222.7230 H   0  0  0  0  0  0  0  0  0  0  0  0
  140.5960   72.9700  221.6780 C   0  0  0  0  0  0  0  0  0  0  0  0
  140.6007   71.9010  221.9374 H   0  0  0  0  0  0  0  0  0  0  0  0
  141.6380   73.4970  220.8880 C   0  0  0  0  0  0  0  0  0  0  0  0
  142.7180   72.6330  220.4700 N   0  0  0  0  0  0  0  0  0  0  0  0
  142.4860   71.2000  220.2680 C   0  0  0  0  0  0  0  0  0  0  0  0
  142.4051   70.7004  221.2447 H   0  0  0  0  0  0  0  0  0  0  0  0
  141.5528   71.0556  219.7039 H   0  0  0  0  0  0  0  0  0  0  0  0
  143.3260   70.7685  219.7039 H   0  0  0  0  0  0  0  0  0  0  0  0
  144.0770   73.0880  220.5380 C   0  0  0  0  0  0  0  0  0  0  0  0
  144.8800   72.5410  221.3410 O   0  0  0  0  0  0  0  0  0  0  0  0
  144.5780   74.1740  219.6390 C   0  0  0  0  0  0  0  0  0  0  0  0
  145.6748   74.2188  219.7099 H   0  0  0  0  0  0  0  0  0  0  0  0
  144.2603   73.9443  218.6112 H   0  0  0  0  0  0  0  0  0  0  0  0
  144.0010   75.5320  220.0250 C   0  0  0  0  0  0  0  0  0  0  0  0
  144.1678   75.7068  221.0981 H   0  0  0  0  0  0  0  0  0  0  0  0
  144.5000   76.3163  219.4368 H   0  0  0  0  0  0  0  0  0  0  0  0
  142.9690   77.1550  217.9000 C   0  0  0  0  0  0  0  0  0  0  0  0
  143.9791   77.3428  218.2931 H   0  0  0  0  0  0  0  0  0  0  0  0
  142.5490   77.7890  216.7260 C   0  0  0  0  0  0  0  0  0  0  0  0
  143.2281   78.4757  216.1994 H   0  0  0  0  0  0  0  0  0  0  0  0
  1  2  1  0
  2  3  2  0
  3  4  1  0
  3  5  1  0
  5  6  1  0
  5  7  2  0
  7  8  1  0
  8  9  1  0
  9 10  2  0
 10 11  1  0
 11 12  2  0
 12 13  1  0
 13 14  2  0
 14 15  1  0
 14 16  1  0
 16 17  1  0
 16 18  2  0
 18 19  1  0
 18 20  1  0
 20 21  1  0
 21 22  2  0
 21 23  1  0
 23 24  1  6
 23 25  1  0
 25 26  1  0
 25 27  1  0
 25 28  1  0
 28 29  1  0
 28 30  1  0
 28 31  1  0
 31 32  1  1
 31 33  1  0
 33 34  1  0
 34 35  1  0
 34 36  1  0
 34 37  1  0
 37 38  1  0
 37 39  1  0
 37 40  1  0
 31 41  1  0
 41 42  1  0
 41 43  1  0
 41 44  1  0
 44 45  1  0
 44 46  1  0
 20 47  2  0
 47 48  1  0
 11 49  1  0
 49 50  1  0
 49 51  1  0
 51 52  1  0
 51 53  2  0
 53 54  1  0
 54 55  1  0
 55 56  1  0
 55 57  1  0
 55 58  1  0
 54 59  1  0
 59 60  2  0
 59 61  1  0
 61 62  1  0
 61 63  1  0
 61 64  1  0
 64 65  1  0
 64 66  1  0
  7 67  1  0
 67 68  1  0
 67 69  2  0
 69 70  1  0
 69  2  1  0
 64  8  1  0
 53  9  1  0
 47 13  1  0
 44 23  1  0
M  CHG  1  23   1
M  END
>  <UniqueID>  (70) 
24

>  <SMILES>  (70) 
CCOC1CC[NH+](C(=O)c2cccc(/N=c3\nc4c(c[nH]3)N(C)C(=O)CCN4c3ccccc3)c2)CC1

>  <Energy>  (70) 
113.05173742060987

>  <Genealogy>  (70) 
CCOC1CC[NH+](C(=O)c2cccc(N=c3nc4c(c[nH]3)N(C)C(=O)CCN4c3ccccc3)c2)CC1 (protonated)
CCOC1CC[NH+](C(=O)c2cccc(/N=c3\nc4c(c[nH]3)N(C)C(=O)CCN4c3ccccc3)c2)CC1 (cis-trans isomerization)
CCOC1CC[NH+](C(=O)c2cccc(/N=c3\nc4c(c[nH]3)N(C)C(=O)CCN4c3ccccc3)c2)CC1 (3D coordinates assigned)
CCOC1CC[NH+](C(=O)c2cccc(/N=c3\nc4c(c[nH]3)N(C)C(=O)CCN4c3ccccc3)c2)CC1 (nonaromatic ring conformer: 113.05173742060987 kcal/mol)

>  <smiles>  (70) 
CCOC1CCN(C(=O)c2cccc(N=c3nc4c(c[nH]3)N(C)C(=O)CCN4c3ccccc3)c2)CC1

>  <score_type>  (70) 
oracle

>  <origin>  (70) 
autodockgpu

>  <m_score__min__energy>  (70) 
-6.8300000000000001

>  <m_primary>  (70) 
energy

>  <meeko>  (70) 
{"free_energy": -5.6, "intermolecular_energy": -9.18, "internal_energy": -2.49, "cluster_size": 3, "cluster_id": 2, "rank_in_cluster": 1}

>  <energy>  (70) 
-4.56

>  <cluster_rmsd>  (70) 
1.95

>  <rmsd>  (70) 
271.15

>  <cluster>  (70) 
4

$$$$
KHESEQRZXKFTOB-IGPOTQGWNA-O
     RDKit          3D

 70 74  0  0  0  0  0  0  0  0999 V2000
  137.5560   74.7514  222.3848 H   0  0  0  0  0  0  0  0  0  0  0  0
  138.2850   75.5710  222.3020 C   0  0  0  0  0  0  0  0  0  0  0  0
  139.6100   75.2950  221.9520 C   0  0  0  0  0  0  0  0  0  0  0  0
  139.9241   74.2580  221.7623 H   0  0  0  0  0  0  0  0  0  0  0  0
  140.5360   76.3370  221.8430 C   0  0  0  0  0  0  0  0  0  0  0  0
  141.5797   76.1157  221.5751 H   0  0  0  0  0  0  0  0  0  0  0  0
  140.1400   77.6660  222.0740 C   0  0  0  0  0  0  0  0  0  0  0  0
  141.0740   78.7480  221.8790 N   0  0  0  0  0  0  0  0  0  0  0  0
  141.6430   78.9420  220.5580 C   0  0  0  0  0  0  0  0  0  0  0  0
  142.2740   77.8860  219.9810 N   0  0  0  0  0  0  0  0  0  0  0  0
  142.8350   77.9390  218.7490 C   0  0  0  0  0  0  0  0  0  0  0  0
  143.4840   76.9140  218.2760 N   0  0  0  0  0  0  0  0  0  0  0  0
  142.9480   75.5820  218.2290 C   0  0  0  0  0  0  0  0  0  0  0  0
  142.2400   75.1260  217.1040 C   0  0  0  0  0  0  0  0  0  0  0  0
  142.1253   75.7792  216.2264 H   0  0  0  0  0  0  0  0  0  0  0  0
  141.6820   73.8470  217.0970 C   0  0  0  0  0  0  0  0  0  0  0  0
  141.1359   73.4908  216.2110 H   0  0  0  0  0  0  0  0  0  0  0  0
  141.8160   73.0180  218.2140 C   0  0  0  0  0  0  0  0  0  0  0  0
  141.3699   72.0126  218.2053 H   0  0  0  0  0  0  0  0  0  0  0  0
  142.5170   73.4610  219.3480 C   0  0  0  0  0  0  0  0  0  0  0  0
  142.6020   72.5930  220.5460 C   0  0  0  0  0  0  0  0  0  0  0  0
  141.8460   72.8320  221.5280 O   0  0  0  0  0  0  0  0  0  0  0  0
  143.5500   71.4970  220.6190 N   0  0  2  0  0  0  0  0  0  0  0  0
  143.6950   71.2430  221.6240 H   0  0  0  0  0  0  0  0  0  0  0  0
  144.8770   71.9040  220.0720 C   0  0  0  0  0  0  0  0  0  0  0  0
  145.6615   71.5540  220.7591 H   0  0  0  0  0  0  0  0  0  0  0  0
  144.8718   73.0000  219.9782 H   0  0  0  0  0  0  0  0  0  0  0  0
  145.1550   71.3250  218.6760 C   0  0  0  0  0  0  0  0  0  0  0  0
  146.1576   71.6403  218.3515 H   0  0  0  0  0  0  0  0  0  0  0  0
  144.3841   71.7005  217.9870 H   0  0  0  0  0  0  0  0  0  0  0  0
  145.0910   69.7800  218.6800 C   0  0  1  0  0  0  0  0  0  0  0  0
  144.7883   69.4646  217.6706 H   0  0  0  0  0  0  0  0  0  0  0  0
  146.3640   69.2470  219.0160 O   0  0  0  0  0  0  0  0  0  0  0  0
  146.2620   67.9380  219.5460 C   0  0  0  0  0  0  0  0  0  0  0  0
  145.4342   67.9033  220.2696 H   0  0  0  0  0  0  0  0  0  0  0  0
  147.2088   67.6790  220.0425 H   0  0  0  0  0  0  0  0  0  0  0  0
  145.9970   66.9330  218.4310 C   0  0  0  0  0  0  0  0  0  0  0  0
  145.7398   65.9577  218.8699 H   0  0  0  0  0  0  0  0  0  0  0  0
  145.1615   67.2870  217.8092 H   0  0  0  0  0  0  0  0  0  0  0  0
  146.8984   66.8290  217.8092 H   0  0  0  0  0  0  0  0  0  0  0  0
  144.0550   69.2460  219.6940 C   0  0  0  0  0  0  0  0  0  0  0  0
  144.5689   68.9961  220.6339 H   0  0  0  0  0  0  0  0  0  0  0  0
  143.5756   68.3540  219.2646 H   0  0  0  0  0  0  0  0  0  0  0  0
  142.9700   70.2890  219.9800 C   0  0  0  0  0  0  0  0  0  0  0  0
  142.2185   69.8512  220.6535 H   0  0  0  0  0  0  0  0  0  0  0  0
  142.5071   70.5842  219.0268 H   0  0  0  0  0  0  0  0  0  0  0  0
  143.1120   74.7370  219.3320 C   0  0  0  0  0  0  0  0  0  0  0  0
  143.7098   75.0718  220.1925 H   0  0  0  0  0  0  0  0  0  0  0  0
  142.7660   79.0910  218.0350 N   0  0  0  0  0  0  0  0  0  0  0  0
  143.2030   79.1460  217.0860 H   0  0  0  0  0  0  0  0  0  0  0  0
  142.1480   80.1870  218.5470 C   0  0  0  0  0  0  0  0  0  0  0  0
  142.1002   81.1099  217.9503 H   0  0  0  0  0  0  0  0  0  0  0  0
  141.5670   80.1600  219.8310 C   0  0  0  0  0  0  0  0  0  0  0  0
  140.9590   81.3590  220.3590 N   0  0  0  0  0  0  0  0  0  0  0  0
  140.3590   82.3460  219.4570 C   0  0  0  0  0  0  0  0  0  0  0  0
  139.8773   83.1384  220.0487 H   0  0  0  0  0  0  0  0  0  0  0  0
  141.1421   82.7868  218.8226 H   0  0  0  0  0  0  0  0  0  0  0  0
  139.6072   81.8537  218.8226 H   0  0  0  0  0  0  0  0  0  0  0  0
  141.1920   81.7500  221.7210 C   0  0  0  0  0  0  0  0  0  0  0  0
  141.8350   82.8060  221.9660 O   0  0  0  0  0  0  0  0  0  0  0  0
  140.6450   80.9530  222.8610 C   0  0  0  0  0  0  0  0  0  0  0  0
  140.7577   81.5329  223.7889 H   0  0  0  0  0  0  0  0  0  0  0  0
  139.5849   80.7420  222.6569 H   0  0  0  0  0  0  0  0  0  0  0  0
  141.3760   79.6230  223.0160 C   0  0  0  0  0  0  0  0  0  0  0  0
  142.4599   79.8059  223.0568 H   0  0  0  0  0  0  0  0  0  0  0  0
  141.0442   79.1353  223.9444 H   0  0  0  0  0  0  0  0  0  0  0  0
  138.8080   77.9340  222.4320 C   0  0  0  0  0  0  0  0  0  0  0  0
  138.4894   78.9695  222.6225 H   0  0  0  0  0  0  0  0  0  0  0  0
  137.8860   76.8890  222.5470 C   0  0  0  0  0  0  0  0  0  0  0  0
  136.8451   77.1039  222.8306 H   0  0  0  0  0  0  0  0  0  0  0  0
  1  2  1  0
  2  3  2  0
  3  4  1  0
  3  5  1  0
  5  6  1  0
  5  7  2  0
  7  8  1  0
  8  9  1  0
  9 10  2  0
 10 11  1  0
 11 12  2  0
 12 13  1  0
 13 14  2  0
 14 15  1  0
 14 16  1  0
 16 17  1  0
 16 18  2  0
 18 19  1  0
 18 20  1  0
 20 21  1  0
 21 22  2  0
 21 23  1  0
 23 24  1  6
 23 25  1  0
 25 26  1  0
 25 27  1  0
 25 28  1  0
 28 29  1  0
 28 30  1  0
 28 31  1  0
 31 32  1  1
 31 33  1  0
 33 34  1  0
 34 35  1  0
 34 36  1  0
 34 37  1  0
 37 38  1  0
 37 39  1  0
 37 40  1  0
 31 41  1  0
 41 42  1  0
 41 43  1  0
 41 44  1  0
 44 45  1  0
 44 46  1  0
 20 47  2  0
 47 48  1  0
 11 49  1  0
 49 50  1  0
 49 51  1  0
 51 52  1  0
 51 53  2  0
 53 54  1  0
 54 55  1  0
 55 56  1  0
 55 57  1  0
 55 58  1  0
 54 59  1  0
 59 60  2  0
 59 61  1  0
 61 62  1  0
 61 63  1  0
 61 64  1  0
 64 65  1  0
 64 66  1  0
  7 67  1  0
 67 68  1  0
 67 69  2  0
 69 70  1  0
 69  2  1  0
 64  8  1  0
 53  9  1  0
 47 13  1  0
 44 23  1  0
M  CHG  1  23   1
M  END
>  <UniqueID>  (71) 
24

>  <SMILES>  (71) 
CCOC1CC[NH+](C(=O)c2cccc(/N=c3\nc4c(c[nH]3)N(C)C(=O)CCN4c3ccccc3)c2)CC1

>  <Energy>  (71) 
113.05173742060987

>  <Genealogy>  (71) 
CCOC1CC[NH+](C(=O)c2cccc(N=c3nc4c(c[nH]3)N(C)C(=O)CCN4c3ccccc3)c2)CC1 (protonated)
CCOC1CC[NH+](C(=O)c2cccc(/N=c3\nc4c(c[nH]3)N(C)C(=O)CCN4c3ccccc3)c2)CC1 (cis-trans isomerization)
CCOC1CC[NH+](C(=O)c2cccc(/N=c3\nc4c(c[nH]3)N(C)C(=O)CCN4c3ccccc3)c2)CC1 (3D coordinates assigned)
CCOC1CC[NH+](C(=O)c2cccc(/N=c3\nc4c(c[nH]3)N(C)C(=O)CCN4c3ccccc3)c2)CC1 (nonaromatic ring conformer: 113.05173742060987 kcal/mol)

>  <smiles>  (71) 
CCOC1CCN(C(=O)c2cccc(N=c3nc4c(c[nH]3)N(C)C(=O)CCN4c3ccccc3)c2)CC1

>  <score_type>  (71) 
oracle

>  <origin>  (71) 
autodockgpu

>  <m_score__min__energy>  (71) 
-6.8300000000000001

>  <m_primary>  (71) 
energy

>  <meeko>  (71) 
{"free_energy": -5.13, "intermolecular_energy": -8.71, "internal_energy": -2.18, "cluster_size": 1, "cluster_id": 5, "rank_in_cluster": 1}

>  <energy>  (71) 
-5.13

>  <cluster_rmsd>  (71) 
0.0

>  <rmsd>  (71) 
270.67

>  <cluster>  (71) 
5

$$$$
KHESEQRZXKFTOB-IGPOTQGWNA-O
     RDKit          3D

 70 74  0  0  0  0  0  0  0  0999 V2000
  143.5834   80.7133  224.5324 H   0  0  0  0  0  0  0  0  0  0  0  0
  142.6790   80.4530  223.9630 C   0  0  0  0  0  0  0  0  0  0  0  0
  142.2590   79.1210  223.8880 C   0  0  0  0  0  0  0  0  0  0  0  0
  142.8346   78.3332  224.3960 H   0  0  0  0  0  0  0  0  0  0  0  0
  141.1070   78.7910  223.1670 C   0  0  0  0  0  0  0  0  0  0  0  0
  140.7831   77.7417  223.1036 H   0  0  0  0  0  0  0  0  0  0  0  0
  140.3610   79.7930  222.5230 C   0  0  0  0  0  0  0  0  0  0  0  0
  139.1270   79.4640  221.8510 N   0  0  0  0  0  0  0  0  0  0  0  0
  138.6710   78.0870  221.8760 C   0  0  0  0  0  0  0  0  0  0  0  0
  139.5270   77.1290  221.4330 N   0  0  0  0  0  0  0  0  0  0  0  0
  139.2220   75.8090  221.4170 C   0  0  0  0  0  0  0  0  0  0  0  0
  140.0590   74.9450  220.9180 N   0  0  0  0  0  0  0  0  0  0  0  0
  141.2780   75.3090  220.2500 C   0  0  0  0  0  0  0  0  0  0  0  0
  142.5240   74.8700  220.7290 C   0  0  0  0  0  0  0  0  0  0  0  0
  142.5717   74.2042  221.6033 H   0  0  0  0  0  0  0  0  0  0  0  0
  143.7010   75.2760  220.0990 C   0  0  0  0  0  0  0  0  0  0  0  0
  144.6739   74.9241  220.4728 H   0  0  0  0  0  0  0  0  0  0  0  0
  143.6450   76.1290  218.9940 C   0  0  0  0  0  0  0  0  0  0  0  0
  144.5758   76.4489  218.5028 H   0  0  0  0  0  0  0  0  0  0  0  0
  142.4070   76.5810  218.5060 C   0  0  0  0  0  0  0  0  0  0  0  0
  142.3670   77.5310  217.3690 C   0  0  0  0  0  0  0  0  0  0  0  0
  142.1260   77.0860  216.2120 O   0  0  0  0  0  0  0  0  0  0  0  0
  142.6230   78.9460  217.5560 N   0  0  2  0  0  0  0  0  0  0  0  0
  143.6190   79.1450  217.3070 H   0  0  0  0  0  0  0  0  0  0  0  0
  142.4400   79.3350  218.9850 C   0  0  0  0  0  0  0  0  0  0  0  0
  143.2836   79.9741  219.2849 H   0  0  0  0  0  0  0  0  0  0  0  0
  142.3966   78.4076  219.5750 H   0  0  0  0  0  0  0  0  0  0  0  0
  141.1320   80.1010  219.2370 C   0  0  0  0  0  0  0  0  0  0  0  0
  141.0807   80.3804  220.2997 H   0  0  0  0  0  0  0  0  0  0  0  0
  140.2912   79.4470  218.9625 H   0  0  0  0  0  0  0  0  0  0  0  0
  141.0500   81.3830  218.3760 C   0  0  1  0  0  0  0  0  0  0  0  0
  139.9838   81.5882  218.1994 H   0  0  0  0  0  0  0  0  0  0  0  0
  141.6660   82.4630  219.0620 O   0  0  0  0  0  0  0  0  0  0  0  0
  140.7760   83.0830  219.9720 C   0  0  0  0  0  0  0  0  0  0  0  0
  141.3546   83.6537  220.7133 H   0  0  0  0  0  0  0  0  0  0  0  0
  140.1805   82.3066  220.4745 H   0  0  0  0  0  0  0  0  0  0  0  0
  139.8350   84.0280  219.2330 C   0  0  0  0  0  0  0  0  0  0  0  0
  139.2540   84.6115  219.9624 H   0  0  0  0  0  0  0  0  0  0  0  0
  140.4225   84.7109  218.6017 H   0  0  0  0  0  0  0  0  0  0  0  0
  139.1496   83.4434  218.6017 H   0  0  0  0  0  0  0  0  0  0  0  0
  141.7510   81.2090  217.0100 C   0  0  0  0  0  0  0  0  0  0  0  0
  142.7767   81.6002  217.0808 H   0  0  0  0  0  0  0  0  0  0  0  0
  141.1767   81.7607  216.2512 H   0  0  0  0  0  0  0  0  0  0  0  0
  141.8060   79.7350  216.5990 C   0  0  0  0  0  0  0  0  0  0  0  0
  142.2516   79.6575  215.5963 H   0  0  0  0  0  0  0  0  0  0  0  0
  140.7821   79.3330  216.5976 H   0  0  0  0  0  0  0  0  0  0  0  0
  141.2230   76.1350  219.1220 C   0  0  0  0  0  0  0  0  0  0  0  0
  140.2475   76.4379  218.7139 H   0  0  0  0  0  0  0  0  0  0  0  0
  138.0110   75.4010  221.8720 N   0  0  0  0  0  0  0  0  0  0  0  0
  137.7610   74.3850  221.8560 H   0  0  0  0  0  0  0  0  0  0  0  0
  137.1040   76.3010  222.3340 C   0  0  0  0  0  0  0  0  0  0  0  0
  136.1295   75.9481  222.7024 H   0  0  0  0  0  0  0  0  0  0  0  0
  137.3940   77.6810  222.3480 C   0  0  0  0  0  0  0  0  0  0  0  0
  136.3880   78.6120  222.8050 N   0  0  0  0  0  0  0  0  0  0  0  0
  135.3980   78.2030  223.8050 C   0  0  0  0  0  0  0  0  0  0  0  0
  135.8044   78.3709  224.8133 H   0  0  0  0  0  0  0  0  0  0  0  0
  134.4803   78.7956  223.6762 H   0  0  0  0  0  0  0  0  0  0  0  0
  135.1662   77.1355  223.6762 H   0  0  0  0  0  0  0  0  0  0  0  0
  136.1490   79.8300  222.0850 C   0  0  0  0  0  0  0  0  0  0  0  0
  135.0470   80.0030  221.4980 O   0  0  0  0  0  0  0  0  0  0  0  0
  137.1670   80.9250  222.0540 C   0  0  0  0  0  0  0  0  0  0  0  0
  136.7055   81.8299  221.6319 H   0  0  0  0  0  0  0  0  0  0  0  0
  137.5119   81.1041  223.0831 H   0  0  0  0  0  0  0  0  0  0  0  0
  138.3750   80.5430  221.2050 C   0  0  0  0  0  0  0  0  0  0  0  0
  138.0318   80.2051  220.2161 H   0  0  0  0  0  0  0  0  0  0  0  0
  139.0290   81.4208  221.0960 H   0  0  0  0  0  0  0  0  0  0  0  0
  140.7940   81.1270  222.5980 C   0  0  0  0  0  0  0  0  0  0  0  0
  140.2217   81.9178  222.0911 H   0  0  0  0  0  0  0  0  0  0  0  0
  141.9490   81.4540  223.3140 C   0  0  0  0  0  0  0  0  0  0  0  0
  142.2844   82.5003  223.3671 H   0  0  0  0  0  0  0  0  0  0  0  0
  1  2  1  0
  2  3  2  0
  3  4  1  0
  3  5  1  0
  5  6  1  0
  5  7  2  0
  7  8  1  0
  8  9  1  0
  9 10  2  0
 10 11  1  0
 11 12  2  0
 12 13  1  0
 13 14  2  0
 14 15  1  0
 14 16  1  0
 16 17  1  0
 16 18  2  0
 18 19  1  0
 18 20  1  0
 20 21  1  0
 21 22  2  0
 21 23  1  0
 23 24  1  1
 23 25  1  0
 25 26  1  0
 25 27  1  0
 25 28  1  0
 28 29  1  0
 28 30  1  0
 28 31  1  0
 31 32  1  1
 31 33  1  0
 33 34  1  0
 34 35  1  0
 34 36  1  0
 34 37  1  0
 37 38  1  0
 37 39  1  0
 37 40  1  0
 31 41  1  0
 41 42  1  0
 41 43  1  0
 41 44  1  0
 44 45  1  0
 44 46  1  0
 20 47  2  0
 47 48  1  0
 11 49  1  0
 49 50  1  0
 49 51  1  0
 51 52  1  0
 51 53  2  0
 53 54  1  0
 54 55  1  0
 55 56  1  0
 55 57  1  0
 55 58  1  0
 54 59  1  0
 59 60  2  0
 59 61  1  0
 61 62  1  0
 61 63  1  0
 61 64  1  0
 64 65  1  0
 64 66  1  0
  7 67  1  0
 67 68  1  0
 67 69  2  0
 69 70  1  0
 69  2  1  0
 64  8  1  0
 53  9  1  0
 47 13  1  0
 44 23  1  0
M  CHG  1  23   1
M  END
>  <UniqueID>  (72) 
24

>  <SMILES>  (72) 
CCOC1CC[NH+](C(=O)c2cccc(/N=c3\nc4c(c[nH]3)N(C)C(=O)CCN4c3ccccc3)c2)CC1

>  <Energy>  (72) 
113.05173742060987

>  <Genealogy>  (72) 
CCOC1CC[NH+](C(=O)c2cccc(N=c3nc4c(c[nH]3)N(C)C(=O)CCN4c3ccccc3)c2)CC1 (protonated)
CCOC1CC[NH+](C(=O)c2cccc(/N=c3\nc4c(c[nH]3)N(C)C(=O)CCN4c3ccccc3)c2)CC1 (cis-trans isomerization)
CCOC1CC[NH+](C(=O)c2cccc(/N=c3\nc4c(c[nH]3)N(C)C(=O)CCN4c3ccccc3)c2)CC1 (3D coordinates assigned)
CCOC1CC[NH+](C(=O)c2cccc(/N=c3\nc4c(c[nH]3)N(C)C(=O)CCN4c3ccccc3)c2)CC1 (nonaromatic ring conformer: 113.05173742060987 kcal/mol)

>  <smiles>  (72) 
CCOC1CCN(C(=O)c2cccc(N=c3nc4c(c[nH]3)N(C)C(=O)CCN4c3ccccc3)c2)CC1

>  <score_type>  (72) 
oracle

>  <origin>  (72) 
autodockgpu

>  <m_score__min__energy>  (72) 
-6.8300000000000001

>  <m_primary>  (72) 
energy

>  <meeko>  (72) 
{"free_energy": -4.78, "intermolecular_energy": -8.36, "internal_energy": -2.91, "cluster_size": 4, "cluster_id": 4, "rank_in_cluster": 3}

>  <energy>  (72) 
-5.08

>  <cluster_rmsd>  (72) 
0.0

>  <rmsd>  (72) 
270.08

>  <cluster>  (72) 
6

$$$$
KHESEQRZXKFTOB-IGPOTQGWNA-O
     RDKit          3D

 70 74  0  0  0  0  0  0  0  0999 V2000
  142.0729   78.5970  225.1241 H   0  0  0  0  0  0  0  0  0  0  0  0
  141.8200   79.1670  224.2180 C   0  0  0  0  0  0  0  0  0  0  0  0
  142.8350   79.7460  223.4510 C   0  0  0  0  0  0  0  0  0  0  0  0
  143.8862   79.6344  223.7553 H   0  0  0  0  0  0  0  0  0  0  0  0
  142.5140   80.4670  222.2970 C   0  0  0  0  0  0  0  0  0  0  0  0
  143.3146   80.9274  221.6994 H   0  0  0  0  0  0  0  0  0  0  0  0
  141.1740   80.6070  221.8960 C   0  0  0  0  0  0  0  0  0  0  0  0
  140.8500   81.2780  220.6610 N   0  0  0  0  0  0  0  0  0  0  0  0
  141.4080   80.7630  219.4250 C   0  0  0  0  0  0  0  0  0  0  0  0
  142.0800   79.5830  219.4790 N   0  0  0  0  0  0  0  0  0  0  0  0
  142.6360   78.9940  218.3920 C   0  0  0  0  0  0  0  0  0  0  0  0
  143.3260   77.8960  218.5180 N   0  0  0  0  0  0  0  0  0  0  0  0
  142.9460   76.8080  219.3760 C   0  0  0  0  0  0  0  0  0  0  0  0
  143.7060   75.6280  219.4280 C   0  0  0  0  0  0  0  0  0  0  0  0
  144.6295   75.5440  218.8363 H   0  0  0  0  0  0  0  0  0  0  0  0
  143.2930   74.5620  220.2280 C   0  0  0  0  0  0  0  0  0  0  0  0
  143.8962   73.6432  220.2731 H   0  0  0  0  0  0  0  0  0  0  0  0
  142.1140   74.6600  220.9720 C   0  0  0  0  0  0  0  0  0  0  0  0
  141.7903   73.8149  221.5974 H   0  0  0  0  0  0  0  0  0  0  0  0
  141.3400   75.8310  220.9260 C   0  0  0  0  0  0  0  0  0  0  0  0
  140.0640   75.8990  221.6760 C   0  0  0  0  0  0  0  0  0  0  0  0
  139.6780   74.8820  222.3170 O   0  0  0  0  0  0  0  0  0  0  0  0
  139.2430   77.0960  221.6670 N   0  0  2  0  0  0  0  0  0  0  0  0
  139.8620   77.9300  221.7910 H   0  0  0  0  0  0  0  0  0  0  0  0
  138.2790   77.0880  222.8060 C   0  0  0  0  0  0  0  0  0  0  0  0
  138.2869   78.0812  223.2787 H   0  0  0  0  0  0  0  0  0  0  0  0
  138.5994   76.2989  223.5022 H   0  0  0  0  0  0  0  0  0  0  0  0
  136.8410   76.7630  222.3740 C   0  0  0  0  0  0  0  0  0  0  0  0
  136.1847   76.8056  223.2557 H   0  0  0  0  0  0  0  0  0  0  0  0
  136.8336   75.7574  221.9283 H   0  0  0  0  0  0  0  0  0  0  0  0
  136.3260   77.7670  221.3150 C   0  0  1  0  0  0  0  0  0  0  0  0
  135.5816   77.2392  220.7008 H   0  0  0  0  0  0  0  0  0  0  0  0
  135.7440   78.8900  221.9610 O   0  0  0  0  0  0  0  0  0  0  0  0
  134.5590   78.5410  222.6530 C   0  0  0  0  0  0  0  0  0  0  0  0
  134.4255   77.4498  222.6159 H   0  0  0  0  0  0  0  0  0  0  0  0
  133.7050   79.0425  222.1742 H   0  0  0  0  0  0  0  0  0  0  0  0
  134.6430   78.9880  224.1090 C   0  0  0  0  0  0  0  0  0  0  0  0
  134.4804   78.1226  224.7682 H   0  0  0  0  0  0  0  0  0  0  0  0
  135.6373   79.4160  224.3044 H   0  0  0  0  0  0  0  0  0  0  0  0
  133.8719   79.7478  224.3044 H   0  0  0  0  0  0  0  0  0  0  0  0
  137.4590   78.2670  220.3930 C   0  0  0  0  0  0  0  0  0  0  0  0
  137.8390   79.2244  220.7789 H   0  0  0  0  0  0  0  0  0  0  0  0
  137.0524   78.3906  219.3784 H   0  0  0  0  0  0  0  0  0  0  0  0
  138.6120   77.2600  220.3330 C   0  0  0  0  0  0  0  0  0  0  0  0
  139.3676   77.6199  219.6191 H   0  0  0  0  0  0  0  0  0  0  0  0
  138.2121   76.2870  220.0117 H   0  0  0  0  0  0  0  0  0  0  0  0
  141.7840   76.9180  220.1490 C   0  0  0  0  0  0  0  0  0  0  0  0
  141.2145   77.8591  220.1493 H   0  0  0  0  0  0  0  0  0  0  0  0
  142.5180   79.5890  217.1790 N   0  0  0  0  0  0  0  0  0  0  0  0
  142.9500   79.1490  216.3350 H   0  0  0  0  0  0  0  0  0  0  0  0
  141.8560   80.7690  217.0470 C   0  0  0  0  0  0  0  0  0  0  0  0
  141.7677   81.2327  216.0534 H   0  0  0  0  0  0  0  0  0  0  0  0
  141.2810   81.4070  218.1650 C   0  0  0  0  0  0  0  0  0  0  0  0
  140.6240   82.6820  217.9930 N   0  0  0  0  0  0  0  0  0  0  0  0
  139.8740   82.9720  216.7680 C   0  0  0  0  0  0  0  0  0  0  0  0
  138.8777   83.3572  217.0306 H   0  0  0  0  0  0  0  0  0  0  0  0
  140.4146   83.7259  216.1769 H   0  0  0  0  0  0  0  0  0  0  0  0
  139.7667   82.0505  216.1769 H   0  0  0  0  0  0  0  0  0  0  0  0
  140.9380   83.7810  218.8610 C   0  0  0  0  0  0  0  0  0  0  0  0
  141.3930   84.8520  218.3750 O   0  0  0  0  0  0  0  0  0  0  0  0
  140.6940   83.7000  220.3350 C   0  0  0  0  0  0  0  0  0  0  0  0
  141.6615   83.7099  220.8583 H   0  0  0  0  0  0  0  0  0  0  0  0
  140.0794   84.5631  220.6305 H   0  0  0  0  0  0  0  0  0  0  0  0
  139.9420   82.4280  220.7090 C   0  0  0  0  0  0  0  0  0  0  0  0
  139.5364   82.5301  221.7264 H   0  0  0  0  0  0  0  0  0  0  0  0
  139.1204   82.2703  219.9948 H   0  0  0  0  0  0  0  0  0  0  0  0
  140.1600   80.0280  222.6760 C   0  0  0  0  0  0  0  0  0  0  0  0
  139.1076   80.1377  222.3755 H   0  0  0  0  0  0  0  0  0  0  0  0
  140.4830   79.3120  223.8340 C   0  0  0  0  0  0  0  0  0  0  0  0
  139.6846   78.8627  224.4429 H   0  0  0  0  0  0  0  0  0  0  0  0
  1  2  1  0
  2  3  2  0
  3  4  1  0
  3  5  1  0
  5  6  1  0
  5  7  2  0
  7  8  1  0
  8  9  1  0
  9 10  2  0
 10 11  1  0
 11 12  2  0
 12 13  1  0
 13 14  2  0
 14 15  1  0
 14 16  1  0
 16 17  1  0
 16 18  2  0
 18 19  1  0
 18 20  1  0
 20 21  1  0
 21 22  2  0
 21 23  1  0
 23 24  1  6
 23 25  1  0
 25 26  1  0
 25 27  1  0
 25 28  1  0
 28 29  1  0
 28 30  1  0
 28 31  1  0
 31 32  1  1
 31 33  1  0
 33 34  1  0
 34 35  1  0
 34 36  1  0
 34 37  1  0
 37 38  1  0
 37 39  1  0
 37 40  1  0
 31 41  1  0
 41 42  1  0
 41 43  1  0
 41 44  1  0
 44 45  1  0
 44 46  1  0
 20 47  2  0
 47 48  1  0
 11 49  1  0
 49 50  1  0
 49 51  1  0
 51 52  1  0
 51 53  2  0
 53 54  1  0
 54 55  1  0
 55 56  1  0
 55 57  1  0
 55 58  1  0
 54 59  1  0
 59 60  2  0
 59 61  1  0
 61 62  1  0
 61 63  1  0
 61 64  1  0
 64 65  1  0
 64 66  1  0
  7 67  1  0
 67 68  1  0
 67 69  2  0
 69 70  1  0
 69  2  1  0
 64  8  1  0
 53  9  1  0
 47 13  1  0
 44 23  1  0
M  CHG  1  23   1
M  END
>  <UniqueID>  (73) 
24

>  <SMILES>  (73) 
CCOC1CC[NH+](C(=O)c2cccc(/N=c3\nc4c(c[nH]3)N(C)C(=O)CCN4c3ccccc3)c2)CC1

>  <Energy>  (73) 
113.05173742060987

>  <Genealogy>  (73) 
CCOC1CC[NH+](C(=O)c2cccc(N=c3nc4c(c[nH]3)N(C)C(=O)CCN4c3ccccc3)c2)CC1 (protonated)
CCOC1CC[NH+](C(=O)c2cccc(/N=c3\nc4c(c[nH]3)N(C)C(=O)CCN4c3ccccc3)c2)CC1 (cis-trans isomerization)
CCOC1CC[NH+](C(=O)c2cccc(/N=c3\nc4c(c[nH]3)N(C)C(=O)CCN4c3ccccc3)c2)CC1 (3D coordinates assigned)
CCOC1CC[NH+](C(=O)c2cccc(/N=c3\nc4c(c[nH]3)N(C)C(=O)CCN4c3ccccc3)c2)CC1 (nonaromatic ring conformer: 113.05173742060987 kcal/mol)

>  <smiles>  (73) 
CCOC1CCN(C(=O)c2cccc(N=c3nc4c(c[nH]3)N(C)C(=O)CCN4c3ccccc3)c2)CC1

>  <score_type>  (73) 
oracle

>  <origin>  (73) 
autodockgpu

>  <m_score__min__energy>  (73) 
-6.8300000000000001

>  <m_primary>  (73) 
energy

>  <meeko>  (73) 
{"free_energy": -4.92, "intermolecular_energy": -8.49, "internal_energy": -2.64, "cluster_size": 4, "cluster_id": 7, "rank_in_cluster": 1}

>  <energy>  (73) 
-4.92

>  <cluster_rmsd>  (73) 
0.0

>  <rmsd>  (73) 
270.94

>  <cluster>  (73) 
7

$$$$
KHESEQRZXKFTOB-IGPOTQGWNA-O
     RDKit          3D

 70 74  0  0  0  0  0  0  0  0999 V2000
  144.3551   80.6141  224.2150 H   0  0  0  0  0  0  0  0  0  0  0  0
  143.3630   80.5070  223.7520 C   0  0  0  0  0  0  0  0  0  0  0  0
  142.3160   81.3460  224.1420 C   0  0  0  0  0  0  0  0  0  0  0  0
  142.4829   82.1106  224.9150 H   0  0  0  0  0  0  0  0  0  0  0  0
  141.0560   81.2140  223.5500 C   0  0  0  0  0  0  0  0  0  0  0  0
  140.2322   81.8719  223.8639 H   0  0  0  0  0  0  0  0  0  0  0  0
  140.8370   80.2450  222.5560 C   0  0  0  0  0  0  0  0  0  0  0  0
  139.5620   80.1650  221.8850 N   0  0  0  0  0  0  0  0  0  0  0  0
  138.8930   78.8800  221.8180 C   0  0  0  0  0  0  0  0  0  0  0  0
  139.5830   77.8370  221.2850 N   0  0  0  0  0  0  0  0  0  0  0  0
  139.0720   76.5860  221.1770 C   0  0  0  0  0  0  0  0  0  0  0  0
  139.7570   75.6420  220.5960 N   0  0  0  0  0  0  0  0  0  0  0  0
  141.0330   75.8510  219.9720 C   0  0  0  0  0  0  0  0  0  0  0  0
  142.2180   75.4030  220.5790 C   0  0  0  0  0  0  0  0  0  0  0  0
  142.1720   74.8477  221.5274 H   0  0  0  0  0  0  0  0  0  0  0  0
  143.4530   75.6600  219.9830 C   0  0  0  0  0  0  0  0  0  0  0  0
  144.3776   75.2994  220.4575 H   0  0  0  0  0  0  0  0  0  0  0  0
  143.5170   76.3750  218.7840 C   0  0  0  0  0  0  0  0  0  0  0  0
  144.4934   76.5780  218.3199 H   0  0  0  0  0  0  0  0  0  0  0  0
  142.3420   76.8360  218.1680 C   0  0  0  0  0  0  0  0  0  0  0  0
  142.4290   77.6420  216.9270 C   0  0  0  0  0  0  0  0  0  0  0  0
  142.4240   77.0480  215.8120 O   0  0  0  0  0  0  0  0  0  0  0  0
  142.5450   79.0870  216.9700 N   0  0  2  0  0  0  0  0  0  0  0  0
  143.3260   79.3820  216.3390 H   0  0  0  0  0  0  0  0  0  0  0  0
  142.8900   79.5520  218.3450 C   0  0  0  0  0  0  0  0  0  0  0  0
  143.6887   80.3047  218.2703 H   0  0  0  0  0  0  0  0  0  0  0  0
  143.2090   78.6702  218.9200 H   0  0  0  0  0  0  0  0  0  0  0  0
  141.6970   80.1760  219.0850 C   0  0  0  0  0  0  0  0  0  0  0  0
  142.0311   80.5212  220.0746 H   0  0  0  0  0  0  0  0  0  0  0  0
  140.9123   79.4111  219.1814 H   0  0  0  0  0  0  0  0  0  0  0  0
  141.1110   81.3770  218.3050 C   0  0  1  0  0  0  0  0  0  0  0  0
  140.0444   81.4446  218.5654 H   0  0  0  0  0  0  0  0  0  0  0  0
  141.7970   82.5670  218.6680 O   0  0  0  0  0  0  0  0  0  0  0  0
  141.0540   83.3390  219.5930 C   0  0  0  0  0  0  0  0  0  0  0  0
  141.6325   84.2339  219.8657 H   0  0  0  0  0  0  0  0  0  0  0  0
  140.8554   82.7308  220.4878 H   0  0  0  0  0  0  0  0  0  0  0  0
  139.7250   83.7670  218.9800 C   0  0  0  0  0  0  0  0  0  0  0  0
  139.0086   83.9977  219.7822 H   0  0  0  0  0  0  0  0  0  0  0  0
  139.8792   84.6609  218.3578 H   0  0  0  0  0  0  0  0  0  0  0  0
  139.3285   82.9511  218.3578 H   0  0  0  0  0  0  0  0  0  0  0  0
  141.2340   81.1900  216.7770 C   0  0  0  0  0  0  0  0  0  0  0  0
  142.1421   81.7013  216.4250 H   0  0  0  0  0  0  0  0  0  0  0  0
  140.3390   81.6169  216.3009 H   0  0  0  0  0  0  0  0  0  0  0  0
  141.3200   79.7060  216.4050 C   0  0  0  0  0  0  0  0  0  0  0  0
  141.3409   79.6103  215.3094 H   0  0  0  0  0  0  0  0  0  0  0  0
  140.4423   79.1889  216.8199 H   0  0  0  0  0  0  0  0  0  0  0  0
  141.0970   76.5370  218.7530 C   0  0  0  0  0  0  0  0  0  0  0  0
  140.1686   76.8442  218.2493 H   0  0  0  0  0  0  0  0  0  0  0  0
  137.8160   76.3390  221.6270 N   0  0  0  0  0  0  0  0  0  0  0  0
  137.4080   75.3800  221.5410 H   0  0  0  0  0  0  0  0  0  0  0  0
  137.0680   77.3320  222.1750 C   0  0  0  0  0  0  0  0  0  0  0  0
  136.0532   77.1097  222.5366 H   0  0  0  0  0  0  0  0  0  0  0  0
  137.5740   78.6440  222.2870 C   0  0  0  0  0  0  0  0  0  0  0  0
  136.7320   79.6830  222.8340 N   0  0  0  0  0  0  0  0  0  0  0  0
  135.6980   79.3590  223.8200 C   0  0  0  0  0  0  0  0  0  0  0  0
  136.1053   79.4866  224.8338 H   0  0  0  0  0  0  0  0  0  0  0  0
  134.8376   80.0306  223.6833 H   0  0  0  0  0  0  0  0  0  0  0  0
  135.3747   78.3165  223.6833 H   0  0  0  0  0  0  0  0  0  0  0  0
  136.6840   80.9770  222.2140 C   0  0  0  0  0  0  0  0  0  0  0  0
  135.6180   81.3680  221.6660 O   0  0  0  0  0  0  0  0  0  0  0  0
  137.8630   81.8960  222.2430 C   0  0  0  0  0  0  0  0  0  0  0  0
  137.5470   82.8936  221.9038 H   0  0  0  0  0  0  0  0  0  0  0  0
  138.2445   81.9354  223.2740 H   0  0  0  0  0  0  0  0  0  0  0  0
  138.9850   81.3960  221.3360 C   0  0  0  0  0  0  0  0  0  0  0  0
  138.5801   81.1931  220.3336 H   0  0  0  0  0  0  0  0  0  0  0  0
  139.7686   82.1654  221.2729 H   0  0  0  0  0  0  0  0  0  0  0  0
  141.8930   79.4010  222.1750 C   0  0  0  0  0  0  0  0  0  0  0  0
  141.7304   78.6345  221.4029 H   0  0  0  0  0  0  0  0  0  0  0  0
  143.1500   79.5310  222.7730 C   0  0  0  0  0  0  0  0  0  0  0  0
  143.9725   78.8649  222.4732 H   0  0  0  0  0  0  0  0  0  0  0  0
  1  2  1  0
  2  3  2  0
  3  4  1  0
  3  5  1  0
  5  6  1  0
  5  7  2  0
  7  8  1  0
  8  9  1  0
  9 10  2  0
 10 11  1  0
 11 12  2  0
 12 13  1  0
 13 14  2  0
 14 15  1  0
 14 16  1  0
 16 17  1  0
 16 18  2  0
 18 19  1  0
 18 20  1  0
 20 21  1  0
 21 22  2  0
 21 23  1  0
 23 24  1  1
 23 25  1  0
 25 26  1  0
 25 27  1  0
 25 28  1  0
 28 29  1  0
 28 30  1  0
 28 31  1  0
 31 32  1  1
 31 33  1  0
 33 34  1  0
 34 35  1  0
 34 36  1  0
 34 37  1  0
 37 38  1  0
 37 39  1  0
 37 40  1  0
 31 41  1  0
 41 42  1  0
 41 43  1  0
 41 44  1  0
 44 45  1  0
 44 46  1  0
 20 47  2  0
 47 48  1  0
 11 49  1  0
 49 50  1  0
 49 51  1  0
 51 52  1  0
 51 53  2  0
 53 54  1  0
 54 55  1  0
 55 56  1  0
 55 57  1  0
 55 58  1  0
 54 59  1  0
 59 60  2  0
 59 61  1  0
 61 62  1  0
 61 63  1  0
 61 64  1  0
 64 65  1  0
 64 66  1  0
  7 67  1  0
 67 68  1  0
 67 69  2  0
 69 70  1  0
 69  2  1  0
 64  8  1  0
 53  9  1  0
 47 13  1  0
 44 23  1  0
M  CHG  1  23   1
M  END
>  <UniqueID>  (74) 
24

>  <SMILES>  (74) 
CCOC1CC[NH+](C(=O)c2cccc(/N=c3\nc4c(c[nH]3)N(C)C(=O)CCN4c3ccccc3)c2)CC1

>  <Energy>  (74) 
113.05173742060987

>  <Genealogy>  (74) 
CCOC1CC[NH+](C(=O)c2cccc(N=c3nc4c(c[nH]3)N(C)C(=O)CCN4c3ccccc3)c2)CC1 (protonated)
CCOC1CC[NH+](C(=O)c2cccc(/N=c3\nc4c(c[nH]3)N(C)C(=O)CCN4c3ccccc3)c2)CC1 (cis-trans isomerization)
CCOC1CC[NH+](C(=O)c2cccc(/N=c3\nc4c(c[nH]3)N(C)C(=O)CCN4c3ccccc3)c2)CC1 (3D coordinates assigned)
CCOC1CC[NH+](C(=O)c2cccc(/N=c3\nc4c(c[nH]3)N(C)C(=O)CCN4c3ccccc3)c2)CC1 (nonaromatic ring conformer: 113.05173742060987 kcal/mol)

>  <smiles>  (74) 
CCOC1CCN(C(=O)c2cccc(N=c3nc4c(c[nH]3)N(C)C(=O)CCN4c3ccccc3)c2)CC1

>  <score_type>  (74) 
oracle

>  <origin>  (74) 
autodockgpu

>  <m_score__min__energy>  (74) 
-6.8300000000000001

>  <m_primary>  (74) 
energy

>  <meeko>  (74) 
{"free_energy": -4.95, "intermolecular_energy": -8.53, "internal_energy": -3.03, "cluster_size": 4, "cluster_id": 4, "rank_in_cluster": 2}

>  <energy>  (74) 
-4.59

>  <cluster_rmsd>  (74) 
1.08

>  <rmsd>  (74) 
271.17

>  <cluster>  (74) 
7

$$$$
KHESEQRZXKFTOB-IGPOTQGWNA-O
     RDKit          3D

 70 74  0  0  0  0  0  0  0  0999 V2000
  143.8563   79.9333  222.7863 H   0  0  0  0  0  0  0  0  0  0  0  0
  142.7740   79.9360  222.9830 C   0  0  0  0  0  0  0  0  0  0  0  0
  142.0640   81.1400  222.9670 C   0  0  0  0  0  0  0  0  0  0  0  0
  142.5882   82.0847  222.7601 H   0  0  0  0  0  0  0  0  0  0  0  0
  140.6870   81.1440  223.2140 C   0  0  0  0  0  0  0  0  0  0  0  0
  140.1324   82.0939  223.2087 H   0  0  0  0  0  0  0  0  0  0  0  0
  140.0090   79.9390  223.4690 C   0  0  0  0  0  0  0  0  0  0  0  0
  138.5760   79.9330  223.6390 N   0  0  0  0  0  0  0  0  0  0  0  0
  137.7610   79.2840  222.6300 C   0  0  0  0  0  0  0  0  0  0  0  0
  138.1080   78.0270  222.2500 N   0  0  0  0  0  0  0  0  0  0  0  0
  137.4200   77.3130  221.3260 C   0  0  0  0  0  0  0  0  0  0  0  0
  137.8410   76.1380  220.9540 N   0  0  0  0  0  0  0  0  0  0  0  0
  139.2290   75.7930  220.8170 C   0  0  0  0  0  0  0  0  0  0  0  0
  139.8310   74.8570  221.6740 C   0  0  0  0  0  0  0  0  0  0  0  0
  139.2272   74.3461  222.4385 H   0  0  0  0  0  0  0  0  0  0  0  0
  141.1920   74.5730  221.5590 C   0  0  0  0  0  0  0  0  0  0  0  0
  141.6566   73.8316  222.2257 H   0  0  0  0  0  0  0  0  0  0  0  0
  141.9660   75.2290  220.5980 C   0  0  0  0  0  0  0  0  0  0  0  0
  143.0399   75.0058  220.5152 H   0  0  0  0  0  0  0  0  0  0  0  0
  141.3800   76.1720  219.7370 C   0  0  0  0  0  0  0  0  0  0  0  0
  142.2240   76.9000  218.7600 C   0  0  0  0  0  0  0  0  0  0  0  0
  142.7330   76.2610  217.7970 O   0  0  0  0  0  0  0  0  0  0  0  0
  142.4960   78.3180  218.9040 N   0  0  2  0  0  0  0  0  0  0  0  0
  143.5130   78.4470  219.1130 H   0  0  0  0  0  0  0  0  0  0  0  0
  141.7330   78.8920  220.0510 C   0  0  0  0  0  0  0  0  0  0  0  0
  142.4091   79.5332  220.6356 H   0  0  0  0  0  0  0  0  0  0  0  0
  141.3494   78.0493  220.6448 H   0  0  0  0  0  0  0  0  0  0  0  0
  140.5240   79.7300  219.6100 C   0  0  0  0  0  0  0  0  0  0  0  0
  140.0318   80.1443  220.5022 H   0  0  0  0  0  0  0  0  0  0  0  0
  139.8373   79.0773  219.0512 H   0  0  0  0  0  0  0  0  0  0  0  0
  140.9480   80.8940  218.6840 C   0  0  1  0  0  0  0  0  0  0  0  0
  140.0945   81.1129  218.0255 H   0  0  0  0  0  0  0  0  0  0  0  0
  141.2890   82.0300  219.4660 O   0  0  0  0  0  0  0  0  0  0  0  0
  140.1740   82.5280  220.1810 C   0  0  0  0  0  0  0  0  0  0  0  0
  139.7849   81.7389  220.8413 H   0  0  0  0  0  0  0  0  0  0  0  0
  139.3991   82.8368  219.4639 H   0  0  0  0  0  0  0  0  0  0  0  0
  140.5780   83.7340  221.0230 C   0  0  0  0  0  0  0  0  0  0  0  0
  140.4933   83.4811  222.0902 H   0  0  0  0  0  0  0  0  0  0  0  0
  141.6177   84.0100  220.7930 H   0  0  0  0  0  0  0  0  0  0  0  0
  139.9144   84.5806  220.7930 H   0  0  0  0  0  0  0  0  0  0  0  0
  142.1640   80.5230  217.8060 C   0  0  0  0  0  0  0  0  0  0  0  0
  143.0820   80.8825  218.2939 H   0  0  0  0  0  0  0  0  0  0  0  0
  142.0389   80.9945  216.8201 H   0  0  0  0  0  0  0  0  0  0  0  0
  142.2630   79.0070  217.6100 C   0  0  0  0  0  0  0  0  0  0  0  0
  143.0982   78.7860  216.9292 H   0  0  0  0  0  0  0  0  0  0  0  0
  141.3146   78.6455  217.1860 H   0  0  0  0  0  0  0  0  0  0  0  0
  139.9980   76.4230  219.8310 C   0  0  0  0  0  0  0  0  0  0  0  0
  139.5194   77.1182  219.1256 H   0  0  0  0  0  0  0  0  0  0  0  0
  136.3210   77.8580  220.7470 N   0  0  0  0  0  0  0  0  0  0  0  0
  135.7870   77.3200  220.0260 H   0  0  0  0  0  0  0  0  0  0  0  0
  135.9110   79.1100  221.0800 C   0  0  0  0  0  0  0  0  0  0  0  0
  135.0145   79.5319  220.6022 H   0  0  0  0  0  0  0  0  0  0  0  0
  136.6180   79.8760  222.0290 C   0  0  0  0  0  0  0  0  0  0  0  0
  136.1780   81.2210  222.3240 N   0  0  0  0  0  0  0  0  0  0  0  0
  136.0860   82.2220  221.2580 C   0  0  0  0  0  0  0  0  0  0  0  0
  135.9939   83.2239  221.7027 H   0  0  0  0  0  0  0  0  0  0  0  0
  136.9919   82.1790  220.6355 H   0  0  0  0  0  0  0  0  0  0  0  0
  135.2031   82.0146  220.6355 H   0  0  0  0  0  0  0  0  0  0  0  0
  136.1160   81.6810  223.6830 C   0  0  0  0  0  0  0  0  0  0  0  0
  134.9950   81.8820  224.2230 O   0  0  0  0  0  0  0  0  0  0  0  0
  137.3580   81.8830  224.4900 C   0  0  0  0  0  0  0  0  0  0  0  0
  138.0685   82.4886  223.9082 H   0  0  0  0  0  0  0  0  0  0  0  0
  137.0845   82.3939  225.4250 H   0  0  0  0  0  0  0  0  0  0  0  0
  138.0140   80.5510  224.8440 C   0  0  0  0  0  0  0  0  0  0  0  0
  138.8186   80.7238  225.5739 H   0  0  0  0  0  0  0  0  0  0  0  0
  137.2573   79.8791  225.2751 H   0  0  0  0  0  0  0  0  0  0  0  0
  140.7310   78.7350  223.4900 C   0  0  0  0  0  0  0  0  0  0  0  0
  140.2110   77.7880  223.6968 H   0  0  0  0  0  0  0  0  0  0  0  0
  142.1090   78.7350  223.2490 C   0  0  0  0  0  0  0  0  0  0  0  0
  142.6701   77.7891  223.2687 H   0  0  0  0  0  0  0  0  0  0  0  0
  1  2  1  0
  2  3  2  0
  3  4  1  0
  3  5  1  0
  5  6  1  0
  5  7  2  0
  7  8  1  0
  8  9  1  0
  9 10  2  0
 10 11  1  0
 11 12  2  0
 12 13  1  0
 13 14  2  0
 14 15  1  0
 14 16  1  0
 16 17  1  0
 16 18  2  0
 18 19  1  0
 18 20  1  0
 20 21  1  0
 21 22  2  0
 21 23  1  0
 23 24  1  6
 23 25  1  0
 25 26  1  0
 25 27  1  0
 25 28  1  0
 28 29  1  0
 28 30  1  0
 28 31  1  0
 31 32  1  1
 31 33  1  0
 33 34  1  0
 34 35  1  0
 34 36  1  0
 34 37  1  0
 37 38  1  0
 37 39  1  0
 37 40  1  0
 31 41  1  0
 41 42  1  0
 41 43  1  0
 41 44  1  0
 44 45  1  0
 44 46  1  0
 20 47  2  0
 47 48  1  0
 11 49  1  0
 49 50  1  0
 49 51  1  0
 51 52  1  0
 51 53  2  0
 53 54  1  0
 54 55  1  0
 55 56  1  0
 55 57  1  0
 55 58  1  0
 54 59  1  0
 59 60  2  0
 59 61  1  0
 61 62  1  0
 61 63  1  0
 61 64  1  0
 64 65  1  0
 64 66  1  0
  7 67  1  0
 67 68  1  0
 67 69  2  0
 69 70  1  0
 69  2  1  0
 64  8  1  0
 53  9  1  0
 47 13  1  0
 44 23  1  0
M  CHG  1  23   1
M  END
>  <UniqueID>  (75) 
24

>  <SMILES>  (75) 
CCOC1CC[NH+](C(=O)c2cccc(/N=c3\nc4c(c[nH]3)N(C)C(=O)CCN4c3ccccc3)c2)CC1

>  <Energy>  (75) 
113.05173742060987

>  <Genealogy>  (75) 
CCOC1CC[NH+](C(=O)c2cccc(N=c3nc4c(c[nH]3)N(C)C(=O)CCN4c3ccccc3)c2)CC1 (protonated)
CCOC1CC[NH+](C(=O)c2cccc(/N=c3\nc4c(c[nH]3)N(C)C(=O)CCN4c3ccccc3)c2)CC1 (cis-trans isomerization)
CCOC1CC[NH+](C(=O)c2cccc(/N=c3\nc4c(c[nH]3)N(C)C(=O)CCN4c3ccccc3)c2)CC1 (3D coordinates assigned)
CCOC1CC[NH+](C(=O)c2cccc(/N=c3\nc4c(c[nH]3)N(C)C(=O)CCN4c3ccccc3)c2)CC1 (nonaromatic ring conformer: 113.05173742060987 kcal/mol)

>  <smiles>  (75) 
CCOC1CCN(C(=O)c2cccc(N=c3nc4c(c[nH]3)N(C)C(=O)CCN4c3ccccc3)c2)CC1

>  <score_type>  (75) 
oracle

>  <origin>  (75) 
autodockgpu

>  <m_score__min__energy>  (75) 
-6.8300000000000001

>  <m_primary>  (75) 
energy

>  <meeko>  (75) 
{"free_energy": -4.56, "intermolecular_energy": -8.14, "internal_energy": -3.32, "cluster_size": 4, "cluster_id": 4, "rank_in_cluster": 4}

>  <energy>  (75) 
-4.41

>  <cluster_rmsd>  (75) 
1.87

>  <rmsd>  (75) 
270.96

>  <cluster>  (75) 
7

$$$$
KHESEQRZXKFTOB-IGPOTQGWNA-O
     RDKit          3D

 70 74  0  0  0  0  0  0  0  0999 V2000
  142.3287   81.8972  224.0005 H   0  0  0  0  0  0  0  0  0  0  0  0
  142.1700   81.0640  223.3000 C   0  0  0  0  0  0  0  0  0  0  0  0
  142.1390   79.7490  223.7730 C   0  0  0  0  0  0  0  0  0  0  0  0
  142.2768   79.5473  224.8455 H   0  0  0  0  0  0  0  0  0  0  0  0
  141.9330   78.6900  222.8840 C   0  0  0  0  0  0  0  0  0  0  0  0
  141.9156   77.6561  223.2590 H   0  0  0  0  0  0  0  0  0  0  0  0
  141.7480   78.9400  221.5130 C   0  0  0  0  0  0  0  0  0  0  0  0
  141.4520   77.8550  220.6090 N   0  0  0  0  0  0  0  0  0  0  0  0
  140.7590   76.6910  221.1270 C   0  0  0  0  0  0  0  0  0  0  0  0
  139.6320   76.9000  221.8570 N   0  0  0  0  0  0  0  0  0  0  0  0
  138.8910   75.8950  222.3840 C   0  0  0  0  0  0  0  0  0  0  0  0
  137.8590   76.1600  223.1320 N   0  0  0  0  0  0  0  0  0  0  0  0
  137.0370   77.3270  222.9750 C   0  0  0  0  0  0  0  0  0  0  0  0
  135.6700   77.2150  222.6700 C   0  0  0  0  0  0  0  0  0  0  0  0
  135.2061   76.2208  222.5894 H   0  0  0  0  0  0  0  0  0  0  0  0
  134.8990   78.3600  222.4690 C   0  0  0  0  0  0  0  0  0  0  0  0
  133.8272   78.2674  222.2394 H   0  0  0  0  0  0  0  0  0  0  0  0
  135.4870   79.6250  222.5590 C   0  0  0  0  0  0  0  0  0  0  0  0
  134.8758   80.5248  222.3956 H   0  0  0  0  0  0  0  0  0  0  0  0
  136.8540   79.7540  222.8570 C   0  0  0  0  0  0  0  0  0  0  0  0
  137.4750   81.0990  222.8930 C   0  0  0  0  0  0  0  0  0  0  0  0
  138.0050   81.5550  221.8410 O   0  0  0  0  0  0  0  0  0  0  0  0
  137.5080   81.8840  224.1130 N   0  0  2  0  0  0  0  0  0  0  0  0
  138.4370   82.3610  224.1810 H   0  0  0  0  0  0  0  0  0  0  0  0
  137.3720   81.0080  225.3130 C   0  0  0  0  0  0  0  0  0  0  0  0
  138.1191   81.3170  226.0589 H   0  0  0  0  0  0  0  0  0  0  0  0
  137.5266   79.9705  224.9819 H   0  0  0  0  0  0  0  0  0  0  0  0
  135.9790   81.0820  225.9560 C   0  0  0  0  0  0  0  0  0  0  0  0
  135.9623   80.4380  226.8476 H   0  0  0  0  0  0  0  0  0  0  0  0
  135.2389   80.7450  225.2152 H   0  0  0  0  0  0  0  0  0  0  0  0
  135.6230   82.5280  226.3740 C   0  0  1  0  0  0  0  0  0  0  0  0
  134.5274   82.6176  226.3334 H   0  0  0  0  0  0  0  0  0  0  0  0
  136.1030   82.7810  227.6870 O   0  0  0  0  0  0  0  0  0  0  0  0
  135.0540   82.7800  228.6370 C   0  0  0  0  0  0  0  0  0  0  0  0
  134.1125   82.5078  228.1375 H   0  0  0  0  0  0  0  0  0  0  0  0
  134.9704   83.7842  229.0782 H   0  0  0  0  0  0  0  0  0  0  0  0
  135.3440   81.7740  229.7460 C   0  0  0  0  0  0  0  0  0  0  0  0
  135.2048   82.2568  230.7246 H   0  0  0  0  0  0  0  0  0  0  0  0
  134.6552   80.9211  229.6567 H   0  0  0  0  0  0  0  0  0  0  0  0
  136.3812   81.4186  229.6567 H   0  0  0  0  0  0  0  0  0  0  0  0
  136.2380   83.5750  225.4190 C   0  0  0  0  0  0  0  0  0  0  0  0
  137.1880   83.9329  225.8427 H   0  0  0  0  0  0  0  0  0  0  0  0
  135.5257   84.4058  225.3075 H   0  0  0  0  0  0  0  0  0  0  0  0
  136.5030   82.9740  224.0350 C   0  0  0  0  0  0  0  0  0  0  0  0
  136.8784   83.7625  223.3661 H   0  0  0  0  0  0  0  0  0  0  0  0
  135.5619   82.5565  223.6477 H   0  0  0  0  0  0  0  0  0  0  0  0
  137.6160   78.5960  223.0990 C   0  0  0  0  0  0  0  0  0  0  0  0
  138.6735   78.6882  223.3875 H   0  0  0  0  0  0  0  0  0  0  0  0
  139.2700   74.6080  222.1750 N   0  0  0  0  0  0  0  0  0  0  0  0
  138.7110   73.8250  222.5840 H   0  0  0  0  0  0  0  0  0  0  0  0
  140.3830   74.3230  221.4510 C   0  0  0  0  0  0  0  0  0  0  0  0
  140.6698   73.2734  221.2894 H   0  0  0  0  0  0  0  0  0  0  0  0
  141.1770   75.3520  220.9030 C   0  0  0  0  0  0  0  0  0  0  0  0
  142.3780   75.0100  220.1770 N   0  0  0  0  0  0  0  0  0  0  0  0
  143.4390   74.2320  220.8230 C   0  0  0  0  0  0  0  0  0  0  0  0
  143.3358   74.3077  221.9155 H   0  0  0  0  0  0  0  0  0  0  0  0
  143.3576   73.1779  220.5191 H   0  0  0  0  0  0  0  0  0  0  0  0
  144.4198   74.6265  220.5191 H   0  0  0  0  0  0  0  0  0  0  0  0
  142.6890   75.6680  218.9400 C   0  0  0  0  0  0  0  0  0  0  0  0
  142.6250   75.0260  217.8580 O   0  0  0  0  0  0  0  0  0  0  0  0
  143.0430   77.1200  218.9020 C   0  0  0  0  0  0  0  0  0  0  0  0
  143.8223   77.3178  219.6527 H   0  0  0  0  0  0  0  0  0  0  0  0
  143.4034   77.3614  217.8911 H   0  0  0  0  0  0  0  0  0  0  0  0
  141.8330   77.9970  219.2010 C   0  0  0  0  0  0  0  0  0  0  0  0
  142.0840   79.0480  218.9949 H   0  0  0  0  0  0  0  0  0  0  0  0
  140.9922   77.6847  218.5642 H   0  0  0  0  0  0  0  0  0  0  0  0
  141.7880   80.2630  221.0440 C   0  0  0  0  0  0  0  0  0  0  0  0
  141.6529   80.4687  219.9719 H   0  0  0  0  0  0  0  0  0  0  0  0
  141.9990   81.3200  221.9350 C   0  0  0  0  0  0  0  0  0  0  0  0
  142.0306   82.3544  221.5622 H   0  0  0  0  0  0  0  0  0  0  0  0
  1  2  1  0
  2  3  2  0
  3  4  1  0
  3  5  1  0
  5  6  1  0
  5  7  2  0
  7  8  1  0
  8  9  1  0
  9 10  2  0
 10 11  1  0
 11 12  2  0
 12 13  1  0
 13 14  2  0
 14 15  1  0
 14 16  1  0
 16 17  1  0
 16 18  2  0
 18 19  1  0
 18 20  1  0
 20 21  1  0
 21 22  2  0
 21 23  1  0
 23 24  1  6
 23 25  1  0
 25 26  1  0
 25 27  1  0
 25 28  1  0
 28 29  1  0
 28 30  1  0
 28 31  1  0
 31 32  1  6
 31 33  1  0
 33 34  1  0
 34 35  1  0
 34 36  1  0
 34 37  1  0
 37 38  1  0
 37 39  1  0
 37 40  1  0
 31 41  1  0
 41 42  1  0
 41 43  1  0
 41 44  1  0
 44 45  1  0
 44 46  1  0
 20 47  2  0
 47 48  1  0
 11 49  1  0
 49 50  1  0
 49 51  1  0
 51 52  1  0
 51 53  2  0
 53 54  1  0
 54 55  1  0
 55 56  1  0
 55 57  1  0
 55 58  1  0
 54 59  1  0
 59 60  2  0
 59 61  1  0
 61 62  1  0
 61 63  1  0
 61 64  1  0
 64 65  1  0
 64 66  1  0
  7 67  1  0
 67 68  1  0
 67 69  2  0
 69 70  1  0
 69  2  1  0
 64  8  1  0
 53  9  1  0
 47 13  1  0
 44 23  1  0
M  CHG  1  23   1
M  END
>  <UniqueID>  (76) 
24

>  <SMILES>  (76) 
CCOC1CC[NH+](C(=O)c2cccc(/N=c3\nc4c(c[nH]3)N(C)C(=O)CCN4c3ccccc3)c2)CC1

>  <Energy>  (76) 
113.05173742060987

>  <Genealogy>  (76) 
CCOC1CC[NH+](C(=O)c2cccc(N=c3nc4c(c[nH]3)N(C)C(=O)CCN4c3ccccc3)c2)CC1 (protonated)
CCOC1CC[NH+](C(=O)c2cccc(/N=c3\nc4c(c[nH]3)N(C)C(=O)CCN4c3ccccc3)c2)CC1 (cis-trans isomerization)
CCOC1CC[NH+](C(=O)c2cccc(/N=c3\nc4c(c[nH]3)N(C)C(=O)CCN4c3ccccc3)c2)CC1 (3D coordinates assigned)
CCOC1CC[NH+](C(=O)c2cccc(/N=c3\nc4c(c[nH]3)N(C)C(=O)CCN4c3ccccc3)c2)CC1 (nonaromatic ring conformer: 113.05173742060987 kcal/mol)

>  <smiles>  (76) 
CCOC1CCN(C(=O)c2cccc(N=c3nc4c(c[nH]3)N(C)C(=O)CCN4c3ccccc3)c2)CC1

>  <score_type>  (76) 
oracle

>  <origin>  (76) 
autodockgpu

>  <m_score__min__energy>  (76) 
-6.8300000000000001

>  <m_primary>  (76) 
energy

>  <meeko>  (76) 
{"free_energy": -4.72, "intermolecular_energy": -8.3, "internal_energy": -2.25, "cluster_size": 2, "cluster_id": 3, "rank_in_cluster": 2}

>  <energy>  (76) 
-4.29

>  <cluster_rmsd>  (76) 
1.35

>  <rmsd>  (76) 
270.69

>  <cluster>  (76) 
7

$$$$
KHESEQRZXKFTOB-IGPOTQGWNA-O
     RDKit          3D

 70 74  0  0  0  0  0  0  0  0999 V2000
  141.3584   78.0982  224.6964 H   0  0  0  0  0  0  0  0  0  0  0  0
  141.3830   78.8740  223.9170 C   0  0  0  0  0  0  0  0  0  0  0  0
  142.5450   79.0740  223.1670 C   0  0  0  0  0  0  0  0  0  0  0  0
  143.4353   78.4568  223.3579 H   0  0  0  0  0  0  0  0  0  0  0  0
  142.5770   80.0580  222.1740 C   0  0  0  0  0  0  0  0  0  0  0  0
  143.4958   80.2177  221.5907 H   0  0  0  0  0  0  0  0  0  0  0  0
  141.4400   80.8440  221.9180 C   0  0  0  0  0  0  0  0  0  0  0  0
  141.4450   81.8010  220.8380 N   0  0  0  0  0  0  0  0  0  0  0  0
  141.6990   81.3240  219.4910 C   0  0  0  0  0  0  0  0  0  0  0  0
  142.1880   80.0640  219.3490 N   0  0  0  0  0  0  0  0  0  0  0  0
  142.4550   79.5020  218.1450 C   0  0  0  0  0  0  0  0  0  0  0  0
  142.9850   78.3150  218.0750 N   0  0  0  0  0  0  0  0  0  0  0  0
  142.7350   77.2720  219.0300 C   0  0  0  0  0  0  0  0  0  0  0  0
  143.6870   76.2660  219.2690 C   0  0  0  0  0  0  0  0  0  0  0  0
  144.6566   76.2942  218.7502 H   0  0  0  0  0  0  0  0  0  0  0  0
  143.4060   75.2320  220.1620 C   0  0  0  0  0  0  0  0  0  0  0  0
  144.1578   74.4520  220.3528 H   0  0  0  0  0  0  0  0  0  0  0  0
  142.1710   75.1850  220.8150 C   0  0  0  0  0  0  0  0  0  0  0  0
  141.9532   74.3649  221.5150 H   0  0  0  0  0  0  0  0  0  0  0  0
  141.2060   76.1800  220.5820 C   0  0  0  0  0  0  0  0  0  0  0  0
  139.8810   76.0870  221.2370 C   0  0  0  0  0  0  0  0  0  0  0  0
  139.2890   74.9710  221.2610 O   0  0  0  0  0  0  0  0  0  0  0  0
  139.2440   77.2500  221.8250 N   0  0  2  0  0  0  0  0  0  0  0  0
  139.9790   77.8540  222.2600 H   0  0  0  0  0  0  0  0  0  0  0  0
  138.3030   76.8490  222.9110 C   0  0  0  0  0  0  0  0  0  0  0  0
  138.4619   77.5116  223.7745 H   0  0  0  0  0  0  0  0  0  0  0  0
  138.5127   75.7972  223.1554 H   0  0  0  0  0  0  0  0  0  0  0  0
  136.8280   76.9370  222.4920 C   0  0  0  0  0  0  0  0  0  0  0  0
  136.1961   76.6583  223.3482 H   0  0  0  0  0  0  0  0  0  0  0  0
  136.6680   76.2510  221.6471 H   0  0  0  0  0  0  0  0  0  0  0  0
  136.4520   78.3670  222.0340 C   0  0  1  0  0  0  0  0  0  0  0  0
  135.6312   78.2713  221.3080 H   0  0  0  0  0  0  0  0  0  0  0  0
  136.0480   79.1400  223.1560 O   0  0  0  0  0  0  0  0  0  0  0  0
  136.6180   80.4350  223.1330 C   0  0  0  0  0  0  0  0  0  0  0  0
  135.8512   81.1633  222.8302 H   0  0  0  0  0  0  0  0  0  0  0  0
  137.4525   80.4451  222.4164 H   0  0  0  0  0  0  0  0  0  0  0  0
  137.1470   80.8070  224.5140 C   0  0  0  0  0  0  0  0  0  0  0  0
  136.5059   80.3562  225.2859 H   0  0  0  0  0  0  0  0  0  0  0  0
  138.1750   80.4319  224.6262 H   0  0  0  0  0  0  0  0  0  0  0  0
  137.1417   81.9013  224.6262 H   0  0  0  0  0  0  0  0  0  0  0  0
  137.6350   79.0840  221.3480 C   0  0  0  0  0  0  0  0  0  0  0  0
  138.1557   79.7071  222.0900 H   0  0  0  0  0  0  0  0  0  0  0  0
  137.2391   79.7036  220.5298 H   0  0  0  0  0  0  0  0  0  0  0  0
  138.6270   78.0770  220.7570 C   0  0  0  0  0  0  0  0  0  0  0  0
  139.4182   78.6228  220.2221 H   0  0  0  0  0  0  0  0  0  0  0  0
  138.0844   77.4128  220.0682 H   0  0  0  0  0  0  0  0  0  0  0  0
  141.5130   77.2430  219.7110 C   0  0  0  0  0  0  0  0  0  0  0  0
  140.7870   78.0564  219.5649 H   0  0  0  0  0  0  0  0  0  0  0  0
  142.2200   80.2120  217.0130 N   0  0  0  0  0  0  0  0  0  0  0  0
  142.4300   79.7920  216.0780 H   0  0  0  0  0  0  0  0  0  0  0  0
  141.7280   81.4770  217.0770 C   0  0  0  0  0  0  0  0  0  0  0  0
  141.5407   82.0333  216.1467 H   0  0  0  0  0  0  0  0  0  0  0  0
  141.4540   82.0870  218.3180 C   0  0  0  0  0  0  0  0  0  0  0  0
  140.9750   83.4500  218.3480 N   0  0  0  0  0  0  0  0  0  0  0  0
  141.8170   84.5430  217.8570 C   0  0  0  0  0  0  0  0  0  0  0  0
  142.2400   85.0921  218.7111 H   0  0  0  0  0  0  0  0  0  0  0  0
  142.6332   84.1308  217.2455 H   0  0  0  0  0  0  0  0  0  0  0  0
  141.2102   85.2270  217.2455 H   0  0  0  0  0  0  0  0  0  0  0  0
  139.8150   83.7930  219.1210 C   0  0  0  0  0  0  0  0  0  0  0  0
  138.7880   84.2380  218.5430 O   0  0  0  0  0  0  0  0  0  0  0  0
  139.7830   83.5890  220.6020 C   0  0  0  0  0  0  0  0  0  0  0  0
  139.4566   84.5225  221.0836 H   0  0  0  0  0  0  0  0  0  0  0  0
  139.0842   82.7680  220.8204 H   0  0  0  0  0  0  0  0  0  0  0  0
  141.1560   83.2040  221.1480 C   0  0  0  0  0  0  0  0  0  0  0  0
  141.9232   83.8440  220.6878 H   0  0  0  0  0  0  0  0  0  0  0  0
  141.1610   83.3404  222.2395 H   0  0  0  0  0  0  0  0  0  0  0  0
  140.2780   80.6410  222.6810 C   0  0  0  0  0  0  0  0  0  0  0  0
  139.3856   81.2564  222.4941 H   0  0  0  0  0  0  0  0  0  0  0  0
  140.2510   79.6600  223.6770 C   0  0  0  0  0  0  0  0  0  0  0  0
  139.3389   79.5062  224.2723 H   0  0  0  0  0  0  0  0  0  0  0  0
  1  2  1  0
  2  3  2  0
  3  4  1  0
  3  5  1  0
  5  6  1  0
  5  7  2  0
  7  8  1  0
  8  9  1  0
  9 10  2  0
 10 11  1  0
 11 12  2  0
 12 13  1  0
 13 14  2  0
 14 15  1  0
 14 16  1  0
 16 17  1  0
 16 18  2  0
 18 19  1  0
 18 20  1  0
 20 21  1  0
 21 22  2  0
 21 23  1  0
 23 24  1  6
 23 25  1  0
 25 26  1  0
 25 27  1  0
 25 28  1  0
 28 29  1  0
 28 30  1  0
 28 31  1  0
 31 32  1  1
 31 33  1  0
 33 34  1  0
 34 35  1  0
 34 36  1  0
 34 37  1  0
 37 38  1  0
 37 39  1  0
 37 40  1  0
 31 41  1  0
 41 42  1  0
 41 43  1  0
 41 44  1  0
 44 45  1  0
 44 46  1  0
 20 47  2  0
 47 48  1  0
 11 49  1  0
 49 50  1  0
 49 51  1  0
 51 52  1  0
 51 53  2  0
 53 54  1  0
 54 55  1  0
 55 56  1  0
 55 57  1  0
 55 58  1  0
 54 59  1  0
 59 60  2  0
 59 61  1  0
 61 62  1  0
 61 63  1  0
 61 64  1  0
 64 65  1  0
 64 66  1  0
  7 67  1  0
 67 68  1  0
 67 69  2  0
 69 70  1  0
 69  2  1  0
 64  8  1  0
 53  9  1  0
 47 13  1  0
 44 23  1  0
M  CHG  1  23   1
M  END
>  <UniqueID>  (77) 
24

>  <SMILES>  (77) 
CCOC1CC[NH+](C(=O)c2cccc(/N=c3\nc4c(c[nH]3)N(C)C(=O)CCN4c3ccccc3)c2)CC1

>  <Energy>  (77) 
113.05173742060987

>  <Genealogy>  (77) 
CCOC1CC[NH+](C(=O)c2cccc(N=c3nc4c(c[nH]3)N(C)C(=O)CCN4c3ccccc3)c2)CC1 (protonated)
CCOC1CC[NH+](C(=O)c2cccc(/N=c3\nc4c(c[nH]3)N(C)C(=O)CCN4c3ccccc3)c2)CC1 (cis-trans isomerization)
CCOC1CC[NH+](C(=O)c2cccc(/N=c3\nc4c(c[nH]3)N(C)C(=O)CCN4c3ccccc3)c2)CC1 (3D coordinates assigned)
CCOC1CC[NH+](C(=O)c2cccc(/N=c3\nc4c(c[nH]3)N(C)C(=O)CCN4c3ccccc3)c2)CC1 (nonaromatic ring conformer: 113.05173742060987 kcal/mol)

>  <smiles>  (77) 
CCOC1CCN(C(=O)c2cccc(N=c3nc4c(c[nH]3)N(C)C(=O)CCN4c3ccccc3)c2)CC1

>  <score_type>  (77) 
oracle

>  <origin>  (77) 
autodockgpu

>  <m_score__min__energy>  (77) 
-6.8300000000000001

>  <m_primary>  (77) 
energy

>  <meeko>  (77) 
{"free_energy": -4.59, "intermolecular_energy": -8.17, "internal_energy": -3.08, "cluster_size": 4, "cluster_id": 7, "rank_in_cluster": 2}

>  <energy>  (77) 
-4.51

>  <cluster_rmsd>  (77) 
0.0

>  <rmsd>  (77) 
270.85

>  <cluster>  (77) 
8

$$$$
KHESEQRZXKFTOB-IGPOTQGWNA-O
     RDKit          3D

 70 74  0  0  0  0  0  0  0  0999 V2000
  140.9236   78.4333  215.6057 H   0  0  0  0  0  0  0  0  0  0  0  0
  141.2540   77.8670  216.4890 C   0  0  0  0  0  0  0  0  0  0  0  0
  140.3100   77.2700  217.3300 C   0  0  0  0  0  0  0  0  0  0  0  0
  139.2368   77.3690  217.1099 H   0  0  0  0  0  0  0  0  0  0  0  0
  140.7300   76.5470  218.4510 C   0  0  0  0  0  0  0  0  0  0  0  0
  139.9845   76.0847  219.1147 H   0  0  0  0  0  0  0  0  0  0  0  0
  142.1000   76.4080  218.7340 C   0  0  0  0  0  0  0  0  0  0  0  0
  142.5350   75.5920  219.8410 N   0  0  0  0  0  0  0  0  0  0  0  0
  141.5320   74.9080  220.6350 C   0  0  0  0  0  0  0  0  0  0  0  0
  140.5400   75.6590  221.1820 N   0  0  0  0  0  0  0  0  0  0  0  0
  139.5400   75.1360  221.9320 C   0  0  0  0  0  0  0  0  0  0  0  0
  138.6550   75.9150  222.4860 N   0  0  0  0  0  0  0  0  0  0  0  0
  138.8640   77.3150  222.7270 C   0  0  0  0  0  0  0  0  0  0  0  0
  137.7800   78.1820  222.9480 C   0  0  0  0  0  0  0  0  0  0  0  0
  136.7558   77.7820  222.9782 H   0  0  0  0  0  0  0  0  0  0  0  0
  137.9980   79.5470  223.1290 C   0  0  0  0  0  0  0  0  0  0  0  0
  137.1466   80.2198  223.3091 H   0  0  0  0  0  0  0  0  0  0  0  0
  139.2960   80.0620  223.0820 C   0  0  0  0  0  0  0  0  0  0  0  0
  139.4623   81.1402  223.2225 H   0  0  0  0  0  0  0  0  0  0  0  0
  140.3910   79.2090  222.8560 C   0  0  0  0  0  0  0  0  0  0  0  0
  141.7560   79.7770  222.7520 C   0  0  0  0  0  0  0  0  0  0  0  0
  142.4890   79.7940  223.7810 O   0  0  0  0  0  0  0  0  0  0  0  0
  142.2510   80.3320  221.5070 N   0  0  2  0  0  0  0  0  0  0  0  0
  143.2970   80.3390  221.5330 H   0  0  0  0  0  0  0  0  0  0  0  0
  141.8060   81.7470  221.3420 C   0  0  0  0  0  0  0  0  0  0  0  0
  142.6644   82.3474  221.0063 H   0  0  0  0  0  0  0  0  0  0  0  0
  141.4225   82.0868  222.3154 H   0  0  0  0  0  0  0  0  0  0  0  0
  140.6690   81.9040  220.3200 C   0  0  0  0  0  0  0  0  0  0  0  0
  140.4163   82.9706  220.2276 H   0  0  0  0  0  0  0  0  0  0  0  0
  139.8034   81.3257  220.6754 H   0  0  0  0  0  0  0  0  0  0  0  0
  141.0770   81.3620  218.9300 C   0  0  1  0  0  0  0  0  0  0  0  0
  140.1569   81.0282  218.4280 H   0  0  0  0  0  0  0  0  0  0  0  0
  141.7180   82.3880  218.1840 O   0  0  0  0  0  0  0  0  0  0  0  0
  142.6230   81.8580  217.2340 C   0  0  0  0  0  0  0  0  0  0  0  0
  142.1145   81.7617  216.2633 H   0  0  0  0  0  0  0  0  0  0  0  0
  142.9668   80.8720  217.5798 H   0  0  0  0  0  0  0  0  0  0  0  0
  143.8300   82.7770  217.0800 C   0  0  0  0  0  0  0  0  0  0  0  0
  144.2036   83.0614  218.0748 H   0  0  0  0  0  0  0  0  0  0  0  0
  144.6227   82.2517  216.5271 H   0  0  0  0  0  0  0  0  0  0  0  0
  143.5345   83.6809  216.5271 H   0  0  0  0  0  0  0  0  0  0  0  0
  142.0420   80.1610  219.0370 C   0  0  0  0  0  0  0  0  0  0  0  0
  143.0766   80.5229  218.9440 H   0  0  0  0  0  0  0  0  0  0  0  0
  141.8048   79.4513  218.2308 H   0  0  0  0  0  0  0  0  0  0  0  0
  141.8840   79.4400  220.3790 C   0  0  0  0  0  0  0  0  0  0  0  0
  142.5382   78.5558  220.3918 H   0  0  0  0  0  0  0  0  0  0  0  0
  140.8316   79.1417  220.4954 H   0  0  0  0  0  0  0  0  0  0  0  0
  140.1670   77.8270  222.7150 C   0  0  0  0  0  0  0  0  0  0  0  0
  141.0212   77.1445  222.5945 H   0  0  0  0  0  0  0  0  0  0  0  0
  139.5030   73.7980  222.1520 N   0  0  0  0  0  0  0  0  0  0  0  0
  138.7420   73.3840  222.7370 H   0  0  0  0  0  0  0  0  0  0  0  0
  140.4600   72.9840  221.6340 C   0  0  0  0  0  0  0  0  0  0  0  0
  140.4098   71.9013  221.8216 H   0  0  0  0  0  0  0  0  0  0  0  0
  141.5160   73.5060  220.8600 C   0  0  0  0  0  0  0  0  0  0  0  0
  142.5400   72.6150  220.3640 N   0  0  0  0  0  0  0  0  0  0  0  0
  142.2260   71.2130  220.0740 C   0  0  0  0  0  0  0  0  0  0  0  0
  142.1026   70.6620  221.0181 H   0  0  0  0  0  0  0  0  0  0  0  0
  141.2934   71.1587  219.4932 H   0  0  0  0  0  0  0  0  0  0  0  0
  143.0463   70.7661  219.4932 H   0  0  0  0  0  0  0  0  0  0  0  0
  143.9230   72.9910  220.4340 C   0  0  0  0  0  0  0  0  0  0  0  0
  144.7090   72.3480  221.1810 O   0  0  0  0  0  0  0  0  0  0  0  0
  144.4670   74.1050  219.5980 C   0  0  0  0  0  0  0  0  0  0  0  0
  145.5658   74.0839  219.6452 H   0  0  0  0  0  0  0  0  0  0  0  0
  144.1172   73.9642  218.5646 H   0  0  0  0  0  0  0  0  0  0  0  0
  143.9750   75.4640  220.0900 C   0  0  0  0  0  0  0  0  0  0  0  0
  144.1682   75.5533  221.1692 H   0  0  0  0  0  0  0  0  0  0  0  0
  144.5087   76.2602  219.5504 H   0  0  0  0  0  0  0  0  0  0  0  0
  143.0420   77.0170  217.8880 C   0  0  0  0  0  0  0  0  0  0  0  0
  144.1161   76.9215  218.1051 H   0  0  0  0  0  0  0  0  0  0  0  0
  142.6190   77.7440  216.7710 C   0  0  0  0  0  0  0  0  0  0  0  0
  143.3607   78.2201  216.1128 H   0  0  0  0  0  0  0  0  0  0  0  0
  1  2  1  0
  2  3  2  0
  3  4  1  0
  3  5  1  0
  5  6  1  0
  5  7  2  0
  7  8  1  0
  8  9  1  0
  9 10  2  0
 10 11  1  0
 11 12  2  0
 12 13  1  0
 13 14  2  0
 14 15  1  0
 14 16  1  0
 16 17  1  0
 16 18  2  0
 18 19  1  0
 18 20  1  0
 20 21  1  0
 21 22  2  0
 21 23  1  0
 23 24  1  6
 23 25  1  0
 25 26  1  0
 25 27  1  0
 25 28  1  0
 28 29  1  0
 28 30  1  0
 28 31  1  0
 31 32  1  1
 31 33  1  0
 33 34  1  0
 34 35  1  0
 34 36  1  0
 34 37  1  0
 37 38  1  0
 37 39  1  0
 37 40  1  0
 31 41  1  0
 41 42  1  0
 41 43  1  0
 41 44  1  0
 44 45  1  0
 44 46  1  0
 20 47  2  0
 47 48  1  0
 11 49  1  0
 49 50  1  0
 49 51  1  0
 51 52  1  0
 51 53  2  0
 53 54  1  0
 54 55  1  0
 55 56  1  0
 55 57  1  0
 55 58  1  0
 54 59  1  0
 59 60  2  0
 59 61  1  0
 61 62  1  0
 61 63  1  0
 61 64  1  0
 64 65  1  0
 64 66  1  0
  7 67  1  0
 67 68  1  0
 67 69  2  0
 69 70  1  0
 69  2  1  0
 64  8  1  0
 53  9  1  0
 47 13  1  0
 44 23  1  0
M  CHG  1  23   1
M  END
>  <UniqueID>  (78) 
24

>  <SMILES>  (78) 
CCOC1CC[NH+](C(=O)c2cccc(/N=c3\nc4c(c[nH]3)N(C)C(=O)CCN4c3ccccc3)c2)CC1

>  <Energy>  (78) 
113.05173742060987

>  <Genealogy>  (78) 
CCOC1CC[NH+](C(=O)c2cccc(N=c3nc4c(c[nH]3)N(C)C(=O)CCN4c3ccccc3)c2)CC1 (protonated)
CCOC1CC[NH+](C(=O)c2cccc(/N=c3\nc4c(c[nH]3)N(C)C(=O)CCN4c3ccccc3)c2)CC1 (cis-trans isomerization)
CCOC1CC[NH+](C(=O)c2cccc(/N=c3\nc4c(c[nH]3)N(C)C(=O)CCN4c3ccccc3)c2)CC1 (3D coordinates assigned)
CCOC1CC[NH+](C(=O)c2cccc(/N=c3\nc4c(c[nH]3)N(C)C(=O)CCN4c3ccccc3)c2)CC1 (nonaromatic ring conformer: 113.05173742060987 kcal/mol)

>  <smiles>  (78) 
CCOC1CCN(C(=O)c2cccc(N=c3nc4c(c[nH]3)N(C)C(=O)CCN4c3ccccc3)c2)CC1

>  <score_type>  (78) 
oracle

>  <origin>  (78) 
autodockgpu

>  <m_score__min__energy>  (78) 
-6.8300000000000001

>  <m_primary>  (78) 
energy

>  <meeko>  (78) 
{"free_energy": -5.57, "intermolecular_energy": -9.15, "internal_energy": -2.54, "cluster_size": 3, "cluster_id": 2, "rank_in_cluster": 2}

>  <energy>  (78) 
-4.43

>  <cluster_rmsd>  (78) 
0.0

>  <rmsd>  (78) 
270.07

>  <cluster>  (78) 
9

$$$$
KHESEQRZXKFTOB-IGPOTQGWNA-O
     RDKit          3D

 70 74  0  0  0  0  0  0  0  0999 V2000
  141.4970   78.3450  225.0310 H   0  0  0  0  0  0  0  0  0  0  0  0
  141.4800   79.0140  224.1580 C   0  0  0  0  0  0  0  0  0  0  0  0
  140.3480   79.7910  223.8950 C   0  0  0  0  0  0  0  0  0  0  0  0
  139.4735   79.7310  224.5596 H   0  0  0  0  0  0  0  0  0  0  0  0
  140.3270   80.6440  222.7880 C   0  0  0  0  0  0  0  0  0  0  0  0
  139.4320   81.2487  222.5800 H   0  0  0  0  0  0  0  0  0  0  0  0
  141.4440   80.7330  221.9390 C   0  0  0  0  0  0  0  0  0  0  0  0
  141.4550   81.6750  220.8470 N   0  0  0  0  0  0  0  0  0  0  0  0
  141.7570   81.1880  219.5140 C   0  0  0  0  0  0  0  0  0  0  0  0
  142.2730   79.9360  219.4010 N   0  0  0  0  0  0  0  0  0  0  0  0
  142.5850   79.3650  218.2120 C   0  0  0  0  0  0  0  0  0  0  0  0
  143.1390   78.1870  218.1720 N   0  0  0  0  0  0  0  0  0  0  0  0
  142.8410   77.1330  219.1000 C   0  0  0  0  0  0  0  0  0  0  0  0
  143.7200   76.0500  219.2740 C   0  0  0  0  0  0  0  0  0  0  0  0
  144.6724   76.0235  218.7243 H   0  0  0  0  0  0  0  0  0  0  0  0
  143.3890   75.0090  220.1410 C   0  0  0  0  0  0  0  0  0  0  0  0
  144.0840   74.1677  220.2795 H   0  0  0  0  0  0  0  0  0  0  0  0
  142.1760   75.0330  220.8340 C   0  0  0  0  0  0  0  0  0  0  0  0
  141.9185   74.2078  221.5143 H   0  0  0  0  0  0  0  0  0  0  0  0
  141.2830   76.1050  220.6670 C   0  0  0  0  0  0  0  0  0  0  0  0
  139.9750   76.0890  221.3640 C   0  0  0  0  0  0  0  0  0  0  0  0
  139.8260   75.3310  222.3630 O   0  0  0  0  0  0  0  0  0  0  0  0
  138.8640   76.9010  220.9060 N   0  0  2  0  0  0  0  0  0  0  0  0
  138.0180   76.6680  221.4770 H   0  0  0  0  0  0  0  0  0  0  0  0
  138.5340   76.5980  219.4830 C   0  0  0  0  0  0  0  0  0  0  0  0
  137.4423   76.5007  219.3897 H   0  0  0  0  0  0  0  0  0  0  0  0
  139.0543   75.6662  219.2164 H   0  0  0  0  0  0  0  0  0  0  0  0
  139.0130   77.6850  218.5100 C   0  0  0  0  0  0  0  0  0  0  0  0
  138.7091   77.4098  217.4892 H   0  0  0  0  0  0  0  0  0  0  0  0
  140.1079   77.7583  218.5869 H   0  0  0  0  0  0  0  0  0  0  0  0
  138.4090   79.0660  218.8590 C   0  0  1  0  0  0  0  0  0  0  0  0
  139.1221   79.8299  218.5154 H   0  0  0  0  0  0  0  0  0  0  0  0
  137.1540   79.2180  218.2120 O   0  0  0  0  0  0  0  0  0  0  0  0
  136.9650   80.5390  217.7390 C   0  0  0  0  0  0  0  0  0  0  0  0
  136.6503   81.1817  218.5745 H   0  0  0  0  0  0  0  0  0  0  0  0
  136.1918   80.5308  216.9566 H   0  0  0  0  0  0  0  0  0  0  0  0
  138.2610   81.0820  217.1480 C   0  0  0  0  0  0  0  0  0  0  0  0
  138.9436   81.3680  217.9618 H   0  0  0  0  0  0  0  0  0  0  0  0
  138.7344   80.3065  216.5278 H   0  0  0  0  0  0  0  0  0  0  0  0
  138.0402   81.9633  216.5278 H   0  0  0  0  0  0  0  0  0  0  0  0
  138.1990   79.2380  220.3790 C   0  0  0  0  0  0  0  0  0  0  0  0
  137.1597   78.9786  220.6290 H   0  0  0  0  0  0  0  0  0  0  0  0
  138.4126   80.2842  220.6434 H   0  0  0  0  0  0  0  0  0  0  0  0
  139.1450   78.3340  221.1760 C   0  0  0  0  0  0  0  0  0  0  0  0
  139.0111   78.5308  222.2499 H   0  0  0  0  0  0  0  0  0  0  0  0
  140.1790   78.5523  220.8705 H   0  0  0  0  0  0  0  0  0  0  0  0
  141.6420   77.1720  219.8210 C   0  0  0  0  0  0  0  0  0  0  0  0
  140.9756   78.0420  219.7262 H   0  0  0  0  0  0  0  0  0  0  0  0
  142.3700   80.0570  217.0650 N   0  0  0  0  0  0  0  0  0  0  0  0
  142.6160   79.6310  216.1420 H   0  0  0  0  0  0  0  0  0  0  0  0
  141.8530   81.3140  217.1000 C   0  0  0  0  0  0  0  0  0  0  0  0
  141.6828   81.8565  216.1583 H   0  0  0  0  0  0  0  0  0  0  0  0
  141.5320   81.9320  218.3250 C   0  0  0  0  0  0  0  0  0  0  0  0
  141.0270   83.2860  218.3250 N   0  0  0  0  0  0  0  0  0  0  0  0
  141.8650   84.3900  217.8480 C   0  0  0  0  0  0  0  0  0  0  0  0
  142.2787   84.9350  218.7093 H   0  0  0  0  0  0  0  0  0  0  0  0
  142.6880   83.9887  217.2384 H   0  0  0  0  0  0  0  0  0  0  0  0
  141.2572   85.0748  217.2384 H   0  0  0  0  0  0  0  0  0  0  0  0
  139.8370   83.6160  219.0570 C   0  0  0  0  0  0  0  0  0  0  0  0
  138.8230   84.0420  218.4420 O   0  0  0  0  0  0  0  0  0  0  0  0
  139.7590   83.4180  220.5370 C   0  0  0  0  0  0  0  0  0  0  0  0
  139.3900   84.3440  221.0022 H   0  0  0  0  0  0  0  0  0  0  0  0
  139.0759   82.5792  220.7367 H   0  0  0  0  0  0  0  0  0  0  0  0
  141.1230   83.0750  221.1300 C   0  0  0  0  0  0  0  0  0  0  0  0
  141.8883   83.7280  220.6851 H   0  0  0  0  0  0  0  0  0  0  0  0
  141.0915   83.2256  222.2192 H   0  0  0  0  0  0  0  0  0  0  0  0
  142.5750   79.9440  222.2060 C   0  0  0  0  0  0  0  0  0  0  0  0
  143.4515   80.0000  221.5437 H   0  0  0  0  0  0  0  0  0  0  0  0
  142.5900   79.0870  223.3120 C   0  0  0  0  0  0  0  0  0  0  0  0
  143.4772   78.4695  223.5160 H   0  0  0  0  0  0  0  0  0  0  0  0
  1  2  1  0
  2  3  2  0
  3  4  1  0
  3  5  1  0
  5  6  1  0
  5  7  2  0
  7  8  1  0
  8  9  1  0
  9 10  2  0
 10 11  1  0
 11 12  2  0
 12 13  1  0
 13 14  2  0
 14 15  1  0
 14 16  1  0
 16 17  1  0
 16 18  2  0
 18 19  1  0
 18 20  1  0
 20 21  1  0
 21 22  2  0
 21 23  1  0
 23 24  1  6
 23 25  1  0
 25 26  1  0
 25 27  1  0
 25 28  1  0
 28 29  1  0
 28 30  1  0
 28 31  1  0
 31 32  1  1
 31 33  1  0
 33 34  1  0
 34 35  1  0
 34 36  1  0
 34 37  1  0
 37 38  1  0
 37 39  1  0
 37 40  1  0
 31 41  1  0
 41 42  1  0
 41 43  1  0
 41 44  1  0
 44 45  1  0
 44 46  1  0
 20 47  2  0
 47 48  1  0
 11 49  1  0
 49 50  1  0
 49 51  1  0
 51 52  1  0
 51 53  2  0
 53 54  1  0
 54 55  1  0
 55 56  1  0
 55 57  1  0
 55 58  1  0
 54 59  1  0
 59 60  2  0
 59 61  1  0
 61 62  1  0
 61 63  1  0
 61 64  1  0
 64 65  1  0
 64 66  1  0
  7 67  1  0
 67 68  1  0
 67 69  2  0
 69 70  1  0
 69  2  1  0
 64  8  1  0
 53  9  1  0
 47 13  1  0
 44 23  1  0
M  CHG  1  23   1
M  END
>  <UniqueID>  (79) 
24

>  <SMILES>  (79) 
CCOC1CC[NH+](C(=O)c2cccc(/N=c3\nc4c(c[nH]3)N(C)C(=O)CCN4c3ccccc3)c2)CC1

>  <Energy>  (79) 
113.05173742060987

>  <Genealogy>  (79) 
CCOC1CC[NH+](C(=O)c2cccc(N=c3nc4c(c[nH]3)N(C)C(=O)CCN4c3ccccc3)c2)CC1 (protonated)
CCOC1CC[NH+](C(=O)c2cccc(/N=c3\nc4c(c[nH]3)N(C)C(=O)CCN4c3ccccc3)c2)CC1 (cis-trans isomerization)
CCOC1CC[NH+](C(=O)c2cccc(/N=c3\nc4c(c[nH]3)N(C)C(=O)CCN4c3ccccc3)c2)CC1 (3D coordinates assigned)
CCOC1CC[NH+](C(=O)c2cccc(/N=c3\nc4c(c[nH]3)N(C)C(=O)CCN4c3ccccc3)c2)CC1 (nonaromatic ring conformer: 113.05173742060987 kcal/mol)

>  <smiles>  (79) 
CCOC1CCN(C(=O)c2cccc(N=c3nc4c(c[nH]3)N(C)C(=O)CCN4c3ccccc3)c2)CC1

>  <score_type>  (79) 
oracle

>  <origin>  (79) 
autodockgpu

>  <m_score__min__energy>  (79) 
-6.8300000000000001

>  <m_primary>  (79) 
energy

>  <meeko>  (79) 
{"free_energy": -4.29, "intermolecular_energy": -7.87, "internal_energy": -3.43, "cluster_size": 4, "cluster_id": 7, "rank_in_cluster": 4}

>  <energy>  (79) 
-3.83

>  <cluster_rmsd>  (79) 
0.0

>  <rmsd>  (79) 
270.73

>  <cluster>  (79) 
10

$$$$
KHESEQRZXKFTOB-IGPOTQGWNA-O
     RDKit          3D

 70 74  0  0  0  0  0  0  0  0999 V2000
  142.9536   80.2256  225.0442 H   0  0  0  0  0  0  0  0  0  0  0  0
  142.5930   80.5180  224.0470 C   0  0  0  0  0  0  0  0  0  0  0  0
  141.7640   81.6340  223.9030 C   0  0  0  0  0  0  0  0  0  0  0  0
  141.4693   82.2177  224.7876 H   0  0  0  0  0  0  0  0  0  0  0  0
  141.3090   82.0090  222.6350 C   0  0  0  0  0  0  0  0  0  0  0  0
  140.6506   82.8834  222.5262 H   0  0  0  0  0  0  0  0  0  0  0  0
  141.6890   81.2740  221.4990 C   0  0  0  0  0  0  0  0  0  0  0  0
  141.2890   81.7100  220.1830 N   0  0  0  0  0  0  0  0  0  0  0  0
  140.8070   80.7190  219.2400 C   0  0  0  0  0  0  0  0  0  0  0  0
  141.6110   79.6550  218.9770 N   0  0  0  0  0  0  0  0  0  0  0  0
  141.2690   78.6580  218.1250 C   0  0  0  0  0  0  0  0  0  0  0  0
  142.1090   77.6980  217.8630 N   0  0  0  0  0  0  0  0  0  0  0  0
  142.3510   76.5870  218.7400 C   0  0  0  0  0  0  0  0  0  0  0  0
  143.4330   75.7160  218.5240 C   0  0  0  0  0  0  0  0  0  0  0  0
  144.1325   75.9050  217.6964 H   0  0  0  0  0  0  0  0  0  0  0  0
  143.6220   74.6130  219.3560 C   0  0  0  0  0  0  0  0  0  0  0  0
  144.4751   73.9390  219.1886 H   0  0  0  0  0  0  0  0  0  0  0  0
  142.7300   74.3620  220.4020 C   0  0  0  0  0  0  0  0  0  0  0  0
  142.8823   73.4884  221.0528 H   0  0  0  0  0  0  0  0  0  0  0  0
  141.6400   75.2190  220.6270 C   0  0  0  0  0  0  0  0  0  0  0  0
  140.6700   74.9090  221.7040 C   0  0  0  0  0  0  0  0  0  0  0  0
  140.4860   73.7030  222.0300 O   0  0  0  0  0  0  0  0  0  0  0  0
  139.9150   75.9560  222.3670 N   0  0  2  0  0  0  0  0  0  0  0  0
  139.5620   75.5900  223.2810 H   0  0  0  0  0  0  0  0  0  0  0  0
  138.7230   76.3450  221.5570 C   0  0  0  0  0  0  0  0  0  0  0  0
  137.8531   76.4179  222.2263 H   0  0  0  0  0  0  0  0  0  0  0  0
  138.5839   75.5738  220.7851 H   0  0  0  0  0  0  0  0  0  0  0  0
  138.9000   77.6900  220.8360 C   0  0  0  0  0  0  0  0  0  0  0  0
  137.9760   77.9257  220.2877 H   0  0  0  0  0  0  0  0  0  0  0  0
  139.7532   77.6021  220.1473 H   0  0  0  0  0  0  0  0  0  0  0  0
  139.1980   78.8340  221.8330 C   0  0  1  0  0  0  0  0  0  0  0  0
  139.7908   79.5885  221.2951 H   0  0  0  0  0  0  0  0  0  0  0  0
  137.9790   79.3910  222.3040 O   0  0  0  0  0  0  0  0  0  0  0  0
  138.1360   80.7440  222.6900 C   0  0  0  0  0  0  0  0  0  0  0  0
  137.2977   81.3344  222.2916 H   0  0  0  0  0  0  0  0  0  0  0  0
  139.0880   81.1218  222.2889 H   0  0  0  0  0  0  0  0  0  0  0  0
  138.1570   80.8630  224.2100 C   0  0  0  0  0  0  0  0  0  0  0  0
  137.9824   79.8735  224.6577 H   0  0  0  0  0  0  0  0  0  0  0  0
  139.1363   81.2446  224.5344 H   0  0  0  0  0  0  0  0  0  0  0  0
  137.3674   81.5567  224.5344 H   0  0  0  0  0  0  0  0  0  0  0  0
  140.0140   78.3430  223.0500 C   0  0  0  0  0  0  0  0  0  0  0  0
  139.3241   78.1150  223.8759 H   0  0  0  0  0  0  0  0  0  0  0  0
  140.7181   79.1370  223.3397 H   0  0  0  0  0  0  0  0  0  0  0  0
  140.8170   77.0850  222.7090 C   0  0  0  0  0  0  0  0  0  0  0  0
  141.4320   76.8043  223.5767 H   0  0  0  0  0  0  0  0  0  0  0  0
  141.4548   77.3007  221.8391 H   0  0  0  0  0  0  0  0  0  0  0  0
  141.4790   76.3540  219.8090 C   0  0  0  0  0  0  0  0  0  0  0  0
  140.6621   77.0622  220.0119 H   0  0  0  0  0  0  0  0  0  0  0  0
  140.0650   78.7000  217.5010 N   0  0  0  0  0  0  0  0  0  0  0  0
  139.7940   77.9410  216.8350 H   0  0  0  0  0  0  0  0  0  0  0  0
  139.2070   79.7310  217.7180 C   0  0  0  0  0  0  0  0  0  0  0  0
  138.2336   79.7428  217.2059 H   0  0  0  0  0  0  0  0  0  0  0  0
  139.5460   80.7860  218.5900 C   0  0  0  0  0  0  0  0  0  0  0  0
  138.6270   81.8880  218.7600 N   0  0  0  0  0  0  0  0  0  0  0  0
  137.1850   81.6810  218.6110 C   0  0  0  0  0  0  0  0  0  0  0  0
  136.7195   81.6142  219.6054 H   0  0  0  0  0  0  0  0  0  0  0  0
  136.7485   82.5257  218.0578 H   0  0  0  0  0  0  0  0  0  0  0  0
  137.0038   80.7476  218.0578 H   0  0  0  0  0  0  0  0  0  0  0  0
  139.1120   83.2390  218.7760 C   0  0  0  0  0  0  0  0  0  0  0  0
  138.7940   84.0280  217.8460 O   0  0  0  0  0  0  0  0  0  0  0  0
  139.9540   83.7470  219.9030 C   0  0  0  0  0  0  0  0  0  0  0  0
  140.0360   84.8410  219.8226 H   0  0  0  0  0  0  0  0  0  0  0  0
  139.4735   83.4580  220.8493 H   0  0  0  0  0  0  0  0  0  0  0  0
  141.3540   83.1420  219.8740 C   0  0  0  0  0  0  0  0  0  0  0  0
  141.7892   83.2791  218.8731 H   0  0  0  0  0  0  0  0  0  0  0  0
  141.9800   83.6451  220.6256 H   0  0  0  0  0  0  0  0  0  0  0  0
  142.5160   80.1490  221.6530 C   0  0  0  0  0  0  0  0  0  0  0  0
  142.8122   79.5618  220.7713 H   0  0  0  0  0  0  0  0  0  0  0  0
  142.9640   79.7730  222.9230 C   0  0  0  0  0  0  0  0  0  0  0  0
  143.6094   78.8897  223.0383 H   0  0  0  0  0  0  0  0  0  0  0  0
  1  2  1  0
  2  3  2  0
  3  4  1  0
  3  5  1  0
  5  6  1  0
  5  7  2  0
  7  8  1  0
  8  9  1  0
  9 10  2  0
 10 11  1  0
 11 12  2  0
 12 13  1  0
 13 14  2  0
 14 15  1  0
 14 16  1  0
 16 17  1  0
 16 18  2  0
 18 19  1  0
 18 20  1  0
 20 21  1  0
 21 22  2  0
 21 23  1  0
 23 24  1  6
 23 25  1  0
 25 26  1  0
 25 27  1  0
 25 28  1  0
 28 29  1  0
 28 30  1  0
 28 31  1  0
 31 32  1  1
 31 33  1  0
 33 34  1  0
 34 35  1  0
 34 36  1  0
 34 37  1  0
 37 38  1  0
 37 39  1  0
 37 40  1  0
 31 41  1  0
 41 42  1  0
 41 43  1  0
 41 44  1  0
 44 45  1  0
 44 46  1  0
 20 47  2  0
 47 48  1  0
 11 49  1  0
 49 50  1  0
 49 51  1  0
 51 52  1  0
 51 53  2  0
 53 54  1  0
 54 55  1  0
 55 56  1  0
 55 57  1  0
 55 58  1  0
 54 59  1  0
 59 60  2  0
 59 61  1  0
 61 62  1  0
 61 63  1  0
 61 64  1  0
 64 65  1  0
 64 66  1  0
  7 67  1  0
 67 68  1  0
 67 69  2  0
 69 70  1  0
 69  2  1  0
 64  8  1  0
 53  9  1  0
 47 13  1  0
 44 23  1  0
M  CHG  1  23   1
M  END
>  <UniqueID>  (80) 
24

>  <SMILES>  (80) 
CCOC1CC[NH+](C(=O)c2cccc(/N=c3\nc4c(c[nH]3)N(C)C(=O)CCN4c3ccccc3)c2)CC1

>  <Energy>  (80) 
113.05173742060987

>  <Genealogy>  (80) 
CCOC1CC[NH+](C(=O)c2cccc(N=c3nc4c(c[nH]3)N(C)C(=O)CCN4c3ccccc3)c2)CC1 (protonated)
CCOC1CC[NH+](C(=O)c2cccc(/N=c3\nc4c(c[nH]3)N(C)C(=O)CCN4c3ccccc3)c2)CC1 (cis-trans isomerization)
CCOC1CC[NH+](C(=O)c2cccc(/N=c3\nc4c(c[nH]3)N(C)C(=O)CCN4c3ccccc3)c2)CC1 (3D coordinates assigned)
CCOC1CC[NH+](C(=O)c2cccc(/N=c3\nc4c(c[nH]3)N(C)C(=O)CCN4c3ccccc3)c2)CC1 (nonaromatic ring conformer: 113.05173742060987 kcal/mol)

>  <smiles>  (80) 
CCOC1CCN(C(=O)c2cccc(N=c3nc4c(c[nH]3)N(C)C(=O)CCN4c3ccccc3)c2)CC1

>  <score_type>  (80) 
oracle

>  <origin>  (80) 
autodockgpu

>  <m_score__min__energy>  (80) 
-6.8300000000000001

>  <m_primary>  (80) 
energy

>  <meeko>  (80) 
{"free_energy": -4.41, "intermolecular_energy": -7.99, "internal_energy": -3.45, "cluster_size": 4, "cluster_id": 7, "rank_in_cluster": 3}

>  <energy>  (80) 
-3.77

>  <cluster_rmsd>  (80) 
0.0

>  <rmsd>  (80) 
270.73

>  <cluster>  (80) 
11

$$$$
