WSOSBBRZSAQCQS-ZRDIBKRKNA-N
     RDKit          3D

 46 49  0  0  0  0  0  0  0  0999 V2000
  138.9144   76.6899  223.6413 H   0  0  0  0  0  0  0  0  0  0  0  0
  138.8490   77.2700  222.7090 C   0  0  0  0  0  0  0  0  0  0  0  0
  139.0170   76.6230  221.5450 C   0  0  0  0  0  0  0  0  0  0  0  0
  138.1428   76.4553  220.8987 H   0  0  0  0  0  0  0  0  0  0  0  0
  140.3470   76.1250  221.1000 C   0  0  0  0  0  0  0  0  0  0  0  0
  140.6480   74.8180  221.3290 N   0  0  0  0  0  0  0  0  0  0  0  0
  141.8270   74.2720  220.9580 C   0  0  0  0  0  0  0  0  0  0  0  0
  142.0870   72.9240  221.2250 C   0  0  0  0  0  0  0  0  0  0  0  0
  141.3324   72.3103  221.7388 H   0  0  0  0  0  0  0  0  0  0  0  0
  143.3040   72.3560  220.8400 C   0  0  0  0  0  0  0  0  0  0  0  0
  143.5086   71.2979  221.0604 H   0  0  0  0  0  0  0  0  0  0  0  0
  144.2670   73.1300  220.1730 C   0  0  0  0  0  0  0  0  0  0  0  0
  145.5880   72.5280  219.7970 C   0  0  0  0  0  0  0  0  0  0  0  0
  146.1476   72.2730  220.7090 H   0  0  0  0  0  0  0  0  0  0  0  0
  145.4202   71.6174  219.2031 H   0  0  0  0  0  0  0  0  0  0  0  0
  146.1651   73.2520  219.2031 H   0  0  0  0  0  0  0  0  0  0  0  0
  144.0110   74.4870  219.9230 C   0  0  0  0  0  0  0  0  0  0  0  0
  144.7721   75.1038  219.4227 H   0  0  0  0  0  0  0  0  0  0  0  0
  142.7850   75.0640  220.3090 C   0  0  0  0  0  0  0  0  0  0  0  0
  142.4780   76.4130  220.0670 C   0  0  0  0  0  0  0  0  0  0  0  0
  143.3240   77.1380  219.4700 O   0  0  0  0  0  0  0  0  0  0  0  0
  141.2670   76.9400  220.4650 N   0  0  0  0  0  0  0  0  0  0  0  0
  140.9550   78.3570  220.1670 C   0  0  0  0  0  0  0  0  0  0  0  0
  141.4593   78.6469  219.2334 H   0  0  0  0  0  0  0  0  0  0  0  0
  139.8645   78.4602  220.0665 H   0  0  0  0  0  0  0  0  0  0  0  0
  141.4210   79.2640  221.2810 C   0  0  0  0  0  0  0  0  0  0  0  0
  141.3660   80.6610  221.1310 C   0  0  0  0  0  0  0  0  0  0  0  0
  140.9783   81.0969  220.1985 H   0  0  0  0  0  0  0  0  0  0  0  0
  141.8020   81.4980  222.1620 C   0  0  0  0  0  0  0  0  0  0  0  0
  141.7475   82.5901  222.0427 H   0  0  0  0  0  0  0  0  0  0  0  0
  142.3070   80.9500  223.3440 C   0  0  0  0  0  0  0  0  0  0  0  0
  142.6449   81.6108  224.1559 H   0  0  0  0  0  0  0  0  0  0  0  0
  142.3830   79.5630  223.4950 C   0  0  0  0  0  0  0  0  0  0  0  0
  142.7840   79.1329  224.4246 H   0  0  0  0  0  0  0  0  0  0  0  0
  141.9500   78.7210  222.4660 C   0  0  0  0  0  0  0  0  0  0  0  0
  142.0233   77.6298  222.5836 H   0  0  0  0  0  0  0  0  0  0  0  0
  138.5800   78.7250  222.8050 C   0  0  0  0  0  0  0  0  0  0  0  0
  137.9050   79.3640  221.7520 C   0  0  0  0  0  0  0  0  0  0  0  0
  137.5756   78.7798  220.8801 H   0  0  0  0  0  0  0  0  0  0  0  0
  137.6560   80.6990  221.8030 N   0  0  0  0  0  0  0  0  0  0  0  0
  138.0550   81.4620  222.8530 C   0  0  0  0  0  0  0  0  0  0  0  0
  137.8341   82.5395  222.8648 H   0  0  0  0  0  0  0  0  0  0  0  0
  138.7450   80.8800  223.9170 C   0  0  0  0  0  0  0  0  0  0  0  0
  139.0745   81.4944  224.7678 H   0  0  0  0  0  0  0  0  0  0  0  0
  139.0130   79.5100  223.8910 C   0  0  0  0  0  0  0  0  0  0  0  0
  139.5636   79.0427  224.7207 H   0  0  0  0  0  0  0  0  0  0  0  0
  1  2  1  0
  2  3  2  0
  3  4  1  0
  3  5  1  0
  5  6  2  0
  6  7  1  0
  7  8  2  0
  8  9  1  0
  8 10  1  0
 10 11  1  0
 10 12  2  0
 12 13  1  0
 13 14  1  0
 13 15  1  0
 13 16  1  0
 12 17  1  0
 17 18  1  0
 17 19  2  0
 19 20  1  0
 20 21  2  0
 20 22  1  0
 22 23  1  0
 23 24  1  0
 23 25  1  0
 23 26  1  0
 26 27  2  0
 27 28  1  0
 27 29  1  0
 29 30  1  0
 29 31  2  0
 31 32  1  0
 31 33  1  0
 33 34  1  0
 33 35  2  0
 35 36  1  0
  2 37  1  0
 37 38  2  0
 38 39  1  0
 38 40  1  0
 40 41  2  0
 41 42  1  0
 41 43  1  0
 43 44  1  0
 43 45  2  0
 45 46  1  0
 22  5  1  0
 35 26  1  0
 45 37  1  0
 19  7  1  0
M  END
>  <UniqueID>  (1) 
112

>  <SMILES>  (1) 
Cc1ccc2nc(/C=C/c3cccnc3)n(Cc3ccccc3)c(=O)c2c1

>  <Energy>  (1) 
62.89609464147982

>  <Genealogy>  (1) 
Cc1ccc2nc(/C=C/c3cccnc3)n(Cc3ccccc3)c(=O)c2c1 (cis-trans isomerization)
Cc1ccc2nc(/C=C/c3cccnc3)n(Cc3ccccc3)c(=O)c2c1 (3D coordinates assigned)
Cc1ccc2nc(/C=C/c3cccnc3)n(Cc3ccccc3)c(=O)c2c1 (optimized conformer: 62.89609464147982 kcal/mol)

>  <smiles>  (1) 
Cc1ccc2nc(/C=C/c3cccnc3)n(Cc3ccccc3)c(=O)c2c1

>  <score_type>  (1) 
oracle

>  <origin>  (1) 
autodockgpu

>  <m_score__min__energy>  (1) 
-7.29

>  <m_primary>  (1) 
energy

>  <meeko>  (1) 
{"free_energy": -6.68, "intermolecular_energy": -8.17, "internal_energy": -1.93, "cluster_size": 10, "cluster_id": 4, "rank_in_cluster": 5}

>  <energy>  (1) 
-7.29

>  <cluster_rmsd>  (1) 
0.0

>  <rmsd>  (1) 
270.95

>  <cluster>  (1) 
1

$$$$
WSOSBBRZSAQCQS-ZRDIBKRKNA-N
     RDKit          3D

 46 49  0  0  0  0  0  0  0  0999 V2000
  135.9981   72.4735  223.4807 H   0  0  0  0  0  0  0  0  0  0  0  0
  135.7820   73.5510  223.4320 C   0  0  0  0  0  0  0  0  0  0  0  0
  136.2000   74.2350  222.3560 C   0  0  0  0  0  0  0  0  0  0  0  0
  135.5590   74.2642  221.4626 H   0  0  0  0  0  0  0  0  0  0  0  0
  137.5030   74.9560  222.3310 C   0  0  0  0  0  0  0  0  0  0  0  0
  137.5110   76.2700  222.6830 N   0  0  0  0  0  0  0  0  0  0  0  0
  138.6430   77.0080  222.6960 C   0  0  0  0  0  0  0  0  0  0  0  0
  138.5940   78.3570  223.0590 C   0  0  0  0  0  0  0  0  0  0  0  0
  137.6332   78.8175  223.3325 H   0  0  0  0  0  0  0  0  0  0  0  0
  139.7630   79.1210  223.0750 C   0  0  0  0  0  0  0  0  0  0  0  0
  139.7181   80.1850  223.3505 H   0  0  0  0  0  0  0  0  0  0  0  0
  140.9950   78.5370  222.7410 C   0  0  0  0  0  0  0  0  0  0  0  0
  142.2430   79.3700  222.7210 C   0  0  0  0  0  0  0  0  0  0  0  0
  142.5594   79.5812  223.7531 H   0  0  0  0  0  0  0  0  0  0  0  0
  143.0408   78.8227  222.1976 H   0  0  0  0  0  0  0  0  0  0  0  0
  142.0436   80.3167  222.1976 H   0  0  0  0  0  0  0  0  0  0  0  0
  141.0390   77.1870  222.3590 C   0  0  0  0  0  0  0  0  0  0  0  0
  141.9981   76.7307  222.0728 H   0  0  0  0  0  0  0  0  0  0  0  0
  139.8620   76.4130  222.3400 C   0  0  0  0  0  0  0  0  0  0  0  0
  139.8600   75.0550  221.9790 C   0  0  0  0  0  0  0  0  0  0  0  0
  140.9520   74.5000  221.6710 O   0  0  0  0  0  0  0  0  0  0  0  0
  138.6840   74.3340  221.9710 N   0  0  0  0  0  0  0  0  0  0  0  0
  138.7140   72.8950  221.6190 C   0  0  0  0  0  0  0  0  0  0  0  0
  137.7241   72.5966  221.2435 H   0  0  0  0  0  0  0  0  0  0  0  0
  139.4834   72.7404  220.8482 H   0  0  0  0  0  0  0  0  0  0  0  0
  139.0620   72.0470  222.8200 C   0  0  0  0  0  0  0  0  0  0  0  0
  140.3400   72.1270  223.4000 C   0  0  0  0  0  0  0  0  0  0  0  0
  141.0904   72.8129  222.9799 H   0  0  0  0  0  0  0  0  0  0  0  0
  140.6610   71.3380  224.5090 C   0  0  0  0  0  0  0  0  0  0  0  0
  141.6597   71.4109  224.9642 H   0  0  0  0  0  0  0  0  0  0  0  0
  139.7150   70.4570  225.0400 C   0  0  0  0  0  0  0  0  0  0  0  0
  139.9669   69.8423  225.9168 H   0  0  0  0  0  0  0  0  0  0  0  0
  138.4490   70.3570  224.4570 C   0  0  0  0  0  0  0  0  0  0  0  0
  137.7069   69.6593  224.8723 H   0  0  0  0  0  0  0  0  0  0  0  0
  138.1240   71.1420  223.3470 C   0  0  0  0  0  0  0  0  0  0  0  0
  137.1303   71.0513  222.8840 H   0  0  0  0  0  0  0  0  0  0  0  0
  135.0440   74.1710  224.5590 C   0  0  0  0  0  0  0  0  0  0  0  0
  134.3240   73.3460  225.4380 C   0  0  0  0  0  0  0  0  0  0  0  0
  134.3255   72.2561  225.2890 H   0  0  0  0  0  0  0  0  0  0  0  0
  133.6250   73.8850  226.4720 N   0  0  0  0  0  0  0  0  0  0  0  0
  133.5870   75.2260  226.6880 C   0  0  0  0  0  0  0  0  0  0  0  0
  133.0162   75.6298  227.5372 H   0  0  0  0  0  0  0  0  0  0  0  0
  134.2710   76.0910  225.8340 C   0  0  0  0  0  0  0  0  0  0  0  0
  134.2394   77.1776  226.0020 H   0  0  0  0  0  0  0  0  0  0  0  0
  134.9960   75.5640  224.7640 C   0  0  0  0  0  0  0  0  0  0  0  0
  135.5313   76.2381  224.0791 H   0  0  0  0  0  0  0  0  0  0  0  0
  1  2  1  0
  2  3  2  0
  3  4  1  0
  3  5  1  0
  5  6  2  0
  6  7  1  0
  7  8  2  0
  8  9  1  0
  8 10  1  0
 10 11  1  0
 10 12  2  0
 12 13  1  0
 13 14  1  0
 13 15  1  0
 13 16  1  0
 12 17  1  0
 17 18  1  0
 17 19  2  0
 19 20  1  0
 20 21  2  0
 20 22  1  0
 22 23  1  0
 23 24  1  0
 23 25  1  0
 23 26  1  0
 26 27  2  0
 27 28  1  0
 27 29  1  0
 29 30  1  0
 29 31  2  0
 31 32  1  0
 31 33  1  0
 33 34  1  0
 33 35  2  0
 35 36  1  0
  2 37  1  0
 37 38  2  0
 38 39  1  0
 38 40  1  0
 40 41  2  0
 41 42  1  0
 41 43  1  0
 43 44  1  0
 43 45  2  0
 45 46  1  0
 22  5  1  0
 35 26  1  0
 45 37  1  0
 19  7  1  0
M  END
>  <UniqueID>  (2) 
112

>  <SMILES>  (2) 
Cc1ccc2nc(/C=C/c3cccnc3)n(Cc3ccccc3)c(=O)c2c1

>  <Energy>  (2) 
62.89609464147982

>  <Genealogy>  (2) 
Cc1ccc2nc(/C=C/c3cccnc3)n(Cc3ccccc3)c(=O)c2c1 (cis-trans isomerization)
Cc1ccc2nc(/C=C/c3cccnc3)n(Cc3ccccc3)c(=O)c2c1 (3D coordinates assigned)
Cc1ccc2nc(/C=C/c3cccnc3)n(Cc3ccccc3)c(=O)c2c1 (optimized conformer: 62.89609464147982 kcal/mol)

>  <smiles>  (2) 
Cc1ccc2nc(/C=C/c3cccnc3)n(Cc3ccccc3)c(=O)c2c1

>  <score_type>  (2) 
oracle

>  <origin>  (2) 
autodockgpu

>  <m_score__min__energy>  (2) 
-7.29

>  <m_primary>  (2) 
energy

>  <meeko>  (2) 
{"free_energy": -7.27, "intermolecular_energy": -8.76, "internal_energy": -1.36, "cluster_size": 5, "cluster_id": 3, "rank_in_cluster": 1}

>  <energy>  (2) 
-7.28

>  <cluster_rmsd>  (2) 
0.0

>  <rmsd>  (2) 
270.67

>  <cluster>  (2) 
2

$$$$
WSOSBBRZSAQCQS-ZRDIBKRKNA-N
     RDKit          3D

 46 49  0  0  0  0  0  0  0  0999 V2000
  139.1413   76.7914  223.6118 H   0  0  0  0  0  0  0  0  0  0  0  0
  139.0000   77.4140  222.7160 C   0  0  0  0  0  0  0  0  0  0  0  0
  139.1490   76.8390  221.5120 C   0  0  0  0  0  0  0  0  0  0  0  0
  138.2806   76.7813  220.8393 H   0  0  0  0  0  0  0  0  0  0  0  0
  140.4500   76.2770  221.0570 C   0  0  0  0  0  0  0  0  0  0  0  0
  140.6990   74.9630  221.3060 N   0  0  0  0  0  0  0  0  0  0  0  0
  141.8480   74.3610  220.9290 C   0  0  0  0  0  0  0  0  0  0  0  0
  142.0560   73.0080  221.2170 C   0  0  0  0  0  0  0  0  0  0  0  0
  141.2845   72.4356  221.7529 H   0  0  0  0  0  0  0  0  0  0  0  0
  143.2420   72.3830  220.8250 C   0  0  0  0  0  0  0  0  0  0  0  0
  143.4053   71.3212  221.0615 H   0  0  0  0  0  0  0  0  0  0  0  0
  144.2260   73.1030  220.1310 C   0  0  0  0  0  0  0  0  0  0  0  0
  145.5160   72.4390  219.7470 C   0  0  0  0  0  0  0  0  0  0  0  0
  146.0671   72.1553  220.6557 H   0  0  0  0  0  0  0  0  0  0  0  0
  145.3022   71.5389  219.1519 H   0  0  0  0  0  0  0  0  0  0  0  0
  146.1242   73.1361  219.1519 H   0  0  0  0  0  0  0  0  0  0  0  0
  144.0240   74.4650  219.8590 C   0  0  0  0  0  0  0  0  0  0  0  0
  144.8027   75.0398  219.3363 H   0  0  0  0  0  0  0  0  0  0  0  0
  142.8290   75.1000  220.2520 C   0  0  0  0  0  0  0  0  0  0  0  0
  142.5760   76.4570  219.9890 C   0  0  0  0  0  0  0  0  0  0  0  0
  143.4420   77.1340  219.3670 O   0  0  0  0  0  0  0  0  0  0  0  0
  141.3940   77.0410  220.3950 N   0  0  0  0  0  0  0  0  0  0  0  0
  141.1370   78.4650  220.0750 C   0  0  0  0  0  0  0  0  0  0  0  0
  141.7198   78.7439  219.1847 H   0  0  0  0  0  0  0  0  0  0  0  0
  140.0604   78.5921  219.8882 H   0  0  0  0  0  0  0  0  0  0  0  0
  141.5330   79.3610  221.2240 C   0  0  0  0  0  0  0  0  0  0  0  0
  142.1550   78.8230  222.3640 C   0  0  0  0  0  0  0  0  0  0  0  0
  142.3570   77.7431  222.4192 H   0  0  0  0  0  0  0  0  0  0  0  0
  142.5180   79.6540  223.4280 C   0  0  0  0  0  0  0  0  0  0  0  0
  143.0134   79.2286  224.3132 H   0  0  0  0  0  0  0  0  0  0  0  0
  142.2520   81.0250  223.3680 C   0  0  0  0  0  0  0  0  0  0  0  0
  142.5437   81.6784  224.2034 H   0  0  0  0  0  0  0  0  0  0  0  0
  141.6160   81.5660  222.2480 C   0  0  0  0  0  0  0  0  0  0  0  0
  141.4022   82.6442  222.2047 H   0  0  0  0  0  0  0  0  0  0  0  0
  141.2510   80.7380  221.1820 C   0  0  0  0  0  0  0  0  0  0  0  0
  140.7409   81.1658  220.3064 H   0  0  0  0  0  0  0  0  0  0  0  0
  138.6550   78.8440  222.9020 C   0  0  0  0  0  0  0  0  0  0  0  0
  139.1810   79.5330  224.0070 C   0  0  0  0  0  0  0  0  0  0  0  0
  139.8473   79.0112  224.7097 H   0  0  0  0  0  0  0  0  0  0  0  0
  138.8720   80.8410  224.2140 N   0  0  0  0  0  0  0  0  0  0  0  0
  138.0450   81.5210  223.3790 C   0  0  0  0  0  0  0  0  0  0  0  0
  137.8189   82.5801  223.5719 H   0  0  0  0  0  0  0  0  0  0  0  0
  137.4820   80.8780  222.2770 C   0  0  0  0  0  0  0  0  0  0  0  0
  136.8071   81.4234  221.6010 H   0  0  0  0  0  0  0  0  0  0  0  0
  137.7830   79.5360  222.0400 C   0  0  0  0  0  0  0  0  0  0  0  0
  137.3380   79.0178  221.1778 H   0  0  0  0  0  0  0  0  0  0  0  0
  1  2  1  0
  2  3  2  0
  3  4  1  0
  3  5  1  0
  5  6  2  0
  6  7  1  0
  7  8  2  0
  8  9  1  0
  8 10  1  0
 10 11  1  0
 10 12  2  0
 12 13  1  0
 13 14  1  0
 13 15  1  0
 13 16  1  0
 12 17  1  0
 17 18  1  0
 17 19  2  0
 19 20  1  0
 20 21  2  0
 20 22  1  0
 22 23  1  0
 23 24  1  0
 23 25  1  0
 23 26  1  0
 26 27  2  0
 27 28  1  0
 27 29  1  0
 29 30  1  0
 29 31  2  0
 31 32  1  0
 31 33  1  0
 33 34  1  0
 33 35  2  0
 35 36  1  0
  2 37  1  0
 37 38  2  0
 38 39  1  0
 38 40  1  0
 40 41  2  0
 41 42  1  0
 41 43  1  0
 43 44  1  0
 43 45  2  0
 45 46  1  0
 22  5  1  0
 35 26  1  0
 45 37  1  0
 19  7  1  0
M  END
>  <UniqueID>  (3) 
112

>  <SMILES>  (3) 
Cc1ccc2nc(/C=C/c3cccnc3)n(Cc3ccccc3)c(=O)c2c1

>  <Energy>  (3) 
62.89609464147982

>  <Genealogy>  (3) 
Cc1ccc2nc(/C=C/c3cccnc3)n(Cc3ccccc3)c(=O)c2c1 (cis-trans isomerization)
Cc1ccc2nc(/C=C/c3cccnc3)n(Cc3ccccc3)c(=O)c2c1 (3D coordinates assigned)
Cc1ccc2nc(/C=C/c3cccnc3)n(Cc3ccccc3)c(=O)c2c1 (optimized conformer: 62.89609464147982 kcal/mol)

>  <smiles>  (3) 
Cc1ccc2nc(/C=C/c3cccnc3)n(Cc3ccccc3)c(=O)c2c1

>  <score_type>  (3) 
oracle

>  <origin>  (3) 
autodockgpu

>  <m_score__min__energy>  (3) 
-7.29

>  <m_primary>  (3) 
energy

>  <meeko>  (3) 
{"free_energy": -6.57, "intermolecular_energy": -8.06, "internal_energy": -1.92, "cluster_size": 10, "cluster_id": 4, "rank_in_cluster": 10}

>  <energy>  (3) 
-7.26

>  <cluster_rmsd>  (3) 
0.04

>  <rmsd>  (3) 
270.69

>  <cluster>  (3) 
2

$$$$
WSOSBBRZSAQCQS-ZRDIBKRKNA-N
     RDKit          3D

 46 49  0  0  0  0  0  0  0  0999 V2000
  135.9561   72.3715  223.5409 H   0  0  0  0  0  0  0  0  0  0  0  0
  135.7680   73.4520  223.4570 C   0  0  0  0  0  0  0  0  0  0  0  0
  136.2030   74.0900  222.3590 C   0  0  0  0  0  0  0  0  0  0  0  0
  135.5901   74.0562  221.4462 H   0  0  0  0  0  0  0  0  0  0  0  0
  137.4880   74.8420  222.3360 C   0  0  0  0  0  0  0  0  0  0  0  0
  137.4620   76.1590  222.6770 N   0  0  0  0  0  0  0  0  0  0  0  0
  138.5760   76.9240  222.6900 C   0  0  0  0  0  0  0  0  0  0  0  0
  138.4920   78.2750  223.0420 C   0  0  0  0  0  0  0  0  0  0  0  0
  137.5187   78.7143  223.3058 H   0  0  0  0  0  0  0  0  0  0  0  0
  139.6420   79.0670  223.0590 C   0  0  0  0  0  0  0  0  0  0  0  0
  139.5697   80.1316  223.3261 H   0  0  0  0  0  0  0  0  0  0  0  0
  140.8890   78.5110  222.7370 C   0  0  0  0  0  0  0  0  0  0  0  0
  142.1170   79.3740  222.7170 C   0  0  0  0  0  0  0  0  0  0  0  0
  142.4283   79.5928  223.7491 H   0  0  0  0  0  0  0  0  0  0  0  0
  142.9277   78.8460  222.1936 H   0  0  0  0  0  0  0  0  0  0  0  0
  141.8949   80.3157  222.1936 H   0  0  0  0  0  0  0  0  0  0  0  0
  140.9690   77.1600  222.3670 C   0  0  0  0  0  0  0  0  0  0  0  0
  141.9410   76.7251  222.0910 H   0  0  0  0  0  0  0  0  0  0  0  0
  139.8110   76.3570  222.3470 C   0  0  0  0  0  0  0  0  0  0  0  0
  139.8440   74.9960  221.9980 C   0  0  0  0  0  0  0  0  0  0  0  0
  140.9510   74.4650  221.7000 O   0  0  0  0  0  0  0  0  0  0  0  0
  138.6870   74.2470  221.9880 N   0  0  0  0  0  0  0  0  0  0  0  0
  138.7540   72.8060  221.6490 C   0  0  0  0  0  0  0  0  0  0  0  0
  137.7829   72.4875  221.2422 H   0  0  0  0  0  0  0  0  0  0  0  0
  139.5523   72.6595  220.9065 H   0  0  0  0  0  0  0  0  0  0  0  0
  139.0750   71.9730  222.8670 C   0  0  0  0  0  0  0  0  0  0  0  0
  138.0970   71.1380  223.4350 C   0  0  0  0  0  0  0  0  0  0  0  0
  137.0930   71.0880  222.9883 H   0  0  0  0  0  0  0  0  0  0  0  0
  138.3950   70.3710  224.5650 C   0  0  0  0  0  0  0  0  0  0  0  0
  137.6286   69.7122  224.9994 H   0  0  0  0  0  0  0  0  0  0  0  0
  139.6660   70.4400  225.1440 C   0  0  0  0  0  0  0  0  0  0  0  0
  139.9007   69.8316  226.0299 H   0  0  0  0  0  0  0  0  0  0  0  0
  140.6380   71.2820  224.5970 C   0  0  0  0  0  0  0  0  0  0  0  0
  141.6360   71.3395  225.0559 H   0  0  0  0  0  0  0  0  0  0  0  0
  140.3440   72.0510  223.4680 C   0  0  0  0  0  0  0  0  0  0  0  0
  141.1087   72.7205  223.0474 H   0  0  0  0  0  0  0  0  0  0  0  0
  135.0470   74.1280  224.5630 C   0  0  0  0  0  0  0  0  0  0  0  0
  134.2990   73.3510  225.4630 C   0  0  0  0  0  0  0  0  0  0  0  0
  134.2665   72.2578  225.3449 H   0  0  0  0  0  0  0  0  0  0  0  0
  133.6150   73.9410  226.4790 N   0  0  0  0  0  0  0  0  0  0  0  0
  133.6170   75.2880  226.6560 C   0  0  0  0  0  0  0  0  0  0  0  0
  133.0564   75.7338  227.4909 H   0  0  0  0  0  0  0  0  0  0  0  0
  134.3300   76.1060  225.7790 C   0  0  0  0  0  0  0  0  0  0  0  0
  134.3313   77.1976  225.9150 H   0  0  0  0  0  0  0  0  0  0  0  0
  135.0420   75.5260  224.7270 C   0  0  0  0  0  0  0  0  0  0  0  0
  135.6001   76.1630  224.0250 H   0  0  0  0  0  0  0  0  0  0  0  0
  1  2  1  0
  2  3  2  0
  3  4  1  0
  3  5  1  0
  5  6  2  0
  6  7  1  0
  7  8  2  0
  8  9  1  0
  8 10  1  0
 10 11  1  0
 10 12  2  0
 12 13  1  0
 13 14  1  0
 13 15  1  0
 13 16  1  0
 12 17  1  0
 17 18  1  0
 17 19  2  0
 19 20  1  0
 20 21  2  0
 20 22  1  0
 22 23  1  0
 23 24  1  0
 23 25  1  0
 23 26  1  0
 26 27  2  0
 27 28  1  0
 27 29  1  0
 29 30  1  0
 29 31  2  0
 31 32  1  0
 31 33  1  0
 33 34  1  0
 33 35  2  0
 35 36  1  0
  2 37  1  0
 37 38  2  0
 38 39  1  0
 38 40  1  0
 40 41  2  0
 41 42  1  0
 41 43  1  0
 43 44  1  0
 43 45  2  0
 45 46  1  0
 22  5  1  0
 35 26  1  0
 45 37  1  0
 19  7  1  0
M  END
>  <UniqueID>  (4) 
112

>  <SMILES>  (4) 
Cc1ccc2nc(/C=C/c3cccnc3)n(Cc3ccccc3)c(=O)c2c1

>  <Energy>  (4) 
62.89609464147982

>  <Genealogy>  (4) 
Cc1ccc2nc(/C=C/c3cccnc3)n(Cc3ccccc3)c(=O)c2c1 (cis-trans isomerization)
Cc1ccc2nc(/C=C/c3cccnc3)n(Cc3ccccc3)c(=O)c2c1 (3D coordinates assigned)
Cc1ccc2nc(/C=C/c3cccnc3)n(Cc3ccccc3)c(=O)c2c1 (optimized conformer: 62.89609464147982 kcal/mol)

>  <smiles>  (4) 
Cc1ccc2nc(/C=C/c3cccnc3)n(Cc3ccccc3)c(=O)c2c1

>  <score_type>  (4) 
oracle

>  <origin>  (4) 
autodockgpu

>  <m_score__min__energy>  (4) 
-7.29

>  <m_primary>  (4) 
energy

>  <meeko>  (4) 
{"free_energy": -7.24, "intermolecular_energy": -8.73, "internal_energy": -1.38, "cluster_size": 5, "cluster_id": 3, "rank_in_cluster": 4}

>  <energy>  (4) 
-7.25

>  <cluster_rmsd>  (4) 
0.1

>  <rmsd>  (4) 
270.7

>  <cluster>  (4) 
2

$$$$
WSOSBBRZSAQCQS-ZRDIBKRKNA-N
     RDKit          3D

 46 49  0  0  0  0  0  0  0  0999 V2000
  138.9201   76.6791  223.6495 H   0  0  0  0  0  0  0  0  0  0  0  0
  138.8580   77.2640  222.7200 C   0  0  0  0  0  0  0  0  0  0  0  0
  139.0250   76.6230  221.5530 C   0  0  0  0  0  0  0  0  0  0  0  0
  138.1511   76.4631  220.9043 H   0  0  0  0  0  0  0  0  0  0  0  0
  140.3540   76.1210  221.1070 C   0  0  0  0  0  0  0  0  0  0  0  0
  140.6520   74.8130  221.3360 N   0  0  0  0  0  0  0  0  0  0  0  0
  141.8290   74.2640  220.9650 C   0  0  0  0  0  0  0  0  0  0  0  0
  142.0860   72.9150  221.2300 C   0  0  0  0  0  0  0  0  0  0  0  0
  141.3294   72.3022  221.7419 H   0  0  0  0  0  0  0  0  0  0  0  0
  143.3010   72.3450  220.8460 C   0  0  0  0  0  0  0  0  0  0  0  0
  143.5030   71.2864  221.0665 H   0  0  0  0  0  0  0  0  0  0  0  0
  144.2660   73.1160  220.1800 C   0  0  0  0  0  0  0  0  0  0  0  0
  145.5870   72.5110  219.8040 C   0  0  0  0  0  0  0  0  0  0  0  0
  146.1460   72.2550  220.7162 H   0  0  0  0  0  0  0  0  0  0  0  0
  145.4177   71.6007  219.2101 H   0  0  0  0  0  0  0  0  0  0  0  0
  146.1656   73.2339  219.2101 H   0  0  0  0  0  0  0  0  0  0  0  0
  144.0140   74.4740  219.9310 C   0  0  0  0  0  0  0  0  0  0  0  0
  144.7770   75.0890  219.4314 H   0  0  0  0  0  0  0  0  0  0  0  0
  142.7900   75.0540  220.3170 C   0  0  0  0  0  0  0  0  0  0  0  0
  142.4870   76.4050  220.0760 C   0  0  0  0  0  0  0  0  0  0  0  0
  143.3350   77.1270  219.4810 O   0  0  0  0  0  0  0  0  0  0  0  0
  141.2770   76.9340  220.4740 N   0  0  0  0  0  0  0  0  0  0  0  0
  140.9690   78.3530  220.1780 C   0  0  0  0  0  0  0  0  0  0  0  0
  141.4628   78.6387  219.2375 H   0  0  0  0  0  0  0  0  0  0  0  0
  139.8778   78.4620  220.0917 H   0  0  0  0  0  0  0  0  0  0  0  0
  141.4540   79.2590  221.2840 C   0  0  0  0  0  0  0  0  0  0  0  0
  141.9670   78.7150  222.4750 C   0  0  0  0  0  0  0  0  0  0  0  0
  142.0183   77.6235  222.6013 H   0  0  0  0  0  0  0  0  0  0  0  0
  142.4120   79.5560  223.4990 C   0  0  0  0  0  0  0  0  0  0  0  0
  142.8221   79.1248  224.4241 H   0  0  0  0  0  0  0  0  0  0  0  0
  142.3370   80.9430  223.3500 C   0  0  0  0  0  0  0  0  0  0  0  0
  142.6928   81.6025  224.1553 H   0  0  0  0  0  0  0  0  0  0  0  0
  141.8100   81.4930  222.1780 C   0  0  0  0  0  0  0  0  0  0  0  0
  141.7469   82.5852  222.0635 H   0  0  0  0  0  0  0  0  0  0  0  0
  141.3630   80.6560  221.1510 C   0  0  0  0  0  0  0  0  0  0  0  0
  140.9383   81.0923  220.2349 H   0  0  0  0  0  0  0  0  0  0  0  0
  138.5940   78.7200  222.8220 C   0  0  0  0  0  0  0  0  0  0  0  0
  137.9110   79.3640  221.7780 C   0  0  0  0  0  0  0  0  0  0  0  0
  137.5709   78.7834  220.9078 H   0  0  0  0  0  0  0  0  0  0  0  0
  137.6670   80.7000  221.8350 N   0  0  0  0  0  0  0  0  0  0  0  0
  138.0780   81.4580  222.8840 C   0  0  0  0  0  0  0  0  0  0  0  0
  137.8599   82.5360  222.9022 H   0  0  0  0  0  0  0  0  0  0  0  0
  138.7770   80.8700  223.9390 C   0  0  0  0  0  0  0  0  0  0  0  0
  139.1175   81.4809  224.7880 H   0  0  0  0  0  0  0  0  0  0  0  0
  139.0400   79.5000  223.9070 C   0  0  0  0  0  0  0  0  0  0  0  0
  139.5965   79.0283  224.7303 H   0  0  0  0  0  0  0  0  0  0  0  0
  1  2  1  0
  2  3  2  0
  3  4  1  0
  3  5  1  0
  5  6  2  0
  6  7  1  0
  7  8  2  0
  8  9  1  0
  8 10  1  0
 10 11  1  0
 10 12  2  0
 12 13  1  0
 13 14  1  0
 13 15  1  0
 13 16  1  0
 12 17  1  0
 17 18  1  0
 17 19  2  0
 19 20  1  0
 20 21  2  0
 20 22  1  0
 22 23  1  0
 23 24  1  0
 23 25  1  0
 23 26  1  0
 26 27  2  0
 27 28  1  0
 27 29  1  0
 29 30  1  0
 29 31  2  0
 31 32  1  0
 31 33  1  0
 33 34  1  0
 33 35  2  0
 35 36  1  0
  2 37  1  0
 37 38  2  0
 38 39  1  0
 38 40  1  0
 40 41  2  0
 41 42  1  0
 41 43  1  0
 43 44  1  0
 43 45  2  0
 45 46  1  0
 22  5  1  0
 35 26  1  0
 45 37  1  0
 19  7  1  0
M  END
>  <UniqueID>  (5) 
112

>  <SMILES>  (5) 
Cc1ccc2nc(/C=C/c3cccnc3)n(Cc3ccccc3)c(=O)c2c1

>  <Energy>  (5) 
62.89609464147982

>  <Genealogy>  (5) 
Cc1ccc2nc(/C=C/c3cccnc3)n(Cc3ccccc3)c(=O)c2c1 (cis-trans isomerization)
Cc1ccc2nc(/C=C/c3cccnc3)n(Cc3ccccc3)c(=O)c2c1 (3D coordinates assigned)
Cc1ccc2nc(/C=C/c3cccnc3)n(Cc3ccccc3)c(=O)c2c1 (optimized conformer: 62.89609464147982 kcal/mol)

>  <smiles>  (5) 
Cc1ccc2nc(/C=C/c3cccnc3)n(Cc3ccccc3)c(=O)c2c1

>  <score_type>  (5) 
oracle

>  <origin>  (5) 
autodockgpu

>  <m_score__min__energy>  (5) 
-7.29

>  <m_primary>  (5) 
energy

>  <meeko>  (5) 
{"free_energy": -6.67, "intermolecular_energy": -8.16, "internal_energy": -1.93, "cluster_size": 10, "cluster_id": 4, "rank_in_cluster": 7}

>  <energy>  (5) 
-7.24

>  <cluster_rmsd>  (5) 
0.15

>  <rmsd>  (5) 
270.71

>  <cluster>  (5) 
2

$$$$
WSOSBBRZSAQCQS-ZRDIBKRKNA-N
     RDKit          3D

 46 49  0  0  0  0  0  0  0  0999 V2000
  143.7020   75.9760  218.0930 H   0  0  0  0  0  0  0  0  0  0  0  0
  143.6100   75.5850  219.1170 C   0  0  0  0  0  0  0  0  0  0  0  0
  142.7170   76.1580  219.9380 C   0  0  0  0  0  0  0  0  0  0  0  0
  142.8045   77.2335  220.1515 H   0  0  0  0  0  0  0  0  0  0  0  0
  141.6110   75.3860  220.5700 C   0  0  0  0  0  0  0  0  0  0  0  0
  141.8090   74.0600  220.8000 N   0  0  0  0  0  0  0  0  0  0  0  0
  140.8680   73.2770  221.3720 C   0  0  0  0  0  0  0  0  0  0  0  0
  141.1210   71.9180  221.5800 C   0  0  0  0  0  0  0  0  0  0  0  0
  142.0861   71.4865  221.2760 H   0  0  0  0  0  0  0  0  0  0  0  0
  140.1510   71.1070  222.1730 C   0  0  0  0  0  0  0  0  0  0  0  0
  140.3505   70.0359  222.3247 H   0  0  0  0  0  0  0  0  0  0  0  0
  138.9230   71.6530  222.5760 C   0  0  0  0  0  0  0  0  0  0  0  0
  137.8670   70.7720  223.1770 C   0  0  0  0  0  0  0  0  0  0  0  0
  137.9279   70.8228  224.2741 H   0  0  0  0  0  0  0  0  0  0  0  0
  136.8742   71.1134  222.8487 H   0  0  0  0  0  0  0  0  0  0  0  0
  138.0249   69.7341  222.8487 H   0  0  0  0  0  0  0  0  0  0  0  0
  138.6630   73.0140  222.3510 C   0  0  0  0  0  0  0  0  0  0  0  0
  137.6927   73.4416  222.6437 H   0  0  0  0  0  0  0  0  0  0  0  0
  139.6390   73.8350  221.7520 C   0  0  0  0  0  0  0  0  0  0  0  0
  139.4300   75.2050  221.5190 C   0  0  0  0  0  0  0  0  0  0  0  0
  138.3340   75.7270  221.8680 O   0  0  0  0  0  0  0  0  0  0  0  0
  140.4110   75.9730  220.9270 N   0  0  0  0  0  0  0  0  0  0  0  0
  140.1780   77.4220  220.7230 C   0  0  0  0  0  0  0  0  0  0  0  0
  140.4616   77.6900  219.6945 H   0  0  0  0  0  0  0  0  0  0  0  0
  139.1125   77.6322  220.8979 H   0  0  0  0  0  0  0  0  0  0  0  0
  140.9940   78.2460  221.6900 C   0  0  0  0  0  0  0  0  0  0  0  0
  141.7290   79.3550  221.2360 C   0  0  0  0  0  0  0  0  0  0  0  0
  141.7075   79.6268  220.1703 H   0  0  0  0  0  0  0  0  0  0  0  0
  142.4870   80.1140  222.1320 C   0  0  0  0  0  0  0  0  0  0  0  0
  143.0523   80.9861  221.7715 H   0  0  0  0  0  0  0  0  0  0  0  0
  142.5280   79.7670  223.4850 C   0  0  0  0  0  0  0  0  0  0  0  0
  143.1202   80.3692  224.1897 H   0  0  0  0  0  0  0  0  0  0  0  0
  141.8160   78.6540  223.9430 C   0  0  0  0  0  0  0  0  0  0  0  0
  141.8526   78.3781  225.0072 H   0  0  0  0  0  0  0  0  0  0  0  0
  141.0580   77.8920  223.0500 C   0  0  0  0  0  0  0  0  0  0  0  0
  140.5085   77.0107  223.4124 H   0  0  0  0  0  0  0  0  0  0  0  0
  144.4800   74.4520  219.5170 C   0  0  0  0  0  0  0  0  0  0  0  0
  144.8050   73.4730  218.5640 C   0  0  0  0  0  0  0  0  0  0  0  0
  144.4241   73.5637  217.5360 H   0  0  0  0  0  0  0  0  0  0  0  0
  145.5870   72.4140  218.9030 N   0  0  0  0  0  0  0  0  0  0  0  0
  146.0700   72.2560  220.1620 C   0  0  0  0  0  0  0  0  0  0  0  0
  146.7046   71.3903  220.4026 H   0  0  0  0  0  0  0  0  0  0  0  0
  145.7620   73.1910  221.1510 C   0  0  0  0  0  0  0  0  0  0  0  0
  146.1468   73.0647  222.1737 H   0  0  0  0  0  0  0  0  0  0  0  0
  144.9610   74.2880  220.8300 C   0  0  0  0  0  0  0  0  0  0  0  0
  144.7050   75.0260  221.6045 H   0  0  0  0  0  0  0  0  0  0  0  0
  1  2  1  0
  2  3  2  0
  3  4  1  0
  3  5  1  0
  5  6  2  0
  6  7  1  0
  7  8  2  0
  8  9  1  0
  8 10  1  0
 10 11  1  0
 10 12  2  0
 12 13  1  0
 13 14  1  0
 13 15  1  0
 13 16  1  0
 12 17  1  0
 17 18  1  0
 17 19  2  0
 19 20  1  0
 20 21  2  0
 20 22  1  0
 22 23  1  0
 23 24  1  0
 23 25  1  0
 23 26  1  0
 26 27  2  0
 27 28  1  0
 27 29  1  0
 29 30  1  0
 29 31  2  0
 31 32  1  0
 31 33  1  0
 33 34  1  0
 33 35  2  0
 35 36  1  0
  2 37  1  0
 37 38  2  0
 38 39  1  0
 38 40  1  0
 40 41  2  0
 41 42  1  0
 41 43  1  0
 43 44  1  0
 43 45  2  0
 45 46  1  0
 22  5  1  0
 35 26  1  0
 45 37  1  0
 19  7  1  0
M  END
>  <UniqueID>  (6) 
112

>  <SMILES>  (6) 
Cc1ccc2nc(/C=C/c3cccnc3)n(Cc3ccccc3)c(=O)c2c1

>  <Energy>  (6) 
62.89609464147982

>  <Genealogy>  (6) 
Cc1ccc2nc(/C=C/c3cccnc3)n(Cc3ccccc3)c(=O)c2c1 (cis-trans isomerization)
Cc1ccc2nc(/C=C/c3cccnc3)n(Cc3ccccc3)c(=O)c2c1 (3D coordinates assigned)
Cc1ccc2nc(/C=C/c3cccnc3)n(Cc3ccccc3)c(=O)c2c1 (optimized conformer: 62.89609464147982 kcal/mol)

>  <smiles>  (6) 
Cc1ccc2nc(/C=C/c3cccnc3)n(Cc3ccccc3)c(=O)c2c1

>  <score_type>  (6) 
oracle

>  <origin>  (6) 
autodockgpu

>  <m_score__min__energy>  (6) 
-7.29

>  <m_primary>  (6) 
energy

>  <meeko>  (6) 
{"free_energy": -7.25, "intermolecular_energy": -8.74, "internal_energy": -1.37, "cluster_size": 4, "cluster_id": 2, "rank_in_cluster": 3}

>  <energy>  (6) 
-7.27

>  <cluster_rmsd>  (6) 
0.0

>  <rmsd>  (6) 
270.5

>  <cluster>  (6) 
3

$$$$
WSOSBBRZSAQCQS-ZRDIBKRKNA-N
     RDKit          3D

 46 49  0  0  0  0  0  0  0  0999 V2000
  138.8845   76.6456  223.6541 H   0  0  0  0  0  0  0  0  0  0  0  0
  138.8490   77.2190  222.7160 C   0  0  0  0  0  0  0  0  0  0  0  0
  139.0170   76.5580  221.5600 C   0  0  0  0  0  0  0  0  0  0  0  0
  138.1394   76.3653  220.9254 H   0  0  0  0  0  0  0  0  0  0  0  0
  140.3510   76.0770  221.1080 C   0  0  0  0  0  0  0  0  0  0  0  0
  140.6700   74.7740  221.3360 N   0  0  0  0  0  0  0  0  0  0  0  0
  141.8540   74.2430  220.9590 C   0  0  0  0  0  0  0  0  0  0  0  0
  142.1330   72.8990  221.2230 C   0  0  0  0  0  0  0  0  0  0  0  0
  141.3885   72.2749  221.7390 H   0  0  0  0  0  0  0  0  0  0  0  0
  143.3550   72.3470  220.8330 C   0  0  0  0  0  0  0  0  0  0  0  0
  143.5747   71.2919  221.0533 H   0  0  0  0  0  0  0  0  0  0  0  0
  144.3040   73.1330  220.1610 C   0  0  0  0  0  0  0  0  0  0  0  0
  145.6320   72.5480  219.7780 C   0  0  0  0  0  0  0  0  0  0  0  0
  146.1986   72.2984  220.6872 H   0  0  0  0  0  0  0  0  0  0  0  0
  145.4733   71.6365  219.1831 H   0  0  0  0  0  0  0  0  0  0  0  0
  146.1974   73.2803  219.1831 H   0  0  0  0  0  0  0  0  0  0  0  0
  144.0300   74.4860  219.9120 C   0  0  0  0  0  0  0  0  0  0  0  0
  144.7805   75.1121  219.4073 H   0  0  0  0  0  0  0  0  0  0  0  0
  142.7980   75.0480  220.3050 C   0  0  0  0  0  0  0  0  0  0  0  0
  142.4730   76.3930  220.0650 C   0  0  0  0  0  0  0  0  0  0  0  0
  143.3060   77.1280  219.4640 O   0  0  0  0  0  0  0  0  0  0  0  0
  141.2570   76.9030  220.4690 N   0  0  0  0  0  0  0  0  0  0  0  0
  140.9250   78.3170  220.1740 C   0  0  0  0  0  0  0  0  0  0  0  0
  141.3881   78.6023  219.2179 H   0  0  0  0  0  0  0  0  0  0  0  0
  139.8306   78.4136  220.1191 H   0  0  0  0  0  0  0  0  0  0  0  0
  141.4320   79.2350  221.2600 C   0  0  0  0  0  0  0  0  0  0  0  0
  141.3340   80.6300  221.1160 C   0  0  0  0  0  0  0  0  0  0  0  0
  140.8828   81.0561  220.2078 H   0  0  0  0  0  0  0  0  0  0  0  0
  141.8070   81.4780  222.1210 C   0  0  0  0  0  0  0  0  0  0  0  0
  141.7183   82.5684  222.0066 H   0  0  0  0  0  0  0  0  0  0  0  0
  142.3930   80.9420  223.2720 C   0  0  0  0  0  0  0  0  0  0  0  0
  142.7595   81.6106  224.0649 H   0  0  0  0  0  0  0  0  0  0  0  0
  142.5130   79.5580  223.4150 C   0  0  0  0  0  0  0  0  0  0  0  0
  142.9789   79.1377  224.3184 H   0  0  0  0  0  0  0  0  0  0  0  0
  142.0420   78.7060  222.4120 C   0  0  0  0  0  0  0  0  0  0  0  0
  142.1488   77.6169  222.5240 H   0  0  0  0  0  0  0  0  0  0  0  0
  138.6180   78.6820  222.7950 C   0  0  0  0  0  0  0  0  0  0  0  0
  139.1640   79.4010  223.8710 C   0  0  0  0  0  0  0  0  0  0  0  0
  139.7630   78.8771  224.6304 H   0  0  0  0  0  0  0  0  0  0  0  0
  138.9570   80.7400  223.9800 N   0  0  0  0  0  0  0  0  0  0  0  0
  138.2150   81.4260  223.0730 C   0  0  0  0  0  0  0  0  0  0  0  0
  138.0704   82.5103  223.1883 H   0  0  0  0  0  0  0  0  0  0  0  0
  137.6360   80.7560  221.9950 C   0  0  0  0  0  0  0  0  0  0  0  0
  137.0307   81.3064  221.2597 H   0  0  0  0  0  0  0  0  0  0  0  0
  137.8320   79.3800  221.8580 C   0  0  0  0  0  0  0  0  0  0  0  0
  137.3717   78.8407  221.0170 H   0  0  0  0  0  0  0  0  0  0  0  0
  1  2  1  0
  2  3  2  0
  3  4  1  0
  3  5  1  0
  5  6  2  0
  6  7  1  0
  7  8  2  0
  8  9  1  0
  8 10  1  0
 10 11  1  0
 10 12  2  0
 12 13  1  0
 13 14  1  0
 13 15  1  0
 13 16  1  0
 12 17  1  0
 17 18  1  0
 17 19  2  0
 19 20  1  0
 20 21  2  0
 20 22  1  0
 22 23  1  0
 23 24  1  0
 23 25  1  0
 23 26  1  0
 26 27  2  0
 27 28  1  0
 27 29  1  0
 29 30  1  0
 29 31  2  0
 31 32  1  0
 31 33  1  0
 33 34  1  0
 33 35  2  0
 35 36  1  0
  2 37  1  0
 37 38  2  0
 38 39  1  0
 38 40  1  0
 40 41  2  0
 41 42  1  0
 41 43  1  0
 43 44  1  0
 43 45  2  0
 45 46  1  0
 22  5  1  0
 35 26  1  0
 45 37  1  0
 19  7  1  0
M  END
>  <UniqueID>  (7) 
112

>  <SMILES>  (7) 
Cc1ccc2nc(/C=C/c3cccnc3)n(Cc3ccccc3)c(=O)c2c1

>  <Energy>  (7) 
62.89609464147982

>  <Genealogy>  (7) 
Cc1ccc2nc(/C=C/c3cccnc3)n(Cc3ccccc3)c(=O)c2c1 (cis-trans isomerization)
Cc1ccc2nc(/C=C/c3cccnc3)n(Cc3ccccc3)c(=O)c2c1 (3D coordinates assigned)
Cc1ccc2nc(/C=C/c3cccnc3)n(Cc3ccccc3)c(=O)c2c1 (optimized conformer: 62.89609464147982 kcal/mol)

>  <smiles>  (7) 
Cc1ccc2nc(/C=C/c3cccnc3)n(Cc3ccccc3)c(=O)c2c1

>  <score_type>  (7) 
oracle

>  <origin>  (7) 
autodockgpu

>  <m_score__min__energy>  (7) 
-7.29

>  <m_primary>  (7) 
energy

>  <meeko>  (7) 
{"free_energy": -6.58, "intermolecular_energy": -8.07, "internal_energy": -1.93, "cluster_size": 10, "cluster_id": 4, "rank_in_cluster": 9}

>  <energy>  (7) 
-7.25

>  <cluster_rmsd>  (7) 
0.06

>  <rmsd>  (7) 
270.49

>  <cluster>  (7) 
3

$$$$
WSOSBBRZSAQCQS-ZRDIBKRKNA-N
     RDKit          3D

 46 49  0  0  0  0  0  0  0  0999 V2000
  141.8816   72.6601  222.0961 H   0  0  0  0  0  0  0  0  0  0  0  0
  140.7990   72.7190  222.2820 C   0  0  0  0  0  0  0  0  0  0  0  0
  140.0910   73.6490  221.6230 C   0  0  0  0  0  0  0  0  0  0  0  0
  139.1074   73.3764  221.2129 H   0  0  0  0  0  0  0  0  0  0  0  0
  140.5920   75.0380  221.4280 C   0  0  0  0  0  0  0  0  0  0  0  0
  140.1560   76.0000  222.2850 N   0  0  0  0  0  0  0  0  0  0  0  0
  140.5570   77.2870  222.1910 C   0  0  0  0  0  0  0  0  0  0  0  0
  140.0720   78.2380  223.0950 C   0  0  0  0  0  0  0  0  0  0  0  0
  139.3632   77.9373  223.8806 H   0  0  0  0  0  0  0  0  0  0  0  0
  140.4860   79.5680  223.0020 C   0  0  0  0  0  0  0  0  0  0  0  0
  140.0927   80.3148  223.7074 H   0  0  0  0  0  0  0  0  0  0  0  0
  141.4020   79.9560  222.0120 C   0  0  0  0  0  0  0  0  0  0  0  0
  141.8160   81.3930  221.8900 C   0  0  0  0  0  0  0  0  0  0  0  0
  141.9405   81.8252  222.8938 H   0  0  0  0  0  0  0  0  0  0  0  0
  142.7685   81.4550  221.3434 H   0  0  0  0  0  0  0  0  0  0  0  0
  141.0425   81.9523  221.3434 H   0  0  0  0  0  0  0  0  0  0  0  0
  141.8740   79.0050  221.0950 C   0  0  0  0  0  0  0  0  0  0  0  0
  142.5727   79.3098  220.3020 H   0  0  0  0  0  0  0  0  0  0  0  0
  141.4580   77.6610  221.1840 C   0  0  0  0  0  0  0  0  0  0  0  0
  141.9140   76.6710  220.2980 C   0  0  0  0  0  0  0  0  0  0  0  0
  142.7380   76.9880  219.3940 O   0  0  0  0  0  0  0  0  0  0  0  0
  141.4790   75.3680  220.4190 N   0  0  0  0  0  0  0  0  0  0  0  0
  142.0020   74.3360  219.4930 C   0  0  0  0  0  0  0  0  0  0  0  0
  141.2755   73.5128  219.4256 H   0  0  0  0  0  0  0  0  0  0  0  0
  142.1561   74.7982  218.5068 H   0  0  0  0  0  0  0  0  0  0  0  0
  143.3230   73.7890  219.9770 C   0  0  0  0  0  0  0  0  0  0  0  0
  144.3480   74.6610  220.3850 C   0  0  0  0  0  0  0  0  0  0  0  0
  144.1858   75.7486  220.3553 H   0  0  0  0  0  0  0  0  0  0  0  0
  145.5720   74.1520  220.8280 C   0  0  0  0  0  0  0  0  0  0  0  0
  146.3668   74.8392  221.1536 H   0  0  0  0  0  0  0  0  0  0  0  0
  145.7880   72.7710  220.8580 C   0  0  0  0  0  0  0  0  0  0  0  0
  146.7495   72.3723  221.2137 H   0  0  0  0  0  0  0  0  0  0  0  0
  144.7820   71.8970  220.4360 C   0  0  0  0  0  0  0  0  0  0  0  0
  144.9544   70.8108  220.4549 H   0  0  0  0  0  0  0  0  0  0  0  0
  143.5570   72.4020  219.9900 C   0  0  0  0  0  0  0  0  0  0  0  0
  142.7723   71.7113  219.6476 H   0  0  0  0  0  0  0  0  0  0  0  0
  140.2000   71.7670  223.2470 C   0  0  0  0  0  0  0  0  0  0  0  0
  139.0690   71.0280  222.8620 C   0  0  0  0  0  0  0  0  0  0  0  0
  138.6513   71.1544  221.8523 H   0  0  0  0  0  0  0  0  0  0  0  0
  138.4870   70.1570  223.7300 N   0  0  0  0  0  0  0  0  0  0  0  0
  138.9610   69.9780  224.9890 C   0  0  0  0  0  0  0  0  0  0  0  0
  138.4692   69.2627  225.6647 H   0  0  0  0  0  0  0  0  0  0  0  0
  140.0710   70.7000  225.4270 C   0  0  0  0  0  0  0  0  0  0  0  0
  140.4561   70.5611  226.4480 H   0  0  0  0  0  0  0  0  0  0  0  0
  140.6890   71.6010  224.5570 C   0  0  0  0  0  0  0  0  0  0  0  0
  141.5594   72.1821  224.8958 H   0  0  0  0  0  0  0  0  0  0  0  0
  1  2  1  0
  2  3  2  0
  3  4  1  0
  3  5  1  0
  5  6  2  0
  6  7  1  0
  7  8  2  0
  8  9  1  0
  8 10  1  0
 10 11  1  0
 10 12  2  0
 12 13  1  0
 13 14  1  0
 13 15  1  0
 13 16  1  0
 12 17  1  0
 17 18  1  0
 17 19  2  0
 19 20  1  0
 20 21  2  0
 20 22  1  0
 22 23  1  0
 23 24  1  0
 23 25  1  0
 23 26  1  0
 26 27  2  0
 27 28  1  0
 27 29  1  0
 29 30  1  0
 29 31  2  0
 31 32  1  0
 31 33  1  0
 33 34  1  0
 33 35  2  0
 35 36  1  0
  2 37  1  0
 37 38  2  0
 38 39  1  0
 38 40  1  0
 40 41  2  0
 41 42  1  0
 41 43  1  0
 43 44  1  0
 43 45  2  0
 45 46  1  0
 22  5  1  0
 35 26  1  0
 45 37  1  0
 19  7  1  0
M  END
>  <UniqueID>  (8) 
112

>  <SMILES>  (8) 
Cc1ccc2nc(/C=C/c3cccnc3)n(Cc3ccccc3)c(=O)c2c1

>  <Energy>  (8) 
62.89609464147982

>  <Genealogy>  (8) 
Cc1ccc2nc(/C=C/c3cccnc3)n(Cc3ccccc3)c(=O)c2c1 (cis-trans isomerization)
Cc1ccc2nc(/C=C/c3cccnc3)n(Cc3ccccc3)c(=O)c2c1 (3D coordinates assigned)
Cc1ccc2nc(/C=C/c3cccnc3)n(Cc3ccccc3)c(=O)c2c1 (optimized conformer: 62.89609464147982 kcal/mol)

>  <smiles>  (8) 
Cc1ccc2nc(/C=C/c3cccnc3)n(Cc3ccccc3)c(=O)c2c1

>  <score_type>  (8) 
oracle

>  <origin>  (8) 
autodockgpu

>  <m_score__min__energy>  (8) 
-7.29

>  <m_primary>  (8) 
energy

>  <meeko>  (8) 
{"free_energy": -7.29, "intermolecular_energy": -8.78, "internal_energy": -1.16, "cluster_size": 1, "cluster_id": 1, "rank_in_cluster": 1}

>  <energy>  (8) 
-7.25

>  <cluster_rmsd>  (8) 
0.05

>  <rmsd>  (8) 
270.49

>  <cluster>  (8) 
3

$$$$
WSOSBBRZSAQCQS-ZRDIBKRKNA-N
     RDKit          3D

 46 49  0  0  0  0  0  0  0  0999 V2000
  138.8897   76.6463  223.6427 H   0  0  0  0  0  0  0  0  0  0  0  0
  138.8420   77.2370  222.7160 C   0  0  0  0  0  0  0  0  0  0  0  0
  139.0150   76.6010  221.5470 C   0  0  0  0  0  0  0  0  0  0  0  0
  138.1440   76.4407  220.8946 H   0  0  0  0  0  0  0  0  0  0  0  0
  140.3480   76.1050  221.1040 C   0  0  0  0  0  0  0  0  0  0  0  0
  140.6510   74.7990  221.3330 N   0  0  0  0  0  0  0  0  0  0  0  0
  141.8320   74.2560  220.9650 C   0  0  0  0  0  0  0  0  0  0  0  0
  142.0950   72.9090  221.2300 C   0  0  0  0  0  0  0  0  0  0  0  0
  141.3404   72.2926  221.7405 H   0  0  0  0  0  0  0  0  0  0  0  0
  143.3140   72.3440  220.8480 C   0  0  0  0  0  0  0  0  0  0  0  0
  143.5208   71.2863  221.0684 H   0  0  0  0  0  0  0  0  0  0  0  0
  144.2760   73.1210  220.1840 C   0  0  0  0  0  0  0  0  0  0  0  0
  145.6010   72.5220  219.8100 C   0  0  0  0  0  0  0  0  0  0  0  0
  146.1600   72.2693  220.7231 H   0  0  0  0  0  0  0  0  0  0  0  0
  145.4369   71.6105  219.2165 H   0  0  0  0  0  0  0  0  0  0  0  0
  146.1769   73.2473  219.2165 H   0  0  0  0  0  0  0  0  0  0  0  0
  144.0180   74.4770  219.9340 C   0  0  0  0  0  0  0  0  0  0  0  0
  144.7784   75.0956  219.4348 H   0  0  0  0  0  0  0  0  0  0  0  0
  142.7900   75.0510  220.3190 C   0  0  0  0  0  0  0  0  0  0  0  0
  142.4810   76.4000  220.0770 C   0  0  0  0  0  0  0  0  0  0  0  0
  143.3260   77.1270  219.4830 O   0  0  0  0  0  0  0  0  0  0  0  0
  141.2680   76.9230  220.4730 N   0  0  0  0  0  0  0  0  0  0  0  0
  140.9530   78.3400  220.1760 C   0  0  0  0  0  0  0  0  0  0  0  0
  141.4316   78.6228  219.2268 H   0  0  0  0  0  0  0  0  0  0  0  0
  139.8605   78.4470  220.1060 H   0  0  0  0  0  0  0  0  0  0  0  0
  141.4540   79.2510  221.2710 C   0  0  0  0  0  0  0  0  0  0  0  0
  141.9880   78.7130  222.4550 C   0  0  0  0  0  0  0  0  0  0  0  0
  142.0448   77.6220  222.5838 H   0  0  0  0  0  0  0  0  0  0  0  0
  142.4470   79.5580  223.4690 C   0  0  0  0  0  0  0  0  0  0  0  0
  142.8711   79.1310  224.3897 H   0  0  0  0  0  0  0  0  0  0  0  0
  142.3680   80.9450  223.3150 C   0  0  0  0  0  0  0  0  0  0  0  0
  142.7359   81.6084  224.1116 H   0  0  0  0  0  0  0  0  0  0  0  0
  141.8220   81.4890  222.1500 C   0  0  0  0  0  0  0  0  0  0  0  0
  141.7563   82.5807  222.0320 H   0  0  0  0  0  0  0  0  0  0  0  0
  141.3590   80.6480  221.1340 C   0  0  0  0  0  0  0  0  0  0  0  0
  140.9185   81.0803  220.2235 H   0  0  0  0  0  0  0  0  0  0  0  0
  138.5900   78.6940  222.8240 C   0  0  0  0  0  0  0  0  0  0  0  0
  137.8660   79.3380  221.8070 C   0  0  0  0  0  0  0  0  0  0  0  0
  137.4865   78.7558  220.9543 H   0  0  0  0  0  0  0  0  0  0  0  0
  137.6310   80.6750  221.8690 N   0  0  0  0  0  0  0  0  0  0  0  0
  138.0900   81.4360  222.8960 C   0  0  0  0  0  0  0  0  0  0  0  0
  137.8792   82.5154  222.9181 H   0  0  0  0  0  0  0  0  0  0  0  0
  138.8290   80.8480  223.9230 C   0  0  0  0  0  0  0  0  0  0  0  0
  139.2065   81.4600  224.7554 H   0  0  0  0  0  0  0  0  0  0  0  0
  139.0850   79.4770  223.8850 C   0  0  0  0  0  0  0  0  0  0  0  0
  139.6748   79.0065  224.6855 H   0  0  0  0  0  0  0  0  0  0  0  0
  1  2  1  0
  2  3  2  0
  3  4  1  0
  3  5  1  0
  5  6  2  0
  6  7  1  0
  7  8  2  0
  8  9  1  0
  8 10  1  0
 10 11  1  0
 10 12  2  0
 12 13  1  0
 13 14  1  0
 13 15  1  0
 13 16  1  0
 12 17  1  0
 17 18  1  0
 17 19  2  0
 19 20  1  0
 20 21  2  0
 20 22  1  0
 22 23  1  0
 23 24  1  0
 23 25  1  0
 23 26  1  0
 26 27  2  0
 27 28  1  0
 27 29  1  0
 29 30  1  0
 29 31  2  0
 31 32  1  0
 31 33  1  0
 33 34  1  0
 33 35  2  0
 35 36  1  0
  2 37  1  0
 37 38  2  0
 38 39  1  0
 38 40  1  0
 40 41  2  0
 41 42  1  0
 41 43  1  0
 43 44  1  0
 43 45  2  0
 45 46  1  0
 22  5  1  0
 35 26  1  0
 45 37  1  0
 19  7  1  0
M  END
>  <UniqueID>  (9) 
112

>  <SMILES>  (9) 
Cc1ccc2nc(/C=C/c3cccnc3)n(Cc3ccccc3)c(=O)c2c1

>  <Energy>  (9) 
62.89609464147982

>  <Genealogy>  (9) 
Cc1ccc2nc(/C=C/c3cccnc3)n(Cc3ccccc3)c(=O)c2c1 (cis-trans isomerization)
Cc1ccc2nc(/C=C/c3cccnc3)n(Cc3ccccc3)c(=O)c2c1 (3D coordinates assigned)
Cc1ccc2nc(/C=C/c3cccnc3)n(Cc3ccccc3)c(=O)c2c1 (optimized conformer: 62.89609464147982 kcal/mol)

>  <smiles>  (9) 
Cc1ccc2nc(/C=C/c3cccnc3)n(Cc3ccccc3)c(=O)c2c1

>  <score_type>  (9) 
oracle

>  <origin>  (9) 
autodockgpu

>  <m_score__min__energy>  (9) 
-7.29

>  <m_primary>  (9) 
energy

>  <meeko>  (9) 
{"free_energy": -6.68, "intermolecular_energy": -8.17, "internal_energy": -1.93, "cluster_size": 10, "cluster_id": 4, "rank_in_cluster": 3}

>  <energy>  (9) 
-7.24

>  <cluster_rmsd>  (9) 
0.1

>  <rmsd>  (9) 
270.49

>  <cluster>  (9) 
3

$$$$
WSOSBBRZSAQCQS-ZRDIBKRKNA-N
     RDKit          3D

 46 49  0  0  0  0  0  0  0  0999 V2000
  143.7503   76.0111  218.0584 H   0  0  0  0  0  0  0  0  0  0  0  0
  143.6470   75.6140  219.0790 C   0  0  0  0  0  0  0  0  0  0  0  0
  142.7490   76.1860  219.8960 C   0  0  0  0  0  0  0  0  0  0  0  0
  142.8249   77.2647  220.0975 H   0  0  0  0  0  0  0  0  0  0  0  0
  141.6530   75.4090  220.5390 C   0  0  0  0  0  0  0  0  0  0  0  0
  141.8580   74.0830  220.7640 N   0  0  0  0  0  0  0  0  0  0  0  0
  140.9270   73.2960  221.3460 C   0  0  0  0  0  0  0  0  0  0  0  0
  141.1870   71.9370  221.5480 C   0  0  0  0  0  0  0  0  0  0  0  0
  142.1499   71.5094  221.2319 H   0  0  0  0  0  0  0  0  0  0  0  0
  140.2270   71.1220  222.1500 C   0  0  0  0  0  0  0  0  0  0  0  0
  140.4322   70.0513  222.2968 H   0  0  0  0  0  0  0  0  0  0  0  0
  139.0010   71.6620  222.5690 C   0  0  0  0  0  0  0  0  0  0  0  0
  137.9560   70.7760  223.1800 C   0  0  0  0  0  0  0  0  0  0  0  0
  138.0228   70.8326  224.2765 H   0  0  0  0  0  0  0  0  0  0  0  0
  136.9586   71.1079  222.8557 H   0  0  0  0  0  0  0  0  0  0  0  0
  138.1203   69.7378  222.8557 H   0  0  0  0  0  0  0  0  0  0  0  0
  138.7340   73.0220  222.3490 C   0  0  0  0  0  0  0  0  0  0  0  0
  137.7654   73.4453  222.6534 H   0  0  0  0  0  0  0  0  0  0  0  0
  139.7000   73.8490  221.7400 C   0  0  0  0  0  0  0  0  0  0  0  0
  139.4840   75.2180  221.5130 C   0  0  0  0  0  0  0  0  0  0  0  0
  138.3900   75.7360  221.8760 O   0  0  0  0  0  0  0  0  0  0  0  0
  140.4550   75.9910  220.9110 N   0  0  0  0  0  0  0  0  0  0  0  0
  140.2150   77.4400  220.7140 C   0  0  0  0  0  0  0  0  0  0  0  0
  140.4860   77.7117  219.6831 H   0  0  0  0  0  0  0  0  0  0  0  0
  139.1509   77.6455  220.9024 H   0  0  0  0  0  0  0  0  0  0  0  0
  141.0380   78.2650  221.6730 C   0  0  0  0  0  0  0  0  0  0  0  0
  141.0690   77.9430  223.0420 C   0  0  0  0  0  0  0  0  0  0  0  0
  140.4931   77.0837  223.4160 H   0  0  0  0  0  0  0  0  0  0  0  0
  141.8290   78.7110  223.9290 C   0  0  0  0  0  0  0  0  0  0  0  0
  141.8565   78.4490  224.9970 H   0  0  0  0  0  0  0  0  0  0  0  0
  142.5540   79.8110  223.4620 C   0  0  0  0  0  0  0  0  0  0  0  0
  143.1564   80.4101  224.1608 H   0  0  0  0  0  0  0  0  0  0  0  0
  142.5130   80.1490  222.1070 C   0  0  0  0  0  0  0  0  0  0  0  0
  143.0796   81.0178  221.7408 H   0  0  0  0  0  0  0  0  0  0  0  0
  141.7540   79.3860  221.2160 C   0  0  0  0  0  0  0  0  0  0  0  0
  141.7162   79.6633  220.1522 H   0  0  0  0  0  0  0  0  0  0  0  0
  144.5070   74.4750  219.4800 C   0  0  0  0  0  0  0  0  0  0  0  0
  144.8680   73.5210  218.5140 C   0  0  0  0  0  0  0  0  0  0  0  0
  144.5203   73.6357  217.4767 H   0  0  0  0  0  0  0  0  0  0  0  0
  145.6440   72.4570  218.8520 N   0  0  0  0  0  0  0  0  0  0  0  0
  146.0860   72.2690  220.1230 C   0  0  0  0  0  0  0  0  0  0  0  0
  146.7161   71.3999  220.3630 H   0  0  0  0  0  0  0  0  0  0  0  0
  145.7410   73.1780  221.1240 C   0  0  0  0  0  0  0  0  0  0  0  0
  146.0922   73.0276  222.1555 H   0  0  0  0  0  0  0  0  0  0  0  0
  144.9460   74.2800  220.8040 C   0  0  0  0  0  0  0  0  0  0  0  0
  144.6618   74.9977  221.5877 H   0  0  0  0  0  0  0  0  0  0  0  0
  1  2  1  0
  2  3  2  0
  3  4  1  0
  3  5  1  0
  5  6  2  0
  6  7  1  0
  7  8  2  0
  8  9  1  0
  8 10  1  0
 10 11  1  0
 10 12  2  0
 12 13  1  0
 13 14  1  0
 13 15  1  0
 13 16  1  0
 12 17  1  0
 17 18  1  0
 17 19  2  0
 19 20  1  0
 20 21  2  0
 20 22  1  0
 22 23  1  0
 23 24  1  0
 23 25  1  0
 23 26  1  0
 26 27  2  0
 27 28  1  0
 27 29  1  0
 29 30  1  0
 29 31  2  0
 31 32  1  0
 31 33  1  0
 33 34  1  0
 33 35  2  0
 35 36  1  0
  2 37  1  0
 37 38  2  0
 38 39  1  0
 38 40  1  0
 40 41  2  0
 41 42  1  0
 41 43  1  0
 43 44  1  0
 43 45  2  0
 45 46  1  0
 22  5  1  0
 35 26  1  0
 45 37  1  0
 19  7  1  0
M  END
>  <UniqueID>  (10) 
112

>  <SMILES>  (10) 
Cc1ccc2nc(/C=C/c3cccnc3)n(Cc3ccccc3)c(=O)c2c1

>  <Energy>  (10) 
62.89609464147982

>  <Genealogy>  (10) 
Cc1ccc2nc(/C=C/c3cccnc3)n(Cc3ccccc3)c(=O)c2c1 (cis-trans isomerization)
Cc1ccc2nc(/C=C/c3cccnc3)n(Cc3ccccc3)c(=O)c2c1 (3D coordinates assigned)
Cc1ccc2nc(/C=C/c3cccnc3)n(Cc3ccccc3)c(=O)c2c1 (optimized conformer: 62.89609464147982 kcal/mol)

>  <smiles>  (10) 
Cc1ccc2nc(/C=C/c3cccnc3)n(Cc3ccccc3)c(=O)c2c1

>  <score_type>  (10) 
oracle

>  <origin>  (10) 
autodockgpu

>  <m_score__min__energy>  (10) 
-7.29

>  <m_primary>  (10) 
energy

>  <meeko>  (10) 
{"free_energy": -7.24, "intermolecular_energy": -8.73, "internal_energy": -1.36, "cluster_size": 4, "cluster_id": 2, "rank_in_cluster": 4}

>  <energy>  (10) 
-7.17

>  <cluster_rmsd>  (10) 
0.19

>  <rmsd>  (10) 
270.45

>  <cluster>  (10) 
3

$$$$
WSOSBBRZSAQCQS-ZRDIBKRKNA-N
     RDKit          3D

 46 49  0  0  0  0  0  0  0  0999 V2000
  138.9021   76.6554  223.6336 H   0  0  0  0  0  0  0  0  0  0  0  0
  138.8520   77.2430  222.7050 C   0  0  0  0  0  0  0  0  0  0  0  0
  139.0230   76.6030  221.5380 C   0  0  0  0  0  0  0  0  0  0  0  0
  138.1510   76.4411  220.8874 H   0  0  0  0  0  0  0  0  0  0  0  0
  140.3540   76.1050  221.0950 C   0  0  0  0  0  0  0  0  0  0  0  0
  140.6560   74.7980  221.3250 N   0  0  0  0  0  0  0  0  0  0  0  0
  141.8350   74.2520  220.9560 C   0  0  0  0  0  0  0  0  0  0  0  0
  142.0960   72.9050  221.2240 C   0  0  0  0  0  0  0  0  0  0  0  0
  141.3413   72.2913  221.7376 H   0  0  0  0  0  0  0  0  0  0  0  0
  143.3130   72.3370  220.8410 C   0  0  0  0  0  0  0  0  0  0  0  0
  143.5176   71.2791  221.0621 H   0  0  0  0  0  0  0  0  0  0  0  0
  144.2760   73.1110  220.1750 C   0  0  0  0  0  0  0  0  0  0  0  0
  145.5990   72.5090  219.8000 C   0  0  0  0  0  0  0  0  0  0  0  0
  146.1580   72.2547  220.7126 H   0  0  0  0  0  0  0  0  0  0  0  0
  145.4323   71.5981  219.2063 H   0  0  0  0  0  0  0  0  0  0  0  0
  146.1762   73.2331  219.2063 H   0  0  0  0  0  0  0  0  0  0  0  0
  144.0200   74.4670  219.9230 C   0  0  0  0  0  0  0  0  0  0  0  0
  144.7810   75.0833  219.4219 H   0  0  0  0  0  0  0  0  0  0  0  0
  142.7940   75.0440  220.3080 C   0  0  0  0  0  0  0  0  0  0  0  0
  142.4870   76.3940  220.0650 C   0  0  0  0  0  0  0  0  0  0  0  0
  143.3330   77.1180  219.4690 O   0  0  0  0  0  0  0  0  0  0  0  0
  141.2750   76.9190  220.4610 N   0  0  0  0  0  0  0  0  0  0  0  0
  140.9630   78.3370  220.1620 C   0  0  0  0  0  0  0  0  0  0  0  0
  141.4598   78.6235  219.2233 H   0  0  0  0  0  0  0  0  0  0  0  0
  139.8718   78.4419  220.0710 H   0  0  0  0  0  0  0  0  0  0  0  0
  141.4400   79.2460  221.2690 C   0  0  0  0  0  0  0  0  0  0  0  0
  141.3800   80.6420  221.1190 C   0  0  0  0  0  0  0  0  0  0  0  0
  140.9796   81.0761  220.1910 H   0  0  0  0  0  0  0  0  0  0  0  0
  141.8270   81.4820  222.1440 C   0  0  0  0  0  0  0  0  0  0  0  0
  141.7690   82.5739  222.0240 H   0  0  0  0  0  0  0  0  0  0  0  0
  142.3470   80.9360  223.3200 C   0  0  0  0  0  0  0  0  0  0  0  0
  142.6922   81.5982  224.1277 H   0  0  0  0  0  0  0  0  0  0  0  0
  142.4290   79.5490  223.4710 C   0  0  0  0  0  0  0  0  0  0  0  0
  142.8432   79.1203  224.3955 H   0  0  0  0  0  0  0  0  0  0  0  0
  141.9850   78.7060  222.4480 C   0  0  0  0  0  0  0  0  0  0  0  0
  142.0622   77.6150  222.5656 H   0  0  0  0  0  0  0  0  0  0  0  0
  138.5990   78.7010  222.8090 C   0  0  0  0  0  0  0  0  0  0  0  0
  137.9120   79.3480  221.7690 C   0  0  0  0  0  0  0  0  0  0  0  0
  137.5618   78.7687  220.9020 H   0  0  0  0  0  0  0  0  0  0  0  0
  137.6770   80.6860  221.8270 N   0  0  0  0  0  0  0  0  0  0  0  0
  138.1000   81.4420  222.8730 C   0  0  0  0  0  0  0  0  0  0  0  0
  137.8881   82.5212  222.8922 H   0  0  0  0  0  0  0  0  0  0  0  0
  138.8030   80.8510  223.9230 C   0  0  0  0  0  0  0  0  0  0  0  0
  139.1529   81.4601  224.7695 H   0  0  0  0  0  0  0  0  0  0  0  0
  139.0580   79.4790  223.8890 C   0  0  0  0  0  0  0  0  0  0  0  0
  139.6188   79.0046  224.7078 H   0  0  0  0  0  0  0  0  0  0  0  0
  1  2  1  0
  2  3  2  0
  3  4  1  0
  3  5  1  0
  5  6  2  0
  6  7  1  0
  7  8  2  0
  8  9  1  0
  8 10  1  0
 10 11  1  0
 10 12  2  0
 12 13  1  0
 13 14  1  0
 13 15  1  0
 13 16  1  0
 12 17  1  0
 17 18  1  0
 17 19  2  0
 19 20  1  0
 20 21  2  0
 20 22  1  0
 22 23  1  0
 23 24  1  0
 23 25  1  0
 23 26  1  0
 26 27  2  0
 27 28  1  0
 27 29  1  0
 29 30  1  0
 29 31  2  0
 31 32  1  0
 31 33  1  0
 33 34  1  0
 33 35  2  0
 35 36  1  0
  2 37  1  0
 37 38  2  0
 38 39  1  0
 38 40  1  0
 40 41  2  0
 41 42  1  0
 41 43  1  0
 43 44  1  0
 43 45  2  0
 45 46  1  0
 22  5  1  0
 35 26  1  0
 45 37  1  0
 19  7  1  0
M  END
>  <UniqueID>  (11) 
112

>  <SMILES>  (11) 
Cc1ccc2nc(/C=C/c3cccnc3)n(Cc3ccccc3)c(=O)c2c1

>  <Energy>  (11) 
62.89609464147982

>  <Genealogy>  (11) 
Cc1ccc2nc(/C=C/c3cccnc3)n(Cc3ccccc3)c(=O)c2c1 (cis-trans isomerization)
Cc1ccc2nc(/C=C/c3cccnc3)n(Cc3ccccc3)c(=O)c2c1 (3D coordinates assigned)
Cc1ccc2nc(/C=C/c3cccnc3)n(Cc3ccccc3)c(=O)c2c1 (optimized conformer: 62.89609464147982 kcal/mol)

>  <smiles>  (11) 
Cc1ccc2nc(/C=C/c3cccnc3)n(Cc3ccccc3)c(=O)c2c1

>  <score_type>  (11) 
oracle

>  <origin>  (11) 
autodockgpu

>  <m_score__min__energy>  (11) 
-7.29

>  <m_primary>  (11) 
energy

>  <meeko>  (11) 
{"free_energy": -6.67, "intermolecular_energy": -8.16, "internal_energy": -1.94, "cluster_size": 10, "cluster_id": 4, "rank_in_cluster": 8}

>  <energy>  (11) 
-6.68

>  <cluster_rmsd>  (11) 
0.0

>  <rmsd>  (11) 
271.26

>  <cluster>  (11) 
4

$$$$
WSOSBBRZSAQCQS-ZRDIBKRKNA-N
     RDKit          3D

 46 49  0  0  0  0  0  0  0  0999 V2000
  138.9033   76.6692  223.6447 H   0  0  0  0  0  0  0  0  0  0  0  0
  138.8460   77.2590  222.7180 C   0  0  0  0  0  0  0  0  0  0  0  0
  139.0160   76.6230  221.5480 C   0  0  0  0  0  0  0  0  0  0  0  0
  138.1437   76.4661  220.8965 H   0  0  0  0  0  0  0  0  0  0  0  0
  140.3460   76.1230  221.1030 C   0  0  0  0  0  0  0  0  0  0  0  0
  140.6450   74.8150  221.3320 N   0  0  0  0  0  0  0  0  0  0  0  0
  141.8230   74.2680  220.9620 C   0  0  0  0  0  0  0  0  0  0  0  0
  142.0820   72.9200  221.2280 C   0  0  0  0  0  0  0  0  0  0  0  0
  141.3263   72.3069  221.7409 H   0  0  0  0  0  0  0  0  0  0  0  0
  143.2980   72.3500  220.8440 C   0  0  0  0  0  0  0  0  0  0  0  0
  143.5009   71.2916  221.0643 H   0  0  0  0  0  0  0  0  0  0  0  0
  144.2620   73.1230  220.1780 C   0  0  0  0  0  0  0  0  0  0  0  0
  145.5830   72.5200  219.8020 C   0  0  0  0  0  0  0  0  0  0  0  0
  146.1424   72.2646  220.7141 H   0  0  0  0  0  0  0  0  0  0  0  0
  145.4147   71.6095  219.2081 H   0  0  0  0  0  0  0  0  0  0  0  0
  146.1606   73.2436  219.2081 H   0  0  0  0  0  0  0  0  0  0  0  0
  144.0080   74.4800  219.9280 C   0  0  0  0  0  0  0  0  0  0  0  0
  144.7700   75.0956  219.4276 H   0  0  0  0  0  0  0  0  0  0  0  0
  142.7830   75.0590  220.3140 C   0  0  0  0  0  0  0  0  0  0  0  0
  142.4780   76.4090  220.0730 C   0  0  0  0  0  0  0  0  0  0  0  0
  143.3250   77.1320  219.4770 O   0  0  0  0  0  0  0  0  0  0  0  0
  141.2680   76.9370  220.4700 N   0  0  0  0  0  0  0  0  0  0  0  0
  140.9580   78.3550  220.1730 C   0  0  0  0  0  0  0  0  0  0  0  0
  141.4622   78.6448  219.2393 H   0  0  0  0  0  0  0  0  0  0  0  0
  139.8676   78.4601  220.0731 H   0  0  0  0  0  0  0  0  0  0  0  0
  141.4260   79.2600  221.2870 C   0  0  0  0  0  0  0  0  0  0  0  0
  141.3600   80.6580  221.1430 C   0  0  0  0  0  0  0  0  0  0  0  0
  140.9627   81.0948  220.2149 H   0  0  0  0  0  0  0  0  0  0  0  0
  141.7970   81.4940  222.1740 C   0  0  0  0  0  0  0  0  0  0  0  0
  141.7333   82.5862  222.0599 H   0  0  0  0  0  0  0  0  0  0  0  0
  142.3150   80.9440  223.3500 C   0  0  0  0  0  0  0  0  0  0  0  0
  142.6536   81.6035  224.1626 H   0  0  0  0  0  0  0  0  0  0  0  0
  142.4030   79.5570  223.4940 C   0  0  0  0  0  0  0  0  0  0  0  0
  142.8151   79.1256  224.4182 H   0  0  0  0  0  0  0  0  0  0  0  0
  141.9680   78.7170  222.4650 C   0  0  0  0  0  0  0  0  0  0  0  0
  142.0502   77.6259  222.5775 H   0  0  0  0  0  0  0  0  0  0  0  0
  138.5850   78.7150  222.8270 C   0  0  0  0  0  0  0  0  0  0  0  0
  137.8840   79.3600  221.7950 C   0  0  0  0  0  0  0  0  0  0  0  0
  137.5293   78.7803  220.9301 H   0  0  0  0  0  0  0  0  0  0  0  0
  137.6410   80.6960  221.8580 N   0  0  0  0  0  0  0  0  0  0  0  0
  138.0710   81.4530  222.9010 C   0  0  0  0  0  0  0  0  0  0  0  0
  137.8537   82.5311  222.9240 H   0  0  0  0  0  0  0  0  0  0  0  0
  138.7880   80.8640  223.9430 C   0  0  0  0  0  0  0  0  0  0  0  0
  139.1433   81.4736  224.7868 H   0  0  0  0  0  0  0  0  0  0  0  0
  139.0500   79.4930  223.9040 C   0  0  0  0  0  0  0  0  0  0  0  0
  139.6209   79.0200  224.7166 H   0  0  0  0  0  0  0  0  0  0  0  0
  1  2  1  0
  2  3  2  0
  3  4  1  0
  3  5  1  0
  5  6  2  0
  6  7  1  0
  7  8  2  0
  8  9  1  0
  8 10  1  0
 10 11  1  0
 10 12  2  0
 12 13  1  0
 13 14  1  0
 13 15  1  0
 13 16  1  0
 12 17  1  0
 17 18  1  0
 17 19  2  0
 19 20  1  0
 20 21  2  0
 20 22  1  0
 22 23  1  0
 23 24  1  0
 23 25  1  0
 23 26  1  0
 26 27  2  0
 27 28  1  0
 27 29  1  0
 29 30  1  0
 29 31  2  0
 31 32  1  0
 31 33  1  0
 33 34  1  0
 33 35  2  0
 35 36  1  0
  2 37  1  0
 37 38  2  0
 38 39  1  0
 38 40  1  0
 40 41  2  0
 41 42  1  0
 41 43  1  0
 43 44  1  0
 43 45  2  0
 45 46  1  0
 22  5  1  0
 35 26  1  0
 45 37  1  0
 19  7  1  0
M  END
>  <UniqueID>  (12) 
112

>  <SMILES>  (12) 
Cc1ccc2nc(/C=C/c3cccnc3)n(Cc3ccccc3)c(=O)c2c1

>  <Energy>  (12) 
62.89609464147982

>  <Genealogy>  (12) 
Cc1ccc2nc(/C=C/c3cccnc3)n(Cc3ccccc3)c(=O)c2c1 (cis-trans isomerization)
Cc1ccc2nc(/C=C/c3cccnc3)n(Cc3ccccc3)c(=O)c2c1 (3D coordinates assigned)
Cc1ccc2nc(/C=C/c3cccnc3)n(Cc3ccccc3)c(=O)c2c1 (optimized conformer: 62.89609464147982 kcal/mol)

>  <smiles>  (12) 
Cc1ccc2nc(/C=C/c3cccnc3)n(Cc3ccccc3)c(=O)c2c1

>  <score_type>  (12) 
oracle

>  <origin>  (12) 
autodockgpu

>  <m_score__min__energy>  (12) 
-7.29

>  <m_primary>  (12) 
energy

>  <meeko>  (12) 
{"free_energy": -6.68, "intermolecular_energy": -8.17, "internal_energy": -1.93, "cluster_size": 10, "cluster_id": 4, "rank_in_cluster": 6}

>  <energy>  (12) 
-6.68

>  <cluster_rmsd>  (12) 
0.04

>  <rmsd>  (12) 
271.26

>  <cluster>  (12) 
4

$$$$
WSOSBBRZSAQCQS-ZRDIBKRKNA-N
     RDKit          3D

 46 49  0  0  0  0  0  0  0  0999 V2000
  136.0364   72.4467  223.5194 H   0  0  0  0  0  0  0  0  0  0  0  0
  135.8170   73.5220  223.4440 C   0  0  0  0  0  0  0  0  0  0  0  0
  136.2430   74.1830  222.3570 C   0  0  0  0  0  0  0  0  0  0  0  0
  135.6151   74.1820  221.4538 H   0  0  0  0  0  0  0  0  0  0  0  0
  137.5380   74.9180  222.3330 C   0  0  0  0  0  0  0  0  0  0  0  0
  137.5330   76.2310  222.6890 N   0  0  0  0  0  0  0  0  0  0  0  0
  138.6570   76.9810  222.7030 C   0  0  0  0  0  0  0  0  0  0  0  0
  138.5940   78.3280  223.0710 C   0  0  0  0  0  0  0  0  0  0  0  0
  137.6284   78.7769  223.3470 H   0  0  0  0  0  0  0  0  0  0  0  0
  139.7540   79.1050  223.0890 C   0  0  0  0  0  0  0  0  0  0  0  0
  139.6977   80.1670  223.3699 H   0  0  0  0  0  0  0  0  0  0  0  0
  140.9920   78.5360  222.7500 C   0  0  0  0  0  0  0  0  0  0  0  0
  142.2310   79.3820  222.7320 C   0  0  0  0  0  0  0  0  0  0  0  0
  142.5441   79.5958  223.7646 H   0  0  0  0  0  0  0  0  0  0  0  0
  143.0351   78.8435  222.2091 H   0  0  0  0  0  0  0  0  0  0  0  0
  142.0222   80.3270  222.2091 H   0  0  0  0  0  0  0  0  0  0  0  0
  141.0500   77.1880  222.3630 C   0  0  0  0  0  0  0  0  0  0  0  0
  142.0136   76.7434  222.0735 H   0  0  0  0  0  0  0  0  0  0  0  0
  139.8820   76.4010  222.3430 C   0  0  0  0  0  0  0  0  0  0  0  0
  139.8940   75.0440  221.9770 C   0  0  0  0  0  0  0  0  0  0  0  0
  140.9910   74.5020  221.6650 O   0  0  0  0  0  0  0  0  0  0  0  0
  138.7260   74.3110  221.9680 N   0  0  0  0  0  0  0  0  0  0  0  0
  138.7710   72.8730  221.6110 C   0  0  0  0  0  0  0  0  0  0  0  0
  137.8015   72.5791  221.1825 H   0  0  0  0  0  0  0  0  0  0  0  0
  139.5796   72.7202  220.8811 H   0  0  0  0  0  0  0  0  0  0  0  0
  139.0530   72.0190  222.8230 C   0  0  0  0  0  0  0  0  0  0  0  0
  140.3110   72.0640  223.4490 C   0  0  0  0  0  0  0  0  0  0  0  0
  141.0947   72.7278  223.0550 H   0  0  0  0  0  0  0  0  0  0  0  0
  140.5710   71.2700  224.5690 C   0  0  0  0  0  0  0  0  0  0  0  0
  141.5539   71.3186  225.0604 H   0  0  0  0  0  0  0  0  0  0  0  0
  139.5840   70.4140  225.0660 C   0  0  0  0  0  0  0  0  0  0  0  0
  139.7889   69.7932  225.9506 H   0  0  0  0  0  0  0  0  0  0  0  0
  138.3370   70.3470  224.4390 C   0  0  0  0  0  0  0  0  0  0  0  0
  137.5623   69.6697  224.8277 H   0  0  0  0  0  0  0  0  0  0  0  0
  138.0730   71.1400  223.3180 C   0  0  0  0  0  0  0  0  0  0  0  0
  137.0939   71.0760  222.8208 H   0  0  0  0  0  0  0  0  0  0  0  0
  135.0660   74.1650  224.5490 C   0  0  0  0  0  0  0  0  0  0  0  0
  134.3430   73.3570  225.4420 C   0  0  0  0  0  0  0  0  0  0  0  0
  134.3520   72.2639  225.3195 H   0  0  0  0  0  0  0  0  0  0  0  0
  133.6320   73.9170  226.4570 N   0  0  0  0  0  0  0  0  0  0  0  0
  133.5850   75.2610  226.6400 C   0  0  0  0  0  0  0  0  0  0  0  0
  133.0047   75.6817  227.4744 H   0  0  0  0  0  0  0  0  0  0  0  0
  134.2720   76.1100  225.7710 C   0  0  0  0  0  0  0  0  0  0  0  0
  134.2321   77.2002  225.9123 H   0  0  0  0  0  0  0  0  0  0  0  0
  135.0100   75.5620  224.7210 C   0  0  0  0  0  0  0  0  0  0  0  0
  135.5492   76.2225  224.0260 H   0  0  0  0  0  0  0  0  0  0  0  0
  1  2  1  0
  2  3  2  0
  3  4  1  0
  3  5  1  0
  5  6  2  0
  6  7  1  0
  7  8  2  0
  8  9  1  0
  8 10  1  0
 10 11  1  0
 10 12  2  0
 12 13  1  0
 13 14  1  0
 13 15  1  0
 13 16  1  0
 12 17  1  0
 17 18  1  0
 17 19  2  0
 19 20  1  0
 20 21  2  0
 20 22  1  0
 22 23  1  0
 23 24  1  0
 23 25  1  0
 23 26  1  0
 26 27  2  0
 27 28  1  0
 27 29  1  0
 29 30  1  0
 29 31  2  0
 31 32  1  0
 31 33  1  0
 33 34  1  0
 33 35  2  0
 35 36  1  0
  2 37  1  0
 37 38  2  0
 38 39  1  0
 38 40  1  0
 40 41  2  0
 41 42  1  0
 41 43  1  0
 43 44  1  0
 43 45  2  0
 45 46  1  0
 22  5  1  0
 35 26  1  0
 45 37  1  0
 19  7  1  0
M  END
>  <UniqueID>  (13) 
112

>  <SMILES>  (13) 
Cc1ccc2nc(/C=C/c3cccnc3)n(Cc3ccccc3)c(=O)c2c1

>  <Energy>  (13) 
62.89609464147982

>  <Genealogy>  (13) 
Cc1ccc2nc(/C=C/c3cccnc3)n(Cc3ccccc3)c(=O)c2c1 (cis-trans isomerization)
Cc1ccc2nc(/C=C/c3cccnc3)n(Cc3ccccc3)c(=O)c2c1 (3D coordinates assigned)
Cc1ccc2nc(/C=C/c3cccnc3)n(Cc3ccccc3)c(=O)c2c1 (optimized conformer: 62.89609464147982 kcal/mol)

>  <smiles>  (13) 
Cc1ccc2nc(/C=C/c3cccnc3)n(Cc3ccccc3)c(=O)c2c1

>  <score_type>  (13) 
oracle

>  <origin>  (13) 
autodockgpu

>  <m_score__min__energy>  (13) 
-7.29

>  <m_primary>  (13) 
energy

>  <meeko>  (13) 
{"free_energy": -7.25, "intermolecular_energy": -8.75, "internal_energy": -1.38, "cluster_size": 5, "cluster_id": 3, "rank_in_cluster": 2}

>  <energy>  (13) 
-6.68

>  <cluster_rmsd>  (13) 
0.03

>  <rmsd>  (13) 
271.27

>  <cluster>  (13) 
4

$$$$
WSOSBBRZSAQCQS-ZRDIBKRKNA-N
     RDKit          3D

 46 49  0  0  0  0  0  0  0  0999 V2000
  143.6300   75.9539  218.1663 H   0  0  0  0  0  0  0  0  0  0  0  0
  143.5710   75.5480  219.1870 C   0  0  0  0  0  0  0  0  0  0  0  0
  142.7070   76.1110  220.0460 C   0  0  0  0  0  0  0  0  0  0  0  0
  142.8403   77.1686  220.3174 H   0  0  0  0  0  0  0  0  0  0  0  0
  141.5740   75.3520  220.6440 C   0  0  0  0  0  0  0  0  0  0  0  0
  141.7620   74.0310  220.9110 N   0  0  0  0  0  0  0  0  0  0  0  0
  140.7970   73.2600  221.4570 C   0  0  0  0  0  0  0  0  0  0  0  0
  141.0410   71.9050  221.7050 C   0  0  0  0  0  0  0  0  0  0  0  0
  142.0185   71.4681  221.4529 H   0  0  0  0  0  0  0  0  0  0  0  0
  140.0460   71.1060  222.2720 C   0  0  0  0  0  0  0  0  0  0  0  0
  140.2393   70.0390  222.4569 H   0  0  0  0  0  0  0  0  0  0  0  0
  138.8000   71.6590  222.6070 C   0  0  0  0  0  0  0  0  0  0  0  0
  137.7190   70.7890  223.1790 C   0  0  0  0  0  0  0  0  0  0  0  0
  137.7628   70.8243  224.2776 H   0  0  0  0  0  0  0  0  0  0  0  0
  136.7378   71.1522  222.8393 H   0  0  0  0  0  0  0  0  0  0  0  0
  137.8641   69.7529  222.8393 H   0  0  0  0  0  0  0  0  0  0  0  0
  138.5510   73.0140  222.3410 C   0  0  0  0  0  0  0  0  0  0  0  0
  137.5684   73.4464  222.5808 H   0  0  0  0  0  0  0  0  0  0  0  0
  139.5510   73.8240  221.7690 C   0  0  0  0  0  0  0  0  0  0  0  0
  139.3530   75.1880  221.4980 C   0  0  0  0  0  0  0  0  0  0  0  0
  138.2420   75.7160  221.7870 O   0  0  0  0  0  0  0  0  0  0  0  0
  140.3590   75.9440  220.9340 N   0  0  0  0  0  0  0  0  0  0  0  0
  140.1350   77.3890  220.6900 C   0  0  0  0  0  0  0  0  0  0  0  0
  140.4344   77.6296  219.6592 H   0  0  0  0  0  0  0  0  0  0  0  0
  139.0680   77.6073  220.8446 H   0  0  0  0  0  0  0  0  0  0  0  0
  140.9400   78.2350  221.6470 C   0  0  0  0  0  0  0  0  0  0  0  0
  141.6090   79.3840  221.1900 C   0  0  0  0  0  0  0  0  0  0  0  0
  141.5445   79.6704  220.1299 H   0  0  0  0  0  0  0  0  0  0  0  0
  142.3560   80.1640  222.0780 C   0  0  0  0  0  0  0  0  0  0  0  0
  142.8683   81.0682  221.7173 H   0  0  0  0  0  0  0  0  0  0  0  0
  142.4530   79.7970  223.4230 C   0  0  0  0  0  0  0  0  0  0  0  0
  143.0370   80.4148  224.1210 H   0  0  0  0  0  0  0  0  0  0  0  0
  141.8080   78.6450  223.8810 C   0  0  0  0  0  0  0  0  0  0  0  0
  141.8893   78.3541  224.9387 H   0  0  0  0  0  0  0  0  0  0  0  0
  141.0600   77.8620  222.9980 C   0  0  0  0  0  0  0  0  0  0  0  0
  140.5630   76.9502  223.3608 H   0  0  0  0  0  0  0  0  0  0  0  0
  144.4500   74.4080  219.5410 C   0  0  0  0  0  0  0  0  0  0  0  0
  144.7850   73.4720  218.5480 C   0  0  0  0  0  0  0  0  0  0  0  0
  144.4037   73.6013  217.5243 H   0  0  0  0  0  0  0  0  0  0  0  0
  145.5770   72.4080  218.8440 N   0  0  0  0  0  0  0  0  0  0  0  0
  146.0590   72.2010  220.0960 C   0  0  0  0  0  0  0  0  0  0  0  0
  146.7006   71.3314  220.3012 H   0  0  0  0  0  0  0  0  0  0  0  0
  145.7410   73.0910  221.1230 C   0  0  0  0  0  0  0  0  0  0  0  0
  146.1253   72.9252  222.1403 H   0  0  0  0  0  0  0  0  0  0  0  0
  144.9310   74.1930  220.8470 C   0  0  0  0  0  0  0  0  0  0  0  0
  144.6675   74.8955  221.6514 H   0  0  0  0  0  0  0  0  0  0  0  0
  1  2  1  0
  2  3  2  0
  3  4  1  0
  3  5  1  0
  5  6  2  0
  6  7  1  0
  7  8  2  0
  8  9  1  0
  8 10  1  0
 10 11  1  0
 10 12  2  0
 12 13  1  0
 13 14  1  0
 13 15  1  0
 13 16  1  0
 12 17  1  0
 17 18  1  0
 17 19  2  0
 19 20  1  0
 20 21  2  0
 20 22  1  0
 22 23  1  0
 23 24  1  0
 23 25  1  0
 23 26  1  0
 26 27  2  0
 27 28  1  0
 27 29  1  0
 29 30  1  0
 29 31  2  0
 31 32  1  0
 31 33  1  0
 33 34  1  0
 33 35  2  0
 35 36  1  0
  2 37  1  0
 37 38  2  0
 38 39  1  0
 38 40  1  0
 40 41  2  0
 41 42  1  0
 41 43  1  0
 43 44  1  0
 43 45  2  0
 45 46  1  0
 22  5  1  0
 35 26  1  0
 45 37  1  0
 19  7  1  0
M  END
>  <UniqueID>  (14) 
112

>  <SMILES>  (14) 
Cc1ccc2nc(/C=C/c3cccnc3)n(Cc3ccccc3)c(=O)c2c1

>  <Energy>  (14) 
62.89609464147982

>  <Genealogy>  (14) 
Cc1ccc2nc(/C=C/c3cccnc3)n(Cc3ccccc3)c(=O)c2c1 (cis-trans isomerization)
Cc1ccc2nc(/C=C/c3cccnc3)n(Cc3ccccc3)c(=O)c2c1 (3D coordinates assigned)
Cc1ccc2nc(/C=C/c3cccnc3)n(Cc3ccccc3)c(=O)c2c1 (optimized conformer: 62.89609464147982 kcal/mol)

>  <smiles>  (14) 
Cc1ccc2nc(/C=C/c3cccnc3)n(Cc3ccccc3)c(=O)c2c1

>  <score_type>  (14) 
oracle

>  <origin>  (14) 
autodockgpu

>  <m_score__min__energy>  (14) 
-7.29

>  <m_primary>  (14) 
energy

>  <meeko>  (14) 
{"free_energy": -7.28, "intermolecular_energy": -8.77, "internal_energy": -1.36, "cluster_size": 4, "cluster_id": 2, "rank_in_cluster": 1}

>  <energy>  (14) 
-6.68

>  <cluster_rmsd>  (14) 
0.03

>  <rmsd>  (14) 
271.26

>  <cluster>  (14) 
4

$$$$
WSOSBBRZSAQCQS-ZRDIBKRKNA-N
     RDKit          3D

 46 49  0  0  0  0  0  0  0  0999 V2000
  138.8864   76.6337  223.6466 H   0  0  0  0  0  0  0  0  0  0  0  0
  138.8420   77.2120  222.7120 C   0  0  0  0  0  0  0  0  0  0  0  0
  139.0180   76.5600  221.5520 C   0  0  0  0  0  0  0  0  0  0  0  0
  138.1450   76.3726  220.9095 H   0  0  0  0  0  0  0  0  0  0  0  0
  140.3560   76.0820  221.1060 C   0  0  0  0  0  0  0  0  0  0  0  0
  140.6760   74.7790  221.3340 N   0  0  0  0  0  0  0  0  0  0  0  0
  141.8630   74.2520  220.9620 C   0  0  0  0  0  0  0  0  0  0  0  0
  142.1440   72.9080  221.2260 C   0  0  0  0  0  0  0  0  0  0  0  0
  141.3985   72.2816  221.7377 H   0  0  0  0  0  0  0  0  0  0  0  0
  143.3700   72.3590  220.8410 C   0  0  0  0  0  0  0  0  0  0  0  0
  143.5911   71.3041  221.0609 H   0  0  0  0  0  0  0  0  0  0  0  0
  144.3200   73.1480  220.1750 C   0  0  0  0  0  0  0  0  0  0  0  0
  145.6510   72.5670  219.7980 C   0  0  0  0  0  0  0  0  0  0  0  0
  146.2151   72.3208  220.7097 H   0  0  0  0  0  0  0  0  0  0  0  0
  145.4975   71.6540  219.2040 H   0  0  0  0  0  0  0  0  0  0  0  0
  146.2162   73.3003  219.2040 H   0  0  0  0  0  0  0  0  0  0  0  0
  144.0440   74.5020  219.9270 C   0  0  0  0  0  0  0  0  0  0  0  0
  144.7955   75.1309  219.4272 H   0  0  0  0  0  0  0  0  0  0  0  0
  142.8090   75.0600  220.3150 C   0  0  0  0  0  0  0  0  0  0  0  0
  142.4820   76.4050  220.0750 C   0  0  0  0  0  0  0  0  0  0  0  0
  143.3170   77.1430  219.4800 O   0  0  0  0  0  0  0  0  0  0  0  0
  141.2630   76.9120  220.4730 N   0  0  0  0  0  0  0  0  0  0  0  0
  140.9300   78.3250  220.1780 C   0  0  0  0  0  0  0  0  0  0  0  0
  141.4058   78.6154  219.2297 H   0  0  0  0  0  0  0  0  0  0  0  0
  139.8362   78.4179  220.1072 H   0  0  0  0  0  0  0  0  0  0  0  0
  141.4180   79.2410  221.2750 C   0  0  0  0  0  0  0  0  0  0  0  0
  141.3800   80.6370  221.1050 C   0  0  0  0  0  0  0  0  0  0  0  0
  140.9899   81.0648  220.1697 H   0  0  0  0  0  0  0  0  0  0  0  0
  141.8360   81.4820  222.1200 C   0  0  0  0  0  0  0  0  0  0  0  0
  141.7952   82.5730  221.9855 H   0  0  0  0  0  0  0  0  0  0  0  0
  142.3440   80.9440  223.3060 C   0  0  0  0  0  0  0  0  0  0  0  0
  142.6974   81.6116  224.1056 H   0  0  0  0  0  0  0  0  0  0  0  0
  142.4030   79.5580  223.4760 C   0  0  0  0  0  0  0  0  0  0  0  0
  142.8064   79.1353  224.4080 H   0  0  0  0  0  0  0  0  0  0  0  0
  141.9500   78.7090  222.4630 C   0  0  0  0  0  0  0  0  0  0  0  0
  142.0098   77.6186  222.5955 H   0  0  0  0  0  0  0  0  0  0  0  0
  138.5910   78.6700  222.8000 C   0  0  0  0  0  0  0  0  0  0  0  0
  137.9070   79.3090  221.7530 C   0  0  0  0  0  0  0  0  0  0  0  0
  137.5571   78.7217  220.8913 H   0  0  0  0  0  0  0  0  0  0  0  0
  137.6740   80.6470  221.7960 N   0  0  0  0  0  0  0  0  0  0  0  0
  138.0970   81.4130  222.8350 C   0  0  0  0  0  0  0  0  0  0  0  0
  137.8883   82.4930  222.8423 H   0  0  0  0  0  0  0  0  0  0  0  0
  138.7960   80.8310  223.8930 C   0  0  0  0  0  0  0  0  0  0  0  0
  139.1444   81.4481  224.7343 H   0  0  0  0  0  0  0  0  0  0  0  0
  139.0490   79.4590  223.8740 C   0  0  0  0  0  0  0  0  0  0  0  0
  139.6071   78.9923  224.6990 H   0  0  0  0  0  0  0  0  0  0  0  0
  1  2  1  0
  2  3  2  0
  3  4  1  0
  3  5  1  0
  5  6  2  0
  6  7  1  0
  7  8  2  0
  8  9  1  0
  8 10  1  0
 10 11  1  0
 10 12  2  0
 12 13  1  0
 13 14  1  0
 13 15  1  0
 13 16  1  0
 12 17  1  0
 17 18  1  0
 17 19  2  0
 19 20  1  0
 20 21  2  0
 20 22  1  0
 22 23  1  0
 23 24  1  0
 23 25  1  0
 23 26  1  0
 26 27  2  0
 27 28  1  0
 27 29  1  0
 29 30  1  0
 29 31  2  0
 31 32  1  0
 31 33  1  0
 33 34  1  0
 33 35  2  0
 35 36  1  0
  2 37  1  0
 37 38  2  0
 38 39  1  0
 38 40  1  0
 40 41  2  0
 41 42  1  0
 41 43  1  0
 43 44  1  0
 43 45  2  0
 45 46  1  0
 22  5  1  0
 35 26  1  0
 45 37  1  0
 19  7  1  0
M  END
>  <UniqueID>  (15) 
112

>  <SMILES>  (15) 
Cc1ccc2nc(/C=C/c3cccnc3)n(Cc3ccccc3)c(=O)c2c1

>  <Energy>  (15) 
62.89609464147982

>  <Genealogy>  (15) 
Cc1ccc2nc(/C=C/c3cccnc3)n(Cc3ccccc3)c(=O)c2c1 (cis-trans isomerization)
Cc1ccc2nc(/C=C/c3cccnc3)n(Cc3ccccc3)c(=O)c2c1 (3D coordinates assigned)
Cc1ccc2nc(/C=C/c3cccnc3)n(Cc3ccccc3)c(=O)c2c1 (optimized conformer: 62.89609464147982 kcal/mol)

>  <smiles>  (15) 
Cc1ccc2nc(/C=C/c3cccnc3)n(Cc3ccccc3)c(=O)c2c1

>  <score_type>  (15) 
oracle

>  <origin>  (15) 
autodockgpu

>  <m_score__min__energy>  (15) 
-7.29

>  <m_primary>  (15) 
energy

>  <meeko>  (15) 
{"free_energy": -6.68, "intermolecular_energy": -8.17, "internal_energy": -1.92, "cluster_size": 10, "cluster_id": 4, "rank_in_cluster": 2}

>  <energy>  (15) 
-6.68

>  <cluster_rmsd>  (15) 
0.06

>  <rmsd>  (15) 
271.26

>  <cluster>  (15) 
4

$$$$
WSOSBBRZSAQCQS-ZRDIBKRKNA-N
     RDKit          3D

 46 49  0  0  0  0  0  0  0  0999 V2000
  135.8156   72.4379  223.2998 H   0  0  0  0  0  0  0  0  0  0  0  0
  135.7430   73.5340  223.2430 C   0  0  0  0  0  0  0  0  0  0  0  0
  136.2540   74.1500  222.1650 C   0  0  0  0  0  0  0  0  0  0  0  0
  135.7012   74.1047  221.2151 H   0  0  0  0  0  0  0  0  0  0  0  0
  137.5430   74.8920  222.2120 C   0  0  0  0  0  0  0  0  0  0  0  0
  137.5110   76.2040  222.5700 N   0  0  0  0  0  0  0  0  0  0  0  0
  138.6290   76.9600  222.6460 C   0  0  0  0  0  0  0  0  0  0  0  0
  138.5380   78.3060  223.0130 C   0  0  0  0  0  0  0  0  0  0  0  0
  137.5566   78.7489  223.2382 H   0  0  0  0  0  0  0  0  0  0  0  0
  139.6920   79.0890  223.0940 C   0  0  0  0  0  0  0  0  0  0  0  0
  139.6149   80.1504  223.3723 H   0  0  0  0  0  0  0  0  0  0  0  0
  140.9490   78.5280  222.8220 C   0  0  0  0  0  0  0  0  0  0  0  0
  142.1820   79.3810  222.8710 C   0  0  0  0  0  0  0  0  0  0  0  0
  142.4555   79.5702  223.9195 H   0  0  0  0  0  0  0  0  0  0  0  0
  143.0083   78.8605  222.3647 H   0  0  0  0  0  0  0  0  0  0  0  0
  141.9863   80.3378  222.3647 H   0  0  0  0  0  0  0  0  0  0  0  0
  141.0360   77.1810  222.4360 C   0  0  0  0  0  0  0  0  0  0  0  0
  142.0163   76.7425  222.1978 H   0  0  0  0  0  0  0  0  0  0  0  0
  139.8750   76.3880  222.3520 C   0  0  0  0  0  0  0  0  0  0  0  0
  139.9140   75.0320  221.9850 C   0  0  0  0  0  0  0  0  0  0  0  0
  141.0290   74.4970  221.7310 O   0  0  0  0  0  0  0  0  0  0  0  0
  138.7530   74.2920  221.9110 N   0  0  0  0  0  0  0  0  0  0  0  0
  138.8250   72.8550  221.5540 C   0  0  0  0  0  0  0  0  0  0  0  0
  137.8722   72.5506  221.0962 H   0  0  0  0  0  0  0  0  0  0  0  0
  139.6567   72.7120  220.8484 H   0  0  0  0  0  0  0  0  0  0  0  0
  139.0800   72.0030  222.7740 C   0  0  0  0  0  0  0  0  0  0  0  0
  140.3310   72.0340  223.4150 C   0  0  0  0  0  0  0  0  0  0  0  0
  141.1288   72.6849  223.0280 H   0  0  0  0  0  0  0  0  0  0  0  0
  140.5650   71.2410  224.5420 C   0  0  0  0  0  0  0  0  0  0  0  0
  141.5422   71.2775  225.0457 H   0  0  0  0  0  0  0  0  0  0  0  0
  139.5600   70.4020  225.0300 C   0  0  0  0  0  0  0  0  0  0  0  0
  139.7450   69.7828  225.9201 H   0  0  0  0  0  0  0  0  0  0  0  0
  138.3200   70.3490  224.3880 C   0  0  0  0  0  0  0  0  0  0  0  0
  137.5312   69.6844  224.7703 H   0  0  0  0  0  0  0  0  0  0  0  0
  138.0810   71.1400  223.2600 C   0  0  0  0  0  0  0  0  0  0  0  0
  137.1076   71.0872  222.7504 H   0  0  0  0  0  0  0  0  0  0  0  0
  135.0860   74.2530  224.3610 C   0  0  0  0  0  0  0  0  0  0  0  0
  134.5100   73.5100  225.4040 C   0  0  0  0  0  0  0  0  0  0  0  0
  134.5625   72.4114  225.3858 H   0  0  0  0  0  0  0  0  0  0  0  0
  133.8880   74.1390  226.4360 N   0  0  0  0  0  0  0  0  0  0  0  0
  133.7880   75.4920  226.4930 C   0  0  0  0  0  0  0  0  0  0  0  0
  133.2815   75.9702  227.3443 H   0  0  0  0  0  0  0  0  0  0  0  0
  134.3270   76.2760  225.4730 C   0  0  0  0  0  0  0  0  0  0  0  0
  134.2438   77.3722  225.5122 H   0  0  0  0  0  0  0  0  0  0  0  0
  134.9730   75.6560  224.4020 C   0  0  0  0  0  0  0  0  0  0  0  0
  135.3946   76.2646  223.5885 H   0  0  0  0  0  0  0  0  0  0  0  0
  1  2  1  0
  2  3  2  0
  3  4  1  0
  3  5  1  0
  5  6  2  0
  6  7  1  0
  7  8  2  0
  8  9  1  0
  8 10  1  0
 10 11  1  0
 10 12  2  0
 12 13  1  0
 13 14  1  0
 13 15  1  0
 13 16  1  0
 12 17  1  0
 17 18  1  0
 17 19  2  0
 19 20  1  0
 20 21  2  0
 20 22  1  0
 22 23  1  0
 23 24  1  0
 23 25  1  0
 23 26  1  0
 26 27  2  0
 27 28  1  0
 27 29  1  0
 29 30  1  0
 29 31  2  0
 31 32  1  0
 31 33  1  0
 33 34  1  0
 33 35  2  0
 35 36  1  0
  2 37  1  0
 37 38  2  0
 38 39  1  0
 38 40  1  0
 40 41  2  0
 41 42  1  0
 41 43  1  0
 43 44  1  0
 43 45  2  0
 45 46  1  0
 22  5  1  0
 35 26  1  0
 45 37  1  0
 19  7  1  0
M  END
>  <UniqueID>  (16) 
112

>  <SMILES>  (16) 
Cc1ccc2nc(/C=C/c3cccnc3)n(Cc3ccccc3)c(=O)c2c1

>  <Energy>  (16) 
62.89609464147982

>  <Genealogy>  (16) 
Cc1ccc2nc(/C=C/c3cccnc3)n(Cc3ccccc3)c(=O)c2c1 (cis-trans isomerization)
Cc1ccc2nc(/C=C/c3cccnc3)n(Cc3ccccc3)c(=O)c2c1 (3D coordinates assigned)
Cc1ccc2nc(/C=C/c3cccnc3)n(Cc3ccccc3)c(=O)c2c1 (optimized conformer: 62.89609464147982 kcal/mol)

>  <smiles>  (16) 
Cc1ccc2nc(/C=C/c3cccnc3)n(Cc3ccccc3)c(=O)c2c1

>  <score_type>  (16) 
oracle

>  <origin>  (16) 
autodockgpu

>  <m_score__min__energy>  (16) 
-7.29

>  <m_primary>  (16) 
energy

>  <meeko>  (16) 
{"free_energy": -7.17, "intermolecular_energy": -8.66, "internal_energy": -1.41, "cluster_size": 5, "cluster_id": 3, "rank_in_cluster": 5}

>  <energy>  (16) 
-6.68

>  <cluster_rmsd>  (16) 
0.04

>  <rmsd>  (16) 
271.27

>  <cluster>  (16) 
4

$$$$
WSOSBBRZSAQCQS-ZRDIBKRKNA-N
     RDKit          3D

 46 49  0  0  0  0  0  0  0  0999 V2000
  135.9788   72.4475  223.4829 H   0  0  0  0  0  0  0  0  0  0  0  0
  135.7830   73.5280  223.4180 C   0  0  0  0  0  0  0  0  0  0  0  0
  136.2200   74.1890  222.3350 C   0  0  0  0  0  0  0  0  0  0  0  0
  135.5981   74.1923  221.4277 H   0  0  0  0  0  0  0  0  0  0  0  0
  137.5180   74.9180  222.3200 C   0  0  0  0  0  0  0  0  0  0  0  0
  137.5140   76.2350  222.6620 N   0  0  0  0  0  0  0  0  0  0  0  0
  138.6410   76.9790  222.6820 C   0  0  0  0  0  0  0  0  0  0  0  0
  138.5790   78.3310  223.0350 C   0  0  0  0  0  0  0  0  0  0  0  0
  137.6120   78.7872  223.2934 H   0  0  0  0  0  0  0  0  0  0  0  0
  139.7430   79.1030  223.0600 C   0  0  0  0  0  0  0  0  0  0  0  0
  139.6884   80.1684  223.3283 H   0  0  0  0  0  0  0  0  0  0  0  0
  140.9820   78.5240  222.7440 C   0  0  0  0  0  0  0  0  0  0  0  0
  142.2250   79.3650  222.7320 C   0  0  0  0  0  0  0  0  0  0  0  0
  142.5356   79.5751  223.7661 H   0  0  0  0  0  0  0  0  0  0  0  0
  143.0285   78.8243  222.2105 H   0  0  0  0  0  0  0  0  0  0  0  0
  142.0220   80.3120  222.2105 H   0  0  0  0  0  0  0  0  0  0  0  0
  141.0400   77.1720  222.3730 C   0  0  0  0  0  0  0  0  0  0  0  0
  142.0055   76.7201  222.1018 H   0  0  0  0  0  0  0  0  0  0  0  0
  139.8680   76.3900  222.3460 C   0  0  0  0  0  0  0  0  0  0  0  0
  139.8780   75.0300  221.9950 C   0  0  0  0  0  0  0  0  0  0  0  0
  140.9770   74.4790  221.7030 O   0  0  0  0  0  0  0  0  0  0  0  0
  138.7080   74.3010  221.9780 N   0  0  0  0  0  0  0  0  0  0  0  0
  138.7510   72.8590  221.6370 C   0  0  0  0  0  0  0  0  0  0  0  0
  137.7731   72.5558  221.2348 H   0  0  0  0  0  0  0  0  0  0  0  0
  139.5428   72.7005  220.8901 H   0  0  0  0  0  0  0  0  0  0  0  0
  139.0650   72.0210  222.8530 C   0  0  0  0  0  0  0  0  0  0  0  0
  140.3340   72.0880  223.4550 C   0  0  0  0  0  0  0  0  0  0  0  0
  141.1024   72.7571  223.0403 H   0  0  0  0  0  0  0  0  0  0  0  0
  140.6230   71.3080  224.5780 C   0  0  0  0  0  0  0  0  0  0  0  0
  141.6143   71.3719  225.0504 H   0  0  0  0  0  0  0  0  0  0  0  0
  139.6550   70.4470  225.1020 C   0  0  0  0  0  0  0  0  0  0  0  0
  139.8831   69.8383  225.9894 H   0  0  0  0  0  0  0  0  0  0  0  0
  138.3970   70.3590  224.4990 C   0  0  0  0  0  0  0  0  0  0  0  0
  137.6372   69.6777  224.9095 H   0  0  0  0  0  0  0  0  0  0  0  0
  138.1040   71.1360  223.3750 C   0  0  0  0  0  0  0  0  0  0  0  0
  137.1171   71.0552  222.8960 H   0  0  0  0  0  0  0  0  0  0  0  0
  135.0500   74.1770  224.5320 C   0  0  0  0  0  0  0  0  0  0  0  0
  134.3500   73.3740  225.4470 C   0  0  0  0  0  0  0  0  0  0  0  0
  134.3636   72.2797  225.3357 H   0  0  0  0  0  0  0  0  0  0  0  0
  133.6560   73.9400  226.4690 N   0  0  0  0  0  0  0  0  0  0  0  0
  133.6030   75.2860  226.6400 C   0  0  0  0  0  0  0  0  0  0  0  0
  133.0363   75.7116  227.4813 H   0  0  0  0  0  0  0  0  0  0  0  0
  134.2670   76.1290  225.7490 C   0  0  0  0  0  0  0  0  0  0  0  0
  134.2229   77.2203  225.8797 H   0  0  0  0  0  0  0  0  0  0  0  0
  134.9880   75.5750  224.6900 C   0  0  0  0  0  0  0  0  0  0  0  0
  135.5088   76.2316  223.9775 H   0  0  0  0  0  0  0  0  0  0  0  0
  1  2  1  0
  2  3  2  0
  3  4  1  0
  3  5  1  0
  5  6  2  0
  6  7  1  0
  7  8  2  0
  8  9  1  0
  8 10  1  0
 10 11  1  0
 10 12  2  0
 12 13  1  0
 13 14  1  0
 13 15  1  0
 13 16  1  0
 12 17  1  0
 17 18  1  0
 17 19  2  0
 19 20  1  0
 20 21  2  0
 20 22  1  0
 22 23  1  0
 23 24  1  0
 23 25  1  0
 23 26  1  0
 26 27  2  0
 27 28  1  0
 27 29  1  0
 29 30  1  0
 29 31  2  0
 31 32  1  0
 31 33  1  0
 33 34  1  0
 33 35  2  0
 35 36  1  0
  2 37  1  0
 37 38  2  0
 38 39  1  0
 38 40  1  0
 40 41  2  0
 41 42  1  0
 41 43  1  0
 43 44  1  0
 43 45  2  0
 45 46  1  0
 22  5  1  0
 35 26  1  0
 45 37  1  0
 19  7  1  0
M  END
>  <UniqueID>  (17) 
112

>  <SMILES>  (17) 
Cc1ccc2nc(/C=C/c3cccnc3)n(Cc3ccccc3)c(=O)c2c1

>  <Energy>  (17) 
62.89609464147982

>  <Genealogy>  (17) 
Cc1ccc2nc(/C=C/c3cccnc3)n(Cc3ccccc3)c(=O)c2c1 (cis-trans isomerization)
Cc1ccc2nc(/C=C/c3cccnc3)n(Cc3ccccc3)c(=O)c2c1 (3D coordinates assigned)
Cc1ccc2nc(/C=C/c3cccnc3)n(Cc3ccccc3)c(=O)c2c1 (optimized conformer: 62.89609464147982 kcal/mol)

>  <smiles>  (17) 
Cc1ccc2nc(/C=C/c3cccnc3)n(Cc3ccccc3)c(=O)c2c1

>  <score_type>  (17) 
oracle

>  <origin>  (17) 
autodockgpu

>  <m_score__min__energy>  (17) 
-7.29

>  <m_primary>  (17) 
energy

>  <meeko>  (17) 
{"free_energy": -7.25, "intermolecular_energy": -8.74, "internal_energy": -1.38, "cluster_size": 5, "cluster_id": 3, "rank_in_cluster": 3}

>  <energy>  (17) 
-6.67

>  <cluster_rmsd>  (17) 
0.05

>  <rmsd>  (17) 
271.27

>  <cluster>  (17) 
4

$$$$
WSOSBBRZSAQCQS-ZRDIBKRKNA-N
     RDKit          3D

 46 49  0  0  0  0  0  0  0  0999 V2000
  138.9038   76.6489  223.6416 H   0  0  0  0  0  0  0  0  0  0  0  0
  138.8550   77.2350  222.7120 C   0  0  0  0  0  0  0  0  0  0  0  0
  139.0240   76.5920  221.5460 C   0  0  0  0  0  0  0  0  0  0  0  0
  138.1500   76.4254  220.8992 H   0  0  0  0  0  0  0  0  0  0  0  0
  140.3540   76.0970  221.0990 C   0  0  0  0  0  0  0  0  0  0  0  0
  140.6590   74.7910  221.3280 N   0  0  0  0  0  0  0  0  0  0  0  0
  141.8380   74.2480  220.9550 C   0  0  0  0  0  0  0  0  0  0  0  0
  142.1030   72.9000  221.2210 C   0  0  0  0  0  0  0  0  0  0  0  0
  141.3508   72.2837  221.7352 H   0  0  0  0  0  0  0  0  0  0  0  0
  143.3200   72.3360  220.8350 C   0  0  0  0  0  0  0  0  0  0  0  0
  143.5277   71.2785  221.0553 H   0  0  0  0  0  0  0  0  0  0  0  0
  144.2800   73.1120  220.1670 C   0  0  0  0  0  0  0  0  0  0  0  0
  145.6030   72.5130  219.7890 C   0  0  0  0  0  0  0  0  0  0  0  0
  146.1642   72.2589  220.7003 H   0  0  0  0  0  0  0  0  0  0  0  0
  145.4368   71.6023  219.1948 H   0  0  0  0  0  0  0  0  0  0  0  0
  146.1777   73.2387  219.1948 H   0  0  0  0  0  0  0  0  0  0  0  0
  144.0200   74.4680  219.9170 C   0  0  0  0  0  0  0  0  0  0  0  0
  144.7785   75.0865  219.4149 H   0  0  0  0  0  0  0  0  0  0  0  0
  142.7940   75.0420  220.3050 C   0  0  0  0  0  0  0  0  0  0  0  0
  142.4830   76.3910  220.0640 C   0  0  0  0  0  0  0  0  0  0  0  0
  143.3270   77.1170  219.4660 O   0  0  0  0  0  0  0  0  0  0  0  0
  141.2720   76.9140  220.4640 N   0  0  0  0  0  0  0  0  0  0  0  0
  140.9560   78.3310  220.1670 C   0  0  0  0  0  0  0  0  0  0  0  0
  141.4332   78.6136  219.2171 H   0  0  0  0  0  0  0  0  0  0  0  0
  139.8633   78.4374  220.0987 H   0  0  0  0  0  0  0  0  0  0  0  0
  141.4580   79.2430  221.2610 C   0  0  0  0  0  0  0  0  0  0  0  0
  141.9970   78.7050  222.4430 C   0  0  0  0  0  0  0  0  0  0  0  0
  142.0562   77.6141  222.5711 H   0  0  0  0  0  0  0  0  0  0  0  0
  142.4580   79.5510  223.4560 C   0  0  0  0  0  0  0  0  0  0  0  0
  142.8876   79.1244  224.3744 H   0  0  0  0  0  0  0  0  0  0  0  0
  142.3740   80.9380  223.3040 C   0  0  0  0  0  0  0  0  0  0  0  0
  142.7431   81.6020  224.0996 H   0  0  0  0  0  0  0  0  0  0  0  0
  141.8210   81.4810  222.1410 C   0  0  0  0  0  0  0  0  0  0  0  0
  141.7498   82.5725  222.0246 H   0  0  0  0  0  0  0  0  0  0  0  0
  141.3580   80.6390  221.1250 C   0  0  0  0  0  0  0  0  0  0  0  0
  140.9138   81.0704  220.2158 H   0  0  0  0  0  0  0  0  0  0  0  0
  138.6060   78.6930  222.8140 C   0  0  0  0  0  0  0  0  0  0  0  0
  137.8970   79.3370  221.7860 C   0  0  0  0  0  0  0  0  0  0  0  0
  137.5270   78.7540  220.9297 H   0  0  0  0  0  0  0  0  0  0  0  0
  137.6650   80.6750  221.8420 N   0  0  0  0  0  0  0  0  0  0  0  0
  138.1120   81.4360  222.8730 C   0  0  0  0  0  0  0  0  0  0  0  0
  137.9028   82.5158  222.8905 H   0  0  0  0  0  0  0  0  0  0  0  0
  138.8370   80.8490  223.9110 C   0  0  0  0  0  0  0  0  0  0  0  0
  139.2064   81.4624  224.7460 H   0  0  0  0  0  0  0  0  0  0  0  0
  139.0890   79.4770  223.8800 C   0  0  0  0  0  0  0  0  0  0  0  0
  139.6661   79.0066  224.6897 H   0  0  0  0  0  0  0  0  0  0  0  0
  1  2  1  0
  2  3  2  0
  3  4  1  0
  3  5  1  0
  5  6  2  0
  6  7  1  0
  7  8  2  0
  8  9  1  0
  8 10  1  0
 10 11  1  0
 10 12  2  0
 12 13  1  0
 13 14  1  0
 13 15  1  0
 13 16  1  0
 12 17  1  0
 17 18  1  0
 17 19  2  0
 19 20  1  0
 20 21  2  0
 20 22  1  0
 22 23  1  0
 23 24  1  0
 23 25  1  0
 23 26  1  0
 26 27  2  0
 27 28  1  0
 27 29  1  0
 29 30  1  0
 29 31  2  0
 31 32  1  0
 31 33  1  0
 33 34  1  0
 33 35  2  0
 35 36  1  0
  2 37  1  0
 37 38  2  0
 38 39  1  0
 38 40  1  0
 40 41  2  0
 41 42  1  0
 41 43  1  0
 43 44  1  0
 43 45  2  0
 45 46  1  0
 22  5  1  0
 35 26  1  0
 45 37  1  0
 19  7  1  0
M  END
>  <UniqueID>  (18) 
112

>  <SMILES>  (18) 
Cc1ccc2nc(/C=C/c3cccnc3)n(Cc3ccccc3)c(=O)c2c1

>  <Energy>  (18) 
62.89609464147982

>  <Genealogy>  (18) 
Cc1ccc2nc(/C=C/c3cccnc3)n(Cc3ccccc3)c(=O)c2c1 (cis-trans isomerization)
Cc1ccc2nc(/C=C/c3cccnc3)n(Cc3ccccc3)c(=O)c2c1 (3D coordinates assigned)
Cc1ccc2nc(/C=C/c3cccnc3)n(Cc3ccccc3)c(=O)c2c1 (optimized conformer: 62.89609464147982 kcal/mol)

>  <smiles>  (18) 
Cc1ccc2nc(/C=C/c3cccnc3)n(Cc3ccccc3)c(=O)c2c1

>  <score_type>  (18) 
oracle

>  <origin>  (18) 
autodockgpu

>  <m_score__min__energy>  (18) 
-7.29

>  <m_primary>  (18) 
energy

>  <meeko>  (18) 
{"free_energy": -6.68, "intermolecular_energy": -8.17, "internal_energy": -1.93, "cluster_size": 10, "cluster_id": 4, "rank_in_cluster": 4}

>  <energy>  (18) 
-6.67

>  <cluster_rmsd>  (18) 
0.04

>  <rmsd>  (18) 
271.26

>  <cluster>  (18) 
4

$$$$
WSOSBBRZSAQCQS-ZRDIBKRKNA-N
     RDKit          3D

 46 49  0  0  0  0  0  0  0  0999 V2000
  143.6340   75.9890  218.1617 H   0  0  0  0  0  0  0  0  0  0  0  0
  143.5830   75.5760  219.1800 C   0  0  0  0  0  0  0  0  0  0  0  0
  142.7280   76.1350  220.0500 C   0  0  0  0  0  0  0  0  0  0  0  0
  142.8666   77.1900  220.3290 H   0  0  0  0  0  0  0  0  0  0  0  0
  141.5980   75.3740  220.6500 C   0  0  0  0  0  0  0  0  0  0  0  0
  141.7870   74.0530  220.9140 N   0  0  0  0  0  0  0  0  0  0  0  0
  140.8240   73.2810  221.4620 C   0  0  0  0  0  0  0  0  0  0  0  0
  141.0690   71.9260  221.7070 C   0  0  0  0  0  0  0  0  0  0  0  0
  142.0459   71.4900  221.4510 H   0  0  0  0  0  0  0  0  0  0  0  0
  140.0760   71.1250  222.2760 C   0  0  0  0  0  0  0  0  0  0  0  0
  140.2703   70.0576  222.4576 H   0  0  0  0  0  0  0  0  0  0  0  0
  138.8310   71.6770  222.6170 C   0  0  0  0  0  0  0  0  0  0  0  0
  137.7520   70.8070  223.1910 C   0  0  0  0  0  0  0  0  0  0  0  0
  137.7972   70.8434  224.2895 H   0  0  0  0  0  0  0  0  0  0  0  0
  136.7701   71.1690  222.8522 H   0  0  0  0  0  0  0  0  0  0  0  0
  137.8976   69.7706  222.8522 H   0  0  0  0  0  0  0  0  0  0  0  0
  138.5810   73.0330  222.3540 C   0  0  0  0  0  0  0  0  0  0  0  0
  137.5992   73.4649  222.5978 H   0  0  0  0  0  0  0  0  0  0  0  0
  139.5790   73.8440  221.7800 C   0  0  0  0  0  0  0  0  0  0  0  0
  139.3800   75.2090  221.5120 C   0  0  0  0  0  0  0  0  0  0  0  0
  138.2700   75.7360  221.8060 O   0  0  0  0  0  0  0  0  0  0  0  0
  140.3830   75.9660  220.9460 N   0  0  0  0  0  0  0  0  0  0  0  0
  140.1590   77.4110  220.7050 C   0  0  0  0  0  0  0  0  0  0  0  0
  140.4600   77.6540  219.6753 H   0  0  0  0  0  0  0  0  0  0  0  0
  139.0917   77.6286  220.8585 H   0  0  0  0  0  0  0  0  0  0  0  0
  140.9620   78.2550  221.6650 C   0  0  0  0  0  0  0  0  0  0  0  0
  141.0710   77.8860  223.0180 C   0  0  0  0  0  0  0  0  0  0  0  0
  140.5707   76.9754  223.3793 H   0  0  0  0  0  0  0  0  0  0  0  0
  141.8120   78.6710  223.9050 C   0  0  0  0  0  0  0  0  0  0  0  0
  141.9014   78.3717  224.9597 H   0  0  0  0  0  0  0  0  0  0  0  0
  142.4400   79.8360  223.4550 C   0  0  0  0  0  0  0  0  0  0  0  0
  143.0285   80.4488  224.1537 H   0  0  0  0  0  0  0  0  0  0  0  0
  142.3200   80.2220  222.1170 C   0  0  0  0  0  0  0  0  0  0  0  0
  142.8092   81.1421  221.7647 H   0  0  0  0  0  0  0  0  0  0  0  0
  141.5790   79.4400  221.2260 C   0  0  0  0  0  0  0  0  0  0  0  0
  141.4781   79.7532  220.1764 H   0  0  0  0  0  0  0  0  0  0  0  0
  144.4630   74.4310  219.5180 C   0  0  0  0  0  0  0  0  0  0  0  0
  144.8020   73.5120  218.5110 C   0  0  0  0  0  0  0  0  0  0  0  0
  144.4242   73.6576  217.4882 H   0  0  0  0  0  0  0  0  0  0  0  0
  145.5940   72.4440  218.7930 N   0  0  0  0  0  0  0  0  0  0  0  0
  146.0730   72.2180  220.0430 C   0  0  0  0  0  0  0  0  0  0  0  0
  146.7153   71.3462  220.2362 H   0  0  0  0  0  0  0  0  0  0  0  0
  145.7510   73.0910  221.0830 C   0  0  0  0  0  0  0  0  0  0  0  0
  146.1325   72.9095  222.0986 H   0  0  0  0  0  0  0  0  0  0  0  0
  144.9400   74.1970  220.8220 C   0  0  0  0  0  0  0  0  0  0  0  0
  144.6732   74.8867  221.6363 H   0  0  0  0  0  0  0  0  0  0  0  0
  1  2  1  0
  2  3  2  0
  3  4  1  0
  3  5  1  0
  5  6  2  0
  6  7  1  0
  7  8  2  0
  8  9  1  0
  8 10  1  0
 10 11  1  0
 10 12  2  0
 12 13  1  0
 13 14  1  0
 13 15  1  0
 13 16  1  0
 12 17  1  0
 17 18  1  0
 17 19  2  0
 19 20  1  0
 20 21  2  0
 20 22  1  0
 22 23  1  0
 23 24  1  0
 23 25  1  0
 23 26  1  0
 26 27  2  0
 27 28  1  0
 27 29  1  0
 29 30  1  0
 29 31  2  0
 31 32  1  0
 31 33  1  0
 33 34  1  0
 33 35  2  0
 35 36  1  0
  2 37  1  0
 37 38  2  0
 38 39  1  0
 38 40  1  0
 40 41  2  0
 41 42  1  0
 41 43  1  0
 43 44  1  0
 43 45  2  0
 45 46  1  0
 22  5  1  0
 35 26  1  0
 45 37  1  0
 19  7  1  0
M  END
>  <UniqueID>  (19) 
112

>  <SMILES>  (19) 
Cc1ccc2nc(/C=C/c3cccnc3)n(Cc3ccccc3)c(=O)c2c1

>  <Energy>  (19) 
62.89609464147982

>  <Genealogy>  (19) 
Cc1ccc2nc(/C=C/c3cccnc3)n(Cc3ccccc3)c(=O)c2c1 (cis-trans isomerization)
Cc1ccc2nc(/C=C/c3cccnc3)n(Cc3ccccc3)c(=O)c2c1 (3D coordinates assigned)
Cc1ccc2nc(/C=C/c3cccnc3)n(Cc3ccccc3)c(=O)c2c1 (optimized conformer: 62.89609464147982 kcal/mol)

>  <smiles>  (19) 
Cc1ccc2nc(/C=C/c3cccnc3)n(Cc3ccccc3)c(=O)c2c1

>  <score_type>  (19) 
oracle

>  <origin>  (19) 
autodockgpu

>  <m_score__min__energy>  (19) 
-7.29

>  <m_primary>  (19) 
energy

>  <meeko>  (19) 
{"free_energy": -7.26, "intermolecular_energy": -8.75, "internal_energy": -1.35, "cluster_size": 4, "cluster_id": 2, "rank_in_cluster": 2}

>  <energy>  (19) 
-6.58

>  <cluster_rmsd>  (19) 
0.54

>  <rmsd>  (19) 
271.28

>  <cluster>  (19) 
4

$$$$
WSOSBBRZSAQCQS-ZRDIBKRKNA-N
     RDKit          3D

 46 49  0  0  0  0  0  0  0  0999 V2000
  138.8861   76.6183  223.6459 H   0  0  0  0  0  0  0  0  0  0  0  0
  138.8370   77.2070  222.7180 C   0  0  0  0  0  0  0  0  0  0  0  0
  139.0120   76.5690  221.5500 C   0  0  0  0  0  0  0  0  0  0  0  0
  138.1405   76.3997  220.9005 H   0  0  0  0  0  0  0  0  0  0  0  0
  140.3470   76.0830  221.1050 C   0  0  0  0  0  0  0  0  0  0  0  0
  140.6600   74.7790  221.3320 N   0  0  0  0  0  0  0  0  0  0  0  0
  141.8440   74.2440  220.9610 C   0  0  0  0  0  0  0  0  0  0  0  0
  142.1170   72.8980  221.2250 C   0  0  0  0  0  0  0  0  0  0  0  0
  141.3675   72.2760  221.7362 H   0  0  0  0  0  0  0  0  0  0  0  0
  143.3390   72.3420  220.8410 C   0  0  0  0  0  0  0  0  0  0  0  0
  143.5537   71.2857  221.0606 H   0  0  0  0  0  0  0  0  0  0  0  0
  144.2940   73.1260  220.1760 C   0  0  0  0  0  0  0  0  0  0  0  0
  145.6220   72.5370  219.7990 C   0  0  0  0  0  0  0  0  0  0  0  0
  146.1846   72.2875  220.7107 H   0  0  0  0  0  0  0  0  0  0  0  0
  145.4632   71.6249  219.2050 H   0  0  0  0  0  0  0  0  0  0  0  0
  146.1915   73.2669  219.2050 H   0  0  0  0  0  0  0  0  0  0  0  0
  144.0260   74.4810  219.9270 C   0  0  0  0  0  0  0  0  0  0  0  0
  144.7813   75.1051  219.4270 H   0  0  0  0  0  0  0  0  0  0  0  0
  142.7950   75.0460  220.3140 C   0  0  0  0  0  0  0  0  0  0  0  0
  142.4760   76.3930  220.0740 C   0  0  0  0  0  0  0  0  0  0  0  0
  143.3160   77.1260  219.4800 O   0  0  0  0  0  0  0  0  0  0  0  0
  141.2600   76.9070  220.4730 N   0  0  0  0  0  0  0  0  0  0  0  0
  140.9350   78.3230  220.1770 C   0  0  0  0  0  0  0  0  0  0  0  0
  141.4178   78.6122  219.2319 H   0  0  0  0  0  0  0  0  0  0  0  0
  139.8421   78.4213  220.0994 H   0  0  0  0  0  0  0  0  0  0  0  0
  141.4210   79.2350  221.2780 C   0  0  0  0  0  0  0  0  0  0  0  0
  141.3500   80.6310  221.1280 C   0  0  0  0  0  0  0  0  0  0  0  0
  140.9355   81.0624  220.2049 H   0  0  0  0  0  0  0  0  0  0  0  0
  141.8040   81.4730  222.1470 C   0  0  0  0  0  0  0  0  0  0  0  0
  141.7385   82.5645  222.0271 H   0  0  0  0  0  0  0  0  0  0  0  0
  142.3410   80.9310  223.3180 C   0  0  0  0  0  0  0  0  0  0  0  0
  142.6912   81.5956  224.1215 H   0  0  0  0  0  0  0  0  0  0  0  0
  142.4330   79.5450  223.4680 C   0  0  0  0  0  0  0  0  0  0  0  0
  142.8609   79.1191  224.3875 H   0  0  0  0  0  0  0  0  0  0  0  0
  141.9820   78.6990  222.4510 C   0  0  0  0  0  0  0  0  0  0  0  0
  142.0662   77.6086  222.5686 H   0  0  0  0  0  0  0  0  0  0  0  0
  138.5810   78.6640  222.8230 C   0  0  0  0  0  0  0  0  0  0  0  0
  137.8420   79.3010  221.8140 C   0  0  0  0  0  0  0  0  0  0  0  0
  137.4532   78.7139  220.9689 H   0  0  0  0  0  0  0  0  0  0  0  0
  137.6030   80.6380  221.8730 N   0  0  0  0  0  0  0  0  0  0  0  0
  138.0730   81.4040  222.8910 C   0  0  0  0  0  0  0  0  0  0  0  0
  137.8581   82.4826  222.9121 H   0  0  0  0  0  0  0  0  0  0  0  0
  138.8290   80.8230  223.9110 C   0  0  0  0  0  0  0  0  0  0  0  0
  139.2168   81.4399  224.7351 H   0  0  0  0  0  0  0  0  0  0  0  0
  139.0880   79.4520  223.8750 C   0  0  0  0  0  0  0  0  0  0  0  0
  139.6891   78.9859  224.6696 H   0  0  0  0  0  0  0  0  0  0  0  0
  1  2  1  0
  2  3  2  0
  3  4  1  0
  3  5  1  0
  5  6  2  0
  6  7  1  0
  7  8  2  0
  8  9  1  0
  8 10  1  0
 10 11  1  0
 10 12  2  0
 12 13  1  0
 13 14  1  0
 13 15  1  0
 13 16  1  0
 12 17  1  0
 17 18  1  0
 17 19  2  0
 19 20  1  0
 20 21  2  0
 20 22  1  0
 22 23  1  0
 23 24  1  0
 23 25  1  0
 23 26  1  0
 26 27  2  0
 27 28  1  0
 27 29  1  0
 29 30  1  0
 29 31  2  0
 31 32  1  0
 31 33  1  0
 33 34  1  0
 33 35  2  0
 35 36  1  0
  2 37  1  0
 37 38  2  0
 38 39  1  0
 38 40  1  0
 40 41  2  0
 41 42  1  0
 41 43  1  0
 43 44  1  0
 43 45  2  0
 45 46  1  0
 22  5  1  0
 35 26  1  0
 45 37  1  0
 19  7  1  0
M  END
>  <UniqueID>  (20) 
112

>  <SMILES>  (20) 
Cc1ccc2nc(/C=C/c3cccnc3)n(Cc3ccccc3)c(=O)c2c1

>  <Energy>  (20) 
62.89609464147982

>  <Genealogy>  (20) 
Cc1ccc2nc(/C=C/c3cccnc3)n(Cc3ccccc3)c(=O)c2c1 (cis-trans isomerization)
Cc1ccc2nc(/C=C/c3cccnc3)n(Cc3ccccc3)c(=O)c2c1 (3D coordinates assigned)
Cc1ccc2nc(/C=C/c3cccnc3)n(Cc3ccccc3)c(=O)c2c1 (optimized conformer: 62.89609464147982 kcal/mol)

>  <smiles>  (20) 
Cc1ccc2nc(/C=C/c3cccnc3)n(Cc3ccccc3)c(=O)c2c1

>  <score_type>  (20) 
oracle

>  <origin>  (20) 
autodockgpu

>  <m_score__min__energy>  (20) 
-7.29

>  <m_primary>  (20) 
energy

>  <meeko>  (20) 
{"free_energy": -6.68, "intermolecular_energy": -8.18, "internal_energy": -1.92, "cluster_size": 10, "cluster_id": 4, "rank_in_cluster": 1}

>  <energy>  (20) 
-6.57

>  <cluster_rmsd>  (20) 
0.59

>  <rmsd>  (20) 
271.33

>  <cluster>  (20) 
4

$$$$
