GGXXWZKFDBNAQR-UHFFFAOYNA-N
     RDKit          3D

 30 31  0  0  0  0  0  0  0  0999 V2000
  139.5750   67.0110  224.3070 O   0  0  0  0  0  0  0  0  0  0  0  0
  139.3080   67.8330  225.5370 S   0  0  0  0  0  0  0  0  0  0  0  0
  138.4730   67.0110  226.4760 O   0  0  0  0  0  0  0  0  0  0  0  0
  140.8750   68.1640  226.3580 C   0  0  0  0  0  0  0  0  0  0  0  0
  141.0310   69.6120  226.7300 C   0  0  0  0  0  0  0  0  0  0  0  0
  141.4440   70.5490  225.7670 C   0  0  0  0  0  0  0  0  0  0  0  0
  141.5570   71.9010  226.1040 C   0  0  0  0  0  0  0  0  0  0  0  0
  141.2630   72.3260  227.4020 C   0  0  0  0  0  0  0  0  0  0  0  0
  140.8620   71.4000  228.3670 C   0  0  0  0  0  0  0  0  0  0  0  0
  140.7500   70.0460  228.0360 C   0  0  0  0  0  0  0  0  0  0  0  0
  138.3800   69.2480  225.0840 N   0  0  0  0  0  0  0  0  0  0  0  0
  138.8240   69.8670  223.8300 C   0  0  0  0  0  0  0  0  0  0  0  0
  137.5810   70.2260  223.0220 C   0  0  0  0  0  0  0  0  0  0  0  0
  136.4060   69.9400  223.9330 C   0  0  0  0  0  0  0  0  0  0  0  0
  136.9480   68.9720  224.9630 C   0  0  0  0  0  0  0  0  0  0  0  0
  140.9300   67.5561  227.2731 H   0  0  0  0  0  0  0  0  0  0  0  0
  141.6825   67.9086  225.6561 H   0  0  0  0  0  0  0  0  0  0  0  0
  141.6790   70.2173  224.7449 H   0  0  0  0  0  0  0  0  0  0  0  0
  141.8778   72.6311  225.3463 H   0  0  0  0  0  0  0  0  0  0  0  0
  141.3475   73.3910  227.6639 H   0  0  0  0  0  0  0  0  0  0  0  0
  140.6338   71.7361  229.3892 H   0  0  0  0  0  0  0  0  0  0  0  0
  140.4408   69.3184  228.8009 H   0  0  0  0  0  0  0  0  0  0  0  0
  139.4051   70.7756  224.0463 H   0  0  0  0  0  0  0  0  0  0  0  0
  139.4632   69.1733  223.2641 H   0  0  0  0  0  0  0  0  0  0  0  0
  137.5994   71.2895  222.7415 H   0  0  0  0  0  0  0  0  0  0  0  0
  137.5218   69.6478  222.0881 H   0  0  0  0  0  0  0  0  0  0  0  0
  136.0548   70.8641  224.4155 H   0  0  0  0  0  0  0  0  0  0  0  0
  135.5448   69.5284  223.3863 H   0  0  0  0  0  0  0  0  0  0  0  0
  136.4484   69.1282  225.9304 H   0  0  0  0  0  0  0  0  0  0  0  0
  136.7693   67.9297  224.6602 H   0  0  0  0  0  0  0  0  0  0  0  0
  1  2  2  0
  2  3  2  0
  2  4  1  0
  4  5  1  0
  5  6  2  0
  6  7  1  0
  7  8  2  0
  8  9  1  0
  9 10  2  0
  2 11  1  0
 11 12  1  0
 12 13  1  0
 13 14  1  0
 14 15  1  0
 10  5  1  0
 15 11  1  0
  4 16  1  0
  4 17  1  0
  6 18  1  0
  7 19  1  0
  8 20  1  0
  9 21  1  0
 10 22  1  0
 12 23  1  0
 12 24  1  0
 13 25  1  0
 13 26  1  0
 14 27  1  0
 14 28  1  0
 15 29  1  0
 15 30  1  0
M  END
>  <UniqueID>  (1) 
24

>  <SMILES>  (1) 
O=S(=O)(Cc1ccccc1)N1CCCC1

>  <Energy>  (1) 
25.242171289950807

>  <Genealogy>  (1) 
O=S(=O)(Cc1ccccc1)N1CCCC1 (3D coordinates assigned)
O=S(=O)(Cc1ccccc1)N1CCCC1 (nonaromatic ring conformer: 25.242171289950807 kcal/mol)

>  <smiles>  (1) 
O=S(=O)(Cc1ccccc1)N1CCCC1

>  <score_type>  (1) 
oracle

>  <origin>  (1) 
autodockgpu

>  <m_score__min__energy>  (1) 
-5.8799999999999999

>  <m_primary>  (1) 
energy

>  <meeko>  (1) 
{"free_energy": -5.86, "intermolecular_energy": -6.75, "internal_energy": -0.7, "cluster_size": 18, "cluster_id": 1, "rank_in_cluster": 4}

>  <energy>  (1) 
-5.88

>  <cluster_rmsd>  (1) 
0.0

>  <rmsd>  (1) 
273.48

>  <cluster>  (1) 
1

$$$$
GGXXWZKFDBNAQR-UHFFFAOYNA-N
     RDKit          3D

 30 31  0  0  0  0  0  0  0  0999 V2000
  139.5320   67.3860  225.3440 O   0  0  0  0  0  0  0  0  0  0  0  0
  138.8580   68.4770  224.5610 S   0  0  0  0  0  0  0  0  0  0  0  0
  137.6410   68.9170  225.3240 O   0  0  0  0  0  0  0  0  0  0  0  0
  139.9710   69.8870  224.4630 C   0  0  0  0  0  0  0  0  0  0  0  0
  140.2910   70.4590  225.8160 C   0  0  0  0  0  0  0  0  0  0  0  0
  139.8810   69.7900  226.9820 C   0  0  0  0  0  0  0  0  0  0  0  0
  140.2070   70.3050  228.2410 C   0  0  0  0  0  0  0  0  0  0  0  0
  140.9390   71.4900  228.3440 C   0  0  0  0  0  0  0  0  0  0  0  0
  141.3410   72.1660  227.1910 C   0  0  0  0  0  0  0  0  0  0  0  0
  141.0160   71.6570  225.9300 C   0  0  0  0  0  0  0  0  0  0  0  0
  138.3260   67.8270  223.0230 N   0  0  0  0  0  0  0  0  0  0  0  0
  138.6690   68.6750  221.8760 C   0  0  0  0  0  0  0  0  0  0  0  0
  139.1830   67.7680  220.7630 C   0  0  0  0  0  0  0  0  0  0  0  0
  138.9660   66.3530  221.2580 C   0  0  0  0  0  0  0  0  0  0  0  0
  138.8520   66.4870  222.7610 C   0  0  0  0  0  0  0  0  0  0  0  0
  140.9079   69.5651  223.9849 H   0  0  0  0  0  0  0  0  0  0  0  0
  139.4686   70.6711  223.8774 H   0  0  0  0  0  0  0  0  0  0  0  0
  139.3017   68.8581  226.9043 H   0  0  0  0  0  0  0  0  0  0  0  0
  139.8866   69.7762  229.1508 H   0  0  0  0  0  0  0  0  0  0  0  0
  141.1989   71.8909  229.3348 H   0  0  0  0  0  0  0  0  0  0  0  0
  141.9146   73.1009  227.2745 H   0  0  0  0  0  0  0  0  0  0  0  0
  141.3291   72.1964  225.0239 H   0  0  0  0  0  0  0  0  0  0  0  0
  137.7768   69.2194  221.5331 H   0  0  0  0  0  0  0  0  0  0  0  0
  139.4369   69.4104  222.1579 H   0  0  0  0  0  0  0  0  0  0  0  0
  138.6183   67.9410  219.8350 H   0  0  0  0  0  0  0  0  0  0  0  0
  140.2417   67.9620  220.5360 H   0  0  0  0  0  0  0  0  0  0  0  0
  138.0426   65.9310  220.8347 H   0  0  0  0  0  0  0  0  0  0  0  0
  139.7815   65.6775  220.9603 H   0  0  0  0  0  0  0  0  0  0  0  0
  138.1653   65.7253  223.1589 H   0  0  0  0  0  0  0  0  0  0  0  0
  139.8281   66.3421  223.2471 H   0  0  0  0  0  0  0  0  0  0  0  0
  1  2  2  0
  2  3  2  0
  2  4  1  0
  4  5  1  0
  5  6  2  0
  6  7  1  0
  7  8  2  0
  8  9  1  0
  9 10  2  0
  2 11  1  0
 11 12  1  0
 12 13  1  0
 13 14  1  0
 14 15  1  0
 10  5  1  0
 15 11  1  0
  4 16  1  0
  4 17  1  0
  6 18  1  0
  7 19  1  0
  8 20  1  0
  9 21  1  0
 10 22  1  0
 12 23  1  0
 12 24  1  0
 13 25  1  0
 13 26  1  0
 14 27  1  0
 14 28  1  0
 15 29  1  0
 15 30  1  0
M  END
>  <UniqueID>  (2) 
24

>  <SMILES>  (2) 
O=S(=O)(Cc1ccccc1)N1CCCC1

>  <Energy>  (2) 
25.242171289950807

>  <Genealogy>  (2) 
O=S(=O)(Cc1ccccc1)N1CCCC1 (3D coordinates assigned)
O=S(=O)(Cc1ccccc1)N1CCCC1 (nonaromatic ring conformer: 25.242171289950807 kcal/mol)

>  <smiles>  (2) 
O=S(=O)(Cc1ccccc1)N1CCCC1

>  <score_type>  (2) 
oracle

>  <origin>  (2) 
autodockgpu

>  <m_score__min__energy>  (2) 
-5.8799999999999999

>  <m_primary>  (2) 
energy

>  <meeko>  (2) 
{"free_energy": -5.71, "intermolecular_energy": -6.6, "internal_energy": -0.43, "cluster_size": 1, "cluster_id": 2, "rank_in_cluster": 1}

>  <energy>  (2) 
-5.87

>  <cluster_rmsd>  (2) 
0.43

>  <rmsd>  (2) 
273.34

>  <cluster>  (2) 
1

$$$$
GGXXWZKFDBNAQR-UHFFFAOYNA-N
     RDKit          3D

 30 31  0  0  0  0  0  0  0  0999 V2000
  139.2010   67.0330  224.1680 O   0  0  0  0  0  0  0  0  0  0  0  0
  139.1230   68.3710  224.8480 S   0  0  0  0  0  0  0  0  0  0  0  0
  137.7210   68.5560  225.3550 O   0  0  0  0  0  0  0  0  0  0  0  0
  140.2150   68.3540  226.2780 C   0  0  0  0  0  0  0  0  0  0  0  0
  140.5610   69.7380  226.7510 C   0  0  0  0  0  0  0  0  0  0  0  0
  141.4290   70.5470  225.9980 C   0  0  0  0  0  0  0  0  0  0  0  0
  141.7240   71.8470  226.4200 C   0  0  0  0  0  0  0  0  0  0  0  0
  141.1590   72.3460  227.5960 C   0  0  0  0  0  0  0  0  0  0  0  0
  140.3030   71.5450  228.3550 C   0  0  0  0  0  0  0  0  0  0  0  0
  140.0070   70.2440  227.9380 C   0  0  0  0  0  0  0  0  0  0  0  0
  139.4420   69.6270  223.6690 N   0  0  0  0  0  0  0  0  0  0  0  0
  139.0190   69.2780  222.3080 C   0  0  0  0  0  0  0  0  0  0  0  0
  138.3350   70.5000  221.7040 C   0  0  0  0  0  0  0  0  0  0  0  0
  138.5280   71.6140  222.7120 C   0  0  0  0  0  0  0  0  0  0  0  0
  138.8170   70.9040  224.0170 C   0  0  0  0  0  0  0  0  0  0  0  0
  139.7162   67.8151  227.0970 H   0  0  0  0  0  0  0  0  0  0  0  0
  141.1503   67.8578  225.9799 H   0  0  0  0  0  0  0  0  0  0  0  0
  141.8781   70.1560  225.0731 H   0  0  0  0  0  0  0  0  0  0  0  0
  142.4016   72.4773  225.8254 H   0  0  0  0  0  0  0  0  0  0  0  0
  141.3884   73.3704  227.9244 H   0  0  0  0  0  0  0  0  0  0  0  0
  139.8610   71.9384  229.2823 H   0  0  0  0  0  0  0  0  0  0  0  0
  139.3375   69.6141  228.5421 H   0  0  0  0  0  0  0  0  0  0  0  0
  139.8954   69.0026  221.7029 H   0  0  0  0  0  0  0  0  0  0  0  0
  138.3283   68.4221  222.3281 H   0  0  0  0  0  0  0  0  0  0  0  0
  138.8014   70.7658  220.7439 H   0  0  0  0  0  0  0  0  0  0  0  0
  137.2699   70.3127  221.5030 H   0  0  0  0  0  0  0  0  0  0  0  0
  139.3735   72.2559  222.4239 H   0  0  0  0  0  0  0  0  0  0  0  0
  137.6481   72.2706  222.7809 H   0  0  0  0  0  0  0  0  0  0  0  0
  139.5011   71.5059  224.6331 H   0  0  0  0  0  0  0  0  0  0  0  0
  137.8952   70.7494  224.5970 H   0  0  0  0  0  0  0  0  0  0  0  0
  1  2  2  0
  2  3  2  0
  2  4  1  0
  4  5  1  0
  5  6  2  0
  6  7  1  0
  7  8  2  0
  8  9  1  0
  9 10  2  0
  2 11  1  0
 11 12  1  0
 12 13  1  0
 13 14  1  0
 14 15  1  0
 10  5  1  0
 15 11  1  0
  4 16  1  0
  4 17  1  0
  6 18  1  0
  7 19  1  0
  8 20  1  0
  9 21  1  0
 10 22  1  0
 12 23  1  0
 12 24  1  0
 13 25  1  0
 13 26  1  0
 14 27  1  0
 14 28  1  0
 15 29  1  0
 15 30  1  0
M  END
>  <UniqueID>  (3) 
24

>  <SMILES>  (3) 
O=S(=O)(Cc1ccccc1)N1CCCC1

>  <Energy>  (3) 
25.242171289950807

>  <Genealogy>  (3) 
O=S(=O)(Cc1ccccc1)N1CCCC1 (3D coordinates assigned)
O=S(=O)(Cc1ccccc1)N1CCCC1 (nonaromatic ring conformer: 25.242171289950807 kcal/mol)

>  <smiles>  (3) 
O=S(=O)(Cc1ccccc1)N1CCCC1

>  <score_type>  (3) 
oracle

>  <origin>  (3) 
autodockgpu

>  <m_score__min__energy>  (3) 
-5.8799999999999999

>  <m_primary>  (3) 
energy

>  <meeko>  (3) 
{"free_energy": -5.71, "intermolecular_energy": -6.6, "internal_energy": -0.69, "cluster_size": 18, "cluster_id": 1, "rank_in_cluster": 15}

>  <energy>  (3) 
-5.87

>  <cluster_rmsd>  (3) 
0.11

>  <rmsd>  (3) 
273.39

>  <cluster>  (3) 
1

$$$$
GGXXWZKFDBNAQR-UHFFFAOYNA-N
     RDKit          3D

 30 31  0  0  0  0  0  0  0  0999 V2000
  139.2250   67.0770  224.4390 O   0  0  0  0  0  0  0  0  0  0  0  0
  139.1260   68.4550  225.0320 S   0  0  0  0  0  0  0  0  0  0  0  0
  137.6920   68.7030  225.4020 O   0  0  0  0  0  0  0  0  0  0  0  0
  140.0900   68.4980  226.5510 C   0  0  0  0  0  0  0  0  0  0  0  0
  140.5100   69.8920  226.9230 C   0  0  0  0  0  0  0  0  0  0  0  0
  141.4460   70.5840  226.1360 C   0  0  0  0  0  0  0  0  0  0  0  0
  141.8120   71.8930  226.4630 C   0  0  0  0  0  0  0  0  0  0  0  0
  141.2480   72.5190  227.5770 C   0  0  0  0  0  0  0  0  0  0  0  0
  140.3240   71.8360  228.3710 C   0  0  0  0  0  0  0  0  0  0  0  0
  139.9580   70.5260  228.0500 C   0  0  0  0  0  0  0  0  0  0  0  0
  139.5820   69.6310  223.8150 N   0  0  0  0  0  0  0  0  0  0  0  0
  139.1920   69.2490  222.4530 C   0  0  0  0  0  0  0  0  0  0  0  0
  138.6210   70.4860  221.7680 C   0  0  0  0  0  0  0  0  0  0  0  0
  138.8510   71.6290  222.7330 C   0  0  0  0  0  0  0  0  0  0  0  0
  139.0350   70.9620  224.0790 C   0  0  0  0  0  0  0  0  0  0  0  0
  139.4813   68.0825  227.3677 H   0  0  0  0  0  0  0  0  0  0  0  0
  141.0020   67.9053  226.3866 H   0  0  0  0  0  0  0  0  0  0  0  0
  141.8928   70.0935  225.2586 H   0  0  0  0  0  0  0  0  0  0  0  0
  142.5445   72.4302  225.8427 H   0  0  0  0  0  0  0  0  0  0  0  0
  141.5320   73.5513  227.8293 H   0  0  0  0  0  0  0  0  0  0  0  0
  139.8839   72.3297  229.2500 H   0  0  0  0  0  0  0  0  0  0  0  0
  139.2352   69.9888  228.6816 H   0  0  0  0  0  0  0  0  0  0  0  0
  140.0710   68.8869  221.8996 H   0  0  0  0  0  0  0  0  0  0  0  0
  138.4431   68.4438  222.4791 H   0  0  0  0  0  0  0  0  0  0  0  0
  139.1432   70.6744  220.8184 H   0  0  0  0  0  0  0  0  0  0  0  0
  137.5541   70.3631  221.5298 H   0  0  0  0  0  0  0  0  0  0  0  0
  139.7511   72.1968  222.4548 H   0  0  0  0  0  0  0  0  0  0  0  0
  138.0181   72.3476  222.7342 H   0  0  0  0  0  0  0  0  0  0  0  0
  139.7338   71.5435  224.6983 H   0  0  0  0  0  0  0  0  0  0  0  0
  138.0814   70.8980  224.6235 H   0  0  0  0  0  0  0  0  0  0  0  0
  1  2  2  0
  2  3  2  0
  2  4  1  0
  4  5  1  0
  5  6  2  0
  6  7  1  0
  7  8  2  0
  8  9  1  0
  9 10  2  0
  2 11  1  0
 11 12  1  0
 12 13  1  0
 13 14  1  0
 14 15  1  0
 10  5  1  0
 15 11  1  0
  4 16  1  0
  4 17  1  0
  6 18  1  0
  7 19  1  0
  8 20  1  0
  9 21  1  0
 10 22  1  0
 12 23  1  0
 12 24  1  0
 13 25  1  0
 13 26  1  0
 14 27  1  0
 14 28  1  0
 15 29  1  0
 15 30  1  0
M  END
>  <UniqueID>  (4) 
24

>  <SMILES>  (4) 
O=S(=O)(Cc1ccccc1)N1CCCC1

>  <Energy>  (4) 
25.242171289950807

>  <Genealogy>  (4) 
O=S(=O)(Cc1ccccc1)N1CCCC1 (3D coordinates assigned)
O=S(=O)(Cc1ccccc1)N1CCCC1 (nonaromatic ring conformer: 25.242171289950807 kcal/mol)

>  <smiles>  (4) 
O=S(=O)(Cc1ccccc1)N1CCCC1

>  <score_type>  (4) 
oracle

>  <origin>  (4) 
autodockgpu

>  <m_score__min__energy>  (4) 
-5.8799999999999999

>  <m_primary>  (4) 
energy

>  <meeko>  (4) 
{"free_energy": -5.76, "intermolecular_energy": -6.66, "internal_energy": -0.67, "cluster_size": 18, "cluster_id": 1, "rank_in_cluster": 7}

>  <energy>  (4) 
-5.86

>  <cluster_rmsd>  (4) 
0.4

>  <rmsd>  (4) 
273.32

>  <cluster>  (4) 
1

$$$$
GGXXWZKFDBNAQR-UHFFFAOYNA-N
     RDKit          3D

 30 31  0  0  0  0  0  0  0  0999 V2000
  139.1970   67.0000  224.1430 O   0  0  0  0  0  0  0  0  0  0  0  0
  139.1350   68.3450  224.8110 S   0  0  0  0  0  0  0  0  0  0  0  0
  137.7460   68.5370  225.3500 O   0  0  0  0  0  0  0  0  0  0  0  0
  140.2620   68.3430  226.2130 C   0  0  0  0  0  0  0  0  0  0  0  0
  140.5600   69.7310  226.7090 C   0  0  0  0  0  0  0  0  0  0  0  0
  141.4050   70.5790  225.9740 C   0  0  0  0  0  0  0  0  0  0  0  0
  141.6560   71.8810  226.4180 C   0  0  0  0  0  0  0  0  0  0  0  0
  141.0690   72.3430  227.5980 C   0  0  0  0  0  0  0  0  0  0  0  0
  140.2360   71.5030  228.3400 C   0  0  0  0  0  0  0  0  0  0  0  0
  139.9840   70.2000  227.9020 C   0  0  0  0  0  0  0  0  0  0  0  0
  139.4250   69.5890  223.6110 N   0  0  0  0  0  0  0  0  0  0  0  0
  138.9490   69.2340  222.2680 C   0  0  0  0  0  0  0  0  0  0  0  0
  138.2570   70.4590  221.6800 C   0  0  0  0  0  0  0  0  0  0  0  0
  138.5000   71.5780  222.6710 C   0  0  0  0  0  0  0  0  0  0  0  0
  138.8280   70.8750  223.9700 C   0  0  0  0  0  0  0  0  0  0  0  0
  139.8074   67.7652  227.0312 H   0  0  0  0  0  0  0  0  0  0  0  0
  141.2098   67.8938  225.8816 H   0  0  0  0  0  0  0  0  0  0  0  0
  141.8711   70.2174  225.0455 H   0  0  0  0  0  0  0  0  0  0  0  0
  142.3164   72.5419  225.8374 H   0  0  0  0  0  0  0  0  0  0  0  0
  141.2630   73.3693  227.9432 H   0  0  0  0  0  0  0  0  0  0  0  0
  139.7773   71.8676  229.2710 H   0  0  0  0  0  0  0  0  0  0  0  0
  139.3326   69.5393  228.4930 H   0  0  0  0  0  0  0  0  0  0  0  0
  139.7998   68.9444  221.6338 H   0  0  0  0  0  0  0  0  0  0  0  0
  138.2505   68.3858  222.3196 H   0  0  0  0  0  0  0  0  0  0  0  0
  138.6903   70.7120  220.7011 H   0  0  0  0  0  0  0  0  0  0  0  0
  137.1831   70.2826  221.5201 H   0  0  0  0  0  0  0  0  0  0  0  0
  139.3420   72.2073  222.3470 H   0  0  0  0  0  0  0  0  0  0  0  0
  137.6311   72.2457  222.7666 H   0  0  0  0  0  0  0  0  0  0  0  0
  139.5408   71.4738  224.5560 H   0  0  0  0  0  0  0  0  0  0  0  0
  137.9260   70.7356  224.5839 H   0  0  0  0  0  0  0  0  0  0  0  0
  1  2  2  0
  2  3  2  0
  2  4  1  0
  4  5  1  0
  5  6  2  0
  6  7  1  0
  7  8  2  0
  8  9  1  0
  9 10  2  0
  2 11  1  0
 11 12  1  0
 12 13  1  0
 13 14  1  0
 14 15  1  0
 10  5  1  0
 15 11  1  0
  4 16  1  0
  4 17  1  0
  6 18  1  0
  7 19  1  0
  8 20  1  0
  9 21  1  0
 10 22  1  0
 12 23  1  0
 12 24  1  0
 13 25  1  0
 13 26  1  0
 14 27  1  0
 14 28  1  0
 15 29  1  0
 15 30  1  0
M  END
>  <UniqueID>  (5) 
24

>  <SMILES>  (5) 
O=S(=O)(Cc1ccccc1)N1CCCC1

>  <Energy>  (5) 
25.242171289950807

>  <Genealogy>  (5) 
O=S(=O)(Cc1ccccc1)N1CCCC1 (3D coordinates assigned)
O=S(=O)(Cc1ccccc1)N1CCCC1 (nonaromatic ring conformer: 25.242171289950807 kcal/mol)

>  <smiles>  (5) 
O=S(=O)(Cc1ccccc1)N1CCCC1

>  <score_type>  (5) 
oracle

>  <origin>  (5) 
autodockgpu

>  <m_score__min__energy>  (5) 
-5.8799999999999999

>  <m_primary>  (5) 
energy

>  <meeko>  (5) 
{"free_energy": -5.7, "intermolecular_energy": -6.59, "internal_energy": -0.69, "cluster_size": 18, "cluster_id": 1, "rank_in_cluster": 16}

>  <energy>  (5) 
-5.85

>  <cluster_rmsd>  (5) 
0.2

>  <rmsd>  (5) 
273.35

>  <cluster>  (5) 
1

$$$$
GGXXWZKFDBNAQR-UHFFFAOYNA-N
     RDKit          3D

 30 31  0  0  0  0  0  0  0  0999 V2000
  139.2980   67.0440  224.4130 O   0  0  0  0  0  0  0  0  0  0  0  0
  139.0910   68.4050  225.0160 S   0  0  0  0  0  0  0  0  0  0  0  0
  137.6330   68.5540  225.3460 O   0  0  0  0  0  0  0  0  0  0  0  0
  140.0050   68.4930  226.5640 C   0  0  0  0  0  0  0  0  0  0  0  0
  140.4320   69.8950  226.8980 C   0  0  0  0  0  0  0  0  0  0  0  0
  139.9450   70.5260  228.0550 C   0  0  0  0  0  0  0  0  0  0  0  0
  140.3680   71.8180  228.3830 C   0  0  0  0  0  0  0  0  0  0  0  0
  141.2750   72.4880  227.5590 C   0  0  0  0  0  0  0  0  0  0  0  0
  141.7560   71.8720  226.4010 C   0  0  0  0  0  0  0  0  0  0  0  0
  141.3340   70.5820  226.0680 C   0  0  0  0  0  0  0  0  0  0  0  0
  139.5040   69.6230  223.8260 N   0  0  0  0  0  0  0  0  0  0  0  0
  139.1930   69.2280  222.4470 C   0  0  0  0  0  0  0  0  0  0  0  0
  138.5590   70.4260  221.7500 C   0  0  0  0  0  0  0  0  0  0  0  0
  138.6690   71.5740  222.7320 C   0  0  0  0  0  0  0  0  0  0  0  0
  138.8510   70.9080  224.0790 C   0  0  0  0  0  0  0  0  0  0  0  0
  139.3640   68.1163  227.3747 H   0  0  0  0  0  0  0  0  0  0  0  0
  140.9136   67.8831  226.4523 H   0  0  0  0  0  0  0  0  0  0  0  0
  139.2287   70.0021  228.7049 H   0  0  0  0  0  0  0  0  0  0  0  0
  139.9859   72.3071  229.2911 H   0  0  0  0  0  0  0  0  0  0  0  0
  141.6110   73.5018  227.8221 H   0  0  0  0  0  0  0  0  0  0  0  0
  142.4673   72.4026  225.7510 H   0  0  0  0  0  0  0  0  0  0  0  0
  141.7096   70.1023  225.1521 H   0  0  0  0  0  0  0  0  0  0  0  0
  140.1159   68.9364  221.9243 H   0  0  0  0  0  0  0  0  0  0  0  0
  138.5039   68.3706  222.4394 H   0  0  0  0  0  0  0  0  0  0  0  0
  139.1008   70.6613  220.8220 H   0  0  0  0  0  0  0  0  0  0  0  0
  137.5136   70.2281  221.4708 H   0  0  0  0  0  0  0  0  0  0  0  0
  139.5350   72.2084  222.4923 H   0  0  0  0  0  0  0  0  0  0  0  0
  137.7867   72.2304  222.7070 H   0  0  0  0  0  0  0  0  0  0  0  0
  139.4815   71.5325  224.7290 H   0  0  0  0  0  0  0  0  0  0  0  0
  137.8848   70.7686  224.5861 H   0  0  0  0  0  0  0  0  0  0  0  0
  1  2  2  0
  2  3  2  0
  2  4  1  0
  4  5  1  0
  5  6  2  0
  6  7  1  0
  7  8  2  0
  8  9  1  0
  9 10  2  0
  2 11  1  0
 11 12  1  0
 12 13  1  0
 13 14  1  0
 14 15  1  0
 10  5  1  0
 15 11  1  0
  4 16  1  0
  4 17  1  0
  6 18  1  0
  7 19  1  0
  8 20  1  0
  9 21  1  0
 10 22  1  0
 12 23  1  0
 12 24  1  0
 13 25  1  0
 13 26  1  0
 14 27  1  0
 14 28  1  0
 15 29  1  0
 15 30  1  0
M  END
>  <UniqueID>  (6) 
24

>  <SMILES>  (6) 
O=S(=O)(Cc1ccccc1)N1CCCC1

>  <Energy>  (6) 
25.242171289950807

>  <Genealogy>  (6) 
O=S(=O)(Cc1ccccc1)N1CCCC1 (3D coordinates assigned)
O=S(=O)(Cc1ccccc1)N1CCCC1 (nonaromatic ring conformer: 25.242171289950807 kcal/mol)

>  <smiles>  (6) 
O=S(=O)(Cc1ccccc1)N1CCCC1

>  <score_type>  (6) 
oracle

>  <origin>  (6) 
autodockgpu

>  <m_score__min__energy>  (6) 
-5.8799999999999999

>  <m_primary>  (6) 
energy

>  <meeko>  (6) 
{"free_energy": -5.71, "intermolecular_energy": -6.61, "internal_energy": -0.65, "cluster_size": 18, "cluster_id": 1, "rank_in_cluster": 13}

>  <energy>  (6) 
-5.81

>  <cluster_rmsd>  (6) 
0.14

>  <rmsd>  (6) 
273.37

>  <cluster>  (6) 
1

$$$$
GGXXWZKFDBNAQR-UHFFFAOYNA-N
     RDKit          3D

 30 31  0  0  0  0  0  0  0  0999 V2000
  139.5060   67.1240  224.3030 O   0  0  0  0  0  0  0  0  0  0  0  0
  139.2430   67.8940  225.5670 S   0  0  0  0  0  0  0  0  0  0  0  0
  138.4530   67.0160  226.4950 O   0  0  0  0  0  0  0  0  0  0  0  0
  140.8170   68.2430  226.3660 C   0  0  0  0  0  0  0  0  0  0  0  0
  140.9290   69.6740  226.8100 C   0  0  0  0  0  0  0  0  0  0  0  0
  141.6680   70.5960  226.0480 C   0  0  0  0  0  0  0  0  0  0  0  0
  141.7450   71.9350  226.4430 C   0  0  0  0  0  0  0  0  0  0  0  0
  141.0880   72.3620  227.6000 C   0  0  0  0  0  0  0  0  0  0  0  0
  140.3600   71.4510  228.3670 C   0  0  0  0  0  0  0  0  0  0  0  0
  140.2820   70.1100  227.9780 C   0  0  0  0  0  0  0  0  0  0  0  0
  138.2640   69.2960  225.1850 N   0  0  0  0  0  0  0  0  0  0  0  0
  138.9390   70.2650  224.3140 C   0  0  0  0  0  0  0  0  0  0  0  0
  137.9360   70.7240  223.2610 C   0  0  0  0  0  0  0  0  0  0  0  0
  136.6130   70.1050  223.6620 C   0  0  0  0  0  0  0  0  0  0  0  0
  136.9900   68.9440  224.5570 C   0  0  0  0  0  0  0  0  0  0  0  0
  140.9186   67.5910  227.2461 H   0  0  0  0  0  0  0  0  0  0  0  0
  141.6145   68.0562  225.6318 H   0  0  0  0  0  0  0  0  0  0  0  0
  142.1876   70.2626  225.1376 H   0  0  0  0  0  0  0  0  0  0  0  0
  142.3231   72.6528  225.8426 H   0  0  0  0  0  0  0  0  0  0  0  0
  141.1446   73.4169  227.9066 H   0  0  0  0  0  0  0  0  0  0  0  0
  139.8465   71.7886  229.2794 H   0  0  0  0  0  0  0  0  0  0  0  0
  139.7121   69.3943  228.5887 H   0  0  0  0  0  0  0  0  0  0  0  0
  139.2799   71.1267  224.9066 H   0  0  0  0  0  0  0  0  0  0  0  0
  139.8156   69.8049  223.8345 H   0  0  0  0  0  0  0  0  0  0  0  0
  137.8605   71.8214  223.2551 H   0  0  0  0  0  0  0  0  0  0  0  0
  138.2390   70.4172  222.2490 H   0  0  0  0  0  0  0  0  0  0  0  0
  135.9942   70.8317  224.2087 H   0  0  0  0  0  0  0  0  0  0  0  0
  136.0212   69.7855  222.7915 H   0  0  0  0  0  0  0  0  0  0  0  0
  136.2178   68.7908  225.3253 H   0  0  0  0  0  0  0  0  0  0  0  0
  137.0765   68.0110  223.9808 H   0  0  0  0  0  0  0  0  0  0  0  0
  1  2  2  0
  2  3  2  0
  2  4  1  0
  4  5  1  0
  5  6  2  0
  6  7  1  0
  7  8  2  0
  8  9  1  0
  9 10  2  0
  2 11  1  0
 11 12  1  0
 12 13  1  0
 13 14  1  0
 14 15  1  0
 10  5  1  0
 15 11  1  0
  4 16  1  0
  4 17  1  0
  6 18  1  0
  7 19  1  0
  8 20  1  0
  9 21  1  0
 10 22  1  0
 12 23  1  0
 12 24  1  0
 13 25  1  0
 13 26  1  0
 14 27  1  0
 14 28  1  0
 15 29  1  0
 15 30  1  0
M  END
>  <UniqueID>  (7) 
24

>  <SMILES>  (7) 
O=S(=O)(Cc1ccccc1)N1CCCC1

>  <Energy>  (7) 
25.242171289950807

>  <Genealogy>  (7) 
O=S(=O)(Cc1ccccc1)N1CCCC1 (3D coordinates assigned)
O=S(=O)(Cc1ccccc1)N1CCCC1 (nonaromatic ring conformer: 25.242171289950807 kcal/mol)

>  <smiles>  (7) 
O=S(=O)(Cc1ccccc1)N1CCCC1

>  <score_type>  (7) 
oracle

>  <origin>  (7) 
autodockgpu

>  <m_score__min__energy>  (7) 
-5.8799999999999999

>  <m_primary>  (7) 
energy

>  <meeko>  (7) 
{"free_energy": -5.87, "intermolecular_energy": -6.76, "internal_energy": -0.68, "cluster_size": 18, "cluster_id": 1, "rank_in_cluster": 3}

>  <energy>  (7) 
-5.76

>  <cluster_rmsd>  (7) 
1.21

>  <rmsd>  (7) 
273.24

>  <cluster>  (7) 
1

$$$$
GGXXWZKFDBNAQR-UHFFFAOYNA-N
     RDKit          3D

 30 31  0  0  0  0  0  0  0  0999 V2000
  139.5610   67.0460  224.2860 O   0  0  0  0  0  0  0  0  0  0  0  0
  139.2760   67.8630  225.5150 S   0  0  0  0  0  0  0  0  0  0  0  0
  138.4560   67.0250  226.4540 O   0  0  0  0  0  0  0  0  0  0  0  0
  140.8350   68.2270  226.3380 C   0  0  0  0  0  0  0  0  0  0  0  0
  140.9370   69.6660  226.7590 C   0  0  0  0  0  0  0  0  0  0  0  0
  140.3180   70.1020  227.9430 C   0  0  0  0  0  0  0  0  0  0  0  0
  140.4410   71.4340  228.3520 C   0  0  0  0  0  0  0  0  0  0  0  0
  141.1780   72.3370  227.5820 C   0  0  0  0  0  0  0  0  0  0  0  0
  141.7870   71.9140  226.3990 C   0  0  0  0  0  0  0  0  0  0  0  0
  141.6650   70.5850  225.9840 C   0  0  0  0  0  0  0  0  0  0  0  0
  138.3190   69.2580  225.0590 N   0  0  0  0  0  0  0  0  0  0  0  0
  139.0500   70.2310  224.2400 C   0  0  0  0  0  0  0  0  0  0  0  0
  138.1250   70.6830  223.1150 C   0  0  0  0  0  0  0  0  0  0  0  0
  136.7800   70.0560  223.4180 C   0  0  0  0  0  0  0  0  0  0  0  0
  137.0970   68.8980  224.3400 C   0  0  0  0  0  0  0  0  0  0  0  0
  140.9203   67.5905  227.2311 H   0  0  0  0  0  0  0  0  0  0  0  0
  141.6468   68.0279  225.6229 H   0  0  0  0  0  0  0  0  0  0  0  0
  139.7350   69.3936  228.5499 H   0  0  0  0  0  0  0  0  0  0  0  0
  139.9570   71.7707  229.2807 H   0  0  0  0  0  0  0  0  0  0  0  0
  141.2786   73.3827  227.9082 H   0  0  0  0  0  0  0  0  0  0  0  0
  142.3638   72.6279  225.7926 H   0  0  0  0  0  0  0  0  0  0  0  0
  142.1403   70.2572  225.0477 H   0  0  0  0  0  0  0  0  0  0  0  0
  139.3402   71.0952  224.8557 H   0  0  0  0  0  0  0  0  0  0  0  0
  139.9628   69.7766  223.8273 H   0  0  0  0  0  0  0  0  0  0  0  0
  138.0433   71.7799  223.1022 H   0  0  0  0  0  0  0  0  0  0  0  0
  138.5039   70.3775  222.1285 H   0  0  0  0  0  0  0  0  0  0  0  0
  136.1180   70.7793  223.9166 H   0  0  0  0  0  0  0  0  0  0  0  0
  136.2562   69.7320  222.5066 H   0  0  0  0  0  0  0  0  0  0  0  0
  136.2714   68.7411  225.0497 H   0  0  0  0  0  0  0  0  0  0  0  0
  137.2309   67.9649  223.7730 H   0  0  0  0  0  0  0  0  0  0  0  0
  1  2  2  0
  2  3  2  0
  2  4  1  0
  4  5  1  0
  5  6  2  0
  6  7  1  0
  7  8  2  0
  8  9  1  0
  9 10  2  0
  2 11  1  0
 11 12  1  0
 12 13  1  0
 13 14  1  0
 14 15  1  0
 10  5  1  0
 15 11  1  0
  4 16  1  0
  4 17  1  0
  6 18  1  0
  7 19  1  0
  8 20  1  0
  9 21  1  0
 10 22  1  0
 12 23  1  0
 12 24  1  0
 13 25  1  0
 13 26  1  0
 14 27  1  0
 14 28  1  0
 15 29  1  0
 15 30  1  0
M  END
>  <UniqueID>  (8) 
24

>  <SMILES>  (8) 
O=S(=O)(Cc1ccccc1)N1CCCC1

>  <Energy>  (8) 
25.242171289950807

>  <Genealogy>  (8) 
O=S(=O)(Cc1ccccc1)N1CCCC1 (3D coordinates assigned)
O=S(=O)(Cc1ccccc1)N1CCCC1 (nonaromatic ring conformer: 25.242171289950807 kcal/mol)

>  <smiles>  (8) 
O=S(=O)(Cc1ccccc1)N1CCCC1

>  <score_type>  (8) 
oracle

>  <origin>  (8) 
autodockgpu

>  <m_score__min__energy>  (8) 
-5.8799999999999999

>  <m_primary>  (8) 
energy

>  <meeko>  (8) 
{"free_energy": -5.85, "intermolecular_energy": -6.75, "internal_energy": -0.64, "cluster_size": 18, "cluster_id": 1, "rank_in_cluster": 5}

>  <energy>  (8) 
-5.76

>  <cluster_rmsd>  (8) 
1.2

>  <rmsd>  (8) 
273.21

>  <cluster>  (8) 
1

$$$$
GGXXWZKFDBNAQR-UHFFFAOYNA-N
     RDKit          3D

 30 31  0  0  0  0  0  0  0  0999 V2000
  139.2880   67.0640  224.3780 O   0  0  0  0  0  0  0  0  0  0  0  0
  139.1460   68.4290  224.9910 S   0  0  0  0  0  0  0  0  0  0  0  0
  137.7010   68.6340  225.3480 O   0  0  0  0  0  0  0  0  0  0  0  0
  140.0910   68.4740  226.5220 C   0  0  0  0  0  0  0  0  0  0  0  0
  140.5030   69.8690  226.8990 C   0  0  0  0  0  0  0  0  0  0  0  0
  141.4280   70.5720  226.1080 C   0  0  0  0  0  0  0  0  0  0  0  0
  141.7870   71.8820  226.4410 C   0  0  0  0  0  0  0  0  0  0  0  0
  141.2290   72.4970  227.5640 C   0  0  0  0  0  0  0  0  0  0  0  0
  140.3170   71.8010  228.3610 C   0  0  0  0  0  0  0  0  0  0  0  0
  139.9570   70.4910  228.0350 C   0  0  0  0  0  0  0  0  0  0  0  0
  139.5850   69.6360  223.7980 N   0  0  0  0  0  0  0  0  0  0  0  0
  139.2160   69.2680  222.4260 C   0  0  0  0  0  0  0  0  0  0  0  0
  138.6220   70.5020  221.7560 C   0  0  0  0  0  0  0  0  0  0  0  0
  138.8160   71.6340  222.7420 C   0  0  0  0  0  0  0  0  0  0  0  0
  139.0030   70.9490  224.0790 C   0  0  0  0  0  0  0  0  0  0  0  0
  139.4732   68.0571  227.3310 H   0  0  0  0  0  0  0  0  0  0  0  0
  141.0063   67.8833  226.3691 H   0  0  0  0  0  0  0  0  0  0  0  0
  141.8711   70.0901  225.2240 H   0  0  0  0  0  0  0  0  0  0  0  0
  142.5098   72.4288  225.8176 H   0  0  0  0  0  0  0  0  0  0  0  0
  141.5077   73.5296  227.8209 H   0  0  0  0  0  0  0  0  0  0  0  0
  139.8813   72.2854  229.2473 H   0  0  0  0  0  0  0  0  0  0  0  0
  139.2438   69.9445  228.6696 H   0  0  0  0  0  0  0  0  0  0  0  0
  140.1082   68.9360  221.8749 H   0  0  0  0  0  0  0  0  0  0  0  0
  138.4859   68.4453  222.4321 H   0  0  0  0  0  0  0  0  0  0  0  0
  139.1481   70.7185  220.8146 H   0  0  0  0  0  0  0  0  0  0  0  0
  137.5606   70.3579  221.5056 H   0  0  0  0  0  0  0  0  0  0  0  0
  139.7051   72.2272  222.4820 H   0  0  0  0  0  0  0  0  0  0  0  0
  137.9665   72.3328  222.7468 H   0  0  0  0  0  0  0  0  0  0  0  0
  139.6814   71.5367  224.7150 H   0  0  0  0  0  0  0  0  0  0  0  0
  138.0461   70.8528  224.6129 H   0  0  0  0  0  0  0  0  0  0  0  0
  1  2  2  0
  2  3  2  0
  2  4  1  0
  4  5  1  0
  5  6  2  0
  6  7  1  0
  7  8  2  0
  8  9  1  0
  9 10  2  0
  2 11  1  0
 11 12  1  0
 12 13  1  0
 13 14  1  0
 14 15  1  0
 10  5  1  0
 15 11  1  0
  4 16  1  0
  4 17  1  0
  6 18  1  0
  7 19  1  0
  8 20  1  0
  9 21  1  0
 10 22  1  0
 12 23  1  0
 12 24  1  0
 13 25  1  0
 13 26  1  0
 14 27  1  0
 14 28  1  0
 15 29  1  0
 15 30  1  0
M  END
>  <UniqueID>  (9) 
24

>  <SMILES>  (9) 
O=S(=O)(Cc1ccccc1)N1CCCC1

>  <Energy>  (9) 
25.242171289950807

>  <Genealogy>  (9) 
O=S(=O)(Cc1ccccc1)N1CCCC1 (3D coordinates assigned)
O=S(=O)(Cc1ccccc1)N1CCCC1 (nonaromatic ring conformer: 25.242171289950807 kcal/mol)

>  <smiles>  (9) 
O=S(=O)(Cc1ccccc1)N1CCCC1

>  <score_type>  (9) 
oracle

>  <origin>  (9) 
autodockgpu

>  <m_score__min__energy>  (9) 
-5.8799999999999999

>  <m_primary>  (9) 
energy

>  <meeko>  (9) 
{"free_energy": -5.76, "intermolecular_energy": -6.65, "internal_energy": -0.66, "cluster_size": 18, "cluster_id": 1, "rank_in_cluster": 8}

>  <energy>  (9) 
-5.74

>  <cluster_rmsd>  (9) 
1.2

>  <rmsd>  (9) 
273.11

>  <cluster>  (9) 
1

$$$$
GGXXWZKFDBNAQR-UHFFFAOYNA-N
     RDKit          3D

 30 31  0  0  0  0  0  0  0  0999 V2000
  139.5490   67.0140  224.2440 O   0  0  0  0  0  0  0  0  0  0  0  0
  139.3030   68.0550  225.3000 S   0  0  0  0  0  0  0  0  0  0  0  0
  138.7730   67.3640  226.5240 O   0  0  0  0  0  0  0  0  0  0  0  0
  140.8770   68.8060  225.7450 C   0  0  0  0  0  0  0  0  0  0  0  0
  140.7100   69.9800  226.6680 C   0  0  0  0  0  0  0  0  0  0  0  0
  141.4090   71.1750  226.4280 C   0  0  0  0  0  0  0  0  0  0  0  0
  141.2290   72.2780  227.2680 C   0  0  0  0  0  0  0  0  0  0  0  0
  140.3540   72.1950  228.3540 C   0  0  0  0  0  0  0  0  0  0  0  0
  139.6630   71.0070  228.6060 C   0  0  0  0  0  0  0  0  0  0  0  0
  139.8420   69.9010  227.7700 C   0  0  0  0  0  0  0  0  0  0  0  0
  138.0720   69.1630  224.7290 N   0  0  0  0  0  0  0  0  0  0  0  0
  138.5580   70.5360  224.5410 C   0  0  0  0  0  0  0  0  0  0  0  0
  137.9890   71.0550  223.2260 C   0  0  0  0  0  0  0  0  0  0  0  0
  137.0260   69.9880  222.7480 C   0  0  0  0  0  0  0  0  0  0  0  0
  137.4590   68.7320  223.4730 C   0  0  0  0  0  0  0  0  0  0  0  0
  141.5008   68.0499  226.2442 H   0  0  0  0  0  0  0  0  0  0  0  0
  141.3485   69.1703  224.8204 H   0  0  0  0  0  0  0  0  0  0  0  0
  142.1008   71.2430  225.5755 H   0  0  0  0  0  0  0  0  0  0  0  0
  141.7767   73.2119  227.0737 H   0  0  0  0  0  0  0  0  0  0  0  0
  140.2090   73.0653  229.0110 H   0  0  0  0  0  0  0  0  0  0  0  0
  138.9771   70.9419  229.4635 H   0  0  0  0  0  0  0  0  0  0  0  0
  139.3013   68.9654  227.9757 H   0  0  0  0  0  0  0  0  0  0  0  0
  138.2177   71.1707  225.3725 H   0  0  0  0  0  0  0  0  0  0  0  0
  139.6576   70.5549  224.5182 H   0  0  0  0  0  0  0  0  0  0  0  0
  137.4597   72.0060  223.3856 H   0  0  0  0  0  0  0  0  0  0  0  0
  138.7816   71.2474  222.4879 H   0  0  0  0  0  0  0  0  0  0  0  0
  135.9913   70.2519  223.0122 H   0  0  0  0  0  0  0  0  0  0  0  0
  137.0458   69.8670  221.6549 H   0  0  0  0  0  0  0  0  0  0  0  0
  136.5878   68.0919  223.6762 H   0  0  0  0  0  0  0  0  0  0  0  0
  138.1673   68.1487  222.8663 H   0  0  0  0  0  0  0  0  0  0  0  0
  1  2  2  0
  2  3  2  0
  2  4  1  0
  4  5  1  0
  5  6  2  0
  6  7  1  0
  7  8  2  0
  8  9  1  0
  9 10  2  0
  2 11  1  0
 11 12  1  0
 12 13  1  0
 13 14  1  0
 14 15  1  0
 10  5  1  0
 15 11  1  0
  4 16  1  0
  4 17  1  0
  6 18  1  0
  7 19  1  0
  8 20  1  0
  9 21  1  0
 10 22  1  0
 12 23  1  0
 12 24  1  0
 13 25  1  0
 13 26  1  0
 14 27  1  0
 14 28  1  0
 15 29  1  0
 15 30  1  0
M  END
>  <UniqueID>  (10) 
24

>  <SMILES>  (10) 
O=S(=O)(Cc1ccccc1)N1CCCC1

>  <Energy>  (10) 
25.242171289950807

>  <Genealogy>  (10) 
O=S(=O)(Cc1ccccc1)N1CCCC1 (3D coordinates assigned)
O=S(=O)(Cc1ccccc1)N1CCCC1 (nonaromatic ring conformer: 25.242171289950807 kcal/mol)

>  <smiles>  (10) 
O=S(=O)(Cc1ccccc1)N1CCCC1

>  <score_type>  (10) 
oracle

>  <origin>  (10) 
autodockgpu

>  <m_score__min__energy>  (10) 
-5.8799999999999999

>  <m_primary>  (10) 
energy

>  <meeko>  (10) 
{"free_energy": -5.69, "intermolecular_energy": -6.59, "internal_energy": -0.61, "cluster_size": 18, "cluster_id": 1, "rank_in_cluster": 17}

>  <energy>  (10) 
-5.73

>  <cluster_rmsd>  (10) 
1.16

>  <rmsd>  (10) 
273.28

>  <cluster>  (10) 
1

$$$$
GGXXWZKFDBNAQR-UHFFFAOYNA-N
     RDKit          3D

 30 31  0  0  0  0  0  0  0  0999 V2000
  139.2010   67.0270  224.1720 O   0  0  0  0  0  0  0  0  0  0  0  0
  139.2050   68.3910  224.8050 S   0  0  0  0  0  0  0  0  0  0  0  0
  137.8290   68.6620  225.3420 O   0  0  0  0  0  0  0  0  0  0  0  0
  140.3360   68.3710  226.2050 C   0  0  0  0  0  0  0  0  0  0  0  0
  140.6420   69.7520  226.7120 C   0  0  0  0  0  0  0  0  0  0  0  0
  141.4910   70.6020  225.9830 C   0  0  0  0  0  0  0  0  0  0  0  0
  141.7500   71.8990  226.4380 C   0  0  0  0  0  0  0  0  0  0  0  0
  141.1670   72.3550  227.6220 C   0  0  0  0  0  0  0  0  0  0  0  0
  140.3300   71.5130  228.3580 C   0  0  0  0  0  0  0  0  0  0  0  0
  140.0700   70.2150  227.9090 C   0  0  0  0  0  0  0  0  0  0  0  0
  139.5510   69.5880  223.5730 N   0  0  0  0  0  0  0  0  0  0  0  0
  139.0560   69.2210  222.2410 C   0  0  0  0  0  0  0  0  0  0  0  0
  138.4210   70.4610  221.6210 C   0  0  0  0  0  0  0  0  0  0  0  0
  138.7170   71.5930  222.5820 C   0  0  0  0  0  0  0  0  0  0  0  0
  139.0140   70.9090  223.8990 C   0  0  0  0  0  0  0  0  0  0  0  0
  139.8804   67.7883  227.0192 H   0  0  0  0  0  0  0  0  0  0  0  0
  141.2808   67.9200  225.8674 H   0  0  0  0  0  0  0  0  0  0  0  0
  141.9537   70.2459  225.0508 H   0  0  0  0  0  0  0  0  0  0  0  0
  142.4139   72.5607  225.8623 H   0  0  0  0  0  0  0  0  0  0  0  0
  141.3669   73.3774  227.9752 H   0  0  0  0  0  0  0  0  0  0  0  0
  139.8746   71.8721  229.2927 H   0  0  0  0  0  0  0  0  0  0  0  0
  139.4151   69.5535  228.4950 H   0  0  0  0  0  0  0  0  0  0  0  0
  139.8909   68.8750  221.6139 H   0  0  0  0  0  0  0  0  0  0  0  0
  138.3182   68.4085  222.3160 H   0  0  0  0  0  0  0  0  0  0  0  0
  138.8644   70.6677  220.6358 H   0  0  0  0  0  0  0  0  0  0  0  0
  137.3398   70.3306  221.4659 H   0  0  0  0  0  0  0  0  0  0  0  0
  139.5868   72.1739  222.2414 H   0  0  0  0  0  0  0  0  0  0  0  0
  137.8803   72.3028  222.6603 H   0  0  0  0  0  0  0  0  0  0  0  0
  139.7542   71.4892  224.4694 H   0  0  0  0  0  0  0  0  0  0  0  0
  138.1073   70.8269  224.5163 H   0  0  0  0  0  0  0  0  0  0  0  0
  1  2  2  0
  2  3  2  0
  2  4  1  0
  4  5  1  0
  5  6  2  0
  6  7  1  0
  7  8  2  0
  8  9  1  0
  9 10  2  0
  2 11  1  0
 11 12  1  0
 12 13  1  0
 13 14  1  0
 14 15  1  0
 10  5  1  0
 15 11  1  0
  4 16  1  0
  4 17  1  0
  6 18  1  0
  7 19  1  0
  8 20  1  0
  9 21  1  0
 10 22  1  0
 12 23  1  0
 12 24  1  0
 13 25  1  0
 13 26  1  0
 14 27  1  0
 14 28  1  0
 15 29  1  0
 15 30  1  0
M  END
>  <UniqueID>  (11) 
24

>  <SMILES>  (11) 
O=S(=O)(Cc1ccccc1)N1CCCC1

>  <Energy>  (11) 
25.242171289950807

>  <Genealogy>  (11) 
O=S(=O)(Cc1ccccc1)N1CCCC1 (3D coordinates assigned)
O=S(=O)(Cc1ccccc1)N1CCCC1 (nonaromatic ring conformer: 25.242171289950807 kcal/mol)

>  <smiles>  (11) 
O=S(=O)(Cc1ccccc1)N1CCCC1

>  <score_type>  (11) 
oracle

>  <origin>  (11) 
autodockgpu

>  <m_score__min__energy>  (11) 
-5.8799999999999999

>  <m_primary>  (11) 
energy

>  <meeko>  (11) 
{"free_energy": -5.69, "intermolecular_energy": -6.59, "internal_energy": -0.68, "cluster_size": 18, "cluster_id": 1, "rank_in_cluster": 18}

>  <energy>  (11) 
-5.73

>  <cluster_rmsd>  (11) 
1.18

>  <rmsd>  (11) 
273.1

>  <cluster>  (11) 
1

$$$$
GGXXWZKFDBNAQR-UHFFFAOYNA-N
     RDKit          3D

 30 31  0  0  0  0  0  0  0  0999 V2000
  139.4310   67.1190  224.2720 O   0  0  0  0  0  0  0  0  0  0  0  0
  139.2180   67.8890  225.5450 S   0  0  0  0  0  0  0  0  0  0  0  0
  138.4920   67.0000  226.5140 O   0  0  0  0  0  0  0  0  0  0  0  0
  140.8230   68.2720  226.2620 C   0  0  0  0  0  0  0  0  0  0  0  0
  140.9220   69.7030  226.7130 C   0  0  0  0  0  0  0  0  0  0  0  0
  140.3040   70.1130  227.9070 C   0  0  0  0  0  0  0  0  0  0  0  0
  140.4240   71.4360  228.3440 C   0  0  0  0  0  0  0  0  0  0  0  0
  141.1570   72.3570  227.5930 C   0  0  0  0  0  0  0  0  0  0  0  0
  141.7660   71.9600  226.4000 C   0  0  0  0  0  0  0  0  0  0  0  0
  141.6470   70.6390  225.9570 C   0  0  0  0  0  0  0  0  0  0  0  0
  138.1930   69.2710  225.2080 N   0  0  0  0  0  0  0  0  0  0  0  0
  138.8360   70.2890  224.3690 C   0  0  0  0  0  0  0  0  0  0  0  0
  137.8170   70.7490  223.3310 C   0  0  0  0  0  0  0  0  0  0  0  0
  136.5160   70.0740  223.7110 C   0  0  0  0  0  0  0  0  0  0  0  0
  136.9310   68.8980  224.5680 C   0  0  0  0  0  0  0  0  0  0  0  0
  140.9882   67.6159  227.1293 H   0  0  0  0  0  0  0  0  0  0  0  0
  141.5847   68.1116  225.4848 H   0  0  0  0  0  0  0  0  0  0  0  0
  139.7238   69.3906  228.4999 H   0  0  0  0  0  0  0  0  0  0  0  0
  139.9404   71.7514  229.2803 H   0  0  0  0  0  0  0  0  0  0  0  0
  141.2550   73.3959  227.9409 H   0  0  0  0  0  0  0  0  0  0  0  0
  142.3402   72.6879  225.8080 H   0  0  0  0  0  0  0  0  0  0  0  0
  142.1225   70.3319  225.0138 H   0  0  0  0  0  0  0  0  0  0  0  0
  139.1494   71.1417  224.9892 H   0  0  0  0  0  0  0  0  0  0  0  0
  139.7268   69.8735  223.8753 H   0  0  0  0  0  0  0  0  0  0  0  0
  137.7052   71.8429  223.3611 H   0  0  0  0  0  0  0  0  0  0  0  0
  138.1291   70.4857  222.3096 H   0  0  0  0  0  0  0  0  0  0  0  0
  135.8738   70.7618  224.2806 H   0  0  0  0  0  0  0  0  0  0  0  0
  135.9350   69.7633  222.8302 H   0  0  0  0  0  0  0  0  0  0  0  0
  136.1645   68.6948  225.3303 H   0  0  0  0  0  0  0  0  0  0  0  0
  137.0478   67.9875  223.9619 H   0  0  0  0  0  0  0  0  0  0  0  0
  1  2  2  0
  2  3  2  0
  2  4  1  0
  4  5  1  0
  5  6  2  0
  6  7  1  0
  7  8  2  0
  8  9  1  0
  9 10  2  0
  2 11  1  0
 11 12  1  0
 12 13  1  0
 13 14  1  0
 14 15  1  0
 10  5  1  0
 15 11  1  0
  4 16  1  0
  4 17  1  0
  6 18  1  0
  7 19  1  0
  8 20  1  0
  9 21  1  0
 10 22  1  0
 12 23  1  0
 12 24  1  0
 13 25  1  0
 13 26  1  0
 14 27  1  0
 14 28  1  0
 15 29  1  0
 15 30  1  0
M  END
>  <UniqueID>  (12) 
24

>  <SMILES>  (12) 
O=S(=O)(Cc1ccccc1)N1CCCC1

>  <Energy>  (12) 
25.242171289950807

>  <Genealogy>  (12) 
O=S(=O)(Cc1ccccc1)N1CCCC1 (3D coordinates assigned)
O=S(=O)(Cc1ccccc1)N1CCCC1 (nonaromatic ring conformer: 25.242171289950807 kcal/mol)

>  <smiles>  (12) 
O=S(=O)(Cc1ccccc1)N1CCCC1

>  <score_type>  (12) 
oracle

>  <origin>  (12) 
autodockgpu

>  <m_score__min__energy>  (12) 
-5.8799999999999999

>  <m_primary>  (12) 
energy

>  <meeko>  (12) 
{"free_energy": -5.81, "intermolecular_energy": -6.71, "internal_energy": -0.66, "cluster_size": 18, "cluster_id": 1, "rank_in_cluster": 6}

>  <energy>  (12) 
-5.72

>  <cluster_rmsd>  (12) 
0.67

>  <rmsd>  (12) 
273.31

>  <cluster>  (12) 
1

$$$$
GGXXWZKFDBNAQR-UHFFFAOYNA-N
     RDKit          3D

 30 31  0  0  0  0  0  0  0  0999 V2000
  139.4370   67.0890  224.4440 O   0  0  0  0  0  0  0  0  0  0  0  0
  139.1740   68.4300  225.0700 S   0  0  0  0  0  0  0  0  0  0  0  0
  137.7040   68.5290  225.3630 O   0  0  0  0  0  0  0  0  0  0  0  0
  140.0430   68.5100  226.6430 C   0  0  0  0  0  0  0  0  0  0  0  0
  140.4850   69.9060  226.9820 C   0  0  0  0  0  0  0  0  0  0  0  0
  141.4220   70.5690  226.1710 C   0  0  0  0  0  0  0  0  0  0  0  0
  141.8080   71.8800  226.4670 C   0  0  0  0  0  0  0  0  0  0  0  0
  141.2640   72.5360  227.5740 C   0  0  0  0  0  0  0  0  0  0  0  0
  140.3400   71.8810  228.3910 C   0  0  0  0  0  0  0  0  0  0  0  0
  139.9530   70.5700  228.1010 C   0  0  0  0  0  0  0  0  0  0  0  0
  139.5820   69.6840  223.9170 N   0  0  0  0  0  0  0  0  0  0  0  0
  139.2900   69.3220  222.5250 C   0  0  0  0  0  0  0  0  0  0  0  0
  138.6470   70.5300  221.8530 C   0  0  0  0  0  0  0  0  0  0  0  0
  138.7310   71.6520  222.8670 C   0  0  0  0  0  0  0  0  0  0  0  0
  138.9090   70.9530  224.1970 C   0  0  0  0  0  0  0  0  0  0  0  0
  139.3718   68.1493  227.4363 H   0  0  0  0  0  0  0  0  0  0  0  0
  140.9433   67.8832  226.5615 H   0  0  0  0  0  0  0  0  0  0  0  0
  141.8535   70.0545  225.2998 H   0  0  0  0  0  0  0  0  0  0  0  0
  142.5403   72.3950  225.8279 H   0  0  0  0  0  0  0  0  0  0  0  0
  141.5638   73.5694  227.8023 H   0  0  0  0  0  0  0  0  0  0  0  0
  139.9160   72.3981  229.2645 H   0  0  0  0  0  0  0  0  0  0  0  0
  139.2295   70.0557  228.7506 H   0  0  0  0  0  0  0  0  0  0  0  0
  140.2218   69.0564  222.0043 H   0  0  0  0  0  0  0  0  0  0  0  0
  138.6123   68.4563  222.4877 H   0  0  0  0  0  0  0  0  0  0  0  0
  139.1955   70.7976  220.9378 H   0  0  0  0  0  0  0  0  0  0  0  0
  137.6075   70.3259  221.5566 H   0  0  0  0  0  0  0  0  0  0  0  0
  139.5903   72.3047  222.6534 H   0  0  0  0  0  0  0  0  0  0  0  0
  137.8395   72.2962  222.8507 H   0  0  0  0  0  0  0  0  0  0  0  0
  139.5245   71.5685  224.8696 H   0  0  0  0  0  0  0  0  0  0  0  0
  137.9399   70.7871  224.6902 H   0  0  0  0  0  0  0  0  0  0  0  0
  1  2  2  0
  2  3  2  0
  2  4  1  0
  4  5  1  0
  5  6  2  0
  6  7  1  0
  7  8  2  0
  8  9  1  0
  9 10  2  0
  2 11  1  0
 11 12  1  0
 12 13  1  0
 13 14  1  0
 14 15  1  0
 10  5  1  0
 15 11  1  0
  4 16  1  0
  4 17  1  0
  6 18  1  0
  7 19  1  0
  8 20  1  0
  9 21  1  0
 10 22  1  0
 12 23  1  0
 12 24  1  0
 13 25  1  0
 13 26  1  0
 14 27  1  0
 14 28  1  0
 15 29  1  0
 15 30  1  0
M  END
>  <UniqueID>  (13) 
24

>  <SMILES>  (13) 
O=S(=O)(Cc1ccccc1)N1CCCC1

>  <Energy>  (13) 
25.242171289950807

>  <Genealogy>  (13) 
O=S(=O)(Cc1ccccc1)N1CCCC1 (3D coordinates assigned)
O=S(=O)(Cc1ccccc1)N1CCCC1 (nonaromatic ring conformer: 25.242171289950807 kcal/mol)

>  <smiles>  (13) 
O=S(=O)(Cc1ccccc1)N1CCCC1

>  <score_type>  (13) 
oracle

>  <origin>  (13) 
autodockgpu

>  <m_score__min__energy>  (13) 
-5.8799999999999999

>  <m_primary>  (13) 
energy

>  <meeko>  (13) 
{"free_energy": -5.73, "intermolecular_energy": -6.62, "internal_energy": -0.67, "cluster_size": 18, "cluster_id": 1, "rank_in_cluster": 10}

>  <energy>  (13) 
-5.71

>  <cluster_rmsd>  (13) 
1.19

>  <rmsd>  (13) 
273.19

>  <cluster>  (13) 
1

$$$$
GGXXWZKFDBNAQR-UHFFFAOYNA-N
     RDKit          3D

 30 31  0  0  0  0  0  0  0  0999 V2000
  139.2310   67.0120  224.2120 O   0  0  0  0  0  0  0  0  0  0  0  0
  139.1420   68.3600  224.8700 S   0  0  0  0  0  0  0  0  0  0  0  0
  137.7310   68.5580  225.3440 O   0  0  0  0  0  0  0  0  0  0  0  0
  140.2040   68.3620  226.3230 C   0  0  0  0  0  0  0  0  0  0  0  0
  140.5450   69.7520  226.7810 C   0  0  0  0  0  0  0  0  0  0  0  0
  141.4160   70.5530  226.0240 C   0  0  0  0  0  0  0  0  0  0  0  0
  141.7080   71.8580  226.4320 C   0  0  0  0  0  0  0  0  0  0  0  0
  141.1340   72.3710  227.5980 C   0  0  0  0  0  0  0  0  0  0  0  0
  140.2750   71.5780  228.3630 C   0  0  0  0  0  0  0  0  0  0  0  0
  139.9830   70.2720  227.9600 C   0  0  0  0  0  0  0  0  0  0  0  0
  139.4910   69.5980  223.6790 N   0  0  0  0  0  0  0  0  0  0  0  0
  139.0820   69.2350  222.3170 C   0  0  0  0  0  0  0  0  0  0  0  0
  138.4200   70.4570  221.6890 C   0  0  0  0  0  0  0  0  0  0  0  0
  138.6120   71.5810  222.6840 C   0  0  0  0  0  0  0  0  0  0  0  0
  138.8760   70.8850  224.0020 C   0  0  0  0  0  0  0  0  0  0  0  0
  139.6862   67.8379  227.1398 H   0  0  0  0  0  0  0  0  0  0  0  0
  141.1435   67.8579  226.0526 H   0  0  0  0  0  0  0  0  0  0  0  0
  141.8704   70.1517  225.1061 H   0  0  0  0  0  0  0  0  0  0  0  0
  142.3899   72.4811  225.8348 H   0  0  0  0  0  0  0  0  0  0  0  0
  141.3587   73.4004  227.9140 H   0  0  0  0  0  0  0  0  0  0  0  0
  139.8281   71.9819  229.2834 H   0  0  0  0  0  0  0  0  0  0  0  0
  139.3108   69.6485  228.5678 H   0  0  0  0  0  0  0  0  0  0  0  0
  139.9630   68.9418  221.7271 H   0  0  0  0  0  0  0  0  0  0  0  0
  138.3819   68.3868  222.3387 H   0  0  0  0  0  0  0  0  0  0  0  0
  138.9018   70.7052  220.7318 H   0  0  0  0  0  0  0  0  0  0  0  0
  137.3554   70.2789  221.4768 H   0  0  0  0  0  0  0  0  0  0  0  0
  139.4683   72.2098  222.3988 H   0  0  0  0  0  0  0  0  0  0  0  0
  137.7387   72.2480  222.7327 H   0  0  0  0  0  0  0  0  0  0  0  0
  139.5585   71.4875  224.6194 H   0  0  0  0  0  0  0  0  0  0  0  0
  137.9451   70.7480  224.5717 H   0  0  0  0  0  0  0  0  0  0  0  0
  1  2  2  0
  2  3  2  0
  2  4  1  0
  4  5  1  0
  5  6  2  0
  6  7  1  0
  7  8  2  0
  8  9  1  0
  9 10  2  0
  2 11  1  0
 11 12  1  0
 12 13  1  0
 13 14  1  0
 14 15  1  0
 10  5  1  0
 15 11  1  0
  4 16  1  0
  4 17  1  0
  6 18  1  0
  7 19  1  0
  8 20  1  0
  9 21  1  0
 10 22  1  0
 12 23  1  0
 12 24  1  0
 13 25  1  0
 13 26  1  0
 14 27  1  0
 14 28  1  0
 15 29  1  0
 15 30  1  0
M  END
>  <UniqueID>  (14) 
24

>  <SMILES>  (14) 
O=S(=O)(Cc1ccccc1)N1CCCC1

>  <Energy>  (14) 
25.242171289950807

>  <Genealogy>  (14) 
O=S(=O)(Cc1ccccc1)N1CCCC1 (3D coordinates assigned)
O=S(=O)(Cc1ccccc1)N1CCCC1 (nonaromatic ring conformer: 25.242171289950807 kcal/mol)

>  <smiles>  (14) 
O=S(=O)(Cc1ccccc1)N1CCCC1

>  <score_type>  (14) 
oracle

>  <origin>  (14) 
autodockgpu

>  <m_score__min__energy>  (14) 
-5.8799999999999999

>  <m_primary>  (14) 
energy

>  <meeko>  (14) 
{"free_energy": -5.73, "intermolecular_energy": -6.62, "internal_energy": -0.69, "cluster_size": 18, "cluster_id": 1, "rank_in_cluster": 11}

>  <energy>  (14) 
-5.71

>  <cluster_rmsd>  (14) 
1.18

>  <rmsd>  (14) 
273.09

>  <cluster>  (14) 
1

$$$$
GGXXWZKFDBNAQR-UHFFFAOYNA-N
     RDKit          3D

 30 31  0  0  0  0  0  0  0  0999 V2000
  142.1780   81.6540  224.4570 O   0  0  0  0  0  0  0  0  0  0  0  0
  142.5890   80.6580  223.4090 S   0  0  0  0  0  0  0  0  0  0  0  0
  144.0830   80.5140  223.4600 O   0  0  0  0  0  0  0  0  0  0  0  0
  141.8780   79.0590  223.8260 C   0  0  0  0  0  0  0  0  0  0  0  0
  140.4260   78.9620  223.4480 C   0  0  0  0  0  0  0  0  0  0  0  0
  139.5220   79.9600  223.8520 C   0  0  0  0  0  0  0  0  0  0  0  0
  138.1780   79.8870  223.4730 C   0  0  0  0  0  0  0  0  0  0  0  0
  137.7270   78.8200  222.6920 C   0  0  0  0  0  0  0  0  0  0  0  0
  138.6170   77.8190  222.2960 C   0  0  0  0  0  0  0  0  0  0  0  0
  139.9610   77.8850  222.6750 C   0  0  0  0  0  0  0  0  0  0  0  0
  142.1610   81.2860  221.8300 N   0  0  0  0  0  0  0  0  0  0  0  0
  141.8260   80.2430  220.8530 C   0  0  0  0  0  0  0  0  0  0  0  0
  140.5900   80.7020  220.0860 C   0  0  0  0  0  0  0  0  0  0  0  0
  140.3280   82.1200  220.5470 C   0  0  0  0  0  0  0  0  0  0  0  0
  141.0420   82.2270  221.8780 C   0  0  0  0  0  0  0  0  0  0  0  0
  142.4352   78.2746  223.2928 H   0  0  0  0  0  0  0  0  0  0  0  0
  141.9501   78.9337  224.9165 H   0  0  0  0  0  0  0  0  0  0  0  0
  139.8730   80.8009  224.4682 H   0  0  0  0  0  0  0  0  0  0  0  0
  137.4747   80.6710  223.7903 H   0  0  0  0  0  0  0  0  0  0  0  0
  136.6709   78.7682  222.3889 H   0  0  0  0  0  0  0  0  0  0  0  0
  138.2597   76.9771  221.6848 H   0  0  0  0  0  0  0  0  0  0  0  0
  140.6569   77.0908  222.3669 H   0  0  0  0  0  0  0  0  0  0  0  0
  142.6657   80.0984  220.1573 H   0  0  0  0  0  0  0  0  0  0  0  0
  141.6293   79.2882  221.3626 H   0  0  0  0  0  0  0  0  0  0  0  0
  140.7799   80.6793  219.0028 H   0  0  0  0  0  0  0  0  0  0  0  0
  139.7270   80.0466  220.2750 H   0  0  0  0  0  0  0  0  0  0  0  0
  140.7375   82.8442  219.8274 H   0  0  0  0  0  0  0  0  0  0  0  0
  139.2534   82.3394  220.6312 H   0  0  0  0  0  0  0  0  0  0  0  0
  141.4139   83.2513  222.0277 H   0  0  0  0  0  0  0  0  0  0  0  0
  140.3634   81.9935  222.7116 H   0  0  0  0  0  0  0  0  0  0  0  0
  1  2  2  0
  2  3  2  0
  2  4  1  0
  4  5  1  0
  5  6  2  0
  6  7  1  0
  7  8  2  0
  8  9  1  0
  9 10  2  0
  2 11  1  0
 11 12  1  0
 12 13  1  0
 13 14  1  0
 14 15  1  0
 10  5  1  0
 15 11  1  0
  4 16  1  0
  4 17  1  0
  6 18  1  0
  7 19  1  0
  8 20  1  0
  9 21  1  0
 10 22  1  0
 12 23  1  0
 12 24  1  0
 13 25  1  0
 13 26  1  0
 14 27  1  0
 14 28  1  0
 15 29  1  0
 15 30  1  0
M  END
>  <UniqueID>  (15) 
24

>  <SMILES>  (15) 
O=S(=O)(Cc1ccccc1)N1CCCC1

>  <Energy>  (15) 
25.242171289950807

>  <Genealogy>  (15) 
O=S(=O)(Cc1ccccc1)N1CCCC1 (3D coordinates assigned)
O=S(=O)(Cc1ccccc1)N1CCCC1 (nonaromatic ring conformer: 25.242171289950807 kcal/mol)

>  <smiles>  (15) 
O=S(=O)(Cc1ccccc1)N1CCCC1

>  <score_type>  (15) 
oracle

>  <origin>  (15) 
autodockgpu

>  <m_score__min__energy>  (15) 
-5.8799999999999999

>  <m_primary>  (15) 
energy

>  <meeko>  (15) 
{"free_energy": -4.62, "intermolecular_energy": -5.52, "internal_energy": -0.92, "cluster_size": 1, "cluster_id": 3, "rank_in_cluster": 1}

>  <energy>  (15) 
-5.71

>  <cluster_rmsd>  (15) 
1.17

>  <rmsd>  (15) 
273.08

>  <cluster>  (15) 
1

$$$$
GGXXWZKFDBNAQR-UHFFFAOYNA-N
     RDKit          3D

 30 31  0  0  0  0  0  0  0  0999 V2000
  139.1980   67.0260  224.2060 O   0  0  0  0  0  0  0  0  0  0  0  0
  139.1140   68.3700  224.8730 S   0  0  0  0  0  0  0  0  0  0  0  0
  137.7070   68.5630  225.3610 O   0  0  0  0  0  0  0  0  0  0  0  0
  140.1890   68.3630  226.3160 C   0  0  0  0  0  0  0  0  0  0  0  0
  140.5370   69.7510  226.7770 C   0  0  0  0  0  0  0  0  0  0  0  0
  141.3930   70.5580  226.0090 C   0  0  0  0  0  0  0  0  0  0  0  0
  141.6900   71.8610  226.4210 C   0  0  0  0  0  0  0  0  0  0  0  0
  141.1380   72.3650  227.6010 C   0  0  0  0  0  0  0  0  0  0  0  0
  140.2940   71.5660  228.3760 C   0  0  0  0  0  0  0  0  0  0  0  0
  139.9960   70.2610  227.9700 C   0  0  0  0  0  0  0  0  0  0  0  0
  139.4510   69.6150  223.6870 N   0  0  0  0  0  0  0  0  0  0  0  0
  139.0670   69.2440  222.3200 C   0  0  0  0  0  0  0  0  0  0  0  0
  138.3860   70.4510  221.6830 C   0  0  0  0  0  0  0  0  0  0  0  0
  138.5410   71.5790  222.6810 C   0  0  0  0  0  0  0  0  0  0  0  0
  138.8030   70.8880  224.0020 C   0  0  0  0  0  0  0  0  0  0  0  0
  139.6776   67.8363  227.1352 H   0  0  0  0  0  0  0  0  0  0  0  0
  141.1249   67.8579  226.0350 H   0  0  0  0  0  0  0  0  0  0  0  0
  141.8312   70.1636  225.0803 H   0  0  0  0  0  0  0  0  0  0  0  0
  142.3591   72.4897  225.8151 H   0  0  0  0  0  0  0  0  0  0  0  0
  141.3681   73.3922  227.9203 H   0  0  0  0  0  0  0  0  0  0  0  0
  139.8632   71.9636  229.3068 H   0  0  0  0  0  0  0  0  0  0  0  0
  139.3365   69.6321  228.5860 H   0  0  0  0  0  0  0  0  0  0  0  0
  139.9616   68.9705  221.7413 H   0  0  0  0  0  0  0  0  0  0  0  0
  138.3852   68.3809  222.3334 H   0  0  0  0  0  0  0  0  0  0  0  0
  138.8743   70.7099  220.7319 H   0  0  0  0  0  0  0  0  0  0  0  0
  137.3285   70.2497  221.4570 H   0  0  0  0  0  0  0  0  0  0  0  0
  139.3872   72.2262  222.4070 H   0  0  0  0  0  0  0  0  0  0  0  0
  137.6531   72.2272  222.7186 H   0  0  0  0  0  0  0  0  0  0  0  0
  139.4636   71.5052  224.6286 H   0  0  0  0  0  0  0  0  0  0  0  0
  137.8677   70.7297  224.5590 H   0  0  0  0  0  0  0  0  0  0  0  0
  1  2  2  0
  2  3  2  0
  2  4  1  0
  4  5  1  0
  5  6  2  0
  6  7  1  0
  7  8  2  0
  8  9  1  0
  9 10  2  0
  2 11  1  0
 11 12  1  0
 12 13  1  0
 13 14  1  0
 14 15  1  0
 10  5  1  0
 15 11  1  0
  4 16  1  0
  4 17  1  0
  6 18  1  0
  7 19  1  0
  8 20  1  0
  9 21  1  0
 10 22  1  0
 12 23  1  0
 12 24  1  0
 13 25  1  0
 13 26  1  0
 14 27  1  0
 14 28  1  0
 15 29  1  0
 15 30  1  0
M  END
>  <UniqueID>  (16) 
24

>  <SMILES>  (16) 
O=S(=O)(Cc1ccccc1)N1CCCC1

>  <Energy>  (16) 
25.242171289950807

>  <Genealogy>  (16) 
O=S(=O)(Cc1ccccc1)N1CCCC1 (3D coordinates assigned)
O=S(=O)(Cc1ccccc1)N1CCCC1 (nonaromatic ring conformer: 25.242171289950807 kcal/mol)

>  <smiles>  (16) 
O=S(=O)(Cc1ccccc1)N1CCCC1

>  <score_type>  (16) 
oracle

>  <origin>  (16) 
autodockgpu

>  <m_score__min__energy>  (16) 
-5.8799999999999999

>  <m_primary>  (16) 
energy

>  <meeko>  (16) 
{"free_energy": -5.71, "intermolecular_energy": -6.61, "internal_energy": -0.69, "cluster_size": 18, "cluster_id": 1, "rank_in_cluster": 14}

>  <energy>  (16) 
-5.7

>  <cluster_rmsd>  (16) 
1.18

>  <rmsd>  (16) 
273.04

>  <cluster>  (16) 
1

$$$$
GGXXWZKFDBNAQR-UHFFFAOYNA-N
     RDKit          3D

 30 31  0  0  0  0  0  0  0  0999 V2000
  139.5680   67.1190  224.4020 O   0  0  0  0  0  0  0  0  0  0  0  0
  139.2970   67.8760  225.6710 S   0  0  0  0  0  0  0  0  0  0  0  0
  138.5220   66.9810  226.5950 O   0  0  0  0  0  0  0  0  0  0  0  0
  140.8680   68.2440  226.4680 C   0  0  0  0  0  0  0  0  0  0  0  0
  140.9820   69.6890  226.8690 C   0  0  0  0  0  0  0  0  0  0  0  0
  141.7320   70.5830  226.0860 C   0  0  0  0  0  0  0  0  0  0  0  0
  141.8110   71.9330  226.4410 C   0  0  0  0  0  0  0  0  0  0  0  0
  141.1450   72.3990  227.5770 C   0  0  0  0  0  0  0  0  0  0  0  0
  140.4060   71.5140  228.3660 C   0  0  0  0  0  0  0  0  0  0  0  0
  140.3260   70.1630  228.0170 C   0  0  0  0  0  0  0  0  0  0  0  0
  138.2950   69.2660  225.3000 N   0  0  0  0  0  0  0  0  0  0  0  0
  138.9660   70.2690  224.4650 C   0  0  0  0  0  0  0  0  0  0  0  0
  137.9740   70.7290  223.4020 C   0  0  0  0  0  0  0  0  0  0  0  0
  136.6570   70.0740  223.7630 C   0  0  0  0  0  0  0  0  0  0  0  0
  137.0410   68.9010  224.6390 C   0  0  0  0  0  0  0  0  0  0  0  0
  140.9626   67.6189  227.3682 H   0  0  0  0  0  0  0  0  0  0  0  0
  141.6692   68.0321  225.7446 H   0  0  0  0  0  0  0  0  0  0  0  0
  142.2585   70.2196  225.1911 H   0  0  0  0  0  0  0  0  0  0  0  0
  142.3986   72.6293  225.8247 H   0  0  0  0  0  0  0  0  0  0  0  0
  141.2024   73.4629  227.8504 H   0  0  0  0  0  0  0  0  0  0  0  0
  139.8863   71.8811  229.2633 H   0  0  0  0  0  0  0  0  0  0  0  0
  139.7472   69.4684  228.6436 H   0  0  0  0  0  0  0  0  0  0  0  0
  139.2754   71.1245  225.0834 H   0  0  0  0  0  0  0  0  0  0  0  0
  139.8625   69.8396  223.9940 H   0  0  0  0  0  0  0  0  0  0  0  0
  137.8750   71.8244  223.4176 H   0  0  0  0  0  0  0  0  0  0  0  0
  138.3033   70.4501  222.3902 H   0  0  0  0  0  0  0  0  0  0  0  0
  136.0127   70.7752  224.3136 H   0  0  0  0  0  0  0  0  0  0  0  0
  136.0889   69.7623  222.8742 H   0  0  0  0  0  0  0  0  0  0  0  0
  136.2574   68.7141  225.3881 H   0  0  0  0  0  0  0  0  0  0  0  0
  137.1585   67.9832  224.0442 H   0  0  0  0  0  0  0  0  0  0  0  0
  1  2  2  0
  2  3  2  0
  2  4  1  0
  4  5  1  0
  5  6  2  0
  6  7  1  0
  7  8  2  0
  8  9  1  0
  9 10  2  0
  2 11  1  0
 11 12  1  0
 12 13  1  0
 13 14  1  0
 14 15  1  0
 10  5  1  0
 15 11  1  0
  4 16  1  0
  4 17  1  0
  6 18  1  0
  7 19  1  0
  8 20  1  0
  9 21  1  0
 10 22  1  0
 12 23  1  0
 12 24  1  0
 13 25  1  0
 13 26  1  0
 14 27  1  0
 14 28  1  0
 15 29  1  0
 15 30  1  0
M  END
>  <UniqueID>  (17) 
24

>  <SMILES>  (17) 
O=S(=O)(Cc1ccccc1)N1CCCC1

>  <Energy>  (17) 
25.242171289950807

>  <Genealogy>  (17) 
O=S(=O)(Cc1ccccc1)N1CCCC1 (3D coordinates assigned)
O=S(=O)(Cc1ccccc1)N1CCCC1 (nonaromatic ring conformer: 25.242171289950807 kcal/mol)

>  <smiles>  (17) 
O=S(=O)(Cc1ccccc1)N1CCCC1

>  <score_type>  (17) 
oracle

>  <origin>  (17) 
autodockgpu

>  <m_score__min__energy>  (17) 
-5.8799999999999999

>  <m_primary>  (17) 
energy

>  <meeko>  (17) 
{"free_energy": -5.88, "intermolecular_energy": -6.77, "internal_energy": -0.67, "cluster_size": 18, "cluster_id": 1, "rank_in_cluster": 1}

>  <energy>  (17) 
-5.69

>  <cluster_rmsd>  (17) 
0.7

>  <rmsd>  (17) 
273.28

>  <cluster>  (17) 
1

$$$$
GGXXWZKFDBNAQR-UHFFFAOYNA-N
     RDKit          3D

 30 31  0  0  0  0  0  0  0  0999 V2000
  139.5790   67.0210  224.2310 O   0  0  0  0  0  0  0  0  0  0  0  0
  139.3410   68.0420  225.3080 S   0  0  0  0  0  0  0  0  0  0  0  0
  138.8150   67.3300  226.5210 O   0  0  0  0  0  0  0  0  0  0  0  0
  140.9190   68.7800  225.7590 C   0  0  0  0  0  0  0  0  0  0  0  0
  140.7580   69.9600  226.6760 C   0  0  0  0  0  0  0  0  0  0  0  0
  141.4490   71.1560  226.4180 C   0  0  0  0  0  0  0  0  0  0  0  0
  141.2740   72.2650  227.2520 C   0  0  0  0  0  0  0  0  0  0  0  0
  140.4120   72.1870  228.3480 C   0  0  0  0  0  0  0  0  0  0  0  0
  139.7290   70.9980  228.6180 C   0  0  0  0  0  0  0  0  0  0  0  0
  139.9030   69.8860  227.7890 C   0  0  0  0  0  0  0  0  0  0  0  0
  138.1110   69.1660  224.7640 N   0  0  0  0  0  0  0  0  0  0  0  0
  138.6030   70.5370  224.5880 C   0  0  0  0  0  0  0  0  0  0  0  0
  138.0230   71.0770  223.2850 C   0  0  0  0  0  0  0  0  0  0  0  0
  137.0490   70.0210  222.8050 C   0  0  0  0  0  0  0  0  0  0  0  0
  137.4810   68.7540  223.5100 C   0  0  0  0  0  0  0  0  0  0  0  0
  141.5326   68.0202  226.2653 H   0  0  0  0  0  0  0  0  0  0  0  0
  141.3992   69.1357  224.8355 H   0  0  0  0  0  0  0  0  0  0  0  0
  142.1302   71.2203  225.5567 H   0  0  0  0  0  0  0  0  0  0  0  0
  141.8158   73.1995  227.0445 H   0  0  0  0  0  0  0  0  0  0  0  0
  140.2705   73.0621  228.9993 H   0  0  0  0  0  0  0  0  0  0  0  0
  139.0536   70.9371  229.4841 H   0  0  0  0  0  0  0  0  0  0  0  0
  139.3689   68.9498  228.0085 H   0  0  0  0  0  0  0  0  0  0  0  0
  138.2757   71.1631  225.4311 H   0  0  0  0  0  0  0  0  0  0  0  0
  139.7024   70.5491  224.5532 H   0  0  0  0  0  0  0  0  0  0  0  0
  137.5009   72.0289  223.4623 H   0  0  0  0  0  0  0  0  0  0  0  0
  138.8084   71.2751  222.5408 H   0  0  0  0  0  0  0  0  0  0  0  0
  136.0187   70.2880  223.0830 H   0  0  0  0  0  0  0  0  0  0  0  0
  137.0575   69.9127  221.7104 H   0  0  0  0  0  0  0  0  0  0  0  0
  136.6076   68.1176  223.7155 H   0  0  0  0  0  0  0  0  0  0  0  0
  138.1783   68.1730  222.8886 H   0  0  0  0  0  0  0  0  0  0  0  0
  1  2  2  0
  2  3  2  0
  2  4  1  0
  4  5  1  0
  5  6  2  0
  6  7  1  0
  7  8  2  0
  8  9  1  0
  9 10  2  0
  2 11  1  0
 11 12  1  0
 12 13  1  0
 13 14  1  0
 14 15  1  0
 10  5  1  0
 15 11  1  0
  4 16  1  0
  4 17  1  0
  6 18  1  0
  7 19  1  0
  8 20  1  0
  9 21  1  0
 10 22  1  0
 12 23  1  0
 12 24  1  0
 13 25  1  0
 13 26  1  0
 14 27  1  0
 14 28  1  0
 15 29  1  0
 15 30  1  0
M  END
>  <UniqueID>  (18) 
24

>  <SMILES>  (18) 
O=S(=O)(Cc1ccccc1)N1CCCC1

>  <Energy>  (18) 
25.242171289950807

>  <Genealogy>  (18) 
O=S(=O)(Cc1ccccc1)N1CCCC1 (3D coordinates assigned)
O=S(=O)(Cc1ccccc1)N1CCCC1 (nonaromatic ring conformer: 25.242171289950807 kcal/mol)

>  <smiles>  (18) 
O=S(=O)(Cc1ccccc1)N1CCCC1

>  <score_type>  (18) 
oracle

>  <origin>  (18) 
autodockgpu

>  <m_score__min__energy>  (18) 
-5.8799999999999999

>  <m_primary>  (18) 
energy

>  <meeko>  (18) 
{"free_energy": -5.72, "intermolecular_energy": -6.61, "internal_energy": -0.6, "cluster_size": 18, "cluster_id": 1, "rank_in_cluster": 12}

>  <energy>  (18) 
-5.69

>  <cluster_rmsd>  (18) 
1.22

>  <rmsd>  (18) 
273.09

>  <cluster>  (18) 
1

$$$$
GGXXWZKFDBNAQR-UHFFFAOYNA-N
     RDKit          3D

 30 31  0  0  0  0  0  0  0  0999 V2000
  139.5170   67.0190  224.2260 O   0  0  0  0  0  0  0  0  0  0  0  0
  139.2840   67.8860  225.4320 S   0  0  0  0  0  0  0  0  0  0  0  0
  138.6040   67.0540  226.4810 O   0  0  0  0  0  0  0  0  0  0  0  0
  140.8790   68.3920  226.0930 C   0  0  0  0  0  0  0  0  0  0  0  0
  140.8200   69.7370  226.7620 C   0  0  0  0  0  0  0  0  0  0  0  0
  141.5140   70.8300  226.2160 C   0  0  0  0  0  0  0  0  0  0  0  0
  141.4330   72.0890  226.8190 C   0  0  0  0  0  0  0  0  0  0  0  0
  140.6630   72.2640  227.9710 C   0  0  0  0  0  0  0  0  0  0  0  0
  139.9780   71.1810  228.5260 C   0  0  0  0  0  0  0  0  0  0  0  0
  140.0580   69.9200  227.9280 C   0  0  0  0  0  0  0  0  0  0  0  0
  138.2010   69.1910  224.9910 N   0  0  0  0  0  0  0  0  0  0  0  0
  138.8940   70.4070  224.5470 C   0  0  0  0  0  0  0  0  0  0  0  0
  138.1620   70.9390  223.3200 C   0  0  0  0  0  0  0  0  0  0  0  0
  136.9260   70.0750  223.1770 C   0  0  0  0  0  0  0  0  0  0  0  0
  137.2510   68.8120  223.9450 C   0  0  0  0  0  0  0  0  0  0  0  0
  141.2095   67.6449  226.8297 H   0  0  0  0  0  0  0  0  0  0  0  0
  141.5833   68.4660  225.2513 H   0  0  0  0  0  0  0  0  0  0  0  0
  142.1236   70.6947  225.3104 H   0  0  0  0  0  0  0  0  0  0  0  0
  141.9760   72.9420  226.3859 H   0  0  0  0  0  0  0  0  0  0  0  0
  140.5960   73.2560  228.4416 H   0  0  0  0  0  0  0  0  0  0  0  0
  139.3746   71.3204  229.4351 H   0  0  0  0  0  0  0  0  0  0  0  0
  139.5224   69.0679  228.3720 H   0  0  0  0  0  0  0  0  0  0  0  0
  138.8780   71.1605  225.3482 H   0  0  0  0  0  0  0  0  0  0  0  0
  139.9428   70.1837  224.3018 H   0  0  0  0  0  0  0  0  0  0  0  0
  137.8796   71.9918  223.4678 H   0  0  0  0  0  0  0  0  0  0  0  0
  138.7933   70.8988  222.4201 H   0  0  0  0  0  0  0  0  0  0  0  0
  136.0487   70.5778  223.6101 H   0  0  0  0  0  0  0  0  0  0  0  0
  136.6795   69.8710  222.1245 H   0  0  0  0  0  0  0  0  0  0  0  0
  136.3375   68.3957  224.3948 H   0  0  0  0  0  0  0  0  0  0  0  0
  137.6763   68.0436  223.2827 H   0  0  0  0  0  0  0  0  0  0  0  0
  1  2  2  0
  2  3  2  0
  2  4  1  0
  4  5  1  0
  5  6  2  0
  6  7  1  0
  7  8  2  0
  8  9  1  0
  9 10  2  0
  2 11  1  0
 11 12  1  0
 12 13  1  0
 13 14  1  0
 14 15  1  0
 10  5  1  0
 15 11  1  0
  4 16  1  0
  4 17  1  0
  6 18  1  0
  7 19  1  0
  8 20  1  0
  9 21  1  0
 10 22  1  0
 12 23  1  0
 12 24  1  0
 13 25  1  0
 13 26  1  0
 14 27  1  0
 14 28  1  0
 15 29  1  0
 15 30  1  0
M  END
>  <UniqueID>  (19) 
24

>  <SMILES>  (19) 
O=S(=O)(Cc1ccccc1)N1CCCC1

>  <Energy>  (19) 
25.242171289950807

>  <Genealogy>  (19) 
O=S(=O)(Cc1ccccc1)N1CCCC1 (3D coordinates assigned)
O=S(=O)(Cc1ccccc1)N1CCCC1 (nonaromatic ring conformer: 25.242171289950807 kcal/mol)

>  <smiles>  (19) 
O=S(=O)(Cc1ccccc1)N1CCCC1

>  <score_type>  (19) 
oracle

>  <origin>  (19) 
autodockgpu

>  <m_score__min__energy>  (19) 
-5.8799999999999999

>  <m_primary>  (19) 
energy

>  <meeko>  (19) 
{"free_energy": -5.87, "intermolecular_energy": -6.76, "internal_energy": -0.55, "cluster_size": 18, "cluster_id": 1, "rank_in_cluster": 2}

>  <energy>  (19) 
-5.71

>  <cluster_rmsd>  (19) 
0.0

>  <rmsd>  (19) 
272.46

>  <cluster>  (19) 
2

$$$$
GGXXWZKFDBNAQR-UHFFFAOYNA-N
     RDKit          3D

 30 31  0  0  0  0  0  0  0  0999 V2000
  139.2010   67.0250  224.2390 O   0  0  0  0  0  0  0  0  0  0  0  0
  139.1560   68.3870  224.8720 S   0  0  0  0  0  0  0  0  0  0  0  0
  137.7540   68.6340  225.3520 O   0  0  0  0  0  0  0  0  0  0  0  0
  140.2270   68.3860  226.3180 C   0  0  0  0  0  0  0  0  0  0  0  0
  140.5760   69.7750  226.7730 C   0  0  0  0  0  0  0  0  0  0  0  0
  141.4570   70.5670  226.0180 C   0  0  0  0  0  0  0  0  0  0  0  0
  141.7560   71.8720  226.4240 C   0  0  0  0  0  0  0  0  0  0  0  0
  141.1790   72.3920  227.5860 C   0  0  0  0  0  0  0  0  0  0  0  0
  140.3100   71.6080  228.3470 C   0  0  0  0  0  0  0  0  0  0  0  0
  140.0110   70.3020  227.9470 C   0  0  0  0  0  0  0  0  0  0  0  0
  139.5310   69.5910  223.6560 N   0  0  0  0  0  0  0  0  0  0  0  0
  139.0860   69.2240  222.3060 C   0  0  0  0  0  0  0  0  0  0  0  0
  138.4600   70.4590  221.6690 C   0  0  0  0  0  0  0  0  0  0  0  0
  138.7120   71.5910  222.6420 C   0  0  0  0  0  0  0  0  0  0  0  0
  138.9700   70.9060  223.9670 C   0  0  0  0  0  0  0  0  0  0  0  0
  139.7125   67.8643  227.1384 H   0  0  0  0  0  0  0  0  0  0  0  0
  141.1630   67.8783  226.0419 H   0  0  0  0  0  0  0  0  0  0  0  0
  141.9136   70.1595  225.1040 H   0  0  0  0  0  0  0  0  0  0  0  0
  142.4452   72.4889  225.8287 H   0  0  0  0  0  0  0  0  0  0  0  0
  141.4099   73.4202  227.9013 H   0  0  0  0  0  0  0  0  0  0  0  0
  139.8597   72.0184  229.2629 H   0  0  0  0  0  0  0  0  0  0  0  0
  139.3314   69.6850  228.5532 H   0  0  0  0  0  0  0  0  0  0  0  0
  139.9456   68.8891  221.7069 H   0  0  0  0  0  0  0  0  0  0  0  0
  138.3547   68.4037  222.3527 H   0  0  0  0  0  0  0  0  0  0  0  0
  138.9340   70.6731  220.6997 H   0  0  0  0  0  0  0  0  0  0  0  0
  137.3860   70.3182  221.4777 H   0  0  0  0  0  0  0  0  0  0  0  0
  139.5875   72.1809  222.3330 H   0  0  0  0  0  0  0  0  0  0  0  0
  137.8666   72.2929  222.6931 H   0  0  0  0  0  0  0  0  0  0  0  0
  139.6843   71.4917  224.5642 H   0  0  0  0  0  0  0  0  0  0  0  0
  138.0434   70.8134  224.5525 H   0  0  0  0  0  0  0  0  0  0  0  0
  1  2  2  0
  2  3  2  0
  2  4  1  0
  4  5  1  0
  5  6  2  0
  6  7  1  0
  7  8  2  0
  8  9  1  0
  9 10  2  0
  2 11  1  0
 11 12  1  0
 12 13  1  0
 13 14  1  0
 14 15  1  0
 10  5  1  0
 15 11  1  0
  4 16  1  0
  4 17  1  0
  6 18  1  0
  7 19  1  0
  8 20  1  0
  9 21  1  0
 10 22  1  0
 12 23  1  0
 12 24  1  0
 13 25  1  0
 13 26  1  0
 14 27  1  0
 14 28  1  0
 15 29  1  0
 15 30  1  0
M  END
>  <UniqueID>  (20) 
24

>  <SMILES>  (20) 
O=S(=O)(Cc1ccccc1)N1CCCC1

>  <Energy>  (20) 
25.242171289950807

>  <Genealogy>  (20) 
O=S(=O)(Cc1ccccc1)N1CCCC1 (3D coordinates assigned)
O=S(=O)(Cc1ccccc1)N1CCCC1 (nonaromatic ring conformer: 25.242171289950807 kcal/mol)

>  <smiles>  (20) 
O=S(=O)(Cc1ccccc1)N1CCCC1

>  <score_type>  (20) 
oracle

>  <origin>  (20) 
autodockgpu

>  <m_score__min__energy>  (20) 
-5.8799999999999999

>  <m_primary>  (20) 
energy

>  <meeko>  (20) 
{"free_energy": -5.74, "intermolecular_energy": -6.63, "internal_energy": -0.68, "cluster_size": 18, "cluster_id": 1, "rank_in_cluster": 9}

>  <energy>  (20) 
-4.62

>  <cluster_rmsd>  (20) 
0.0

>  <rmsd>  (20) 
274.21

>  <cluster>  (20) 
3

$$$$
GGXXWZKFDBNAQR-UHFFFAOYNA-N
     RDKit          3D

 30 31  0  0  0  0  0  0  0  0999 V2000
  139.5750   67.0110  224.3070 O   0  0  0  0  0  0  0  0  0  0  0  0
  139.3080   67.8330  225.5370 S   0  0  0  0  0  0  0  0  0  0  0  0
  138.4730   67.0110  226.4760 O   0  0  0  0  0  0  0  0  0  0  0  0
  140.8750   68.1640  226.3580 C   0  0  0  0  0  0  0  0  0  0  0  0
  141.0310   69.6120  226.7300 C   0  0  0  0  0  0  0  0  0  0  0  0
  141.4440   70.5490  225.7670 C   0  0  0  0  0  0  0  0  0  0  0  0
  141.5570   71.9010  226.1040 C   0  0  0  0  0  0  0  0  0  0  0  0
  141.2630   72.3260  227.4020 C   0  0  0  0  0  0  0  0  0  0  0  0
  140.8620   71.4000  228.3670 C   0  0  0  0  0  0  0  0  0  0  0  0
  140.7500   70.0460  228.0360 C   0  0  0  0  0  0  0  0  0  0  0  0
  138.3800   69.2480  225.0840 N   0  0  0  0  0  0  0  0  0  0  0  0
  138.8240   69.8670  223.8300 C   0  0  0  0  0  0  0  0  0  0  0  0
  137.5810   70.2260  223.0220 C   0  0  0  0  0  0  0  0  0  0  0  0
  136.4060   69.9400  223.9330 C   0  0  0  0  0  0  0  0  0  0  0  0
  136.9480   68.9720  224.9630 C   0  0  0  0  0  0  0  0  0  0  0  0
  140.9300   67.5561  227.2731 H   0  0  0  0  0  0  0  0  0  0  0  0
  141.6825   67.9086  225.6561 H   0  0  0  0  0  0  0  0  0  0  0  0
  141.6790   70.2173  224.7449 H   0  0  0  0  0  0  0  0  0  0  0  0
  141.8778   72.6311  225.3463 H   0  0  0  0  0  0  0  0  0  0  0  0
  141.3475   73.3910  227.6639 H   0  0  0  0  0  0  0  0  0  0  0  0
  140.6338   71.7361  229.3892 H   0  0  0  0  0  0  0  0  0  0  0  0
  140.4408   69.3184  228.8009 H   0  0  0  0  0  0  0  0  0  0  0  0
  139.4051   70.7756  224.0463 H   0  0  0  0  0  0  0  0  0  0  0  0
  139.4632   69.1733  223.2641 H   0  0  0  0  0  0  0  0  0  0  0  0
  137.5994   71.2895  222.7415 H   0  0  0  0  0  0  0  0  0  0  0  0
  137.5218   69.6478  222.0881 H   0  0  0  0  0  0  0  0  0  0  0  0
  136.0548   70.8641  224.4155 H   0  0  0  0  0  0  0  0  0  0  0  0
  135.5448   69.5284  223.3863 H   0  0  0  0  0  0  0  0  0  0  0  0
  136.4484   69.1282  225.9304 H   0  0  0  0  0  0  0  0  0  0  0  0
  136.7693   67.9297  224.6602 H   0  0  0  0  0  0  0  0  0  0  0  0
  1  2  2  0
  2  3  2  0
  2  4  1  0
  4  5  1  0
  5  6  2  0
  6  7  1  0
  7  8  2  0
  8  9  1  0
  9 10  2  0
  2 11  1  0
 11 12  1  0
 12 13  1  0
 13 14  1  0
 14 15  1  0
 10  5  1  0
 15 11  1  0
  4 16  1  0
  4 17  1  0
  6 18  1  0
  7 19  1  0
  8 20  1  0
  9 21  1  0
 10 22  1  0
 12 23  1  0
 12 24  1  0
 13 25  1  0
 13 26  1  0
 14 27  1  0
 14 28  1  0
 15 29  1  0
 15 30  1  0
M  END
>  <UniqueID>  (21) 
25

>  <SMILES>  (21) 
O=S(=O)(Cc1ccccc1)N1CCCC1

>  <Energy>  (21) 
25.618550219650604

>  <Genealogy>  (21) 
O=S(=O)(Cc1ccccc1)N1CCCC1 (3D coordinates assigned)
O=S(=O)(Cc1ccccc1)N1CCCC1 (nonaromatic ring conformer: 25.618550219650604 kcal/mol)

>  <smiles>  (21) 
O=S(=O)(Cc1ccccc1)N1CCCC1

>  <score_type>  (21) 
oracle

>  <origin>  (21) 
autodockgpu

>  <m_score__min__energy>  (21) 
-5.8799999999999999

>  <m_primary>  (21) 
energy

>  <meeko>  (21) 
{"free_energy": -5.86, "intermolecular_energy": -6.75, "internal_energy": -0.7, "cluster_size": 18, "cluster_id": 1, "rank_in_cluster": 4}

>  <energy>  (21) 
-5.88

>  <cluster_rmsd>  (21) 
0.0

>  <rmsd>  (21) 
273.48

>  <cluster>  (21) 
1

$$$$
GGXXWZKFDBNAQR-UHFFFAOYNA-N
     RDKit          3D

 30 31  0  0  0  0  0  0  0  0999 V2000
  139.5320   67.3860  225.3440 O   0  0  0  0  0  0  0  0  0  0  0  0
  138.8580   68.4770  224.5610 S   0  0  0  0  0  0  0  0  0  0  0  0
  137.6410   68.9170  225.3240 O   0  0  0  0  0  0  0  0  0  0  0  0
  139.9710   69.8870  224.4630 C   0  0  0  0  0  0  0  0  0  0  0  0
  140.2910   70.4590  225.8160 C   0  0  0  0  0  0  0  0  0  0  0  0
  139.8810   69.7900  226.9820 C   0  0  0  0  0  0  0  0  0  0  0  0
  140.2070   70.3050  228.2410 C   0  0  0  0  0  0  0  0  0  0  0  0
  140.9390   71.4900  228.3440 C   0  0  0  0  0  0  0  0  0  0  0  0
  141.3410   72.1660  227.1910 C   0  0  0  0  0  0  0  0  0  0  0  0
  141.0160   71.6570  225.9300 C   0  0  0  0  0  0  0  0  0  0  0  0
  138.3260   67.8270  223.0230 N   0  0  0  0  0  0  0  0  0  0  0  0
  138.6690   68.6750  221.8760 C   0  0  0  0  0  0  0  0  0  0  0  0
  139.1830   67.7680  220.7630 C   0  0  0  0  0  0  0  0  0  0  0  0
  138.9660   66.3530  221.2580 C   0  0  0  0  0  0  0  0  0  0  0  0
  138.8520   66.4870  222.7610 C   0  0  0  0  0  0  0  0  0  0  0  0
  140.9079   69.5651  223.9849 H   0  0  0  0  0  0  0  0  0  0  0  0
  139.4686   70.6711  223.8774 H   0  0  0  0  0  0  0  0  0  0  0  0
  139.3017   68.8581  226.9043 H   0  0  0  0  0  0  0  0  0  0  0  0
  139.8866   69.7762  229.1508 H   0  0  0  0  0  0  0  0  0  0  0  0
  141.1989   71.8909  229.3348 H   0  0  0  0  0  0  0  0  0  0  0  0
  141.9146   73.1009  227.2745 H   0  0  0  0  0  0  0  0  0  0  0  0
  141.3291   72.1964  225.0239 H   0  0  0  0  0  0  0  0  0  0  0  0
  137.7768   69.2194  221.5331 H   0  0  0  0  0  0  0  0  0  0  0  0
  139.4369   69.4104  222.1579 H   0  0  0  0  0  0  0  0  0  0  0  0
  138.6183   67.9410  219.8350 H   0  0  0  0  0  0  0  0  0  0  0  0
  140.2417   67.9620  220.5360 H   0  0  0  0  0  0  0  0  0  0  0  0
  138.0426   65.9310  220.8347 H   0  0  0  0  0  0  0  0  0  0  0  0
  139.7815   65.6775  220.9603 H   0  0  0  0  0  0  0  0  0  0  0  0
  138.1653   65.7253  223.1589 H   0  0  0  0  0  0  0  0  0  0  0  0
  139.8281   66.3421  223.2471 H   0  0  0  0  0  0  0  0  0  0  0  0
  1  2  2  0
  2  3  2  0
  2  4  1  0
  4  5  1  0
  5  6  2  0
  6  7  1  0
  7  8  2  0
  8  9  1  0
  9 10  2  0
  2 11  1  0
 11 12  1  0
 12 13  1  0
 13 14  1  0
 14 15  1  0
 10  5  1  0
 15 11  1  0
  4 16  1  0
  4 17  1  0
  6 18  1  0
  7 19  1  0
  8 20  1  0
  9 21  1  0
 10 22  1  0
 12 23  1  0
 12 24  1  0
 13 25  1  0
 13 26  1  0
 14 27  1  0
 14 28  1  0
 15 29  1  0
 15 30  1  0
M  END
>  <UniqueID>  (22) 
25

>  <SMILES>  (22) 
O=S(=O)(Cc1ccccc1)N1CCCC1

>  <Energy>  (22) 
25.618550219650604

>  <Genealogy>  (22) 
O=S(=O)(Cc1ccccc1)N1CCCC1 (3D coordinates assigned)
O=S(=O)(Cc1ccccc1)N1CCCC1 (nonaromatic ring conformer: 25.618550219650604 kcal/mol)

>  <smiles>  (22) 
O=S(=O)(Cc1ccccc1)N1CCCC1

>  <score_type>  (22) 
oracle

>  <origin>  (22) 
autodockgpu

>  <m_score__min__energy>  (22) 
-5.8799999999999999

>  <m_primary>  (22) 
energy

>  <meeko>  (22) 
{"free_energy": -5.71, "intermolecular_energy": -6.6, "internal_energy": -0.43, "cluster_size": 1, "cluster_id": 2, "rank_in_cluster": 1}

>  <energy>  (22) 
-5.87

>  <cluster_rmsd>  (22) 
0.43

>  <rmsd>  (22) 
273.34

>  <cluster>  (22) 
1

$$$$
GGXXWZKFDBNAQR-UHFFFAOYNA-N
     RDKit          3D

 30 31  0  0  0  0  0  0  0  0999 V2000
  139.2010   67.0330  224.1680 O   0  0  0  0  0  0  0  0  0  0  0  0
  139.1230   68.3710  224.8480 S   0  0  0  0  0  0  0  0  0  0  0  0
  137.7210   68.5560  225.3550 O   0  0  0  0  0  0  0  0  0  0  0  0
  140.2150   68.3540  226.2780 C   0  0  0  0  0  0  0  0  0  0  0  0
  140.5610   69.7380  226.7510 C   0  0  0  0  0  0  0  0  0  0  0  0
  141.4290   70.5470  225.9980 C   0  0  0  0  0  0  0  0  0  0  0  0
  141.7240   71.8470  226.4200 C   0  0  0  0  0  0  0  0  0  0  0  0
  141.1590   72.3460  227.5960 C   0  0  0  0  0  0  0  0  0  0  0  0
  140.3030   71.5450  228.3550 C   0  0  0  0  0  0  0  0  0  0  0  0
  140.0070   70.2440  227.9380 C   0  0  0  0  0  0  0  0  0  0  0  0
  139.4420   69.6270  223.6690 N   0  0  0  0  0  0  0  0  0  0  0  0
  139.0190   69.2780  222.3080 C   0  0  0  0  0  0  0  0  0  0  0  0
  138.3350   70.5000  221.7040 C   0  0  0  0  0  0  0  0  0  0  0  0
  138.5280   71.6140  222.7120 C   0  0  0  0  0  0  0  0  0  0  0  0
  138.8170   70.9040  224.0170 C   0  0  0  0  0  0  0  0  0  0  0  0
  139.7162   67.8151  227.0970 H   0  0  0  0  0  0  0  0  0  0  0  0
  141.1503   67.8578  225.9799 H   0  0  0  0  0  0  0  0  0  0  0  0
  141.8781   70.1560  225.0731 H   0  0  0  0  0  0  0  0  0  0  0  0
  142.4016   72.4773  225.8254 H   0  0  0  0  0  0  0  0  0  0  0  0
  141.3884   73.3704  227.9244 H   0  0  0  0  0  0  0  0  0  0  0  0
  139.8610   71.9384  229.2823 H   0  0  0  0  0  0  0  0  0  0  0  0
  139.3375   69.6141  228.5421 H   0  0  0  0  0  0  0  0  0  0  0  0
  139.8954   69.0026  221.7029 H   0  0  0  0  0  0  0  0  0  0  0  0
  138.3283   68.4221  222.3281 H   0  0  0  0  0  0  0  0  0  0  0  0
  138.8014   70.7658  220.7439 H   0  0  0  0  0  0  0  0  0  0  0  0
  137.2699   70.3127  221.5030 H   0  0  0  0  0  0  0  0  0  0  0  0
  139.3735   72.2559  222.4239 H   0  0  0  0  0  0  0  0  0  0  0  0
  137.6481   72.2706  222.7809 H   0  0  0  0  0  0  0  0  0  0  0  0
  139.5011   71.5059  224.6331 H   0  0  0  0  0  0  0  0  0  0  0  0
  137.8952   70.7494  224.5970 H   0  0  0  0  0  0  0  0  0  0  0  0
  1  2  2  0
  2  3  2  0
  2  4  1  0
  4  5  1  0
  5  6  2  0
  6  7  1  0
  7  8  2  0
  8  9  1  0
  9 10  2  0
  2 11  1  0
 11 12  1  0
 12 13  1  0
 13 14  1  0
 14 15  1  0
 10  5  1  0
 15 11  1  0
  4 16  1  0
  4 17  1  0
  6 18  1  0
  7 19  1  0
  8 20  1  0
  9 21  1  0
 10 22  1  0
 12 23  1  0
 12 24  1  0
 13 25  1  0
 13 26  1  0
 14 27  1  0
 14 28  1  0
 15 29  1  0
 15 30  1  0
M  END
>  <UniqueID>  (23) 
25

>  <SMILES>  (23) 
O=S(=O)(Cc1ccccc1)N1CCCC1

>  <Energy>  (23) 
25.618550219650604

>  <Genealogy>  (23) 
O=S(=O)(Cc1ccccc1)N1CCCC1 (3D coordinates assigned)
O=S(=O)(Cc1ccccc1)N1CCCC1 (nonaromatic ring conformer: 25.618550219650604 kcal/mol)

>  <smiles>  (23) 
O=S(=O)(Cc1ccccc1)N1CCCC1

>  <score_type>  (23) 
oracle

>  <origin>  (23) 
autodockgpu

>  <m_score__min__energy>  (23) 
-5.8799999999999999

>  <m_primary>  (23) 
energy

>  <meeko>  (23) 
{"free_energy": -5.71, "intermolecular_energy": -6.6, "internal_energy": -0.69, "cluster_size": 18, "cluster_id": 1, "rank_in_cluster": 15}

>  <energy>  (23) 
-5.87

>  <cluster_rmsd>  (23) 
0.11

>  <rmsd>  (23) 
273.39

>  <cluster>  (23) 
1

$$$$
GGXXWZKFDBNAQR-UHFFFAOYNA-N
     RDKit          3D

 30 31  0  0  0  0  0  0  0  0999 V2000
  139.2250   67.0770  224.4390 O   0  0  0  0  0  0  0  0  0  0  0  0
  139.1260   68.4550  225.0320 S   0  0  0  0  0  0  0  0  0  0  0  0
  137.6920   68.7030  225.4020 O   0  0  0  0  0  0  0  0  0  0  0  0
  140.0900   68.4980  226.5510 C   0  0  0  0  0  0  0  0  0  0  0  0
  140.5100   69.8920  226.9230 C   0  0  0  0  0  0  0  0  0  0  0  0
  141.4460   70.5840  226.1360 C   0  0  0  0  0  0  0  0  0  0  0  0
  141.8120   71.8930  226.4630 C   0  0  0  0  0  0  0  0  0  0  0  0
  141.2480   72.5190  227.5770 C   0  0  0  0  0  0  0  0  0  0  0  0
  140.3240   71.8360  228.3710 C   0  0  0  0  0  0  0  0  0  0  0  0
  139.9580   70.5260  228.0500 C   0  0  0  0  0  0  0  0  0  0  0  0
  139.5820   69.6310  223.8150 N   0  0  0  0  0  0  0  0  0  0  0  0
  139.1920   69.2490  222.4530 C   0  0  0  0  0  0  0  0  0  0  0  0
  138.6210   70.4860  221.7680 C   0  0  0  0  0  0  0  0  0  0  0  0
  138.8510   71.6290  222.7330 C   0  0  0  0  0  0  0  0  0  0  0  0
  139.0350   70.9620  224.0790 C   0  0  0  0  0  0  0  0  0  0  0  0
  139.4813   68.0825  227.3677 H   0  0  0  0  0  0  0  0  0  0  0  0
  141.0020   67.9053  226.3866 H   0  0  0  0  0  0  0  0  0  0  0  0
  141.8928   70.0935  225.2586 H   0  0  0  0  0  0  0  0  0  0  0  0
  142.5445   72.4302  225.8427 H   0  0  0  0  0  0  0  0  0  0  0  0
  141.5320   73.5513  227.8293 H   0  0  0  0  0  0  0  0  0  0  0  0
  139.8839   72.3297  229.2500 H   0  0  0  0  0  0  0  0  0  0  0  0
  139.2352   69.9888  228.6816 H   0  0  0  0  0  0  0  0  0  0  0  0
  140.0710   68.8869  221.8996 H   0  0  0  0  0  0  0  0  0  0  0  0
  138.4431   68.4438  222.4791 H   0  0  0  0  0  0  0  0  0  0  0  0
  139.1432   70.6744  220.8184 H   0  0  0  0  0  0  0  0  0  0  0  0
  137.5541   70.3631  221.5298 H   0  0  0  0  0  0  0  0  0  0  0  0
  139.7511   72.1968  222.4548 H   0  0  0  0  0  0  0  0  0  0  0  0
  138.0181   72.3476  222.7342 H   0  0  0  0  0  0  0  0  0  0  0  0
  139.7338   71.5435  224.6983 H   0  0  0  0  0  0  0  0  0  0  0  0
  138.0814   70.8980  224.6235 H   0  0  0  0  0  0  0  0  0  0  0  0
  1  2  2  0
  2  3  2  0
  2  4  1  0
  4  5  1  0
  5  6  2  0
  6  7  1  0
  7  8  2  0
  8  9  1  0
  9 10  2  0
  2 11  1  0
 11 12  1  0
 12 13  1  0
 13 14  1  0
 14 15  1  0
 10  5  1  0
 15 11  1  0
  4 16  1  0
  4 17  1  0
  6 18  1  0
  7 19  1  0
  8 20  1  0
  9 21  1  0
 10 22  1  0
 12 23  1  0
 12 24  1  0
 13 25  1  0
 13 26  1  0
 14 27  1  0
 14 28  1  0
 15 29  1  0
 15 30  1  0
M  END
>  <UniqueID>  (24) 
25

>  <SMILES>  (24) 
O=S(=O)(Cc1ccccc1)N1CCCC1

>  <Energy>  (24) 
25.618550219650604

>  <Genealogy>  (24) 
O=S(=O)(Cc1ccccc1)N1CCCC1 (3D coordinates assigned)
O=S(=O)(Cc1ccccc1)N1CCCC1 (nonaromatic ring conformer: 25.618550219650604 kcal/mol)

>  <smiles>  (24) 
O=S(=O)(Cc1ccccc1)N1CCCC1

>  <score_type>  (24) 
oracle

>  <origin>  (24) 
autodockgpu

>  <m_score__min__energy>  (24) 
-5.8799999999999999

>  <m_primary>  (24) 
energy

>  <meeko>  (24) 
{"free_energy": -5.76, "intermolecular_energy": -6.66, "internal_energy": -0.67, "cluster_size": 18, "cluster_id": 1, "rank_in_cluster": 7}

>  <energy>  (24) 
-5.86

>  <cluster_rmsd>  (24) 
0.4

>  <rmsd>  (24) 
273.32

>  <cluster>  (24) 
1

$$$$
GGXXWZKFDBNAQR-UHFFFAOYNA-N
     RDKit          3D

 30 31  0  0  0  0  0  0  0  0999 V2000
  139.1970   67.0000  224.1430 O   0  0  0  0  0  0  0  0  0  0  0  0
  139.1350   68.3450  224.8110 S   0  0  0  0  0  0  0  0  0  0  0  0
  137.7460   68.5370  225.3500 O   0  0  0  0  0  0  0  0  0  0  0  0
  140.2620   68.3430  226.2130 C   0  0  0  0  0  0  0  0  0  0  0  0
  140.5600   69.7310  226.7090 C   0  0  0  0  0  0  0  0  0  0  0  0
  141.4050   70.5790  225.9740 C   0  0  0  0  0  0  0  0  0  0  0  0
  141.6560   71.8810  226.4180 C   0  0  0  0  0  0  0  0  0  0  0  0
  141.0690   72.3430  227.5980 C   0  0  0  0  0  0  0  0  0  0  0  0
  140.2360   71.5030  228.3400 C   0  0  0  0  0  0  0  0  0  0  0  0
  139.9840   70.2000  227.9020 C   0  0  0  0  0  0  0  0  0  0  0  0
  139.4250   69.5890  223.6110 N   0  0  0  0  0  0  0  0  0  0  0  0
  138.9490   69.2340  222.2680 C   0  0  0  0  0  0  0  0  0  0  0  0
  138.2570   70.4590  221.6800 C   0  0  0  0  0  0  0  0  0  0  0  0
  138.5000   71.5780  222.6710 C   0  0  0  0  0  0  0  0  0  0  0  0
  138.8280   70.8750  223.9700 C   0  0  0  0  0  0  0  0  0  0  0  0
  139.8074   67.7652  227.0312 H   0  0  0  0  0  0  0  0  0  0  0  0
  141.2098   67.8938  225.8816 H   0  0  0  0  0  0  0  0  0  0  0  0
  141.8711   70.2174  225.0455 H   0  0  0  0  0  0  0  0  0  0  0  0
  142.3164   72.5419  225.8374 H   0  0  0  0  0  0  0  0  0  0  0  0
  141.2630   73.3693  227.9432 H   0  0  0  0  0  0  0  0  0  0  0  0
  139.7773   71.8676  229.2710 H   0  0  0  0  0  0  0  0  0  0  0  0
  139.3326   69.5393  228.4930 H   0  0  0  0  0  0  0  0  0  0  0  0
  139.7998   68.9444  221.6338 H   0  0  0  0  0  0  0  0  0  0  0  0
  138.2505   68.3858  222.3196 H   0  0  0  0  0  0  0  0  0  0  0  0
  138.6903   70.7120  220.7011 H   0  0  0  0  0  0  0  0  0  0  0  0
  137.1831   70.2826  221.5201 H   0  0  0  0  0  0  0  0  0  0  0  0
  139.3420   72.2073  222.3470 H   0  0  0  0  0  0  0  0  0  0  0  0
  137.6311   72.2457  222.7666 H   0  0  0  0  0  0  0  0  0  0  0  0
  139.5408   71.4738  224.5560 H   0  0  0  0  0  0  0  0  0  0  0  0
  137.9260   70.7356  224.5839 H   0  0  0  0  0  0  0  0  0  0  0  0
  1  2  2  0
  2  3  2  0
  2  4  1  0
  4  5  1  0
  5  6  2  0
  6  7  1  0
  7  8  2  0
  8  9  1  0
  9 10  2  0
  2 11  1  0
 11 12  1  0
 12 13  1  0
 13 14  1  0
 14 15  1  0
 10  5  1  0
 15 11  1  0
  4 16  1  0
  4 17  1  0
  6 18  1  0
  7 19  1  0
  8 20  1  0
  9 21  1  0
 10 22  1  0
 12 23  1  0
 12 24  1  0
 13 25  1  0
 13 26  1  0
 14 27  1  0
 14 28  1  0
 15 29  1  0
 15 30  1  0
M  END
>  <UniqueID>  (25) 
25

>  <SMILES>  (25) 
O=S(=O)(Cc1ccccc1)N1CCCC1

>  <Energy>  (25) 
25.618550219650604

>  <Genealogy>  (25) 
O=S(=O)(Cc1ccccc1)N1CCCC1 (3D coordinates assigned)
O=S(=O)(Cc1ccccc1)N1CCCC1 (nonaromatic ring conformer: 25.618550219650604 kcal/mol)

>  <smiles>  (25) 
O=S(=O)(Cc1ccccc1)N1CCCC1

>  <score_type>  (25) 
oracle

>  <origin>  (25) 
autodockgpu

>  <m_score__min__energy>  (25) 
-5.8799999999999999

>  <m_primary>  (25) 
energy

>  <meeko>  (25) 
{"free_energy": -5.7, "intermolecular_energy": -6.59, "internal_energy": -0.69, "cluster_size": 18, "cluster_id": 1, "rank_in_cluster": 16}

>  <energy>  (25) 
-5.85

>  <cluster_rmsd>  (25) 
0.2

>  <rmsd>  (25) 
273.35

>  <cluster>  (25) 
1

$$$$
GGXXWZKFDBNAQR-UHFFFAOYNA-N
     RDKit          3D

 30 31  0  0  0  0  0  0  0  0999 V2000
  139.2980   67.0440  224.4130 O   0  0  0  0  0  0  0  0  0  0  0  0
  139.0910   68.4050  225.0160 S   0  0  0  0  0  0  0  0  0  0  0  0
  137.6330   68.5540  225.3460 O   0  0  0  0  0  0  0  0  0  0  0  0
  140.0050   68.4930  226.5640 C   0  0  0  0  0  0  0  0  0  0  0  0
  140.4320   69.8950  226.8980 C   0  0  0  0  0  0  0  0  0  0  0  0
  139.9450   70.5260  228.0550 C   0  0  0  0  0  0  0  0  0  0  0  0
  140.3680   71.8180  228.3830 C   0  0  0  0  0  0  0  0  0  0  0  0
  141.2750   72.4880  227.5590 C   0  0  0  0  0  0  0  0  0  0  0  0
  141.7560   71.8720  226.4010 C   0  0  0  0  0  0  0  0  0  0  0  0
  141.3340   70.5820  226.0680 C   0  0  0  0  0  0  0  0  0  0  0  0
  139.5040   69.6230  223.8260 N   0  0  0  0  0  0  0  0  0  0  0  0
  139.1930   69.2280  222.4470 C   0  0  0  0  0  0  0  0  0  0  0  0
  138.5590   70.4260  221.7500 C   0  0  0  0  0  0  0  0  0  0  0  0
  138.6690   71.5740  222.7320 C   0  0  0  0  0  0  0  0  0  0  0  0
  138.8510   70.9080  224.0790 C   0  0  0  0  0  0  0  0  0  0  0  0
  139.3640   68.1163  227.3747 H   0  0  0  0  0  0  0  0  0  0  0  0
  140.9136   67.8831  226.4523 H   0  0  0  0  0  0  0  0  0  0  0  0
  139.2287   70.0021  228.7049 H   0  0  0  0  0  0  0  0  0  0  0  0
  139.9859   72.3071  229.2911 H   0  0  0  0  0  0  0  0  0  0  0  0
  141.6110   73.5018  227.8221 H   0  0  0  0  0  0  0  0  0  0  0  0
  142.4673   72.4026  225.7510 H   0  0  0  0  0  0  0  0  0  0  0  0
  141.7096   70.1023  225.1521 H   0  0  0  0  0  0  0  0  0  0  0  0
  140.1159   68.9364  221.9243 H   0  0  0  0  0  0  0  0  0  0  0  0
  138.5039   68.3706  222.4394 H   0  0  0  0  0  0  0  0  0  0  0  0
  139.1008   70.6613  220.8220 H   0  0  0  0  0  0  0  0  0  0  0  0
  137.5136   70.2281  221.4708 H   0  0  0  0  0  0  0  0  0  0  0  0
  139.5350   72.2084  222.4923 H   0  0  0  0  0  0  0  0  0  0  0  0
  137.7867   72.2304  222.7070 H   0  0  0  0  0  0  0  0  0  0  0  0
  139.4815   71.5325  224.7290 H   0  0  0  0  0  0  0  0  0  0  0  0
  137.8848   70.7686  224.5861 H   0  0  0  0  0  0  0  0  0  0  0  0
  1  2  2  0
  2  3  2  0
  2  4  1  0
  4  5  1  0
  5  6  2  0
  6  7  1  0
  7  8  2  0
  8  9  1  0
  9 10  2  0
  2 11  1  0
 11 12  1  0
 12 13  1  0
 13 14  1  0
 14 15  1  0
 10  5  1  0
 15 11  1  0
  4 16  1  0
  4 17  1  0
  6 18  1  0
  7 19  1  0
  8 20  1  0
  9 21  1  0
 10 22  1  0
 12 23  1  0
 12 24  1  0
 13 25  1  0
 13 26  1  0
 14 27  1  0
 14 28  1  0
 15 29  1  0
 15 30  1  0
M  END
>  <UniqueID>  (26) 
25

>  <SMILES>  (26) 
O=S(=O)(Cc1ccccc1)N1CCCC1

>  <Energy>  (26) 
25.618550219650604

>  <Genealogy>  (26) 
O=S(=O)(Cc1ccccc1)N1CCCC1 (3D coordinates assigned)
O=S(=O)(Cc1ccccc1)N1CCCC1 (nonaromatic ring conformer: 25.618550219650604 kcal/mol)

>  <smiles>  (26) 
O=S(=O)(Cc1ccccc1)N1CCCC1

>  <score_type>  (26) 
oracle

>  <origin>  (26) 
autodockgpu

>  <m_score__min__energy>  (26) 
-5.8799999999999999

>  <m_primary>  (26) 
energy

>  <meeko>  (26) 
{"free_energy": -5.71, "intermolecular_energy": -6.61, "internal_energy": -0.65, "cluster_size": 18, "cluster_id": 1, "rank_in_cluster": 13}

>  <energy>  (26) 
-5.81

>  <cluster_rmsd>  (26) 
0.14

>  <rmsd>  (26) 
273.37

>  <cluster>  (26) 
1

$$$$
GGXXWZKFDBNAQR-UHFFFAOYNA-N
     RDKit          3D

 30 31  0  0  0  0  0  0  0  0999 V2000
  139.5060   67.1240  224.3030 O   0  0  0  0  0  0  0  0  0  0  0  0
  139.2430   67.8940  225.5670 S   0  0  0  0  0  0  0  0  0  0  0  0
  138.4530   67.0160  226.4950 O   0  0  0  0  0  0  0  0  0  0  0  0
  140.8170   68.2430  226.3660 C   0  0  0  0  0  0  0  0  0  0  0  0
  140.9290   69.6740  226.8100 C   0  0  0  0  0  0  0  0  0  0  0  0
  141.6680   70.5960  226.0480 C   0  0  0  0  0  0  0  0  0  0  0  0
  141.7450   71.9350  226.4430 C   0  0  0  0  0  0  0  0  0  0  0  0
  141.0880   72.3620  227.6000 C   0  0  0  0  0  0  0  0  0  0  0  0
  140.3600   71.4510  228.3670 C   0  0  0  0  0  0  0  0  0  0  0  0
  140.2820   70.1100  227.9780 C   0  0  0  0  0  0  0  0  0  0  0  0
  138.2640   69.2960  225.1850 N   0  0  0  0  0  0  0  0  0  0  0  0
  138.9390   70.2650  224.3140 C   0  0  0  0  0  0  0  0  0  0  0  0
  137.9360   70.7240  223.2610 C   0  0  0  0  0  0  0  0  0  0  0  0
  136.6130   70.1050  223.6620 C   0  0  0  0  0  0  0  0  0  0  0  0
  136.9900   68.9440  224.5570 C   0  0  0  0  0  0  0  0  0  0  0  0
  140.9186   67.5910  227.2461 H   0  0  0  0  0  0  0  0  0  0  0  0
  141.6145   68.0562  225.6318 H   0  0  0  0  0  0  0  0  0  0  0  0
  142.1876   70.2626  225.1376 H   0  0  0  0  0  0  0  0  0  0  0  0
  142.3231   72.6528  225.8426 H   0  0  0  0  0  0  0  0  0  0  0  0
  141.1446   73.4169  227.9066 H   0  0  0  0  0  0  0  0  0  0  0  0
  139.8465   71.7886  229.2794 H   0  0  0  0  0  0  0  0  0  0  0  0
  139.7121   69.3943  228.5887 H   0  0  0  0  0  0  0  0  0  0  0  0
  139.2799   71.1267  224.9066 H   0  0  0  0  0  0  0  0  0  0  0  0
  139.8156   69.8049  223.8345 H   0  0  0  0  0  0  0  0  0  0  0  0
  137.8605   71.8214  223.2551 H   0  0  0  0  0  0  0  0  0  0  0  0
  138.2390   70.4172  222.2490 H   0  0  0  0  0  0  0  0  0  0  0  0
  135.9942   70.8317  224.2087 H   0  0  0  0  0  0  0  0  0  0  0  0
  136.0212   69.7855  222.7915 H   0  0  0  0  0  0  0  0  0  0  0  0
  136.2178   68.7908  225.3253 H   0  0  0  0  0  0  0  0  0  0  0  0
  137.0765   68.0110  223.9808 H   0  0  0  0  0  0  0  0  0  0  0  0
  1  2  2  0
  2  3  2  0
  2  4  1  0
  4  5  1  0
  5  6  2  0
  6  7  1  0
  7  8  2  0
  8  9  1  0
  9 10  2  0
  2 11  1  0
 11 12  1  0
 12 13  1  0
 13 14  1  0
 14 15  1  0
 10  5  1  0
 15 11  1  0
  4 16  1  0
  4 17  1  0
  6 18  1  0
  7 19  1  0
  8 20  1  0
  9 21  1  0
 10 22  1  0
 12 23  1  0
 12 24  1  0
 13 25  1  0
 13 26  1  0
 14 27  1  0
 14 28  1  0
 15 29  1  0
 15 30  1  0
M  END
>  <UniqueID>  (27) 
25

>  <SMILES>  (27) 
O=S(=O)(Cc1ccccc1)N1CCCC1

>  <Energy>  (27) 
25.618550219650604

>  <Genealogy>  (27) 
O=S(=O)(Cc1ccccc1)N1CCCC1 (3D coordinates assigned)
O=S(=O)(Cc1ccccc1)N1CCCC1 (nonaromatic ring conformer: 25.618550219650604 kcal/mol)

>  <smiles>  (27) 
O=S(=O)(Cc1ccccc1)N1CCCC1

>  <score_type>  (27) 
oracle

>  <origin>  (27) 
autodockgpu

>  <m_score__min__energy>  (27) 
-5.8799999999999999

>  <m_primary>  (27) 
energy

>  <meeko>  (27) 
{"free_energy": -5.87, "intermolecular_energy": -6.76, "internal_energy": -0.68, "cluster_size": 18, "cluster_id": 1, "rank_in_cluster": 3}

>  <energy>  (27) 
-5.76

>  <cluster_rmsd>  (27) 
1.21

>  <rmsd>  (27) 
273.24

>  <cluster>  (27) 
1

$$$$
GGXXWZKFDBNAQR-UHFFFAOYNA-N
     RDKit          3D

 30 31  0  0  0  0  0  0  0  0999 V2000
  139.5610   67.0460  224.2860 O   0  0  0  0  0  0  0  0  0  0  0  0
  139.2760   67.8630  225.5150 S   0  0  0  0  0  0  0  0  0  0  0  0
  138.4560   67.0250  226.4540 O   0  0  0  0  0  0  0  0  0  0  0  0
  140.8350   68.2270  226.3380 C   0  0  0  0  0  0  0  0  0  0  0  0
  140.9370   69.6660  226.7590 C   0  0  0  0  0  0  0  0  0  0  0  0
  140.3180   70.1020  227.9430 C   0  0  0  0  0  0  0  0  0  0  0  0
  140.4410   71.4340  228.3520 C   0  0  0  0  0  0  0  0  0  0  0  0
  141.1780   72.3370  227.5820 C   0  0  0  0  0  0  0  0  0  0  0  0
  141.7870   71.9140  226.3990 C   0  0  0  0  0  0  0  0  0  0  0  0
  141.6650   70.5850  225.9840 C   0  0  0  0  0  0  0  0  0  0  0  0
  138.3190   69.2580  225.0590 N   0  0  0  0  0  0  0  0  0  0  0  0
  139.0500   70.2310  224.2400 C   0  0  0  0  0  0  0  0  0  0  0  0
  138.1250   70.6830  223.1150 C   0  0  0  0  0  0  0  0  0  0  0  0
  136.7800   70.0560  223.4180 C   0  0  0  0  0  0  0  0  0  0  0  0
  137.0970   68.8980  224.3400 C   0  0  0  0  0  0  0  0  0  0  0  0
  140.9203   67.5905  227.2311 H   0  0  0  0  0  0  0  0  0  0  0  0
  141.6468   68.0279  225.6229 H   0  0  0  0  0  0  0  0  0  0  0  0
  139.7350   69.3936  228.5499 H   0  0  0  0  0  0  0  0  0  0  0  0
  139.9570   71.7707  229.2807 H   0  0  0  0  0  0  0  0  0  0  0  0
  141.2786   73.3827  227.9082 H   0  0  0  0  0  0  0  0  0  0  0  0
  142.3638   72.6279  225.7926 H   0  0  0  0  0  0  0  0  0  0  0  0
  142.1403   70.2572  225.0477 H   0  0  0  0  0  0  0  0  0  0  0  0
  139.3402   71.0952  224.8557 H   0  0  0  0  0  0  0  0  0  0  0  0
  139.9628   69.7766  223.8273 H   0  0  0  0  0  0  0  0  0  0  0  0
  138.0433   71.7799  223.1022 H   0  0  0  0  0  0  0  0  0  0  0  0
  138.5039   70.3775  222.1285 H   0  0  0  0  0  0  0  0  0  0  0  0
  136.1180   70.7793  223.9166 H   0  0  0  0  0  0  0  0  0  0  0  0
  136.2562   69.7320  222.5066 H   0  0  0  0  0  0  0  0  0  0  0  0
  136.2714   68.7411  225.0497 H   0  0  0  0  0  0  0  0  0  0  0  0
  137.2309   67.9649  223.7730 H   0  0  0  0  0  0  0  0  0  0  0  0
  1  2  2  0
  2  3  2  0
  2  4  1  0
  4  5  1  0
  5  6  2  0
  6  7  1  0
  7  8  2  0
  8  9  1  0
  9 10  2  0
  2 11  1  0
 11 12  1  0
 12 13  1  0
 13 14  1  0
 14 15  1  0
 10  5  1  0
 15 11  1  0
  4 16  1  0
  4 17  1  0
  6 18  1  0
  7 19  1  0
  8 20  1  0
  9 21  1  0
 10 22  1  0
 12 23  1  0
 12 24  1  0
 13 25  1  0
 13 26  1  0
 14 27  1  0
 14 28  1  0
 15 29  1  0
 15 30  1  0
M  END
>  <UniqueID>  (28) 
25

>  <SMILES>  (28) 
O=S(=O)(Cc1ccccc1)N1CCCC1

>  <Energy>  (28) 
25.618550219650604

>  <Genealogy>  (28) 
O=S(=O)(Cc1ccccc1)N1CCCC1 (3D coordinates assigned)
O=S(=O)(Cc1ccccc1)N1CCCC1 (nonaromatic ring conformer: 25.618550219650604 kcal/mol)

>  <smiles>  (28) 
O=S(=O)(Cc1ccccc1)N1CCCC1

>  <score_type>  (28) 
oracle

>  <origin>  (28) 
autodockgpu

>  <m_score__min__energy>  (28) 
-5.8799999999999999

>  <m_primary>  (28) 
energy

>  <meeko>  (28) 
{"free_energy": -5.85, "intermolecular_energy": -6.75, "internal_energy": -0.64, "cluster_size": 18, "cluster_id": 1, "rank_in_cluster": 5}

>  <energy>  (28) 
-5.76

>  <cluster_rmsd>  (28) 
1.2

>  <rmsd>  (28) 
273.21

>  <cluster>  (28) 
1

$$$$
GGXXWZKFDBNAQR-UHFFFAOYNA-N
     RDKit          3D

 30 31  0  0  0  0  0  0  0  0999 V2000
  139.2880   67.0640  224.3780 O   0  0  0  0  0  0  0  0  0  0  0  0
  139.1460   68.4290  224.9910 S   0  0  0  0  0  0  0  0  0  0  0  0
  137.7010   68.6340  225.3480 O   0  0  0  0  0  0  0  0  0  0  0  0
  140.0910   68.4740  226.5220 C   0  0  0  0  0  0  0  0  0  0  0  0
  140.5030   69.8690  226.8990 C   0  0  0  0  0  0  0  0  0  0  0  0
  141.4280   70.5720  226.1080 C   0  0  0  0  0  0  0  0  0  0  0  0
  141.7870   71.8820  226.4410 C   0  0  0  0  0  0  0  0  0  0  0  0
  141.2290   72.4970  227.5640 C   0  0  0  0  0  0  0  0  0  0  0  0
  140.3170   71.8010  228.3610 C   0  0  0  0  0  0  0  0  0  0  0  0
  139.9570   70.4910  228.0350 C   0  0  0  0  0  0  0  0  0  0  0  0
  139.5850   69.6360  223.7980 N   0  0  0  0  0  0  0  0  0  0  0  0
  139.2160   69.2680  222.4260 C   0  0  0  0  0  0  0  0  0  0  0  0
  138.6220   70.5020  221.7560 C   0  0  0  0  0  0  0  0  0  0  0  0
  138.8160   71.6340  222.7420 C   0  0  0  0  0  0  0  0  0  0  0  0
  139.0030   70.9490  224.0790 C   0  0  0  0  0  0  0  0  0  0  0  0
  139.4732   68.0571  227.3310 H   0  0  0  0  0  0  0  0  0  0  0  0
  141.0063   67.8833  226.3691 H   0  0  0  0  0  0  0  0  0  0  0  0
  141.8711   70.0901  225.2240 H   0  0  0  0  0  0  0  0  0  0  0  0
  142.5098   72.4288  225.8176 H   0  0  0  0  0  0  0  0  0  0  0  0
  141.5077   73.5296  227.8209 H   0  0  0  0  0  0  0  0  0  0  0  0
  139.8813   72.2854  229.2473 H   0  0  0  0  0  0  0  0  0  0  0  0
  139.2438   69.9445  228.6696 H   0  0  0  0  0  0  0  0  0  0  0  0
  140.1082   68.9360  221.8749 H   0  0  0  0  0  0  0  0  0  0  0  0
  138.4859   68.4453  222.4321 H   0  0  0  0  0  0  0  0  0  0  0  0
  139.1481   70.7185  220.8146 H   0  0  0  0  0  0  0  0  0  0  0  0
  137.5606   70.3579  221.5056 H   0  0  0  0  0  0  0  0  0  0  0  0
  139.7051   72.2272  222.4820 H   0  0  0  0  0  0  0  0  0  0  0  0
  137.9665   72.3328  222.7468 H   0  0  0  0  0  0  0  0  0  0  0  0
  139.6814   71.5367  224.7150 H   0  0  0  0  0  0  0  0  0  0  0  0
  138.0461   70.8528  224.6129 H   0  0  0  0  0  0  0  0  0  0  0  0
  1  2  2  0
  2  3  2  0
  2  4  1  0
  4  5  1  0
  5  6  2  0
  6  7  1  0
  7  8  2  0
  8  9  1  0
  9 10  2  0
  2 11  1  0
 11 12  1  0
 12 13  1  0
 13 14  1  0
 14 15  1  0
 10  5  1  0
 15 11  1  0
  4 16  1  0
  4 17  1  0
  6 18  1  0
  7 19  1  0
  8 20  1  0
  9 21  1  0
 10 22  1  0
 12 23  1  0
 12 24  1  0
 13 25  1  0
 13 26  1  0
 14 27  1  0
 14 28  1  0
 15 29  1  0
 15 30  1  0
M  END
>  <UniqueID>  (29) 
25

>  <SMILES>  (29) 
O=S(=O)(Cc1ccccc1)N1CCCC1

>  <Energy>  (29) 
25.618550219650604

>  <Genealogy>  (29) 
O=S(=O)(Cc1ccccc1)N1CCCC1 (3D coordinates assigned)
O=S(=O)(Cc1ccccc1)N1CCCC1 (nonaromatic ring conformer: 25.618550219650604 kcal/mol)

>  <smiles>  (29) 
O=S(=O)(Cc1ccccc1)N1CCCC1

>  <score_type>  (29) 
oracle

>  <origin>  (29) 
autodockgpu

>  <m_score__min__energy>  (29) 
-5.8799999999999999

>  <m_primary>  (29) 
energy

>  <meeko>  (29) 
{"free_energy": -5.76, "intermolecular_energy": -6.65, "internal_energy": -0.66, "cluster_size": 18, "cluster_id": 1, "rank_in_cluster": 8}

>  <energy>  (29) 
-5.74

>  <cluster_rmsd>  (29) 
1.2

>  <rmsd>  (29) 
273.11

>  <cluster>  (29) 
1

$$$$
GGXXWZKFDBNAQR-UHFFFAOYNA-N
     RDKit          3D

 30 31  0  0  0  0  0  0  0  0999 V2000
  139.5490   67.0140  224.2440 O   0  0  0  0  0  0  0  0  0  0  0  0
  139.3030   68.0550  225.3000 S   0  0  0  0  0  0  0  0  0  0  0  0
  138.7730   67.3640  226.5240 O   0  0  0  0  0  0  0  0  0  0  0  0
  140.8770   68.8060  225.7450 C   0  0  0  0  0  0  0  0  0  0  0  0
  140.7100   69.9800  226.6680 C   0  0  0  0  0  0  0  0  0  0  0  0
  141.4090   71.1750  226.4280 C   0  0  0  0  0  0  0  0  0  0  0  0
  141.2290   72.2780  227.2680 C   0  0  0  0  0  0  0  0  0  0  0  0
  140.3540   72.1950  228.3540 C   0  0  0  0  0  0  0  0  0  0  0  0
  139.6630   71.0070  228.6060 C   0  0  0  0  0  0  0  0  0  0  0  0
  139.8420   69.9010  227.7700 C   0  0  0  0  0  0  0  0  0  0  0  0
  138.0720   69.1630  224.7290 N   0  0  0  0  0  0  0  0  0  0  0  0
  138.5580   70.5360  224.5410 C   0  0  0  0  0  0  0  0  0  0  0  0
  137.9890   71.0550  223.2260 C   0  0  0  0  0  0  0  0  0  0  0  0
  137.0260   69.9880  222.7480 C   0  0  0  0  0  0  0  0  0  0  0  0
  137.4590   68.7320  223.4730 C   0  0  0  0  0  0  0  0  0  0  0  0
  141.5008   68.0499  226.2442 H   0  0  0  0  0  0  0  0  0  0  0  0
  141.3485   69.1703  224.8204 H   0  0  0  0  0  0  0  0  0  0  0  0
  142.1008   71.2430  225.5755 H   0  0  0  0  0  0  0  0  0  0  0  0
  141.7767   73.2119  227.0737 H   0  0  0  0  0  0  0  0  0  0  0  0
  140.2090   73.0653  229.0110 H   0  0  0  0  0  0  0  0  0  0  0  0
  138.9771   70.9419  229.4635 H   0  0  0  0  0  0  0  0  0  0  0  0
  139.3013   68.9654  227.9757 H   0  0  0  0  0  0  0  0  0  0  0  0
  138.2177   71.1707  225.3725 H   0  0  0  0  0  0  0  0  0  0  0  0
  139.6576   70.5549  224.5182 H   0  0  0  0  0  0  0  0  0  0  0  0
  137.4597   72.0060  223.3856 H   0  0  0  0  0  0  0  0  0  0  0  0
  138.7816   71.2474  222.4879 H   0  0  0  0  0  0  0  0  0  0  0  0
  135.9913   70.2519  223.0122 H   0  0  0  0  0  0  0  0  0  0  0  0
  137.0458   69.8670  221.6549 H   0  0  0  0  0  0  0  0  0  0  0  0
  136.5878   68.0919  223.6762 H   0  0  0  0  0  0  0  0  0  0  0  0
  138.1673   68.1487  222.8663 H   0  0  0  0  0  0  0  0  0  0  0  0
  1  2  2  0
  2  3  2  0
  2  4  1  0
  4  5  1  0
  5  6  2  0
  6  7  1  0
  7  8  2  0
  8  9  1  0
  9 10  2  0
  2 11  1  0
 11 12  1  0
 12 13  1  0
 13 14  1  0
 14 15  1  0
 10  5  1  0
 15 11  1  0
  4 16  1  0
  4 17  1  0
  6 18  1  0
  7 19  1  0
  8 20  1  0
  9 21  1  0
 10 22  1  0
 12 23  1  0
 12 24  1  0
 13 25  1  0
 13 26  1  0
 14 27  1  0
 14 28  1  0
 15 29  1  0
 15 30  1  0
M  END
>  <UniqueID>  (30) 
25

>  <SMILES>  (30) 
O=S(=O)(Cc1ccccc1)N1CCCC1

>  <Energy>  (30) 
25.618550219650604

>  <Genealogy>  (30) 
O=S(=O)(Cc1ccccc1)N1CCCC1 (3D coordinates assigned)
O=S(=O)(Cc1ccccc1)N1CCCC1 (nonaromatic ring conformer: 25.618550219650604 kcal/mol)

>  <smiles>  (30) 
O=S(=O)(Cc1ccccc1)N1CCCC1

>  <score_type>  (30) 
oracle

>  <origin>  (30) 
autodockgpu

>  <m_score__min__energy>  (30) 
-5.8799999999999999

>  <m_primary>  (30) 
energy

>  <meeko>  (30) 
{"free_energy": -5.69, "intermolecular_energy": -6.59, "internal_energy": -0.61, "cluster_size": 18, "cluster_id": 1, "rank_in_cluster": 17}

>  <energy>  (30) 
-5.73

>  <cluster_rmsd>  (30) 
1.16

>  <rmsd>  (30) 
273.28

>  <cluster>  (30) 
1

$$$$
GGXXWZKFDBNAQR-UHFFFAOYNA-N
     RDKit          3D

 30 31  0  0  0  0  0  0  0  0999 V2000
  139.2010   67.0270  224.1720 O   0  0  0  0  0  0  0  0  0  0  0  0
  139.2050   68.3910  224.8050 S   0  0  0  0  0  0  0  0  0  0  0  0
  137.8290   68.6620  225.3420 O   0  0  0  0  0  0  0  0  0  0  0  0
  140.3360   68.3710  226.2050 C   0  0  0  0  0  0  0  0  0  0  0  0
  140.6420   69.7520  226.7120 C   0  0  0  0  0  0  0  0  0  0  0  0
  141.4910   70.6020  225.9830 C   0  0  0  0  0  0  0  0  0  0  0  0
  141.7500   71.8990  226.4380 C   0  0  0  0  0  0  0  0  0  0  0  0
  141.1670   72.3550  227.6220 C   0  0  0  0  0  0  0  0  0  0  0  0
  140.3300   71.5130  228.3580 C   0  0  0  0  0  0  0  0  0  0  0  0
  140.0700   70.2150  227.9090 C   0  0  0  0  0  0  0  0  0  0  0  0
  139.5510   69.5880  223.5730 N   0  0  0  0  0  0  0  0  0  0  0  0
  139.0560   69.2210  222.2410 C   0  0  0  0  0  0  0  0  0  0  0  0
  138.4210   70.4610  221.6210 C   0  0  0  0  0  0  0  0  0  0  0  0
  138.7170   71.5930  222.5820 C   0  0  0  0  0  0  0  0  0  0  0  0
  139.0140   70.9090  223.8990 C   0  0  0  0  0  0  0  0  0  0  0  0
  139.8804   67.7883  227.0192 H   0  0  0  0  0  0  0  0  0  0  0  0
  141.2808   67.9200  225.8674 H   0  0  0  0  0  0  0  0  0  0  0  0
  141.9537   70.2459  225.0508 H   0  0  0  0  0  0  0  0  0  0  0  0
  142.4139   72.5607  225.8623 H   0  0  0  0  0  0  0  0  0  0  0  0
  141.3669   73.3774  227.9752 H   0  0  0  0  0  0  0  0  0  0  0  0
  139.8746   71.8721  229.2927 H   0  0  0  0  0  0  0  0  0  0  0  0
  139.4151   69.5535  228.4950 H   0  0  0  0  0  0  0  0  0  0  0  0
  139.8909   68.8750  221.6139 H   0  0  0  0  0  0  0  0  0  0  0  0
  138.3182   68.4085  222.3160 H   0  0  0  0  0  0  0  0  0  0  0  0
  138.8644   70.6677  220.6358 H   0  0  0  0  0  0  0  0  0  0  0  0
  137.3398   70.3306  221.4659 H   0  0  0  0  0  0  0  0  0  0  0  0
  139.5868   72.1739  222.2414 H   0  0  0  0  0  0  0  0  0  0  0  0
  137.8803   72.3028  222.6603 H   0  0  0  0  0  0  0  0  0  0  0  0
  139.7542   71.4892  224.4694 H   0  0  0  0  0  0  0  0  0  0  0  0
  138.1073   70.8269  224.5163 H   0  0  0  0  0  0  0  0  0  0  0  0
  1  2  2  0
  2  3  2  0
  2  4  1  0
  4  5  1  0
  5  6  2  0
  6  7  1  0
  7  8  2  0
  8  9  1  0
  9 10  2  0
  2 11  1  0
 11 12  1  0
 12 13  1  0
 13 14  1  0
 14 15  1  0
 10  5  1  0
 15 11  1  0
  4 16  1  0
  4 17  1  0
  6 18  1  0
  7 19  1  0
  8 20  1  0
  9 21  1  0
 10 22  1  0
 12 23  1  0
 12 24  1  0
 13 25  1  0
 13 26  1  0
 14 27  1  0
 14 28  1  0
 15 29  1  0
 15 30  1  0
M  END
>  <UniqueID>  (31) 
25

>  <SMILES>  (31) 
O=S(=O)(Cc1ccccc1)N1CCCC1

>  <Energy>  (31) 
25.618550219650604

>  <Genealogy>  (31) 
O=S(=O)(Cc1ccccc1)N1CCCC1 (3D coordinates assigned)
O=S(=O)(Cc1ccccc1)N1CCCC1 (nonaromatic ring conformer: 25.618550219650604 kcal/mol)

>  <smiles>  (31) 
O=S(=O)(Cc1ccccc1)N1CCCC1

>  <score_type>  (31) 
oracle

>  <origin>  (31) 
autodockgpu

>  <m_score__min__energy>  (31) 
-5.8799999999999999

>  <m_primary>  (31) 
energy

>  <meeko>  (31) 
{"free_energy": -5.69, "intermolecular_energy": -6.59, "internal_energy": -0.68, "cluster_size": 18, "cluster_id": 1, "rank_in_cluster": 18}

>  <energy>  (31) 
-5.73

>  <cluster_rmsd>  (31) 
1.18

>  <rmsd>  (31) 
273.1

>  <cluster>  (31) 
1

$$$$
GGXXWZKFDBNAQR-UHFFFAOYNA-N
     RDKit          3D

 30 31  0  0  0  0  0  0  0  0999 V2000
  139.4310   67.1190  224.2720 O   0  0  0  0  0  0  0  0  0  0  0  0
  139.2180   67.8890  225.5450 S   0  0  0  0  0  0  0  0  0  0  0  0
  138.4920   67.0000  226.5140 O   0  0  0  0  0  0  0  0  0  0  0  0
  140.8230   68.2720  226.2620 C   0  0  0  0  0  0  0  0  0  0  0  0
  140.9220   69.7030  226.7130 C   0  0  0  0  0  0  0  0  0  0  0  0
  140.3040   70.1130  227.9070 C   0  0  0  0  0  0  0  0  0  0  0  0
  140.4240   71.4360  228.3440 C   0  0  0  0  0  0  0  0  0  0  0  0
  141.1570   72.3570  227.5930 C   0  0  0  0  0  0  0  0  0  0  0  0
  141.7660   71.9600  226.4000 C   0  0  0  0  0  0  0  0  0  0  0  0
  141.6470   70.6390  225.9570 C   0  0  0  0  0  0  0  0  0  0  0  0
  138.1930   69.2710  225.2080 N   0  0  0  0  0  0  0  0  0  0  0  0
  138.8360   70.2890  224.3690 C   0  0  0  0  0  0  0  0  0  0  0  0
  137.8170   70.7490  223.3310 C   0  0  0  0  0  0  0  0  0  0  0  0
  136.5160   70.0740  223.7110 C   0  0  0  0  0  0  0  0  0  0  0  0
  136.9310   68.8980  224.5680 C   0  0  0  0  0  0  0  0  0  0  0  0
  140.9882   67.6159  227.1293 H   0  0  0  0  0  0  0  0  0  0  0  0
  141.5847   68.1116  225.4848 H   0  0  0  0  0  0  0  0  0  0  0  0
  139.7238   69.3906  228.4999 H   0  0  0  0  0  0  0  0  0  0  0  0
  139.9404   71.7514  229.2803 H   0  0  0  0  0  0  0  0  0  0  0  0
  141.2550   73.3959  227.9409 H   0  0  0  0  0  0  0  0  0  0  0  0
  142.3402   72.6879  225.8080 H   0  0  0  0  0  0  0  0  0  0  0  0
  142.1225   70.3319  225.0138 H   0  0  0  0  0  0  0  0  0  0  0  0
  139.1494   71.1417  224.9892 H   0  0  0  0  0  0  0  0  0  0  0  0
  139.7268   69.8735  223.8753 H   0  0  0  0  0  0  0  0  0  0  0  0
  137.7052   71.8429  223.3611 H   0  0  0  0  0  0  0  0  0  0  0  0
  138.1291   70.4857  222.3096 H   0  0  0  0  0  0  0  0  0  0  0  0
  135.8738   70.7618  224.2806 H   0  0  0  0  0  0  0  0  0  0  0  0
  135.9350   69.7633  222.8302 H   0  0  0  0  0  0  0  0  0  0  0  0
  136.1645   68.6948  225.3303 H   0  0  0  0  0  0  0  0  0  0  0  0
  137.0478   67.9875  223.9619 H   0  0  0  0  0  0  0  0  0  0  0  0
  1  2  2  0
  2  3  2  0
  2  4  1  0
  4  5  1  0
  5  6  2  0
  6  7  1  0
  7  8  2  0
  8  9  1  0
  9 10  2  0
  2 11  1  0
 11 12  1  0
 12 13  1  0
 13 14  1  0
 14 15  1  0
 10  5  1  0
 15 11  1  0
  4 16  1  0
  4 17  1  0
  6 18  1  0
  7 19  1  0
  8 20  1  0
  9 21  1  0
 10 22  1  0
 12 23  1  0
 12 24  1  0
 13 25  1  0
 13 26  1  0
 14 27  1  0
 14 28  1  0
 15 29  1  0
 15 30  1  0
M  END
>  <UniqueID>  (32) 
25

>  <SMILES>  (32) 
O=S(=O)(Cc1ccccc1)N1CCCC1

>  <Energy>  (32) 
25.618550219650604

>  <Genealogy>  (32) 
O=S(=O)(Cc1ccccc1)N1CCCC1 (3D coordinates assigned)
O=S(=O)(Cc1ccccc1)N1CCCC1 (nonaromatic ring conformer: 25.618550219650604 kcal/mol)

>  <smiles>  (32) 
O=S(=O)(Cc1ccccc1)N1CCCC1

>  <score_type>  (32) 
oracle

>  <origin>  (32) 
autodockgpu

>  <m_score__min__energy>  (32) 
-5.8799999999999999

>  <m_primary>  (32) 
energy

>  <meeko>  (32) 
{"free_energy": -5.81, "intermolecular_energy": -6.71, "internal_energy": -0.66, "cluster_size": 18, "cluster_id": 1, "rank_in_cluster": 6}

>  <energy>  (32) 
-5.72

>  <cluster_rmsd>  (32) 
0.67

>  <rmsd>  (32) 
273.31

>  <cluster>  (32) 
1

$$$$
GGXXWZKFDBNAQR-UHFFFAOYNA-N
     RDKit          3D

 30 31  0  0  0  0  0  0  0  0999 V2000
  139.4370   67.0890  224.4440 O   0  0  0  0  0  0  0  0  0  0  0  0
  139.1740   68.4300  225.0700 S   0  0  0  0  0  0  0  0  0  0  0  0
  137.7040   68.5290  225.3630 O   0  0  0  0  0  0  0  0  0  0  0  0
  140.0430   68.5100  226.6430 C   0  0  0  0  0  0  0  0  0  0  0  0
  140.4850   69.9060  226.9820 C   0  0  0  0  0  0  0  0  0  0  0  0
  141.4220   70.5690  226.1710 C   0  0  0  0  0  0  0  0  0  0  0  0
  141.8080   71.8800  226.4670 C   0  0  0  0  0  0  0  0  0  0  0  0
  141.2640   72.5360  227.5740 C   0  0  0  0  0  0  0  0  0  0  0  0
  140.3400   71.8810  228.3910 C   0  0  0  0  0  0  0  0  0  0  0  0
  139.9530   70.5700  228.1010 C   0  0  0  0  0  0  0  0  0  0  0  0
  139.5820   69.6840  223.9170 N   0  0  0  0  0  0  0  0  0  0  0  0
  139.2900   69.3220  222.5250 C   0  0  0  0  0  0  0  0  0  0  0  0
  138.6470   70.5300  221.8530 C   0  0  0  0  0  0  0  0  0  0  0  0
  138.7310   71.6520  222.8670 C   0  0  0  0  0  0  0  0  0  0  0  0
  138.9090   70.9530  224.1970 C   0  0  0  0  0  0  0  0  0  0  0  0
  139.3718   68.1493  227.4363 H   0  0  0  0  0  0  0  0  0  0  0  0
  140.9433   67.8832  226.5615 H   0  0  0  0  0  0  0  0  0  0  0  0
  141.8535   70.0545  225.2998 H   0  0  0  0  0  0  0  0  0  0  0  0
  142.5403   72.3950  225.8279 H   0  0  0  0  0  0  0  0  0  0  0  0
  141.5638   73.5694  227.8023 H   0  0  0  0  0  0  0  0  0  0  0  0
  139.9160   72.3981  229.2645 H   0  0  0  0  0  0  0  0  0  0  0  0
  139.2295   70.0557  228.7506 H   0  0  0  0  0  0  0  0  0  0  0  0
  140.2218   69.0564  222.0043 H   0  0  0  0  0  0  0  0  0  0  0  0
  138.6123   68.4563  222.4877 H   0  0  0  0  0  0  0  0  0  0  0  0
  139.1955   70.7976  220.9378 H   0  0  0  0  0  0  0  0  0  0  0  0
  137.6075   70.3259  221.5566 H   0  0  0  0  0  0  0  0  0  0  0  0
  139.5903   72.3047  222.6534 H   0  0  0  0  0  0  0  0  0  0  0  0
  137.8395   72.2962  222.8507 H   0  0  0  0  0  0  0  0  0  0  0  0
  139.5245   71.5685  224.8696 H   0  0  0  0  0  0  0  0  0  0  0  0
  137.9399   70.7871  224.6902 H   0  0  0  0  0  0  0  0  0  0  0  0
  1  2  2  0
  2  3  2  0
  2  4  1  0
  4  5  1  0
  5  6  2  0
  6  7  1  0
  7  8  2  0
  8  9  1  0
  9 10  2  0
  2 11  1  0
 11 12  1  0
 12 13  1  0
 13 14  1  0
 14 15  1  0
 10  5  1  0
 15 11  1  0
  4 16  1  0
  4 17  1  0
  6 18  1  0
  7 19  1  0
  8 20  1  0
  9 21  1  0
 10 22  1  0
 12 23  1  0
 12 24  1  0
 13 25  1  0
 13 26  1  0
 14 27  1  0
 14 28  1  0
 15 29  1  0
 15 30  1  0
M  END
>  <UniqueID>  (33) 
25

>  <SMILES>  (33) 
O=S(=O)(Cc1ccccc1)N1CCCC1

>  <Energy>  (33) 
25.618550219650604

>  <Genealogy>  (33) 
O=S(=O)(Cc1ccccc1)N1CCCC1 (3D coordinates assigned)
O=S(=O)(Cc1ccccc1)N1CCCC1 (nonaromatic ring conformer: 25.618550219650604 kcal/mol)

>  <smiles>  (33) 
O=S(=O)(Cc1ccccc1)N1CCCC1

>  <score_type>  (33) 
oracle

>  <origin>  (33) 
autodockgpu

>  <m_score__min__energy>  (33) 
-5.8799999999999999

>  <m_primary>  (33) 
energy

>  <meeko>  (33) 
{"free_energy": -5.73, "intermolecular_energy": -6.62, "internal_energy": -0.67, "cluster_size": 18, "cluster_id": 1, "rank_in_cluster": 10}

>  <energy>  (33) 
-5.71

>  <cluster_rmsd>  (33) 
1.19

>  <rmsd>  (33) 
273.19

>  <cluster>  (33) 
1

$$$$
GGXXWZKFDBNAQR-UHFFFAOYNA-N
     RDKit          3D

 30 31  0  0  0  0  0  0  0  0999 V2000
  139.2310   67.0120  224.2120 O   0  0  0  0  0  0  0  0  0  0  0  0
  139.1420   68.3600  224.8700 S   0  0  0  0  0  0  0  0  0  0  0  0
  137.7310   68.5580  225.3440 O   0  0  0  0  0  0  0  0  0  0  0  0
  140.2040   68.3620  226.3230 C   0  0  0  0  0  0  0  0  0  0  0  0
  140.5450   69.7520  226.7810 C   0  0  0  0  0  0  0  0  0  0  0  0
  141.4160   70.5530  226.0240 C   0  0  0  0  0  0  0  0  0  0  0  0
  141.7080   71.8580  226.4320 C   0  0  0  0  0  0  0  0  0  0  0  0
  141.1340   72.3710  227.5980 C   0  0  0  0  0  0  0  0  0  0  0  0
  140.2750   71.5780  228.3630 C   0  0  0  0  0  0  0  0  0  0  0  0
  139.9830   70.2720  227.9600 C   0  0  0  0  0  0  0  0  0  0  0  0
  139.4910   69.5980  223.6790 N   0  0  0  0  0  0  0  0  0  0  0  0
  139.0820   69.2350  222.3170 C   0  0  0  0  0  0  0  0  0  0  0  0
  138.4200   70.4570  221.6890 C   0  0  0  0  0  0  0  0  0  0  0  0
  138.6120   71.5810  222.6840 C   0  0  0  0  0  0  0  0  0  0  0  0
  138.8760   70.8850  224.0020 C   0  0  0  0  0  0  0  0  0  0  0  0
  139.6862   67.8379  227.1398 H   0  0  0  0  0  0  0  0  0  0  0  0
  141.1435   67.8579  226.0526 H   0  0  0  0  0  0  0  0  0  0  0  0
  141.8704   70.1517  225.1061 H   0  0  0  0  0  0  0  0  0  0  0  0
  142.3899   72.4811  225.8348 H   0  0  0  0  0  0  0  0  0  0  0  0
  141.3587   73.4004  227.9140 H   0  0  0  0  0  0  0  0  0  0  0  0
  139.8281   71.9819  229.2834 H   0  0  0  0  0  0  0  0  0  0  0  0
  139.3108   69.6485  228.5678 H   0  0  0  0  0  0  0  0  0  0  0  0
  139.9630   68.9418  221.7271 H   0  0  0  0  0  0  0  0  0  0  0  0
  138.3819   68.3868  222.3387 H   0  0  0  0  0  0  0  0  0  0  0  0
  138.9018   70.7052  220.7318 H   0  0  0  0  0  0  0  0  0  0  0  0
  137.3554   70.2789  221.4768 H   0  0  0  0  0  0  0  0  0  0  0  0
  139.4683   72.2098  222.3988 H   0  0  0  0  0  0  0  0  0  0  0  0
  137.7387   72.2480  222.7327 H   0  0  0  0  0  0  0  0  0  0  0  0
  139.5585   71.4875  224.6194 H   0  0  0  0  0  0  0  0  0  0  0  0
  137.9451   70.7480  224.5717 H   0  0  0  0  0  0  0  0  0  0  0  0
  1  2  2  0
  2  3  2  0
  2  4  1  0
  4  5  1  0
  5  6  2  0
  6  7  1  0
  7  8  2  0
  8  9  1  0
  9 10  2  0
  2 11  1  0
 11 12  1  0
 12 13  1  0
 13 14  1  0
 14 15  1  0
 10  5  1  0
 15 11  1  0
  4 16  1  0
  4 17  1  0
  6 18  1  0
  7 19  1  0
  8 20  1  0
  9 21  1  0
 10 22  1  0
 12 23  1  0
 12 24  1  0
 13 25  1  0
 13 26  1  0
 14 27  1  0
 14 28  1  0
 15 29  1  0
 15 30  1  0
M  END
>  <UniqueID>  (34) 
25

>  <SMILES>  (34) 
O=S(=O)(Cc1ccccc1)N1CCCC1

>  <Energy>  (34) 
25.618550219650604

>  <Genealogy>  (34) 
O=S(=O)(Cc1ccccc1)N1CCCC1 (3D coordinates assigned)
O=S(=O)(Cc1ccccc1)N1CCCC1 (nonaromatic ring conformer: 25.618550219650604 kcal/mol)

>  <smiles>  (34) 
O=S(=O)(Cc1ccccc1)N1CCCC1

>  <score_type>  (34) 
oracle

>  <origin>  (34) 
autodockgpu

>  <m_score__min__energy>  (34) 
-5.8799999999999999

>  <m_primary>  (34) 
energy

>  <meeko>  (34) 
{"free_energy": -5.73, "intermolecular_energy": -6.62, "internal_energy": -0.69, "cluster_size": 18, "cluster_id": 1, "rank_in_cluster": 11}

>  <energy>  (34) 
-5.71

>  <cluster_rmsd>  (34) 
1.18

>  <rmsd>  (34) 
273.09

>  <cluster>  (34) 
1

$$$$
GGXXWZKFDBNAQR-UHFFFAOYNA-N
     RDKit          3D

 30 31  0  0  0  0  0  0  0  0999 V2000
  142.1780   81.6540  224.4570 O   0  0  0  0  0  0  0  0  0  0  0  0
  142.5890   80.6580  223.4090 S   0  0  0  0  0  0  0  0  0  0  0  0
  144.0830   80.5140  223.4600 O   0  0  0  0  0  0  0  0  0  0  0  0
  141.8780   79.0590  223.8260 C   0  0  0  0  0  0  0  0  0  0  0  0
  140.4260   78.9620  223.4480 C   0  0  0  0  0  0  0  0  0  0  0  0
  139.5220   79.9600  223.8520 C   0  0  0  0  0  0  0  0  0  0  0  0
  138.1780   79.8870  223.4730 C   0  0  0  0  0  0  0  0  0  0  0  0
  137.7270   78.8200  222.6920 C   0  0  0  0  0  0  0  0  0  0  0  0
  138.6170   77.8190  222.2960 C   0  0  0  0  0  0  0  0  0  0  0  0
  139.9610   77.8850  222.6750 C   0  0  0  0  0  0  0  0  0  0  0  0
  142.1610   81.2860  221.8300 N   0  0  0  0  0  0  0  0  0  0  0  0
  141.8260   80.2430  220.8530 C   0  0  0  0  0  0  0  0  0  0  0  0
  140.5900   80.7020  220.0860 C   0  0  0  0  0  0  0  0  0  0  0  0
  140.3280   82.1200  220.5470 C   0  0  0  0  0  0  0  0  0  0  0  0
  141.0420   82.2270  221.8780 C   0  0  0  0  0  0  0  0  0  0  0  0
  142.4352   78.2746  223.2928 H   0  0  0  0  0  0  0  0  0  0  0  0
  141.9501   78.9337  224.9165 H   0  0  0  0  0  0  0  0  0  0  0  0
  139.8730   80.8009  224.4682 H   0  0  0  0  0  0  0  0  0  0  0  0
  137.4747   80.6710  223.7903 H   0  0  0  0  0  0  0  0  0  0  0  0
  136.6709   78.7682  222.3889 H   0  0  0  0  0  0  0  0  0  0  0  0
  138.2597   76.9771  221.6848 H   0  0  0  0  0  0  0  0  0  0  0  0
  140.6569   77.0908  222.3669 H   0  0  0  0  0  0  0  0  0  0  0  0
  142.6657   80.0984  220.1573 H   0  0  0  0  0  0  0  0  0  0  0  0
  141.6293   79.2882  221.3626 H   0  0  0  0  0  0  0  0  0  0  0  0
  140.7799   80.6793  219.0028 H   0  0  0  0  0  0  0  0  0  0  0  0
  139.7270   80.0466  220.2750 H   0  0  0  0  0  0  0  0  0  0  0  0
  140.7375   82.8442  219.8274 H   0  0  0  0  0  0  0  0  0  0  0  0
  139.2534   82.3394  220.6312 H   0  0  0  0  0  0  0  0  0  0  0  0
  141.4139   83.2513  222.0277 H   0  0  0  0  0  0  0  0  0  0  0  0
  140.3634   81.9935  222.7116 H   0  0  0  0  0  0  0  0  0  0  0  0
  1  2  2  0
  2  3  2  0
  2  4  1  0
  4  5  1  0
  5  6  2  0
  6  7  1  0
  7  8  2  0
  8  9  1  0
  9 10  2  0
  2 11  1  0
 11 12  1  0
 12 13  1  0
 13 14  1  0
 14 15  1  0
 10  5  1  0
 15 11  1  0
  4 16  1  0
  4 17  1  0
  6 18  1  0
  7 19  1  0
  8 20  1  0
  9 21  1  0
 10 22  1  0
 12 23  1  0
 12 24  1  0
 13 25  1  0
 13 26  1  0
 14 27  1  0
 14 28  1  0
 15 29  1  0
 15 30  1  0
M  END
>  <UniqueID>  (35) 
25

>  <SMILES>  (35) 
O=S(=O)(Cc1ccccc1)N1CCCC1

>  <Energy>  (35) 
25.618550219650604

>  <Genealogy>  (35) 
O=S(=O)(Cc1ccccc1)N1CCCC1 (3D coordinates assigned)
O=S(=O)(Cc1ccccc1)N1CCCC1 (nonaromatic ring conformer: 25.618550219650604 kcal/mol)

>  <smiles>  (35) 
O=S(=O)(Cc1ccccc1)N1CCCC1

>  <score_type>  (35) 
oracle

>  <origin>  (35) 
autodockgpu

>  <m_score__min__energy>  (35) 
-5.8799999999999999

>  <m_primary>  (35) 
energy

>  <meeko>  (35) 
{"free_energy": -4.62, "intermolecular_energy": -5.52, "internal_energy": -0.92, "cluster_size": 1, "cluster_id": 3, "rank_in_cluster": 1}

>  <energy>  (35) 
-5.71

>  <cluster_rmsd>  (35) 
1.17

>  <rmsd>  (35) 
273.08

>  <cluster>  (35) 
1

$$$$
GGXXWZKFDBNAQR-UHFFFAOYNA-N
     RDKit          3D

 30 31  0  0  0  0  0  0  0  0999 V2000
  139.1980   67.0260  224.2060 O   0  0  0  0  0  0  0  0  0  0  0  0
  139.1140   68.3700  224.8730 S   0  0  0  0  0  0  0  0  0  0  0  0
  137.7070   68.5630  225.3610 O   0  0  0  0  0  0  0  0  0  0  0  0
  140.1890   68.3630  226.3160 C   0  0  0  0  0  0  0  0  0  0  0  0
  140.5370   69.7510  226.7770 C   0  0  0  0  0  0  0  0  0  0  0  0
  141.3930   70.5580  226.0090 C   0  0  0  0  0  0  0  0  0  0  0  0
  141.6900   71.8610  226.4210 C   0  0  0  0  0  0  0  0  0  0  0  0
  141.1380   72.3650  227.6010 C   0  0  0  0  0  0  0  0  0  0  0  0
  140.2940   71.5660  228.3760 C   0  0  0  0  0  0  0  0  0  0  0  0
  139.9960   70.2610  227.9700 C   0  0  0  0  0  0  0  0  0  0  0  0
  139.4510   69.6150  223.6870 N   0  0  0  0  0  0  0  0  0  0  0  0
  139.0670   69.2440  222.3200 C   0  0  0  0  0  0  0  0  0  0  0  0
  138.3860   70.4510  221.6830 C   0  0  0  0  0  0  0  0  0  0  0  0
  138.5410   71.5790  222.6810 C   0  0  0  0  0  0  0  0  0  0  0  0
  138.8030   70.8880  224.0020 C   0  0  0  0  0  0  0  0  0  0  0  0
  139.6776   67.8363  227.1352 H   0  0  0  0  0  0  0  0  0  0  0  0
  141.1249   67.8579  226.0350 H   0  0  0  0  0  0  0  0  0  0  0  0
  141.8312   70.1636  225.0803 H   0  0  0  0  0  0  0  0  0  0  0  0
  142.3591   72.4897  225.8151 H   0  0  0  0  0  0  0  0  0  0  0  0
  141.3681   73.3922  227.9203 H   0  0  0  0  0  0  0  0  0  0  0  0
  139.8632   71.9636  229.3068 H   0  0  0  0  0  0  0  0  0  0  0  0
  139.3365   69.6321  228.5860 H   0  0  0  0  0  0  0  0  0  0  0  0
  139.9616   68.9705  221.7413 H   0  0  0  0  0  0  0  0  0  0  0  0
  138.3852   68.3809  222.3334 H   0  0  0  0  0  0  0  0  0  0  0  0
  138.8743   70.7099  220.7319 H   0  0  0  0  0  0  0  0  0  0  0  0
  137.3285   70.2497  221.4570 H   0  0  0  0  0  0  0  0  0  0  0  0
  139.3872   72.2262  222.4070 H   0  0  0  0  0  0  0  0  0  0  0  0
  137.6531   72.2272  222.7186 H   0  0  0  0  0  0  0  0  0  0  0  0
  139.4636   71.5052  224.6286 H   0  0  0  0  0  0  0  0  0  0  0  0
  137.8677   70.7297  224.5590 H   0  0  0  0  0  0  0  0  0  0  0  0
  1  2  2  0
  2  3  2  0
  2  4  1  0
  4  5  1  0
  5  6  2  0
  6  7  1  0
  7  8  2  0
  8  9  1  0
  9 10  2  0
  2 11  1  0
 11 12  1  0
 12 13  1  0
 13 14  1  0
 14 15  1  0
 10  5  1  0
 15 11  1  0
  4 16  1  0
  4 17  1  0
  6 18  1  0
  7 19  1  0
  8 20  1  0
  9 21  1  0
 10 22  1  0
 12 23  1  0
 12 24  1  0
 13 25  1  0
 13 26  1  0
 14 27  1  0
 14 28  1  0
 15 29  1  0
 15 30  1  0
M  END
>  <UniqueID>  (36) 
25

>  <SMILES>  (36) 
O=S(=O)(Cc1ccccc1)N1CCCC1

>  <Energy>  (36) 
25.618550219650604

>  <Genealogy>  (36) 
O=S(=O)(Cc1ccccc1)N1CCCC1 (3D coordinates assigned)
O=S(=O)(Cc1ccccc1)N1CCCC1 (nonaromatic ring conformer: 25.618550219650604 kcal/mol)

>  <smiles>  (36) 
O=S(=O)(Cc1ccccc1)N1CCCC1

>  <score_type>  (36) 
oracle

>  <origin>  (36) 
autodockgpu

>  <m_score__min__energy>  (36) 
-5.8799999999999999

>  <m_primary>  (36) 
energy

>  <meeko>  (36) 
{"free_energy": -5.71, "intermolecular_energy": -6.61, "internal_energy": -0.69, "cluster_size": 18, "cluster_id": 1, "rank_in_cluster": 14}

>  <energy>  (36) 
-5.7

>  <cluster_rmsd>  (36) 
1.18

>  <rmsd>  (36) 
273.04

>  <cluster>  (36) 
1

$$$$
GGXXWZKFDBNAQR-UHFFFAOYNA-N
     RDKit          3D

 30 31  0  0  0  0  0  0  0  0999 V2000
  139.5680   67.1190  224.4020 O   0  0  0  0  0  0  0  0  0  0  0  0
  139.2970   67.8760  225.6710 S   0  0  0  0  0  0  0  0  0  0  0  0
  138.5220   66.9810  226.5950 O   0  0  0  0  0  0  0  0  0  0  0  0
  140.8680   68.2440  226.4680 C   0  0  0  0  0  0  0  0  0  0  0  0
  140.9820   69.6890  226.8690 C   0  0  0  0  0  0  0  0  0  0  0  0
  141.7320   70.5830  226.0860 C   0  0  0  0  0  0  0  0  0  0  0  0
  141.8110   71.9330  226.4410 C   0  0  0  0  0  0  0  0  0  0  0  0
  141.1450   72.3990  227.5770 C   0  0  0  0  0  0  0  0  0  0  0  0
  140.4060   71.5140  228.3660 C   0  0  0  0  0  0  0  0  0  0  0  0
  140.3260   70.1630  228.0170 C   0  0  0  0  0  0  0  0  0  0  0  0
  138.2950   69.2660  225.3000 N   0  0  0  0  0  0  0  0  0  0  0  0
  138.9660   70.2690  224.4650 C   0  0  0  0  0  0  0  0  0  0  0  0
  137.9740   70.7290  223.4020 C   0  0  0  0  0  0  0  0  0  0  0  0
  136.6570   70.0740  223.7630 C   0  0  0  0  0  0  0  0  0  0  0  0
  137.0410   68.9010  224.6390 C   0  0  0  0  0  0  0  0  0  0  0  0
  140.9626   67.6189  227.3682 H   0  0  0  0  0  0  0  0  0  0  0  0
  141.6692   68.0321  225.7446 H   0  0  0  0  0  0  0  0  0  0  0  0
  142.2585   70.2196  225.1911 H   0  0  0  0  0  0  0  0  0  0  0  0
  142.3986   72.6293  225.8247 H   0  0  0  0  0  0  0  0  0  0  0  0
  141.2024   73.4629  227.8504 H   0  0  0  0  0  0  0  0  0  0  0  0
  139.8863   71.8811  229.2633 H   0  0  0  0  0  0  0  0  0  0  0  0
  139.7472   69.4684  228.6436 H   0  0  0  0  0  0  0  0  0  0  0  0
  139.2754   71.1245  225.0834 H   0  0  0  0  0  0  0  0  0  0  0  0
  139.8625   69.8396  223.9940 H   0  0  0  0  0  0  0  0  0  0  0  0
  137.8750   71.8244  223.4176 H   0  0  0  0  0  0  0  0  0  0  0  0
  138.3033   70.4501  222.3902 H   0  0  0  0  0  0  0  0  0  0  0  0
  136.0127   70.7752  224.3136 H   0  0  0  0  0  0  0  0  0  0  0  0
  136.0889   69.7623  222.8742 H   0  0  0  0  0  0  0  0  0  0  0  0
  136.2574   68.7141  225.3881 H   0  0  0  0  0  0  0  0  0  0  0  0
  137.1585   67.9832  224.0442 H   0  0  0  0  0  0  0  0  0  0  0  0
  1  2  2  0
  2  3  2  0
  2  4  1  0
  4  5  1  0
  5  6  2  0
  6  7  1  0
  7  8  2  0
  8  9  1  0
  9 10  2  0
  2 11  1  0
 11 12  1  0
 12 13  1  0
 13 14  1  0
 14 15  1  0
 10  5  1  0
 15 11  1  0
  4 16  1  0
  4 17  1  0
  6 18  1  0
  7 19  1  0
  8 20  1  0
  9 21  1  0
 10 22  1  0
 12 23  1  0
 12 24  1  0
 13 25  1  0
 13 26  1  0
 14 27  1  0
 14 28  1  0
 15 29  1  0
 15 30  1  0
M  END
>  <UniqueID>  (37) 
25

>  <SMILES>  (37) 
O=S(=O)(Cc1ccccc1)N1CCCC1

>  <Energy>  (37) 
25.618550219650604

>  <Genealogy>  (37) 
O=S(=O)(Cc1ccccc1)N1CCCC1 (3D coordinates assigned)
O=S(=O)(Cc1ccccc1)N1CCCC1 (nonaromatic ring conformer: 25.618550219650604 kcal/mol)

>  <smiles>  (37) 
O=S(=O)(Cc1ccccc1)N1CCCC1

>  <score_type>  (37) 
oracle

>  <origin>  (37) 
autodockgpu

>  <m_score__min__energy>  (37) 
-5.8799999999999999

>  <m_primary>  (37) 
energy

>  <meeko>  (37) 
{"free_energy": -5.88, "intermolecular_energy": -6.77, "internal_energy": -0.67, "cluster_size": 18, "cluster_id": 1, "rank_in_cluster": 1}

>  <energy>  (37) 
-5.69

>  <cluster_rmsd>  (37) 
0.7

>  <rmsd>  (37) 
273.28

>  <cluster>  (37) 
1

$$$$
GGXXWZKFDBNAQR-UHFFFAOYNA-N
     RDKit          3D

 30 31  0  0  0  0  0  0  0  0999 V2000
  139.5790   67.0210  224.2310 O   0  0  0  0  0  0  0  0  0  0  0  0
  139.3410   68.0420  225.3080 S   0  0  0  0  0  0  0  0  0  0  0  0
  138.8150   67.3300  226.5210 O   0  0  0  0  0  0  0  0  0  0  0  0
  140.9190   68.7800  225.7590 C   0  0  0  0  0  0  0  0  0  0  0  0
  140.7580   69.9600  226.6760 C   0  0  0  0  0  0  0  0  0  0  0  0
  141.4490   71.1560  226.4180 C   0  0  0  0  0  0  0  0  0  0  0  0
  141.2740   72.2650  227.2520 C   0  0  0  0  0  0  0  0  0  0  0  0
  140.4120   72.1870  228.3480 C   0  0  0  0  0  0  0  0  0  0  0  0
  139.7290   70.9980  228.6180 C   0  0  0  0  0  0  0  0  0  0  0  0
  139.9030   69.8860  227.7890 C   0  0  0  0  0  0  0  0  0  0  0  0
  138.1110   69.1660  224.7640 N   0  0  0  0  0  0  0  0  0  0  0  0
  138.6030   70.5370  224.5880 C   0  0  0  0  0  0  0  0  0  0  0  0
  138.0230   71.0770  223.2850 C   0  0  0  0  0  0  0  0  0  0  0  0
  137.0490   70.0210  222.8050 C   0  0  0  0  0  0  0  0  0  0  0  0
  137.4810   68.7540  223.5100 C   0  0  0  0  0  0  0  0  0  0  0  0
  141.5326   68.0202  226.2653 H   0  0  0  0  0  0  0  0  0  0  0  0
  141.3992   69.1357  224.8355 H   0  0  0  0  0  0  0  0  0  0  0  0
  142.1302   71.2203  225.5567 H   0  0  0  0  0  0  0  0  0  0  0  0
  141.8158   73.1995  227.0445 H   0  0  0  0  0  0  0  0  0  0  0  0
  140.2705   73.0621  228.9993 H   0  0  0  0  0  0  0  0  0  0  0  0
  139.0536   70.9371  229.4841 H   0  0  0  0  0  0  0  0  0  0  0  0
  139.3689   68.9498  228.0085 H   0  0  0  0  0  0  0  0  0  0  0  0
  138.2757   71.1631  225.4311 H   0  0  0  0  0  0  0  0  0  0  0  0
  139.7024   70.5491  224.5532 H   0  0  0  0  0  0  0  0  0  0  0  0
  137.5009   72.0289  223.4623 H   0  0  0  0  0  0  0  0  0  0  0  0
  138.8084   71.2751  222.5408 H   0  0  0  0  0  0  0  0  0  0  0  0
  136.0187   70.2880  223.0830 H   0  0  0  0  0  0  0  0  0  0  0  0
  137.0575   69.9127  221.7104 H   0  0  0  0  0  0  0  0  0  0  0  0
  136.6076   68.1176  223.7155 H   0  0  0  0  0  0  0  0  0  0  0  0
  138.1783   68.1730  222.8886 H   0  0  0  0  0  0  0  0  0  0  0  0
  1  2  2  0
  2  3  2  0
  2  4  1  0
  4  5  1  0
  5  6  2  0
  6  7  1  0
  7  8  2  0
  8  9  1  0
  9 10  2  0
  2 11  1  0
 11 12  1  0
 12 13  1  0
 13 14  1  0
 14 15  1  0
 10  5  1  0
 15 11  1  0
  4 16  1  0
  4 17  1  0
  6 18  1  0
  7 19  1  0
  8 20  1  0
  9 21  1  0
 10 22  1  0
 12 23  1  0
 12 24  1  0
 13 25  1  0
 13 26  1  0
 14 27  1  0
 14 28  1  0
 15 29  1  0
 15 30  1  0
M  END
>  <UniqueID>  (38) 
25

>  <SMILES>  (38) 
O=S(=O)(Cc1ccccc1)N1CCCC1

>  <Energy>  (38) 
25.618550219650604

>  <Genealogy>  (38) 
O=S(=O)(Cc1ccccc1)N1CCCC1 (3D coordinates assigned)
O=S(=O)(Cc1ccccc1)N1CCCC1 (nonaromatic ring conformer: 25.618550219650604 kcal/mol)

>  <smiles>  (38) 
O=S(=O)(Cc1ccccc1)N1CCCC1

>  <score_type>  (38) 
oracle

>  <origin>  (38) 
autodockgpu

>  <m_score__min__energy>  (38) 
-5.8799999999999999

>  <m_primary>  (38) 
energy

>  <meeko>  (38) 
{"free_energy": -5.72, "intermolecular_energy": -6.61, "internal_energy": -0.6, "cluster_size": 18, "cluster_id": 1, "rank_in_cluster": 12}

>  <energy>  (38) 
-5.69

>  <cluster_rmsd>  (38) 
1.22

>  <rmsd>  (38) 
273.09

>  <cluster>  (38) 
1

$$$$
GGXXWZKFDBNAQR-UHFFFAOYNA-N
     RDKit          3D

 30 31  0  0  0  0  0  0  0  0999 V2000
  139.5170   67.0190  224.2260 O   0  0  0  0  0  0  0  0  0  0  0  0
  139.2840   67.8860  225.4320 S   0  0  0  0  0  0  0  0  0  0  0  0
  138.6040   67.0540  226.4810 O   0  0  0  0  0  0  0  0  0  0  0  0
  140.8790   68.3920  226.0930 C   0  0  0  0  0  0  0  0  0  0  0  0
  140.8200   69.7370  226.7620 C   0  0  0  0  0  0  0  0  0  0  0  0
  141.5140   70.8300  226.2160 C   0  0  0  0  0  0  0  0  0  0  0  0
  141.4330   72.0890  226.8190 C   0  0  0  0  0  0  0  0  0  0  0  0
  140.6630   72.2640  227.9710 C   0  0  0  0  0  0  0  0  0  0  0  0
  139.9780   71.1810  228.5260 C   0  0  0  0  0  0  0  0  0  0  0  0
  140.0580   69.9200  227.9280 C   0  0  0  0  0  0  0  0  0  0  0  0
  138.2010   69.1910  224.9910 N   0  0  0  0  0  0  0  0  0  0  0  0
  138.8940   70.4070  224.5470 C   0  0  0  0  0  0  0  0  0  0  0  0
  138.1620   70.9390  223.3200 C   0  0  0  0  0  0  0  0  0  0  0  0
  136.9260   70.0750  223.1770 C   0  0  0  0  0  0  0  0  0  0  0  0
  137.2510   68.8120  223.9450 C   0  0  0  0  0  0  0  0  0  0  0  0
  141.2095   67.6449  226.8297 H   0  0  0  0  0  0  0  0  0  0  0  0
  141.5833   68.4660  225.2513 H   0  0  0  0  0  0  0  0  0  0  0  0
  142.1236   70.6947  225.3104 H   0  0  0  0  0  0  0  0  0  0  0  0
  141.9760   72.9420  226.3859 H   0  0  0  0  0  0  0  0  0  0  0  0
  140.5960   73.2560  228.4416 H   0  0  0  0  0  0  0  0  0  0  0  0
  139.3746   71.3204  229.4351 H   0  0  0  0  0  0  0  0  0  0  0  0
  139.5224   69.0679  228.3720 H   0  0  0  0  0  0  0  0  0  0  0  0
  138.8780   71.1605  225.3482 H   0  0  0  0  0  0  0  0  0  0  0  0
  139.9428   70.1837  224.3018 H   0  0  0  0  0  0  0  0  0  0  0  0
  137.8796   71.9918  223.4678 H   0  0  0  0  0  0  0  0  0  0  0  0
  138.7933   70.8988  222.4201 H   0  0  0  0  0  0  0  0  0  0  0  0
  136.0487   70.5778  223.6101 H   0  0  0  0  0  0  0  0  0  0  0  0
  136.6795   69.8710  222.1245 H   0  0  0  0  0  0  0  0  0  0  0  0
  136.3375   68.3957  224.3948 H   0  0  0  0  0  0  0  0  0  0  0  0
  137.6763   68.0436  223.2827 H   0  0  0  0  0  0  0  0  0  0  0  0
  1  2  2  0
  2  3  2  0
  2  4  1  0
  4  5  1  0
  5  6  2  0
  6  7  1  0
  7  8  2  0
  8  9  1  0
  9 10  2  0
  2 11  1  0
 11 12  1  0
 12 13  1  0
 13 14  1  0
 14 15  1  0
 10  5  1  0
 15 11  1  0
  4 16  1  0
  4 17  1  0
  6 18  1  0
  7 19  1  0
  8 20  1  0
  9 21  1  0
 10 22  1  0
 12 23  1  0
 12 24  1  0
 13 25  1  0
 13 26  1  0
 14 27  1  0
 14 28  1  0
 15 29  1  0
 15 30  1  0
M  END
>  <UniqueID>  (39) 
25

>  <SMILES>  (39) 
O=S(=O)(Cc1ccccc1)N1CCCC1

>  <Energy>  (39) 
25.618550219650604

>  <Genealogy>  (39) 
O=S(=O)(Cc1ccccc1)N1CCCC1 (3D coordinates assigned)
O=S(=O)(Cc1ccccc1)N1CCCC1 (nonaromatic ring conformer: 25.618550219650604 kcal/mol)

>  <smiles>  (39) 
O=S(=O)(Cc1ccccc1)N1CCCC1

>  <score_type>  (39) 
oracle

>  <origin>  (39) 
autodockgpu

>  <m_score__min__energy>  (39) 
-5.8799999999999999

>  <m_primary>  (39) 
energy

>  <meeko>  (39) 
{"free_energy": -5.87, "intermolecular_energy": -6.76, "internal_energy": -0.55, "cluster_size": 18, "cluster_id": 1, "rank_in_cluster": 2}

>  <energy>  (39) 
-5.71

>  <cluster_rmsd>  (39) 
0.0

>  <rmsd>  (39) 
272.46

>  <cluster>  (39) 
2

$$$$
GGXXWZKFDBNAQR-UHFFFAOYNA-N
     RDKit          3D

 30 31  0  0  0  0  0  0  0  0999 V2000
  139.2010   67.0250  224.2390 O   0  0  0  0  0  0  0  0  0  0  0  0
  139.1560   68.3870  224.8720 S   0  0  0  0  0  0  0  0  0  0  0  0
  137.7540   68.6340  225.3520 O   0  0  0  0  0  0  0  0  0  0  0  0
  140.2270   68.3860  226.3180 C   0  0  0  0  0  0  0  0  0  0  0  0
  140.5760   69.7750  226.7730 C   0  0  0  0  0  0  0  0  0  0  0  0
  141.4570   70.5670  226.0180 C   0  0  0  0  0  0  0  0  0  0  0  0
  141.7560   71.8720  226.4240 C   0  0  0  0  0  0  0  0  0  0  0  0
  141.1790   72.3920  227.5860 C   0  0  0  0  0  0  0  0  0  0  0  0
  140.3100   71.6080  228.3470 C   0  0  0  0  0  0  0  0  0  0  0  0
  140.0110   70.3020  227.9470 C   0  0  0  0  0  0  0  0  0  0  0  0
  139.5310   69.5910  223.6560 N   0  0  0  0  0  0  0  0  0  0  0  0
  139.0860   69.2240  222.3060 C   0  0  0  0  0  0  0  0  0  0  0  0
  138.4600   70.4590  221.6690 C   0  0  0  0  0  0  0  0  0  0  0  0
  138.7120   71.5910  222.6420 C   0  0  0  0  0  0  0  0  0  0  0  0
  138.9700   70.9060  223.9670 C   0  0  0  0  0  0  0  0  0  0  0  0
  139.7125   67.8643  227.1384 H   0  0  0  0  0  0  0  0  0  0  0  0
  141.1630   67.8783  226.0419 H   0  0  0  0  0  0  0  0  0  0  0  0
  141.9136   70.1595  225.1040 H   0  0  0  0  0  0  0  0  0  0  0  0
  142.4452   72.4889  225.8287 H   0  0  0  0  0  0  0  0  0  0  0  0
  141.4099   73.4202  227.9013 H   0  0  0  0  0  0  0  0  0  0  0  0
  139.8597   72.0184  229.2629 H   0  0  0  0  0  0  0  0  0  0  0  0
  139.3314   69.6850  228.5532 H   0  0  0  0  0  0  0  0  0  0  0  0
  139.9456   68.8891  221.7069 H   0  0  0  0  0  0  0  0  0  0  0  0
  138.3547   68.4037  222.3527 H   0  0  0  0  0  0  0  0  0  0  0  0
  138.9340   70.6731  220.6997 H   0  0  0  0  0  0  0  0  0  0  0  0
  137.3860   70.3182  221.4777 H   0  0  0  0  0  0  0  0  0  0  0  0
  139.5875   72.1809  222.3330 H   0  0  0  0  0  0  0  0  0  0  0  0
  137.8666   72.2929  222.6931 H   0  0  0  0  0  0  0  0  0  0  0  0
  139.6843   71.4917  224.5642 H   0  0  0  0  0  0  0  0  0  0  0  0
  138.0434   70.8134  224.5525 H   0  0  0  0  0  0  0  0  0  0  0  0
  1  2  2  0
  2  3  2  0
  2  4  1  0
  4  5  1  0
  5  6  2  0
  6  7  1  0
  7  8  2  0
  8  9  1  0
  9 10  2  0
  2 11  1  0
 11 12  1  0
 12 13  1  0
 13 14  1  0
 14 15  1  0
 10  5  1  0
 15 11  1  0
  4 16  1  0
  4 17  1  0
  6 18  1  0
  7 19  1  0
  8 20  1  0
  9 21  1  0
 10 22  1  0
 12 23  1  0
 12 24  1  0
 13 25  1  0
 13 26  1  0
 14 27  1  0
 14 28  1  0
 15 29  1  0
 15 30  1  0
M  END
>  <UniqueID>  (40) 
25

>  <SMILES>  (40) 
O=S(=O)(Cc1ccccc1)N1CCCC1

>  <Energy>  (40) 
25.618550219650604

>  <Genealogy>  (40) 
O=S(=O)(Cc1ccccc1)N1CCCC1 (3D coordinates assigned)
O=S(=O)(Cc1ccccc1)N1CCCC1 (nonaromatic ring conformer: 25.618550219650604 kcal/mol)

>  <smiles>  (40) 
O=S(=O)(Cc1ccccc1)N1CCCC1

>  <score_type>  (40) 
oracle

>  <origin>  (40) 
autodockgpu

>  <m_score__min__energy>  (40) 
-5.8799999999999999

>  <m_primary>  (40) 
energy

>  <meeko>  (40) 
{"free_energy": -5.74, "intermolecular_energy": -6.63, "internal_energy": -0.68, "cluster_size": 18, "cluster_id": 1, "rank_in_cluster": 9}

>  <energy>  (40) 
-4.62

>  <cluster_rmsd>  (40) 
0.0

>  <rmsd>  (40) 
274.21

>  <cluster>  (40) 
3

$$$$
GGXXWZKFDBNAQR-UHFFFAOYNA-N
     RDKit          3D

 30 31  0  0  0  0  0  0  0  0999 V2000
  139.5750   67.0110  224.3070 O   0  0  0  0  0  0  0  0  0  0  0  0
  139.3080   67.8330  225.5370 S   0  0  0  0  0  0  0  0  0  0  0  0
  138.4730   67.0110  226.4760 O   0  0  0  0  0  0  0  0  0  0  0  0
  140.8750   68.1640  226.3580 C   0  0  0  0  0  0  0  0  0  0  0  0
  141.0310   69.6120  226.7300 C   0  0  0  0  0  0  0  0  0  0  0  0
  141.4440   70.5490  225.7670 C   0  0  0  0  0  0  0  0  0  0  0  0
  141.5570   71.9010  226.1040 C   0  0  0  0  0  0  0  0  0  0  0  0
  141.2630   72.3260  227.4020 C   0  0  0  0  0  0  0  0  0  0  0  0
  140.8620   71.4000  228.3670 C   0  0  0  0  0  0  0  0  0  0  0  0
  140.7500   70.0460  228.0360 C   0  0  0  0  0  0  0  0  0  0  0  0
  138.3800   69.2480  225.0840 N   0  0  0  0  0  0  0  0  0  0  0  0
  138.8240   69.8670  223.8300 C   0  0  0  0  0  0  0  0  0  0  0  0
  137.5810   70.2260  223.0220 C   0  0  0  0  0  0  0  0  0  0  0  0
  136.4060   69.9400  223.9330 C   0  0  0  0  0  0  0  0  0  0  0  0
  136.9480   68.9720  224.9630 C   0  0  0  0  0  0  0  0  0  0  0  0
  140.9300   67.5561  227.2731 H   0  0  0  0  0  0  0  0  0  0  0  0
  141.6825   67.9086  225.6561 H   0  0  0  0  0  0  0  0  0  0  0  0
  141.6790   70.2173  224.7449 H   0  0  0  0  0  0  0  0  0  0  0  0
  141.8778   72.6311  225.3463 H   0  0  0  0  0  0  0  0  0  0  0  0
  141.3475   73.3910  227.6639 H   0  0  0  0  0  0  0  0  0  0  0  0
  140.6338   71.7361  229.3892 H   0  0  0  0  0  0  0  0  0  0  0  0
  140.4408   69.3184  228.8009 H   0  0  0  0  0  0  0  0  0  0  0  0
  139.4051   70.7756  224.0463 H   0  0  0  0  0  0  0  0  0  0  0  0
  139.4632   69.1733  223.2641 H   0  0  0  0  0  0  0  0  0  0  0  0
  137.5994   71.2895  222.7415 H   0  0  0  0  0  0  0  0  0  0  0  0
  137.5218   69.6478  222.0881 H   0  0  0  0  0  0  0  0  0  0  0  0
  136.0548   70.8641  224.4155 H   0  0  0  0  0  0  0  0  0  0  0  0
  135.5448   69.5284  223.3863 H   0  0  0  0  0  0  0  0  0  0  0  0
  136.4484   69.1282  225.9304 H   0  0  0  0  0  0  0  0  0  0  0  0
  136.7693   67.9297  224.6602 H   0  0  0  0  0  0  0  0  0  0  0  0
  1  2  2  0
  2  3  2  0
  2  4  1  0
  4  5  1  0
  5  6  2  0
  6  7  1  0
  7  8  2  0
  8  9  1  0
  9 10  2  0
  2 11  1  0
 11 12  1  0
 12 13  1  0
 13 14  1  0
 14 15  1  0
 10  5  1  0
 15 11  1  0
  4 16  1  0
  4 17  1  0
  6 18  1  0
  7 19  1  0
  8 20  1  0
  9 21  1  0
 10 22  1  0
 12 23  1  0
 12 24  1  0
 13 25  1  0
 13 26  1  0
 14 27  1  0
 14 28  1  0
 15 29  1  0
 15 30  1  0
M  END
>  <UniqueID>  (41) 
26

>  <SMILES>  (41) 
O=S(=O)(Cc1ccccc1)N1CCCC1

>  <Energy>  (41) 
25.674625338423102

>  <Genealogy>  (41) 
O=S(=O)(Cc1ccccc1)N1CCCC1 (3D coordinates assigned)
O=S(=O)(Cc1ccccc1)N1CCCC1 (nonaromatic ring conformer: 25.674625338423102 kcal/mol)

>  <smiles>  (41) 
O=S(=O)(Cc1ccccc1)N1CCCC1

>  <score_type>  (41) 
oracle

>  <origin>  (41) 
autodockgpu

>  <m_score__min__energy>  (41) 
-5.8799999999999999

>  <m_primary>  (41) 
energy

>  <meeko>  (41) 
{"free_energy": -5.86, "intermolecular_energy": -6.75, "internal_energy": -0.7, "cluster_size": 18, "cluster_id": 1, "rank_in_cluster": 4}

>  <energy>  (41) 
-5.88

>  <cluster_rmsd>  (41) 
0.0

>  <rmsd>  (41) 
273.48

>  <cluster>  (41) 
1

$$$$
GGXXWZKFDBNAQR-UHFFFAOYNA-N
     RDKit          3D

 30 31  0  0  0  0  0  0  0  0999 V2000
  139.5320   67.3860  225.3440 O   0  0  0  0  0  0  0  0  0  0  0  0
  138.8580   68.4770  224.5610 S   0  0  0  0  0  0  0  0  0  0  0  0
  137.6410   68.9170  225.3240 O   0  0  0  0  0  0  0  0  0  0  0  0
  139.9710   69.8870  224.4630 C   0  0  0  0  0  0  0  0  0  0  0  0
  140.2910   70.4590  225.8160 C   0  0  0  0  0  0  0  0  0  0  0  0
  139.8810   69.7900  226.9820 C   0  0  0  0  0  0  0  0  0  0  0  0
  140.2070   70.3050  228.2410 C   0  0  0  0  0  0  0  0  0  0  0  0
  140.9390   71.4900  228.3440 C   0  0  0  0  0  0  0  0  0  0  0  0
  141.3410   72.1660  227.1910 C   0  0  0  0  0  0  0  0  0  0  0  0
  141.0160   71.6570  225.9300 C   0  0  0  0  0  0  0  0  0  0  0  0
  138.3260   67.8270  223.0230 N   0  0  0  0  0  0  0  0  0  0  0  0
  138.6690   68.6750  221.8760 C   0  0  0  0  0  0  0  0  0  0  0  0
  139.1830   67.7680  220.7630 C   0  0  0  0  0  0  0  0  0  0  0  0
  138.9660   66.3530  221.2580 C   0  0  0  0  0  0  0  0  0  0  0  0
  138.8520   66.4870  222.7610 C   0  0  0  0  0  0  0  0  0  0  0  0
  140.9079   69.5651  223.9849 H   0  0  0  0  0  0  0  0  0  0  0  0
  139.4686   70.6711  223.8774 H   0  0  0  0  0  0  0  0  0  0  0  0
  139.3017   68.8581  226.9043 H   0  0  0  0  0  0  0  0  0  0  0  0
  139.8866   69.7762  229.1508 H   0  0  0  0  0  0  0  0  0  0  0  0
  141.1989   71.8909  229.3348 H   0  0  0  0  0  0  0  0  0  0  0  0
  141.9146   73.1009  227.2745 H   0  0  0  0  0  0  0  0  0  0  0  0
  141.3291   72.1964  225.0239 H   0  0  0  0  0  0  0  0  0  0  0  0
  137.7768   69.2194  221.5331 H   0  0  0  0  0  0  0  0  0  0  0  0
  139.4369   69.4104  222.1579 H   0  0  0  0  0  0  0  0  0  0  0  0
  138.6183   67.9410  219.8350 H   0  0  0  0  0  0  0  0  0  0  0  0
  140.2417   67.9620  220.5360 H   0  0  0  0  0  0  0  0  0  0  0  0
  138.0426   65.9310  220.8347 H   0  0  0  0  0  0  0  0  0  0  0  0
  139.7815   65.6775  220.9603 H   0  0  0  0  0  0  0  0  0  0  0  0
  138.1653   65.7253  223.1589 H   0  0  0  0  0  0  0  0  0  0  0  0
  139.8281   66.3421  223.2471 H   0  0  0  0  0  0  0  0  0  0  0  0
  1  2  2  0
  2  3  2  0
  2  4  1  0
  4  5  1  0
  5  6  2  0
  6  7  1  0
  7  8  2  0
  8  9  1  0
  9 10  2  0
  2 11  1  0
 11 12  1  0
 12 13  1  0
 13 14  1  0
 14 15  1  0
 10  5  1  0
 15 11  1  0
  4 16  1  0
  4 17  1  0
  6 18  1  0
  7 19  1  0
  8 20  1  0
  9 21  1  0
 10 22  1  0
 12 23  1  0
 12 24  1  0
 13 25  1  0
 13 26  1  0
 14 27  1  0
 14 28  1  0
 15 29  1  0
 15 30  1  0
M  END
>  <UniqueID>  (42) 
26

>  <SMILES>  (42) 
O=S(=O)(Cc1ccccc1)N1CCCC1

>  <Energy>  (42) 
25.674625338423102

>  <Genealogy>  (42) 
O=S(=O)(Cc1ccccc1)N1CCCC1 (3D coordinates assigned)
O=S(=O)(Cc1ccccc1)N1CCCC1 (nonaromatic ring conformer: 25.674625338423102 kcal/mol)

>  <smiles>  (42) 
O=S(=O)(Cc1ccccc1)N1CCCC1

>  <score_type>  (42) 
oracle

>  <origin>  (42) 
autodockgpu

>  <m_score__min__energy>  (42) 
-5.8799999999999999

>  <m_primary>  (42) 
energy

>  <meeko>  (42) 
{"free_energy": -5.71, "intermolecular_energy": -6.6, "internal_energy": -0.43, "cluster_size": 1, "cluster_id": 2, "rank_in_cluster": 1}

>  <energy>  (42) 
-5.87

>  <cluster_rmsd>  (42) 
0.43

>  <rmsd>  (42) 
273.34

>  <cluster>  (42) 
1

$$$$
GGXXWZKFDBNAQR-UHFFFAOYNA-N
     RDKit          3D

 30 31  0  0  0  0  0  0  0  0999 V2000
  139.2010   67.0330  224.1680 O   0  0  0  0  0  0  0  0  0  0  0  0
  139.1230   68.3710  224.8480 S   0  0  0  0  0  0  0  0  0  0  0  0
  137.7210   68.5560  225.3550 O   0  0  0  0  0  0  0  0  0  0  0  0
  140.2150   68.3540  226.2780 C   0  0  0  0  0  0  0  0  0  0  0  0
  140.5610   69.7380  226.7510 C   0  0  0  0  0  0  0  0  0  0  0  0
  141.4290   70.5470  225.9980 C   0  0  0  0  0  0  0  0  0  0  0  0
  141.7240   71.8470  226.4200 C   0  0  0  0  0  0  0  0  0  0  0  0
  141.1590   72.3460  227.5960 C   0  0  0  0  0  0  0  0  0  0  0  0
  140.3030   71.5450  228.3550 C   0  0  0  0  0  0  0  0  0  0  0  0
  140.0070   70.2440  227.9380 C   0  0  0  0  0  0  0  0  0  0  0  0
  139.4420   69.6270  223.6690 N   0  0  0  0  0  0  0  0  0  0  0  0
  139.0190   69.2780  222.3080 C   0  0  0  0  0  0  0  0  0  0  0  0
  138.3350   70.5000  221.7040 C   0  0  0  0  0  0  0  0  0  0  0  0
  138.5280   71.6140  222.7120 C   0  0  0  0  0  0  0  0  0  0  0  0
  138.8170   70.9040  224.0170 C   0  0  0  0  0  0  0  0  0  0  0  0
  139.7162   67.8151  227.0970 H   0  0  0  0  0  0  0  0  0  0  0  0
  141.1503   67.8578  225.9799 H   0  0  0  0  0  0  0  0  0  0  0  0
  141.8781   70.1560  225.0731 H   0  0  0  0  0  0  0  0  0  0  0  0
  142.4016   72.4773  225.8254 H   0  0  0  0  0  0  0  0  0  0  0  0
  141.3884   73.3704  227.9244 H   0  0  0  0  0  0  0  0  0  0  0  0
  139.8610   71.9384  229.2823 H   0  0  0  0  0  0  0  0  0  0  0  0
  139.3375   69.6141  228.5421 H   0  0  0  0  0  0  0  0  0  0  0  0
  139.8954   69.0026  221.7029 H   0  0  0  0  0  0  0  0  0  0  0  0
  138.3283   68.4221  222.3281 H   0  0  0  0  0  0  0  0  0  0  0  0
  138.8014   70.7658  220.7439 H   0  0  0  0  0  0  0  0  0  0  0  0
  137.2699   70.3127  221.5030 H   0  0  0  0  0  0  0  0  0  0  0  0
  139.3735   72.2559  222.4239 H   0  0  0  0  0  0  0  0  0  0  0  0
  137.6481   72.2706  222.7809 H   0  0  0  0  0  0  0  0  0  0  0  0
  139.5011   71.5059  224.6331 H   0  0  0  0  0  0  0  0  0  0  0  0
  137.8952   70.7494  224.5970 H   0  0  0  0  0  0  0  0  0  0  0  0
  1  2  2  0
  2  3  2  0
  2  4  1  0
  4  5  1  0
  5  6  2  0
  6  7  1  0
  7  8  2  0
  8  9  1  0
  9 10  2  0
  2 11  1  0
 11 12  1  0
 12 13  1  0
 13 14  1  0
 14 15  1  0
 10  5  1  0
 15 11  1  0
  4 16  1  0
  4 17  1  0
  6 18  1  0
  7 19  1  0
  8 20  1  0
  9 21  1  0
 10 22  1  0
 12 23  1  0
 12 24  1  0
 13 25  1  0
 13 26  1  0
 14 27  1  0
 14 28  1  0
 15 29  1  0
 15 30  1  0
M  END
>  <UniqueID>  (43) 
26

>  <SMILES>  (43) 
O=S(=O)(Cc1ccccc1)N1CCCC1

>  <Energy>  (43) 
25.674625338423102

>  <Genealogy>  (43) 
O=S(=O)(Cc1ccccc1)N1CCCC1 (3D coordinates assigned)
O=S(=O)(Cc1ccccc1)N1CCCC1 (nonaromatic ring conformer: 25.674625338423102 kcal/mol)

>  <smiles>  (43) 
O=S(=O)(Cc1ccccc1)N1CCCC1

>  <score_type>  (43) 
oracle

>  <origin>  (43) 
autodockgpu

>  <m_score__min__energy>  (43) 
-5.8799999999999999

>  <m_primary>  (43) 
energy

>  <meeko>  (43) 
{"free_energy": -5.71, "intermolecular_energy": -6.6, "internal_energy": -0.69, "cluster_size": 18, "cluster_id": 1, "rank_in_cluster": 15}

>  <energy>  (43) 
-5.87

>  <cluster_rmsd>  (43) 
0.11

>  <rmsd>  (43) 
273.39

>  <cluster>  (43) 
1

$$$$
GGXXWZKFDBNAQR-UHFFFAOYNA-N
     RDKit          3D

 30 31  0  0  0  0  0  0  0  0999 V2000
  139.2250   67.0770  224.4390 O   0  0  0  0  0  0  0  0  0  0  0  0
  139.1260   68.4550  225.0320 S   0  0  0  0  0  0  0  0  0  0  0  0
  137.6920   68.7030  225.4020 O   0  0  0  0  0  0  0  0  0  0  0  0
  140.0900   68.4980  226.5510 C   0  0  0  0  0  0  0  0  0  0  0  0
  140.5100   69.8920  226.9230 C   0  0  0  0  0  0  0  0  0  0  0  0
  141.4460   70.5840  226.1360 C   0  0  0  0  0  0  0  0  0  0  0  0
  141.8120   71.8930  226.4630 C   0  0  0  0  0  0  0  0  0  0  0  0
  141.2480   72.5190  227.5770 C   0  0  0  0  0  0  0  0  0  0  0  0
  140.3240   71.8360  228.3710 C   0  0  0  0  0  0  0  0  0  0  0  0
  139.9580   70.5260  228.0500 C   0  0  0  0  0  0  0  0  0  0  0  0
  139.5820   69.6310  223.8150 N   0  0  0  0  0  0  0  0  0  0  0  0
  139.1920   69.2490  222.4530 C   0  0  0  0  0  0  0  0  0  0  0  0
  138.6210   70.4860  221.7680 C   0  0  0  0  0  0  0  0  0  0  0  0
  138.8510   71.6290  222.7330 C   0  0  0  0  0  0  0  0  0  0  0  0
  139.0350   70.9620  224.0790 C   0  0  0  0  0  0  0  0  0  0  0  0
  139.4813   68.0825  227.3677 H   0  0  0  0  0  0  0  0  0  0  0  0
  141.0020   67.9053  226.3866 H   0  0  0  0  0  0  0  0  0  0  0  0
  141.8928   70.0935  225.2586 H   0  0  0  0  0  0  0  0  0  0  0  0
  142.5445   72.4302  225.8427 H   0  0  0  0  0  0  0  0  0  0  0  0
  141.5320   73.5513  227.8293 H   0  0  0  0  0  0  0  0  0  0  0  0
  139.8839   72.3297  229.2500 H   0  0  0  0  0  0  0  0  0  0  0  0
  139.2352   69.9888  228.6816 H   0  0  0  0  0  0  0  0  0  0  0  0
  140.0710   68.8869  221.8996 H   0  0  0  0  0  0  0  0  0  0  0  0
  138.4431   68.4438  222.4791 H   0  0  0  0  0  0  0  0  0  0  0  0
  139.1432   70.6744  220.8184 H   0  0  0  0  0  0  0  0  0  0  0  0
  137.5541   70.3631  221.5298 H   0  0  0  0  0  0  0  0  0  0  0  0
  139.7511   72.1968  222.4548 H   0  0  0  0  0  0  0  0  0  0  0  0
  138.0181   72.3476  222.7342 H   0  0  0  0  0  0  0  0  0  0  0  0
  139.7338   71.5435  224.6983 H   0  0  0  0  0  0  0  0  0  0  0  0
  138.0814   70.8980  224.6235 H   0  0  0  0  0  0  0  0  0  0  0  0
  1  2  2  0
  2  3  2  0
  2  4  1  0
  4  5  1  0
  5  6  2  0
  6  7  1  0
  7  8  2  0
  8  9  1  0
  9 10  2  0
  2 11  1  0
 11 12  1  0
 12 13  1  0
 13 14  1  0
 14 15  1  0
 10  5  1  0
 15 11  1  0
  4 16  1  0
  4 17  1  0
  6 18  1  0
  7 19  1  0
  8 20  1  0
  9 21  1  0
 10 22  1  0
 12 23  1  0
 12 24  1  0
 13 25  1  0
 13 26  1  0
 14 27  1  0
 14 28  1  0
 15 29  1  0
 15 30  1  0
M  END
>  <UniqueID>  (44) 
26

>  <SMILES>  (44) 
O=S(=O)(Cc1ccccc1)N1CCCC1

>  <Energy>  (44) 
25.674625338423102

>  <Genealogy>  (44) 
O=S(=O)(Cc1ccccc1)N1CCCC1 (3D coordinates assigned)
O=S(=O)(Cc1ccccc1)N1CCCC1 (nonaromatic ring conformer: 25.674625338423102 kcal/mol)

>  <smiles>  (44) 
O=S(=O)(Cc1ccccc1)N1CCCC1

>  <score_type>  (44) 
oracle

>  <origin>  (44) 
autodockgpu

>  <m_score__min__energy>  (44) 
-5.8799999999999999

>  <m_primary>  (44) 
energy

>  <meeko>  (44) 
{"free_energy": -5.76, "intermolecular_energy": -6.66, "internal_energy": -0.67, "cluster_size": 18, "cluster_id": 1, "rank_in_cluster": 7}

>  <energy>  (44) 
-5.86

>  <cluster_rmsd>  (44) 
0.4

>  <rmsd>  (44) 
273.32

>  <cluster>  (44) 
1

$$$$
GGXXWZKFDBNAQR-UHFFFAOYNA-N
     RDKit          3D

 30 31  0  0  0  0  0  0  0  0999 V2000
  139.1970   67.0000  224.1430 O   0  0  0  0  0  0  0  0  0  0  0  0
  139.1350   68.3450  224.8110 S   0  0  0  0  0  0  0  0  0  0  0  0
  137.7460   68.5370  225.3500 O   0  0  0  0  0  0  0  0  0  0  0  0
  140.2620   68.3430  226.2130 C   0  0  0  0  0  0  0  0  0  0  0  0
  140.5600   69.7310  226.7090 C   0  0  0  0  0  0  0  0  0  0  0  0
  141.4050   70.5790  225.9740 C   0  0  0  0  0  0  0  0  0  0  0  0
  141.6560   71.8810  226.4180 C   0  0  0  0  0  0  0  0  0  0  0  0
  141.0690   72.3430  227.5980 C   0  0  0  0  0  0  0  0  0  0  0  0
  140.2360   71.5030  228.3400 C   0  0  0  0  0  0  0  0  0  0  0  0
  139.9840   70.2000  227.9020 C   0  0  0  0  0  0  0  0  0  0  0  0
  139.4250   69.5890  223.6110 N   0  0  0  0  0  0  0  0  0  0  0  0
  138.9490   69.2340  222.2680 C   0  0  0  0  0  0  0  0  0  0  0  0
  138.2570   70.4590  221.6800 C   0  0  0  0  0  0  0  0  0  0  0  0
  138.5000   71.5780  222.6710 C   0  0  0  0  0  0  0  0  0  0  0  0
  138.8280   70.8750  223.9700 C   0  0  0  0  0  0  0  0  0  0  0  0
  139.8074   67.7652  227.0312 H   0  0  0  0  0  0  0  0  0  0  0  0
  141.2098   67.8938  225.8816 H   0  0  0  0  0  0  0  0  0  0  0  0
  141.8711   70.2174  225.0455 H   0  0  0  0  0  0  0  0  0  0  0  0
  142.3164   72.5419  225.8374 H   0  0  0  0  0  0  0  0  0  0  0  0
  141.2630   73.3693  227.9432 H   0  0  0  0  0  0  0  0  0  0  0  0
  139.7773   71.8676  229.2710 H   0  0  0  0  0  0  0  0  0  0  0  0
  139.3326   69.5393  228.4930 H   0  0  0  0  0  0  0  0  0  0  0  0
  139.7998   68.9444  221.6338 H   0  0  0  0  0  0  0  0  0  0  0  0
  138.2505   68.3858  222.3196 H   0  0  0  0  0  0  0  0  0  0  0  0
  138.6903   70.7120  220.7011 H   0  0  0  0  0  0  0  0  0  0  0  0
  137.1831   70.2826  221.5201 H   0  0  0  0  0  0  0  0  0  0  0  0
  139.3420   72.2073  222.3470 H   0  0  0  0  0  0  0  0  0  0  0  0
  137.6311   72.2457  222.7666 H   0  0  0  0  0  0  0  0  0  0  0  0
  139.5408   71.4738  224.5560 H   0  0  0  0  0  0  0  0  0  0  0  0
  137.9260   70.7356  224.5839 H   0  0  0  0  0  0  0  0  0  0  0  0
  1  2  2  0
  2  3  2  0
  2  4  1  0
  4  5  1  0
  5  6  2  0
  6  7  1  0
  7  8  2  0
  8  9  1  0
  9 10  2  0
  2 11  1  0
 11 12  1  0
 12 13  1  0
 13 14  1  0
 14 15  1  0
 10  5  1  0
 15 11  1  0
  4 16  1  0
  4 17  1  0
  6 18  1  0
  7 19  1  0
  8 20  1  0
  9 21  1  0
 10 22  1  0
 12 23  1  0
 12 24  1  0
 13 25  1  0
 13 26  1  0
 14 27  1  0
 14 28  1  0
 15 29  1  0
 15 30  1  0
M  END
>  <UniqueID>  (45) 
26

>  <SMILES>  (45) 
O=S(=O)(Cc1ccccc1)N1CCCC1

>  <Energy>  (45) 
25.674625338423102

>  <Genealogy>  (45) 
O=S(=O)(Cc1ccccc1)N1CCCC1 (3D coordinates assigned)
O=S(=O)(Cc1ccccc1)N1CCCC1 (nonaromatic ring conformer: 25.674625338423102 kcal/mol)

>  <smiles>  (45) 
O=S(=O)(Cc1ccccc1)N1CCCC1

>  <score_type>  (45) 
oracle

>  <origin>  (45) 
autodockgpu

>  <m_score__min__energy>  (45) 
-5.8799999999999999

>  <m_primary>  (45) 
energy

>  <meeko>  (45) 
{"free_energy": -5.7, "intermolecular_energy": -6.59, "internal_energy": -0.69, "cluster_size": 18, "cluster_id": 1, "rank_in_cluster": 16}

>  <energy>  (45) 
-5.85

>  <cluster_rmsd>  (45) 
0.2

>  <rmsd>  (45) 
273.35

>  <cluster>  (45) 
1

$$$$
GGXXWZKFDBNAQR-UHFFFAOYNA-N
     RDKit          3D

 30 31  0  0  0  0  0  0  0  0999 V2000
  139.2980   67.0440  224.4130 O   0  0  0  0  0  0  0  0  0  0  0  0
  139.0910   68.4050  225.0160 S   0  0  0  0  0  0  0  0  0  0  0  0
  137.6330   68.5540  225.3460 O   0  0  0  0  0  0  0  0  0  0  0  0
  140.0050   68.4930  226.5640 C   0  0  0  0  0  0  0  0  0  0  0  0
  140.4320   69.8950  226.8980 C   0  0  0  0  0  0  0  0  0  0  0  0
  139.9450   70.5260  228.0550 C   0  0  0  0  0  0  0  0  0  0  0  0
  140.3680   71.8180  228.3830 C   0  0  0  0  0  0  0  0  0  0  0  0
  141.2750   72.4880  227.5590 C   0  0  0  0  0  0  0  0  0  0  0  0
  141.7560   71.8720  226.4010 C   0  0  0  0  0  0  0  0  0  0  0  0
  141.3340   70.5820  226.0680 C   0  0  0  0  0  0  0  0  0  0  0  0
  139.5040   69.6230  223.8260 N   0  0  0  0  0  0  0  0  0  0  0  0
  139.1930   69.2280  222.4470 C   0  0  0  0  0  0  0  0  0  0  0  0
  138.5590   70.4260  221.7500 C   0  0  0  0  0  0  0  0  0  0  0  0
  138.6690   71.5740  222.7320 C   0  0  0  0  0  0  0  0  0  0  0  0
  138.8510   70.9080  224.0790 C   0  0  0  0  0  0  0  0  0  0  0  0
  139.3640   68.1163  227.3747 H   0  0  0  0  0  0  0  0  0  0  0  0
  140.9136   67.8831  226.4523 H   0  0  0  0  0  0  0  0  0  0  0  0
  139.2287   70.0021  228.7049 H   0  0  0  0  0  0  0  0  0  0  0  0
  139.9859   72.3071  229.2911 H   0  0  0  0  0  0  0  0  0  0  0  0
  141.6110   73.5018  227.8221 H   0  0  0  0  0  0  0  0  0  0  0  0
  142.4673   72.4026  225.7510 H   0  0  0  0  0  0  0  0  0  0  0  0
  141.7096   70.1023  225.1521 H   0  0  0  0  0  0  0  0  0  0  0  0
  140.1159   68.9364  221.9243 H   0  0  0  0  0  0  0  0  0  0  0  0
  138.5039   68.3706  222.4394 H   0  0  0  0  0  0  0  0  0  0  0  0
  139.1008   70.6613  220.8220 H   0  0  0  0  0  0  0  0  0  0  0  0
  137.5136   70.2281  221.4708 H   0  0  0  0  0  0  0  0  0  0  0  0
  139.5350   72.2084  222.4923 H   0  0  0  0  0  0  0  0  0  0  0  0
  137.7867   72.2304  222.7070 H   0  0  0  0  0  0  0  0  0  0  0  0
  139.4815   71.5325  224.7290 H   0  0  0  0  0  0  0  0  0  0  0  0
  137.8848   70.7686  224.5861 H   0  0  0  0  0  0  0  0  0  0  0  0
  1  2  2  0
  2  3  2  0
  2  4  1  0
  4  5  1  0
  5  6  2  0
  6  7  1  0
  7  8  2  0
  8  9  1  0
  9 10  2  0
  2 11  1  0
 11 12  1  0
 12 13  1  0
 13 14  1  0
 14 15  1  0
 10  5  1  0
 15 11  1  0
  4 16  1  0
  4 17  1  0
  6 18  1  0
  7 19  1  0
  8 20  1  0
  9 21  1  0
 10 22  1  0
 12 23  1  0
 12 24  1  0
 13 25  1  0
 13 26  1  0
 14 27  1  0
 14 28  1  0
 15 29  1  0
 15 30  1  0
M  END
>  <UniqueID>  (46) 
26

>  <SMILES>  (46) 
O=S(=O)(Cc1ccccc1)N1CCCC1

>  <Energy>  (46) 
25.674625338423102

>  <Genealogy>  (46) 
O=S(=O)(Cc1ccccc1)N1CCCC1 (3D coordinates assigned)
O=S(=O)(Cc1ccccc1)N1CCCC1 (nonaromatic ring conformer: 25.674625338423102 kcal/mol)

>  <smiles>  (46) 
O=S(=O)(Cc1ccccc1)N1CCCC1

>  <score_type>  (46) 
oracle

>  <origin>  (46) 
autodockgpu

>  <m_score__min__energy>  (46) 
-5.8799999999999999

>  <m_primary>  (46) 
energy

>  <meeko>  (46) 
{"free_energy": -5.71, "intermolecular_energy": -6.61, "internal_energy": -0.65, "cluster_size": 18, "cluster_id": 1, "rank_in_cluster": 13}

>  <energy>  (46) 
-5.81

>  <cluster_rmsd>  (46) 
0.14

>  <rmsd>  (46) 
273.37

>  <cluster>  (46) 
1

$$$$
GGXXWZKFDBNAQR-UHFFFAOYNA-N
     RDKit          3D

 30 31  0  0  0  0  0  0  0  0999 V2000
  139.5060   67.1240  224.3030 O   0  0  0  0  0  0  0  0  0  0  0  0
  139.2430   67.8940  225.5670 S   0  0  0  0  0  0  0  0  0  0  0  0
  138.4530   67.0160  226.4950 O   0  0  0  0  0  0  0  0  0  0  0  0
  140.8170   68.2430  226.3660 C   0  0  0  0  0  0  0  0  0  0  0  0
  140.9290   69.6740  226.8100 C   0  0  0  0  0  0  0  0  0  0  0  0
  141.6680   70.5960  226.0480 C   0  0  0  0  0  0  0  0  0  0  0  0
  141.7450   71.9350  226.4430 C   0  0  0  0  0  0  0  0  0  0  0  0
  141.0880   72.3620  227.6000 C   0  0  0  0  0  0  0  0  0  0  0  0
  140.3600   71.4510  228.3670 C   0  0  0  0  0  0  0  0  0  0  0  0
  140.2820   70.1100  227.9780 C   0  0  0  0  0  0  0  0  0  0  0  0
  138.2640   69.2960  225.1850 N   0  0  0  0  0  0  0  0  0  0  0  0
  138.9390   70.2650  224.3140 C   0  0  0  0  0  0  0  0  0  0  0  0
  137.9360   70.7240  223.2610 C   0  0  0  0  0  0  0  0  0  0  0  0
  136.6130   70.1050  223.6620 C   0  0  0  0  0  0  0  0  0  0  0  0
  136.9900   68.9440  224.5570 C   0  0  0  0  0  0  0  0  0  0  0  0
  140.9186   67.5910  227.2461 H   0  0  0  0  0  0  0  0  0  0  0  0
  141.6145   68.0562  225.6318 H   0  0  0  0  0  0  0  0  0  0  0  0
  142.1876   70.2626  225.1376 H   0  0  0  0  0  0  0  0  0  0  0  0
  142.3231   72.6528  225.8426 H   0  0  0  0  0  0  0  0  0  0  0  0
  141.1446   73.4169  227.9066 H   0  0  0  0  0  0  0  0  0  0  0  0
  139.8465   71.7886  229.2794 H   0  0  0  0  0  0  0  0  0  0  0  0
  139.7121   69.3943  228.5887 H   0  0  0  0  0  0  0  0  0  0  0  0
  139.2799   71.1267  224.9066 H   0  0  0  0  0  0  0  0  0  0  0  0
  139.8156   69.8049  223.8345 H   0  0  0  0  0  0  0  0  0  0  0  0
  137.8605   71.8214  223.2551 H   0  0  0  0  0  0  0  0  0  0  0  0
  138.2390   70.4172  222.2490 H   0  0  0  0  0  0  0  0  0  0  0  0
  135.9942   70.8317  224.2087 H   0  0  0  0  0  0  0  0  0  0  0  0
  136.0212   69.7855  222.7915 H   0  0  0  0  0  0  0  0  0  0  0  0
  136.2178   68.7908  225.3253 H   0  0  0  0  0  0  0  0  0  0  0  0
  137.0765   68.0110  223.9808 H   0  0  0  0  0  0  0  0  0  0  0  0
  1  2  2  0
  2  3  2  0
  2  4  1  0
  4  5  1  0
  5  6  2  0
  6  7  1  0
  7  8  2  0
  8  9  1  0
  9 10  2  0
  2 11  1  0
 11 12  1  0
 12 13  1  0
 13 14  1  0
 14 15  1  0
 10  5  1  0
 15 11  1  0
  4 16  1  0
  4 17  1  0
  6 18  1  0
  7 19  1  0
  8 20  1  0
  9 21  1  0
 10 22  1  0
 12 23  1  0
 12 24  1  0
 13 25  1  0
 13 26  1  0
 14 27  1  0
 14 28  1  0
 15 29  1  0
 15 30  1  0
M  END
>  <UniqueID>  (47) 
26

>  <SMILES>  (47) 
O=S(=O)(Cc1ccccc1)N1CCCC1

>  <Energy>  (47) 
25.674625338423102

>  <Genealogy>  (47) 
O=S(=O)(Cc1ccccc1)N1CCCC1 (3D coordinates assigned)
O=S(=O)(Cc1ccccc1)N1CCCC1 (nonaromatic ring conformer: 25.674625338423102 kcal/mol)

>  <smiles>  (47) 
O=S(=O)(Cc1ccccc1)N1CCCC1

>  <score_type>  (47) 
oracle

>  <origin>  (47) 
autodockgpu

>  <m_score__min__energy>  (47) 
-5.8799999999999999

>  <m_primary>  (47) 
energy

>  <meeko>  (47) 
{"free_energy": -5.87, "intermolecular_energy": -6.76, "internal_energy": -0.68, "cluster_size": 18, "cluster_id": 1, "rank_in_cluster": 3}

>  <energy>  (47) 
-5.76

>  <cluster_rmsd>  (47) 
1.21

>  <rmsd>  (47) 
273.24

>  <cluster>  (47) 
1

$$$$
GGXXWZKFDBNAQR-UHFFFAOYNA-N
     RDKit          3D

 30 31  0  0  0  0  0  0  0  0999 V2000
  139.5610   67.0460  224.2860 O   0  0  0  0  0  0  0  0  0  0  0  0
  139.2760   67.8630  225.5150 S   0  0  0  0  0  0  0  0  0  0  0  0
  138.4560   67.0250  226.4540 O   0  0  0  0  0  0  0  0  0  0  0  0
  140.8350   68.2270  226.3380 C   0  0  0  0  0  0  0  0  0  0  0  0
  140.9370   69.6660  226.7590 C   0  0  0  0  0  0  0  0  0  0  0  0
  140.3180   70.1020  227.9430 C   0  0  0  0  0  0  0  0  0  0  0  0
  140.4410   71.4340  228.3520 C   0  0  0  0  0  0  0  0  0  0  0  0
  141.1780   72.3370  227.5820 C   0  0  0  0  0  0  0  0  0  0  0  0
  141.7870   71.9140  226.3990 C   0  0  0  0  0  0  0  0  0  0  0  0
  141.6650   70.5850  225.9840 C   0  0  0  0  0  0  0  0  0  0  0  0
  138.3190   69.2580  225.0590 N   0  0  0  0  0  0  0  0  0  0  0  0
  139.0500   70.2310  224.2400 C   0  0  0  0  0  0  0  0  0  0  0  0
  138.1250   70.6830  223.1150 C   0  0  0  0  0  0  0  0  0  0  0  0
  136.7800   70.0560  223.4180 C   0  0  0  0  0  0  0  0  0  0  0  0
  137.0970   68.8980  224.3400 C   0  0  0  0  0  0  0  0  0  0  0  0
  140.9203   67.5905  227.2311 H   0  0  0  0  0  0  0  0  0  0  0  0
  141.6468   68.0279  225.6229 H   0  0  0  0  0  0  0  0  0  0  0  0
  139.7350   69.3936  228.5499 H   0  0  0  0  0  0  0  0  0  0  0  0
  139.9570   71.7707  229.2807 H   0  0  0  0  0  0  0  0  0  0  0  0
  141.2786   73.3827  227.9082 H   0  0  0  0  0  0  0  0  0  0  0  0
  142.3638   72.6279  225.7926 H   0  0  0  0  0  0  0  0  0  0  0  0
  142.1403   70.2572  225.0477 H   0  0  0  0  0  0  0  0  0  0  0  0
  139.3402   71.0952  224.8557 H   0  0  0  0  0  0  0  0  0  0  0  0
  139.9628   69.7766  223.8273 H   0  0  0  0  0  0  0  0  0  0  0  0
  138.0433   71.7799  223.1022 H   0  0  0  0  0  0  0  0  0  0  0  0
  138.5039   70.3775  222.1285 H   0  0  0  0  0  0  0  0  0  0  0  0
  136.1180   70.7793  223.9166 H   0  0  0  0  0  0  0  0  0  0  0  0
  136.2562   69.7320  222.5066 H   0  0  0  0  0  0  0  0  0  0  0  0
  136.2714   68.7411  225.0497 H   0  0  0  0  0  0  0  0  0  0  0  0
  137.2309   67.9649  223.7730 H   0  0  0  0  0  0  0  0  0  0  0  0
  1  2  2  0
  2  3  2  0
  2  4  1  0
  4  5  1  0
  5  6  2  0
  6  7  1  0
  7  8  2  0
  8  9  1  0
  9 10  2  0
  2 11  1  0
 11 12  1  0
 12 13  1  0
 13 14  1  0
 14 15  1  0
 10  5  1  0
 15 11  1  0
  4 16  1  0
  4 17  1  0
  6 18  1  0
  7 19  1  0
  8 20  1  0
  9 21  1  0
 10 22  1  0
 12 23  1  0
 12 24  1  0
 13 25  1  0
 13 26  1  0
 14 27  1  0
 14 28  1  0
 15 29  1  0
 15 30  1  0
M  END
>  <UniqueID>  (48) 
26

>  <SMILES>  (48) 
O=S(=O)(Cc1ccccc1)N1CCCC1

>  <Energy>  (48) 
25.674625338423102

>  <Genealogy>  (48) 
O=S(=O)(Cc1ccccc1)N1CCCC1 (3D coordinates assigned)
O=S(=O)(Cc1ccccc1)N1CCCC1 (nonaromatic ring conformer: 25.674625338423102 kcal/mol)

>  <smiles>  (48) 
O=S(=O)(Cc1ccccc1)N1CCCC1

>  <score_type>  (48) 
oracle

>  <origin>  (48) 
autodockgpu

>  <m_score__min__energy>  (48) 
-5.8799999999999999

>  <m_primary>  (48) 
energy

>  <meeko>  (48) 
{"free_energy": -5.85, "intermolecular_energy": -6.75, "internal_energy": -0.64, "cluster_size": 18, "cluster_id": 1, "rank_in_cluster": 5}

>  <energy>  (48) 
-5.76

>  <cluster_rmsd>  (48) 
1.2

>  <rmsd>  (48) 
273.21

>  <cluster>  (48) 
1

$$$$
GGXXWZKFDBNAQR-UHFFFAOYNA-N
     RDKit          3D

 30 31  0  0  0  0  0  0  0  0999 V2000
  139.2880   67.0640  224.3780 O   0  0  0  0  0  0  0  0  0  0  0  0
  139.1460   68.4290  224.9910 S   0  0  0  0  0  0  0  0  0  0  0  0
  137.7010   68.6340  225.3480 O   0  0  0  0  0  0  0  0  0  0  0  0
  140.0910   68.4740  226.5220 C   0  0  0  0  0  0  0  0  0  0  0  0
  140.5030   69.8690  226.8990 C   0  0  0  0  0  0  0  0  0  0  0  0
  141.4280   70.5720  226.1080 C   0  0  0  0  0  0  0  0  0  0  0  0
  141.7870   71.8820  226.4410 C   0  0  0  0  0  0  0  0  0  0  0  0
  141.2290   72.4970  227.5640 C   0  0  0  0  0  0  0  0  0  0  0  0
  140.3170   71.8010  228.3610 C   0  0  0  0  0  0  0  0  0  0  0  0
  139.9570   70.4910  228.0350 C   0  0  0  0  0  0  0  0  0  0  0  0
  139.5850   69.6360  223.7980 N   0  0  0  0  0  0  0  0  0  0  0  0
  139.2160   69.2680  222.4260 C   0  0  0  0  0  0  0  0  0  0  0  0
  138.6220   70.5020  221.7560 C   0  0  0  0  0  0  0  0  0  0  0  0
  138.8160   71.6340  222.7420 C   0  0  0  0  0  0  0  0  0  0  0  0
  139.0030   70.9490  224.0790 C   0  0  0  0  0  0  0  0  0  0  0  0
  139.4732   68.0571  227.3310 H   0  0  0  0  0  0  0  0  0  0  0  0
  141.0063   67.8833  226.3691 H   0  0  0  0  0  0  0  0  0  0  0  0
  141.8711   70.0901  225.2240 H   0  0  0  0  0  0  0  0  0  0  0  0
  142.5098   72.4288  225.8176 H   0  0  0  0  0  0  0  0  0  0  0  0
  141.5077   73.5296  227.8209 H   0  0  0  0  0  0  0  0  0  0  0  0
  139.8813   72.2854  229.2473 H   0  0  0  0  0  0  0  0  0  0  0  0
  139.2438   69.9445  228.6696 H   0  0  0  0  0  0  0  0  0  0  0  0
  140.1082   68.9360  221.8749 H   0  0  0  0  0  0  0  0  0  0  0  0
  138.4859   68.4453  222.4321 H   0  0  0  0  0  0  0  0  0  0  0  0
  139.1481   70.7185  220.8146 H   0  0  0  0  0  0  0  0  0  0  0  0
  137.5606   70.3579  221.5056 H   0  0  0  0  0  0  0  0  0  0  0  0
  139.7051   72.2272  222.4820 H   0  0  0  0  0  0  0  0  0  0  0  0
  137.9665   72.3328  222.7468 H   0  0  0  0  0  0  0  0  0  0  0  0
  139.6814   71.5367  224.7150 H   0  0  0  0  0  0  0  0  0  0  0  0
  138.0461   70.8528  224.6129 H   0  0  0  0  0  0  0  0  0  0  0  0
  1  2  2  0
  2  3  2  0
  2  4  1  0
  4  5  1  0
  5  6  2  0
  6  7  1  0
  7  8  2  0
  8  9  1  0
  9 10  2  0
  2 11  1  0
 11 12  1  0
 12 13  1  0
 13 14  1  0
 14 15  1  0
 10  5  1  0
 15 11  1  0
  4 16  1  0
  4 17  1  0
  6 18  1  0
  7 19  1  0
  8 20  1  0
  9 21  1  0
 10 22  1  0
 12 23  1  0
 12 24  1  0
 13 25  1  0
 13 26  1  0
 14 27  1  0
 14 28  1  0
 15 29  1  0
 15 30  1  0
M  END
>  <UniqueID>  (49) 
26

>  <SMILES>  (49) 
O=S(=O)(Cc1ccccc1)N1CCCC1

>  <Energy>  (49) 
25.674625338423102

>  <Genealogy>  (49) 
O=S(=O)(Cc1ccccc1)N1CCCC1 (3D coordinates assigned)
O=S(=O)(Cc1ccccc1)N1CCCC1 (nonaromatic ring conformer: 25.674625338423102 kcal/mol)

>  <smiles>  (49) 
O=S(=O)(Cc1ccccc1)N1CCCC1

>  <score_type>  (49) 
oracle

>  <origin>  (49) 
autodockgpu

>  <m_score__min__energy>  (49) 
-5.8799999999999999

>  <m_primary>  (49) 
energy

>  <meeko>  (49) 
{"free_energy": -5.76, "intermolecular_energy": -6.65, "internal_energy": -0.66, "cluster_size": 18, "cluster_id": 1, "rank_in_cluster": 8}

>  <energy>  (49) 
-5.74

>  <cluster_rmsd>  (49) 
1.2

>  <rmsd>  (49) 
273.11

>  <cluster>  (49) 
1

$$$$
GGXXWZKFDBNAQR-UHFFFAOYNA-N
     RDKit          3D

 30 31  0  0  0  0  0  0  0  0999 V2000
  139.5490   67.0140  224.2440 O   0  0  0  0  0  0  0  0  0  0  0  0
  139.3030   68.0550  225.3000 S   0  0  0  0  0  0  0  0  0  0  0  0
  138.7730   67.3640  226.5240 O   0  0  0  0  0  0  0  0  0  0  0  0
  140.8770   68.8060  225.7450 C   0  0  0  0  0  0  0  0  0  0  0  0
  140.7100   69.9800  226.6680 C   0  0  0  0  0  0  0  0  0  0  0  0
  141.4090   71.1750  226.4280 C   0  0  0  0  0  0  0  0  0  0  0  0
  141.2290   72.2780  227.2680 C   0  0  0  0  0  0  0  0  0  0  0  0
  140.3540   72.1950  228.3540 C   0  0  0  0  0  0  0  0  0  0  0  0
  139.6630   71.0070  228.6060 C   0  0  0  0  0  0  0  0  0  0  0  0
  139.8420   69.9010  227.7700 C   0  0  0  0  0  0  0  0  0  0  0  0
  138.0720   69.1630  224.7290 N   0  0  0  0  0  0  0  0  0  0  0  0
  138.5580   70.5360  224.5410 C   0  0  0  0  0  0  0  0  0  0  0  0
  137.9890   71.0550  223.2260 C   0  0  0  0  0  0  0  0  0  0  0  0
  137.0260   69.9880  222.7480 C   0  0  0  0  0  0  0  0  0  0  0  0
  137.4590   68.7320  223.4730 C   0  0  0  0  0  0  0  0  0  0  0  0
  141.5008   68.0499  226.2442 H   0  0  0  0  0  0  0  0  0  0  0  0
  141.3485   69.1703  224.8204 H   0  0  0  0  0  0  0  0  0  0  0  0
  142.1008   71.2430  225.5755 H   0  0  0  0  0  0  0  0  0  0  0  0
  141.7767   73.2119  227.0737 H   0  0  0  0  0  0  0  0  0  0  0  0
  140.2090   73.0653  229.0110 H   0  0  0  0  0  0  0  0  0  0  0  0
  138.9771   70.9419  229.4635 H   0  0  0  0  0  0  0  0  0  0  0  0
  139.3013   68.9654  227.9757 H   0  0  0  0  0  0  0  0  0  0  0  0
  138.2177   71.1707  225.3725 H   0  0  0  0  0  0  0  0  0  0  0  0
  139.6576   70.5549  224.5182 H   0  0  0  0  0  0  0  0  0  0  0  0
  137.4597   72.0060  223.3856 H   0  0  0  0  0  0  0  0  0  0  0  0
  138.7816   71.2474  222.4879 H   0  0  0  0  0  0  0  0  0  0  0  0
  135.9913   70.2519  223.0122 H   0  0  0  0  0  0  0  0  0  0  0  0
  137.0458   69.8670  221.6549 H   0  0  0  0  0  0  0  0  0  0  0  0
  136.5878   68.0919  223.6762 H   0  0  0  0  0  0  0  0  0  0  0  0
  138.1673   68.1487  222.8663 H   0  0  0  0  0  0  0  0  0  0  0  0
  1  2  2  0
  2  3  2  0
  2  4  1  0
  4  5  1  0
  5  6  2  0
  6  7  1  0
  7  8  2  0
  8  9  1  0
  9 10  2  0
  2 11  1  0
 11 12  1  0
 12 13  1  0
 13 14  1  0
 14 15  1  0
 10  5  1  0
 15 11  1  0
  4 16  1  0
  4 17  1  0
  6 18  1  0
  7 19  1  0
  8 20  1  0
  9 21  1  0
 10 22  1  0
 12 23  1  0
 12 24  1  0
 13 25  1  0
 13 26  1  0
 14 27  1  0
 14 28  1  0
 15 29  1  0
 15 30  1  0
M  END
>  <UniqueID>  (50) 
26

>  <SMILES>  (50) 
O=S(=O)(Cc1ccccc1)N1CCCC1

>  <Energy>  (50) 
25.674625338423102

>  <Genealogy>  (50) 
O=S(=O)(Cc1ccccc1)N1CCCC1 (3D coordinates assigned)
O=S(=O)(Cc1ccccc1)N1CCCC1 (nonaromatic ring conformer: 25.674625338423102 kcal/mol)

>  <smiles>  (50) 
O=S(=O)(Cc1ccccc1)N1CCCC1

>  <score_type>  (50) 
oracle

>  <origin>  (50) 
autodockgpu

>  <m_score__min__energy>  (50) 
-5.8799999999999999

>  <m_primary>  (50) 
energy

>  <meeko>  (50) 
{"free_energy": -5.69, "intermolecular_energy": -6.59, "internal_energy": -0.61, "cluster_size": 18, "cluster_id": 1, "rank_in_cluster": 17}

>  <energy>  (50) 
-5.73

>  <cluster_rmsd>  (50) 
1.16

>  <rmsd>  (50) 
273.28

>  <cluster>  (50) 
1

$$$$
GGXXWZKFDBNAQR-UHFFFAOYNA-N
     RDKit          3D

 30 31  0  0  0  0  0  0  0  0999 V2000
  139.2010   67.0270  224.1720 O   0  0  0  0  0  0  0  0  0  0  0  0
  139.2050   68.3910  224.8050 S   0  0  0  0  0  0  0  0  0  0  0  0
  137.8290   68.6620  225.3420 O   0  0  0  0  0  0  0  0  0  0  0  0
  140.3360   68.3710  226.2050 C   0  0  0  0  0  0  0  0  0  0  0  0
  140.6420   69.7520  226.7120 C   0  0  0  0  0  0  0  0  0  0  0  0
  141.4910   70.6020  225.9830 C   0  0  0  0  0  0  0  0  0  0  0  0
  141.7500   71.8990  226.4380 C   0  0  0  0  0  0  0  0  0  0  0  0
  141.1670   72.3550  227.6220 C   0  0  0  0  0  0  0  0  0  0  0  0
  140.3300   71.5130  228.3580 C   0  0  0  0  0  0  0  0  0  0  0  0
  140.0700   70.2150  227.9090 C   0  0  0  0  0  0  0  0  0  0  0  0
  139.5510   69.5880  223.5730 N   0  0  0  0  0  0  0  0  0  0  0  0
  139.0560   69.2210  222.2410 C   0  0  0  0  0  0  0  0  0  0  0  0
  138.4210   70.4610  221.6210 C   0  0  0  0  0  0  0  0  0  0  0  0
  138.7170   71.5930  222.5820 C   0  0  0  0  0  0  0  0  0  0  0  0
  139.0140   70.9090  223.8990 C   0  0  0  0  0  0  0  0  0  0  0  0
  139.8804   67.7883  227.0192 H   0  0  0  0  0  0  0  0  0  0  0  0
  141.2808   67.9200  225.8674 H   0  0  0  0  0  0  0  0  0  0  0  0
  141.9537   70.2459  225.0508 H   0  0  0  0  0  0  0  0  0  0  0  0
  142.4139   72.5607  225.8623 H   0  0  0  0  0  0  0  0  0  0  0  0
  141.3669   73.3774  227.9752 H   0  0  0  0  0  0  0  0  0  0  0  0
  139.8746   71.8721  229.2927 H   0  0  0  0  0  0  0  0  0  0  0  0
  139.4151   69.5535  228.4950 H   0  0  0  0  0  0  0  0  0  0  0  0
  139.8909   68.8750  221.6139 H   0  0  0  0  0  0  0  0  0  0  0  0
  138.3182   68.4085  222.3160 H   0  0  0  0  0  0  0  0  0  0  0  0
  138.8644   70.6677  220.6358 H   0  0  0  0  0  0  0  0  0  0  0  0
  137.3398   70.3306  221.4659 H   0  0  0  0  0  0  0  0  0  0  0  0
  139.5868   72.1739  222.2414 H   0  0  0  0  0  0  0  0  0  0  0  0
  137.8803   72.3028  222.6603 H   0  0  0  0  0  0  0  0  0  0  0  0
  139.7542   71.4892  224.4694 H   0  0  0  0  0  0  0  0  0  0  0  0
  138.1073   70.8269  224.5163 H   0  0  0  0  0  0  0  0  0  0  0  0
  1  2  2  0
  2  3  2  0
  2  4  1  0
  4  5  1  0
  5  6  2  0
  6  7  1  0
  7  8  2  0
  8  9  1  0
  9 10  2  0
  2 11  1  0
 11 12  1  0
 12 13  1  0
 13 14  1  0
 14 15  1  0
 10  5  1  0
 15 11  1  0
  4 16  1  0
  4 17  1  0
  6 18  1  0
  7 19  1  0
  8 20  1  0
  9 21  1  0
 10 22  1  0
 12 23  1  0
 12 24  1  0
 13 25  1  0
 13 26  1  0
 14 27  1  0
 14 28  1  0
 15 29  1  0
 15 30  1  0
M  END
>  <UniqueID>  (51) 
26

>  <SMILES>  (51) 
O=S(=O)(Cc1ccccc1)N1CCCC1

>  <Energy>  (51) 
25.674625338423102

>  <Genealogy>  (51) 
O=S(=O)(Cc1ccccc1)N1CCCC1 (3D coordinates assigned)
O=S(=O)(Cc1ccccc1)N1CCCC1 (nonaromatic ring conformer: 25.674625338423102 kcal/mol)

>  <smiles>  (51) 
O=S(=O)(Cc1ccccc1)N1CCCC1

>  <score_type>  (51) 
oracle

>  <origin>  (51) 
autodockgpu

>  <m_score__min__energy>  (51) 
-5.8799999999999999

>  <m_primary>  (51) 
energy

>  <meeko>  (51) 
{"free_energy": -5.69, "intermolecular_energy": -6.59, "internal_energy": -0.68, "cluster_size": 18, "cluster_id": 1, "rank_in_cluster": 18}

>  <energy>  (51) 
-5.73

>  <cluster_rmsd>  (51) 
1.18

>  <rmsd>  (51) 
273.1

>  <cluster>  (51) 
1

$$$$
GGXXWZKFDBNAQR-UHFFFAOYNA-N
     RDKit          3D

 30 31  0  0  0  0  0  0  0  0999 V2000
  139.4310   67.1190  224.2720 O   0  0  0  0  0  0  0  0  0  0  0  0
  139.2180   67.8890  225.5450 S   0  0  0  0  0  0  0  0  0  0  0  0
  138.4920   67.0000  226.5140 O   0  0  0  0  0  0  0  0  0  0  0  0
  140.8230   68.2720  226.2620 C   0  0  0  0  0  0  0  0  0  0  0  0
  140.9220   69.7030  226.7130 C   0  0  0  0  0  0  0  0  0  0  0  0
  140.3040   70.1130  227.9070 C   0  0  0  0  0  0  0  0  0  0  0  0
  140.4240   71.4360  228.3440 C   0  0  0  0  0  0  0  0  0  0  0  0
  141.1570   72.3570  227.5930 C   0  0  0  0  0  0  0  0  0  0  0  0
  141.7660   71.9600  226.4000 C   0  0  0  0  0  0  0  0  0  0  0  0
  141.6470   70.6390  225.9570 C   0  0  0  0  0  0  0  0  0  0  0  0
  138.1930   69.2710  225.2080 N   0  0  0  0  0  0  0  0  0  0  0  0
  138.8360   70.2890  224.3690 C   0  0  0  0  0  0  0  0  0  0  0  0
  137.8170   70.7490  223.3310 C   0  0  0  0  0  0  0  0  0  0  0  0
  136.5160   70.0740  223.7110 C   0  0  0  0  0  0  0  0  0  0  0  0
  136.9310   68.8980  224.5680 C   0  0  0  0  0  0  0  0  0  0  0  0
  140.9882   67.6159  227.1293 H   0  0  0  0  0  0  0  0  0  0  0  0
  141.5847   68.1116  225.4848 H   0  0  0  0  0  0  0  0  0  0  0  0
  139.7238   69.3906  228.4999 H   0  0  0  0  0  0  0  0  0  0  0  0
  139.9404   71.7514  229.2803 H   0  0  0  0  0  0  0  0  0  0  0  0
  141.2550   73.3959  227.9409 H   0  0  0  0  0  0  0  0  0  0  0  0
  142.3402   72.6879  225.8080 H   0  0  0  0  0  0  0  0  0  0  0  0
  142.1225   70.3319  225.0138 H   0  0  0  0  0  0  0  0  0  0  0  0
  139.1494   71.1417  224.9892 H   0  0  0  0  0  0  0  0  0  0  0  0
  139.7268   69.8735  223.8753 H   0  0  0  0  0  0  0  0  0  0  0  0
  137.7052   71.8429  223.3611 H   0  0  0  0  0  0  0  0  0  0  0  0
  138.1291   70.4857  222.3096 H   0  0  0  0  0  0  0  0  0  0  0  0
  135.8738   70.7618  224.2806 H   0  0  0  0  0  0  0  0  0  0  0  0
  135.9350   69.7633  222.8302 H   0  0  0  0  0  0  0  0  0  0  0  0
  136.1645   68.6948  225.3303 H   0  0  0  0  0  0  0  0  0  0  0  0
  137.0478   67.9875  223.9619 H   0  0  0  0  0  0  0  0  0  0  0  0
  1  2  2  0
  2  3  2  0
  2  4  1  0
  4  5  1  0
  5  6  2  0
  6  7  1  0
  7  8  2  0
  8  9  1  0
  9 10  2  0
  2 11  1  0
 11 12  1  0
 12 13  1  0
 13 14  1  0
 14 15  1  0
 10  5  1  0
 15 11  1  0
  4 16  1  0
  4 17  1  0
  6 18  1  0
  7 19  1  0
  8 20  1  0
  9 21  1  0
 10 22  1  0
 12 23  1  0
 12 24  1  0
 13 25  1  0
 13 26  1  0
 14 27  1  0
 14 28  1  0
 15 29  1  0
 15 30  1  0
M  END
>  <UniqueID>  (52) 
26

>  <SMILES>  (52) 
O=S(=O)(Cc1ccccc1)N1CCCC1

>  <Energy>  (52) 
25.674625338423102

>  <Genealogy>  (52) 
O=S(=O)(Cc1ccccc1)N1CCCC1 (3D coordinates assigned)
O=S(=O)(Cc1ccccc1)N1CCCC1 (nonaromatic ring conformer: 25.674625338423102 kcal/mol)

>  <smiles>  (52) 
O=S(=O)(Cc1ccccc1)N1CCCC1

>  <score_type>  (52) 
oracle

>  <origin>  (52) 
autodockgpu

>  <m_score__min__energy>  (52) 
-5.8799999999999999

>  <m_primary>  (52) 
energy

>  <meeko>  (52) 
{"free_energy": -5.81, "intermolecular_energy": -6.71, "internal_energy": -0.66, "cluster_size": 18, "cluster_id": 1, "rank_in_cluster": 6}

>  <energy>  (52) 
-5.72

>  <cluster_rmsd>  (52) 
0.67

>  <rmsd>  (52) 
273.31

>  <cluster>  (52) 
1

$$$$
GGXXWZKFDBNAQR-UHFFFAOYNA-N
     RDKit          3D

 30 31  0  0  0  0  0  0  0  0999 V2000
  139.4370   67.0890  224.4440 O   0  0  0  0  0  0  0  0  0  0  0  0
  139.1740   68.4300  225.0700 S   0  0  0  0  0  0  0  0  0  0  0  0
  137.7040   68.5290  225.3630 O   0  0  0  0  0  0  0  0  0  0  0  0
  140.0430   68.5100  226.6430 C   0  0  0  0  0  0  0  0  0  0  0  0
  140.4850   69.9060  226.9820 C   0  0  0  0  0  0  0  0  0  0  0  0
  141.4220   70.5690  226.1710 C   0  0  0  0  0  0  0  0  0  0  0  0
  141.8080   71.8800  226.4670 C   0  0  0  0  0  0  0  0  0  0  0  0
  141.2640   72.5360  227.5740 C   0  0  0  0  0  0  0  0  0  0  0  0
  140.3400   71.8810  228.3910 C   0  0  0  0  0  0  0  0  0  0  0  0
  139.9530   70.5700  228.1010 C   0  0  0  0  0  0  0  0  0  0  0  0
  139.5820   69.6840  223.9170 N   0  0  0  0  0  0  0  0  0  0  0  0
  139.2900   69.3220  222.5250 C   0  0  0  0  0  0  0  0  0  0  0  0
  138.6470   70.5300  221.8530 C   0  0  0  0  0  0  0  0  0  0  0  0
  138.7310   71.6520  222.8670 C   0  0  0  0  0  0  0  0  0  0  0  0
  138.9090   70.9530  224.1970 C   0  0  0  0  0  0  0  0  0  0  0  0
  139.3718   68.1493  227.4363 H   0  0  0  0  0  0  0  0  0  0  0  0
  140.9433   67.8832  226.5615 H   0  0  0  0  0  0  0  0  0  0  0  0
  141.8535   70.0545  225.2998 H   0  0  0  0  0  0  0  0  0  0  0  0
  142.5403   72.3950  225.8279 H   0  0  0  0  0  0  0  0  0  0  0  0
  141.5638   73.5694  227.8023 H   0  0  0  0  0  0  0  0  0  0  0  0
  139.9160   72.3981  229.2645 H   0  0  0  0  0  0  0  0  0  0  0  0
  139.2295   70.0557  228.7506 H   0  0  0  0  0  0  0  0  0  0  0  0
  140.2218   69.0564  222.0043 H   0  0  0  0  0  0  0  0  0  0  0  0
  138.6123   68.4563  222.4877 H   0  0  0  0  0  0  0  0  0  0  0  0
  139.1955   70.7976  220.9378 H   0  0  0  0  0  0  0  0  0  0  0  0
  137.6075   70.3259  221.5566 H   0  0  0  0  0  0  0  0  0  0  0  0
  139.5903   72.3047  222.6534 H   0  0  0  0  0  0  0  0  0  0  0  0
  137.8395   72.2962  222.8507 H   0  0  0  0  0  0  0  0  0  0  0  0
  139.5245   71.5685  224.8696 H   0  0  0  0  0  0  0  0  0  0  0  0
  137.9399   70.7871  224.6902 H   0  0  0  0  0  0  0  0  0  0  0  0
  1  2  2  0
  2  3  2  0
  2  4  1  0
  4  5  1  0
  5  6  2  0
  6  7  1  0
  7  8  2  0
  8  9  1  0
  9 10  2  0
  2 11  1  0
 11 12  1  0
 12 13  1  0
 13 14  1  0
 14 15  1  0
 10  5  1  0
 15 11  1  0
  4 16  1  0
  4 17  1  0
  6 18  1  0
  7 19  1  0
  8 20  1  0
  9 21  1  0
 10 22  1  0
 12 23  1  0
 12 24  1  0
 13 25  1  0
 13 26  1  0
 14 27  1  0
 14 28  1  0
 15 29  1  0
 15 30  1  0
M  END
>  <UniqueID>  (53) 
26

>  <SMILES>  (53) 
O=S(=O)(Cc1ccccc1)N1CCCC1

>  <Energy>  (53) 
25.674625338423102

>  <Genealogy>  (53) 
O=S(=O)(Cc1ccccc1)N1CCCC1 (3D coordinates assigned)
O=S(=O)(Cc1ccccc1)N1CCCC1 (nonaromatic ring conformer: 25.674625338423102 kcal/mol)

>  <smiles>  (53) 
O=S(=O)(Cc1ccccc1)N1CCCC1

>  <score_type>  (53) 
oracle

>  <origin>  (53) 
autodockgpu

>  <m_score__min__energy>  (53) 
-5.8799999999999999

>  <m_primary>  (53) 
energy

>  <meeko>  (53) 
{"free_energy": -5.73, "intermolecular_energy": -6.62, "internal_energy": -0.67, "cluster_size": 18, "cluster_id": 1, "rank_in_cluster": 10}

>  <energy>  (53) 
-5.71

>  <cluster_rmsd>  (53) 
1.19

>  <rmsd>  (53) 
273.19

>  <cluster>  (53) 
1

$$$$
GGXXWZKFDBNAQR-UHFFFAOYNA-N
     RDKit          3D

 30 31  0  0  0  0  0  0  0  0999 V2000
  139.2310   67.0120  224.2120 O   0  0  0  0  0  0  0  0  0  0  0  0
  139.1420   68.3600  224.8700 S   0  0  0  0  0  0  0  0  0  0  0  0
  137.7310   68.5580  225.3440 O   0  0  0  0  0  0  0  0  0  0  0  0
  140.2040   68.3620  226.3230 C   0  0  0  0  0  0  0  0  0  0  0  0
  140.5450   69.7520  226.7810 C   0  0  0  0  0  0  0  0  0  0  0  0
  141.4160   70.5530  226.0240 C   0  0  0  0  0  0  0  0  0  0  0  0
  141.7080   71.8580  226.4320 C   0  0  0  0  0  0  0  0  0  0  0  0
  141.1340   72.3710  227.5980 C   0  0  0  0  0  0  0  0  0  0  0  0
  140.2750   71.5780  228.3630 C   0  0  0  0  0  0  0  0  0  0  0  0
  139.9830   70.2720  227.9600 C   0  0  0  0  0  0  0  0  0  0  0  0
  139.4910   69.5980  223.6790 N   0  0  0  0  0  0  0  0  0  0  0  0
  139.0820   69.2350  222.3170 C   0  0  0  0  0  0  0  0  0  0  0  0
  138.4200   70.4570  221.6890 C   0  0  0  0  0  0  0  0  0  0  0  0
  138.6120   71.5810  222.6840 C   0  0  0  0  0  0  0  0  0  0  0  0
  138.8760   70.8850  224.0020 C   0  0  0  0  0  0  0  0  0  0  0  0
  139.6862   67.8379  227.1398 H   0  0  0  0  0  0  0  0  0  0  0  0
  141.1435   67.8579  226.0526 H   0  0  0  0  0  0  0  0  0  0  0  0
  141.8704   70.1517  225.1061 H   0  0  0  0  0  0  0  0  0  0  0  0
  142.3899   72.4811  225.8348 H   0  0  0  0  0  0  0  0  0  0  0  0
  141.3587   73.4004  227.9140 H   0  0  0  0  0  0  0  0  0  0  0  0
  139.8281   71.9819  229.2834 H   0  0  0  0  0  0  0  0  0  0  0  0
  139.3108   69.6485  228.5678 H   0  0  0  0  0  0  0  0  0  0  0  0
  139.9630   68.9418  221.7271 H   0  0  0  0  0  0  0  0  0  0  0  0
  138.3819   68.3868  222.3387 H   0  0  0  0  0  0  0  0  0  0  0  0
  138.9018   70.7052  220.7318 H   0  0  0  0  0  0  0  0  0  0  0  0
  137.3554   70.2789  221.4768 H   0  0  0  0  0  0  0  0  0  0  0  0
  139.4683   72.2098  222.3988 H   0  0  0  0  0  0  0  0  0  0  0  0
  137.7387   72.2480  222.7327 H   0  0  0  0  0  0  0  0  0  0  0  0
  139.5585   71.4875  224.6194 H   0  0  0  0  0  0  0  0  0  0  0  0
  137.9451   70.7480  224.5717 H   0  0  0  0  0  0  0  0  0  0  0  0
  1  2  2  0
  2  3  2  0
  2  4  1  0
  4  5  1  0
  5  6  2  0
  6  7  1  0
  7  8  2  0
  8  9  1  0
  9 10  2  0
  2 11  1  0
 11 12  1  0
 12 13  1  0
 13 14  1  0
 14 15  1  0
 10  5  1  0
 15 11  1  0
  4 16  1  0
  4 17  1  0
  6 18  1  0
  7 19  1  0
  8 20  1  0
  9 21  1  0
 10 22  1  0
 12 23  1  0
 12 24  1  0
 13 25  1  0
 13 26  1  0
 14 27  1  0
 14 28  1  0
 15 29  1  0
 15 30  1  0
M  END
>  <UniqueID>  (54) 
26

>  <SMILES>  (54) 
O=S(=O)(Cc1ccccc1)N1CCCC1

>  <Energy>  (54) 
25.674625338423102

>  <Genealogy>  (54) 
O=S(=O)(Cc1ccccc1)N1CCCC1 (3D coordinates assigned)
O=S(=O)(Cc1ccccc1)N1CCCC1 (nonaromatic ring conformer: 25.674625338423102 kcal/mol)

>  <smiles>  (54) 
O=S(=O)(Cc1ccccc1)N1CCCC1

>  <score_type>  (54) 
oracle

>  <origin>  (54) 
autodockgpu

>  <m_score__min__energy>  (54) 
-5.8799999999999999

>  <m_primary>  (54) 
energy

>  <meeko>  (54) 
{"free_energy": -5.73, "intermolecular_energy": -6.62, "internal_energy": -0.69, "cluster_size": 18, "cluster_id": 1, "rank_in_cluster": 11}

>  <energy>  (54) 
-5.71

>  <cluster_rmsd>  (54) 
1.18

>  <rmsd>  (54) 
273.09

>  <cluster>  (54) 
1

$$$$
GGXXWZKFDBNAQR-UHFFFAOYNA-N
     RDKit          3D

 30 31  0  0  0  0  0  0  0  0999 V2000
  142.1780   81.6540  224.4570 O   0  0  0  0  0  0  0  0  0  0  0  0
  142.5890   80.6580  223.4090 S   0  0  0  0  0  0  0  0  0  0  0  0
  144.0830   80.5140  223.4600 O   0  0  0  0  0  0  0  0  0  0  0  0
  141.8780   79.0590  223.8260 C   0  0  0  0  0  0  0  0  0  0  0  0
  140.4260   78.9620  223.4480 C   0  0  0  0  0  0  0  0  0  0  0  0
  139.5220   79.9600  223.8520 C   0  0  0  0  0  0  0  0  0  0  0  0
  138.1780   79.8870  223.4730 C   0  0  0  0  0  0  0  0  0  0  0  0
  137.7270   78.8200  222.6920 C   0  0  0  0  0  0  0  0  0  0  0  0
  138.6170   77.8190  222.2960 C   0  0  0  0  0  0  0  0  0  0  0  0
  139.9610   77.8850  222.6750 C   0  0  0  0  0  0  0  0  0  0  0  0
  142.1610   81.2860  221.8300 N   0  0  0  0  0  0  0  0  0  0  0  0
  141.8260   80.2430  220.8530 C   0  0  0  0  0  0  0  0  0  0  0  0
  140.5900   80.7020  220.0860 C   0  0  0  0  0  0  0  0  0  0  0  0
  140.3280   82.1200  220.5470 C   0  0  0  0  0  0  0  0  0  0  0  0
  141.0420   82.2270  221.8780 C   0  0  0  0  0  0  0  0  0  0  0  0
  142.4352   78.2746  223.2928 H   0  0  0  0  0  0  0  0  0  0  0  0
  141.9501   78.9337  224.9165 H   0  0  0  0  0  0  0  0  0  0  0  0
  139.8730   80.8009  224.4682 H   0  0  0  0  0  0  0  0  0  0  0  0
  137.4747   80.6710  223.7903 H   0  0  0  0  0  0  0  0  0  0  0  0
  136.6709   78.7682  222.3889 H   0  0  0  0  0  0  0  0  0  0  0  0
  138.2597   76.9771  221.6848 H   0  0  0  0  0  0  0  0  0  0  0  0
  140.6569   77.0908  222.3669 H   0  0  0  0  0  0  0  0  0  0  0  0
  142.6657   80.0984  220.1573 H   0  0  0  0  0  0  0  0  0  0  0  0
  141.6293   79.2882  221.3626 H   0  0  0  0  0  0  0  0  0  0  0  0
  140.7799   80.6793  219.0028 H   0  0  0  0  0  0  0  0  0  0  0  0
  139.7270   80.0466  220.2750 H   0  0  0  0  0  0  0  0  0  0  0  0
  140.7375   82.8442  219.8274 H   0  0  0  0  0  0  0  0  0  0  0  0
  139.2534   82.3394  220.6312 H   0  0  0  0  0  0  0  0  0  0  0  0
  141.4139   83.2513  222.0277 H   0  0  0  0  0  0  0  0  0  0  0  0
  140.3634   81.9935  222.7116 H   0  0  0  0  0  0  0  0  0  0  0  0
  1  2  2  0
  2  3  2  0
  2  4  1  0
  4  5  1  0
  5  6  2  0
  6  7  1  0
  7  8  2  0
  8  9  1  0
  9 10  2  0
  2 11  1  0
 11 12  1  0
 12 13  1  0
 13 14  1  0
 14 15  1  0
 10  5  1  0
 15 11  1  0
  4 16  1  0
  4 17  1  0
  6 18  1  0
  7 19  1  0
  8 20  1  0
  9 21  1  0
 10 22  1  0
 12 23  1  0
 12 24  1  0
 13 25  1  0
 13 26  1  0
 14 27  1  0
 14 28  1  0
 15 29  1  0
 15 30  1  0
M  END
>  <UniqueID>  (55) 
26

>  <SMILES>  (55) 
O=S(=O)(Cc1ccccc1)N1CCCC1

>  <Energy>  (55) 
25.674625338423102

>  <Genealogy>  (55) 
O=S(=O)(Cc1ccccc1)N1CCCC1 (3D coordinates assigned)
O=S(=O)(Cc1ccccc1)N1CCCC1 (nonaromatic ring conformer: 25.674625338423102 kcal/mol)

>  <smiles>  (55) 
O=S(=O)(Cc1ccccc1)N1CCCC1

>  <score_type>  (55) 
oracle

>  <origin>  (55) 
autodockgpu

>  <m_score__min__energy>  (55) 
-5.8799999999999999

>  <m_primary>  (55) 
energy

>  <meeko>  (55) 
{"free_energy": -4.62, "intermolecular_energy": -5.52, "internal_energy": -0.92, "cluster_size": 1, "cluster_id": 3, "rank_in_cluster": 1}

>  <energy>  (55) 
-5.71

>  <cluster_rmsd>  (55) 
1.17

>  <rmsd>  (55) 
273.08

>  <cluster>  (55) 
1

$$$$
GGXXWZKFDBNAQR-UHFFFAOYNA-N
     RDKit          3D

 30 31  0  0  0  0  0  0  0  0999 V2000
  139.1980   67.0260  224.2060 O   0  0  0  0  0  0  0  0  0  0  0  0
  139.1140   68.3700  224.8730 S   0  0  0  0  0  0  0  0  0  0  0  0
  137.7070   68.5630  225.3610 O   0  0  0  0  0  0  0  0  0  0  0  0
  140.1890   68.3630  226.3160 C   0  0  0  0  0  0  0  0  0  0  0  0
  140.5370   69.7510  226.7770 C   0  0  0  0  0  0  0  0  0  0  0  0
  141.3930   70.5580  226.0090 C   0  0  0  0  0  0  0  0  0  0  0  0
  141.6900   71.8610  226.4210 C   0  0  0  0  0  0  0  0  0  0  0  0
  141.1380   72.3650  227.6010 C   0  0  0  0  0  0  0  0  0  0  0  0
  140.2940   71.5660  228.3760 C   0  0  0  0  0  0  0  0  0  0  0  0
  139.9960   70.2610  227.9700 C   0  0  0  0  0  0  0  0  0  0  0  0
  139.4510   69.6150  223.6870 N   0  0  0  0  0  0  0  0  0  0  0  0
  139.0670   69.2440  222.3200 C   0  0  0  0  0  0  0  0  0  0  0  0
  138.3860   70.4510  221.6830 C   0  0  0  0  0  0  0  0  0  0  0  0
  138.5410   71.5790  222.6810 C   0  0  0  0  0  0  0  0  0  0  0  0
  138.8030   70.8880  224.0020 C   0  0  0  0  0  0  0  0  0  0  0  0
  139.6776   67.8363  227.1352 H   0  0  0  0  0  0  0  0  0  0  0  0
  141.1249   67.8579  226.0350 H   0  0  0  0  0  0  0  0  0  0  0  0
  141.8312   70.1636  225.0803 H   0  0  0  0  0  0  0  0  0  0  0  0
  142.3591   72.4897  225.8151 H   0  0  0  0  0  0  0  0  0  0  0  0
  141.3681   73.3922  227.9203 H   0  0  0  0  0  0  0  0  0  0  0  0
  139.8632   71.9636  229.3068 H   0  0  0  0  0  0  0  0  0  0  0  0
  139.3365   69.6321  228.5860 H   0  0  0  0  0  0  0  0  0  0  0  0
  139.9616   68.9705  221.7413 H   0  0  0  0  0  0  0  0  0  0  0  0
  138.3852   68.3809  222.3334 H   0  0  0  0  0  0  0  0  0  0  0  0
  138.8743   70.7099  220.7319 H   0  0  0  0  0  0  0  0  0  0  0  0
  137.3285   70.2497  221.4570 H   0  0  0  0  0  0  0  0  0  0  0  0
  139.3872   72.2262  222.4070 H   0  0  0  0  0  0  0  0  0  0  0  0
  137.6531   72.2272  222.7186 H   0  0  0  0  0  0  0  0  0  0  0  0
  139.4636   71.5052  224.6286 H   0  0  0  0  0  0  0  0  0  0  0  0
  137.8677   70.7297  224.5590 H   0  0  0  0  0  0  0  0  0  0  0  0
  1  2  2  0
  2  3  2  0
  2  4  1  0
  4  5  1  0
  5  6  2  0
  6  7  1  0
  7  8  2  0
  8  9  1  0
  9 10  2  0
  2 11  1  0
 11 12  1  0
 12 13  1  0
 13 14  1  0
 14 15  1  0
 10  5  1  0
 15 11  1  0
  4 16  1  0
  4 17  1  0
  6 18  1  0
  7 19  1  0
  8 20  1  0
  9 21  1  0
 10 22  1  0
 12 23  1  0
 12 24  1  0
 13 25  1  0
 13 26  1  0
 14 27  1  0
 14 28  1  0
 15 29  1  0
 15 30  1  0
M  END
>  <UniqueID>  (56) 
26

>  <SMILES>  (56) 
O=S(=O)(Cc1ccccc1)N1CCCC1

>  <Energy>  (56) 
25.674625338423102

>  <Genealogy>  (56) 
O=S(=O)(Cc1ccccc1)N1CCCC1 (3D coordinates assigned)
O=S(=O)(Cc1ccccc1)N1CCCC1 (nonaromatic ring conformer: 25.674625338423102 kcal/mol)

>  <smiles>  (56) 
O=S(=O)(Cc1ccccc1)N1CCCC1

>  <score_type>  (56) 
oracle

>  <origin>  (56) 
autodockgpu

>  <m_score__min__energy>  (56) 
-5.8799999999999999

>  <m_primary>  (56) 
energy

>  <meeko>  (56) 
{"free_energy": -5.71, "intermolecular_energy": -6.61, "internal_energy": -0.69, "cluster_size": 18, "cluster_id": 1, "rank_in_cluster": 14}

>  <energy>  (56) 
-5.7

>  <cluster_rmsd>  (56) 
1.18

>  <rmsd>  (56) 
273.04

>  <cluster>  (56) 
1

$$$$
GGXXWZKFDBNAQR-UHFFFAOYNA-N
     RDKit          3D

 30 31  0  0  0  0  0  0  0  0999 V2000
  139.5680   67.1190  224.4020 O   0  0  0  0  0  0  0  0  0  0  0  0
  139.2970   67.8760  225.6710 S   0  0  0  0  0  0  0  0  0  0  0  0
  138.5220   66.9810  226.5950 O   0  0  0  0  0  0  0  0  0  0  0  0
  140.8680   68.2440  226.4680 C   0  0  0  0  0  0  0  0  0  0  0  0
  140.9820   69.6890  226.8690 C   0  0  0  0  0  0  0  0  0  0  0  0
  141.7320   70.5830  226.0860 C   0  0  0  0  0  0  0  0  0  0  0  0
  141.8110   71.9330  226.4410 C   0  0  0  0  0  0  0  0  0  0  0  0
  141.1450   72.3990  227.5770 C   0  0  0  0  0  0  0  0  0  0  0  0
  140.4060   71.5140  228.3660 C   0  0  0  0  0  0  0  0  0  0  0  0
  140.3260   70.1630  228.0170 C   0  0  0  0  0  0  0  0  0  0  0  0
  138.2950   69.2660  225.3000 N   0  0  0  0  0  0  0  0  0  0  0  0
  138.9660   70.2690  224.4650 C   0  0  0  0  0  0  0  0  0  0  0  0
  137.9740   70.7290  223.4020 C   0  0  0  0  0  0  0  0  0  0  0  0
  136.6570   70.0740  223.7630 C   0  0  0  0  0  0  0  0  0  0  0  0
  137.0410   68.9010  224.6390 C   0  0  0  0  0  0  0  0  0  0  0  0
  140.9626   67.6189  227.3682 H   0  0  0  0  0  0  0  0  0  0  0  0
  141.6692   68.0321  225.7446 H   0  0  0  0  0  0  0  0  0  0  0  0
  142.2585   70.2196  225.1911 H   0  0  0  0  0  0  0  0  0  0  0  0
  142.3986   72.6293  225.8247 H   0  0  0  0  0  0  0  0  0  0  0  0
  141.2024   73.4629  227.8504 H   0  0  0  0  0  0  0  0  0  0  0  0
  139.8863   71.8811  229.2633 H   0  0  0  0  0  0  0  0  0  0  0  0
  139.7472   69.4684  228.6436 H   0  0  0  0  0  0  0  0  0  0  0  0
  139.2754   71.1245  225.0834 H   0  0  0  0  0  0  0  0  0  0  0  0
  139.8625   69.8396  223.9940 H   0  0  0  0  0  0  0  0  0  0  0  0
  137.8750   71.8244  223.4176 H   0  0  0  0  0  0  0  0  0  0  0  0
  138.3033   70.4501  222.3902 H   0  0  0  0  0  0  0  0  0  0  0  0
  136.0127   70.7752  224.3136 H   0  0  0  0  0  0  0  0  0  0  0  0
  136.0889   69.7623  222.8742 H   0  0  0  0  0  0  0  0  0  0  0  0
  136.2574   68.7141  225.3881 H   0  0  0  0  0  0  0  0  0  0  0  0
  137.1585   67.9832  224.0442 H   0  0  0  0  0  0  0  0  0  0  0  0
  1  2  2  0
  2  3  2  0
  2  4  1  0
  4  5  1  0
  5  6  2  0
  6  7  1  0
  7  8  2  0
  8  9  1  0
  9 10  2  0
  2 11  1  0
 11 12  1  0
 12 13  1  0
 13 14  1  0
 14 15  1  0
 10  5  1  0
 15 11  1  0
  4 16  1  0
  4 17  1  0
  6 18  1  0
  7 19  1  0
  8 20  1  0
  9 21  1  0
 10 22  1  0
 12 23  1  0
 12 24  1  0
 13 25  1  0
 13 26  1  0
 14 27  1  0
 14 28  1  0
 15 29  1  0
 15 30  1  0
M  END
>  <UniqueID>  (57) 
26

>  <SMILES>  (57) 
O=S(=O)(Cc1ccccc1)N1CCCC1

>  <Energy>  (57) 
25.674625338423102

>  <Genealogy>  (57) 
O=S(=O)(Cc1ccccc1)N1CCCC1 (3D coordinates assigned)
O=S(=O)(Cc1ccccc1)N1CCCC1 (nonaromatic ring conformer: 25.674625338423102 kcal/mol)

>  <smiles>  (57) 
O=S(=O)(Cc1ccccc1)N1CCCC1

>  <score_type>  (57) 
oracle

>  <origin>  (57) 
autodockgpu

>  <m_score__min__energy>  (57) 
-5.8799999999999999

>  <m_primary>  (57) 
energy

>  <meeko>  (57) 
{"free_energy": -5.88, "intermolecular_energy": -6.77, "internal_energy": -0.67, "cluster_size": 18, "cluster_id": 1, "rank_in_cluster": 1}

>  <energy>  (57) 
-5.69

>  <cluster_rmsd>  (57) 
0.7

>  <rmsd>  (57) 
273.28

>  <cluster>  (57) 
1

$$$$
GGXXWZKFDBNAQR-UHFFFAOYNA-N
     RDKit          3D

 30 31  0  0  0  0  0  0  0  0999 V2000
  139.5790   67.0210  224.2310 O   0  0  0  0  0  0  0  0  0  0  0  0
  139.3410   68.0420  225.3080 S   0  0  0  0  0  0  0  0  0  0  0  0
  138.8150   67.3300  226.5210 O   0  0  0  0  0  0  0  0  0  0  0  0
  140.9190   68.7800  225.7590 C   0  0  0  0  0  0  0  0  0  0  0  0
  140.7580   69.9600  226.6760 C   0  0  0  0  0  0  0  0  0  0  0  0
  141.4490   71.1560  226.4180 C   0  0  0  0  0  0  0  0  0  0  0  0
  141.2740   72.2650  227.2520 C   0  0  0  0  0  0  0  0  0  0  0  0
  140.4120   72.1870  228.3480 C   0  0  0  0  0  0  0  0  0  0  0  0
  139.7290   70.9980  228.6180 C   0  0  0  0  0  0  0  0  0  0  0  0
  139.9030   69.8860  227.7890 C   0  0  0  0  0  0  0  0  0  0  0  0
  138.1110   69.1660  224.7640 N   0  0  0  0  0  0  0  0  0  0  0  0
  138.6030   70.5370  224.5880 C   0  0  0  0  0  0  0  0  0  0  0  0
  138.0230   71.0770  223.2850 C   0  0  0  0  0  0  0  0  0  0  0  0
  137.0490   70.0210  222.8050 C   0  0  0  0  0  0  0  0  0  0  0  0
  137.4810   68.7540  223.5100 C   0  0  0  0  0  0  0  0  0  0  0  0
  141.5326   68.0202  226.2653 H   0  0  0  0  0  0  0  0  0  0  0  0
  141.3992   69.1357  224.8355 H   0  0  0  0  0  0  0  0  0  0  0  0
  142.1302   71.2203  225.5567 H   0  0  0  0  0  0  0  0  0  0  0  0
  141.8158   73.1995  227.0445 H   0  0  0  0  0  0  0  0  0  0  0  0
  140.2705   73.0621  228.9993 H   0  0  0  0  0  0  0  0  0  0  0  0
  139.0536   70.9371  229.4841 H   0  0  0  0  0  0  0  0  0  0  0  0
  139.3689   68.9498  228.0085 H   0  0  0  0  0  0  0  0  0  0  0  0
  138.2757   71.1631  225.4311 H   0  0  0  0  0  0  0  0  0  0  0  0
  139.7024   70.5491  224.5532 H   0  0  0  0  0  0  0  0  0  0  0  0
  137.5009   72.0289  223.4623 H   0  0  0  0  0  0  0  0  0  0  0  0
  138.8084   71.2751  222.5408 H   0  0  0  0  0  0  0  0  0  0  0  0
  136.0187   70.2880  223.0830 H   0  0  0  0  0  0  0  0  0  0  0  0
  137.0575   69.9127  221.7104 H   0  0  0  0  0  0  0  0  0  0  0  0
  136.6076   68.1176  223.7155 H   0  0  0  0  0  0  0  0  0  0  0  0
  138.1783   68.1730  222.8886 H   0  0  0  0  0  0  0  0  0  0  0  0
  1  2  2  0
  2  3  2  0
  2  4  1  0
  4  5  1  0
  5  6  2  0
  6  7  1  0
  7  8  2  0
  8  9  1  0
  9 10  2  0
  2 11  1  0
 11 12  1  0
 12 13  1  0
 13 14  1  0
 14 15  1  0
 10  5  1  0
 15 11  1  0
  4 16  1  0
  4 17  1  0
  6 18  1  0
  7 19  1  0
  8 20  1  0
  9 21  1  0
 10 22  1  0
 12 23  1  0
 12 24  1  0
 13 25  1  0
 13 26  1  0
 14 27  1  0
 14 28  1  0
 15 29  1  0
 15 30  1  0
M  END
>  <UniqueID>  (58) 
26

>  <SMILES>  (58) 
O=S(=O)(Cc1ccccc1)N1CCCC1

>  <Energy>  (58) 
25.674625338423102

>  <Genealogy>  (58) 
O=S(=O)(Cc1ccccc1)N1CCCC1 (3D coordinates assigned)
O=S(=O)(Cc1ccccc1)N1CCCC1 (nonaromatic ring conformer: 25.674625338423102 kcal/mol)

>  <smiles>  (58) 
O=S(=O)(Cc1ccccc1)N1CCCC1

>  <score_type>  (58) 
oracle

>  <origin>  (58) 
autodockgpu

>  <m_score__min__energy>  (58) 
-5.8799999999999999

>  <m_primary>  (58) 
energy

>  <meeko>  (58) 
{"free_energy": -5.72, "intermolecular_energy": -6.61, "internal_energy": -0.6, "cluster_size": 18, "cluster_id": 1, "rank_in_cluster": 12}

>  <energy>  (58) 
-5.69

>  <cluster_rmsd>  (58) 
1.22

>  <rmsd>  (58) 
273.09

>  <cluster>  (58) 
1

$$$$
GGXXWZKFDBNAQR-UHFFFAOYNA-N
     RDKit          3D

 30 31  0  0  0  0  0  0  0  0999 V2000
  139.5170   67.0190  224.2260 O   0  0  0  0  0  0  0  0  0  0  0  0
  139.2840   67.8860  225.4320 S   0  0  0  0  0  0  0  0  0  0  0  0
  138.6040   67.0540  226.4810 O   0  0  0  0  0  0  0  0  0  0  0  0
  140.8790   68.3920  226.0930 C   0  0  0  0  0  0  0  0  0  0  0  0
  140.8200   69.7370  226.7620 C   0  0  0  0  0  0  0  0  0  0  0  0
  141.5140   70.8300  226.2160 C   0  0  0  0  0  0  0  0  0  0  0  0
  141.4330   72.0890  226.8190 C   0  0  0  0  0  0  0  0  0  0  0  0
  140.6630   72.2640  227.9710 C   0  0  0  0  0  0  0  0  0  0  0  0
  139.9780   71.1810  228.5260 C   0  0  0  0  0  0  0  0  0  0  0  0
  140.0580   69.9200  227.9280 C   0  0  0  0  0  0  0  0  0  0  0  0
  138.2010   69.1910  224.9910 N   0  0  0  0  0  0  0  0  0  0  0  0
  138.8940   70.4070  224.5470 C   0  0  0  0  0  0  0  0  0  0  0  0
  138.1620   70.9390  223.3200 C   0  0  0  0  0  0  0  0  0  0  0  0
  136.9260   70.0750  223.1770 C   0  0  0  0  0  0  0  0  0  0  0  0
  137.2510   68.8120  223.9450 C   0  0  0  0  0  0  0  0  0  0  0  0
  141.2095   67.6449  226.8297 H   0  0  0  0  0  0  0  0  0  0  0  0
  141.5833   68.4660  225.2513 H   0  0  0  0  0  0  0  0  0  0  0  0
  142.1236   70.6947  225.3104 H   0  0  0  0  0  0  0  0  0  0  0  0
  141.9760   72.9420  226.3859 H   0  0  0  0  0  0  0  0  0  0  0  0
  140.5960   73.2560  228.4416 H   0  0  0  0  0  0  0  0  0  0  0  0
  139.3746   71.3204  229.4351 H   0  0  0  0  0  0  0  0  0  0  0  0
  139.5224   69.0679  228.3720 H   0  0  0  0  0  0  0  0  0  0  0  0
  138.8780   71.1605  225.3482 H   0  0  0  0  0  0  0  0  0  0  0  0
  139.9428   70.1837  224.3018 H   0  0  0  0  0  0  0  0  0  0  0  0
  137.8796   71.9918  223.4678 H   0  0  0  0  0  0  0  0  0  0  0  0
  138.7933   70.8988  222.4201 H   0  0  0  0  0  0  0  0  0  0  0  0
  136.0487   70.5778  223.6101 H   0  0  0  0  0  0  0  0  0  0  0  0
  136.6795   69.8710  222.1245 H   0  0  0  0  0  0  0  0  0  0  0  0
  136.3375   68.3957  224.3948 H   0  0  0  0  0  0  0  0  0  0  0  0
  137.6763   68.0436  223.2827 H   0  0  0  0  0  0  0  0  0  0  0  0
  1  2  2  0
  2  3  2  0
  2  4  1  0
  4  5  1  0
  5  6  2  0
  6  7  1  0
  7  8  2  0
  8  9  1  0
  9 10  2  0
  2 11  1  0
 11 12  1  0
 12 13  1  0
 13 14  1  0
 14 15  1  0
 10  5  1  0
 15 11  1  0
  4 16  1  0
  4 17  1  0
  6 18  1  0
  7 19  1  0
  8 20  1  0
  9 21  1  0
 10 22  1  0
 12 23  1  0
 12 24  1  0
 13 25  1  0
 13 26  1  0
 14 27  1  0
 14 28  1  0
 15 29  1  0
 15 30  1  0
M  END
>  <UniqueID>  (59) 
26

>  <SMILES>  (59) 
O=S(=O)(Cc1ccccc1)N1CCCC1

>  <Energy>  (59) 
25.674625338423102

>  <Genealogy>  (59) 
O=S(=O)(Cc1ccccc1)N1CCCC1 (3D coordinates assigned)
O=S(=O)(Cc1ccccc1)N1CCCC1 (nonaromatic ring conformer: 25.674625338423102 kcal/mol)

>  <smiles>  (59) 
O=S(=O)(Cc1ccccc1)N1CCCC1

>  <score_type>  (59) 
oracle

>  <origin>  (59) 
autodockgpu

>  <m_score__min__energy>  (59) 
-5.8799999999999999

>  <m_primary>  (59) 
energy

>  <meeko>  (59) 
{"free_energy": -5.87, "intermolecular_energy": -6.76, "internal_energy": -0.55, "cluster_size": 18, "cluster_id": 1, "rank_in_cluster": 2}

>  <energy>  (59) 
-5.71

>  <cluster_rmsd>  (59) 
0.0

>  <rmsd>  (59) 
272.46

>  <cluster>  (59) 
2

$$$$
GGXXWZKFDBNAQR-UHFFFAOYNA-N
     RDKit          3D

 30 31  0  0  0  0  0  0  0  0999 V2000
  139.2010   67.0250  224.2390 O   0  0  0  0  0  0  0  0  0  0  0  0
  139.1560   68.3870  224.8720 S   0  0  0  0  0  0  0  0  0  0  0  0
  137.7540   68.6340  225.3520 O   0  0  0  0  0  0  0  0  0  0  0  0
  140.2270   68.3860  226.3180 C   0  0  0  0  0  0  0  0  0  0  0  0
  140.5760   69.7750  226.7730 C   0  0  0  0  0  0  0  0  0  0  0  0
  141.4570   70.5670  226.0180 C   0  0  0  0  0  0  0  0  0  0  0  0
  141.7560   71.8720  226.4240 C   0  0  0  0  0  0  0  0  0  0  0  0
  141.1790   72.3920  227.5860 C   0  0  0  0  0  0  0  0  0  0  0  0
  140.3100   71.6080  228.3470 C   0  0  0  0  0  0  0  0  0  0  0  0
  140.0110   70.3020  227.9470 C   0  0  0  0  0  0  0  0  0  0  0  0
  139.5310   69.5910  223.6560 N   0  0  0  0  0  0  0  0  0  0  0  0
  139.0860   69.2240  222.3060 C   0  0  0  0  0  0  0  0  0  0  0  0
  138.4600   70.4590  221.6690 C   0  0  0  0  0  0  0  0  0  0  0  0
  138.7120   71.5910  222.6420 C   0  0  0  0  0  0  0  0  0  0  0  0
  138.9700   70.9060  223.9670 C   0  0  0  0  0  0  0  0  0  0  0  0
  139.7125   67.8643  227.1384 H   0  0  0  0  0  0  0  0  0  0  0  0
  141.1630   67.8783  226.0419 H   0  0  0  0  0  0  0  0  0  0  0  0
  141.9136   70.1595  225.1040 H   0  0  0  0  0  0  0  0  0  0  0  0
  142.4452   72.4889  225.8287 H   0  0  0  0  0  0  0  0  0  0  0  0
  141.4099   73.4202  227.9013 H   0  0  0  0  0  0  0  0  0  0  0  0
  139.8597   72.0184  229.2629 H   0  0  0  0  0  0  0  0  0  0  0  0
  139.3314   69.6850  228.5532 H   0  0  0  0  0  0  0  0  0  0  0  0
  139.9456   68.8891  221.7069 H   0  0  0  0  0  0  0  0  0  0  0  0
  138.3547   68.4037  222.3527 H   0  0  0  0  0  0  0  0  0  0  0  0
  138.9340   70.6731  220.6997 H   0  0  0  0  0  0  0  0  0  0  0  0
  137.3860   70.3182  221.4777 H   0  0  0  0  0  0  0  0  0  0  0  0
  139.5875   72.1809  222.3330 H   0  0  0  0  0  0  0  0  0  0  0  0
  137.8666   72.2929  222.6931 H   0  0  0  0  0  0  0  0  0  0  0  0
  139.6843   71.4917  224.5642 H   0  0  0  0  0  0  0  0  0  0  0  0
  138.0434   70.8134  224.5525 H   0  0  0  0  0  0  0  0  0  0  0  0
  1  2  2  0
  2  3  2  0
  2  4  1  0
  4  5  1  0
  5  6  2  0
  6  7  1  0
  7  8  2  0
  8  9  1  0
  9 10  2  0
  2 11  1  0
 11 12  1  0
 12 13  1  0
 13 14  1  0
 14 15  1  0
 10  5  1  0
 15 11  1  0
  4 16  1  0
  4 17  1  0
  6 18  1  0
  7 19  1  0
  8 20  1  0
  9 21  1  0
 10 22  1  0
 12 23  1  0
 12 24  1  0
 13 25  1  0
 13 26  1  0
 14 27  1  0
 14 28  1  0
 15 29  1  0
 15 30  1  0
M  END
>  <UniqueID>  (60) 
26

>  <SMILES>  (60) 
O=S(=O)(Cc1ccccc1)N1CCCC1

>  <Energy>  (60) 
25.674625338423102

>  <Genealogy>  (60) 
O=S(=O)(Cc1ccccc1)N1CCCC1 (3D coordinates assigned)
O=S(=O)(Cc1ccccc1)N1CCCC1 (nonaromatic ring conformer: 25.674625338423102 kcal/mol)

>  <smiles>  (60) 
O=S(=O)(Cc1ccccc1)N1CCCC1

>  <score_type>  (60) 
oracle

>  <origin>  (60) 
autodockgpu

>  <m_score__min__energy>  (60) 
-5.8799999999999999

>  <m_primary>  (60) 
energy

>  <meeko>  (60) 
{"free_energy": -5.74, "intermolecular_energy": -6.63, "internal_energy": -0.68, "cluster_size": 18, "cluster_id": 1, "rank_in_cluster": 9}

>  <energy>  (60) 
-4.62

>  <cluster_rmsd>  (60) 
0.0

>  <rmsd>  (60) 
274.21

>  <cluster>  (60) 
3

$$$$
GGXXWZKFDBNAQR-UHFFFAOYNA-N
     RDKit          3D

 30 31  0  0  0  0  0  0  0  0999 V2000
  139.5750   67.0110  224.3070 O   0  0  0  0  0  0  0  0  0  0  0  0
  139.3080   67.8330  225.5370 S   0  0  0  0  0  0  0  0  0  0  0  0
  138.4730   67.0110  226.4760 O   0  0  0  0  0  0  0  0  0  0  0  0
  140.8750   68.1640  226.3580 C   0  0  0  0  0  0  0  0  0  0  0  0
  141.0310   69.6120  226.7300 C   0  0  0  0  0  0  0  0  0  0  0  0
  141.4440   70.5490  225.7670 C   0  0  0  0  0  0  0  0  0  0  0  0
  141.5570   71.9010  226.1040 C   0  0  0  0  0  0  0  0  0  0  0  0
  141.2630   72.3260  227.4020 C   0  0  0  0  0  0  0  0  0  0  0  0
  140.8620   71.4000  228.3670 C   0  0  0  0  0  0  0  0  0  0  0  0
  140.7500   70.0460  228.0360 C   0  0  0  0  0  0  0  0  0  0  0  0
  138.3800   69.2480  225.0840 N   0  0  0  0  0  0  0  0  0  0  0  0
  138.8240   69.8670  223.8300 C   0  0  0  0  0  0  0  0  0  0  0  0
  137.5810   70.2260  223.0220 C   0  0  0  0  0  0  0  0  0  0  0  0
  136.4060   69.9400  223.9330 C   0  0  0  0  0  0  0  0  0  0  0  0
  136.9480   68.9720  224.9630 C   0  0  0  0  0  0  0  0  0  0  0  0
  140.9300   67.5561  227.2731 H   0  0  0  0  0  0  0  0  0  0  0  0
  141.6825   67.9086  225.6561 H   0  0  0  0  0  0  0  0  0  0  0  0
  141.6790   70.2173  224.7449 H   0  0  0  0  0  0  0  0  0  0  0  0
  141.8778   72.6311  225.3463 H   0  0  0  0  0  0  0  0  0  0  0  0
  141.3475   73.3910  227.6639 H   0  0  0  0  0  0  0  0  0  0  0  0
  140.6338   71.7361  229.3892 H   0  0  0  0  0  0  0  0  0  0  0  0
  140.4408   69.3184  228.8009 H   0  0  0  0  0  0  0  0  0  0  0  0
  139.4051   70.7756  224.0463 H   0  0  0  0  0  0  0  0  0  0  0  0
  139.4632   69.1733  223.2641 H   0  0  0  0  0  0  0  0  0  0  0  0
  137.5994   71.2895  222.7415 H   0  0  0  0  0  0  0  0  0  0  0  0
  137.5218   69.6478  222.0881 H   0  0  0  0  0  0  0  0  0  0  0  0
  136.0548   70.8641  224.4155 H   0  0  0  0  0  0  0  0  0  0  0  0
  135.5448   69.5284  223.3863 H   0  0  0  0  0  0  0  0  0  0  0  0
  136.4484   69.1282  225.9304 H   0  0  0  0  0  0  0  0  0  0  0  0
  136.7693   67.9297  224.6602 H   0  0  0  0  0  0  0  0  0  0  0  0
  1  2  2  0
  2  3  2  0
  2  4  1  0
  4  5  1  0
  5  6  2  0
  6  7  1  0
  7  8  2  0
  8  9  1  0
  9 10  2  0
  2 11  1  0
 11 12  1  0
 12 13  1  0
 13 14  1  0
 14 15  1  0
 10  5  1  0
 15 11  1  0
  4 16  1  0
  4 17  1  0
  6 18  1  0
  7 19  1  0
  8 20  1  0
  9 21  1  0
 10 22  1  0
 12 23  1  0
 12 24  1  0
 13 25  1  0
 13 26  1  0
 14 27  1  0
 14 28  1  0
 15 29  1  0
 15 30  1  0
M  END
>  <UniqueID>  (61) 
27

>  <SMILES>  (61) 
O=S(=O)(Cc1ccccc1)N1CCCC1

>  <Energy>  (61) 
25.972949557357772

>  <Genealogy>  (61) 
O=S(=O)(Cc1ccccc1)N1CCCC1 (3D coordinates assigned)
O=S(=O)(Cc1ccccc1)N1CCCC1 (nonaromatic ring conformer: 25.972949557357772 kcal/mol)

>  <smiles>  (61) 
O=S(=O)(Cc1ccccc1)N1CCCC1

>  <score_type>  (61) 
oracle

>  <origin>  (61) 
autodockgpu

>  <m_score__min__energy>  (61) 
-5.8799999999999999

>  <m_primary>  (61) 
energy

>  <meeko>  (61) 
{"free_energy": -5.86, "intermolecular_energy": -6.75, "internal_energy": -0.7, "cluster_size": 18, "cluster_id": 1, "rank_in_cluster": 4}

>  <energy>  (61) 
-5.88

>  <cluster_rmsd>  (61) 
0.0

>  <rmsd>  (61) 
273.48

>  <cluster>  (61) 
1

$$$$
GGXXWZKFDBNAQR-UHFFFAOYNA-N
     RDKit          3D

 30 31  0  0  0  0  0  0  0  0999 V2000
  139.5320   67.3860  225.3440 O   0  0  0  0  0  0  0  0  0  0  0  0
  138.8580   68.4770  224.5610 S   0  0  0  0  0  0  0  0  0  0  0  0
  137.6410   68.9170  225.3240 O   0  0  0  0  0  0  0  0  0  0  0  0
  139.9710   69.8870  224.4630 C   0  0  0  0  0  0  0  0  0  0  0  0
  140.2910   70.4590  225.8160 C   0  0  0  0  0  0  0  0  0  0  0  0
  139.8810   69.7900  226.9820 C   0  0  0  0  0  0  0  0  0  0  0  0
  140.2070   70.3050  228.2410 C   0  0  0  0  0  0  0  0  0  0  0  0
  140.9390   71.4900  228.3440 C   0  0  0  0  0  0  0  0  0  0  0  0
  141.3410   72.1660  227.1910 C   0  0  0  0  0  0  0  0  0  0  0  0
  141.0160   71.6570  225.9300 C   0  0  0  0  0  0  0  0  0  0  0  0
  138.3260   67.8270  223.0230 N   0  0  0  0  0  0  0  0  0  0  0  0
  138.6690   68.6750  221.8760 C   0  0  0  0  0  0  0  0  0  0  0  0
  139.1830   67.7680  220.7630 C   0  0  0  0  0  0  0  0  0  0  0  0
  138.9660   66.3530  221.2580 C   0  0  0  0  0  0  0  0  0  0  0  0
  138.8520   66.4870  222.7610 C   0  0  0  0  0  0  0  0  0  0  0  0
  140.9079   69.5651  223.9849 H   0  0  0  0  0  0  0  0  0  0  0  0
  139.4686   70.6711  223.8774 H   0  0  0  0  0  0  0  0  0  0  0  0
  139.3017   68.8581  226.9043 H   0  0  0  0  0  0  0  0  0  0  0  0
  139.8866   69.7762  229.1508 H   0  0  0  0  0  0  0  0  0  0  0  0
  141.1989   71.8909  229.3348 H   0  0  0  0  0  0  0  0  0  0  0  0
  141.9146   73.1009  227.2745 H   0  0  0  0  0  0  0  0  0  0  0  0
  141.3291   72.1964  225.0239 H   0  0  0  0  0  0  0  0  0  0  0  0
  137.7768   69.2194  221.5331 H   0  0  0  0  0  0  0  0  0  0  0  0
  139.4369   69.4104  222.1579 H   0  0  0  0  0  0  0  0  0  0  0  0
  138.6183   67.9410  219.8350 H   0  0  0  0  0  0  0  0  0  0  0  0
  140.2417   67.9620  220.5360 H   0  0  0  0  0  0  0  0  0  0  0  0
  138.0426   65.9310  220.8347 H   0  0  0  0  0  0  0  0  0  0  0  0
  139.7815   65.6775  220.9603 H   0  0  0  0  0  0  0  0  0  0  0  0
  138.1653   65.7253  223.1589 H   0  0  0  0  0  0  0  0  0  0  0  0
  139.8281   66.3421  223.2471 H   0  0  0  0  0  0  0  0  0  0  0  0
  1  2  2  0
  2  3  2  0
  2  4  1  0
  4  5  1  0
  5  6  2  0
  6  7  1  0
  7  8  2  0
  8  9  1  0
  9 10  2  0
  2 11  1  0
 11 12  1  0
 12 13  1  0
 13 14  1  0
 14 15  1  0
 10  5  1  0
 15 11  1  0
  4 16  1  0
  4 17  1  0
  6 18  1  0
  7 19  1  0
  8 20  1  0
  9 21  1  0
 10 22  1  0
 12 23  1  0
 12 24  1  0
 13 25  1  0
 13 26  1  0
 14 27  1  0
 14 28  1  0
 15 29  1  0
 15 30  1  0
M  END
>  <UniqueID>  (62) 
27

>  <SMILES>  (62) 
O=S(=O)(Cc1ccccc1)N1CCCC1

>  <Energy>  (62) 
25.972949557357772

>  <Genealogy>  (62) 
O=S(=O)(Cc1ccccc1)N1CCCC1 (3D coordinates assigned)
O=S(=O)(Cc1ccccc1)N1CCCC1 (nonaromatic ring conformer: 25.972949557357772 kcal/mol)

>  <smiles>  (62) 
O=S(=O)(Cc1ccccc1)N1CCCC1

>  <score_type>  (62) 
oracle

>  <origin>  (62) 
autodockgpu

>  <m_score__min__energy>  (62) 
-5.8799999999999999

>  <m_primary>  (62) 
energy

>  <meeko>  (62) 
{"free_energy": -5.71, "intermolecular_energy": -6.6, "internal_energy": -0.43, "cluster_size": 1, "cluster_id": 2, "rank_in_cluster": 1}

>  <energy>  (62) 
-5.87

>  <cluster_rmsd>  (62) 
0.43

>  <rmsd>  (62) 
273.34

>  <cluster>  (62) 
1

$$$$
GGXXWZKFDBNAQR-UHFFFAOYNA-N
     RDKit          3D

 30 31  0  0  0  0  0  0  0  0999 V2000
  139.2010   67.0330  224.1680 O   0  0  0  0  0  0  0  0  0  0  0  0
  139.1230   68.3710  224.8480 S   0  0  0  0  0  0  0  0  0  0  0  0
  137.7210   68.5560  225.3550 O   0  0  0  0  0  0  0  0  0  0  0  0
  140.2150   68.3540  226.2780 C   0  0  0  0  0  0  0  0  0  0  0  0
  140.5610   69.7380  226.7510 C   0  0  0  0  0  0  0  0  0  0  0  0
  141.4290   70.5470  225.9980 C   0  0  0  0  0  0  0  0  0  0  0  0
  141.7240   71.8470  226.4200 C   0  0  0  0  0  0  0  0  0  0  0  0
  141.1590   72.3460  227.5960 C   0  0  0  0  0  0  0  0  0  0  0  0
  140.3030   71.5450  228.3550 C   0  0  0  0  0  0  0  0  0  0  0  0
  140.0070   70.2440  227.9380 C   0  0  0  0  0  0  0  0  0  0  0  0
  139.4420   69.6270  223.6690 N   0  0  0  0  0  0  0  0  0  0  0  0
  139.0190   69.2780  222.3080 C   0  0  0  0  0  0  0  0  0  0  0  0
  138.3350   70.5000  221.7040 C   0  0  0  0  0  0  0  0  0  0  0  0
  138.5280   71.6140  222.7120 C   0  0  0  0  0  0  0  0  0  0  0  0
  138.8170   70.9040  224.0170 C   0  0  0  0  0  0  0  0  0  0  0  0
  139.7162   67.8151  227.0970 H   0  0  0  0  0  0  0  0  0  0  0  0
  141.1503   67.8578  225.9799 H   0  0  0  0  0  0  0  0  0  0  0  0
  141.8781   70.1560  225.0731 H   0  0  0  0  0  0  0  0  0  0  0  0
  142.4016   72.4773  225.8254 H   0  0  0  0  0  0  0  0  0  0  0  0
  141.3884   73.3704  227.9244 H   0  0  0  0  0  0  0  0  0  0  0  0
  139.8610   71.9384  229.2823 H   0  0  0  0  0  0  0  0  0  0  0  0
  139.3375   69.6141  228.5421 H   0  0  0  0  0  0  0  0  0  0  0  0
  139.8954   69.0026  221.7029 H   0  0  0  0  0  0  0  0  0  0  0  0
  138.3283   68.4221  222.3281 H   0  0  0  0  0  0  0  0  0  0  0  0
  138.8014   70.7658  220.7439 H   0  0  0  0  0  0  0  0  0  0  0  0
  137.2699   70.3127  221.5030 H   0  0  0  0  0  0  0  0  0  0  0  0
  139.3735   72.2559  222.4239 H   0  0  0  0  0  0  0  0  0  0  0  0
  137.6481   72.2706  222.7809 H   0  0  0  0  0  0  0  0  0  0  0  0
  139.5011   71.5059  224.6331 H   0  0  0  0  0  0  0  0  0  0  0  0
  137.8952   70.7494  224.5970 H   0  0  0  0  0  0  0  0  0  0  0  0
  1  2  2  0
  2  3  2  0
  2  4  1  0
  4  5  1  0
  5  6  2  0
  6  7  1  0
  7  8  2  0
  8  9  1  0
  9 10  2  0
  2 11  1  0
 11 12  1  0
 12 13  1  0
 13 14  1  0
 14 15  1  0
 10  5  1  0
 15 11  1  0
  4 16  1  0
  4 17  1  0
  6 18  1  0
  7 19  1  0
  8 20  1  0
  9 21  1  0
 10 22  1  0
 12 23  1  0
 12 24  1  0
 13 25  1  0
 13 26  1  0
 14 27  1  0
 14 28  1  0
 15 29  1  0
 15 30  1  0
M  END
>  <UniqueID>  (63) 
27

>  <SMILES>  (63) 
O=S(=O)(Cc1ccccc1)N1CCCC1

>  <Energy>  (63) 
25.972949557357772

>  <Genealogy>  (63) 
O=S(=O)(Cc1ccccc1)N1CCCC1 (3D coordinates assigned)
O=S(=O)(Cc1ccccc1)N1CCCC1 (nonaromatic ring conformer: 25.972949557357772 kcal/mol)

>  <smiles>  (63) 
O=S(=O)(Cc1ccccc1)N1CCCC1

>  <score_type>  (63) 
oracle

>  <origin>  (63) 
autodockgpu

>  <m_score__min__energy>  (63) 
-5.8799999999999999

>  <m_primary>  (63) 
energy

>  <meeko>  (63) 
{"free_energy": -5.71, "intermolecular_energy": -6.6, "internal_energy": -0.69, "cluster_size": 18, "cluster_id": 1, "rank_in_cluster": 15}

>  <energy>  (63) 
-5.87

>  <cluster_rmsd>  (63) 
0.11

>  <rmsd>  (63) 
273.39

>  <cluster>  (63) 
1

$$$$
GGXXWZKFDBNAQR-UHFFFAOYNA-N
     RDKit          3D

 30 31  0  0  0  0  0  0  0  0999 V2000
  139.2250   67.0770  224.4390 O   0  0  0  0  0  0  0  0  0  0  0  0
  139.1260   68.4550  225.0320 S   0  0  0  0  0  0  0  0  0  0  0  0
  137.6920   68.7030  225.4020 O   0  0  0  0  0  0  0  0  0  0  0  0
  140.0900   68.4980  226.5510 C   0  0  0  0  0  0  0  0  0  0  0  0
  140.5100   69.8920  226.9230 C   0  0  0  0  0  0  0  0  0  0  0  0
  141.4460   70.5840  226.1360 C   0  0  0  0  0  0  0  0  0  0  0  0
  141.8120   71.8930  226.4630 C   0  0  0  0  0  0  0  0  0  0  0  0
  141.2480   72.5190  227.5770 C   0  0  0  0  0  0  0  0  0  0  0  0
  140.3240   71.8360  228.3710 C   0  0  0  0  0  0  0  0  0  0  0  0
  139.9580   70.5260  228.0500 C   0  0  0  0  0  0  0  0  0  0  0  0
  139.5820   69.6310  223.8150 N   0  0  0  0  0  0  0  0  0  0  0  0
  139.1920   69.2490  222.4530 C   0  0  0  0  0  0  0  0  0  0  0  0
  138.6210   70.4860  221.7680 C   0  0  0  0  0  0  0  0  0  0  0  0
  138.8510   71.6290  222.7330 C   0  0  0  0  0  0  0  0  0  0  0  0
  139.0350   70.9620  224.0790 C   0  0  0  0  0  0  0  0  0  0  0  0
  139.4813   68.0825  227.3677 H   0  0  0  0  0  0  0  0  0  0  0  0
  141.0020   67.9053  226.3866 H   0  0  0  0  0  0  0  0  0  0  0  0
  141.8928   70.0935  225.2586 H   0  0  0  0  0  0  0  0  0  0  0  0
  142.5445   72.4302  225.8427 H   0  0  0  0  0  0  0  0  0  0  0  0
  141.5320   73.5513  227.8293 H   0  0  0  0  0  0  0  0  0  0  0  0
  139.8839   72.3297  229.2500 H   0  0  0  0  0  0  0  0  0  0  0  0
  139.2352   69.9888  228.6816 H   0  0  0  0  0  0  0  0  0  0  0  0
  140.0710   68.8869  221.8996 H   0  0  0  0  0  0  0  0  0  0  0  0
  138.4431   68.4438  222.4791 H   0  0  0  0  0  0  0  0  0  0  0  0
  139.1432   70.6744  220.8184 H   0  0  0  0  0  0  0  0  0  0  0  0
  137.5541   70.3631  221.5298 H   0  0  0  0  0  0  0  0  0  0  0  0
  139.7511   72.1968  222.4548 H   0  0  0  0  0  0  0  0  0  0  0  0
  138.0181   72.3476  222.7342 H   0  0  0  0  0  0  0  0  0  0  0  0
  139.7338   71.5435  224.6983 H   0  0  0  0  0  0  0  0  0  0  0  0
  138.0814   70.8980  224.6235 H   0  0  0  0  0  0  0  0  0  0  0  0
  1  2  2  0
  2  3  2  0
  2  4  1  0
  4  5  1  0
  5  6  2  0
  6  7  1  0
  7  8  2  0
  8  9  1  0
  9 10  2  0
  2 11  1  0
 11 12  1  0
 12 13  1  0
 13 14  1  0
 14 15  1  0
 10  5  1  0
 15 11  1  0
  4 16  1  0
  4 17  1  0
  6 18  1  0
  7 19  1  0
  8 20  1  0
  9 21  1  0
 10 22  1  0
 12 23  1  0
 12 24  1  0
 13 25  1  0
 13 26  1  0
 14 27  1  0
 14 28  1  0
 15 29  1  0
 15 30  1  0
M  END
>  <UniqueID>  (64) 
27

>  <SMILES>  (64) 
O=S(=O)(Cc1ccccc1)N1CCCC1

>  <Energy>  (64) 
25.972949557357772

>  <Genealogy>  (64) 
O=S(=O)(Cc1ccccc1)N1CCCC1 (3D coordinates assigned)
O=S(=O)(Cc1ccccc1)N1CCCC1 (nonaromatic ring conformer: 25.972949557357772 kcal/mol)

>  <smiles>  (64) 
O=S(=O)(Cc1ccccc1)N1CCCC1

>  <score_type>  (64) 
oracle

>  <origin>  (64) 
autodockgpu

>  <m_score__min__energy>  (64) 
-5.8799999999999999

>  <m_primary>  (64) 
energy

>  <meeko>  (64) 
{"free_energy": -5.76, "intermolecular_energy": -6.66, "internal_energy": -0.67, "cluster_size": 18, "cluster_id": 1, "rank_in_cluster": 7}

>  <energy>  (64) 
-5.86

>  <cluster_rmsd>  (64) 
0.4

>  <rmsd>  (64) 
273.32

>  <cluster>  (64) 
1

$$$$
GGXXWZKFDBNAQR-UHFFFAOYNA-N
     RDKit          3D

 30 31  0  0  0  0  0  0  0  0999 V2000
  139.1970   67.0000  224.1430 O   0  0  0  0  0  0  0  0  0  0  0  0
  139.1350   68.3450  224.8110 S   0  0  0  0  0  0  0  0  0  0  0  0
  137.7460   68.5370  225.3500 O   0  0  0  0  0  0  0  0  0  0  0  0
  140.2620   68.3430  226.2130 C   0  0  0  0  0  0  0  0  0  0  0  0
  140.5600   69.7310  226.7090 C   0  0  0  0  0  0  0  0  0  0  0  0
  141.4050   70.5790  225.9740 C   0  0  0  0  0  0  0  0  0  0  0  0
  141.6560   71.8810  226.4180 C   0  0  0  0  0  0  0  0  0  0  0  0
  141.0690   72.3430  227.5980 C   0  0  0  0  0  0  0  0  0  0  0  0
  140.2360   71.5030  228.3400 C   0  0  0  0  0  0  0  0  0  0  0  0
  139.9840   70.2000  227.9020 C   0  0  0  0  0  0  0  0  0  0  0  0
  139.4250   69.5890  223.6110 N   0  0  0  0  0  0  0  0  0  0  0  0
  138.9490   69.2340  222.2680 C   0  0  0  0  0  0  0  0  0  0  0  0
  138.2570   70.4590  221.6800 C   0  0  0  0  0  0  0  0  0  0  0  0
  138.5000   71.5780  222.6710 C   0  0  0  0  0  0  0  0  0  0  0  0
  138.8280   70.8750  223.9700 C   0  0  0  0  0  0  0  0  0  0  0  0
  139.8074   67.7652  227.0312 H   0  0  0  0  0  0  0  0  0  0  0  0
  141.2098   67.8938  225.8816 H   0  0  0  0  0  0  0  0  0  0  0  0
  141.8711   70.2174  225.0455 H   0  0  0  0  0  0  0  0  0  0  0  0
  142.3164   72.5419  225.8374 H   0  0  0  0  0  0  0  0  0  0  0  0
  141.2630   73.3693  227.9432 H   0  0  0  0  0  0  0  0  0  0  0  0
  139.7773   71.8676  229.2710 H   0  0  0  0  0  0  0  0  0  0  0  0
  139.3326   69.5393  228.4930 H   0  0  0  0  0  0  0  0  0  0  0  0
  139.7998   68.9444  221.6338 H   0  0  0  0  0  0  0  0  0  0  0  0
  138.2505   68.3858  222.3196 H   0  0  0  0  0  0  0  0  0  0  0  0
  138.6903   70.7120  220.7011 H   0  0  0  0  0  0  0  0  0  0  0  0
  137.1831   70.2826  221.5201 H   0  0  0  0  0  0  0  0  0  0  0  0
  139.3420   72.2073  222.3470 H   0  0  0  0  0  0  0  0  0  0  0  0
  137.6311   72.2457  222.7666 H   0  0  0  0  0  0  0  0  0  0  0  0
  139.5408   71.4738  224.5560 H   0  0  0  0  0  0  0  0  0  0  0  0
  137.9260   70.7356  224.5839 H   0  0  0  0  0  0  0  0  0  0  0  0
  1  2  2  0
  2  3  2  0
  2  4  1  0
  4  5  1  0
  5  6  2  0
  6  7  1  0
  7  8  2  0
  8  9  1  0
  9 10  2  0
  2 11  1  0
 11 12  1  0
 12 13  1  0
 13 14  1  0
 14 15  1  0
 10  5  1  0
 15 11  1  0
  4 16  1  0
  4 17  1  0
  6 18  1  0
  7 19  1  0
  8 20  1  0
  9 21  1  0
 10 22  1  0
 12 23  1  0
 12 24  1  0
 13 25  1  0
 13 26  1  0
 14 27  1  0
 14 28  1  0
 15 29  1  0
 15 30  1  0
M  END
>  <UniqueID>  (65) 
27

>  <SMILES>  (65) 
O=S(=O)(Cc1ccccc1)N1CCCC1

>  <Energy>  (65) 
25.972949557357772

>  <Genealogy>  (65) 
O=S(=O)(Cc1ccccc1)N1CCCC1 (3D coordinates assigned)
O=S(=O)(Cc1ccccc1)N1CCCC1 (nonaromatic ring conformer: 25.972949557357772 kcal/mol)

>  <smiles>  (65) 
O=S(=O)(Cc1ccccc1)N1CCCC1

>  <score_type>  (65) 
oracle

>  <origin>  (65) 
autodockgpu

>  <m_score__min__energy>  (65) 
-5.8799999999999999

>  <m_primary>  (65) 
energy

>  <meeko>  (65) 
{"free_energy": -5.7, "intermolecular_energy": -6.59, "internal_energy": -0.69, "cluster_size": 18, "cluster_id": 1, "rank_in_cluster": 16}

>  <energy>  (65) 
-5.85

>  <cluster_rmsd>  (65) 
0.2

>  <rmsd>  (65) 
273.35

>  <cluster>  (65) 
1

$$$$
GGXXWZKFDBNAQR-UHFFFAOYNA-N
     RDKit          3D

 30 31  0  0  0  0  0  0  0  0999 V2000
  139.2980   67.0440  224.4130 O   0  0  0  0  0  0  0  0  0  0  0  0
  139.0910   68.4050  225.0160 S   0  0  0  0  0  0  0  0  0  0  0  0
  137.6330   68.5540  225.3460 O   0  0  0  0  0  0  0  0  0  0  0  0
  140.0050   68.4930  226.5640 C   0  0  0  0  0  0  0  0  0  0  0  0
  140.4320   69.8950  226.8980 C   0  0  0  0  0  0  0  0  0  0  0  0
  139.9450   70.5260  228.0550 C   0  0  0  0  0  0  0  0  0  0  0  0
  140.3680   71.8180  228.3830 C   0  0  0  0  0  0  0  0  0  0  0  0
  141.2750   72.4880  227.5590 C   0  0  0  0  0  0  0  0  0  0  0  0
  141.7560   71.8720  226.4010 C   0  0  0  0  0  0  0  0  0  0  0  0
  141.3340   70.5820  226.0680 C   0  0  0  0  0  0  0  0  0  0  0  0
  139.5040   69.6230  223.8260 N   0  0  0  0  0  0  0  0  0  0  0  0
  139.1930   69.2280  222.4470 C   0  0  0  0  0  0  0  0  0  0  0  0
  138.5590   70.4260  221.7500 C   0  0  0  0  0  0  0  0  0  0  0  0
  138.6690   71.5740  222.7320 C   0  0  0  0  0  0  0  0  0  0  0  0
  138.8510   70.9080  224.0790 C   0  0  0  0  0  0  0  0  0  0  0  0
  139.3640   68.1163  227.3747 H   0  0  0  0  0  0  0  0  0  0  0  0
  140.9136   67.8831  226.4523 H   0  0  0  0  0  0  0  0  0  0  0  0
  139.2287   70.0021  228.7049 H   0  0  0  0  0  0  0  0  0  0  0  0
  139.9859   72.3071  229.2911 H   0  0  0  0  0  0  0  0  0  0  0  0
  141.6110   73.5018  227.8221 H   0  0  0  0  0  0  0  0  0  0  0  0
  142.4673   72.4026  225.7510 H   0  0  0  0  0  0  0  0  0  0  0  0
  141.7096   70.1023  225.1521 H   0  0  0  0  0  0  0  0  0  0  0  0
  140.1159   68.9364  221.9243 H   0  0  0  0  0  0  0  0  0  0  0  0
  138.5039   68.3706  222.4394 H   0  0  0  0  0  0  0  0  0  0  0  0
  139.1008   70.6613  220.8220 H   0  0  0  0  0  0  0  0  0  0  0  0
  137.5136   70.2281  221.4708 H   0  0  0  0  0  0  0  0  0  0  0  0
  139.5350   72.2084  222.4923 H   0  0  0  0  0  0  0  0  0  0  0  0
  137.7867   72.2304  222.7070 H   0  0  0  0  0  0  0  0  0  0  0  0
  139.4815   71.5325  224.7290 H   0  0  0  0  0  0  0  0  0  0  0  0
  137.8848   70.7686  224.5861 H   0  0  0  0  0  0  0  0  0  0  0  0
  1  2  2  0
  2  3  2  0
  2  4  1  0
  4  5  1  0
  5  6  2  0
  6  7  1  0
  7  8  2  0
  8  9  1  0
  9 10  2  0
  2 11  1  0
 11 12  1  0
 12 13  1  0
 13 14  1  0
 14 15  1  0
 10  5  1  0
 15 11  1  0
  4 16  1  0
  4 17  1  0
  6 18  1  0
  7 19  1  0
  8 20  1  0
  9 21  1  0
 10 22  1  0
 12 23  1  0
 12 24  1  0
 13 25  1  0
 13 26  1  0
 14 27  1  0
 14 28  1  0
 15 29  1  0
 15 30  1  0
M  END
>  <UniqueID>  (66) 
27

>  <SMILES>  (66) 
O=S(=O)(Cc1ccccc1)N1CCCC1

>  <Energy>  (66) 
25.972949557357772

>  <Genealogy>  (66) 
O=S(=O)(Cc1ccccc1)N1CCCC1 (3D coordinates assigned)
O=S(=O)(Cc1ccccc1)N1CCCC1 (nonaromatic ring conformer: 25.972949557357772 kcal/mol)

>  <smiles>  (66) 
O=S(=O)(Cc1ccccc1)N1CCCC1

>  <score_type>  (66) 
oracle

>  <origin>  (66) 
autodockgpu

>  <m_score__min__energy>  (66) 
-5.8799999999999999

>  <m_primary>  (66) 
energy

>  <meeko>  (66) 
{"free_energy": -5.71, "intermolecular_energy": -6.61, "internal_energy": -0.65, "cluster_size": 18, "cluster_id": 1, "rank_in_cluster": 13}

>  <energy>  (66) 
-5.81

>  <cluster_rmsd>  (66) 
0.14

>  <rmsd>  (66) 
273.37

>  <cluster>  (66) 
1

$$$$
GGXXWZKFDBNAQR-UHFFFAOYNA-N
     RDKit          3D

 30 31  0  0  0  0  0  0  0  0999 V2000
  139.5060   67.1240  224.3030 O   0  0  0  0  0  0  0  0  0  0  0  0
  139.2430   67.8940  225.5670 S   0  0  0  0  0  0  0  0  0  0  0  0
  138.4530   67.0160  226.4950 O   0  0  0  0  0  0  0  0  0  0  0  0
  140.8170   68.2430  226.3660 C   0  0  0  0  0  0  0  0  0  0  0  0
  140.9290   69.6740  226.8100 C   0  0  0  0  0  0  0  0  0  0  0  0
  141.6680   70.5960  226.0480 C   0  0  0  0  0  0  0  0  0  0  0  0
  141.7450   71.9350  226.4430 C   0  0  0  0  0  0  0  0  0  0  0  0
  141.0880   72.3620  227.6000 C   0  0  0  0  0  0  0  0  0  0  0  0
  140.3600   71.4510  228.3670 C   0  0  0  0  0  0  0  0  0  0  0  0
  140.2820   70.1100  227.9780 C   0  0  0  0  0  0  0  0  0  0  0  0
  138.2640   69.2960  225.1850 N   0  0  0  0  0  0  0  0  0  0  0  0
  138.9390   70.2650  224.3140 C   0  0  0  0  0  0  0  0  0  0  0  0
  137.9360   70.7240  223.2610 C   0  0  0  0  0  0  0  0  0  0  0  0
  136.6130   70.1050  223.6620 C   0  0  0  0  0  0  0  0  0  0  0  0
  136.9900   68.9440  224.5570 C   0  0  0  0  0  0  0  0  0  0  0  0
  140.9186   67.5910  227.2461 H   0  0  0  0  0  0  0  0  0  0  0  0
  141.6145   68.0562  225.6318 H   0  0  0  0  0  0  0  0  0  0  0  0
  142.1876   70.2626  225.1376 H   0  0  0  0  0  0  0  0  0  0  0  0
  142.3231   72.6528  225.8426 H   0  0  0  0  0  0  0  0  0  0  0  0
  141.1446   73.4169  227.9066 H   0  0  0  0  0  0  0  0  0  0  0  0
  139.8465   71.7886  229.2794 H   0  0  0  0  0  0  0  0  0  0  0  0
  139.7121   69.3943  228.5887 H   0  0  0  0  0  0  0  0  0  0  0  0
  139.2799   71.1267  224.9066 H   0  0  0  0  0  0  0  0  0  0  0  0
  139.8156   69.8049  223.8345 H   0  0  0  0  0  0  0  0  0  0  0  0
  137.8605   71.8214  223.2551 H   0  0  0  0  0  0  0  0  0  0  0  0
  138.2390   70.4172  222.2490 H   0  0  0  0  0  0  0  0  0  0  0  0
  135.9942   70.8317  224.2087 H   0  0  0  0  0  0  0  0  0  0  0  0
  136.0212   69.7855  222.7915 H   0  0  0  0  0  0  0  0  0  0  0  0
  136.2178   68.7908  225.3253 H   0  0  0  0  0  0  0  0  0  0  0  0
  137.0765   68.0110  223.9808 H   0  0  0  0  0  0  0  0  0  0  0  0
  1  2  2  0
  2  3  2  0
  2  4  1  0
  4  5  1  0
  5  6  2  0
  6  7  1  0
  7  8  2  0
  8  9  1  0
  9 10  2  0
  2 11  1  0
 11 12  1  0
 12 13  1  0
 13 14  1  0
 14 15  1  0
 10  5  1  0
 15 11  1  0
  4 16  1  0
  4 17  1  0
  6 18  1  0
  7 19  1  0
  8 20  1  0
  9 21  1  0
 10 22  1  0
 12 23  1  0
 12 24  1  0
 13 25  1  0
 13 26  1  0
 14 27  1  0
 14 28  1  0
 15 29  1  0
 15 30  1  0
M  END
>  <UniqueID>  (67) 
27

>  <SMILES>  (67) 
O=S(=O)(Cc1ccccc1)N1CCCC1

>  <Energy>  (67) 
25.972949557357772

>  <Genealogy>  (67) 
O=S(=O)(Cc1ccccc1)N1CCCC1 (3D coordinates assigned)
O=S(=O)(Cc1ccccc1)N1CCCC1 (nonaromatic ring conformer: 25.972949557357772 kcal/mol)

>  <smiles>  (67) 
O=S(=O)(Cc1ccccc1)N1CCCC1

>  <score_type>  (67) 
oracle

>  <origin>  (67) 
autodockgpu

>  <m_score__min__energy>  (67) 
-5.8799999999999999

>  <m_primary>  (67) 
energy

>  <meeko>  (67) 
{"free_energy": -5.87, "intermolecular_energy": -6.76, "internal_energy": -0.68, "cluster_size": 18, "cluster_id": 1, "rank_in_cluster": 3}

>  <energy>  (67) 
-5.76

>  <cluster_rmsd>  (67) 
1.21

>  <rmsd>  (67) 
273.24

>  <cluster>  (67) 
1

$$$$
GGXXWZKFDBNAQR-UHFFFAOYNA-N
     RDKit          3D

 30 31  0  0  0  0  0  0  0  0999 V2000
  139.5610   67.0460  224.2860 O   0  0  0  0  0  0  0  0  0  0  0  0
  139.2760   67.8630  225.5150 S   0  0  0  0  0  0  0  0  0  0  0  0
  138.4560   67.0250  226.4540 O   0  0  0  0  0  0  0  0  0  0  0  0
  140.8350   68.2270  226.3380 C   0  0  0  0  0  0  0  0  0  0  0  0
  140.9370   69.6660  226.7590 C   0  0  0  0  0  0  0  0  0  0  0  0
  140.3180   70.1020  227.9430 C   0  0  0  0  0  0  0  0  0  0  0  0
  140.4410   71.4340  228.3520 C   0  0  0  0  0  0  0  0  0  0  0  0
  141.1780   72.3370  227.5820 C   0  0  0  0  0  0  0  0  0  0  0  0
  141.7870   71.9140  226.3990 C   0  0  0  0  0  0  0  0  0  0  0  0
  141.6650   70.5850  225.9840 C   0  0  0  0  0  0  0  0  0  0  0  0
  138.3190   69.2580  225.0590 N   0  0  0  0  0  0  0  0  0  0  0  0
  139.0500   70.2310  224.2400 C   0  0  0  0  0  0  0  0  0  0  0  0
  138.1250   70.6830  223.1150 C   0  0  0  0  0  0  0  0  0  0  0  0
  136.7800   70.0560  223.4180 C   0  0  0  0  0  0  0  0  0  0  0  0
  137.0970   68.8980  224.3400 C   0  0  0  0  0  0  0  0  0  0  0  0
  140.9203   67.5905  227.2311 H   0  0  0  0  0  0  0  0  0  0  0  0
  141.6468   68.0279  225.6229 H   0  0  0  0  0  0  0  0  0  0  0  0
  139.7350   69.3936  228.5499 H   0  0  0  0  0  0  0  0  0  0  0  0
  139.9570   71.7707  229.2807 H   0  0  0  0  0  0  0  0  0  0  0  0
  141.2786   73.3827  227.9082 H   0  0  0  0  0  0  0  0  0  0  0  0
  142.3638   72.6279  225.7926 H   0  0  0  0  0  0  0  0  0  0  0  0
  142.1403   70.2572  225.0477 H   0  0  0  0  0  0  0  0  0  0  0  0
  139.3402   71.0952  224.8557 H   0  0  0  0  0  0  0  0  0  0  0  0
  139.9628   69.7766  223.8273 H   0  0  0  0  0  0  0  0  0  0  0  0
  138.0433   71.7799  223.1022 H   0  0  0  0  0  0  0  0  0  0  0  0
  138.5039   70.3775  222.1285 H   0  0  0  0  0  0  0  0  0  0  0  0
  136.1180   70.7793  223.9166 H   0  0  0  0  0  0  0  0  0  0  0  0
  136.2562   69.7320  222.5066 H   0  0  0  0  0  0  0  0  0  0  0  0
  136.2714   68.7411  225.0497 H   0  0  0  0  0  0  0  0  0  0  0  0
  137.2309   67.9649  223.7730 H   0  0  0  0  0  0  0  0  0  0  0  0
  1  2  2  0
  2  3  2  0
  2  4  1  0
  4  5  1  0
  5  6  2  0
  6  7  1  0
  7  8  2  0
  8  9  1  0
  9 10  2  0
  2 11  1  0
 11 12  1  0
 12 13  1  0
 13 14  1  0
 14 15  1  0
 10  5  1  0
 15 11  1  0
  4 16  1  0
  4 17  1  0
  6 18  1  0
  7 19  1  0
  8 20  1  0
  9 21  1  0
 10 22  1  0
 12 23  1  0
 12 24  1  0
 13 25  1  0
 13 26  1  0
 14 27  1  0
 14 28  1  0
 15 29  1  0
 15 30  1  0
M  END
>  <UniqueID>  (68) 
27

>  <SMILES>  (68) 
O=S(=O)(Cc1ccccc1)N1CCCC1

>  <Energy>  (68) 
25.972949557357772

>  <Genealogy>  (68) 
O=S(=O)(Cc1ccccc1)N1CCCC1 (3D coordinates assigned)
O=S(=O)(Cc1ccccc1)N1CCCC1 (nonaromatic ring conformer: 25.972949557357772 kcal/mol)

>  <smiles>  (68) 
O=S(=O)(Cc1ccccc1)N1CCCC1

>  <score_type>  (68) 
oracle

>  <origin>  (68) 
autodockgpu

>  <m_score__min__energy>  (68) 
-5.8799999999999999

>  <m_primary>  (68) 
energy

>  <meeko>  (68) 
{"free_energy": -5.85, "intermolecular_energy": -6.75, "internal_energy": -0.64, "cluster_size": 18, "cluster_id": 1, "rank_in_cluster": 5}

>  <energy>  (68) 
-5.76

>  <cluster_rmsd>  (68) 
1.2

>  <rmsd>  (68) 
273.21

>  <cluster>  (68) 
1

$$$$
GGXXWZKFDBNAQR-UHFFFAOYNA-N
     RDKit          3D

 30 31  0  0  0  0  0  0  0  0999 V2000
  139.2880   67.0640  224.3780 O   0  0  0  0  0  0  0  0  0  0  0  0
  139.1460   68.4290  224.9910 S   0  0  0  0  0  0  0  0  0  0  0  0
  137.7010   68.6340  225.3480 O   0  0  0  0  0  0  0  0  0  0  0  0
  140.0910   68.4740  226.5220 C   0  0  0  0  0  0  0  0  0  0  0  0
  140.5030   69.8690  226.8990 C   0  0  0  0  0  0  0  0  0  0  0  0
  141.4280   70.5720  226.1080 C   0  0  0  0  0  0  0  0  0  0  0  0
  141.7870   71.8820  226.4410 C   0  0  0  0  0  0  0  0  0  0  0  0
  141.2290   72.4970  227.5640 C   0  0  0  0  0  0  0  0  0  0  0  0
  140.3170   71.8010  228.3610 C   0  0  0  0  0  0  0  0  0  0  0  0
  139.9570   70.4910  228.0350 C   0  0  0  0  0  0  0  0  0  0  0  0
  139.5850   69.6360  223.7980 N   0  0  0  0  0  0  0  0  0  0  0  0
  139.2160   69.2680  222.4260 C   0  0  0  0  0  0  0  0  0  0  0  0
  138.6220   70.5020  221.7560 C   0  0  0  0  0  0  0  0  0  0  0  0
  138.8160   71.6340  222.7420 C   0  0  0  0  0  0  0  0  0  0  0  0
  139.0030   70.9490  224.0790 C   0  0  0  0  0  0  0  0  0  0  0  0
  139.4732   68.0571  227.3310 H   0  0  0  0  0  0  0  0  0  0  0  0
  141.0063   67.8833  226.3691 H   0  0  0  0  0  0  0  0  0  0  0  0
  141.8711   70.0901  225.2240 H   0  0  0  0  0  0  0  0  0  0  0  0
  142.5098   72.4288  225.8176 H   0  0  0  0  0  0  0  0  0  0  0  0
  141.5077   73.5296  227.8209 H   0  0  0  0  0  0  0  0  0  0  0  0
  139.8813   72.2854  229.2473 H   0  0  0  0  0  0  0  0  0  0  0  0
  139.2438   69.9445  228.6696 H   0  0  0  0  0  0  0  0  0  0  0  0
  140.1082   68.9360  221.8749 H   0  0  0  0  0  0  0  0  0  0  0  0
  138.4859   68.4453  222.4321 H   0  0  0  0  0  0  0  0  0  0  0  0
  139.1481   70.7185  220.8146 H   0  0  0  0  0  0  0  0  0  0  0  0
  137.5606   70.3579  221.5056 H   0  0  0  0  0  0  0  0  0  0  0  0
  139.7051   72.2272  222.4820 H   0  0  0  0  0  0  0  0  0  0  0  0
  137.9665   72.3328  222.7468 H   0  0  0  0  0  0  0  0  0  0  0  0
  139.6814   71.5367  224.7150 H   0  0  0  0  0  0  0  0  0  0  0  0
  138.0461   70.8528  224.6129 H   0  0  0  0  0  0  0  0  0  0  0  0
  1  2  2  0
  2  3  2  0
  2  4  1  0
  4  5  1  0
  5  6  2  0
  6  7  1  0
  7  8  2  0
  8  9  1  0
  9 10  2  0
  2 11  1  0
 11 12  1  0
 12 13  1  0
 13 14  1  0
 14 15  1  0
 10  5  1  0
 15 11  1  0
  4 16  1  0
  4 17  1  0
  6 18  1  0
  7 19  1  0
  8 20  1  0
  9 21  1  0
 10 22  1  0
 12 23  1  0
 12 24  1  0
 13 25  1  0
 13 26  1  0
 14 27  1  0
 14 28  1  0
 15 29  1  0
 15 30  1  0
M  END
>  <UniqueID>  (69) 
27

>  <SMILES>  (69) 
O=S(=O)(Cc1ccccc1)N1CCCC1

>  <Energy>  (69) 
25.972949557357772

>  <Genealogy>  (69) 
O=S(=O)(Cc1ccccc1)N1CCCC1 (3D coordinates assigned)
O=S(=O)(Cc1ccccc1)N1CCCC1 (nonaromatic ring conformer: 25.972949557357772 kcal/mol)

>  <smiles>  (69) 
O=S(=O)(Cc1ccccc1)N1CCCC1

>  <score_type>  (69) 
oracle

>  <origin>  (69) 
autodockgpu

>  <m_score__min__energy>  (69) 
-5.8799999999999999

>  <m_primary>  (69) 
energy

>  <meeko>  (69) 
{"free_energy": -5.76, "intermolecular_energy": -6.65, "internal_energy": -0.66, "cluster_size": 18, "cluster_id": 1, "rank_in_cluster": 8}

>  <energy>  (69) 
-5.74

>  <cluster_rmsd>  (69) 
1.2

>  <rmsd>  (69) 
273.11

>  <cluster>  (69) 
1

$$$$
GGXXWZKFDBNAQR-UHFFFAOYNA-N
     RDKit          3D

 30 31  0  0  0  0  0  0  0  0999 V2000
  139.5490   67.0140  224.2440 O   0  0  0  0  0  0  0  0  0  0  0  0
  139.3030   68.0550  225.3000 S   0  0  0  0  0  0  0  0  0  0  0  0
  138.7730   67.3640  226.5240 O   0  0  0  0  0  0  0  0  0  0  0  0
  140.8770   68.8060  225.7450 C   0  0  0  0  0  0  0  0  0  0  0  0
  140.7100   69.9800  226.6680 C   0  0  0  0  0  0  0  0  0  0  0  0
  141.4090   71.1750  226.4280 C   0  0  0  0  0  0  0  0  0  0  0  0
  141.2290   72.2780  227.2680 C   0  0  0  0  0  0  0  0  0  0  0  0
  140.3540   72.1950  228.3540 C   0  0  0  0  0  0  0  0  0  0  0  0
  139.6630   71.0070  228.6060 C   0  0  0  0  0  0  0  0  0  0  0  0
  139.8420   69.9010  227.7700 C   0  0  0  0  0  0  0  0  0  0  0  0
  138.0720   69.1630  224.7290 N   0  0  0  0  0  0  0  0  0  0  0  0
  138.5580   70.5360  224.5410 C   0  0  0  0  0  0  0  0  0  0  0  0
  137.9890   71.0550  223.2260 C   0  0  0  0  0  0  0  0  0  0  0  0
  137.0260   69.9880  222.7480 C   0  0  0  0  0  0  0  0  0  0  0  0
  137.4590   68.7320  223.4730 C   0  0  0  0  0  0  0  0  0  0  0  0
  141.5008   68.0499  226.2442 H   0  0  0  0  0  0  0  0  0  0  0  0
  141.3485   69.1703  224.8204 H   0  0  0  0  0  0  0  0  0  0  0  0
  142.1008   71.2430  225.5755 H   0  0  0  0  0  0  0  0  0  0  0  0
  141.7767   73.2119  227.0737 H   0  0  0  0  0  0  0  0  0  0  0  0
  140.2090   73.0653  229.0110 H   0  0  0  0  0  0  0  0  0  0  0  0
  138.9771   70.9419  229.4635 H   0  0  0  0  0  0  0  0  0  0  0  0
  139.3013   68.9654  227.9757 H   0  0  0  0  0  0  0  0  0  0  0  0
  138.2177   71.1707  225.3725 H   0  0  0  0  0  0  0  0  0  0  0  0
  139.6576   70.5549  224.5182 H   0  0  0  0  0  0  0  0  0  0  0  0
  137.4597   72.0060  223.3856 H   0  0  0  0  0  0  0  0  0  0  0  0
  138.7816   71.2474  222.4879 H   0  0  0  0  0  0  0  0  0  0  0  0
  135.9913   70.2519  223.0122 H   0  0  0  0  0  0  0  0  0  0  0  0
  137.0458   69.8670  221.6549 H   0  0  0  0  0  0  0  0  0  0  0  0
  136.5878   68.0919  223.6762 H   0  0  0  0  0  0  0  0  0  0  0  0
  138.1673   68.1487  222.8663 H   0  0  0  0  0  0  0  0  0  0  0  0
  1  2  2  0
  2  3  2  0
  2  4  1  0
  4  5  1  0
  5  6  2  0
  6  7  1  0
  7  8  2  0
  8  9  1  0
  9 10  2  0
  2 11  1  0
 11 12  1  0
 12 13  1  0
 13 14  1  0
 14 15  1  0
 10  5  1  0
 15 11  1  0
  4 16  1  0
  4 17  1  0
  6 18  1  0
  7 19  1  0
  8 20  1  0
  9 21  1  0
 10 22  1  0
 12 23  1  0
 12 24  1  0
 13 25  1  0
 13 26  1  0
 14 27  1  0
 14 28  1  0
 15 29  1  0
 15 30  1  0
M  END
>  <UniqueID>  (70) 
27

>  <SMILES>  (70) 
O=S(=O)(Cc1ccccc1)N1CCCC1

>  <Energy>  (70) 
25.972949557357772

>  <Genealogy>  (70) 
O=S(=O)(Cc1ccccc1)N1CCCC1 (3D coordinates assigned)
O=S(=O)(Cc1ccccc1)N1CCCC1 (nonaromatic ring conformer: 25.972949557357772 kcal/mol)

>  <smiles>  (70) 
O=S(=O)(Cc1ccccc1)N1CCCC1

>  <score_type>  (70) 
oracle

>  <origin>  (70) 
autodockgpu

>  <m_score__min__energy>  (70) 
-5.8799999999999999

>  <m_primary>  (70) 
energy

>  <meeko>  (70) 
{"free_energy": -5.69, "intermolecular_energy": -6.59, "internal_energy": -0.61, "cluster_size": 18, "cluster_id": 1, "rank_in_cluster": 17}

>  <energy>  (70) 
-5.73

>  <cluster_rmsd>  (70) 
1.16

>  <rmsd>  (70) 
273.28

>  <cluster>  (70) 
1

$$$$
GGXXWZKFDBNAQR-UHFFFAOYNA-N
     RDKit          3D

 30 31  0  0  0  0  0  0  0  0999 V2000
  139.2010   67.0270  224.1720 O   0  0  0  0  0  0  0  0  0  0  0  0
  139.2050   68.3910  224.8050 S   0  0  0  0  0  0  0  0  0  0  0  0
  137.8290   68.6620  225.3420 O   0  0  0  0  0  0  0  0  0  0  0  0
  140.3360   68.3710  226.2050 C   0  0  0  0  0  0  0  0  0  0  0  0
  140.6420   69.7520  226.7120 C   0  0  0  0  0  0  0  0  0  0  0  0
  141.4910   70.6020  225.9830 C   0  0  0  0  0  0  0  0  0  0  0  0
  141.7500   71.8990  226.4380 C   0  0  0  0  0  0  0  0  0  0  0  0
  141.1670   72.3550  227.6220 C   0  0  0  0  0  0  0  0  0  0  0  0
  140.3300   71.5130  228.3580 C   0  0  0  0  0  0  0  0  0  0  0  0
  140.0700   70.2150  227.9090 C   0  0  0  0  0  0  0  0  0  0  0  0
  139.5510   69.5880  223.5730 N   0  0  0  0  0  0  0  0  0  0  0  0
  139.0560   69.2210  222.2410 C   0  0  0  0  0  0  0  0  0  0  0  0
  138.4210   70.4610  221.6210 C   0  0  0  0  0  0  0  0  0  0  0  0
  138.7170   71.5930  222.5820 C   0  0  0  0  0  0  0  0  0  0  0  0
  139.0140   70.9090  223.8990 C   0  0  0  0  0  0  0  0  0  0  0  0
  139.8804   67.7883  227.0192 H   0  0  0  0  0  0  0  0  0  0  0  0
  141.2808   67.9200  225.8674 H   0  0  0  0  0  0  0  0  0  0  0  0
  141.9537   70.2459  225.0508 H   0  0  0  0  0  0  0  0  0  0  0  0
  142.4139   72.5607  225.8623 H   0  0  0  0  0  0  0  0  0  0  0  0
  141.3669   73.3774  227.9752 H   0  0  0  0  0  0  0  0  0  0  0  0
  139.8746   71.8721  229.2927 H   0  0  0  0  0  0  0  0  0  0  0  0
  139.4151   69.5535  228.4950 H   0  0  0  0  0  0  0  0  0  0  0  0
  139.8909   68.8750  221.6139 H   0  0  0  0  0  0  0  0  0  0  0  0
  138.3182   68.4085  222.3160 H   0  0  0  0  0  0  0  0  0  0  0  0
  138.8644   70.6677  220.6358 H   0  0  0  0  0  0  0  0  0  0  0  0
  137.3398   70.3306  221.4659 H   0  0  0  0  0  0  0  0  0  0  0  0
  139.5868   72.1739  222.2414 H   0  0  0  0  0  0  0  0  0  0  0  0
  137.8803   72.3028  222.6603 H   0  0  0  0  0  0  0  0  0  0  0  0
  139.7542   71.4892  224.4694 H   0  0  0  0  0  0  0  0  0  0  0  0
  138.1073   70.8269  224.5163 H   0  0  0  0  0  0  0  0  0  0  0  0
  1  2  2  0
  2  3  2  0
  2  4  1  0
  4  5  1  0
  5  6  2  0
  6  7  1  0
  7  8  2  0
  8  9  1  0
  9 10  2  0
  2 11  1  0
 11 12  1  0
 12 13  1  0
 13 14  1  0
 14 15  1  0
 10  5  1  0
 15 11  1  0
  4 16  1  0
  4 17  1  0
  6 18  1  0
  7 19  1  0
  8 20  1  0
  9 21  1  0
 10 22  1  0
 12 23  1  0
 12 24  1  0
 13 25  1  0
 13 26  1  0
 14 27  1  0
 14 28  1  0
 15 29  1  0
 15 30  1  0
M  END
>  <UniqueID>  (71) 
27

>  <SMILES>  (71) 
O=S(=O)(Cc1ccccc1)N1CCCC1

>  <Energy>  (71) 
25.972949557357772

>  <Genealogy>  (71) 
O=S(=O)(Cc1ccccc1)N1CCCC1 (3D coordinates assigned)
O=S(=O)(Cc1ccccc1)N1CCCC1 (nonaromatic ring conformer: 25.972949557357772 kcal/mol)

>  <smiles>  (71) 
O=S(=O)(Cc1ccccc1)N1CCCC1

>  <score_type>  (71) 
oracle

>  <origin>  (71) 
autodockgpu

>  <m_score__min__energy>  (71) 
-5.8799999999999999

>  <m_primary>  (71) 
energy

>  <meeko>  (71) 
{"free_energy": -5.69, "intermolecular_energy": -6.59, "internal_energy": -0.68, "cluster_size": 18, "cluster_id": 1, "rank_in_cluster": 18}

>  <energy>  (71) 
-5.73

>  <cluster_rmsd>  (71) 
1.18

>  <rmsd>  (71) 
273.1

>  <cluster>  (71) 
1

$$$$
GGXXWZKFDBNAQR-UHFFFAOYNA-N
     RDKit          3D

 30 31  0  0  0  0  0  0  0  0999 V2000
  139.4310   67.1190  224.2720 O   0  0  0  0  0  0  0  0  0  0  0  0
  139.2180   67.8890  225.5450 S   0  0  0  0  0  0  0  0  0  0  0  0
  138.4920   67.0000  226.5140 O   0  0  0  0  0  0  0  0  0  0  0  0
  140.8230   68.2720  226.2620 C   0  0  0  0  0  0  0  0  0  0  0  0
  140.9220   69.7030  226.7130 C   0  0  0  0  0  0  0  0  0  0  0  0
  140.3040   70.1130  227.9070 C   0  0  0  0  0  0  0  0  0  0  0  0
  140.4240   71.4360  228.3440 C   0  0  0  0  0  0  0  0  0  0  0  0
  141.1570   72.3570  227.5930 C   0  0  0  0  0  0  0  0  0  0  0  0
  141.7660   71.9600  226.4000 C   0  0  0  0  0  0  0  0  0  0  0  0
  141.6470   70.6390  225.9570 C   0  0  0  0  0  0  0  0  0  0  0  0
  138.1930   69.2710  225.2080 N   0  0  0  0  0  0  0  0  0  0  0  0
  138.8360   70.2890  224.3690 C   0  0  0  0  0  0  0  0  0  0  0  0
  137.8170   70.7490  223.3310 C   0  0  0  0  0  0  0  0  0  0  0  0
  136.5160   70.0740  223.7110 C   0  0  0  0  0  0  0  0  0  0  0  0
  136.9310   68.8980  224.5680 C   0  0  0  0  0  0  0  0  0  0  0  0
  140.9882   67.6159  227.1293 H   0  0  0  0  0  0  0  0  0  0  0  0
  141.5847   68.1116  225.4848 H   0  0  0  0  0  0  0  0  0  0  0  0
  139.7238   69.3906  228.4999 H   0  0  0  0  0  0  0  0  0  0  0  0
  139.9404   71.7514  229.2803 H   0  0  0  0  0  0  0  0  0  0  0  0
  141.2550   73.3959  227.9409 H   0  0  0  0  0  0  0  0  0  0  0  0
  142.3402   72.6879  225.8080 H   0  0  0  0  0  0  0  0  0  0  0  0
  142.1225   70.3319  225.0138 H   0  0  0  0  0  0  0  0  0  0  0  0
  139.1494   71.1417  224.9892 H   0  0  0  0  0  0  0  0  0  0  0  0
  139.7268   69.8735  223.8753 H   0  0  0  0  0  0  0  0  0  0  0  0
  137.7052   71.8429  223.3611 H   0  0  0  0  0  0  0  0  0  0  0  0
  138.1291   70.4857  222.3096 H   0  0  0  0  0  0  0  0  0  0  0  0
  135.8738   70.7618  224.2806 H   0  0  0  0  0  0  0  0  0  0  0  0
  135.9350   69.7633  222.8302 H   0  0  0  0  0  0  0  0  0  0  0  0
  136.1645   68.6948  225.3303 H   0  0  0  0  0  0  0  0  0  0  0  0
  137.0478   67.9875  223.9619 H   0  0  0  0  0  0  0  0  0  0  0  0
  1  2  2  0
  2  3  2  0
  2  4  1  0
  4  5  1  0
  5  6  2  0
  6  7  1  0
  7  8  2  0
  8  9  1  0
  9 10  2  0
  2 11  1  0
 11 12  1  0
 12 13  1  0
 13 14  1  0
 14 15  1  0
 10  5  1  0
 15 11  1  0
  4 16  1  0
  4 17  1  0
  6 18  1  0
  7 19  1  0
  8 20  1  0
  9 21  1  0
 10 22  1  0
 12 23  1  0
 12 24  1  0
 13 25  1  0
 13 26  1  0
 14 27  1  0
 14 28  1  0
 15 29  1  0
 15 30  1  0
M  END
>  <UniqueID>  (72) 
27

>  <SMILES>  (72) 
O=S(=O)(Cc1ccccc1)N1CCCC1

>  <Energy>  (72) 
25.972949557357772

>  <Genealogy>  (72) 
O=S(=O)(Cc1ccccc1)N1CCCC1 (3D coordinates assigned)
O=S(=O)(Cc1ccccc1)N1CCCC1 (nonaromatic ring conformer: 25.972949557357772 kcal/mol)

>  <smiles>  (72) 
O=S(=O)(Cc1ccccc1)N1CCCC1

>  <score_type>  (72) 
oracle

>  <origin>  (72) 
autodockgpu

>  <m_score__min__energy>  (72) 
-5.8799999999999999

>  <m_primary>  (72) 
energy

>  <meeko>  (72) 
{"free_energy": -5.81, "intermolecular_energy": -6.71, "internal_energy": -0.66, "cluster_size": 18, "cluster_id": 1, "rank_in_cluster": 6}

>  <energy>  (72) 
-5.72

>  <cluster_rmsd>  (72) 
0.67

>  <rmsd>  (72) 
273.31

>  <cluster>  (72) 
1

$$$$
GGXXWZKFDBNAQR-UHFFFAOYNA-N
     RDKit          3D

 30 31  0  0  0  0  0  0  0  0999 V2000
  139.4370   67.0890  224.4440 O   0  0  0  0  0  0  0  0  0  0  0  0
  139.1740   68.4300  225.0700 S   0  0  0  0  0  0  0  0  0  0  0  0
  137.7040   68.5290  225.3630 O   0  0  0  0  0  0  0  0  0  0  0  0
  140.0430   68.5100  226.6430 C   0  0  0  0  0  0  0  0  0  0  0  0
  140.4850   69.9060  226.9820 C   0  0  0  0  0  0  0  0  0  0  0  0
  141.4220   70.5690  226.1710 C   0  0  0  0  0  0  0  0  0  0  0  0
  141.8080   71.8800  226.4670 C   0  0  0  0  0  0  0  0  0  0  0  0
  141.2640   72.5360  227.5740 C   0  0  0  0  0  0  0  0  0  0  0  0
  140.3400   71.8810  228.3910 C   0  0  0  0  0  0  0  0  0  0  0  0
  139.9530   70.5700  228.1010 C   0  0  0  0  0  0  0  0  0  0  0  0
  139.5820   69.6840  223.9170 N   0  0  0  0  0  0  0  0  0  0  0  0
  139.2900   69.3220  222.5250 C   0  0  0  0  0  0  0  0  0  0  0  0
  138.6470   70.5300  221.8530 C   0  0  0  0  0  0  0  0  0  0  0  0
  138.7310   71.6520  222.8670 C   0  0  0  0  0  0  0  0  0  0  0  0
  138.9090   70.9530  224.1970 C   0  0  0  0  0  0  0  0  0  0  0  0
  139.3718   68.1493  227.4363 H   0  0  0  0  0  0  0  0  0  0  0  0
  140.9433   67.8832  226.5615 H   0  0  0  0  0  0  0  0  0  0  0  0
  141.8535   70.0545  225.2998 H   0  0  0  0  0  0  0  0  0  0  0  0
  142.5403   72.3950  225.8279 H   0  0  0  0  0  0  0  0  0  0  0  0
  141.5638   73.5694  227.8023 H   0  0  0  0  0  0  0  0  0  0  0  0
  139.9160   72.3981  229.2645 H   0  0  0  0  0  0  0  0  0  0  0  0
  139.2295   70.0557  228.7506 H   0  0  0  0  0  0  0  0  0  0  0  0
  140.2218   69.0564  222.0043 H   0  0  0  0  0  0  0  0  0  0  0  0
  138.6123   68.4563  222.4877 H   0  0  0  0  0  0  0  0  0  0  0  0
  139.1955   70.7976  220.9378 H   0  0  0  0  0  0  0  0  0  0  0  0
  137.6075   70.3259  221.5566 H   0  0  0  0  0  0  0  0  0  0  0  0
  139.5903   72.3047  222.6534 H   0  0  0  0  0  0  0  0  0  0  0  0
  137.8395   72.2962  222.8507 H   0  0  0  0  0  0  0  0  0  0  0  0
  139.5245   71.5685  224.8696 H   0  0  0  0  0  0  0  0  0  0  0  0
  137.9399   70.7871  224.6902 H   0  0  0  0  0  0  0  0  0  0  0  0
  1  2  2  0
  2  3  2  0
  2  4  1  0
  4  5  1  0
  5  6  2  0
  6  7  1  0
  7  8  2  0
  8  9  1  0
  9 10  2  0
  2 11  1  0
 11 12  1  0
 12 13  1  0
 13 14  1  0
 14 15  1  0
 10  5  1  0
 15 11  1  0
  4 16  1  0
  4 17  1  0
  6 18  1  0
  7 19  1  0
  8 20  1  0
  9 21  1  0
 10 22  1  0
 12 23  1  0
 12 24  1  0
 13 25  1  0
 13 26  1  0
 14 27  1  0
 14 28  1  0
 15 29  1  0
 15 30  1  0
M  END
>  <UniqueID>  (73) 
27

>  <SMILES>  (73) 
O=S(=O)(Cc1ccccc1)N1CCCC1

>  <Energy>  (73) 
25.972949557357772

>  <Genealogy>  (73) 
O=S(=O)(Cc1ccccc1)N1CCCC1 (3D coordinates assigned)
O=S(=O)(Cc1ccccc1)N1CCCC1 (nonaromatic ring conformer: 25.972949557357772 kcal/mol)

>  <smiles>  (73) 
O=S(=O)(Cc1ccccc1)N1CCCC1

>  <score_type>  (73) 
oracle

>  <origin>  (73) 
autodockgpu

>  <m_score__min__energy>  (73) 
-5.8799999999999999

>  <m_primary>  (73) 
energy

>  <meeko>  (73) 
{"free_energy": -5.73, "intermolecular_energy": -6.62, "internal_energy": -0.67, "cluster_size": 18, "cluster_id": 1, "rank_in_cluster": 10}

>  <energy>  (73) 
-5.71

>  <cluster_rmsd>  (73) 
1.19

>  <rmsd>  (73) 
273.19

>  <cluster>  (73) 
1

$$$$
GGXXWZKFDBNAQR-UHFFFAOYNA-N
     RDKit          3D

 30 31  0  0  0  0  0  0  0  0999 V2000
  139.2310   67.0120  224.2120 O   0  0  0  0  0  0  0  0  0  0  0  0
  139.1420   68.3600  224.8700 S   0  0  0  0  0  0  0  0  0  0  0  0
  137.7310   68.5580  225.3440 O   0  0  0  0  0  0  0  0  0  0  0  0
  140.2040   68.3620  226.3230 C   0  0  0  0  0  0  0  0  0  0  0  0
  140.5450   69.7520  226.7810 C   0  0  0  0  0  0  0  0  0  0  0  0
  141.4160   70.5530  226.0240 C   0  0  0  0  0  0  0  0  0  0  0  0
  141.7080   71.8580  226.4320 C   0  0  0  0  0  0  0  0  0  0  0  0
  141.1340   72.3710  227.5980 C   0  0  0  0  0  0  0  0  0  0  0  0
  140.2750   71.5780  228.3630 C   0  0  0  0  0  0  0  0  0  0  0  0
  139.9830   70.2720  227.9600 C   0  0  0  0  0  0  0  0  0  0  0  0
  139.4910   69.5980  223.6790 N   0  0  0  0  0  0  0  0  0  0  0  0
  139.0820   69.2350  222.3170 C   0  0  0  0  0  0  0  0  0  0  0  0
  138.4200   70.4570  221.6890 C   0  0  0  0  0  0  0  0  0  0  0  0
  138.6120   71.5810  222.6840 C   0  0  0  0  0  0  0  0  0  0  0  0
  138.8760   70.8850  224.0020 C   0  0  0  0  0  0  0  0  0  0  0  0
  139.6862   67.8379  227.1398 H   0  0  0  0  0  0  0  0  0  0  0  0
  141.1435   67.8579  226.0526 H   0  0  0  0  0  0  0  0  0  0  0  0
  141.8704   70.1517  225.1061 H   0  0  0  0  0  0  0  0  0  0  0  0
  142.3899   72.4811  225.8348 H   0  0  0  0  0  0  0  0  0  0  0  0
  141.3587   73.4004  227.9140 H   0  0  0  0  0  0  0  0  0  0  0  0
  139.8281   71.9819  229.2834 H   0  0  0  0  0  0  0  0  0  0  0  0
  139.3108   69.6485  228.5678 H   0  0  0  0  0  0  0  0  0  0  0  0
  139.9630   68.9418  221.7271 H   0  0  0  0  0  0  0  0  0  0  0  0
  138.3819   68.3868  222.3387 H   0  0  0  0  0  0  0  0  0  0  0  0
  138.9018   70.7052  220.7318 H   0  0  0  0  0  0  0  0  0  0  0  0
  137.3554   70.2789  221.4768 H   0  0  0  0  0  0  0  0  0  0  0  0
  139.4683   72.2098  222.3988 H   0  0  0  0  0  0  0  0  0  0  0  0
  137.7387   72.2480  222.7327 H   0  0  0  0  0  0  0  0  0  0  0  0
  139.5585   71.4875  224.6194 H   0  0  0  0  0  0  0  0  0  0  0  0
  137.9451   70.7480  224.5717 H   0  0  0  0  0  0  0  0  0  0  0  0
  1  2  2  0
  2  3  2  0
  2  4  1  0
  4  5  1  0
  5  6  2  0
  6  7  1  0
  7  8  2  0
  8  9  1  0
  9 10  2  0
  2 11  1  0
 11 12  1  0
 12 13  1  0
 13 14  1  0
 14 15  1  0
 10  5  1  0
 15 11  1  0
  4 16  1  0
  4 17  1  0
  6 18  1  0
  7 19  1  0
  8 20  1  0
  9 21  1  0
 10 22  1  0
 12 23  1  0
 12 24  1  0
 13 25  1  0
 13 26  1  0
 14 27  1  0
 14 28  1  0
 15 29  1  0
 15 30  1  0
M  END
>  <UniqueID>  (74) 
27

>  <SMILES>  (74) 
O=S(=O)(Cc1ccccc1)N1CCCC1

>  <Energy>  (74) 
25.972949557357772

>  <Genealogy>  (74) 
O=S(=O)(Cc1ccccc1)N1CCCC1 (3D coordinates assigned)
O=S(=O)(Cc1ccccc1)N1CCCC1 (nonaromatic ring conformer: 25.972949557357772 kcal/mol)

>  <smiles>  (74) 
O=S(=O)(Cc1ccccc1)N1CCCC1

>  <score_type>  (74) 
oracle

>  <origin>  (74) 
autodockgpu

>  <m_score__min__energy>  (74) 
-5.8799999999999999

>  <m_primary>  (74) 
energy

>  <meeko>  (74) 
{"free_energy": -5.73, "intermolecular_energy": -6.62, "internal_energy": -0.69, "cluster_size": 18, "cluster_id": 1, "rank_in_cluster": 11}

>  <energy>  (74) 
-5.71

>  <cluster_rmsd>  (74) 
1.18

>  <rmsd>  (74) 
273.09

>  <cluster>  (74) 
1

$$$$
GGXXWZKFDBNAQR-UHFFFAOYNA-N
     RDKit          3D

 30 31  0  0  0  0  0  0  0  0999 V2000
  142.1780   81.6540  224.4570 O   0  0  0  0  0  0  0  0  0  0  0  0
  142.5890   80.6580  223.4090 S   0  0  0  0  0  0  0  0  0  0  0  0
  144.0830   80.5140  223.4600 O   0  0  0  0  0  0  0  0  0  0  0  0
  141.8780   79.0590  223.8260 C   0  0  0  0  0  0  0  0  0  0  0  0
  140.4260   78.9620  223.4480 C   0  0  0  0  0  0  0  0  0  0  0  0
  139.5220   79.9600  223.8520 C   0  0  0  0  0  0  0  0  0  0  0  0
  138.1780   79.8870  223.4730 C   0  0  0  0  0  0  0  0  0  0  0  0
  137.7270   78.8200  222.6920 C   0  0  0  0  0  0  0  0  0  0  0  0
  138.6170   77.8190  222.2960 C   0  0  0  0  0  0  0  0  0  0  0  0
  139.9610   77.8850  222.6750 C   0  0  0  0  0  0  0  0  0  0  0  0
  142.1610   81.2860  221.8300 N   0  0  0  0  0  0  0  0  0  0  0  0
  141.8260   80.2430  220.8530 C   0  0  0  0  0  0  0  0  0  0  0  0
  140.5900   80.7020  220.0860 C   0  0  0  0  0  0  0  0  0  0  0  0
  140.3280   82.1200  220.5470 C   0  0  0  0  0  0  0  0  0  0  0  0
  141.0420   82.2270  221.8780 C   0  0  0  0  0  0  0  0  0  0  0  0
  142.4352   78.2746  223.2928 H   0  0  0  0  0  0  0  0  0  0  0  0
  141.9501   78.9337  224.9165 H   0  0  0  0  0  0  0  0  0  0  0  0
  139.8730   80.8009  224.4682 H   0  0  0  0  0  0  0  0  0  0  0  0
  137.4747   80.6710  223.7903 H   0  0  0  0  0  0  0  0  0  0  0  0
  136.6709   78.7682  222.3889 H   0  0  0  0  0  0  0  0  0  0  0  0
  138.2597   76.9771  221.6848 H   0  0  0  0  0  0  0  0  0  0  0  0
  140.6569   77.0908  222.3669 H   0  0  0  0  0  0  0  0  0  0  0  0
  142.6657   80.0984  220.1573 H   0  0  0  0  0  0  0  0  0  0  0  0
  141.6293   79.2882  221.3626 H   0  0  0  0  0  0  0  0  0  0  0  0
  140.7799   80.6793  219.0028 H   0  0  0  0  0  0  0  0  0  0  0  0
  139.7270   80.0466  220.2750 H   0  0  0  0  0  0  0  0  0  0  0  0
  140.7375   82.8442  219.8274 H   0  0  0  0  0  0  0  0  0  0  0  0
  139.2534   82.3394  220.6312 H   0  0  0  0  0  0  0  0  0  0  0  0
  141.4139   83.2513  222.0277 H   0  0  0  0  0  0  0  0  0  0  0  0
  140.3634   81.9935  222.7116 H   0  0  0  0  0  0  0  0  0  0  0  0
  1  2  2  0
  2  3  2  0
  2  4  1  0
  4  5  1  0
  5  6  2  0
  6  7  1  0
  7  8  2  0
  8  9  1  0
  9 10  2  0
  2 11  1  0
 11 12  1  0
 12 13  1  0
 13 14  1  0
 14 15  1  0
 10  5  1  0
 15 11  1  0
  4 16  1  0
  4 17  1  0
  6 18  1  0
  7 19  1  0
  8 20  1  0
  9 21  1  0
 10 22  1  0
 12 23  1  0
 12 24  1  0
 13 25  1  0
 13 26  1  0
 14 27  1  0
 14 28  1  0
 15 29  1  0
 15 30  1  0
M  END
>  <UniqueID>  (75) 
27

>  <SMILES>  (75) 
O=S(=O)(Cc1ccccc1)N1CCCC1

>  <Energy>  (75) 
25.972949557357772

>  <Genealogy>  (75) 
O=S(=O)(Cc1ccccc1)N1CCCC1 (3D coordinates assigned)
O=S(=O)(Cc1ccccc1)N1CCCC1 (nonaromatic ring conformer: 25.972949557357772 kcal/mol)

>  <smiles>  (75) 
O=S(=O)(Cc1ccccc1)N1CCCC1

>  <score_type>  (75) 
oracle

>  <origin>  (75) 
autodockgpu

>  <m_score__min__energy>  (75) 
-5.8799999999999999

>  <m_primary>  (75) 
energy

>  <meeko>  (75) 
{"free_energy": -4.62, "intermolecular_energy": -5.52, "internal_energy": -0.92, "cluster_size": 1, "cluster_id": 3, "rank_in_cluster": 1}

>  <energy>  (75) 
-5.71

>  <cluster_rmsd>  (75) 
1.17

>  <rmsd>  (75) 
273.08

>  <cluster>  (75) 
1

$$$$
GGXXWZKFDBNAQR-UHFFFAOYNA-N
     RDKit          3D

 30 31  0  0  0  0  0  0  0  0999 V2000
  139.1980   67.0260  224.2060 O   0  0  0  0  0  0  0  0  0  0  0  0
  139.1140   68.3700  224.8730 S   0  0  0  0  0  0  0  0  0  0  0  0
  137.7070   68.5630  225.3610 O   0  0  0  0  0  0  0  0  0  0  0  0
  140.1890   68.3630  226.3160 C   0  0  0  0  0  0  0  0  0  0  0  0
  140.5370   69.7510  226.7770 C   0  0  0  0  0  0  0  0  0  0  0  0
  141.3930   70.5580  226.0090 C   0  0  0  0  0  0  0  0  0  0  0  0
  141.6900   71.8610  226.4210 C   0  0  0  0  0  0  0  0  0  0  0  0
  141.1380   72.3650  227.6010 C   0  0  0  0  0  0  0  0  0  0  0  0
  140.2940   71.5660  228.3760 C   0  0  0  0  0  0  0  0  0  0  0  0
  139.9960   70.2610  227.9700 C   0  0  0  0  0  0  0  0  0  0  0  0
  139.4510   69.6150  223.6870 N   0  0  0  0  0  0  0  0  0  0  0  0
  139.0670   69.2440  222.3200 C   0  0  0  0  0  0  0  0  0  0  0  0
  138.3860   70.4510  221.6830 C   0  0  0  0  0  0  0  0  0  0  0  0
  138.5410   71.5790  222.6810 C   0  0  0  0  0  0  0  0  0  0  0  0
  138.8030   70.8880  224.0020 C   0  0  0  0  0  0  0  0  0  0  0  0
  139.6776   67.8363  227.1352 H   0  0  0  0  0  0  0  0  0  0  0  0
  141.1249   67.8579  226.0350 H   0  0  0  0  0  0  0  0  0  0  0  0
  141.8312   70.1636  225.0803 H   0  0  0  0  0  0  0  0  0  0  0  0
  142.3591   72.4897  225.8151 H   0  0  0  0  0  0  0  0  0  0  0  0
  141.3681   73.3922  227.9203 H   0  0  0  0  0  0  0  0  0  0  0  0
  139.8632   71.9636  229.3068 H   0  0  0  0  0  0  0  0  0  0  0  0
  139.3365   69.6321  228.5860 H   0  0  0  0  0  0  0  0  0  0  0  0
  139.9616   68.9705  221.7413 H   0  0  0  0  0  0  0  0  0  0  0  0
  138.3852   68.3809  222.3334 H   0  0  0  0  0  0  0  0  0  0  0  0
  138.8743   70.7099  220.7319 H   0  0  0  0  0  0  0  0  0  0  0  0
  137.3285   70.2497  221.4570 H   0  0  0  0  0  0  0  0  0  0  0  0
  139.3872   72.2262  222.4070 H   0  0  0  0  0  0  0  0  0  0  0  0
  137.6531   72.2272  222.7186 H   0  0  0  0  0  0  0  0  0  0  0  0
  139.4636   71.5052  224.6286 H   0  0  0  0  0  0  0  0  0  0  0  0
  137.8677   70.7297  224.5590 H   0  0  0  0  0  0  0  0  0  0  0  0
  1  2  2  0
  2  3  2  0
  2  4  1  0
  4  5  1  0
  5  6  2  0
  6  7  1  0
  7  8  2  0
  8  9  1  0
  9 10  2  0
  2 11  1  0
 11 12  1  0
 12 13  1  0
 13 14  1  0
 14 15  1  0
 10  5  1  0
 15 11  1  0
  4 16  1  0
  4 17  1  0
  6 18  1  0
  7 19  1  0
  8 20  1  0
  9 21  1  0
 10 22  1  0
 12 23  1  0
 12 24  1  0
 13 25  1  0
 13 26  1  0
 14 27  1  0
 14 28  1  0
 15 29  1  0
 15 30  1  0
M  END
>  <UniqueID>  (76) 
27

>  <SMILES>  (76) 
O=S(=O)(Cc1ccccc1)N1CCCC1

>  <Energy>  (76) 
25.972949557357772

>  <Genealogy>  (76) 
O=S(=O)(Cc1ccccc1)N1CCCC1 (3D coordinates assigned)
O=S(=O)(Cc1ccccc1)N1CCCC1 (nonaromatic ring conformer: 25.972949557357772 kcal/mol)

>  <smiles>  (76) 
O=S(=O)(Cc1ccccc1)N1CCCC1

>  <score_type>  (76) 
oracle

>  <origin>  (76) 
autodockgpu

>  <m_score__min__energy>  (76) 
-5.8799999999999999

>  <m_primary>  (76) 
energy

>  <meeko>  (76) 
{"free_energy": -5.71, "intermolecular_energy": -6.61, "internal_energy": -0.69, "cluster_size": 18, "cluster_id": 1, "rank_in_cluster": 14}

>  <energy>  (76) 
-5.7

>  <cluster_rmsd>  (76) 
1.18

>  <rmsd>  (76) 
273.04

>  <cluster>  (76) 
1

$$$$
GGXXWZKFDBNAQR-UHFFFAOYNA-N
     RDKit          3D

 30 31  0  0  0  0  0  0  0  0999 V2000
  139.5680   67.1190  224.4020 O   0  0  0  0  0  0  0  0  0  0  0  0
  139.2970   67.8760  225.6710 S   0  0  0  0  0  0  0  0  0  0  0  0
  138.5220   66.9810  226.5950 O   0  0  0  0  0  0  0  0  0  0  0  0
  140.8680   68.2440  226.4680 C   0  0  0  0  0  0  0  0  0  0  0  0
  140.9820   69.6890  226.8690 C   0  0  0  0  0  0  0  0  0  0  0  0
  141.7320   70.5830  226.0860 C   0  0  0  0  0  0  0  0  0  0  0  0
  141.8110   71.9330  226.4410 C   0  0  0  0  0  0  0  0  0  0  0  0
  141.1450   72.3990  227.5770 C   0  0  0  0  0  0  0  0  0  0  0  0
  140.4060   71.5140  228.3660 C   0  0  0  0  0  0  0  0  0  0  0  0
  140.3260   70.1630  228.0170 C   0  0  0  0  0  0  0  0  0  0  0  0
  138.2950   69.2660  225.3000 N   0  0  0  0  0  0  0  0  0  0  0  0
  138.9660   70.2690  224.4650 C   0  0  0  0  0  0  0  0  0  0  0  0
  137.9740   70.7290  223.4020 C   0  0  0  0  0  0  0  0  0  0  0  0
  136.6570   70.0740  223.7630 C   0  0  0  0  0  0  0  0  0  0  0  0
  137.0410   68.9010  224.6390 C   0  0  0  0  0  0  0  0  0  0  0  0
  140.9626   67.6189  227.3682 H   0  0  0  0  0  0  0  0  0  0  0  0
  141.6692   68.0321  225.7446 H   0  0  0  0  0  0  0  0  0  0  0  0
  142.2585   70.2196  225.1911 H   0  0  0  0  0  0  0  0  0  0  0  0
  142.3986   72.6293  225.8247 H   0  0  0  0  0  0  0  0  0  0  0  0
  141.2024   73.4629  227.8504 H   0  0  0  0  0  0  0  0  0  0  0  0
  139.8863   71.8811  229.2633 H   0  0  0  0  0  0  0  0  0  0  0  0
  139.7472   69.4684  228.6436 H   0  0  0  0  0  0  0  0  0  0  0  0
  139.2754   71.1245  225.0834 H   0  0  0  0  0  0  0  0  0  0  0  0
  139.8625   69.8396  223.9940 H   0  0  0  0  0  0  0  0  0  0  0  0
  137.8750   71.8244  223.4176 H   0  0  0  0  0  0  0  0  0  0  0  0
  138.3033   70.4501  222.3902 H   0  0  0  0  0  0  0  0  0  0  0  0
  136.0127   70.7752  224.3136 H   0  0  0  0  0  0  0  0  0  0  0  0
  136.0889   69.7623  222.8742 H   0  0  0  0  0  0  0  0  0  0  0  0
  136.2574   68.7141  225.3881 H   0  0  0  0  0  0  0  0  0  0  0  0
  137.1585   67.9832  224.0442 H   0  0  0  0  0  0  0  0  0  0  0  0
  1  2  2  0
  2  3  2  0
  2  4  1  0
  4  5  1  0
  5  6  2  0
  6  7  1  0
  7  8  2  0
  8  9  1  0
  9 10  2  0
  2 11  1  0
 11 12  1  0
 12 13  1  0
 13 14  1  0
 14 15  1  0
 10  5  1  0
 15 11  1  0
  4 16  1  0
  4 17  1  0
  6 18  1  0
  7 19  1  0
  8 20  1  0
  9 21  1  0
 10 22  1  0
 12 23  1  0
 12 24  1  0
 13 25  1  0
 13 26  1  0
 14 27  1  0
 14 28  1  0
 15 29  1  0
 15 30  1  0
M  END
>  <UniqueID>  (77) 
27

>  <SMILES>  (77) 
O=S(=O)(Cc1ccccc1)N1CCCC1

>  <Energy>  (77) 
25.972949557357772

>  <Genealogy>  (77) 
O=S(=O)(Cc1ccccc1)N1CCCC1 (3D coordinates assigned)
O=S(=O)(Cc1ccccc1)N1CCCC1 (nonaromatic ring conformer: 25.972949557357772 kcal/mol)

>  <smiles>  (77) 
O=S(=O)(Cc1ccccc1)N1CCCC1

>  <score_type>  (77) 
oracle

>  <origin>  (77) 
autodockgpu

>  <m_score__min__energy>  (77) 
-5.8799999999999999

>  <m_primary>  (77) 
energy

>  <meeko>  (77) 
{"free_energy": -5.88, "intermolecular_energy": -6.77, "internal_energy": -0.67, "cluster_size": 18, "cluster_id": 1, "rank_in_cluster": 1}

>  <energy>  (77) 
-5.69

>  <cluster_rmsd>  (77) 
0.7

>  <rmsd>  (77) 
273.28

>  <cluster>  (77) 
1

$$$$
GGXXWZKFDBNAQR-UHFFFAOYNA-N
     RDKit          3D

 30 31  0  0  0  0  0  0  0  0999 V2000
  139.5790   67.0210  224.2310 O   0  0  0  0  0  0  0  0  0  0  0  0
  139.3410   68.0420  225.3080 S   0  0  0  0  0  0  0  0  0  0  0  0
  138.8150   67.3300  226.5210 O   0  0  0  0  0  0  0  0  0  0  0  0
  140.9190   68.7800  225.7590 C   0  0  0  0  0  0  0  0  0  0  0  0
  140.7580   69.9600  226.6760 C   0  0  0  0  0  0  0  0  0  0  0  0
  141.4490   71.1560  226.4180 C   0  0  0  0  0  0  0  0  0  0  0  0
  141.2740   72.2650  227.2520 C   0  0  0  0  0  0  0  0  0  0  0  0
  140.4120   72.1870  228.3480 C   0  0  0  0  0  0  0  0  0  0  0  0
  139.7290   70.9980  228.6180 C   0  0  0  0  0  0  0  0  0  0  0  0
  139.9030   69.8860  227.7890 C   0  0  0  0  0  0  0  0  0  0  0  0
  138.1110   69.1660  224.7640 N   0  0  0  0  0  0  0  0  0  0  0  0
  138.6030   70.5370  224.5880 C   0  0  0  0  0  0  0  0  0  0  0  0
  138.0230   71.0770  223.2850 C   0  0  0  0  0  0  0  0  0  0  0  0
  137.0490   70.0210  222.8050 C   0  0  0  0  0  0  0  0  0  0  0  0
  137.4810   68.7540  223.5100 C   0  0  0  0  0  0  0  0  0  0  0  0
  141.5326   68.0202  226.2653 H   0  0  0  0  0  0  0  0  0  0  0  0
  141.3992   69.1357  224.8355 H   0  0  0  0  0  0  0  0  0  0  0  0
  142.1302   71.2203  225.5567 H   0  0  0  0  0  0  0  0  0  0  0  0
  141.8158   73.1995  227.0445 H   0  0  0  0  0  0  0  0  0  0  0  0
  140.2705   73.0621  228.9993 H   0  0  0  0  0  0  0  0  0  0  0  0
  139.0536   70.9371  229.4841 H   0  0  0  0  0  0  0  0  0  0  0  0
  139.3689   68.9498  228.0085 H   0  0  0  0  0  0  0  0  0  0  0  0
  138.2757   71.1631  225.4311 H   0  0  0  0  0  0  0  0  0  0  0  0
  139.7024   70.5491  224.5532 H   0  0  0  0  0  0  0  0  0  0  0  0
  137.5009   72.0289  223.4623 H   0  0  0  0  0  0  0  0  0  0  0  0
  138.8084   71.2751  222.5408 H   0  0  0  0  0  0  0  0  0  0  0  0
  136.0187   70.2880  223.0830 H   0  0  0  0  0  0  0  0  0  0  0  0
  137.0575   69.9127  221.7104 H   0  0  0  0  0  0  0  0  0  0  0  0
  136.6076   68.1176  223.7155 H   0  0  0  0  0  0  0  0  0  0  0  0
  138.1783   68.1730  222.8886 H   0  0  0  0  0  0  0  0  0  0  0  0
  1  2  2  0
  2  3  2  0
  2  4  1  0
  4  5  1  0
  5  6  2  0
  6  7  1  0
  7  8  2  0
  8  9  1  0
  9 10  2  0
  2 11  1  0
 11 12  1  0
 12 13  1  0
 13 14  1  0
 14 15  1  0
 10  5  1  0
 15 11  1  0
  4 16  1  0
  4 17  1  0
  6 18  1  0
  7 19  1  0
  8 20  1  0
  9 21  1  0
 10 22  1  0
 12 23  1  0
 12 24  1  0
 13 25  1  0
 13 26  1  0
 14 27  1  0
 14 28  1  0
 15 29  1  0
 15 30  1  0
M  END
>  <UniqueID>  (78) 
27

>  <SMILES>  (78) 
O=S(=O)(Cc1ccccc1)N1CCCC1

>  <Energy>  (78) 
25.972949557357772

>  <Genealogy>  (78) 
O=S(=O)(Cc1ccccc1)N1CCCC1 (3D coordinates assigned)
O=S(=O)(Cc1ccccc1)N1CCCC1 (nonaromatic ring conformer: 25.972949557357772 kcal/mol)

>  <smiles>  (78) 
O=S(=O)(Cc1ccccc1)N1CCCC1

>  <score_type>  (78) 
oracle

>  <origin>  (78) 
autodockgpu

>  <m_score__min__energy>  (78) 
-5.8799999999999999

>  <m_primary>  (78) 
energy

>  <meeko>  (78) 
{"free_energy": -5.72, "intermolecular_energy": -6.61, "internal_energy": -0.6, "cluster_size": 18, "cluster_id": 1, "rank_in_cluster": 12}

>  <energy>  (78) 
-5.69

>  <cluster_rmsd>  (78) 
1.22

>  <rmsd>  (78) 
273.09

>  <cluster>  (78) 
1

$$$$
GGXXWZKFDBNAQR-UHFFFAOYNA-N
     RDKit          3D

 30 31  0  0  0  0  0  0  0  0999 V2000
  139.5170   67.0190  224.2260 O   0  0  0  0  0  0  0  0  0  0  0  0
  139.2840   67.8860  225.4320 S   0  0  0  0  0  0  0  0  0  0  0  0
  138.6040   67.0540  226.4810 O   0  0  0  0  0  0  0  0  0  0  0  0
  140.8790   68.3920  226.0930 C   0  0  0  0  0  0  0  0  0  0  0  0
  140.8200   69.7370  226.7620 C   0  0  0  0  0  0  0  0  0  0  0  0
  141.5140   70.8300  226.2160 C   0  0  0  0  0  0  0  0  0  0  0  0
  141.4330   72.0890  226.8190 C   0  0  0  0  0  0  0  0  0  0  0  0
  140.6630   72.2640  227.9710 C   0  0  0  0  0  0  0  0  0  0  0  0
  139.9780   71.1810  228.5260 C   0  0  0  0  0  0  0  0  0  0  0  0
  140.0580   69.9200  227.9280 C   0  0  0  0  0  0  0  0  0  0  0  0
  138.2010   69.1910  224.9910 N   0  0  0  0  0  0  0  0  0  0  0  0
  138.8940   70.4070  224.5470 C   0  0  0  0  0  0  0  0  0  0  0  0
  138.1620   70.9390  223.3200 C   0  0  0  0  0  0  0  0  0  0  0  0
  136.9260   70.0750  223.1770 C   0  0  0  0  0  0  0  0  0  0  0  0
  137.2510   68.8120  223.9450 C   0  0  0  0  0  0  0  0  0  0  0  0
  141.2095   67.6449  226.8297 H   0  0  0  0  0  0  0  0  0  0  0  0
  141.5833   68.4660  225.2513 H   0  0  0  0  0  0  0  0  0  0  0  0
  142.1236   70.6947  225.3104 H   0  0  0  0  0  0  0  0  0  0  0  0
  141.9760   72.9420  226.3859 H   0  0  0  0  0  0  0  0  0  0  0  0
  140.5960   73.2560  228.4416 H   0  0  0  0  0  0  0  0  0  0  0  0
  139.3746   71.3204  229.4351 H   0  0  0  0  0  0  0  0  0  0  0  0
  139.5224   69.0679  228.3720 H   0  0  0  0  0  0  0  0  0  0  0  0
  138.8780   71.1605  225.3482 H   0  0  0  0  0  0  0  0  0  0  0  0
  139.9428   70.1837  224.3018 H   0  0  0  0  0  0  0  0  0  0  0  0
  137.8796   71.9918  223.4678 H   0  0  0  0  0  0  0  0  0  0  0  0
  138.7933   70.8988  222.4201 H   0  0  0  0  0  0  0  0  0  0  0  0
  136.0487   70.5778  223.6101 H   0  0  0  0  0  0  0  0  0  0  0  0
  136.6795   69.8710  222.1245 H   0  0  0  0  0  0  0  0  0  0  0  0
  136.3375   68.3957  224.3948 H   0  0  0  0  0  0  0  0  0  0  0  0
  137.6763   68.0436  223.2827 H   0  0  0  0  0  0  0  0  0  0  0  0
  1  2  2  0
  2  3  2  0
  2  4  1  0
  4  5  1  0
  5  6  2  0
  6  7  1  0
  7  8  2  0
  8  9  1  0
  9 10  2  0
  2 11  1  0
 11 12  1  0
 12 13  1  0
 13 14  1  0
 14 15  1  0
 10  5  1  0
 15 11  1  0
  4 16  1  0
  4 17  1  0
  6 18  1  0
  7 19  1  0
  8 20  1  0
  9 21  1  0
 10 22  1  0
 12 23  1  0
 12 24  1  0
 13 25  1  0
 13 26  1  0
 14 27  1  0
 14 28  1  0
 15 29  1  0
 15 30  1  0
M  END
>  <UniqueID>  (79) 
27

>  <SMILES>  (79) 
O=S(=O)(Cc1ccccc1)N1CCCC1

>  <Energy>  (79) 
25.972949557357772

>  <Genealogy>  (79) 
O=S(=O)(Cc1ccccc1)N1CCCC1 (3D coordinates assigned)
O=S(=O)(Cc1ccccc1)N1CCCC1 (nonaromatic ring conformer: 25.972949557357772 kcal/mol)

>  <smiles>  (79) 
O=S(=O)(Cc1ccccc1)N1CCCC1

>  <score_type>  (79) 
oracle

>  <origin>  (79) 
autodockgpu

>  <m_score__min__energy>  (79) 
-5.8799999999999999

>  <m_primary>  (79) 
energy

>  <meeko>  (79) 
{"free_energy": -5.87, "intermolecular_energy": -6.76, "internal_energy": -0.55, "cluster_size": 18, "cluster_id": 1, "rank_in_cluster": 2}

>  <energy>  (79) 
-5.71

>  <cluster_rmsd>  (79) 
0.0

>  <rmsd>  (79) 
272.46

>  <cluster>  (79) 
2

$$$$
GGXXWZKFDBNAQR-UHFFFAOYNA-N
     RDKit          3D

 30 31  0  0  0  0  0  0  0  0999 V2000
  139.2010   67.0250  224.2390 O   0  0  0  0  0  0  0  0  0  0  0  0
  139.1560   68.3870  224.8720 S   0  0  0  0  0  0  0  0  0  0  0  0
  137.7540   68.6340  225.3520 O   0  0  0  0  0  0  0  0  0  0  0  0
  140.2270   68.3860  226.3180 C   0  0  0  0  0  0  0  0  0  0  0  0
  140.5760   69.7750  226.7730 C   0  0  0  0  0  0  0  0  0  0  0  0
  141.4570   70.5670  226.0180 C   0  0  0  0  0  0  0  0  0  0  0  0
  141.7560   71.8720  226.4240 C   0  0  0  0  0  0  0  0  0  0  0  0
  141.1790   72.3920  227.5860 C   0  0  0  0  0  0  0  0  0  0  0  0
  140.3100   71.6080  228.3470 C   0  0  0  0  0  0  0  0  0  0  0  0
  140.0110   70.3020  227.9470 C   0  0  0  0  0  0  0  0  0  0  0  0
  139.5310   69.5910  223.6560 N   0  0  0  0  0  0  0  0  0  0  0  0
  139.0860   69.2240  222.3060 C   0  0  0  0  0  0  0  0  0  0  0  0
  138.4600   70.4590  221.6690 C   0  0  0  0  0  0  0  0  0  0  0  0
  138.7120   71.5910  222.6420 C   0  0  0  0  0  0  0  0  0  0  0  0
  138.9700   70.9060  223.9670 C   0  0  0  0  0  0  0  0  0  0  0  0
  139.7125   67.8643  227.1384 H   0  0  0  0  0  0  0  0  0  0  0  0
  141.1630   67.8783  226.0419 H   0  0  0  0  0  0  0  0  0  0  0  0
  141.9136   70.1595  225.1040 H   0  0  0  0  0  0  0  0  0  0  0  0
  142.4452   72.4889  225.8287 H   0  0  0  0  0  0  0  0  0  0  0  0
  141.4099   73.4202  227.9013 H   0  0  0  0  0  0  0  0  0  0  0  0
  139.8597   72.0184  229.2629 H   0  0  0  0  0  0  0  0  0  0  0  0
  139.3314   69.6850  228.5532 H   0  0  0  0  0  0  0  0  0  0  0  0
  139.9456   68.8891  221.7069 H   0  0  0  0  0  0  0  0  0  0  0  0
  138.3547   68.4037  222.3527 H   0  0  0  0  0  0  0  0  0  0  0  0
  138.9340   70.6731  220.6997 H   0  0  0  0  0  0  0  0  0  0  0  0
  137.3860   70.3182  221.4777 H   0  0  0  0  0  0  0  0  0  0  0  0
  139.5875   72.1809  222.3330 H   0  0  0  0  0  0  0  0  0  0  0  0
  137.8666   72.2929  222.6931 H   0  0  0  0  0  0  0  0  0  0  0  0
  139.6843   71.4917  224.5642 H   0  0  0  0  0  0  0  0  0  0  0  0
  138.0434   70.8134  224.5525 H   0  0  0  0  0  0  0  0  0  0  0  0
  1  2  2  0
  2  3  2  0
  2  4  1  0
  4  5  1  0
  5  6  2  0
  6  7  1  0
  7  8  2  0
  8  9  1  0
  9 10  2  0
  2 11  1  0
 11 12  1  0
 12 13  1  0
 13 14  1  0
 14 15  1  0
 10  5  1  0
 15 11  1  0
  4 16  1  0
  4 17  1  0
  6 18  1  0
  7 19  1  0
  8 20  1  0
  9 21  1  0
 10 22  1  0
 12 23  1  0
 12 24  1  0
 13 25  1  0
 13 26  1  0
 14 27  1  0
 14 28  1  0
 15 29  1  0
 15 30  1  0
M  END
>  <UniqueID>  (80) 
27

>  <SMILES>  (80) 
O=S(=O)(Cc1ccccc1)N1CCCC1

>  <Energy>  (80) 
25.972949557357772

>  <Genealogy>  (80) 
O=S(=O)(Cc1ccccc1)N1CCCC1 (3D coordinates assigned)
O=S(=O)(Cc1ccccc1)N1CCCC1 (nonaromatic ring conformer: 25.972949557357772 kcal/mol)

>  <smiles>  (80) 
O=S(=O)(Cc1ccccc1)N1CCCC1

>  <score_type>  (80) 
oracle

>  <origin>  (80) 
autodockgpu

>  <m_score__min__energy>  (80) 
-5.8799999999999999

>  <m_primary>  (80) 
energy

>  <meeko>  (80) 
{"free_energy": -5.74, "intermolecular_energy": -6.63, "internal_energy": -0.68, "cluster_size": 18, "cluster_id": 1, "rank_in_cluster": 9}

>  <energy>  (80) 
-4.62

>  <cluster_rmsd>  (80) 
0.0

>  <rmsd>  (80) 
274.21

>  <cluster>  (80) 
3

$$$$
